data_functionalizedCrystal
_audit_creation_method	'MofGen! by Chris Wilmer'
_symmetry_space_group_name_H-M	'P1'
_symmetry_Int_Tables_number	1
_symmetry_cell_setting	triclinic
loop_
_symmetry_equiv_pos_as_xyz
  x,y,z
_cell_length_a	27.731988
_cell_length_b	26.210047
_cell_length_c	11.026607
_cell_angle_alpha	90.007718
_cell_angle_beta	95.602189
_cell_angle_gamma	90.002920
loop_
_atom_site_label
_atom_site_type_symbol
_atom_site_fract_x
_atom_site_fract_y
_atom_site_fract_z
O1	O	-0.653890	0.042284	-0.143789
O2	O	-0.515072	0.042315	-0.165782
O3	O	-0.572976	0.042300	0.021646
O4	O	-0.595986	0.042299	-0.331217
O5	O	-0.572964	-0.042558	0.021616
O6	O	-0.515060	-0.042543	-0.165811
O7	O	-0.653879	-0.042574	-0.143818
Cu8	Cu	-0.584468	-0.050307	-0.154817
Cu9	Cu	-0.584482	0.050048	-0.154783
O10	O	-0.595975	-0.042559	-0.331246
C11	C	-0.497018	-0.000110	-0.165346
C12	C	-0.443240	-0.000098	-0.163990
C13	C	-0.059200	0.046136	-0.154140
C14	C	-0.261323	0.046149	-0.159311
O15	O	-0.287458	0.085489	-0.159918
N16	N	-0.286595	-0.000106	-0.159974
C17	C	-0.261333	-0.046368	-0.159336
O18	O	-0.287466	-0.085711	-0.160006
C19	C	-0.059211	-0.046380	-0.154156
C20	C	-0.033942	-0.000122	-0.153506
C21	C	-0.033931	0.092391	-0.153488
C22	C	0.016597	0.092387	-0.152202
C23	C	0.041855	0.046129	-0.151568
C24	C	0.016586	-0.000125	-0.152220
C25	C	-0.033949	-0.092641	-0.153510
C26	C	0.016585	-0.092640	-0.152211
C27	C	0.041854	-0.046382	-0.151561
C28	C	0.092372	-0.046387	-0.150299
N29	N	0.117644	-0.000132	-0.149636
C30	C	0.092386	0.046126	-0.150270
C31	C	-0.367451	-0.046359	-0.162058
C32	C	-0.417981	-0.046356	-0.163356
C33	C	-0.417968	0.046161	-0.163328
C34	C	-0.367436	0.046158	-0.162040
C35	C	-0.342179	-0.000103	-0.161395
C36	C	0.198497	0.046115	-0.147571
C37	C	0.249029	0.046107	-0.146289
C38	C	0.249011	-0.046409	-0.146311
C39	C	0.198484	-0.046402	-0.147598
C40	C	0.173228	-0.000136	-0.148224
O41	O	0.118538	-0.085706	-0.149678
O42	O	0.118528	0.085463	-0.149573
C43	C	-0.109728	0.046140	-0.155426
C44	C	-0.134997	-0.000115	-0.156078
C45	C	-0.109738	-0.046373	-0.155444
C46	C	-0.185527	-0.000112	-0.157375
C47	C	-0.210786	0.046146	-0.158009
C48	C	-0.185513	0.092402	-0.157346
C49	C	-0.134986	0.092398	-0.156060
C50	C	-0.135010	-0.092628	-0.156107
C51	C	-0.185538	-0.092621	-0.157394
C52	C	-0.210797	-0.046363	-0.158028
N53	N	-0.584462	-0.120891	-0.154841
C54	C	-0.610120	-0.473411	-0.071808
C55	C	-0.610130	-0.687070	-0.071791
O56	O	-0.631927	-0.714698	-0.001200
N57	N	-0.584483	-0.713785	-0.154756
C58	C	-0.558829	-0.687081	-0.237726
O59	O	-0.537011	-0.714706	-0.308284
C60	C	-0.558817	-0.473424	-0.237736
C61	C	-0.584470	-0.446712	-0.154774
C62	C	-0.635771	-0.446699	0.011148
C63	C	-0.635770	-0.393288	0.011138
C64	C	-0.610120	-0.366589	-0.071827
C65	C	-0.584469	-0.393300	-0.154783
C66	C	-0.533161	-0.446722	-0.320699
C67	C	-0.533159	-0.393304	-0.320692
C68	C	-0.558812	-0.366592	-0.237730
C69	C	-0.558818	-0.313189	-0.237759
N70	N	-0.584466	-0.286475	-0.154794
C71	C	-0.610116	-0.313174	-0.071828
C72	C	-0.558837	-0.799255	-0.237716
C73	C	-0.558841	-0.852669	-0.237715
C74	C	-0.610141	-0.852654	-0.071779
C75	C	-0.610140	-0.799239	-0.071787
C76	C	-0.584485	-0.772540	-0.154751
C77	C	-0.610114	-0.201006	-0.071855
C78	C	-0.610113	-0.147590	-0.071875
C79	C	-0.558811	-0.147610	-0.237807
C80	C	-0.558813	-0.201022	-0.237791
C81	C	-0.584466	-0.227718	-0.154805
O82	O	-0.537028	-0.285529	-0.308304
O83	O	-0.631922	-0.285540	-0.001263
C84	C	-0.610121	-0.526823	-0.071799
C85	C	-0.584471	-0.553535	-0.154755
C86	C	-0.558820	-0.526835	-0.237721
C87	C	-0.584474	-0.606949	-0.154754
C88	C	-0.610125	-0.633648	-0.071789
C89	C	-0.635772	-0.606934	0.011176
C90	C	-0.635772	-0.553522	0.011167
C91	C	-0.533173	-0.553550	-0.320685
C92	C	-0.533176	-0.606961	-0.320670
C93	C	-0.558827	-0.633661	-0.237704
C94	C	0.328067	-0.000147	-0.144265
C95	C	0.274287	-0.000151	-0.145655
C96	C	-0.568725	-0.000127	0.066760
C97	C	-0.556071	-0.000123	0.201230
N98	N	-0.584492	0.120632	-0.154750
C99	C	-0.600225	-0.000131	-0.376360
C100	C	-0.612880	-0.000132	-0.510830
C101	C	-0.591012	-0.000130	0.275710
C102	C	-0.577934	-0.000125	0.414692
H103	H	0.177908	-0.084069	-0.148152
C104	C	0.302228	0.099783	-0.249017
C105	C	0.276804	0.096958	-0.145573
H106	H	0.319370	0.131177	-0.248575
H107	H	0.324503	0.072239	-0.248448
H108	H	0.280049	0.097859	-0.320183
H109	H	0.298983	0.098879	-0.074406
H110	H	0.254526	0.124511	-0.146131
H111	H	-0.652479	-0.000103	0.450050
C112	C	-0.523060	-0.376879	-0.530931
C113	C	-0.504960	-0.363956	-0.411897
H114	H	-0.505654	-0.358758	-0.587236
H115	H	-0.519388	-0.412509	-0.542786
H116	H	-0.556413	-0.368123	-0.543503
H117	H	-0.471608	-0.372715	-0.399322
H118	H	-0.508628	-0.328318	-0.400037
H119	H	0.177940	0.083790	-0.148082
C120	C	-0.495424	-0.261093	-0.265235
C121	C	-0.530620	-0.230391	-0.328984
H122	H	-0.478018	-0.279224	-0.321530
H123	H	-0.473680	-0.240247	-0.215134
H124	H	-0.510705	-0.284636	-0.215820
H125	H	-0.515338	-0.206845	-0.378392
H126	H	-0.552367	-0.251238	-0.379106
C127	C	-0.500006	-0.000109	0.381497
C128	C	-0.502615	-0.000110	0.254037
H129	H	-0.467004	-0.000104	0.414092
H130	H	-0.515622	0.029479	0.408426
H131	H	-0.515618	-0.029705	0.408413
H132	H	-0.487007	0.029489	0.227121
H133	H	-0.486993	-0.029700	0.227097
C134	C	-0.645772	-0.377025	0.221439
C135	C	-0.663945	-0.364016	0.102525
H136	H	-0.663159	-0.358979	0.277914
H137	H	-0.649408	-0.412671	0.233107
H138	H	-0.612423	-0.368240	0.233946
H139	H	-0.697293	-0.372805	0.090015
H140	H	-0.660313	-0.328362	0.090853
H141	H	0.269585	-0.084072	-0.145799
C142	C	-0.245994	-0.146308	-0.263026
C143	C	-0.213311	-0.143473	-0.158108
H144	H	-0.263135	-0.177702	-0.263459
H145	H	-0.268270	-0.118764	-0.263581
H146	H	-0.228740	-0.144388	-0.333192
H147	H	-0.230565	-0.145389	-0.087941
H148	H	-0.191031	-0.171024	-0.157542
C149	C	-0.667479	0.043480	0.262620
C150	C	-0.644467	-0.000139	0.222897
H151	H	-0.700480	0.043475	0.230010
H152	H	-0.665705	0.043476	0.349080
H153	H	-0.651863	0.073071	0.235690
H154	H	-0.660081	-0.029730	0.249835
H155	H	-0.646244	-0.000140	0.136419
C156	C	0.011520	0.183833	-0.152277
C157	C	0.044369	0.143236	-0.151460
H158	H	0.028665	0.215227	-0.151806
H159	H	-0.010645	0.181911	-0.223456
H160	H	-0.005732	0.181899	-0.082109
H161	H	0.061619	0.145169	-0.221633
H162	H	0.066542	0.145160	-0.080274
C163	C	-0.094367	0.146069	-0.259122
C164	C	-0.061691	0.143243	-0.154193
H165	H	-0.111504	0.177465	-0.259558
H166	H	-0.077112	0.144139	-0.329273
H167	H	-0.116652	0.118525	-0.259684
H168	H	-0.039403	0.170786	-0.153636
H169	H	-0.078947	0.145179	-0.084024
H170	H	-0.054515	-0.130310	-0.154036
C171	C	-0.262971	0.133477	-0.159302
C172	C	-0.213284	0.143250	-0.158038
H173	H	-0.280116	0.164867	-0.159716
H174	H	-0.273710	0.114474	-0.230190
H175	H	-0.268785	0.114467	-0.088842
H176	H	-0.207470	0.162256	-0.228502
H177	H	-0.202542	0.162260	-0.087142
C178	C	-0.631791	-0.493545	0.176408
C179	C	-0.663911	-0.524209	0.102557
H180	H	-0.649149	-0.475462	0.232883
H181	H	-0.607889	-0.514410	0.219423
H182	H	-0.616558	-0.469959	0.127001
H183	H	-0.679142	-0.547797	0.151963
H184	H	-0.687822	-0.503342	0.059538
H185	H	-0.656660	-0.628681	0.078726
H186	H	-0.346866	0.083826	-0.161510
C187	C	-0.307019	-0.100049	-0.056418
C188	C	-0.339694	-0.097216	-0.161349
H189	H	-0.289889	-0.131448	-0.055980
H190	H	-0.284733	-0.072511	-0.055848
H191	H	-0.324279	-0.098117	0.013739
H192	H	-0.322434	-0.099144	-0.231507
H193	H	-0.361984	-0.124761	-0.161931
C194	C	-0.660847	-0.804601	0.092232
C195	C	-0.638334	-0.769880	0.019417
H196	H	-0.678249	-0.786477	0.148545
H197	H	-0.682594	-0.825434	0.042106
H198	H	-0.636963	-0.825435	0.135442
H199	H	-0.662218	-0.749048	-0.023801
H200	H	-0.616585	-0.749038	0.069548
H201	H	-0.438542	0.083827	-0.163848
H202	H	0.037147	-0.130313	-0.151698
C203	C	-0.412906	-0.137803	-0.163242
C204	C	-0.445754	-0.097204	-0.164081
H205	H	-0.430051	-0.169196	-0.163676
H206	H	-0.395659	-0.135881	-0.233407
H207	H	-0.390736	-0.135872	-0.092059
H208	H	-0.467922	-0.099134	-0.235268
H209	H	-0.463010	-0.099128	-0.093909
H210	H	-0.114450	-0.130298	-0.155584
C211	C	-0.660820	-0.152949	0.092155
C212	C	-0.638309	-0.118229	0.019329
H213	H	-0.678223	-0.134823	0.148464
H214	H	-0.682566	-0.173785	0.042037
H215	H	-0.636934	-0.173779	0.135371
H216	H	-0.662195	-0.097402	-0.023894
H217	H	-0.616562	-0.097384	0.069453
C218	C	-0.606252	-0.261051	0.093246
C219	C	-0.638312	-0.230347	0.019360
H220	H	-0.623663	-0.279162	0.149558
H221	H	-0.590983	-0.284607	0.043848
H222	H	-0.582373	-0.240204	0.136459
H223	H	-0.662189	-0.251195	-0.023860
H224	H	-0.653590	-0.206789	0.068764
H225	H	-0.114416	0.130066	-0.155530
H226	H	-0.656658	-0.468434	0.078714
H227	H	-0.631028	-0.874401	-0.004227
H228	H	-0.537958	-0.874414	-0.305283
C229	C	-0.508134	-0.804647	-0.401745
C230	C	-0.530639	-0.769912	-0.328930
H231	H	-0.490730	-0.786532	-0.458064
H232	H	-0.486390	-0.825475	-0.351621
H233	H	-0.532023	-0.825484	-0.444950
H234	H	-0.506749	-0.749077	-0.285718
H235	H	-0.552385	-0.749075	-0.379060
C236	C	-0.469761	-0.506779	-0.348147
C237	C	-0.504958	-0.476074	-0.411887
H238	H	-0.452351	-0.524900	-0.404448
H239	H	-0.448023	-0.485936	-0.298025
H240	H	-0.485043	-0.530330	-0.298755
H241	H	-0.489676	-0.452520	-0.461273
H242	H	-0.526700	-0.496918	-0.462030
C243	C	-0.548711	-0.131166	-0.448041
C244	C	-0.530616	-0.118253	-0.328997
H245	H	-0.531304	-0.113038	-0.504332
H246	H	-0.545036	-0.166795	-0.459915
H247	H	-0.582065	-0.122413	-0.460615
H248	H	-0.497263	-0.127010	-0.316420
H249	H	-0.534287	-0.082617	-0.317119
C250	C	-0.482459	-0.601598	-0.484680
C251	C	-0.504974	-0.636319	-0.411869
H252	H	-0.465044	-0.619722	-0.540968
H253	H	-0.506339	-0.580773	-0.527908
H254	H	-0.460718	-0.580756	-0.434541
H255	H	-0.526718	-0.657159	-0.462008
H256	H	-0.481091	-0.657153	-0.368638
H257	H	-0.512284	-0.531815	-0.388245
H258	H	-0.538335	-0.000113	0.453814
