data_functionalizedCrystal
_audit_creation_method	'MofGen! by Chris Wilmer'
_symmetry_space_group_name_H-M	'P1'
_symmetry_Int_Tables_number	1
_symmetry_cell_setting	triclinic
loop_
_symmetry_equiv_pos_as_xyz
  x,y,z
_cell_length_a	16.625548
_cell_length_b	18.050589
_cell_length_c	16.625539
_cell_angle_alpha	89.977040
_cell_angle_beta	89.982945
_cell_angle_gamma	90.029289
loop_
_atom_site_label
_atom_site_type_symbol
_atom_site_fract_x
_atom_site_fract_y
_atom_site_fract_z
Zn1	Zn	1.232620	-0.295651	-0.455929
Zn2	Zn	1.732620	0.204349	0.044071
Zn3	Zn	1.232518	-0.419844	-0.321104
Zn4	Zn	1.732518	0.080156	0.178896
Zn5	Zn	1.097790	-0.295675	-0.321109
Zn6	Zn	1.597790	0.204325	0.178891
Zn7	Zn	1.097739	-0.419806	-0.455894
Zn8	Zn	1.597739	0.080194	0.044106
O9	O	1.165167	-0.357744	-0.388509
O10	O	1.665167	0.142256	0.111491
O11	O	1.345439	-0.312131	-0.438056
O12	O	1.845439	0.187869	0.061944
O13	O	1.214625	-0.403399	-0.208272
O14	O	1.714625	0.096601	0.291728
O15	O	1.115740	-0.191747	-0.339010
O16	O	1.615740	0.308253	0.160990
O17	O	1.345364	-0.403376	-0.339001
O18	O	1.845364	0.096624	0.160999
O19	O	1.214799	-0.191729	-0.438061
O20	O	1.714799	0.308271	0.061939
O21	O	1.115641	-0.312173	-0.208276
O22	O	1.615641	0.187827	0.291724
O23	O	0.984951	-0.312135	-0.338976
O24	O	1.484951	0.187865	0.161024
O25	O	1.115652	-0.403310	-0.568731
O26	O	1.615652	0.096690	-0.068731
O27	O	0.984913	-0.403333	-0.438002
O28	O	1.484913	0.096667	0.061998
O29	O	1.214749	-0.312094	-0.568757
O30	O	1.714749	0.187906	-0.068757
O31	O	1.214575	-0.523764	-0.338968
O32	O	1.714575	-0.023764	0.161032
O33	O	1.115554	-0.523735	-0.437997
O34	O	1.615554	-0.023735	0.062003
C35	C	0.955676	-0.357733	-0.388487
C36	C	1.455676	0.142267	0.111513
C37	C	0.866055	-0.357747	-0.388496
C38	C	1.366055	0.142253	0.111504
C39	C	0.537879	-0.357751	-0.388531
C40	C	1.037879	0.142249	0.111469
C41	C	0.629188	-0.357748	-0.388518
C42	C	1.129188	0.142252	0.111482
C43	C	0.701964	-0.357749	-0.388513
C44	C	1.201964	0.142251	0.111487
C45	C	0.793279	-0.357745	-0.388502
C46	C	1.293279	0.142255	0.111498
C47	C	1.165070	-0.550696	-0.388496
C48	C	1.665070	-0.050696	0.111504
C49	C	1.165102	-0.633242	-0.388517
C50	C	1.665102	-0.133242	0.111483
C51	C	1.111307	-0.832704	-0.442350
C52	C	1.611307	-0.332704	0.057650
C53	C	1.091655	-0.882144	-0.368774
C54	C	1.591655	-0.382144	0.131226
C55	C	1.165181	-0.784372	-0.388528
C56	C	1.665181	-0.284372	0.111472
C57	C	1.184872	-0.882014	-0.462112
C58	C	1.684872	-0.382014	0.037888
C59	C	1.165256	-0.930357	-0.388544
C60	C	1.665256	-0.430357	0.111456
C61	C	1.145490	-0.832725	-0.314913
C62	C	1.645490	-0.332725	0.185087
C63	C	1.238742	-0.832590	-0.408300
C64	C	1.738742	-0.332590	0.091700
C65	C	1.219118	-0.882008	-0.334673
C66	C	1.719118	-0.382008	0.165327
C67	C	1.165136	-0.700274	-0.388519
C68	C	1.665136	-0.200274	0.111481
C69	C	1.165301	-1.014454	-0.388544
C70	C	1.665301	-0.514454	0.111456
C71	C	1.375476	-0.357755	-0.388532
C72	C	1.875476	0.142245	0.111468
C73	C	1.465097	-0.357760	-0.388542
C74	C	1.965097	0.142240	0.111458
C75	C	1.165206	-0.357695	-0.598818
C76	C	1.665206	0.142305	-0.098818
C77	C	1.165223	-0.357674	-0.688439
C78	C	1.665223	0.142326	-0.188439
C79	C	1.165287	-0.164038	-0.388540
C80	C	1.665287	0.335962	0.111460
C81	C	1.165338	-0.081492	-0.388553
C82	C	1.665338	0.418508	0.111447
C83	C	1.165236	-0.357658	-0.761222
C84	C	1.665236	0.142342	-0.261222
C85	C	1.165255	-0.357630	-0.852530
C86	C	1.665255	0.142370	-0.352530
C87	C	1.165274	-0.357604	-0.925307
C88	C	1.665274	0.142396	-0.425307
C89	C	1.165294	-0.357577	-1.016621
C90	C	1.665294	0.142423	-0.516621
C91	C	1.165174	-0.357739	-0.179018
C92	C	1.665174	0.142261	0.320982
C93	C	1.165313	-0.357551	-0.089398
C94	C	1.665313	0.142449	0.410602
H95	H	1.029481	-0.903926	-0.352066
H96	H	1.529481	-0.403926	0.147934
H97	H	1.128793	-0.811164	-0.252673
H98	H	1.628793	-0.311164	0.247327
O99	O	1.056930	-0.806960	-0.496675
O100	O	1.556930	-0.306960	0.003325
C101	C	1.015365	-0.803846	-0.635473
C102	C	1.515365	-0.303846	-0.135473
C103	C	1.076992	-0.833066	-0.574039
C104	C	1.576992	-0.333066	-0.074039
H105	H	1.031573	-0.824928	-0.698037
H106	H	1.531573	-0.324928	-0.198037
H107	H	0.952693	-0.824230	-0.618536
H108	H	1.452693	-0.324230	-0.118536
H109	H	1.016235	-0.740694	-0.635328
H110	H	1.516235	-0.240694	-0.135328
H111	H	1.076195	-0.896216	-0.574151
H112	H	1.576195	-0.396216	-0.074151
H113	H	1.139636	-0.812625	-0.590997
H114	H	1.639636	-0.312625	-0.090997
H115	H	1.300901	-0.810810	-0.425043
H116	H	1.800901	-0.310810	0.074957
O117	O	1.273418	-0.907645	-0.280213
O118	O	1.773418	-0.407645	0.219787
C119	C	1.314053	-0.911445	-0.141160
C120	C	1.814053	-0.411445	0.358840
C121	C	1.252497	-0.882374	-0.202749
C122	C	1.752497	-0.382374	0.297251
H123	H	1.297170	-0.891013	-0.078519
H124	H	1.797170	-0.391013	0.421481
H125	H	1.314061	-0.974599	-0.141866
H126	H	1.814061	-0.474599	0.358134
H127	H	1.376542	-0.890200	-0.157515
H128	H	1.876542	-0.390200	0.342485
H129	H	1.189978	-0.903564	-0.186437
H130	H	1.689978	-0.403564	0.313563
H131	H	1.252559	-0.819221	-0.202032
H132	H	1.752559	-0.319221	0.297968
H133	H	1.201498	-0.903665	-0.524335
H134	H	1.701498	-0.403665	-0.024335
