data_functionalizedCrystal
_audit_creation_method	'MofGen! by Chris Wilmer'
_symmetry_space_group_name_H-M	'P1'
_symmetry_Int_Tables_number	1
_symmetry_cell_setting	triclinic
loop_
_symmetry_equiv_pos_as_xyz
  x,y,z
_cell_length_a	18.878441
_cell_length_b	14.560438
_cell_length_c	14.560438
_cell_angle_alpha	60.000905
_cell_angle_beta	90.001684
_cell_angle_gamma	60.000347
loop_
_atom_site_label
_atom_site_type_symbol
_atom_site_fract_x
_atom_site_fract_y
_atom_site_fract_z
Zr1	Zr	0.682389	1.005281	-0.120498
O2	O	0.569282	1.196883	-0.267145
O3	O	0.717063	0.813680	-0.075546
O4	O	0.717059	1.005284	-0.267146
O5	O	0.569288	1.005277	0.075597
O6	O	0.833629	1.005284	-0.267145
O7	O	0.569285	1.005279	-0.075544
O8	O	0.833635	0.662540	0.075594
O9	O	0.569282	1.348021	-0.267142
O10	O	0.818845	0.892488	-0.056370
O11	O	0.731853	0.892486	0.056424
O12	O	0.731849	1.118075	-0.169161
O13	O	0.644857	1.118072	-0.056368
Zr14	Zr	0.868309	1.005278	0.120556
Zr15	Zr	0.868305	1.005282	-0.120496
Zr16	Zr	0.682394	1.005277	0.120554
Zr17	Zr	0.682390	1.246328	-0.120494
Zr18	Zr	0.868309	0.764230	0.120552
O19	O	0.833636	1.196879	0.075604
O20	O	0.833629	1.196885	-0.267141
O21	O	0.569289	1.196878	0.075600
O22	O	0.981417	0.813675	0.267203
O23	O	0.981410	0.813681	-0.075542
O24	O	0.717070	0.813674	0.267199
O25	O	0.981410	1.005282	-0.075539
O26	O	0.833639	1.005275	0.267204
O27	O	0.717070	1.005275	0.267203
O28	O	0.981413	1.005279	0.075602
O29	O	0.717060	1.348022	-0.267140
O30	O	0.833639	0.662537	0.267198
O31	O	0.981417	0.662537	0.267200
O32	O	0.981413	0.662541	0.075596
O33	O	0.569286	1.348018	-0.075538
O34	O	0.717064	1.348019	-0.075536
O35	O	0.818850	0.892484	0.169220
O36	O	0.905842	0.892487	0.056426
O37	O	0.818846	1.118073	-0.056366
O38	O	0.731853	1.118071	0.056428
C39	C	0.542798	1.005278	0.000026
C40	C	0.463872	1.005278	0.000025
C41	C	0.775349	0.703766	0.000023
C42	C	0.775349	0.601435	0.000021
C43	C	0.820756	0.553360	-0.058856
C44	C	0.820760	0.457200	-0.058845
C45	C	0.729941	0.457203	0.058921
C46	C	0.729943	0.553354	0.058917
C47	C	0.426791	1.005282	-0.083243
C48	C	0.352634	1.005275	-0.083238
C49	C	0.315557	1.005273	0.000030
C50	C	0.352645	1.005264	0.083306
C51	C	0.426804	1.005262	0.083305
C52	C	0.198073	1.005272	0.083301
C53	C	0.123908	1.005276	0.083301
C54	C	0.123903	1.005285	-0.083243
C55	C	0.198062	1.005283	-0.083244
C56	C	0.235144	1.005277	0.000031
C57	C	1.007901	1.005281	0.000032
C58	C	1.086827	1.005281	0.000033
C59	C	0.775343	1.005284	-0.301490
C60	C	0.775341	1.005286	-0.403823
C61	C	0.775350	1.306793	0.000035
C62	C	0.775350	1.409124	0.000037
C63	C	0.729931	1.123038	-0.510776
C64	C	0.729941	1.123032	-0.606924
C65	C	0.820773	0.887512	-0.489155
C66	C	0.820768	0.887519	-0.393009
C67	C	0.775355	1.005274	0.301549
C68	C	0.775357	1.005273	0.403881
C69	C	1.007900	0.703767	0.000026
C70	C	1.086826	0.601436	0.000026
C71	C	0.775355	0.703760	0.301543
C72	C	0.775357	0.601428	0.403874
C73	C	1.007906	0.703762	0.301546
C74	C	1.086834	0.601430	0.403878
C75	C	0.542793	1.306797	-0.301488
C76	C	0.463865	1.409129	-0.403820
C77	C	0.542798	1.306792	0.000032
C78	C	0.463873	1.409122	0.000033
C79	C	0.775344	1.306798	-0.301485
C80	C	0.775342	1.409131	-0.403816
C81	C	1.078479	0.553382	-0.058863
C82	C	1.152631	0.457244	-0.058887
C83	C	1.235129	0.409157	-0.000014
C84	C	1.243475	0.457222	0.058877
C85	C	1.169323	0.553364	0.058893
C86	C	1.169316	0.553375	0.393057
C87	C	1.243484	0.457236	0.489200
C88	C	1.235168	0.409147	0.596162
C89	C	1.152677	0.457212	0.606981
C90	C	1.078511	0.553355	0.510839
C91	C	0.381383	1.457196	-0.392999
C92	C	0.307215	1.553364	-0.489142
C93	C	0.315531	1.601458	-0.596104
C94	C	0.398022	1.553387	-0.606923
C95	C	0.472188	1.457227	-0.510781
C96	C	0.472220	1.457187	0.058911
C97	C	0.398068	1.553351	0.058908
C98	C	0.315570	1.601441	0.000032
C99	C	0.307224	1.553373	-0.058854
C100	C	0.381375	1.457217	-0.058857
C101	C	0.820768	0.553349	0.510827
C102	C	0.820760	0.457205	0.606974
C103	C	0.729928	0.457224	0.489201
C104	C	0.729931	0.553373	0.393056
H105	H	0.857729	0.592503	-0.106810
O106	O	0.312643	1.005287	-0.173057
H107	H	0.312821	0.917231	-0.133024
O108	O	0.680942	1.250057	-0.522443
H109	H	0.630742	1.255700	-0.481472
H110	H	1.011353	0.592469	0.519665
H111	H	1.310645	0.418111	0.480371
O112	O	0.218240	1.605244	-0.122346
H113	H	0.210680	1.649065	-0.212844
O114	O	0.235526	1.705180	-0.699788
H115	H	0.235556	1.668303	-0.750577
O116	O	0.680965	1.250040	-0.722279
H117	H	0.688608	1.230257	-0.787322
O118	O	1.178333	0.605167	0.122435
H119	H	1.214352	0.648958	0.088427
O120	O	0.238055	1.005291	-0.173054
H121	H	0.199817	1.005285	-0.230955
H122	H	0.093707	1.005290	-0.151048
H123	H	0.857757	0.791630	-0.480363
H124	H	1.295566	0.330861	0.674438
H125	H	1.145819	0.418122	-0.106842
H126	H	0.539387	1.418039	0.106863
O127	O	0.869777	0.760504	-0.277644
H128	H	0.862159	0.780298	-0.212606
O129	O	1.178296	0.605247	0.277696
H130	H	1.248117	0.555681	0.286342
O131	O	1.143712	0.405323	0.722350
H132	H	1.209147	0.330382	0.787375
H133	H	0.692948	0.592522	0.305963
H134	H	0.228265	1.005260	0.151115
O135	O	0.466779	1.005293	-0.173056
H136	H	0.486507	0.917241	-0.168957
O137	O	0.372393	1.405347	-0.277644
H138	H	0.403990	1.299287	-0.231025
H139	H	0.093724	1.005272	0.151107
H140	H	0.322455	1.005254	0.151110
H141	H	0.692973	0.418045	0.106870
O142	O	0.406987	1.605255	-0.722292
H143	H	0.341552	1.680182	-0.787317
O144	O	0.466804	1.005259	0.173113
H145	H	0.428560	1.005269	0.231010
O146	O	0.372368	1.405366	-0.122353
H147	H	0.302543	1.454958	-0.163278
H148	H	0.692945	0.418084	0.480406
O149	O	0.989503	0.605250	-0.122378
H150	H	0.996171	0.555684	-0.163339
H151	H	1.295501	0.330871	-0.000035
H152	H	1.310654	0.418055	0.106808
O153	O	0.218248	1.605179	-0.477462
H154	H	0.224933	1.555553	-0.386930
H155	H	0.539346	1.418092	-0.519605
O156	O	0.680962	0.605222	0.122417
H157	H	0.649377	0.555653	0.163356
H158	H	0.404880	1.592472	0.106864
O159	O	0.235599	1.705149	0.000048
H160	H	0.176825	1.730528	-0.050788
H161	H	0.857753	0.592477	0.519642
H162	H	0.857737	0.418066	0.694058
H163	H	0.857736	0.418059	-0.106787
