data_functionalizedCrystal
_audit_creation_method	'MofGen! by Chris Wilmer'
_symmetry_space_group_name_H-M	'P1'
_symmetry_Int_Tables_number	1
_symmetry_cell_setting	triclinic
loop_
_symmetry_equiv_pos_as_xyz
  x,y,z
_cell_length_a	6.817900
_cell_length_b	12.840933
_cell_length_c	16.418038
_cell_angle_alpha	81.888328
_cell_angle_beta	104.206534
_cell_angle_gamma	91.654901
loop_
_atom_site_label
_atom_site_type_symbol
_atom_site_fract_x
_atom_site_fract_y
_atom_site_fract_z
V1	V	3.899279	0.281760	0.117864
O2	O	3.888274	0.320363	-0.003633
O3	O	3.852577	0.237549	0.231752
O4	O	3.794864	0.423937	0.116942
O5	O	3.946387	0.132684	0.111971
V6	V	4.389945	0.269066	0.103226
O7	O	4.144869	0.309606	0.149973
O8	O	4.594553	0.241221	0.071117
O9	O	4.213441	0.313278	-0.010662
O10	O	4.518348	0.230464	0.224724
O11	O	4.460235	0.418143	0.109119
O12	O	4.271154	0.126890	0.104149
C13	C	3.699804	0.222193	0.259488
C14	C	3.742533	0.186993	0.352598
C15	C	3.626197	0.459950	0.113032
C16	C	3.622044	0.578083	0.113031
C17	C	4.103163	0.090872	0.108057
C18	C	4.086167	-0.027260	0.108056
V19	V	3.882228	0.767923	0.117870
O20	O	3.918716	0.921301	0.111976
O21	O	3.787960	0.621079	0.116948
O22	O	3.833987	0.767340	0.231756
O23	O	3.872371	0.774028	-0.003627
V24	V	4.370948	0.810763	0.103237
O25	O	4.129755	0.740557	0.149982
O26	O	4.572824	0.860812	0.071130
O27	O	4.242403	0.946360	0.104156
O28	O	4.451649	0.663299	0.109132
O29	O	4.497995	0.810573	0.224735
O30	O	4.196376	0.800099	-0.010652
C31	C	4.029558	0.328629	-0.038393
C32	C	3.966064	0.363836	-0.131502
C33	C	3.680764	0.764651	0.259486
C34	C	3.722158	0.767316	0.352595
C35	C	4.013533	0.785822	-0.038389
C36	C	3.951415	0.782121	-0.131500
C37	C	3.942708	0.174087	0.400627
C38	C	3.982885	0.141028	0.488117
C39	C	3.822884	0.120867	0.527576
C40	C	3.622693	0.133777	0.479541
C41	C	3.582519	0.166844	0.392054
C42	C	3.997434	0.777327	0.571107
C43	C	4.036312	0.779841	0.658591
C44	C	3.676121	0.772112	0.649981
C45	C	3.637246	0.769607	0.562498
C46	C	3.797910	0.772209	0.523063
C47	C	3.875663	0.777228	0.698032
C48	C	3.917814	0.779953	0.792886
C49	C	3.755756	0.769486	0.428203
C50	C	4.110876	0.376744	-0.179530
C51	C	4.051240	0.409809	-0.267020
C52	C	3.846794	0.429972	-0.306478
C53	C	3.701972	0.417059	-0.258445
C54	C	3.761607	0.383988	-0.170958
H55	H	4.145901	0.130519	0.527214
H56	H	3.535508	0.433479	-0.290586
C57	C	3.325614	0.031671	0.487356
C58	C	3.446830	0.111601	0.522921
H59	H	3.217042	0.017980	0.514136
H60	H	3.404539	-0.030390	0.495432
H61	H	3.273028	0.053227	0.428380
H62	H	3.499429	0.090042	0.581896
H63	H	3.367893	0.173675	0.514852
H64	H	4.073014	0.190492	0.368510
C65	C	4.359732	0.249620	-0.097953
C66	C	4.335611	0.354577	-0.136168
H67	H	4.498477	0.235936	-0.071184
H68	H	4.315066	0.204535	-0.139926
H69	H	4.282034	0.237213	-0.056821
H70	H	4.413298	0.366982	-0.177305
H71	H	4.380302	0.399675	-0.094191
H72	H	4.169188	0.420319	-0.306117
H73	H	3.855625	0.093943	0.598814
C74	C	3.951567	0.473407	-0.436459
C75	C	3.781265	0.466333	-0.402645
H76	H	3.911118	0.495863	-0.495827
H77	H	4.015397	0.406439	-0.426275
H78	H	4.043668	0.522733	-0.410214
H79	H	3.689170	0.417001	-0.428886
H80	H	3.717404	0.533311	-0.412836
H81	H	3.643673	0.373490	-0.131859
H82	H	4.128260	0.779447	0.539003
C83	C	4.363922	0.697344	0.704700
C84	C	4.255637	0.785459	0.711402
H85	H	4.499325	0.700812	0.737307
H86	H	4.363753	0.696230	0.646960
H87	H	4.302139	0.635230	0.725302
H88	H	4.317411	0.847572	0.690794
H89	H	4.255816	0.786582	0.769154
C90	C	3.325911	0.114071	0.276881
C91	C	3.362471	0.181009	0.339263
H92	H	3.190059	0.122820	0.244291
H93	H	3.347415	0.043186	0.303177
H94	H	3.415445	0.130826	0.240859
H95	H	3.272946	0.164249	0.375289
H96	H	3.340946	0.251910	0.312966
C97	C	3.393222	0.672457	0.470949
C98	C	3.417910	0.763974	0.509681
H99	H	3.257822	0.668987	0.438339
H100	H	3.421732	0.612660	0.513284
H101	H	3.483352	0.673667	0.434945
H102	H	3.327791	0.762760	0.545690
H103	H	3.389378	0.823786	0.467341
H104	H	3.545320	0.769991	0.682099
