data_functionalizedCrystal
_audit_creation_method	'MofGen! by Chris Wilmer'
_symmetry_space_group_name_H-M	'P1'
_symmetry_Int_Tables_number	1
_symmetry_cell_setting	triclinic
loop_
_symmetry_equiv_pos_as_xyz
  x,y,z
_cell_length_a	10.723023
_cell_length_b	10.723024
_cell_length_c	16.053948
_cell_angle_alpha	87.141680
_cell_angle_beta	87.149115
_cell_angle_gamma	84.467709
loop_
_atom_site_label
_atom_site_type_symbol
_atom_site_fract_x
_atom_site_fract_y
_atom_site_fract_z
O1	O	1.652468	0.170288	0.069423
O2	O	2.152468	0.670288	0.569423
O3	O	1.289316	0.187042	0.069425
O4	O	1.789316	0.687042	0.569425
O5	O	1.479269	-0.002911	0.069421
O6	O	1.979269	0.497089	0.569421
O7	O	1.462515	0.360241	0.069427
O8	O	1.962515	0.860241	0.569427
O9	O	1.488695	0.006553	-0.069435
O10	O	1.988695	0.506553	0.430565
O11	O	1.298741	0.196506	-0.069431
O12	O	1.798741	0.696506	0.430569
O13	O	1.661894	0.179751	-0.069432
O14	O	2.161894	0.679751	0.430568
Zn15	Zn	1.481814	0.189631	-0.091478
Zn16	Zn	1.981814	0.689631	0.408522
Zn17	Zn	1.469395	0.177163	0.091471
Zn18	Zn	1.969395	0.677163	0.591471
O19	O	1.471941	0.369705	-0.069428
O20	O	1.971941	0.869705	0.430572
C21	C	1.247529	0.190555	-0.000002
C22	C	1.747529	0.690555	0.499998
C23	C	1.108974	0.186908	-0.000002
C24	C	1.608974	0.686908	0.499998
C25	C	0.908889	0.186414	-0.071930
C26	C	1.408889	0.686414	0.428070
C27	C	1.052092	0.190184	-0.071932
C28	C	1.552092	0.690184	0.428068
C29	C	1.482762	-0.044679	-0.000006
C30	C	1.982762	0.455321	0.499994
C31	C	1.479115	-0.183233	-0.000003
C32	C	1.979115	0.316767	0.499997
C33	C	1.585402	-0.258216	-0.000002
C34	C	2.085402	0.241784	0.499998
C35	C	1.581634	-0.401420	0.000001
C36	C	2.081634	0.098580	0.500001
C37	C	1.703681	0.176239	-0.000003
C38	C	2.203681	0.676239	0.499997
C39	C	1.842235	0.179886	0.000002
C40	C	2.342235	0.679886	0.500002
C41	C	1.468447	0.411473	0.000000
C42	C	1.968447	0.911473	0.500000
C43	C	1.472095	0.550027	0.000003
C44	C	1.972095	1.050027	0.500003
N45	N	1.490299	0.198139	-0.216335
N46	N	1.990299	0.698139	0.283665
C47	C	1.416963	0.124740	-0.260054
C48	C	1.916963	0.624740	0.239946
C49	C	1.422930	0.130707	-0.347459
C50	C	1.922930	0.630707	0.152541
C51	C	1.502240	0.210067	-0.391143
C52	C	2.002240	0.710067	0.108857
C53	C	1.575578	0.283475	-0.347418
C54	C	2.075578	0.783475	0.152582
C55	C	1.569604	0.277514	-0.260015
C56	C	2.069604	0.777514	0.239985
C57	C	1.528285	0.236092	-0.652544
C58	C	2.028285	0.736092	-0.152544
C59	C	1.534256	0.242044	-0.739953
C60	C	2.034256	0.742044	-0.239953
C61	C	1.381605	0.089277	-0.739988
C62	C	1.881605	0.589277	-0.239988
C63	C	1.375644	0.083317	-0.652583
C64	C	1.875644	0.583317	-0.152583
C65	C	1.448977	0.156730	-0.608866
C66	C	1.948977	0.656730	-0.108866
N67	N	1.508343	0.216165	-0.480485
N68	N	2.008343	0.716165	0.019515
N69	N	1.442866	0.150638	-0.519526
N70	N	1.942866	0.650638	-0.019526
N71	N	1.460920	0.168645	0.216328
N72	N	1.960920	0.668645	0.716328
H73	H	0.859936	0.189219	-0.133511
H74	H	1.359936	0.689219	0.366489
O75	O	1.648700	0.356689	-0.212861
O76	O	2.148700	0.856689	0.287139
H77	H	1.631211	0.339225	-0.144746
H78	H	2.131211	0.839225	0.355254
H79	H	1.385328	-0.225055	0.000003
H80	H	1.885328	0.274945	0.500003
O81	O	1.702168	-0.486762	-0.000005
O82	O	2.202168	0.013238	0.499995
H83	H	1.782981	-0.429404	-0.000014
H84	H	2.282981	0.070596	0.499986
H85	H	1.381099	-0.385548	-0.000003
H86	H	1.881099	0.114452	0.499997
O87	O	1.331417	0.039148	-0.212938
O88	O	1.831417	0.539148	0.287062
H89	H	1.281415	-0.010878	-0.258027
H90	H	1.781415	0.489122	0.241973
H91	H	0.891186	0.177095	0.061583
H92	H	1.391186	0.677095	0.561583
O93	O	1.343897	0.051477	-0.394616
O94	O	1.843897	0.551477	0.105384
H95	H	1.287780	-0.004743	-0.349556
H96	H	1.787780	0.495257	0.150444
H97	H	1.588004	0.295864	-0.616960
H98	H	2.088004	0.795864	-0.116960
H99	H	1.109396	0.195774	-0.133516
H100	H	1.609396	0.695774	0.366484
H101	H	1.321899	0.029510	-0.775592
H102	H	1.821899	0.529510	-0.275592
O103	O	1.033106	0.179487	0.081588
O104	O	1.533106	0.679487	0.581588
H105	H	0.963155	0.262590	0.085172
H106	H	1.463155	0.762590	0.585172
H107	H	1.311065	0.018690	-0.617021
H108	H	1.811065	0.518690	-0.117021
O109	O	1.619791	0.327654	-0.787075
O110	O	2.119791	0.827654	-0.287075
H111	H	1.669771	0.377712	-0.741993
H112	H	2.169771	0.877712	-0.241993
H113	H	1.679188	-0.216394	-0.000008
H114	H	2.179188	0.283606	0.499992
O115	O	1.661138	0.369060	-0.394528
O116	O	2.161138	0.869060	0.105472
H117	H	1.652989	0.360860	-0.462651
H118	H	2.152989	0.860860	0.037349
