data_functionalizedCrystal
_audit_creation_method	'MofGen! by Chris Wilmer'
_symmetry_space_group_name_H-M	'P1'
_symmetry_Int_Tables_number	1
_symmetry_cell_setting	triclinic
loop_
_symmetry_equiv_pos_as_xyz
  x,y,z
_cell_length_a	14.044220
_cell_length_b	14.044191
_cell_length_c	13.101039
_cell_angle_alpha	86.337551
_cell_angle_beta	86.330374
_cell_angle_gamma	86.809673
loop_
_atom_site_label
_atom_site_type_symbol
_atom_site_fract_x
_atom_site_fract_y
_atom_site_fract_z
O1	O	-0.225378	1.281976	-0.085160
O2	O	0.107955	1.615309	0.248173
O3	O	0.441289	1.948643	0.581506
O4	O	-0.217064	1.005304	-0.085173
O5	O	0.116269	1.338638	0.248160
O6	O	0.449602	1.671971	0.581493
O7	O	-0.082886	1.139487	-0.085162
O8	O	0.250448	1.472820	0.248171
O9	O	0.583781	1.806154	0.581504
O10	O	-0.359557	1.147793	-0.085171
O11	O	-0.026223	1.481126	0.248162
O12	O	0.307110	1.814460	0.581496
O13	O	-0.092530	1.129861	0.085267
O14	O	0.240803	1.463194	0.418600
O15	O	0.574137	1.796528	0.751933
O16	O	-0.226709	0.995678	0.085256
O17	O	0.106624	1.329012	0.418589
O18	O	0.439958	1.662345	0.751922
O19	O	-0.235022	1.272350	0.085269
O20	O	0.098311	1.605683	0.418602
O21	O	0.431644	1.939017	0.751936
Zn22	Zn	-0.232397	1.132486	0.112322
Zn23	Zn	0.100936	1.465819	0.445655
Zn24	Zn	0.434270	1.799152	0.778988
Zn25	Zn	-0.219690	1.145168	-0.112226
Zn26	Zn	0.113643	1.478502	0.221107
Zn27	Zn	0.446977	1.811835	0.554441
O28	O	-0.369201	1.138167	0.085258
O29	O	-0.035868	1.471500	0.418591
O30	O	0.297465	1.804834	0.751925
C31	C	-0.218250	0.964869	0.000040
C32	C	0.115083	1.298203	0.333373
C33	C	0.448417	1.631536	0.666706
C34	C	-0.207402	0.858726	0.000035
C35	C	0.125931	1.192060	0.333368
C36	C	0.459264	1.525393	0.666701
C37	C	-0.264503	0.613268	0.000043
C38	C	0.068830	0.946601	0.333376
C39	C	0.402163	1.279934	0.666710
C40	C	-0.187587	0.664393	0.000044
C41	C	0.145746	0.997726	0.333377
C42	C	0.479079	1.331060	0.666710
C43	C	-0.198615	0.772530	0.000039
C44	C	0.134718	1.105863	0.333372
C45	C	0.468052	1.439197	0.666705
C46	C	-0.253477	0.505121	0.000048
C47	C	0.079856	0.838454	0.333381
C48	C	0.413190	1.171787	0.666715
C49	C	-0.400001	1.146616	0.000042
C50	C	-0.066668	1.479949	0.333376
C51	C	0.266666	1.813283	0.666709
C52	C	-0.506144	1.157461	0.000039
C53	C	-0.172810	1.490794	0.333373
C54	C	0.160523	1.824127	0.666706
C55	C	-0.700482	1.177287	0.000045
C56	C	-0.367149	1.510620	0.333378
C57	C	-0.033816	1.843953	0.666711
C58	C	-0.751610	1.100372	0.000042
C59	C	-0.418277	1.433706	0.333375
C60	C	-0.084943	1.767039	0.666709
C61	C	-0.859747	1.111404	0.000045
C62	C	-0.526413	1.444737	0.333378
C63	C	-0.193080	1.778070	0.666712
C64	C	-0.592336	1.166257	0.000042
C65	C	-0.259002	1.499590	0.333375
C66	C	0.074331	1.832923	0.666708
C67	C	-0.052086	1.131038	0.000051
C68	C	0.281247	1.464372	0.333384
C69	C	0.614581	1.797705	0.666718
C70	C	0.054057	1.120194	0.000047
C71	C	0.387391	1.453527	0.333381
C72	C	0.720724	1.786861	0.666714
C73	C	-0.233837	1.312785	0.000054
C74	C	0.099497	1.646118	0.333387
C75	C	0.432830	1.979452	0.666720
C76	C	-0.244684	1.418928	0.000052
C77	C	0.088649	1.752261	0.333385
C78	C	0.421983	2.085595	0.666719
N79	N	-0.241069	1.123837	0.265569
N80	N	0.092264	1.457170	0.598903
N81	N	0.425597	1.790504	0.932236
N82	N	-0.211011	1.153824	-0.265474
N83	N	0.122323	1.487157	0.067859
N84	N	0.455656	1.820491	0.401193
C85	C	-0.252877	1.112071	0.474611
C86	C	0.080456	1.445404	0.807944
C87	C	0.413790	1.778738	1.141278
C88	C	-0.199206	1.165587	0.525491
C89	C	0.134128	1.498921	0.858824
C90	C	0.467461	1.832254	1.192158
C91	C	-0.205776	1.159040	0.641809
C92	C	0.127558	1.492374	0.975142
C93	C	0.460891	1.825707	1.308476
C94	C	-0.246308	1.118617	0.358283
C95	C	0.087025	1.451950	0.691616
C96	C	0.420358	1.785283	1.024949
H97	H	-0.714169	1.026239	0.000039
H98	H	-0.380835	1.359572	0.333372
H99	H	-0.047502	1.692905	0.666706
H100	H	-0.737922	1.251414	0.000052
H101	H	-0.404588	1.584747	0.333386
H102	H	-0.071255	1.918081	0.666719
N103	N	-0.131803	1.232793	0.467487
N104	N	0.201530	1.566126	0.800820
N105	N	0.534863	1.899459	1.134154
H106	H	-0.136604	1.228006	0.391411
H107	H	0.196729	1.561340	0.724744
H108	H	0.530063	1.894673	1.058077
H109	H	-0.149529	1.300437	0.486172
H110	H	0.183805	1.633771	0.819506
H111	H	0.517138	1.967104	1.152839
H112	H	-0.113451	0.626953	-0.000026
H113	H	0.219883	0.960287	0.333307
H114	H	0.553216	1.293620	0.666640
H115	H	-0.338630	0.650709	0.000038
H116	H	-0.005296	0.984042	0.333371
H117	H	0.328037	1.317376	0.666704
H118	H	-0.303758	1.061341	0.518404
H119	H	0.029575	1.394675	0.851737
H120	H	0.362909	1.728008	1.185071
