data_functionalizedCrystal
_audit_creation_method	'MofGen! by Chris Wilmer'
_symmetry_space_group_name_H-M	'P1'
_symmetry_Int_Tables_number	1
_symmetry_cell_setting	triclinic
loop_
_symmetry_equiv_pos_as_xyz
  x,y,z
_cell_length_a	30.700809
_cell_length_b	30.711276
_cell_length_c	30.700862
_cell_angle_alpha	59.998386
_cell_angle_beta	89.999414
_cell_angle_gamma	60.000191
loop_
_atom_site_label
_atom_site_type_symbol
_atom_site_fract_x
_atom_site_fract_y
_atom_site_fract_z
O1	O	-0.371254	-0.311651	0.012944
O2	O	-0.307913	-0.222487	-0.012907
O3	O	-0.307911	-0.311650	0.076286
O4	O	-0.371257	-0.222488	-0.076249
O5	O	-0.235466	-0.384070	0.076286
O6	O	-0.235468	-0.294907	-0.012907
O7	O	-0.298809	-0.384071	0.012944
Cu8	Cu	-0.260524	-0.346102	0.000018
Cu9	Cu	-0.346199	-0.260456	0.000019
O10	O	-0.298812	-0.294908	-0.076249
C11	C	-0.234796	-0.137097	-0.018777
C12	C	-0.261674	-0.083360	-0.015076
C13	C	-0.182374	-0.163176	-0.019143
C14	C	-0.234798	-0.215942	-0.018783
C15	C	-0.261678	-0.246507	-0.015089
C16	C	-0.182376	-0.241901	-0.019150
C17	C	-0.155920	-0.215947	-0.018777
C18	C	-0.098463	-0.246515	-0.015075
C19	C	-0.261132	-0.163172	-0.019150
C20	C	-0.574961	-0.535511	0.039265
C21	C	-0.548506	-0.588283	0.039634
C22	C	-0.496086	-0.535509	0.039262
C23	C	-0.469751	-0.588281	0.039632
C24	C	-0.496085	-0.614360	0.039265
C25	C	-0.548507	-0.509552	0.039632
C26	C	-0.765169	-0.393516	0.024987
C27	C	-0.819034	-0.364488	0.020950
C28	C	-0.846055	-0.389406	0.018925
C29	C	-0.904462	-0.357927	0.014538
C30	C	-0.819206	-0.443357	0.020941
C31	C	-0.765344	-0.472385	0.024984
C32	C	-0.738325	-0.447463	0.027007
C33	C	-0.447920	-0.790230	0.024988
C34	C	-0.423094	-0.840041	0.020951
C35	C	-0.371150	-0.865027	0.018921
C36	C	-0.344230	-0.919028	0.014536
C37	C	-0.344030	-0.840201	0.020935
C38	C	-0.368852	-0.790399	0.024981
C39	C	-0.420803	-0.765414	0.027004
C40	C	-0.447922	-0.393510	0.024977
C41	C	-0.423099	-0.364475	0.020931
C42	C	-0.371152	-0.389391	0.018903
C43	C	-0.344235	-0.357911	0.014513
C44	C	-0.344034	-0.443338	0.020916
C45	C	-0.368860	-0.472368	0.024960
C46	C	-0.420804	-0.447452	0.026995
C47	C	-0.679920	-0.478941	0.031387
C48	C	-0.633366	-0.504032	0.034880
C49	C	-0.469171	-0.504029	0.034875
C50	C	-0.447717	-0.478936	0.031380
C51	C	-0.469170	-0.668361	0.034880
C52	C	-0.447716	-0.711408	0.031386
C53	C	-0.496432	-0.071057	-0.503890
C54	C	-0.548853	-0.018285	-0.530226
C55	C	-0.496432	-0.071056	-0.425015
C56	C	-0.548854	-0.018284	-0.451470
C57	C	-0.575308	0.007793	-0.503892
C58	C	-0.470097	-0.097014	-0.451469
C59	C	-0.368666	-0.213054	-0.552051
C60	C	-0.343664	-0.242084	-0.576877
C61	C	-0.370616	-0.217167	-0.628824
C62	C	-0.343513	-0.248647	-0.655741
C63	C	-0.422570	-0.163216	-0.655945
C64	C	-0.447565	-0.134187	-0.631122
C65	C	-0.420611	-0.159108	-0.579173
C66	C	-0.765518	0.183662	-0.631659
C67	C	-0.819384	0.233473	-0.656662
C68	C	-0.846408	0.258459	-0.629712
C69	C	-0.904813	0.312461	-0.656813
C70	C	-0.819559	0.233635	-0.577758
C71	C	-0.765694	0.183833	-0.552761
C72	C	-0.738677	0.158847	-0.579717
C73	C	-0.368668	-0.213052	-0.234803
C74	C	-0.343669	-0.242086	-0.180935
C75	C	-0.370621	-0.217169	-0.153914
C76	C	-0.343519	-0.248648	-0.095506
C77	C	-0.422573	-0.163222	-0.180762
C78	C	-0.447570	-0.134193	-0.234627
C79	C	-0.420610	-0.159111	-0.261646
C80	C	-0.447720	-0.127629	-0.552258
C81	C	-0.469327	-0.102536	-0.530805
C82	C	-0.469328	-0.102535	-0.366609
C83	C	-0.447721	-0.127627	-0.320054
C84	C	-0.633714	0.061794	-0.530997
C85	C	-0.680269	0.104841	-0.552605
O86	O	0.076277	-0.384081	0.012960
O87	O	-0.076257	-0.294916	-0.012894
O88	O	0.012931	-0.384083	0.076300
O89	O	-0.012910	-0.294914	-0.076234
O90	O	0.012933	-0.311666	0.076306
O91	O	-0.076254	-0.222499	-0.012888
O92	O	0.076280	-0.311664	0.012966
Cu93	Cu	0.000013	-0.260469	0.000040
Cu94	Cu	0.000010	-0.346111	0.000033
O95	O	-0.012908	-0.222497	-0.076228
O96	O	-0.298805	0.063292	0.012964
O97	O	-0.235462	-0.063346	-0.012888
O98	O	-0.235465	-0.063353	0.076305
O99	O	-0.298803	0.063300	-0.076229
O100	O	-0.307912	-0.063350	0.076299
O101	O	-0.307909	-0.063342	-0.012895
O102	O	-0.371252	0.063295	0.012958
Cu103	Cu	-0.346196	-0.000023	0.000031
Cu104	Cu	-0.260519	-0.000027	0.000039
O105	O	-0.371250	0.063303	-0.076236
O106	O	-1.076607	0.456783	-0.692421
O107	O	-0.924074	0.330140	-0.629074
O108	O	-1.013262	0.330138	-0.629073
O109	O	-0.987418	0.456785	-0.692422
O110	O	-1.013261	0.330136	-0.701518
O111	O	-0.924072	0.330138	-0.701518
O112	O	-1.076605	0.456781	-0.764865
Cu113	Cu	-1.000338	0.393460	-0.739807
Cu114	Cu	-1.000340	0.393461	-0.654133
O115	O	-0.987417	0.456783	-0.764866
O116	O	-0.307911	-0.311650	-0.764507
O117	O	-0.371254	-0.222491	-0.701165
O118	O	-0.371252	-0.311652	-0.701162
O119	O	-0.307912	-0.222489	-0.764510
O120	O	-0.298806	-0.384074	-0.628716
O121	O	-0.298807	-0.294912	-0.628719
O122	O	-0.235464	-0.384072	-0.692061
Cu123	Cu	-0.260521	-0.346105	-0.653775
Cu124	Cu	-0.346197	-0.260458	-0.739451
O125	O	-0.235466	-0.294910	-0.692064
C126	C	-0.155920	-0.469469	0.234827
C127	C	-0.098464	-0.523208	0.261706
C128	C	-0.182375	-0.443392	0.261162
C129	C	-0.234797	-0.390619	0.155950
C130	C	-0.261676	-0.360052	0.098494
C131	C	-0.261132	-0.364662	0.182405
C132	C	-0.234797	-0.390620	0.234826
C133	C	-0.261675	-0.360052	0.261704
C134	C	-0.182375	-0.443391	0.182406
C135	C	0.018810	-0.390643	0.234846
C136	C	0.015111	-0.360079	0.261727
C137	C	0.019176	-0.443414	0.261179
C138	C	0.018812	-0.390637	0.155967
C139	C	0.015115	-0.360067	0.098511
C140	C	0.019178	-0.443408	0.182420
C141	C	0.018807	-0.469488	0.234841
C142	C	0.015106	-0.523226	0.261717
C143	C	0.019180	-0.364683	0.182425
C144	C	-0.234799	-0.215977	0.234834
C145	C	-0.261678	-0.246545	0.261708
C146	C	-0.182376	-0.241940	0.261172
C147	C	-0.234798	-0.137119	0.155964
C148	C	-0.261676	-0.083372	0.098509
C149	C	-0.182375	-0.163202	0.182421
C150	C	-0.155921	-0.215981	0.234841
C151	C	-0.098464	-0.246554	0.261721
C152	C	-0.261134	-0.163198	0.182415
C153	C	-0.039199	0.007461	-0.503869
C154	C	-0.039568	-0.018614	-0.530207
C155	C	-0.039203	-0.071390	-0.424995
C156	C	-0.039572	-0.097344	-0.451452
C157	C	-0.039201	-0.071385	-0.503874
C158	C	-0.039570	-0.018618	-0.451448
C159	C	-0.024912	0.183325	-0.552025
C160	C	-0.020873	0.233135	-0.576849
C161	C	-0.018844	0.258123	-0.628796
C162	C	-0.014454	0.312124	-0.655711
C163	C	-0.020859	0.233301	-0.655918
C164	C	-0.024906	0.183500	-0.631097
C165	C	-0.026932	0.158512	-0.579148
C166	C	-0.024920	-0.133799	-0.631644
C167	C	-0.020882	-0.162650	-0.656647
C168	C	-0.018855	-0.216605	-0.629699
C169	C	-0.014470	-0.247897	-0.656801
C170	C	-0.020872	-0.241704	-0.577746
C171	C	-0.024919	-0.212847	-0.552747
C172	C	-0.026939	-0.158893	-0.579702
C173	C	-0.024929	-0.133823	-0.234783
C174	C	-0.020887	-0.162684	-0.180915
C175	C	-0.018862	-0.216639	-0.153896
C176	C	-0.014477	-0.247936	-0.095488
C177	C	-0.020875	-0.241733	-0.180745
C178	C	-0.024915	-0.212872	-0.234610
C179	C	-0.026947	-0.158912	-0.261627
C180	C	-0.031316	0.104507	-0.552235
C181	C	-0.034811	0.061462	-0.530782
C182	C	-0.034820	-0.102682	-0.366590
C183	C	-0.031328	-0.127624	-0.320035
C184	C	-0.034816	-0.102672	-0.530980
C185	C	-0.031322	-0.127610	-0.552588
O186	O	-0.012940	-0.294936	0.371303
O187	O	0.012923	-0.384099	0.307961
O188	O	-0.076273	-0.294935	0.307950
O189	O	0.076257	-0.384100	0.371315
O190	O	-0.076265	-0.222515	0.235508
O191	O	0.012932	-0.311679	0.235520
O192	O	-0.012931	-0.222517	0.298862
Cu193	Cu	0.000001	-0.260485	0.260576
Cu194	Cu	-0.000009	-0.346130	0.346247
O195	O	0.076266	-0.311681	0.298873
C196	C	-0.574962	0.464558	-0.503864
C197	C	-0.548506	0.490518	-0.530195
C198	C	-0.496085	0.385697	-0.424987
C199	C	-0.469749	0.411776	-0.451438
C200	C	-0.496084	0.464555	-0.503857
C201	C	-0.548507	0.411779	-0.451444
C202	C	-0.765173	0.526994	-0.552039
C203	C	-0.819039	0.555852	-0.576867
C204	C	-0.846061	0.609814	-0.628812
C205	C	-0.904469	0.641114	-0.655732
C206	C	-0.819211	0.634913	-0.655928
C207	C	-0.765348	0.606050	-0.631102
C208	C	-0.738329	0.552088	-0.579155
C209	C	-0.447916	0.606561	-0.631604
C210	C	-0.423088	0.635592	-0.656601
C211	C	-0.371143	0.610674	-0.629648
C212	C	-0.344222	0.642150	-0.656742
C213	C	-0.344023	0.556716	-0.577696
C214	C	-0.368845	0.527681	-0.552704
C215	C	-0.420798	0.552613	-0.579664
C216	C	-0.447920	0.209802	-0.234786
C217	C	-0.423096	0.159988	-0.180919
C218	C	-0.371148	0.134996	-0.153895
C219	C	-0.344230	0.080987	-0.095489
C220	C	-0.344029	0.159823	-0.180737
C221	C	-0.368856	0.209637	-0.234602
C222	C	-0.420801	0.234620	-0.261624
C223	C	-0.679923	0.520797	-0.552238
C224	C	-0.633367	0.495853	-0.530781
C225	C	-0.469169	0.331687	-0.366583
C226	C	-0.447714	0.288634	-0.320030
C227	C	-0.469167	0.496035	-0.530956
C228	C	-0.447712	0.521128	-0.552558
H229	H	-0.161139	-0.284365	-0.019743
O230	O	-0.498418	-0.369220	0.026848
C231	C	-0.533243	-0.309158	-0.019966
H232	H	-0.515058	-0.303998	-0.053113
H233	H	-0.573153	-0.300640	-0.032691
H234	H	-0.539680	-0.274268	-0.011951
H235	H	-0.743837	0.163627	-0.510462
H236	H	-0.161128	-0.465208	0.161163
O237	O	0.019817	-0.313975	0.157116
C238	C	-0.025900	-0.265357	0.154443
H239	H	-0.041642	-0.285007	0.187332
H240	H	-0.015083	-0.237478	0.159911
H241	H	-0.057941	-0.234272	0.113926
O242	O	-0.312548	-0.137112	0.157123
C243	C	-0.344972	-0.119496	0.185679
H244	H	-0.324800	-0.113054	0.210930
H245	H	-0.385307	-0.074365	0.156449
H246	H	-0.351029	-0.156822	0.212746
H247	H	-0.304205	-0.141343	-0.019747
H248	H	-0.426680	-0.610102	0.040221
H249	H	-0.569747	-0.610106	0.040228
H250	H	-0.040166	-0.139808	-0.430213
H251	H	-0.026564	-0.233284	-0.510448
H252	H	-0.161134	-0.465220	0.304234
O253	O	-0.157106	-0.137033	-0.019967
C254	C	-0.185661	-0.076101	-0.066189
H255	H	-0.228959	-0.058382	-0.081042
H256	H	-0.184088	-0.045566	-0.056391
H257	H	-0.167026	-0.075083	-0.098509
O258	O	0.019978	-0.469487	0.157094
C259	C	0.066160	-0.487111	0.142299
H260	H	0.097858	-0.493564	0.168923
H261	H	0.082070	-0.532238	0.147106
H262	H	0.055896	-0.449785	0.098907
H263	H	-0.346709	-0.233340	-0.256801
O264	O	-0.026886	-0.237316	-0.260615
C265	C	-0.024216	-0.291135	-0.225215
H266	H	-0.038098	-0.289526	-0.191285
H267	H	-0.051066	-0.294198	-0.247528
H268	H	0.018672	-0.333199	-0.208207
O269	O	-0.312537	-0.314047	0.157137
C270	C	-0.344974	-0.327805	0.185663
H271	H	-0.319422	-0.368252	0.228958
H272	H	-0.377046	-0.285897	0.184110
H273	H	-0.364685	-0.340389	0.166988
H274	H	-0.743175	-0.373219	0.026636
H275	H	-0.569749	-0.467085	0.040220
O276	O	0.019782	-0.469370	0.312530
C277	C	-0.025922	-0.426327	0.315449
H278	H	-0.058451	-0.390367	0.274652
H279	H	-0.040864	-0.451085	0.345875
H280	H	-0.015409	-0.402723	0.328179
O281	O	-0.449453	-0.312012	0.018878
C282	C	-0.454295	-0.263884	-0.029288
H283	H	-0.451122	-0.274751	-0.060109
H284	H	-0.494630	-0.218954	-0.044709
H285	H	-0.421049	-0.259030	-0.021993
H286	H	-0.161136	-0.141377	0.161182
H287	H	-0.161141	-0.284407	0.304244
O288	O	-0.040214	0.007462	-0.581571
C289	C	-0.040444	0.059718	-0.599241
H290	H	-0.023259	0.055549	-0.563360
H291	H	-0.015133	0.062996	-0.626319
H292	H	-0.083125	0.102864	-0.622331
H293	H	-0.040120	0.003178	-0.430195
O294	O	-0.845040	-0.312070	0.018968
C295	C	-0.809640	-0.296307	0.021632
H296	H	-0.775705	-0.317971	0.007762
H297	H	-0.831950	-0.244098	-0.005230
H298	H	-0.792639	-0.314106	0.064518
H299	H	-0.346776	-0.516292	0.026600
H300	H	-0.489870	-0.090268	-0.256484
O301	O	-0.845490	-0.467547	0.019042
C302	C	-0.864499	-0.482107	0.062544
H303	H	-0.868445	-0.453182	0.077222
H304	H	-0.905144	-0.471866	0.049392
H305	H	-0.835280	-0.533044	0.096194
O306	O	-0.739351	-0.524769	0.026913
C307	C	-0.774744	-0.540548	0.024273
H308	H	-0.817555	-0.497705	0.004641
H309	H	-0.766048	-0.560269	-0.000256
H310	H	-0.769249	-0.576430	0.066298
O311	O	-0.018962	-0.138211	-0.154922
C312	C	-0.021608	-0.084407	-0.190317
H313	H	-0.041237	-0.064830	-0.233128
H314	H	-0.046142	-0.048859	-0.181622
H315	H	0.020414	-0.096024	-0.184822
O316	O	-0.026993	-0.081351	-0.261075
C317	C	-0.075157	-0.033316	-0.304389
H318	H	-0.105972	-0.044184	-0.296593
H319	H	-0.090589	0.011695	-0.309153
H320	H	-0.067858	-0.028614	-0.342443
H321	H	-0.490218	-0.769893	0.026639
O322	O	-0.418705	-0.147657	-0.426214
C323	C	-0.401036	-0.165098	-0.460813
H324	H	-0.426125	-0.123650	-0.503912
H325	H	-0.357380	-0.182502	-0.454507
H326	H	-0.405313	-0.203243	-0.451998
O327	O	-0.845841	0.258010	-0.551658
C328	C	-0.864851	0.320501	-0.580598
H329	H	-0.868798	0.339120	-0.624212
H330	H	-0.905496	0.347984	-0.577690
H331	H	-0.835633	0.324930	-0.563294
O332	O	-0.498416	0.234123	-0.260987
C333	C	-0.533241	0.255665	-0.235727
H334	H	-0.515057	0.265457	-0.212375
H335	H	-0.573152	0.299766	-0.267115
H336	H	-0.539677	0.219193	-0.207265
H337	H	-0.026563	0.162985	-0.509727
H338	H	-0.019230	0.253339	-0.554762
O339	O	-0.293594	0.135550	-0.154415
C340	C	-0.293710	0.140417	-0.111112
H341	H	-0.329928	0.144249	-0.099068
H342	H	-0.255731	0.097781	-0.075931
H343	H	-0.295566	0.183154	-0.123321
H344	H	-0.301369	-0.286012	-0.159078
O345	O	-0.449521	-0.864063	0.018977
C346	C	-0.500687	-0.831341	0.021646
H347	H	-0.512954	-0.783549	0.007770
H348	H	-0.530605	-0.826797	-0.005209
H349	H	-0.499878	-0.857218	0.064534
O350	O	-0.026888	0.159330	-0.657372
C351	C	-0.030875	0.110000	-0.624316
H352	H	-0.048192	0.115442	-0.593112
H353	H	-0.058093	0.109997	-0.649571
H354	H	0.010436	0.064674	-0.603535
H355	H	-0.743523	0.163324	-0.653612
O356	O	-0.018790	0.257522	-0.706340
C357	C	0.029377	0.252665	-0.706217
H358	H	0.060186	0.214069	-0.664526
H359	H	0.044815	0.241995	-0.735806
H360	H	0.022080	0.298004	-0.718220
O361	O	-0.293168	-0.294430	-0.550594
C362	C	-0.259508	-0.284606	-0.579444
H363	H	-0.277653	-0.233228	-0.606166
H364	H	-0.218675	-0.310089	-0.550419
H365	H	-0.254979	-0.302556	-0.605077
O366	O	-0.293546	-0.864577	0.019035
C367	C	-0.259974	-0.927068	0.062537
H368	H	-0.284963	-0.945685	0.077217
H369	H	-0.229575	-0.954552	0.049384
H370	H	-0.238236	-0.931498	0.096186
H371	H	-0.346767	-0.770191	0.026621
H372	H	-0.026568	-0.089866	-0.653596
H373	H	-0.743179	0.483055	-0.509743
O374	O	-0.448704	-0.138976	-0.154521
C375	C	-0.419758	-0.124440	-0.135490
H376	H	-0.393127	-0.117816	-0.160256
H377	H	-0.448716	-0.080164	-0.138884
H378	H	-0.394026	-0.163582	-0.091943
H379	H	-0.019237	-0.142213	-0.698946
H380	H	-0.301736	-0.463624	0.019263
O381	O	-0.018976	-0.294068	-0.551649
C382	C	-0.062478	-0.284136	-0.580594
H383	H	-0.077154	-0.244478	-0.624206
H384	H	-0.049327	-0.327671	-0.577691
H385	H	-0.096128	-0.272228	-0.563290
H386	H	-0.019226	-0.285667	-0.158742
O387	O	-0.418358	0.385646	-0.426028
C388	C	-0.400690	0.333389	-0.373984
H389	H	-0.425777	0.315386	-0.372353
H390	H	-0.357033	0.296054	-0.362878
H391	H	-0.404971	0.346471	-0.344636
O392	O	-0.574108	0.007693	-0.426066
C393	C	-0.539508	-0.026673	-0.374019
H394	H	-0.496411	-0.053388	-0.372382
H395	H	-0.545815	0.005868	-0.362915
H396	H	-0.548321	-0.060285	-0.344673
O397	O	-0.573935	0.541214	-0.581562
C398	C	-0.625977	0.558648	-0.599240
H399	H	-0.639001	0.539970	-0.563364
H400	H	-0.654565	0.611020	-0.626329
H401	H	-0.626447	0.539051	-0.622320
O402	O	-0.574109	0.007689	-0.581616
C403	C	-0.539491	-0.026643	-0.599301
H404	H	-0.507823	-0.075552	-0.563435
H405	H	-0.563289	-0.028068	-0.626463
H406	H	-0.519368	-0.004070	-0.622306
H407	H	-0.346713	-0.233351	-0.509753
O408	O	-0.573915	0.385805	-0.426193
C409	C	-0.625963	0.420178	-0.460794
H410	H	-0.627600	0.446896	-0.503892
H411	H	-0.637074	0.387644	-0.454490
H412	H	-0.655303	0.453789	-0.451978
O413	O	-0.448762	-0.139098	-0.706368
C414	C	-0.453498	-0.182513	-0.706248
H415	H	-0.450417	-0.216395	-0.664558
H416	H	-0.493761	-0.157695	-0.735838
H417	H	-0.420147	-0.208557	-0.718250
H418	H	-0.489864	-0.090259	-0.653209
O419	O	-0.449451	0.135920	-0.154797
C420	C	-0.454289	0.140770	-0.111490
H421	H	-0.451114	0.179273	-0.119180
H422	H	-0.494625	0.151576	-0.106881
H423	H	-0.421044	0.095383	-0.073390
O424	O	-0.845413	0.687268	-0.706418
C425	C	-0.820160	0.675302	-0.741252
H426	H	-0.796815	0.623990	-0.723079
H427	H	-0.851552	0.702490	-0.781165
H428	H	-0.791694	0.689748	-0.747681
H429	H	-0.841239	0.253681	-0.698962
O430	O	-0.845046	0.531411	-0.550442
C431	C	-0.809645	0.477588	-0.499276
H432	H	-0.775709	0.479190	-0.487008
H433	H	-0.831954	0.474528	-0.469357
H434	H	-0.792648	0.435526	-0.500087
O435	O	-0.739317	0.630512	-0.657427
C436	C	-0.764681	0.690588	-0.670701
H437	H	-0.787925	0.695642	-0.642621
H438	H	-0.733372	0.699261	-0.666644
H439	H	-0.793255	0.725440	-0.713570
O440	O	-0.498369	0.630839	-0.657878
C441	C	-0.516985	0.684690	-0.709084
H442	H	-0.481540	0.683232	-0.721492
H443	H	-0.542362	0.687641	-0.738900
H444	H	-0.542104	0.726741	-0.708265
H445	H	-0.445174	0.679524	-0.698898
O446	O	-0.293597	0.532588	-0.551500
C447	C	-0.293712	0.575996	-0.546755
H448	H	-0.335400	0.609874	-0.549831
H449	H	-0.264120	0.551169	-0.506490
H450	H	-0.281710	0.602044	-0.580105
H451	H	-0.346761	0.483749	-0.510407
H452	H	-0.346770	0.229846	-0.256454
