data_functionalizedCrystal
_audit_creation_method	'MofGen! by Chris Wilmer'
_symmetry_space_group_name_H-M	'P1'
_symmetry_Int_Tables_number	1
_symmetry_cell_setting	triclinic
loop_
_symmetry_equiv_pos_as_xyz
  x,y,z
_cell_length_a	18.215407
_cell_length_b	12.759394
_cell_length_c	18.215399
_cell_angle_alpha	90.023582
_cell_angle_beta	90.019833
_cell_angle_gamma	90.014304
loop_
_atom_site_label
_atom_site_type_symbol
_atom_site_fract_x
_atom_site_fract_y
_atom_site_fract_z
Zn1	Zn	1.125128	-0.418265	0.416138
Zn2	Zn	1.125060	-0.593962	0.293081
Zn3	Zn	1.002061	-0.418299	0.293086
Zn4	Zn	1.002050	-0.593904	0.416106
O5	O	1.063575	-0.506107	0.354603
O6	O	1.228104	-0.441581	0.399826
O7	O	1.108720	-0.570699	0.190098
O8	O	1.018419	-0.271273	0.309424
O9	O	1.228054	-0.570666	0.309417
O10	O	1.108836	-0.271248	0.399830
O11	O	1.018353	-0.441640	0.190101
O12	O	0.899075	-0.441583	0.309393
O13	O	1.018401	-0.570566	0.519095
O14	O	0.899068	-0.570599	0.399776
O15	O	1.108826	-0.441525	0.519118
O16	O	1.108710	-0.740975	0.309386
O17	O	1.018335	-0.740932	0.399772
C18	C	0.872369	-0.506089	0.354582
C19	C	0.790570	-0.506107	0.354590
C20	C	0.602391	-0.573391	0.401593
C21	C	0.525533	-0.573395	0.401603
C22	C	0.525511	-0.438843	0.307628
C23	C	0.602368	-0.438835	0.307623
C24	C	0.640806	-0.506115	0.354605
C25	C	0.487090	-0.506126	0.354619
C26	C	0.403757	-0.506129	0.354629
C27	C	0.724145	-0.506111	0.354596
C28	C	1.063534	-0.779075	0.354591
C29	C	1.063584	-0.895852	0.354610
C30	C	1.157665	-0.895667	0.448821
C31	C	1.204728	-0.950436	0.495932
C32	C	1.204772	-1.060157	0.495947
C33	C	1.157746	-1.115113	0.448849
C34	C	1.110682	-1.060344	0.401738
C35	C	1.110645	-0.950620	0.401726
C36	C	1.016599	-1.060529	0.307532
C37	C	1.016557	-0.950807	0.307512
C38	C	0.969572	-1.115484	0.260434
C39	C	0.922511	-1.060716	0.213318
C40	C	0.922470	-0.950987	0.213304
C41	C	0.969494	-0.896039	0.260401
C42	C	1.255528	-0.506126	0.354624
C43	C	1.337327	-0.506134	0.354634
C44	C	1.063620	-0.506035	0.546556
C45	C	1.063639	-0.506004	0.628355
C46	C	1.063636	-0.232074	0.354631
C47	C	1.063662	-0.115297	0.354643
C48	C	1.063573	-0.506104	0.163397
C49	C	1.063696	-0.505839	0.081598
C50	C	1.110740	-0.438749	0.816562
C51	C	1.110749	-0.438719	0.893421
C52	C	1.016590	-0.573096	0.893385
C53	C	1.016578	-0.573121	0.816528
C54	C	1.063657	-0.505949	0.778118
C55	C	1.063678	-0.505894	0.931835
C56	C	1.063687	-0.505861	1.015168
C57	C	1.063647	-0.505980	0.694779
H58	H	0.633647	-0.384044	0.269360
H59	H	1.243088	-1.104750	0.534317
N60	N	1.157627	-0.777325	0.448793
H61	H	1.194560	-0.750822	0.485774
H62	H	1.107104	-0.751016	0.462253
N63	N	0.965778	-0.645595	0.775068
H64	H	0.977186	-0.720662	0.788432
H65	H	0.972927	-0.635328	0.720563
H66	H	0.884222	-1.105469	0.174978
H67	H	1.157779	-1.204454	0.448872
N68	N	0.969629	-1.233826	0.260441
H69	H	0.956095	-1.260245	0.310915
H70	H	1.020146	-1.260102	0.246922
N71	N	0.871704	-0.891918	0.162494
H72	H	0.841923	-0.943385	0.132664
H73	H	0.901658	-0.846391	0.128452
N74	N	0.969456	-0.777697	0.260378
H75	H	1.006387	-0.751198	0.297362
H76	H	0.918931	-0.751390	0.273840
H77	H	1.149073	-0.384051	0.785291
N78	N	1.161522	-0.366228	0.934886
H79	H	1.191340	-0.323678	0.898889
H80	H	1.195577	-0.408975	0.966782
N81	N	0.965803	-0.645527	0.934813
H82	H	0.972951	-0.635312	0.989336
H83	H	0.977227	-0.720572	0.921376
H84	H	0.633685	-0.628173	0.439851
H85	H	0.494258	-0.628176	0.439866
H86	H	0.494205	-0.384067	0.269377
H87	H	1.243016	-0.905681	0.534280
