data_functionalizedCrystal
_audit_creation_method	'MofGen! by Chris Wilmer'
_symmetry_space_group_name_H-M	'P1'
_symmetry_Int_Tables_number	1
_symmetry_cell_setting	triclinic
loop_
_symmetry_equiv_pos_as_xyz
  x,y,z
_cell_length_a	15.995288
_cell_length_b	15.072220
_cell_length_c	15.995292
_cell_angle_alpha	89.997939
_cell_angle_beta	96.532301
_cell_angle_gamma	89.985244
loop_
_atom_site_label
_atom_site_type_symbol
_atom_site_fract_x
_atom_site_fract_y
_atom_site_fract_z
O1	O	-1.111006	0.073822	0.107674
O2	O	-0.611006	0.573822	0.607674
O3	O	-0.867221	0.073813	0.121057
O4	O	-0.367221	0.573813	0.621057
O5	O	-0.995803	0.073819	-0.007527
O6	O	-0.495803	0.573819	0.492473
O7	O	-0.982424	0.073816	0.236258
O8	O	-0.482424	0.573816	0.736258
O9	O	-0.995771	-0.073746	-0.007520
O10	O	-0.495771	0.426254	0.492480
O11	O	-0.867189	-0.073752	0.121064
O12	O	-0.367189	0.426248	0.621064
O13	O	-1.110974	-0.073743	0.107681
O14	O	-0.610974	0.426257	0.607681
Zn15	Zn	-0.989077	-0.097176	0.114374
Zn16	Zn	-0.489077	0.402824	0.614374
Zn17	Zn	-0.989119	0.097247	0.114364
Zn18	Zn	-0.489119	0.597247	0.614364
O19	O	-0.982392	-0.073749	0.236265
O20	O	-0.482392	0.426251	0.736265
C21	C	-0.836009	0.000030	0.120516
C22	C	-0.336009	0.500030	0.620516
C23	C	-0.743057	0.000026	0.118886
C24	C	-0.243057	0.500026	0.618886
C25	C	-0.572873	0.000031	0.115873
C26	C	-0.072873	0.500031	0.615873
C27	C	-0.525388	0.000027	0.207426
C28	C	-0.025388	0.500027	0.707426
C29	C	-0.428700	0.000363	0.205760
C30	C	0.071300	0.500363	0.705760
C31	C	-0.405316	0.000035	0.112909
C32	C	0.094684	0.500035	0.612909
C33	C	-0.446477	0.084137	0.067482
C34	C	0.053523	0.584137	0.567482
C35	C	-0.543110	0.084206	0.069794
C36	C	-0.043110	0.584206	0.569794
C37	C	-0.543353	-0.083609	0.068447
C38	C	-0.043353	0.416391	0.568447
C39	C	-0.446408	-0.084713	0.068459
C40	C	0.053592	0.415287	0.568459
C41	C	-0.310621	0.000040	0.111229
C42	C	0.189379	0.500040	0.611229
C43	C	-0.667569	0.000032	0.117551
C44	C	-0.167569	0.500032	0.617551
N45	N	-0.989054	-0.229865	0.114380
N46	N	-0.489054	0.270135	0.614380
C47	C	-0.989117	-0.589067	0.114361
C48	C	-0.489117	-0.089067	0.614361
C49	C	-0.920084	-0.551463	0.182933
C50	C	-0.420084	-0.051463	0.682933
C51	C	-0.920242	-0.448637	0.183183
C52	C	-0.420242	0.051363	0.683183
C53	C	-0.989085	-0.410863	0.114370
C54	C	-0.489085	0.089137	0.614370
C55	C	-1.076449	-0.448151	0.133433
C56	C	-0.576449	0.051849	0.633433
C57	C	-1.076062	-0.551009	0.133920
C58	C	-0.576062	-0.051009	0.633920
C59	C	-0.971565	-0.551167	0.026523
C60	C	-0.471565	-0.051167	0.526523
C61	C	-0.969560	-0.448303	0.027110
C62	C	-0.469560	0.051697	0.527110
C63	C	-0.989073	-0.310149	0.114374
C64	C	-0.489073	0.189851	0.614374
C65	C	-0.989135	-0.689780	0.114359
C66	C	-0.489135	-0.189780	0.614359
C67	C	-0.142184	0.000040	0.108233
C68	C	0.357816	0.500040	0.608233
C69	C	-0.235133	0.000040	0.109897
C70	C	0.264867	0.500040	0.609897
C71	C	-0.995243	0.000039	-0.038719
C72	C	-0.495243	0.500039	0.461281
C73	C	-0.993610	0.000046	-0.131671
C74	C	-0.493610	0.500046	0.368329
N75	N	-0.989148	0.229936	0.114352
N76	N	-0.489148	0.729936	0.614352
C77	C	-0.987609	0.000037	-0.469409
C78	C	-0.487609	0.500037	0.030591
C79	C	-1.080416	-0.000289	-0.446117
C80	C	-0.580416	0.499711	0.053883
C81	C	-1.082180	0.000047	-0.349442
C82	C	-0.582180	0.500047	0.150558
C83	C	-0.990587	0.000041	-0.301853
C84	C	-0.490587	0.500041	0.198147
C85	C	-0.944206	0.084303	-0.330948
C86	C	-0.444206	0.584303	0.169052
C87	C	-0.943088	0.084371	-0.427738
C88	C	-0.443088	0.584371	0.072262
C89	C	-0.941157	-0.083438	-0.427587
C90	C	-0.441157	0.416562	0.072413
C91	C	-0.944596	-0.084549	-0.331095
C92	C	-0.444596	0.415451	0.168905
C93	C	-0.992265	0.000046	-0.207157
C94	C	-0.492265	0.500046	0.292843
C95	C	-0.985928	0.000038	-0.564104
C96	C	-0.485928	0.500038	-0.064104
C97	C	-0.982953	0.000033	0.267457
C98	C	-0.482953	0.500033	0.767457
C99	C	-0.984585	0.000033	0.360410
C100	C	-0.484585	0.500033	0.860410
H101	H	-0.575398	0.087801	0.002566
H102	H	-0.075398	0.587801	0.502566
C103	C	-0.390214	-0.081044	0.254012
C104	C	0.109786	0.418956	0.754012
N105	N	-0.361228	-0.142354	0.290372
N106	N	0.138772	0.357646	0.790372
H107	H	-0.432392	0.087029	-0.000743
H108	H	0.067608	0.587029	0.499257
H109	H	-0.877741	-0.089642	-0.298110
H110	H	-0.377741	0.410358	0.201890
H111	H	-0.418098	0.146959	0.098620
H112	H	0.081902	0.646959	0.598620
C113	C	-0.986531	0.169463	-0.463983
C114	C	-0.486531	0.669463	0.036017
N115	N	-1.019258	0.233554	-0.491280
N116	N	-0.519258	0.733554	0.008720
H117	H	-0.563834	-0.147373	0.098590
H118	H	-0.063834	0.352627	0.598590
C119	C	-1.131254	-0.081552	-0.323745
C120	C	-0.631254	0.418448	0.176255
N121	N	-1.168223	-0.143014	-0.304395
N122	N	-0.668223	0.356986	0.195605
C123	C	-0.980419	-0.169722	-0.465761
C124	C	-0.480419	0.330278	0.034239
N125	N	-1.010001	-0.234706	-0.494515
N126	N	-0.510001	0.265294	0.005485
C127	C	-0.832070	-0.584938	0.167863
C128	C	-0.332070	-0.084938	0.667863
N129	N	-0.765777	-0.610163	0.156514
N130	N	-0.265777	-0.110163	0.656514
C131	C	-0.887353	-0.586248	0.001771
C132	C	-0.387353	-0.086248	0.501771
N133	N	-0.823921	-0.612672	-0.016863
N134	N	-0.323921	-0.112672	0.483137
C135	C	-0.550337	-0.081438	0.257134
C136	C	-0.050337	0.418562	0.757134
N137	N	-0.569133	-0.142801	0.294575
N138	N	-0.069133	0.357199	0.794575
H139	H	-0.575149	-0.084416	0.000947
H140	H	-0.075149	0.415584	0.500947
H141	H	-0.545002	0.060246	0.243666
H142	H	-0.045002	0.560246	0.743666
H143	H	-0.931448	-0.424024	0.248367
H144	H	-0.431448	0.075976	0.748367
C145	C	-0.935012	-0.586368	0.270499
C146	C	-0.435012	-0.086368	0.770499
N147	N	-0.946259	-0.612660	0.336453
N148	N	-0.446259	-0.112660	0.836453
C149	C	-0.567871	0.169461	0.114005
C150	C	-0.067871	0.669461	0.614005
N151	N	-0.586516	0.233679	0.147305
N152	N	-0.086516	0.733679	0.647305
C153	C	-0.391084	0.082288	0.253758
C154	C	0.108916	0.582288	0.753758
N155	N	-0.362752	0.144000	0.289909
N156	N	0.137248	0.644000	0.789909
C157	C	-1.128730	-0.081922	-0.483952
C158	C	-0.628730	0.418078	0.016048
N159	N	-1.165121	-0.143410	-0.512456
N160	N	-0.665121	0.356590	-0.012456
H161	H	-0.976440	0.147015	-0.310898
H162	H	-0.476440	0.647015	0.189102
H163	H	-1.092288	-0.422382	0.196762
H164	H	-0.592288	0.077618	0.696762
C165	C	-0.409440	-0.168771	0.113268
C166	C	0.090560	0.331229	0.613268
N167	N	-0.381587	-0.232083	0.147018
N168	N	0.118413	0.267917	0.647018
C169	C	-0.832507	-0.414579	0.167859
C170	C	-0.332507	0.085421	0.667859
N171	N	-0.766420	-0.388931	0.156322
N172	N	-0.266420	0.111069	0.656322
C173	C	-1.096944	-0.583409	0.220467
C174	C	-0.596944	-0.083409	0.720467
N175	N	-1.112666	-0.607808	0.285658
N176	N	-0.612666	-0.107808	0.785658
C177	C	-1.147559	-0.584613	0.069034
C178	C	-0.647559	-0.084613	0.569034
N179	N	-1.201420	-0.609919	0.020173
N180	N	-0.701420	-0.109919	0.520173
C181	C	-1.147506	-0.415090	0.067757
C182	C	-0.647506	0.084910	0.567757
N183	N	-1.201025	-0.390186	0.018289
N184	N	-0.701025	0.109814	0.518289
H185	H	-1.116002	0.059803	-0.475146
H186	H	-0.616002	0.559803	0.024854
H187	H	-1.118746	0.060558	-0.331048
H188	H	-0.618746	0.560558	0.168952
H189	H	-0.905295	-0.423933	0.012642
H190	H	-0.405295	0.076067	0.512642
H191	H	-0.978368	-0.146885	-0.312534
H192	H	-0.478368	0.353115	0.187466
C193	C	-1.033089	-0.413589	-0.045055
C194	C	-0.533089	0.086411	0.454945
N195	N	-1.080951	-0.387449	-0.099407
N196	N	-0.580951	0.112551	0.400593
C197	C	-1.039571	-0.584023	-0.042416
C198	C	-0.539571	-0.084023	0.457584
N199	N	-1.090794	-0.608776	-0.094334
N200	N	-0.590794	-0.108776	0.405666
H201	H	-0.875042	0.088184	-0.442273
H202	H	-0.375042	0.588184	0.057727
H203	H	-0.872844	-0.084011	-0.441562
H204	H	-0.372844	0.415989	0.058438
H205	H	-0.876806	0.087432	-0.299065
H206	H	-0.376806	0.587432	0.200935
H207	H	-0.431083	-0.090039	0.000765
H208	H	0.068917	0.409961	0.500765
