data_functionalizedCrystal
_audit_creation_method	'MofGen! by Chris Wilmer'
_symmetry_space_group_name_H-M	'P1'
_symmetry_Int_Tables_number	1
_symmetry_cell_setting	triclinic
loop_
_symmetry_equiv_pos_as_xyz
  x,y,z
_cell_length_a	12.759394
_cell_length_b	12.759401
_cell_length_c	12.759393
_cell_angle_alpha	89.979527
_cell_angle_beta	90.024271
_cell_angle_gamma	89.995455
loop_
_atom_site_label
_atom_site_type_symbol
_atom_site_fract_x
_atom_site_fract_y
_atom_site_fract_z
Zn1	Zn	0.418167	1.606347	-0.594070
Zn2	Zn	0.918167	2.106347	-0.094070
Zn3	Zn	0.593884	1.606275	-0.418411
Zn4	Zn	1.093884	2.106275	0.081589
Zn5	Zn	0.418225	1.430647	-0.418405
Zn6	Zn	0.918225	1.930647	0.081595
Zn7	Zn	0.593809	1.430673	-0.594048
Zn8	Zn	1.093809	1.930673	-0.094048
O9	O	0.506021	1.518486	-0.506233
O10	O	1.006021	2.018486	-0.006233
O11	O	0.441484	1.753358	-0.570780
O12	O	0.941484	2.253358	-0.070780
O13	O	0.570638	1.582937	-0.271389
O14	O	1.070638	2.082937	0.228611
O15	O	0.271196	1.453973	-0.441714
O16	O	0.771196	1.953973	0.058286
O17	O	0.570582	1.753306	-0.441724
O18	O	1.070582	2.253306	0.058276
O19	O	0.271154	1.583059	-0.570774
O20	O	0.771154	2.083059	-0.070774
O21	O	0.441582	1.453903	-0.271384
O22	O	0.941582	1.953903	0.228616
O23	O	0.441509	1.283629	-0.441693
O24	O	0.941509	1.783629	0.058307
O25	O	0.570454	1.454018	-0.741072
O26	O	1.070454	1.954018	-0.241072
O27	O	0.570510	1.283649	-0.570737
O28	O	1.070510	1.783649	-0.070737
O29	O	0.441411	1.583084	-0.741088
O30	O	0.941411	2.083084	-0.241088
O31	O	0.740896	1.582962	-0.441702
O32	O	1.240896	2.082962	0.058298
O33	O	0.740840	1.453948	-0.570742
O34	O	1.240840	1.953948	-0.070742
C35	C	0.506009	1.245518	-0.506212
C36	C	1.006009	1.745518	-0.006212
C37	C	0.506028	1.128742	-0.506228
C38	C	1.006028	1.628742	-0.006228
C39	C	0.231988	1.518521	-0.506246
C40	C	0.731988	2.018521	-0.006246
C41	C	0.115211	1.518536	-0.506251
C42	C	0.615211	2.018536	-0.006251
C43	C	0.573302	1.073917	-0.573316
C44	C	1.073302	1.573917	-0.073316
C45	C	0.573306	0.964193	-0.573337
C46	C	1.073306	1.464193	-0.073337
C47	C	0.438760	0.964127	-0.439173
C48	C	0.938760	1.464127	0.060827
C49	C	0.438752	1.073850	-0.439159
C50	C	0.938752	1.573850	0.060841
C51	C	0.115236	1.384128	-0.371852
C52	C	0.615236	1.884128	0.128148
C53	C	0.060387	1.316936	-0.304655
C54	C	0.560387	1.816936	0.195345
C55	C	-0.049335	1.316955	-0.304664
C56	C	0.450665	1.816955	0.195336
C57	C	-0.104210	1.384171	-0.371880
C58	C	0.395790	1.884171	0.128120
C59	C	-0.049362	1.451362	-0.439077
C60	C	0.450638	1.951362	0.060923
C61	C	0.060363	1.451338	-0.439058
C62	C	0.560363	1.951338	0.060942
C63	C	-0.049386	1.585763	-0.573480
C64	C	0.450614	2.085763	-0.073480
C65	C	0.060336	1.585751	-0.573467
C66	C	0.560336	2.085751	-0.073467
C67	C	-0.104261	1.652979	-0.640696
C68	C	0.395739	2.152979	-0.140696
C69	C	-0.049413	1.720177	-0.707889
C70	C	0.450587	2.220177	-0.207889
C71	C	0.060316	1.720156	-0.707876
C72	C	0.560316	2.220156	-0.207876
C73	C	0.115184	1.652943	-0.640664
C74	C	0.615184	2.152943	-0.140664
C75	C	0.778989	1.518479	-0.506244
C76	C	1.278989	2.018479	-0.006244
C77	C	0.895765	1.518572	-0.506283
C78	C	1.395765	2.018572	-0.006283
C79	C	0.505918	1.518562	-0.780267
C80	C	1.005918	2.018562	-0.280267
C81	C	0.505874	1.518594	-0.897043
C82	C	1.005874	2.018594	-0.397043
C83	C	0.506035	1.792519	-0.506255
C84	C	1.006035	2.292519	-0.006255
C85	C	0.506041	1.909295	-0.506264
C86	C	1.006041	2.409295	-0.006264
C87	C	0.438630	1.585826	-1.061647
C88	C	0.938630	2.085826	-0.561647
C89	C	0.438671	1.585806	-0.951922
C90	C	0.938671	2.085806	-0.451922
C91	C	0.573048	1.451406	-0.951894
C92	C	1.073048	1.951406	-0.451894
C93	C	0.573011	1.451432	-1.061616
C94	C	1.073011	1.951432	-0.561616
C95	C	0.506049	1.518470	-0.233266
C96	C	1.006049	2.018470	0.266734
C97	C	0.505797	1.518641	-0.116490
C98	C	1.005797	2.018641	0.383510
H99	H	0.628080	1.118607	-0.627931
H100	H	1.128080	1.618607	-0.127931
H101	H	0.383988	0.919421	-0.384566
H102	H	0.883988	1.419421	0.115434
F103	F	0.367141	1.132201	-0.367757
F104	F	0.867141	1.632201	0.132243
F105	F	0.644573	1.379877	-0.893485
F106	F	1.144573	1.879877	-0.393485
H107	H	0.204577	1.384114	-0.371829
H108	H	0.704577	1.884114	0.128171
F109	F	0.367093	1.657353	-1.120043
F110	F	0.867093	2.157353	-0.620043
H111	H	-0.094099	1.774894	-0.762616
H112	H	0.405901	2.274894	-0.262616
H113	H	0.627712	1.396721	-1.106271
H114	H	1.127712	1.896721	-0.606271
H115	H	0.383978	1.640516	-0.907274
H116	H	0.883978	2.140516	-0.407274
F117	F	0.118796	1.245397	-0.233130
F118	F	0.618796	1.745397	0.266870
F119	F	-0.107710	1.245441	-0.233149
F120	F	0.392290	1.745441	0.266851
H121	H	-0.193551	1.384171	-0.371891
H122	H	0.306449	1.884171	0.128109
F123	F	-0.221037	1.652825	-0.640876
F124	F	0.278963	2.152825	-0.140876
F125	F	0.118681	1.791667	-0.779402
F126	F	0.618681	2.291667	-0.279402
F127	F	0.231960	1.652998	-0.640561
F128	F	0.731960	2.152998	-0.140561
F129	F	0.644905	0.905850	-0.644743
F130	F	1.144905	1.405850	-0.144743
