data_functionalizedCrystal
_audit_creation_method	'MofGen! by Chris Wilmer'
_symmetry_space_group_name_H-M	'P1'
_symmetry_Int_Tables_number	1
_symmetry_cell_setting	triclinic
loop_
_symmetry_equiv_pos_as_xyz
  x,y,z
_cell_length_a	16.109302
_cell_length_b	19.188924
_cell_length_c	15.186229
_cell_angle_alpha	89.994194
_cell_angle_beta	89.994701
_cell_angle_gamma	83.301872
loop_
_atom_site_label
_atom_site_type_symbol
_atom_site_fract_x
_atom_site_fract_y
_atom_site_fract_z
O1	O	1.102830	0.089747	-0.073272
O2	O	0.860731	0.100915	-0.073266
O3	O	0.988770	-0.006309	-0.073259
O4	O	0.974791	0.196970	-0.073279
O5	O	0.988762	-0.006311	0.073199
O6	O	0.860722	0.100913	0.073192
O7	O	1.102822	0.089745	0.073185
Zn8	Zn	0.981771	0.095329	0.096442
Zn9	Zn	0.981782	0.095331	-0.096522
O10	O	0.974783	0.196969	0.073178
C11	C	0.829753	0.100461	-0.000036
C12	C	0.737463	0.099105	-0.000033
C13	C	0.525128	0.095967	0.079792
C14	C	0.438412	0.094685	0.079789
C15	C	0.438432	0.094690	-0.079887
C16	C	0.525147	0.095968	-0.079883
C17	C	0.568492	0.096609	-0.000041
C18	C	0.395061	0.094050	-0.000048
C19	C	0.301040	0.092660	-0.000051
C20	C	0.662519	0.097998	-0.000037
C21	C	0.988314	-0.032322	-0.000029
C22	C	0.986958	-0.109830	-0.000027
C23	C	0.986330	-0.146229	-0.079861
C24	C	0.985044	-0.219055	-0.079868
C25	C	0.984403	-0.255480	-0.000036
C26	C	0.985027	-0.219071	0.079809
C27	C	0.986304	-0.146246	0.079813
N28	N	1.029706	-0.375038	0.059380
N29	N	1.028494	-0.444219	0.059371
C30	C	0.980552	-0.474898	-0.000044
N31	N	0.933878	-0.433784	-0.059462
N32	N	0.935093	-0.364597	-0.059455
C33	C	0.983017	-0.334447	-0.000032
C34	C	0.978528	-0.590264	-0.079891
C35	C	0.977237	-0.663090	-0.079894
C36	C	0.977228	-0.663106	0.079785
C37	C	0.978511	-0.590280	0.079786
C38	C	0.979165	-0.553864	-0.000055
C39	C	1.133799	0.090198	-0.000046
C40	C	1.226090	0.091555	-0.000055
C41	C	0.975239	0.222982	-0.000053
C42	C	0.976595	0.300490	-0.000061
N43	N	0.981769	0.095327	0.228134
N44	N	0.981790	0.095327	-0.228215
C45	C	1.038484	0.047864	0.453860
C46	C	1.038487	0.047863	0.546050
C47	C	0.925069	0.142792	0.546053
C48	C	0.925063	0.142790	0.453865
C49	C	0.981775	0.095327	0.407771
C50	C	0.981784	0.095327	0.592148
C51	C	0.981786	0.095326	0.692105
C52	C	0.981772	0.095327	0.307808
H53	H	0.984527	-0.248697	-0.144880
H54	H	0.403109	0.094162	0.144797
N55	N	0.394165	0.094047	-0.161447
N56	N	0.432896	0.094620	-0.232721
H57	H	0.401635	0.094167	-0.290326
H58	H	0.560455	0.096489	-0.144896
N59	N	0.986942	-0.109072	0.161374
N60	N	0.986361	-0.141597	0.232649
H61	H	0.986812	-0.115342	0.290253
N62	N	1.096394	-0.000621	0.406762
N63	N	1.096381	-0.000620	0.324452
H64	H	1.137279	-0.034866	0.291190
N65	N	0.979175	-0.553047	-0.161433
N66	N	0.980316	-0.488025	-0.161419
H67	H	0.980771	-0.461741	-0.219008
N68	N	1.096401	-0.000620	0.593142
N69	N	1.096390	-0.000623	0.675452
H70	H	1.137288	-0.034871	0.708712
N71	N	0.867147	0.191267	0.593152
N72	N	0.867160	0.191263	0.675462
H73	H	0.826252	0.225500	0.708726
N74	N	0.986995	-0.109043	-0.161421
N75	N	0.986432	-0.141557	-0.232697
H76	H	0.986901	-0.115293	-0.290300
N77	N	0.867122	0.191274	0.406793
N78	N	0.816494	0.233650	0.447956
H79	H	0.775572	0.267889	0.414712
N80	N	0.984364	-0.256285	0.161348
N81	N	0.983224	-0.321307	0.161334
H82	H	0.982751	-0.347590	0.218923
H83	H	0.976721	-0.692725	-0.144907
N84	N	0.976561	-0.700314	0.161325
N85	N	0.975414	-0.765335	0.161312
H86	H	0.974938	-0.791617	0.218901
H87	H	0.560417	0.096490	0.144805
N88	N	0.979155	-0.553106	0.161343
N89	N	0.978579	-0.585633	0.232618
H90	H	0.979031	-0.559379	0.290223
