data_functionalizedCrystal
_audit_creation_method	'MofGen! by Chris Wilmer'
_symmetry_space_group_name_H-M	'P1'
_symmetry_Int_Tables_number	1
_symmetry_cell_setting	triclinic
loop_
_symmetry_equiv_pos_as_xyz
  x,y,z
_cell_length_a	12.827892
_cell_length_b	19.121379
_cell_length_c	12.827885
_cell_angle_alpha	87.586212
_cell_angle_beta	89.970214
_cell_angle_gamma	87.544142
loop_
_atom_site_label
_atom_site_type_symbol
_atom_site_fract_x
_atom_site_fract_y
_atom_site_fract_z
Zn1	Zn	-0.347863	-1.073762	-0.522937
Zn2	Zn	0.152137	-0.573762	-0.022937
Zn3	Zn	-0.522645	-1.073691	-0.348202
Zn4	Zn	-0.022645	-0.573691	0.151798
Zn5	Zn	-0.355366	-0.956310	-0.355639
Zn6	Zn	0.144634	-0.456310	0.144361
Zn7	Zn	-0.530015	-0.956300	-0.530327
Zn8	Zn	-0.030015	-0.456300	-0.030327
O9	O	-0.438972	-1.015016	-0.439276
O10	O	0.061028	-0.515016	0.060724
O11	O	-0.364825	-1.172035	-0.493553
O12	O	0.135175	-0.672035	0.006447
O13	O	-0.500511	-1.058094	-0.202954
O14	O	-0.000511	-0.558094	0.297046
O15	O	-0.208132	-0.971924	-0.377852
O16	O	0.291868	-0.471924	0.122148
O17	O	-0.493236	-1.171982	-0.365176
O18	O	0.006764	-0.671982	0.134824
O19	O	-0.202620	-1.058215	-0.500765
O20	O	0.297380	-0.558215	-0.000765
O21	O	-0.377611	-0.971855	-0.208418
O22	O	0.122389	-0.471855	0.291582
O23	O	-0.384757	-0.858026	-0.385017
O24	O	0.115243	-0.358026	0.114983
O25	O	-0.505797	-0.971907	-0.675581
O26	O	-0.005797	-0.471907	-0.175581
O27	O	-0.513071	-0.858019	-0.513359
O28	O	-0.013071	-0.358019	-0.013359
O29	O	-0.371971	-1.058206	-0.670152
O30	O	0.128029	-0.558206	-0.170152
O31	O	-0.669861	-1.058085	-0.372341
O32	O	-0.169861	-0.558085	0.127659
O33	O	-0.675275	-0.971838	-0.506147
O34	O	-0.175275	-0.471838	-0.006147
C35	C	-0.450529	-0.832539	-0.450797
C36	C	0.049471	-0.332539	0.049203
C37	C	-0.455497	-0.754475	-0.455751
C38	C	0.044503	-0.254475	0.044249
C39	C	-0.390925	-0.717783	-0.391367
C40	C	0.109075	-0.217783	0.108633
C41	C	-0.395603	-0.644434	-0.396021
C42	C	0.104397	-0.144434	0.103979
C43	C	-0.464849	-0.607777	-0.465065
C44	C	0.035151	-0.107777	0.034935
C45	C	-0.529428	-0.644474	-0.529451
C46	C	-0.029428	-0.144474	-0.029451
C47	C	-0.524755	-0.717822	-0.524791
C48	C	-0.024755	-0.217822	-0.024791
C49	C	-0.482311	-0.386314	-0.482468
C50	C	0.017689	0.113686	0.017532
C51	C	-0.486978	-0.312960	-0.487126
C52	C	0.013022	0.187040	0.012874
C53	C	-0.353153	-0.312925	-0.353693
C54	C	0.146847	0.187075	0.146307
C55	C	-0.348481	-0.386275	-0.349044
C56	C	0.151519	0.113725	0.150956
C57	C	-0.413065	-0.422965	-0.413426
C58	C	0.086935	0.077035	0.086574
C59	C	-0.469630	-0.532802	-0.469826
C60	C	0.030370	-0.032802	0.030174
C61	C	-0.408288	-0.497939	-0.408659
C62	C	0.091712	0.002061	0.091341
C63	C	-0.710485	-1.014972	-0.439261
C64	C	-0.210485	-0.514972	0.060739
C65	C	-0.826635	-1.015017	-0.439285
C66	C	-0.326635	-0.515017	0.060715
C67	C	-1.001176	-0.972378	-0.505474
C68	C	-0.501176	-0.472378	-0.005474
C69	C	-0.881128	-0.972330	-0.505450
C70	C	-0.381128	-0.472330	-0.005450
C71	C	-0.166398	-1.015079	-0.439314
C72	C	0.333602	-0.515079	0.060686
C73	C	-0.050243	-1.015106	-0.439330
C74	C	0.449757	-0.515106	0.060670
C75	C	-0.438869	-1.015063	-0.711844
C76	C	0.061131	-0.515063	-0.211844
C77	C	-0.438825	-1.015084	-0.827996
C78	C	0.061175	-0.515084	-0.327996
C79	C	-0.427366	-0.198205	-0.427701
C80	C	0.072634	0.301795	0.072299
C81	C	-0.422405	-0.276269	-0.422742
C82	C	0.077595	0.223731	0.077258
C83	C	-0.372591	-1.057792	-0.877094
C84	C	0.127409	-0.557792	-0.377094
C85	C	-0.372544	-1.057814	-0.997143
C86	C	0.127456	-0.557814	-0.497143
C87	C	-0.438997	-1.015008	-0.167767
C88	C	0.061003	-0.515008	0.332233
C89	C	-0.438738	-1.015124	-0.051607
C90	C	0.061262	-0.515124	0.448393
H91	H	-0.300574	-0.283044	-0.301276
H92	H	0.199426	0.216956	0.198724
H93	H	-1.003378	-1.051654	-0.382687
H94	H	-0.503378	-0.551654	0.117313
C95	C	-0.545792	-0.492472	-0.545779
C96	C	-0.045792	0.007528	-0.045779
N97	N	-0.603158	-0.462094	-0.602987
N98	N	-0.103158	0.037906	-0.102987
H99	H	-0.838922	-0.935746	-0.562075
H100	H	-0.338922	-0.435746	-0.062075
H101	H	-0.334529	-0.747624	-0.335152
H102	H	0.165471	-0.247624	0.164848
C103	C	-0.515384	-0.965705	-0.891271
C104	C	-0.015384	-0.465705	-0.391271
N105	N	-0.573050	-0.928512	-0.938929
N106	N	-0.073050	-0.428512	-0.438929
C107	C	-0.324558	-0.604076	-0.325203
C108	C	0.175442	-0.104076	0.174797
N109	N	-0.271040	-0.573680	-0.271862
N110	N	0.228960	-0.073680	0.228138
H111	H	-0.315842	-1.094380	-1.039376
H112	H	0.184158	-0.594380	-0.539376
H113	H	-0.868836	-1.051598	-0.382651
H114	H	-0.368836	-0.551598	0.117349
C115	C	-1.064484	-0.923002	-0.582000
C116	C	-0.564484	-0.423002	-0.082000
N117	N	-1.112167	-0.885809	-0.639639
N118	N	-0.612167	-0.385809	-0.139639
H119	H	-0.315917	-1.094337	-0.830253
H120	H	0.184083	-0.594337	-0.330253
C121	C	-0.605601	-0.604149	-0.605400
C122	C	-0.105601	-0.104149	-0.105400
N123	N	-0.662972	-0.573777	-0.662609
N124	N	-0.162972	-0.073777	-0.162609
H125	H	-0.292101	-0.416116	-0.292814
H126	H	0.207899	0.083884	0.207186
H127	H	-0.534900	-0.416178	-0.534893
H128	H	-0.034900	0.083822	-0.034893
C129	C	-0.563153	-0.272639	-0.563087
C130	C	-0.063153	0.227361	-0.063087
N131	N	-0.620522	-0.242270	-0.620301
N132	N	-0.120522	0.257730	-0.120301
C133	C	-0.595788	-0.758182	-0.595621
C134	C	-0.095788	-0.258182	-0.095621
N135	N	-0.649295	-0.788581	-0.648970
N136	N	-0.149295	-0.288581	-0.148970
H137	H	-0.351912	-0.527788	-0.352440
H138	H	0.148088	-0.027788	0.147560
H139	H	-0.495450	-0.978561	-1.009380
H140	H	0.004550	-0.478561	-0.509380
