data_functionalizedCrystal
_audit_creation_method	'MofGen! by Chris Wilmer'
_symmetry_space_group_name_H-M	'P1'
_symmetry_Int_Tables_number	1
_symmetry_cell_setting	triclinic
loop_
_symmetry_equiv_pos_as_xyz
  x,y,z
_cell_length_a	11.792254
_cell_length_b	15.944493
_cell_length_c	10.268362
_cell_angle_alpha	90.000590
_cell_angle_beta	89.995475
_cell_angle_gamma	83.836821
loop_
_atom_site_label
_atom_site_type_symbol
_atom_site_fract_x
_atom_site_fract_y
_atom_site_fract_z
O1	O	1.505919	0.115182	-0.108281
O2	O	2.005919	0.615182	0.391719
O3	O	1.175479	0.127036	-0.108282
O4	O	1.675479	0.627036	0.391718
O5	O	1.349757	-0.001128	-0.108292
O6	O	1.849757	0.498872	0.391708
O7	O	1.331641	0.243346	-0.108271
O8	O	1.831641	0.743346	0.391729
O9	O	1.349742	-0.001133	0.108309
O10	O	1.849742	0.498867	0.608309
O11	O	1.175464	0.127031	0.108319
O12	O	1.675464	0.627031	0.608319
O13	O	1.505904	0.115177	0.108320
O14	O	2.005904	0.615177	0.608320
Cu15	Cu	1.340682	0.121103	0.128097
Cu16	Cu	1.840682	0.621103	0.628097
Cu17	Cu	1.340700	0.121110	-0.128059
Cu18	Cu	1.840700	0.621110	0.371941
O19	O	1.331626	0.243341	0.108330
O20	O	1.831626	0.743341	0.608330
C21	C	1.133187	0.126287	0.000018
C22	C	1.633187	0.626287	0.500018
C23	C	1.007193	0.124052	0.000017
C24	C	1.507193	0.624052	0.500017
C25	C	0.904872	0.122236	0.000011
C26	C	1.404872	0.622236	0.500011
C27	C	0.776504	0.119965	0.000010
C28	C	1.276504	0.619965	0.500010
C29	C	1.349009	-0.032429	0.000003
C30	C	1.849009	0.467571	0.500003
C31	C	1.346789	-0.125687	-0.000014
C32	C	1.846789	0.374313	0.499986
C33	C	1.449373	-0.360981	0.000011
C34	C	1.949373	0.139019	0.500011
C35	C	1.394061	-0.411798	-0.106784
C36	C	1.894061	0.088202	0.393216
C37	C	1.342676	-0.296427	0.000002
C38	C	1.842676	0.203573	0.500002
C39	C	1.394021	-0.411779	0.106767
C40	C	1.894021	0.088221	0.606767
C41	C	1.338711	-0.461355	0.000023
C42	C	1.838711	0.038645	0.500023
C43	C	1.287392	-0.346016	-0.106881
C44	C	1.787392	0.153984	0.393119
C45	C	1.287368	-0.345994	0.106766
C46	C	1.787368	0.154006	0.606766
C47	C	1.231977	-0.396778	-0.000055
C48	C	1.731977	0.103222	0.499945
C49	C	1.344963	-0.201417	-0.000011
C50	C	1.844963	0.298583	0.499989
C51	C	1.336415	-0.556362	0.000027
C52	C	1.836415	-0.056362	0.500027
C53	C	1.548196	0.115926	0.000017
C54	C	2.048196	0.615926	0.500017
C55	C	1.674190	0.118161	0.000010
C56	C	2.174190	0.618161	0.500010
C57	C	1.332374	0.274642	0.000033
C58	C	1.832374	0.774642	0.500033
C59	C	1.334594	0.367900	0.000041
C60	C	1.834594	0.867900	0.500041
N61	N	1.340678	0.121098	0.308263
N62	N	1.840678	0.621098	0.808263
N63	N	1.340713	0.121108	-0.308225
N64	N	1.840713	0.621108	0.191775
C65	C	1.340694	0.121108	0.573933
C66	C	1.840694	0.621108	1.073933
C67	C	1.340682	0.121105	0.426095
C68	C	1.840682	0.621105	0.926095
H69	H	1.541279	-0.344935	-0.000096
H70	H	2.041279	0.155065	0.499904
O71	O	1.110139	-0.417809	-0.000134
O72	O	1.610139	0.082191	0.499866
H73	H	1.109298	-0.487351	0.000715
H74	H	1.609298	0.012649	0.500715
H75	H	1.439127	-0.440536	-0.197072
H76	H	1.939127	0.059464	0.302928
H77	H	1.242365	-0.317398	-0.197264
H78	H	1.742365	0.182602	0.302736
O79	O	1.453721	-0.449816	0.226369
O80	O	1.953721	0.050184	0.726369
H81	H	1.410262	-0.422425	0.314918
H82	H	1.910262	0.077575	0.814918
O83	O	1.227727	-0.307891	0.226361
O84	O	1.727727	0.192109	0.726361
H85	H	1.272206	-0.334350	0.314887
H86	H	1.772206	0.165650	0.814887
