data_functionalizedCrystal
_audit_creation_method	'MofGen! by Chris Wilmer'
_symmetry_space_group_name_H-M	'P1'
_symmetry_Int_Tables_number	1
_symmetry_cell_setting	triclinic
loop_
_symmetry_equiv_pos_as_xyz
  x,y,z
_cell_length_a	14.853558
_cell_length_b	14.044190
_cell_length_c	13.930277
_cell_angle_alpha	89.990896
_cell_angle_beta	89.993309
_cell_angle_gamma	88.411455
loop_
_atom_site_label
_atom_site_type_symbol
_atom_site_fract_x
_atom_site_fract_y
_atom_site_fract_z
O1	O	1.206179	0.123725	-0.079830
O2	O	0.944888	0.138478	-0.079836
O3	O	1.071608	-0.006889	-0.079814
O4	O	1.079459	0.269091	-0.079852
O5	O	1.071589	-0.006892	0.079848
O6	O	0.944868	0.138474	0.079826
O7	O	1.206160	0.123722	0.079832
Zn8	Zn	1.075511	0.131097	0.105178
Zn9	Zn	1.075536	0.131102	-0.105183
O10	O	1.079439	0.269088	0.079810
C11	C	0.911236	0.137809	-0.000006
C12	C	0.810994	0.135811	-0.000007
C13	C	0.763910	0.134875	-0.087042
C14	C	0.763886	0.134861	0.087027
C15	C	0.669703	0.132978	0.087029
C16	C	0.622619	0.132042	-0.000006
C17	C	0.669718	0.132989	-0.087043
C18	C	0.622598	0.132021	0.174065
C19	C	0.528409	0.130137	0.174070
C20	C	0.481323	0.129208	0.087034
C21	C	0.528428	0.130157	-0.000007
C22	C	0.481344	0.129221	-0.087042
C23	C	0.528447	0.130176	-0.174084
C24	C	0.622632	0.132061	-0.174079
C25	C	0.387137	0.127324	0.087029
C26	C	0.387152	0.127335	-0.087043
C27	C	1.068164	-0.042209	0.000019
C28	C	1.057920	-0.147448	0.000027
C29	C	1.111846	-0.397666	-0.000009
C30	C	1.039205	-0.340130	-0.000004
C31	C	1.049620	-0.232912	0.000014
C32	C	1.101432	-0.504893	-0.000026
C33	C	1.239811	0.124390	-0.000001
C34	C	1.340053	0.126388	-0.000006
C35	C	1.082883	0.304408	-0.000026
C36	C	1.093128	0.409647	-0.000040
N37	N	1.075500	0.131094	0.248745
N38	N	1.075554	0.131097	-0.248749
C39	C	1.019420	0.195444	0.701004
C40	C	1.131677	0.066751	0.700993
C41	C	1.131666	0.066748	0.600497
C42	C	1.075532	0.131095	0.550250
C43	C	1.019409	0.195445	0.600499
C44	C	1.187794	0.002406	0.550241
C45	C	1.187786	0.002401	0.449739
C46	C	1.131647	0.066744	0.399490
C47	C	1.075521	0.131096	0.449745
C48	C	1.019388	0.195443	0.399498
C49	C	0.963257	0.259791	0.449752
C50	C	0.963270	0.259789	0.550251
C51	C	1.131633	0.066747	0.298991
C52	C	1.019377	0.195444	0.298993
H53	H	0.348823	0.126579	-0.157918
F54	F	1.203350	-0.356802	0.000005
F55	F	0.959626	0.263928	0.245525
H56	H	1.177339	0.014360	0.258080
F57	F	0.814039	0.135893	-0.179673
F58	F	0.903523	0.328278	0.396265
F59	F	0.947694	-0.380993	-0.000009
F60	F	0.903538	0.328269	0.603737
F61	F	0.337012	0.126294	0.179658
H62	H	1.177384	0.014366	0.741907
F63	F	0.959680	0.263922	0.754485
H64	H	1.233490	-0.049995	0.408829
F65	F	0.478327	0.129162	-0.266710
F66	F	0.672769	0.133068	-0.266706
H67	H	0.490066	0.129358	0.244944
H68	H	1.233501	-0.049979	0.591155
H69	H	0.802228	0.135615	0.157887
H70	H	0.660941	0.132774	0.244924
