data_functionalizedCrystal
_audit_creation_method	'MofGen! by Chris Wilmer'
_symmetry_space_group_name_H-M	'P1'
_symmetry_Int_Tables_number	1
_symmetry_cell_setting	triclinic
loop_
_symmetry_equiv_pos_as_xyz
  x,y,z
_cell_length_a	15.538191
_cell_length_b	17.038272
_cell_length_c	14.185569
_cell_angle_alpha	75.875097
_cell_angle_beta	97.875798
_cell_angle_gamma	69.191825
loop_
_atom_site_label
_atom_site_type_symbol
_atom_site_fract_x
_atom_site_fract_y
_atom_site_fract_z
O1	O	1.210508	-0.225025	-0.083426
O2	O	0.943323	-0.136755	-0.083427
O3	O	1.075329	-0.294257	-0.083419
O4	O	1.078502	-0.067523	-0.083435
O5	O	1.114326	-0.340781	0.083418
O6	O	0.982319	-0.183279	0.083410
O7	O	1.249504	-0.271549	0.083411
Cu8	Cu	1.119472	-0.231662	0.098644
Cu9	Cu	1.073355	-0.176642	-0.098660
O10	O	1.117498	-0.114046	0.083402
C11	C	0.928466	-0.150781	-0.000008
C12	C	0.826096	-0.123272	-0.000009
C13	C	0.516405	-0.396569	-0.000005
C14	C	0.420212	-0.370700	-0.000008
C15	C	0.409427	-0.225194	-0.000017
C16	C	0.505622	-0.251052	-0.000010
C17	C	0.559104	-0.336740	-0.000005
C18	C	0.548321	-0.191224	-0.000010
C19	C	0.644507	-0.217079	-0.000008
C20	C	0.697994	-0.302762	-0.000006
C21	C	0.655290	-0.362595	-0.000003
C22	C	0.494836	-0.105534	-0.000022
C23	C	0.537535	-0.045706	-0.000022
C24	C	0.633725	-0.071563	-0.000013
C25	C	0.687212	-0.157246	-0.000011
C26	C	0.676429	-0.011729	-0.000016
C27	C	0.772615	-0.037584	-0.000014
C28	C	0.783398	-0.183101	-0.000009
C29	C	1.091939	-0.345828	-0.000000
C30	C	1.083321	-0.430177	-0.000001
C31	C	1.162445	-0.502729	0.000001
C32	C	1.154339	-0.581979	-0.000009
C33	C	1.067111	-0.588678	-0.000012
C34	C	0.987981	-0.516117	-0.000017
C35	C	0.996085	-0.436867	-0.000014
C36	C	1.038478	-0.826313	-0.000026
C37	C	1.030380	-0.905572	-0.000026
C38	C	1.196740	-0.971428	-0.000020
C39	C	1.204838	-0.892175	-0.000011
C40	C	1.125706	-0.819620	-0.000021
C41	C	1.058825	-0.669684	-0.000019
C42	C	1.133991	-0.738614	-0.000021
C43	C	1.264361	-0.257521	-0.000010
C44	C	1.366729	-0.285029	-0.000016
C45	C	1.100888	-0.062475	-0.000018
C46	C	1.109504	0.021876	-0.000024
N47	N	1.151915	-0.270362	0.237417
N48	N	1.040918	-0.137950	-0.237433
C49	C	0.945597	-0.024281	0.605054
C50	C	0.970180	-0.053593	0.710077
C51	C	1.087100	-0.193030	0.710045
C52	C	1.062524	-0.163731	0.605020
C53	C	0.991773	-0.079356	0.552533
C54	C	1.108700	-0.218806	0.552499
C55	C	1.084130	-0.189508	0.447483
C56	C	1.013383	-0.105135	0.394988
C57	C	0.967203	-0.050058	0.447517
C58	C	1.179455	-0.303179	0.604988
C59	C	1.225631	-0.358254	0.552467
C60	C	1.201056	-0.328958	0.447449
C61	C	1.130310	-0.244585	0.394954
C62	C	1.247237	-0.384035	0.394921
C63	C	1.222666	-0.354737	0.289904
C64	C	1.105740	-0.215287	0.289938
H65	H	0.776312	-0.323808	-0.000017
C66	C	1.272685	-0.414597	0.232882
C67	C	1.257712	-0.492622	0.258354
C68	C	1.303764	-0.547761	0.205815
H69	H	1.338863	-0.428598	0.250018
H70	H	1.247886	-0.385073	0.162821
H71	H	1.282515	-0.522141	0.328400
H72	H	1.191544	-0.478648	0.241216
H73	H	1.278965	-0.518237	0.135753
H74	H	1.369940	-0.561755	0.222954
H75	H	1.293604	-0.600703	0.223083
H76	H	1.144709	-0.261728	0.752793
H77	H	1.275868	-0.886730	-0.000008
H78	H	0.365868	-0.155426	-0.000026
H79	H	0.987804	-0.675148	-0.000020
H80	H	0.698839	-0.432372	0.000007
H81	H	0.909583	0.018645	0.404779
C82	C	0.390376	-0.077532	-0.000183
C83	C	0.341433	-0.084713	-0.085999
C84	C	0.245206	-0.058935	-0.086175
H85	H	0.364512	-0.017930	-0.000244
H86	H	0.384165	-0.114793	0.057970
H87	H	0.347638	-0.047452	-0.144137
H88	H	0.367267	-0.144307	-0.085956
H89	H	0.238994	-0.096196	-0.028023
H90	H	0.219351	0.000666	-0.086234
H91	H	0.211987	-0.063811	-0.144396
H92	H	0.493977	0.024062	-0.000030
C93	C	1.323908	-0.475699	0.451972
C94	C	1.285201	-0.525424	0.512262
C95	C	1.355799	-0.609872	0.564822
H96	H	1.374069	-0.470602	0.493006
H97	H	1.347884	-0.504358	0.405686
H98	H	1.261240	-0.496771	0.558543
H99	H	1.235048	-0.530546	0.471252
H100	H	1.379774	-0.638532	0.518536
H101	H	1.405956	-0.604766	0.605851
H102	H	1.329544	-0.643624	0.605728
C103	C	0.618208	0.081248	0.000023
C104	C	0.524838	0.091080	0.000039
C105	C	0.471182	0.176716	0.000088
H106	H	0.618051	0.123213	-0.058141
H107	H	0.645300	0.090698	0.058227
H108	H	0.497752	0.081639	-0.058158
H109	H	0.524966	0.049135	0.058198
H110	H	0.498274	0.186165	0.058291
H111	H	0.471032	0.218674	-0.058077
H112	H	0.407827	0.183395	0.000108
H113	H	0.993382	-0.081280	0.309477
C114	C	1.240202	-0.660866	0.000147
C115	C	1.260452	-0.732238	0.085962
C116	C	1.339536	-0.804927	0.086129
H117	H	1.293396	-0.645663	0.000205
H118	H	1.226908	-0.676973	-0.058007
H119	H	1.273751	-0.716132	0.144101
H120	H	1.207280	-0.747467	0.085922
H121	H	1.326242	-0.821035	0.027974
H122	H	1.392723	-0.789716	0.086184
H123	H	1.353280	-0.853364	0.144347
C124	C	0.952684	-0.747520	0.000126
C125	C	0.972546	-0.724019	0.085945
C126	C	0.893537	-0.651426	0.086113
H127	H	0.899518	-0.762756	0.000179
H128	H	0.938793	-0.698971	-0.058025
H129	H	0.986424	-0.772557	0.144081
H130	H	1.025698	-0.708766	0.085911
H131	H	0.879646	-0.602877	0.027962
H132	H	0.840376	-0.666670	0.086163
H133	H	0.907005	-0.635466	0.144335
C134	C	1.029047	-0.123602	0.232991
C135	C	1.055978	-0.059827	0.258507
C136	C	0.985364	0.024638	0.206056
H137	H	0.970898	-0.119169	0.250170
H138	H	1.021040	-0.113993	0.162917
H139	H	1.063974	-0.069432	0.328566
H140	H	1.114116	-0.064231	0.241326
H141	H	0.977356	0.034247	0.135982
H142	H	0.927219	0.029062	0.223238
H143	H	1.003631	0.067920	0.223354
H144	H	0.385450	-0.419425	-0.000009
C145	C	0.574308	-0.489628	-0.000050
C146	C	0.516326	-0.536489	-0.000072
C147	C	0.569629	-0.622208	-0.000131
H148	H	0.625663	-0.519071	0.058112
H149	H	0.598431	-0.486541	-0.058255
H150	H	0.492218	-0.539580	0.058127
H151	H	0.464972	-0.507073	-0.058230
H152	H	0.593752	-0.619121	-0.058336
H153	H	0.620982	-0.651643	0.058033
H154	H	0.530294	-0.654012	-0.000154
H155	H	1.199461	-0.327028	0.690499
C156	C	0.841381	-0.276088	-0.000208
C157	C	0.801195	-0.289756	-0.086051
C158	C	0.854591	-0.375395	-0.086278
H159	H	0.841469	-0.318061	0.057906
H160	H	0.904778	-0.282931	-0.000264
H161	H	0.737815	-0.282922	-0.085986
H162	H	0.801108	-0.247804	-0.144179
H163	H	0.917987	-0.382238	-0.086334
H164	H	0.854675	-0.417361	-0.028160
H165	H	0.827337	-0.384677	-0.144526
H166	H	0.887978	0.044422	0.562317
C167	C	0.919888	0.006318	0.766920
C168	C	0.852652	0.086468	0.698472
C169	C	0.806297	0.141671	0.750798
H170	H	0.965045	0.017433	0.807887
H171	H	0.888878	-0.021718	0.807871
H172	H	0.883661	0.114498	0.657538
H173	H	0.807476	0.075380	0.657503
H174	H	0.775287	0.113635	0.791749
H175	H	0.851461	0.152779	0.791763
H176	H	0.760667	0.196056	0.704365
H177	H	1.283240	-0.426952	0.595214
H178	H	0.807383	0.011131	-0.000004
H179	H	1.233477	-0.497286	0.000010
H180	H	1.261163	-1.030509	-0.000014
H181	H	1.205007	-0.733150	-0.000041
C182	C	0.935573	-0.912653	-0.000093
C183	C	0.867998	-0.832142	-0.000132
C184	C	0.780654	-0.838629	-0.000209
H185	H	0.942411	-0.958371	0.058069
H186	H	0.915314	-0.925934	-0.058298
H187	H	0.888253	-0.818871	0.058067
H188	H	0.861131	-0.786411	-0.058290
H189	H	0.760395	-0.851911	-0.058413
H190	H	0.787503	-0.884350	0.057955
H191	H	0.734792	-0.784003	-0.000244
H192	H	0.916956	-0.521575	-0.000026
H193	H	0.931654	-0.377793	-0.000016
