data_functionalizedCrystal
_audit_creation_method	'MofGen! by Chris Wilmer'
_symmetry_space_group_name_H-M	'P1'
_symmetry_Int_Tables_number	1
_symmetry_cell_setting	triclinic
loop_
_symmetry_equiv_pos_as_xyz
  x,y,z
_cell_length_a	6.817900
_cell_length_b	11.102291
_cell_length_c	11.102291
_cell_angle_alpha	91.949483
_cell_angle_beta	108.605752
_cell_angle_gamma	108.605753
loop_
_atom_site_label
_atom_site_type_symbol
_atom_site_fract_x
_atom_site_fract_y
_atom_site_fract_z
V1	V	-4.111540	-0.175855	-0.396260
O2	O	-4.070571	0.008434	-0.388716
O3	O	-4.088317	-0.348675	-0.393551
O4	O	-4.088324	-0.173157	-0.569082
O5	O	-4.070564	-0.168299	-0.211969
V6	V	-4.588642	-0.153811	-0.374217
O7	O	-4.386883	-0.224210	-0.444612
O8	O	-4.763496	-0.105456	-0.325865
O9	O	-4.388657	0.019009	-0.376926
O10	O	-4.747007	-0.338101	-0.381761
O11	O	-4.747014	-0.161367	-0.558508
O12	O	-4.388650	-0.156509	-0.201395
C13	C	-3.938628	-0.390805	-0.387300
C14	C	-4.001096	-0.532088	-0.386237
C15	C	-4.149287	-0.749367	-0.501131
C16	C	-4.090612	-0.616617	-0.502127
C17	C	-3.970275	-0.580316	-0.269342
C18	C	-4.028965	-0.713064	-0.268348
C19	C	-4.238783	-0.833889	-0.617028
C20	C	-4.269612	-0.785670	-0.733923
C21	C	-4.210937	-0.652920	-0.734920
C22	C	-4.121433	-0.568389	-0.619021
C23	C	-3.938636	-0.166913	-0.611206
C24	C	-4.001105	-0.165850	-0.752489
C25	C	-4.214459	-0.171690	-0.825337
C26	C	-4.273131	-0.170667	-0.958083
C27	C	-3.905074	-0.157970	-0.945122
C28	C	-3.846401	-0.158984	-0.812377
C29	C	-4.369163	-0.178557	-0.765449
C30	C	-4.582533	-0.184398	-0.838298
C31	C	-4.641205	-0.183375	-0.971044
C32	C	-4.486506	-0.176511	-1.030941
C33	C	-4.201689	0.061132	-0.383174
C34	C	-4.118461	0.202414	-0.384245
C35	C	-4.201681	-0.162758	-0.159264
C36	C	-4.118449	-0.163814	-0.017980
H37	H	-4.236065	-0.613666	-0.830101
H38	H	-3.897396	-0.511481	-0.174984
Br39	Br	-3.556828	-0.151032	-0.713499
Br40	Br	-4.318405	-1.014049	-0.615682
H41	H	-4.342502	-0.854504	-0.828283
H42	H	-4.073680	-0.460297	-0.619843
Br43	Br	-3.987138	-0.778514	-0.109715
H44	H	-4.321412	-0.179394	-0.657362
Br45	Br	-4.566120	-0.175090	-1.211094
Br46	Br	-4.930763	-0.191288	-1.069906
H47	H	-4.708474	-0.189979	-0.789519
H48	H	-3.779132	-0.152382	-0.993901
