data_functionalizedCrystal
_audit_creation_method	'MofGen! by Chris Wilmer'
_symmetry_space_group_name_H-M	'P1'
_symmetry_Int_Tables_number	1
_symmetry_cell_setting	triclinic
loop_
_symmetry_equiv_pos_as_xyz
  x,y,z
_cell_length_a	16.959455
_cell_length_b	18.101395
_cell_length_c	16.959447
_cell_angle_alpha	89.967606
_cell_angle_beta	89.977004
_cell_angle_gamma	90.028971
loop_
_atom_site_label
_atom_site_type_symbol
_atom_site_fract_x
_atom_site_fract_y
_atom_site_fract_z
Zn1	Zn	1.208339	-0.294873	-0.447025
Zn2	Zn	1.708339	0.205127	0.052975
Zn3	Zn	1.208228	-0.418726	-0.314842
Zn4	Zn	1.708228	0.081274	0.185158
Zn5	Zn	1.076161	-0.294897	-0.314849
Zn6	Zn	1.576161	0.205103	0.185151
Zn7	Zn	1.076105	-0.418671	-0.446967
Zn8	Zn	1.576105	0.081329	0.053033
O9	O	1.142208	-0.356792	-0.380921
O10	O	1.642208	0.143208	0.119079
O11	O	1.318935	-0.311316	-0.429513
O12	O	1.818935	0.188684	0.070487
O13	O	1.190686	-0.402333	-0.204232
O14	O	1.690686	0.097667	0.295768
O15	O	1.093765	-0.191261	-0.332410
O16	O	1.593765	0.308739	0.167590
O17	O	1.318854	-0.402310	-0.332398
O18	O	1.818854	0.097690	0.167602
O19	O	1.190876	-0.191243	-0.429519
O20	O	1.690876	0.308757	0.070481
O21	O	1.093658	-0.311356	-0.204237
O22	O	1.593658	0.188644	0.295763
O23	O	0.965543	-0.311302	-0.332353
O24	O	1.465543	0.188698	0.167647
O25	O	1.093669	-0.402216	-0.557586
O26	O	1.593669	0.097784	-0.057586
O27	O	0.965501	-0.402239	-0.429419
O28	O	1.465501	0.097761	0.070581
O29	O	1.190821	-0.311262	-0.557629
O30	O	1.690821	0.188738	-0.057629
O31	O	1.190631	-0.522352	-0.332342
O32	O	1.690631	-0.022352	0.167658
O33	O	1.093561	-0.522311	-0.429413
O34	O	1.593561	-0.022311	0.070587
C35	C	0.936842	-0.356768	-0.380881
C36	C	1.436842	0.143232	0.119119
C37	C	0.848985	-0.356775	-0.380883
C38	C	1.348985	0.143225	0.119117
C39	C	0.477457	-0.404126	-0.330328
C40	C	0.977457	0.095874	0.169672
C41	C	0.477563	-0.309520	-0.431610
C42	C	0.977563	0.190480	0.068390
C43	C	0.560109	-0.309507	-0.431591
C44	C	1.060109	0.190493	0.068409
C45	C	0.601333	-0.356806	-0.380940
C46	C	1.101333	0.143194	0.119060
C47	C	0.560010	-0.404117	-0.330308
C48	C	1.060010	0.095883	0.169692
C49	C	0.601437	-0.262203	-0.482227
C50	C	1.101437	0.237797	0.017773
C51	C	0.683988	-0.262189	-0.482211
C52	C	1.183988	0.237811	0.017789
C53	C	0.725213	-0.309485	-0.431555
C54	C	1.225213	0.190515	0.068445
C55	C	0.683886	-0.356797	-0.380921
C56	C	1.183886	0.143203	0.119079
C57	C	0.725110	-0.404095	-0.330270
C58	C	1.225110	0.095905	0.169730
C59	C	0.683784	-0.451404	-0.279631
C60	C	1.183784	0.048596	0.220369
C61	C	0.601235	-0.451412	-0.279653
C62	C	1.101235	0.048588	0.220347
C63	C	0.807762	-0.309477	-0.431534
C64	C	1.307762	0.190523	0.068466
C65	C	0.807663	-0.404086	-0.330251
C66	C	1.307663	0.095914	0.169749
C67	C	1.142100	-0.549202	-0.380887
C68	C	1.642100	-0.049202	0.119113
C69	C	1.142125	-0.631517	-0.380899
C70	C	1.642125	-0.131517	0.119101
C71	C	1.142216	-0.782225	-0.380931
C72	C	1.642216	-0.282225	0.119069
C73	C	1.081111	-0.813584	-0.441959
C74	C	1.581111	-0.313584	0.058041
C75	C	1.081341	-0.899202	-0.442216
C76	C	1.581341	-0.399202	0.057784
C77	C	1.142304	-0.930607	-0.380962
C78	C	1.642304	-0.430607	0.119038
C79	C	1.225636	-0.899427	-0.403379
C80	C	1.725636	-0.399427	0.096621
C81	C	1.225231	-0.813783	-0.403804
C82	C	1.725231	-0.313783	0.096196
C83	C	1.120737	-0.813865	-0.297340
C84	C	1.620737	-0.313865	0.202660
C85	C	1.118950	-0.899517	-0.297803
C86	C	1.618950	-0.399517	0.202197
C87	C	1.142359	-1.014467	-0.380978
C88	C	1.642359	-0.514467	0.119022
C89	C	1.142167	-0.698365	-0.380917
C90	C	1.642167	-0.198365	0.119083
C91	C	1.348377	-0.356817	-0.380961
C92	C	1.848377	0.143183	0.119039
C93	C	1.436233	-0.356827	-0.380978
C94	C	1.936233	0.143173	0.119022
C95	C	1.142251	-0.356730	-0.587089
C96	C	1.642251	0.143270	-0.087089
C97	C	1.142269	-0.356704	-0.674946
C98	C	1.642269	0.143296	-0.174946
C99	C	1.142339	-0.163630	-0.380972
C100	C	1.642339	0.336370	0.119028
C101	C	1.142395	-0.081316	-0.380993
C102	C	1.642395	0.418684	0.119007
C103	C	1.091820	-0.309258	-1.046430
C104	C	1.591820	0.190742	-0.546430
C105	C	1.192857	-0.403994	-1.046413
C106	C	1.692857	0.096006	-0.546413
C107	C	1.192843	-0.404011	-0.963867
C108	C	1.692843	0.095989	-0.463867
C109	C	1.142316	-0.356652	-0.922599
C110	C	1.642316	0.143348	-0.422599
C111	C	1.091803	-0.309276	-0.963877
C112	C	1.591803	0.190724	-0.463877
C113	C	1.243350	-0.451392	-0.922583
C114	C	1.743350	0.048608	-0.422583
C115	C	1.243337	-0.451411	-0.840032
C116	C	1.743337	0.048589	-0.340032
C117	C	1.192814	-0.404048	-0.798762
C118	C	1.692814	0.095952	-0.298762
C119	C	1.142299	-0.356669	-0.840045
C120	C	1.642299	0.143331	-0.340045
C121	C	1.091772	-0.309310	-0.798777
C122	C	1.591772	0.190690	-0.298777
C123	C	1.041261	-0.261927	-0.840059
C124	C	1.541261	0.238073	-0.340059
C125	C	1.041280	-0.261913	-0.922607
C126	C	1.541280	0.238087	-0.422607
C127	C	1.192796	-0.404063	-0.716214
C128	C	1.692796	0.095937	-0.216214
C129	C	1.091756	-0.309328	-0.716224
C130	C	1.591756	0.190672	-0.216224
C131	C	1.142212	-0.356800	-0.175555
C132	C	1.642212	0.143200	0.324445
C133	C	1.142347	-0.356617	-0.087698
C134	C	1.642347	0.143383	0.412302
H135	H	0.841222	-0.442600	-0.289002
H136	H	1.341222	0.057400	0.210998
H137	H	0.717359	-0.489918	-0.238395
H138	H	1.217359	0.010082	0.261605
O139	O	1.247269	-0.455165	-0.671692
O140	O	1.747269	0.044835	-0.171692
H141	H	1.238767	-0.447224	-0.607358
H142	H	1.738767	0.052776	-0.107358
O143	O	0.986771	-0.210845	-0.795542
O144	O	1.486771	0.289155	-0.295542
H145	H	0.924727	-0.223532	-0.811361
H146	H	1.424727	0.276468	-0.311361
H147	H	1.272432	-0.919764	-0.360305
H148	H	1.772432	-0.419764	0.139695
O149	O	1.297819	-0.502513	-0.795514
O150	O	1.797819	-0.002513	-0.295514
H151	H	1.289319	-0.494572	-0.731179
H152	H	1.789319	0.005428	-0.231179
O153	O	0.556666	-0.502437	-0.225041
O154	O	1.056666	-0.002437	0.274959
H155	H	0.492339	-0.494502	-0.233571
H156	H	0.992339	0.005498	0.266429
H157	H	1.272325	-0.793032	-0.361277
H158	H	1.772325	-0.293032	0.138723
O159	O	1.297840	-0.502469	-0.967095
O160	O	1.797840	-0.002469	-0.467095
H161	H	1.332954	-0.535424	-0.924524
H162	H	1.832954	-0.035424	-0.424524
H163	H	0.443806	-0.442641	-0.289096
H164	H	0.943806	0.057359	0.210904
H165	H	1.050697	-0.270678	-1.080046
H166	H	1.550697	0.229322	-0.580046
O167	O	0.433106	-0.258509	-0.486243
O168	O	0.933106	0.241491	0.013757
H169	H	0.448969	-0.200370	-0.472796
H170	H	0.948969	0.299630	0.027204
H171	H	0.567867	-0.223700	-0.523470
H172	H	1.067867	0.276300	-0.023470
O173	O	0.999498	-0.927136	-0.423666
O174	O	1.499498	-0.427136	0.076334
H175	H	0.999581	-0.988454	-0.423831
H176	H	1.499581	-0.488454	0.076169
H177	H	1.050614	-0.270758	-0.682629
H178	H	1.550614	0.229242	-0.182629
H179	H	0.717629	-0.223667	-0.523444
H180	H	1.217629	0.276333	-0.023444
O181	O	0.852338	-0.258455	-0.486140
O182	O	1.352338	0.241545	0.013860
H183	H	0.809804	-0.225566	-0.521361
H184	H	1.309804	0.274434	-0.021361
H185	H	1.019105	-0.793062	-0.428104
H186	H	1.519105	-0.293062	0.071896
O187	O	1.179688	-0.786997	-0.237115
O188	O	1.679688	-0.286997	0.262885
H189	H	1.209629	-0.835135	-0.209795
H190	H	1.709629	-0.335135	0.290205
H191	H	1.000155	-0.223337	-0.956226
H192	H	1.500155	0.276663	-0.456226
H193	H	1.095173	-0.792012	-0.503544
H194	H	1.595173	-0.292012	-0.003544
H195	H	1.233987	-0.442557	-1.080018
H196	H	1.733987	0.057443	-0.580018
H197	H	1.057623	-0.919906	-0.280894
H198	H	1.557623	-0.419906	0.219106
H199	H	1.095626	-0.919638	-0.504156
H200	H	1.595626	-0.419638	-0.004156
O201	O	1.249275	-0.787238	-0.484744
O202	O	1.749275	-0.287238	0.015256
H203	H	1.261081	-0.835573	-0.523214
H204	H	1.761081	-0.335573	-0.023214
H205	H	1.060982	-0.792332	-0.276890
H206	H	1.560982	-0.292332	0.223110
H207	H	1.160213	-0.920906	-0.249922
H208	H	1.660213	-0.420906	0.250078
O209	O	1.250173	-0.927750	-0.483438
O210	O	1.750173	-0.427750	0.016562
H211	H	1.203157	-0.964025	-0.507390
H212	H	1.703157	-0.464025	-0.007390
