data_functionalizedCrystal
_audit_creation_method	'MofGen! by Chris Wilmer'
_symmetry_space_group_name_H-M	'P1'
_symmetry_Int_Tables_number	1
_symmetry_cell_setting	triclinic
loop_
_symmetry_equiv_pos_as_xyz
  x,y,z
_cell_length_a	16.625546
_cell_length_b	12.759401
_cell_length_c	12.759401
_cell_angle_alpha	89.998431
_cell_angle_beta	90.014013
_cell_angle_gamma	89.979382
loop_
_atom_site_label
_atom_site_type_symbol
_atom_site_fract_x
_atom_site_fract_y
_atom_site_fract_z
Zn1	Zn	-0.321170	-1.606012	0.593977
Zn2	Zn	-0.455975	-1.605938	0.418283
Zn3	Zn	-0.321156	-1.430369	0.418313
Zn4	Zn	-0.455960	-1.430279	0.593921
O5	O	-0.388565	-1.518149	0.506123
O6	O	-0.339065	-1.753023	0.570681
O7	O	-0.438091	-1.582655	0.271266
O8	O	-0.208325	-1.453738	0.441651
O9	O	-0.438105	-1.752969	0.441600
O10	O	-0.208336	-1.582782	0.570711
O11	O	-0.339040	-1.453665	0.271288
O12	O	-0.339026	-1.283336	0.441597
O13	O	-0.438080	-1.453584	0.740949
O14	O	-0.438066	-1.283270	0.570615
O15	O	-0.339051	-1.582694	0.740990
O16	O	-0.568805	-1.582567	0.441546
O17	O	-0.568795	-1.453512	0.570586
C18	C	-0.388543	-1.245182	0.506104
C19	C	-0.388553	-1.128406	0.506121
C20	C	-0.440204	-1.073536	0.573188
C21	C	-0.440212	-0.963812	0.573198
C22	C	-0.336914	-0.963836	0.439063
C23	C	-0.336903	-1.073558	0.439059
C24	C	-0.499845	-1.073522	0.650627
C25	C	-0.499852	-0.963798	0.650637
C26	C	-0.598056	-1.518050	0.506079
C27	C	-0.687677	-1.518104	0.506096
C28	C	-1.015853	-1.518287	0.506205
C29	C	-0.924544	-1.518233	0.506178
C30	C	-0.851768	-1.518194	0.506150
C31	C	-0.760454	-1.518142	0.506123
C32	C	-0.178256	-1.518278	0.506191
C33	C	-0.088635	-1.518333	0.506219
C34	C	-0.388565	-1.518137	0.780157
C35	C	-0.388565	-1.518132	0.896933
C36	C	-0.388581	-0.792183	0.506139
C37	C	-0.388571	-0.908959	0.506133
C38	C	-0.440138	-1.450922	1.061500
C39	C	-0.440128	-1.450914	0.951776
C40	C	-0.337003	-1.585355	0.951820
C41	C	-0.337009	-1.585358	1.061542
C42	C	-0.499679	-1.373306	1.061474
C43	C	-0.499669	-1.373298	0.951750
C44	C	-0.388583	-1.518150	1.233156
C45	C	-0.388581	-1.518143	1.116379
H46	H	-0.483217	-1.103307	0.732036
H47	H	-0.477297	-1.296010	0.917730
Cl48	Cl	-0.596081	-1.406883	0.905725
H49	H	-0.559125	-1.107535	0.621337
Cl50	Cl	-0.272205	-1.669883	1.130530
Cl51	Cl	-0.473856	-1.247696	1.107465
Cl52	Cl	-0.591267	-1.418251	1.113989
Cl53	Cl	-0.271953	-1.142533	0.354762
H54	H	-0.562277	-0.933998	0.628697
H55	H	-0.477584	-0.929780	0.727990
H56	H	-0.294862	-0.919166	0.384465
Cl57	Cl	-0.272168	-1.669842	0.882874
