data_functionalizedCrystal
_audit_creation_method	'MofGen! by Chris Wilmer'
_symmetry_space_group_name_H-M	'P1'
_symmetry_Int_Tables_number	1
_symmetry_cell_setting	triclinic
loop_
_symmetry_equiv_pos_as_xyz
  x,y,z
_cell_length_a	18.050590
_cell_length_b	18.050590
_cell_length_c	11.169409
_cell_angle_alpha	89.962075
_cell_angle_beta	89.991764
_cell_angle_gamma	90.007719
loop_
_atom_site_label
_atom_site_type_symbol
_atom_site_fract_x
_atom_site_fract_y
_atom_site_fract_z
Zn1	Zn	1.135408	-0.295815	-0.678101
Zn2	Zn	1.135320	-0.420029	-0.477398
Zn3	Zn	1.011208	-0.295834	-0.477478
Zn4	Zn	1.011196	-0.419944	-0.678086
O5	O	1.073283	-0.357906	-0.577766
O6	O	1.239321	-0.312320	-0.651449
O7	O	1.118825	-0.403599	-0.309459
O8	O	1.027725	-0.191907	-0.504131
O9	O	1.239257	-0.403580	-0.503994
O10	O	1.118974	-0.191893	-0.651527
O11	O	1.027640	-0.312353	-0.309518
O12	O	0.907282	-0.312270	-0.504117
O13	O	1.027705	-0.403434	-0.846038
O14	O	0.907273	-0.403453	-0.651502
O15	O	1.118963	-0.312236	-0.846048
O16	O	1.118814	-0.523943	-0.503980
O17	O	1.027620	-0.523880	-0.651424
C18	C	0.880331	-0.357855	-0.577817
C19	C	0.797785	-0.357851	-0.577868
C20	C	0.598352	-0.407578	-0.657826
C21	C	0.548950	-0.339859	-0.687361
C22	C	0.646655	-0.357892	-0.577809
C23	C	0.548975	-0.425651	-0.548273
C24	C	0.500670	-0.357939	-0.577755
C25	C	0.598341	-0.290137	-0.607402
C26	C	0.598370	-0.375975	-0.468262
C27	C	0.548991	-0.308208	-0.497756
C28	C	0.730753	-0.357867	-0.577844
C29	C	0.416573	-0.357956	-0.577720
C30	C	1.073226	-0.550858	-0.577718
C31	C	1.073270	-0.633403	-0.577737
C32	C	1.122964	-0.832861	-0.497669
C33	C	1.141110	-0.882186	-0.607199
C34	C	1.073312	-0.784534	-0.577785
C35	C	1.055241	-0.882291	-0.468305
C36	C	1.073354	-0.930519	-0.577822
C37	C	1.091493	-0.832771	-0.687373
C38	C	1.005593	-0.832872	-0.548405
C39	C	1.023713	-0.882174	-0.658010
C40	C	1.073290	-0.700435	-0.577763
C41	C	1.073376	-1.014615	-0.577857
C42	C	1.266989	-0.357957	-0.577714
C43	C	1.349535	-0.357979	-0.577693
C44	C	1.073343	-0.357823	-0.890808
C45	C	1.073368	-0.357788	-1.024208
C46	C	1.073361	-0.164200	-0.577840
C47	C	1.073394	-0.081654	-0.577871
C48	C	1.073267	-0.357934	-0.265941
C49	C	1.073385	-0.357760	-0.132541
H50	H	0.527454	-0.266162	-0.430066
H51	H	0.527242	-0.324579	-0.779980
C52	C	1.034174	-0.989218	-0.344923
C53	C	1.034581	-0.911653	-0.343299
H54	H	1.021428	-1.007341	-0.267746
H55	H	0.998864	-1.006095	-0.401745
H56	H	1.081959	-1.006819	-0.366362
H57	H	0.986793	-0.894052	-0.321869
H58	H	1.069892	-0.894768	-0.286459
C59	C	1.217467	-0.988994	-0.641548
C60	C	1.218440	-0.911429	-0.640812
H61	H	1.265207	-1.007041	-0.662309
H62	H	1.204295	-1.006680	-0.564315
H63	H	1.182246	-1.005864	-0.698536
H64	H	1.253657	-0.894559	-0.583817
H65	H	1.231621	-0.893736	-0.718056
H66	H	0.619934	-0.232837	-0.632466
H67	H	0.948322	-0.811192	-0.523499
C68	C	1.143139	-0.761000	-0.319810
C69	C	1.179660	-0.803625	-0.406296
H70	H	1.178142	-0.742955	-0.263401
H71	H	1.119093	-0.720417	-0.357521
H72	H	1.107422	-0.790726	-0.279839
H73	H	1.215374	-0.773897	-0.446273
H74	H	1.203718	-0.844213	-0.368581
H75	H	0.620094	-0.391274	-0.375671
C76	C	0.602673	-0.445102	-0.863903
C77	C	0.627622	-0.464200	-0.749269
H78	H	0.620750	-0.480053	-0.920356
H79	H	0.550058	-0.445201	-0.865014
H80	H	0.620304	-0.397104	-0.884088
H81	H	0.609986	-0.512196	-0.729080
H82	H	0.680248	-0.464109	-0.748154
C83	C	1.112070	-0.725971	-0.811249
C84	C	1.112248	-0.803540	-0.812417
H85	H	1.124889	-0.707925	-0.888442
H86	H	1.064104	-0.708681	-0.790247
H87	H	1.147105	-0.708701	-0.754276
H88	H	1.077208	-0.820810	-0.869383
H89	H	1.160220	-0.820837	-0.833433
H90	H	0.981742	-0.903690	-0.725856
H91	H	0.527287	-0.482933	-0.523316
