data_functionalizedCrystal
_audit_creation_method	'MofGen! by Chris Wilmer'
_symmetry_space_group_name_H-M	'P1'
_symmetry_Int_Tables_number	1
_symmetry_cell_setting	triclinic
loop_
_symmetry_equiv_pos_as_xyz
  x,y,z
_cell_length_a	14.519731
_cell_length_b	15.944499
_cell_length_c	13.596369
_cell_angle_alpha	89.997258
_cell_angle_beta	89.994584
_cell_angle_gamma	83.583231
loop_
_atom_site_label
_atom_site_type_symbol
_atom_site_fract_x
_atom_site_fract_y
_atom_site_fract_z
O1	O	1.223641	0.110197	-0.081786
O2	O	1.556974	0.443530	0.251547
O3	O	1.890308	0.776863	0.584880
O4	O	0.955142	0.123145	-0.081787
O5	O	1.288475	0.456478	0.251546
O6	O	1.621808	0.789812	0.584880
O7	O	1.096748	-0.005596	-0.081788
O8	O	1.430082	0.327738	0.251545
O9	O	1.763415	0.661071	0.584879
O10	O	1.082034	0.238938	-0.081785
O11	O	1.415368	0.572271	0.251548
O12	O	1.748701	0.905604	0.584882
O13	O	1.096734	-0.005603	0.081795
O14	O	1.430068	0.327731	0.415128
O15	O	1.763401	0.661064	0.748461
O16	O	0.955128	0.123138	0.081796
O17	O	1.288461	0.456472	0.415129
O18	O	1.621794	0.789805	0.748463
O19	O	1.223627	0.110190	0.081797
O20	O	1.556960	0.443523	0.415130
O21	O	1.890294	0.776857	0.748463
Zn22	Zn	1.089375	0.116663	0.107769
Zn23	Zn	1.422708	0.449996	0.441102
Zn24	Zn	1.756042	0.783330	0.774435
Zn25	Zn	1.089394	0.116672	-0.107759
Zn26	Zn	1.422727	0.450005	0.225575
Zn27	Zn	1.756060	0.783339	0.558908
O28	O	1.082020	0.238931	0.081798
O29	O	1.415354	0.572264	0.415131
O30	O	1.748687	0.905597	0.748465
C31	C	0.920776	0.122535	0.000004
C32	C	1.254110	0.455868	0.333338
C33	C	1.587443	0.789202	0.666671
C34	C	0.818400	0.120717	0.000004
C35	C	1.151733	0.454050	0.333337
C36	C	1.485066	0.787384	0.666671
C37	C	0.735258	0.119240	-0.000000
C38	C	1.068592	0.452573	0.333333
C39	C	1.401925	0.785906	0.666667
C40	C	0.630953	0.117394	-0.000001
C41	C	0.964287	0.450727	0.333333
C42	C	1.297620	0.784060	0.666666
C43	C	0.547817	0.115929	-0.000000
C44	C	0.881150	0.449262	0.333333
C45	C	1.214484	0.782595	0.666666
C46	C	0.443505	0.114083	-0.000003
C47	C	0.776839	0.447416	0.333331
C48	C	1.110172	0.780750	0.666664
C49	C	1.096139	-0.036895	0.000001
C50	C	1.429472	0.296439	0.333334
C51	C	1.762806	0.629772	0.666667
C52	C	1.094333	-0.130146	-0.000007
C53	C	1.427666	0.203188	0.333327
C54	C	1.761000	0.536521	0.666660
C55	C	1.176603	-0.421557	-0.000001
C56	C	1.509936	-0.088223	0.333332
C57	C	1.843269	0.245110	0.666666
C58	C	1.133830	-0.360600	0.080657
C59	C	1.467163	-0.027267	0.413991
C60	C	1.800496	0.306067	0.747324
C61	C	1.087771	-0.465792	0.000005
C62	C	1.421105	-0.132459	0.333338
C63	C	1.754438	0.200874	0.666671
C64	C	1.133820	-0.360599	-0.080623
C65	C	1.467153	-0.027266	0.252711
C66	C	1.800487	0.306067	0.586044
C67	C	1.091000	-0.300879	-0.000002
C68	C	1.424333	0.032455	0.333331
C69	C	1.757667	0.365788	0.666664
C70	C	1.044974	-0.406064	0.080730
C71	C	1.378307	-0.072730	0.414063
C72	C	1.711641	0.260603	0.747396
C73	C	1.044976	-0.406069	-0.080623
C74	C	1.378310	-0.072736	0.252711
C75	C	1.711643	0.260597	0.586044
C76	C	1.002139	-0.345130	0.000055
C77	C	1.335472	-0.011797	0.333389
C78	C	1.668806	0.321536	0.666722
C79	C	1.085914	-0.560795	0.000010
C80	C	1.419247	-0.227462	0.333343
C81	C	1.752581	0.105871	0.666677
C82	C	1.092851	-0.205877	-0.000000
C83	C	1.426184	0.127456	0.333333
C84	C	1.759517	0.460790	0.666666
C85	C	1.257992	0.110800	0.000003
C86	C	1.591326	0.444133	0.333337
C87	C	1.924659	0.777467	0.666670
C88	C	1.360369	0.112618	-0.000003
C89	C	1.693702	0.445951	0.333331
C90	C	2.027036	0.779285	0.666664
C91	C	1.082630	0.270230	0.000007
C92	C	1.415963	0.603563	0.333340
C93	C	1.749296	0.936896	0.666674
C94	C	1.084436	0.363481	0.000008
C95	C	1.417769	0.696814	0.333341
C96	C	1.751102	1.030147	0.666675
N97	N	1.089369	0.116656	0.254861
N98	N	1.422702	0.449990	0.588194
N99	N	1.756036	0.783323	0.921527
N100	N	1.089407	0.116672	-0.254851
N101	N	1.422740	0.450005	0.078483
N102	N	1.756074	0.783339	0.411816
C103	C	1.089392	0.116673	0.656151
C104	C	1.422726	0.450006	0.989485
C105	C	1.756059	0.783340	1.322818
C106	C	1.089383	0.116671	0.544500
C107	C	1.422717	0.450004	0.877833
C108	C	1.756050	0.783338	1.211167
C109	C	1.089381	0.116665	0.455510
C110	C	1.422715	0.449999	0.788843
C111	C	1.756048	0.783332	1.122176
C112	C	1.089371	0.116662	0.343851
C113	C	1.422704	0.449996	0.677184
C114	C	1.756038	0.783329	1.010518
H115	H	1.171397	-0.340455	0.148846
H116	H	1.504731	-0.007122	0.482180
H117	H	1.838064	0.326212	0.815513
H118	H	0.928354	-0.312060	0.000102
H119	H	1.261687	0.021273	0.333436
H120	H	1.595021	0.354606	0.666769
H121	H	1.007426	-0.426105	0.148991
H122	H	1.340760	-0.092772	0.482325
H123	H	1.674093	0.240561	0.815658
H124	H	1.007441	-0.426236	-0.148815
H125	H	1.340774	-0.092903	0.184519
H126	H	1.674107	0.240430	0.517852
H127	H	1.171413	-0.340459	-0.148807
H128	H	1.504747	-0.007126	0.184527
H129	H	1.838080	0.326208	0.517860
H130	H	1.250324	-0.454774	0.000076
H131	H	1.583657	-0.121441	0.333410
H132	H	1.916990	0.211892	0.666743
