data_functionalizedCrystal
_audit_creation_method	'MofGen! by Chris Wilmer'
_symmetry_space_group_name_H-M	'P1'
_symmetry_Int_Tables_number	1
_symmetry_cell_setting	triclinic
loop_
_symmetry_equiv_pos_as_xyz
  x,y,z
_cell_length_a	10.654550
_cell_length_b	9.730223
_cell_length_c	10.654549
_cell_angle_alpha	89.998008
_cell_angle_beta	95.515146
_cell_angle_gamma	90.000242
loop_
_atom_site_label
_atom_site_type_symbol
_atom_site_fract_x
_atom_site_fract_y
_atom_site_fract_z
O1	O	1.667839	0.114184	-0.176396
O2	O	2.167839	0.614184	0.323604
O3	O	1.302361	0.114209	-0.193202
O4	O	1.802361	0.614209	0.306798
O5	O	1.493503	0.114190	-0.002060
O6	O	1.993503	0.614190	0.497940
O7	O	1.476697	0.114203	-0.367538
O8	O	1.976697	0.614203	0.132462
O9	O	1.493490	-0.114390	-0.002060
O10	O	1.993490	0.385610	0.497940
O11	O	1.302347	-0.114371	-0.193202
O12	O	1.802347	0.385629	0.306798
O13	O	1.667826	-0.114396	-0.176396
O14	O	2.167826	0.385604	0.323604
Zn15	Zn	1.485084	-0.150675	-0.184799
Zn16	Zn	1.985084	0.349325	0.315201
Zn17	Zn	1.485102	0.150489	-0.184799
Zn18	Zn	1.985102	0.650489	0.315201
O19	O	1.476683	-0.114377	-0.367538
O20	O	1.976683	0.385623	0.132462
C21	C	1.255556	-0.000078	-0.191968
C22	C	1.755556	0.499922	0.308032
C23	C	1.116113	-0.000068	-0.188276
C24	C	1.616113	0.499932	0.311724
C25	C	1.036627	-0.000068	-0.300818
C26	C	1.536627	0.499932	0.199182
C27	C	0.905606	-0.000092	-0.297341
C28	C	1.405606	0.499908	0.202659
C29	C	0.933570	-0.000111	-0.068772
C30	C	1.433570	0.499889	0.431228
C31	C	1.064588	-0.000096	-0.072250
C32	C	1.564588	0.499904	0.427750
N33	N	1.485081	-0.356212	-0.184798
N34	N	1.985081	0.143788	0.315202
C35	C	1.561913	-0.428135	-0.261680
C36	C	2.061913	0.071865	0.238320
C37	C	1.561933	-0.572018	-0.261673
C38	C	2.061933	-0.072018	0.238327
C39	C	1.408281	-0.572041	-0.107899
C40	C	1.908281	-0.072041	0.392101
C41	C	1.408268	-0.428161	-0.107900
C42	C	1.908268	0.071839	0.392100
C43	C	1.714631	-0.000106	-0.177630
C44	C	2.214631	0.499894	0.322370
C45	C	1.854074	-0.000106	-0.181322
C46	C	2.354074	0.499894	0.318678
C47	C	1.492263	-0.000098	0.044738
C48	C	1.992263	0.499902	0.544738
C49	C	1.488571	-0.000094	0.184181
C50	C	1.988571	0.499906	0.684181
N51	N	1.485115	0.356025	-0.184790
N52	N	1.985115	0.856025	0.315210
C53	C	1.477924	-0.000086	-0.414336
C54	C	1.977924	0.499914	0.085664
C55	C	1.481616	-0.000081	-0.553780
C56	C	1.981616	0.499919	-0.053780
C57	C	1.597634	-0.000092	0.394696
C58	C	2.097634	0.499908	0.894696
C59	C	1.601113	-0.000103	0.263676
C60	C	2.101113	0.499897	0.763676
C61	C	1.372543	-0.000087	0.235714
C62	C	1.872543	0.499913	0.735714
C63	C	1.369066	-0.000086	0.366732
C64	C	1.869066	0.499914	0.866732
H65	H	0.891602	-0.000142	0.025693
H66	H	1.391602	0.499858	0.525693
Cl67	Cl	1.311711	-0.662502	-0.011243
Cl68	Cl	1.811711	-0.162502	0.488757
Cl69	Cl	0.805686	-0.000094	-0.438829
Cl70	Cl	1.305686	0.499906	0.061171
H71	H	1.280910	-0.000088	0.170979
H72	H	1.780910	0.499912	0.670979
H73	H	1.129309	-0.000100	0.019401
H74	H	1.629309	0.499900	0.519401
Cl75	Cl	1.223202	-0.000081	0.431510
Cl76	Cl	1.723202	0.499919	0.931510
Cl77	Cl	1.658488	-0.337690	-0.358342
Cl78	Cl	2.158488	0.162310	0.141658
H79	H	1.078574	-0.000056	-0.395294
H80	H	1.578574	0.499944	0.104706
H81	H	1.624499	-0.630572	-0.324277
H82	H	2.124499	-0.130572	0.175723
H83	H	1.689280	-0.000088	0.459413
H84	H	2.189280	0.499912	0.959413
H85	H	1.345701	-0.369599	-0.045287
H86	H	1.845701	0.130401	0.454713
Cl87	Cl	1.746972	-0.000111	0.198908
Cl88	Cl	2.246972	0.499889	0.698908
