data_functionalizedCrystal
_audit_creation_method	'MofGen! by Chris Wilmer'
_symmetry_space_group_name_H-M	'P1'
_symmetry_Int_Tables_number	1
_symmetry_cell_setting	triclinic
loop_
_symmetry_equiv_pos_as_xyz
  x,y,z
_cell_length_a	14.044220
_cell_length_b	14.853569
_cell_length_c	13.330367
_cell_angle_alpha	89.994419
_cell_angle_beta	89.994700
_cell_angle_gamma	88.412221
loop_
_atom_site_label
_atom_site_type_symbol
_atom_site_fract_x
_atom_site_fract_y
_atom_site_fract_z
O1	O	0.123774	1.206174	-0.083380
O2	O	0.138516	0.944883	-0.083393
O3	O	-0.006845	1.071607	-0.083377
O4	O	0.269135	1.079451	-0.083396
O5	O	-0.006848	1.071586	0.083471
O6	O	0.138513	0.944863	0.083455
O7	O	0.123771	1.206154	0.083467
Cu8	Cu	0.131141	1.075506	0.098695
Cu9	Cu	0.131145	1.075531	-0.098621
O10	O	0.269131	1.079430	0.083451
C11	C	0.137846	0.911231	0.000030
C12	C	0.135844	0.810989	0.000025
C13	C	0.048557	0.767697	0.000028
C14	C	0.221249	0.760089	0.000027
C15	C	0.219371	0.665906	0.000028
C16	C	0.132084	0.622614	0.000031
C17	C	0.046675	0.673505	0.000032
C18	C	0.304778	0.615009	0.000037
C19	C	0.302903	0.520820	0.000039
C20	C	0.215615	0.477526	0.000035
C21	C	0.130203	0.528423	0.000035
C22	C	0.042916	0.485131	0.000038
C23	C	-0.042497	0.536026	0.000031
C24	C	-0.040613	0.630211	0.000027
C25	C	0.213730	0.383340	0.000038
C26	C	0.041034	0.390939	0.000042
C27	C	-0.042165	1.068163	0.000047
C28	C	-0.147405	1.057921	0.000048
C29	C	-0.340091	1.039197	0.000033
C30	C	-0.397628	1.111836	0.000033
C31	C	-0.504845	1.101417	0.000025
C32	C	-0.232864	1.049614	0.000041
C33	C	0.304452	1.082874	0.000025
C34	C	0.409691	1.093116	0.000018
C35	C	0.124440	1.239806	0.000043
C36	C	0.126443	1.340048	0.000041
N37	N	0.131138	1.075496	0.237477
N38	N	0.131141	1.075547	-0.237402
C39	C	0.195486	1.019413	0.710093
C40	C	0.066797	1.131672	0.710075
C41	C	0.066794	1.131662	0.605056
C42	C	0.131139	1.075527	0.552551
C43	C	0.195487	1.019402	0.605065
C44	C	0.002455	1.187792	0.552535
C45	C	0.002450	1.187784	0.447510
C46	C	0.066791	1.131644	0.395004
C47	C	0.131140	1.075517	0.447523
C48	C	0.195485	1.019382	0.395018
C49	C	0.259830	0.963249	0.447536
C50	C	0.259828	0.963262	0.552558
C51	C	0.066793	1.131631	0.289982
C52	C	0.195486	1.019372	0.289990
H53	H	-0.113567	0.500765	0.000026
H54	H	-0.371353	0.969190	0.000027
F55	F	-0.356767	1.203348	0.000045
H56	H	-0.030046	0.355698	0.000039
F57	F	0.393806	0.466662	0.000041
H58	H	0.283272	0.341906	0.000052
H59	H	0.375842	0.650264	0.000041
H60	H	0.247880	0.973656	0.247247
H61	H	-0.049929	1.233500	0.595288
F62	F	0.328314	0.903514	0.391645
F63	F	-0.066033	1.247522	0.391624
F64	F	0.328306	0.903528	0.608454
H65	H	0.247873	0.973707	0.752855
F66	F	-0.001674	1.191418	0.765954
H67	H	-0.020984	0.809140	0.000018
H68	H	0.014408	1.177338	0.247227
H69	H	-0.110151	0.671658	0.000024
F70	F	0.314141	0.806166	0.000027
