data_functionalizedCrystal
_audit_creation_method	'MofGen! by Chris Wilmer'
_symmetry_space_group_name_H-M	'P1'
_symmetry_Int_Tables_number	1
_symmetry_cell_setting	triclinic
loop_
_symmetry_equiv_pos_as_xyz
  x,y,z
_cell_length_a	21.295420
_cell_length_b	21.295417
_cell_length_c	21.295411
_cell_angle_alpha	89.978356
_cell_angle_beta	89.975307
_cell_angle_gamma	90.028757
loop_
_atom_site_label
_atom_site_type_symbol
_atom_site_fract_x
_atom_site_fract_y
_atom_site_fract_z
Zn1	Zn	0.962355	-0.250710	-0.355914
Zn2	Zn	0.962258	-0.355962	-0.250639
Zn3	Zn	0.857079	-0.250708	-0.250658
Zn4	Zn	0.857048	-0.355942	-0.355870
O5	O	0.909685	-0.303331	-0.303270
O6	O	1.050432	-0.264682	-0.341959
O7	O	0.948277	-0.342007	-0.162552
O8	O	0.871097	-0.162619	-0.264647
O9	O	1.050360	-0.342010	-0.264614
O10	O	0.948444	-0.162621	-0.341977
O11	O	0.871003	-0.264677	-0.162566
O12	O	0.768985	-0.264658	-0.264605
O13	O	0.871045	-0.341976	-0.443966
O14	O	0.768963	-0.341973	-0.341904
O15	O	0.948414	-0.264662	-0.443997
O16	O	0.948248	-0.444049	-0.264572
O17	O	0.870951	-0.444034	-0.341885
C18	C	0.746133	-0.303314	-0.303252
C19	C	0.676165	-0.303321	-0.303260
C20	C	0.909602	-0.466882	-0.303236
C21	C	0.909625	-0.536850	-0.303242
C22	C	0.176712	-0.343663	-0.343481
C23	C	0.242454	-0.343663	-0.343474
C24	C	0.275326	-0.303345	-0.303290
C25	C	0.242449	-0.263035	-0.263098
C26	C	0.176708	-0.263040	-0.263102
N27	N	0.378566	-0.248227	-0.298558
N28	N	0.441018	-0.248224	-0.298558
C29	C	0.473400	-0.303327	-0.303277
N30	N	0.440972	-0.358435	-0.308007
N31	N	0.378515	-0.358438	-0.308010
C32	C	0.346611	-0.303335	-0.303282
C33	C	0.577555	-0.343638	-0.343456
C34	C	0.643298	-0.343639	-0.343445
C35	C	0.643292	-0.263005	-0.263072
C36	C	0.577549	-0.263010	-0.263080
C37	C	0.544685	-0.303325	-0.303275
C38	C	0.949909	-0.569704	-0.263026
C39	C	0.949939	-0.635446	-0.263040
C40	C	0.909672	-0.668333	-0.303263
C41	C	0.869385	-0.635472	-0.343487
C42	C	0.869361	-0.569730	-0.343476
N43	N	0.854605	-0.771598	-0.308056
N44	N	0.854630	-0.834049	-0.308063
C45	C	0.909743	-0.866407	-0.303299
N46	N	0.964832	-0.833955	-0.298517
N47	N	0.964807	-0.771498	-0.298507
C48	C	0.909694	-0.739618	-0.303280
C49	C	0.950063	-0.970546	-0.263097
C50	C	0.950093	-1.036290	-0.263116
C51	C	0.869534	-1.036314	-0.343559
C52	C	0.869509	-0.970572	-0.343544
C53	C	0.909773	-0.937692	-0.303309
C54	C	1.073875	-0.303348	-0.303289
C55	C	1.143843	-0.303356	-0.303297
C56	C	0.909737	-0.303317	-0.467461
C57	C	0.909759	-0.303312	-0.537429
C58	C	0.909785	-0.139140	-0.303319
C59	C	0.909827	-0.069172	-0.303340
C60	C	0.950044	-0.263053	-0.570313
C61	C	0.950043	-0.263025	-0.636056
C62	C	0.909764	-0.303268	-0.668911
C63	C	0.869472	-0.343530	-0.636019
C64	C	0.869470	-0.343552	-0.570278
N65	N	0.904908	-0.358336	-0.772127
N66	N	0.904914	-0.358314	-0.834578
C67	C	0.909768	-0.303204	-0.866986
N68	N	0.914629	-0.248117	-0.834584
N69	N	0.914626	-0.248141	-0.772126
C70	C	0.909762	-0.303249	-0.740197
C71	C	0.950054	-0.262913	-0.971156
C72	C	0.950048	-0.262884	-1.036900
C73	C	0.869481	-0.343395	-1.036862
C74	C	0.869483	-0.343417	-0.971120
C75	C	0.909773	-0.303177	-0.938271
C76	C	0.909669	-0.303298	-0.139719
C77	C	0.909769	-0.303127	-0.069751
H78	H	0.269221	-0.376486	-0.376199
N79	N	0.826033	-0.386849	-0.935659
H80	H	0.851591	-0.416036	-0.908391
H81	H	0.796880	-0.361231	-0.908411
H82	H	0.982745	-0.662201	-0.230292
N83	N	0.542109	-0.387128	-0.386801
H84	H	0.514806	-0.416264	-0.361168
H85	H	0.514896	-0.361548	-0.416017
H86	H	0.269217	-0.230208	-0.230379
H87	H	0.836679	-0.376155	-1.063613
N88	N	0.141252	-0.219565	-0.219758
H89	H	0.172049	-0.194024	-0.194297
H90	H	0.114001	-0.190471	-0.245436
N91	N	0.993501	-0.219607	-0.671532
H92	H	0.987389	-0.225702	-0.718163
H93	H	0.983738	-0.174650	-0.660043
H94	H	0.836663	-0.376335	-0.543504
H95	H	0.982695	-0.542935	-0.230266
N96	N	0.825904	-0.534289	-0.386845
H97	H	0.851459	-0.506972	-0.416035
H98	H	0.800407	-0.565134	-0.412289
N99	N	0.542099	-0.219525	-0.219743
H100	H	0.514848	-0.190393	-0.245380
H101	H	0.514834	-0.245110	-0.190533
N102	N	0.678753	-0.387121	-0.386783
H103	H	0.647955	-0.412659	-0.412245
H104	H	0.706058	-0.361537	-0.415956
N105	N	0.993504	-0.219512	-0.935720
H106	H	1.019021	-0.193999	-0.966531
H107	H	0.967898	-0.190388	-0.908432
N108	N	0.825956	-0.670937	-0.386873
H109	H	0.832082	-0.717570	-0.380776
H110	H	0.781000	-0.659489	-0.377033
N111	N	0.678736	-0.219523	-0.219724
H112	H	0.725371	-0.225636	-0.225818
H113	H	0.667270	-0.174580	-0.229602
N114	N	0.993488	-0.935077	-0.219706
H115	H	1.019017	-0.965868	-0.194234
H116	H	1.022595	-0.907758	-0.245350
H117	H	0.982902	-1.063038	-0.230368
H118	H	0.836703	-0.943821	-0.376289
H119	H	0.982850	-0.230285	-0.543571
N120	N	0.826108	-1.071775	-0.386949
H121	H	0.832237	-1.118408	-0.380856
H122	H	0.781150	-1.060330	-0.377109
H123	H	0.836675	-0.376294	-0.662775
N124	N	0.993503	-0.219455	-1.072361
H125	H	1.022658	-0.245030	-1.099651
H126	H	0.967899	-0.190273	-1.099589
N127	N	0.141265	-0.387154	-0.386822
H128	H	0.172067	-0.412693	-0.412274
H129	H	0.113970	-0.416250	-0.361138
