data_functionalizedCrystal
_audit_creation_method	'MofGen! by Chris Wilmer'
_symmetry_space_group_name_H-M	'P1'
_symmetry_Int_Tables_number	1
_symmetry_cell_setting	triclinic
loop_
_symmetry_equiv_pos_as_xyz
  x,y,z
_cell_length_a	23.532361
_cell_length_b	22.010155
_cell_length_c	14.044220
_cell_angle_alpha	90.004453
_cell_angle_beta	88.009273
_cell_angle_gamma	90.011417
loop_
_atom_site_label
_atom_site_type_symbol
_atom_site_fract_x
_atom_site_fract_y
_atom_site_fract_z
O1	O	0.761508	0.050466	0.114795
O2	O	1.261508	0.550466	0.614795
O3	O	0.596546	0.050480	0.131482
O4	O	1.096546	0.550480	0.631482
O5	O	0.676551	0.050467	-0.014822
O6	O	1.176551	0.550467	0.485178
O7	O	0.681503	0.050479	0.261099
O8	O	1.181503	0.550479	0.761099
O9	O	0.676525	-0.050583	-0.014822
O10	O	1.176525	0.449417	0.485178
O11	O	0.596519	-0.050570	0.131482
O12	O	1.096519	0.449430	0.631482
O13	O	0.761482	-0.050585	0.114795
O14	O	1.261482	0.449415	0.614795
Cu15	Cu	0.678998	-0.059804	0.123139
Cu16	Cu	1.178998	0.440196	0.623139
Cu17	Cu	0.679029	0.059700	0.123139
Cu18	Cu	1.179029	0.559700	0.623139
O19	O	0.681477	-0.050572	0.261099
O20	O	1.181477	0.449428	0.761099
C21	C	0.575293	-0.000043	0.131064
C22	C	1.075293	0.499957	0.631064
C23	C	0.512007	-0.000038	0.129808
C24	C	1.012007	0.499962	0.629808
N25	N	0.678980	-0.143857	0.123138
N26	N	1.178980	0.356143	0.623138
C27	C	0.238479	0.055041	0.124313
C28	C	0.738479	0.555041	0.624313
C29	C	0.297944	0.055043	0.125502
C30	C	0.797944	0.555043	0.625502
O31	O	0.328713	0.101887	0.126084
O32	O	0.828713	0.601887	0.626084
N33	N	0.327668	-0.000040	0.126103
N34	N	0.827668	0.499960	0.626103
C35	C	0.297924	-0.055128	0.125504
C36	C	0.797924	0.444872	0.625504
O37	O	0.328667	-0.101980	0.126124
O38	O	0.828667	0.398020	0.626124
C39	C	0.238461	-0.055129	0.124308
C40	C	0.738461	0.444871	0.624308
C41	C	0.208740	-0.000043	0.123717
C42	C	0.708740	0.499957	0.623717
C43	C	0.208758	0.110123	0.123720
C44	C	0.708758	0.610123	0.623720
C45	C	0.149298	0.110121	0.122533
C46	C	0.649298	0.610121	0.622533
C47	C	0.119559	0.055037	0.121938
C48	C	0.619559	0.555037	0.621938
C49	C	0.149280	-0.000044	0.122530
C50	C	0.649280	0.499956	0.622530
C51	C	0.208720	-0.110216	0.123703
C52	C	0.708720	0.389784	0.623703
C53	C	0.149253	-0.110212	0.122506
C54	C	0.649253	0.389788	0.622506
C55	C	0.119532	-0.055126	0.121915
C56	C	0.619532	0.444874	0.621915
C57	C	0.060081	-0.055130	0.120747
C58	C	0.560081	0.444870	0.620747
N59	N	0.030357	-0.000047	0.120146
N60	N	0.530357	0.499953	0.620146
C61	C	0.060096	0.055037	0.120742
C62	C	0.560096	0.555037	0.620742
C63	C	0.422801	-0.055122	0.128015
C64	C	0.922801	0.444878	0.628015
C65	C	0.482262	-0.055122	0.129217
C66	C	0.982262	0.444878	0.629217
C67	C	0.482278	0.055049	0.129213
C68	C	0.982278	0.555049	0.629213
C69	C	0.422815	0.055048	0.128017
C70	C	0.922815	0.555048	0.628017
C71	C	0.393077	-0.000039	0.127414
C72	C	0.893077	0.499961	0.627414
C73	C	-0.064774	0.055029	0.118249
C74	C	0.435226	0.555029	0.618249
C75	C	-0.124240	0.055022	0.117065
C76	C	0.375760	0.555022	0.617065
C77	C	-0.124250	-0.055148	0.117064
C78	C	0.375750	0.444852	0.617064
C79	C	-0.064790	-0.055142	0.118253
C80	C	0.435210	0.444858	0.618253
C81	C	-0.035053	-0.000049	0.118842
C82	C	0.464947	0.499951	0.618842
O83	O	0.029274	-0.101950	0.120160
O84	O	0.529274	0.398050	0.620160
O85	O	0.029347	0.101881	0.120110
O86	O	0.529347	0.601881	0.620110
C87	C	0.716473	-0.563637	0.180289
C88	C	1.216473	-0.063637	0.680289
C89	C	0.716480	-0.627244	0.180286
C90	C	1.216480	-0.127244	0.680286
O91	O	0.748337	-0.660137	0.228872
O92	O	1.248337	-0.160137	0.728872
N93	N	0.679040	-0.659064	0.123128
N94	N	1.179040	-0.159064	0.623128
C95	C	0.641595	-0.627272	0.065961
C96	C	1.141595	-0.127272	0.565961
O97	O	0.609750	-0.660178	0.017342
O98	O	1.109750	-0.160178	0.517342
C99	C	0.641592	-0.563666	0.065959
C100	C	1.141592	-0.063666	0.565959
C101	C	0.679030	-0.531850	0.123128
C102	C	1.179030	-0.031850	0.623128
C103	C	0.753909	-0.531821	0.237453
C104	C	1.253909	-0.031821	0.737453
C105	C	0.753902	-0.468218	0.237456
C106	C	1.253902	0.031782	0.737456
C107	C	0.716458	-0.436430	0.180296
C108	C	1.216458	0.063570	0.680296
C109	C	0.679023	-0.468246	0.123132
C110	C	1.179023	0.031754	0.623132
C111	C	0.604150	-0.531875	0.008787
C112	C	1.104150	-0.031875	0.508787
C113	C	0.604150	-0.468265	0.008789
C114	C	1.104150	0.031735	0.508789
C115	C	0.641588	-0.436449	0.065959
C116	C	1.141588	0.063551	0.565959
C117	C	0.641572	-0.372856	0.065975
C118	C	1.141572	0.127144	0.565975
N119	N	0.679012	-0.341037	0.123133
N120	N	1.179012	0.158963	0.623133
C121	C	0.716455	-0.372824	0.180294
C122	C	1.216455	0.127176	0.680294
C123	C	0.641605	-0.760850	0.065968
C124	C	1.141605	-0.260850	0.565968
C125	C	0.641606	-0.824455	0.065975
C126	C	1.141606	-0.324455	0.565975
C127	C	0.716492	-0.824423	0.180299
C128	C	1.216492	-0.324423	0.680299
C129	C	0.716488	-0.760817	0.180297
C130	C	1.216488	-0.260817	0.680297
C131	C	0.679045	-0.729031	0.123127
C132	C	1.179045	-0.229031	0.623127
C133	C	0.716436	-0.239253	0.180297
C134	C	1.216436	0.260747	0.680297
C135	C	0.716424	-0.175644	0.180299
C136	C	1.216424	0.324356	0.680299
C137	C	0.641540	-0.175681	0.065971
C138	C	1.141540	0.324319	0.565971
C139	C	0.641550	-0.239285	0.065973
C140	C	1.141550	0.260715	0.565973
C141	C	0.679003	-0.271069	0.123139
C142	C	1.179003	0.228931	0.623139
O143	O	0.609733	-0.339924	0.017411
O144	O	1.109733	0.160076	0.517411
O145	O	0.748300	-0.339911	0.228895
O146	O	1.248300	0.160089	0.728895
C147	C	0.782734	-0.000060	0.115213
C148	C	1.282734	0.499940	0.615213
C149	C	0.846021	-0.000062	0.116470
C150	C	1.346021	0.499938	0.616470
C151	C	0.674370	-0.000058	-0.050115
C152	C	1.174370	0.499942	0.449885
C153	C	0.667904	-0.000058	-0.155278
C154	C	1.167904	0.499942	0.344722
N155	N	0.679051	0.143752	0.123132
N156	N	1.179051	0.643752	0.623132
C157	C	0.656083	-0.000049	-0.347825
C158	C	1.156083	0.499951	0.152175
C159	C	0.701942	-0.000051	-0.405903
C160	C	1.201942	0.499949	0.094097
C161	C	0.695365	-0.000045	-0.513043
C162	C	1.195365	0.499955	-0.013043
C163	C	0.662659	-0.000054	-0.240675
C164	C	1.162659	0.499946	0.259325
C165	C	0.683658	-0.000045	0.296393
C166	C	1.183658	0.499955	0.796393
C167	C	0.690124	-0.000041	0.401556
C168	C	1.190124	0.499959	0.901556
H169	H	-0.148436	0.099882	0.116587
H170	H	0.351564	0.599882	0.616587
H171	H	0.611885	-0.000043	-0.378566
H172	H	1.111885	0.499957	0.121434
C173	C	0.726476	-0.310765	0.307701
C174	C	1.226476	0.189235	0.807701
C175	C	0.757601	-0.274185	0.243138
C176	C	1.257601	0.225815	0.743138
H177	H	0.751888	-0.332333	0.346493
H178	H	1.251888	0.167667	0.846493
H179	H	0.702249	-0.285958	0.346742
H180	H	1.202249	0.214042	0.846742
H181	H	0.704187	-0.338821	0.273648
H182	H	1.204187	0.161179	0.773648
H183	H	0.779887	-0.246126	0.277190
H184	H	1.279887	0.253874	0.777190
H185	H	0.781838	-0.298995	0.204091
H186	H	1.281838	0.201005	0.704091
H187	H	0.611110	-0.734974	0.019416
H188	H	1.111110	-0.234974	0.519416
C189	C	0.594114	-0.396747	-0.118617
C190	C	1.094114	0.103253	0.381383
C191	C	0.562989	-0.433326	-0.054053
C192	C	1.062989	0.066674	0.445947
H193	H	0.568702	-0.375182	-0.157414
H194	H	1.068702	0.124818	0.342586
H195	H	0.616402	-0.368695	-0.084573
H196	H	1.116402	0.131305	0.415427
H197	H	0.618342	-0.421560	-0.157664
H198	H	1.118342	0.078440	0.342336
H199	H	0.538763	-0.408513	-0.015002
H200	H	1.038763	0.091487	0.484998
H201	H	0.540691	-0.461382	-0.088100
H202	H	1.040691	0.038618	0.411900
C203	C	0.830758	-0.396664	0.242717
C204	C	1.330758	0.103336	0.742717
C205	C	0.795056	-0.433246	0.300293
C206	C	1.295056	0.066754	0.800293
H207	H	0.856163	-0.375074	0.281514
H208	H	1.356163	0.124926	0.781514
H209	H	0.851870	-0.421473	0.198920
H210	H	1.351870	0.078527	0.698920
H211	H	0.808452	-0.368628	0.208681
H212	H	1.308452	0.131372	0.708681
H213	H	0.817361	-0.461285	0.334324
H214	H	1.317361	0.038715	0.834324
H215	H	0.773942	-0.408434	0.344107
H216	H	1.273942	0.091566	0.844107
C217	C	0.358200	-0.119059	0.045220
C218	C	0.858200	0.380941	0.545220
C219	C	0.390117	-0.115681	0.127362
C220	C	0.890117	0.384319	0.627362
H221	H	0.338028	-0.156447	0.044814
H222	H	0.838028	0.343553	0.544814
H223	H	0.331985	-0.086263	0.044699
H224	H	0.831985	0.413737	0.544699
H225	H	0.382944	-0.116766	-0.009562
H226	H	0.882944	0.383234	0.490438
H227	H	0.365373	-0.117969	0.182144
H228	H	0.865373	0.382031	0.682144
H229	H	0.416335	-0.148486	0.127892
H230	H	0.916335	0.351514	0.627892
H231	H	0.746974	-0.734916	0.226850
H232	H	1.246974	-0.234916	0.726850
C233	C	0.768206	0.051875	-0.308280
C234	C	1.268206	0.551875	0.191720
C235	C	0.761614	-0.000065	-0.364409
C236	C	1.261614	0.499935	0.135591
H237	H	0.805042	0.051861	-0.282657
H238	H	1.305042	0.551861	0.217343
H239	H	0.763756	0.087110	-0.346342
H240	H	1.263756	0.587110	0.153658
H241	H	0.740294	0.051872	-0.257763
H242	H	1.240294	0.551872	0.242237
H243	H	0.789523	-0.000059	-0.414930
H244	H	1.289523	0.499941	0.085070
H245	H	0.766070	-0.035309	-0.326344
H246	H	1.266070	0.464691	0.173656
H247	H	0.506502	0.099901	0.129697
H248	H	1.006502	0.599901	0.629697
H249	H	0.125043	-0.155072	0.122023
H250	H	0.625043	0.344928	0.622023
H251	H	0.573664	-0.557769	-0.037768
H252	H	1.073664	-0.057769	0.462232
C253	C	0.790518	-0.818018	0.293308
C254	C	1.290518	-0.318018	0.793308
C255	C	0.757654	-0.859371	0.243129
C256	C	1.257654	-0.359371	0.743129
H257	H	0.815925	-0.839596	0.332098
H258	H	1.315925	-0.339596	0.832098
H259	H	0.811627	-0.793205	0.249506
H260	H	1.311627	-0.293205	0.749506
H261	H	0.766287	-0.793214	0.332364
H262	H	1.266287	-0.293214	0.832364
H263	H	0.781885	-0.884173	0.204067
H264	H	1.281885	-0.384173	0.704067
H265	H	0.736543	-0.884194	0.286936
H266	H	1.236543	-0.384194	0.786936
C267	C	-0.000170	0.118954	0.201042
C268	C	0.499830	0.618954	0.701042
C269	C	-0.032092	0.115586	0.118904
C270	C	0.467908	0.615586	0.618904
H271	H	0.020009	0.156338	0.201446
H272	H	0.520009	0.656338	0.701446
H273	H	-0.024907	0.116663	0.255821
H274	H	0.475093	0.616663	0.755821
H275	H	0.026044	0.086150	0.201552
H276	H	0.526044	0.586150	0.701552
H277	H	-0.058309	0.148388	0.118397
H278	H	0.441691	0.648388	0.618397
H279	H	-0.007352	0.117884	0.064110
H280	H	0.492648	0.617884	0.564110
C281	C	0.128751	0.204039	0.203600
C282	C	0.628751	0.704039	0.703600
C283	C	0.116637	0.170676	0.121866
C284	C	0.616637	0.670676	0.621866
H285	H	0.108593	0.241427	0.203180
H286	H	0.608593	0.741427	0.703180
H287	H	0.117453	0.181416	0.258653
H288	H	0.617453	0.681416	0.758653
H289	H	0.168425	0.211908	0.204388
H290	H	0.668425	0.711908	0.704388
H291	H	0.076964	0.162803	0.121082
H292	H	0.576964	0.662803	0.621082
H293	H	0.127932	0.193304	0.066799
H294	H	0.627932	0.693304	0.566799
C295	C	0.273359	0.174047	0.206524
C296	C	0.773359	0.674047	0.706524
C297	C	0.241442	0.170677	0.124381
C298	C	0.741442	0.670677	0.624381
H299	H	0.293536	0.211433	0.206933
H300	H	0.793536	0.711433	0.706933
H301	H	0.248619	0.171753	0.261299
H302	H	0.748619	0.671753	0.761299
H303	H	0.299576	0.141245	0.207038
H304	H	0.799576	0.641245	0.707038
H305	H	0.215223	0.203477	0.123870
H306	H	0.715223	0.703477	0.623870
H307	H	0.266184	0.172977	0.069591
H308	H	0.766184	0.672977	0.569591
C309	C	0.567529	-0.232921	-0.047031
C310	C	1.067529	0.267079	0.452969
C311	C	0.600395	-0.274259	0.003135
C312	C	1.100395	0.225741	0.503135
H313	H	0.542126	-0.254510	-0.085834
H314	H	1.042126	0.245490	0.414166
H315	H	0.546414	-0.208124	-0.003222
H316	H	1.046414	0.291876	0.496778
H317	H	0.591758	-0.208100	-0.086073
H318	H	1.091758	0.291900	0.413927
H319	H	0.576166	-0.299077	0.042183
H320	H	1.076166	0.200923	0.542183
H321	H	0.621512	-0.299067	-0.040680
H322	H	1.121512	0.200933	0.459320
C323	C	0.428816	0.163945	0.128137
C324	C	0.928816	0.663945	0.628137
C325	C	0.390148	0.115600	0.127359
C326	C	0.890148	0.615600	0.627359
H327	H	0.408650	0.201328	0.127724
H328	H	0.908650	0.701328	0.627724
H329	H	0.450465	0.161653	0.183856
H330	H	0.950465	0.661653	0.683856
H331	H	0.453551	0.161644	0.073345
H332	H	0.953551	0.661644	0.573345
H333	H	0.365416	0.117898	0.182155
H334	H	0.865416	0.617898	0.682155
H335	H	0.368490	0.117893	0.071634
H336	H	0.868490	0.617893	0.571634
H337	H	0.506456	-0.099979	0.129714
H338	H	1.006456	0.400021	0.629714
C339	C	0.202707	-0.219111	0.123558
C340	C	0.702707	0.280889	0.623558
C341	C	0.241379	-0.170770	0.124344
C342	C	0.741379	0.329230	0.624344
H343	H	0.222870	-0.256496	0.123946
H344	H	0.722870	0.243504	0.623946
H345	H	0.177979	-0.216818	0.178347
H346	H	0.677979	0.283182	0.678347
H347	H	0.181052	-0.216808	0.067836
H348	H	0.681052	0.283192	0.567836
H349	H	0.263031	-0.173071	0.180069
H350	H	0.763031	0.326929	0.680069
H351	H	0.266117	-0.173065	0.069549
H352	H	0.766117	0.326935	0.569549
C353	C	-0.070781	-0.164041	0.118129
C354	C	0.429219	0.335959	0.618129
C355	C	-0.032117	-0.115693	0.118902
C356	C	0.467883	0.384307	0.618902
H357	H	-0.050611	-0.201422	0.118516
H358	H	0.449389	0.298578	0.618516
H359	H	-0.095505	-0.161751	0.172924
H360	H	0.404495	0.338249	0.672924
H361	H	-0.092441	-0.161744	0.062412
H362	H	0.407559	0.338256	0.562412
H363	H	-0.010459	-0.117987	0.174623
H364	H	0.489541	0.382013	0.674623
H365	H	-0.007383	-0.117985	0.064102
H366	H	0.492617	0.382015	0.564102
H367	H	0.746911	-0.149742	0.226857
H368	H	1.246911	0.350258	0.726857
C369	C	-0.215415	-0.104056	0.115231
C370	C	0.284585	0.395944	0.615231
C371	C	-0.156947	-0.115695	0.116406
C372	C	0.343053	0.384305	0.616406
H373	H	-0.235600	-0.141436	0.114814
H374	H	0.264400	0.358564	0.614814
H375	H	-0.226690	-0.081427	0.170290
H376	H	0.273310	0.418573	0.670290
H377	H	-0.223607	-0.081420	0.059779
H378	H	0.276393	0.418580	0.559779
H379	H	-0.148754	-0.138327	0.171861
H380	H	0.351246	0.361673	0.671861
H381	H	-0.145668	-0.138333	0.061341
H382	H	0.354332	0.361667	0.561341
C383	C	0.851158	-0.551356	0.273843
C384	C	1.351158	-0.051356	0.773843
C385	C	0.795071	-0.566752	0.300297
C386	C	1.295071	-0.066752	0.800297
H387	H	0.876567	-0.572915	0.312652
H388	H	1.376567	-0.072915	0.812652
H389	H	0.858445	-0.561794	0.208940
H390	H	1.358445	-0.061794	0.708940
H391	H	0.856499	-0.508918	0.282012
H392	H	1.356499	-0.008918	0.782012
H393	H	0.789728	-0.609190	0.292121
H394	H	1.289728	-0.109190	0.792121
H395	H	0.787781	-0.556319	0.365215
H396	H	1.287781	-0.056319	0.865215
C397	C	0.567585	-0.818085	-0.047030
C398	C	1.067585	-0.318085	0.452970
C399	C	0.600449	-0.859425	0.003139
C400	C	1.100449	-0.359425	0.503139
H401	H	0.542181	-0.839674	-0.085830
H402	H	1.042181	-0.339674	0.414170
H403	H	0.546473	-0.793285	-0.003222
H404	H	1.046473	-0.293285	0.496778
H405	H	0.591816	-0.793268	-0.086075
H406	H	1.091816	-0.293268	0.413925
H407	H	0.576219	-0.884239	0.042190
H408	H	1.076219	-0.384239	0.542190
H409	H	0.621563	-0.884236	-0.040674
H410	H	1.121563	-0.384236	0.459326
H411	H	0.611053	-0.149789	0.019435
H412	H	1.111053	0.350211	0.519435
