data_functionalizedCrystal
_audit_creation_method	'MofGen! by Chris Wilmer'
_symmetry_space_group_name_H-M	'P1'
_symmetry_Int_Tables_number	1
_symmetry_cell_setting	triclinic
loop_
_symmetry_equiv_pos_as_xyz
  x,y,z
_cell_length_a	16.625547
_cell_length_b	16.625546
_cell_length_c	19.077174
_cell_angle_alpha	87.729003
_cell_angle_beta	92.319725
_cell_angle_gamma	90.022405
loop_
_atom_site_label
_atom_site_type_symbol
_atom_site_fract_x
_atom_site_fract_y
_atom_site_fract_z
Zn1	Zn	1.250962	-0.339334	0.398028
Zn2	Zn	1.750962	0.160666	0.898028
Zn3	Zn	1.245459	-0.468756	0.280330
Zn4	Zn	1.745459	0.031244	0.780330
Zn5	Zn	1.110718	-0.333942	0.280337
Zn6	Zn	1.610718	0.166058	0.780337
Zn7	Zn	1.116092	-0.474126	0.397978
Zn8	Zn	1.616092	0.025874	0.897978
O9	O	1.180808	-0.404040	0.339168
O10	O	1.680808	0.095960	0.839168
O11	O	1.363065	-0.356512	0.382433
O12	O	1.863065	0.143488	0.882433
O13	O	1.223034	-0.446369	0.181840
O14	O	1.723034	0.053631	0.681840
O15	O	1.129376	-0.221826	0.295973
O16	O	1.629376	0.278174	0.795973
O17	O	1.359022	-0.451598	0.295961
O18	O	1.859022	0.048402	0.795961
O19	O	1.232412	-0.225788	0.382440
O20	O	1.732412	0.274212	0.882440
O21	O	1.124040	-0.347321	0.181846
O22	O	1.624040	0.152679	0.681846
O23	O	0.998598	-0.352528	0.295924
O24	O	1.498598	0.147472	0.795924
O25	O	1.138534	-0.460750	0.496474
O26	O	1.638534	0.039250	0.996474
O27	O	1.002546	-0.455521	0.382354
O28	O	1.502546	0.044479	0.882354
O29	O	1.237623	-0.361719	0.496512
O30	O	1.737623	0.138281	0.996512
O31	O	1.228244	-0.582300	0.295912
O32	O	1.728244	-0.082300	0.795912
O33	O	1.133199	-0.586245	0.382347
O34	O	1.633199	-0.086245	0.882347
C35	C	0.971315	-0.404022	0.339135
C36	C	1.471315	0.095978	0.839135
C37	C	0.881694	-0.404035	0.339137
C38	C	1.381694	0.095965	0.839137
C39	C	0.808912	-0.404037	0.339146
C40	C	1.308912	0.095963	0.839146
C41	C	0.717605	-0.404042	0.339164
C42	C	1.217605	0.095958	0.839164
C43	C	0.644829	-0.404051	0.339181
C44	C	1.144829	0.095949	0.839181
C45	C	0.553516	-0.404057	0.339198
C46	C	1.053516	0.095943	0.839198
C47	C	1.180730	-0.613529	0.339139
C48	C	1.680730	-0.113529	0.839139
C49	C	1.180772	-0.703151	0.339149
C50	C	1.680772	-0.203151	0.839149
C51	C	1.180916	-1.031330	0.339223
C52	C	1.680916	-0.531330	0.839223
C53	C	1.180873	-0.940020	0.339204
C54	C	1.680873	-0.440020	0.839204
C55	C	1.180843	-0.867243	0.339186
C56	C	1.680843	-0.367243	0.839186
C57	C	1.180802	-0.775928	0.339168
C58	C	1.680802	-0.275928	0.839168
C59	C	1.391118	-0.404057	0.339202
C60	C	1.891118	0.095943	0.839202
C61	C	1.480740	-0.404065	0.339216
C62	C	1.980740	0.095935	0.839216
C63	C	1.189292	-0.412435	0.522744
C64	C	1.689292	0.087565	1.022744
C65	C	1.192907	-0.416012	0.600974
C66	C	1.692907	0.083988	1.100974
C67	C	1.180908	-0.193733	0.339213
C68	C	1.680908	0.306267	0.839213
C69	C	1.180951	-0.104113	0.339232
C70	C	1.680951	0.395887	0.839232
C71	C	1.172403	-0.395619	0.156306
C72	C	1.672403	0.104381	0.656306
C73	C	1.168944	-0.391814	0.078077
C74	C	1.668944	0.108186	0.578077
C75	C	1.143067	-0.366125	0.637728
C76	C	1.643067	0.133875	1.137728
C77	C	1.146461	-0.369494	0.711233
C78	C	1.646461	0.130506	1.211233
C79	C	1.199700	-0.422745	0.747982
C80	C	1.699700	0.077255	1.247982
C81	C	1.249542	-0.472638	0.711222
C82	C	1.749542	0.027362	1.211222
C83	C	1.246143	-0.469273	0.637719
C84	C	1.746143	0.030727	1.137719
C85	C	1.215387	-0.438342	0.967814
C86	C	1.715387	0.061658	1.467814
C87	C	1.218784	-0.441701	1.041322
C88	C	1.718784	0.058299	1.541322
C89	C	1.115702	-0.338557	1.041328
C90	C	1.615702	0.161443	1.541328
C91	C	1.112311	-0.335194	0.967823
C92	C	1.612311	0.164806	1.467823
C93	C	1.162150	-0.385090	0.931070
C94	C	1.662150	0.114910	1.431070
N95	N	1.203172	-0.426188	0.823116
N96	N	1.703172	0.073812	1.323116
N97	N	1.158673	-0.381651	0.855937
N98	N	1.658673	0.118349	1.355937
H99	H	1.105873	-0.328873	0.741155
H100	H	1.605873	0.171127	1.241155
O101	O	1.067170	-0.290134	1.076953
O102	O	1.567170	0.209866	1.576953
C103	C	0.931070	-0.252052	1.099460
C104	C	1.431070	0.247948	1.599460
C105	C	0.985944	-0.306926	1.059060
C106	C	1.485944	0.193074	1.559060
H107	H	0.865388	-0.265620	1.085019
H108	H	1.365388	0.234380	1.585019
H109	H	0.944523	-0.186362	1.085012
H110	H	1.444523	0.313638	1.585012
H111	H	0.942682	-0.263588	1.158303
H112	H	1.442682	0.236412	1.658303
H113	H	0.974364	-0.295461	1.000207
H114	H	1.474364	0.204539	1.500207
H115	H	0.972480	-0.372598	1.073566
H116	H	1.472480	0.127402	1.573566
H117	H	1.068957	-0.291833	0.937907
H118	H	1.568957	0.208167	1.437907
H119	H	1.099719	-0.322757	0.607813
H120	H	1.599719	0.177243	1.107813
H121	H	1.286734	-0.509891	0.607794
H122	H	1.786734	-0.009891	1.107794
O123	O	1.270522	-0.493506	1.076913
O124	O	1.770522	0.006494	1.576913
C125	C	1.372438	-0.595424	1.069155
C126	C	1.872438	-0.095424	1.569155
C127	C	1.313871	-0.536813	1.028761
C128	C	1.813871	-0.036813	1.528761
H129	H	1.407514	-0.630442	1.030242
H130	H	1.907514	-0.130442	1.530242
H131	H	1.337026	-0.639204	1.103536
H132	H	1.837026	-0.139204	1.603536
H133	H	1.416176	-0.559970	1.103598
H134	H	1.916176	-0.059970	1.603598
H135	H	1.270121	-0.572201	0.994280
H136	H	1.770121	-0.072201	1.494280
H137	H	1.349336	-0.493034	0.994425
H138	H	1.849336	0.006966	1.494425
H139	H	1.255961	-0.478979	0.937898
H140	H	1.755961	0.021021	1.437898
O141	O	1.301236	-0.524298	0.747027
O142	O	1.801236	-0.024298	1.247027
C143	C	1.352123	-0.575229	0.860258
C144	C	1.852123	-0.075229	1.360258
C145	C	1.293554	-0.516674	0.819799
C146	C	1.793554	-0.016674	1.319799
H147	H	1.345920	-0.569097	0.919101
H148	H	1.845920	-0.069097	1.419101
H149	H	1.416498	-0.560417	0.845870
H150	H	1.916498	-0.060417	1.345870
H151	H	1.337268	-0.639570	0.845746
H152	H	1.837268	-0.139570	1.345746
H153	H	1.308335	-0.452313	0.834290
H154	H	1.808335	0.047687	1.334290
H155	H	1.229195	-0.531555	0.834190
H156	H	1.729195	-0.031555	1.334190
