data_functionalizedCrystal
_audit_creation_method	'MofGen! by Chris Wilmer'
_symmetry_space_group_name_H-M	'P1'
_symmetry_Int_Tables_number	1
_symmetry_cell_setting	triclinic
loop_
_symmetry_equiv_pos_as_xyz
  x,y,z
_cell_length_a	8.497374
_cell_length_b	8.497374
_cell_length_c	12.759401
_cell_angle_alpha	90.001753
_cell_angle_beta	89.997383
_cell_angle_gamma	90.005237
loop_
_atom_site_label
_atom_site_type_symbol
_atom_site_fract_x
_atom_site_fract_y
_atom_site_fract_z
Zn1	Zn	0.628265	0.892107	1.606167
Zn2	Zn	1.128265	1.392107	2.106167
Zn3	Zn	0.892011	0.628373	1.606158
Zn4	Zn	1.392011	1.128373	2.106158
Zn5	Zn	0.628246	0.628335	1.430524
Zn6	Zn	1.128246	1.128335	1.930524
Zn7	Zn	0.892004	0.892104	1.430499
Zn8	Zn	1.392004	1.392104	1.930499
O9	O	0.760132	0.760230	1.518337
O10	O	1.260132	1.260230	2.018337
O11	O	0.663263	0.857140	1.753187
O12	O	1.163263	1.357140	2.253187
O13	O	0.857017	0.407606	1.582867
O14	O	1.357017	0.907606	2.082867
O15	O	0.407486	0.663310	1.453838
O16	O	0.907486	1.163310	1.953838
O17	O	0.857036	0.663375	1.753181
O18	O	1.357036	1.163375	2.253181
O19	O	0.407500	0.857103	1.582881
O20	O	0.907500	1.357103	2.082881
O21	O	0.663229	0.407577	1.453830
O22	O	1.163229	0.907577	1.953830
O23	O	0.663223	0.663307	1.283500
O24	O	1.163223	1.163307	1.783500
O25	O	0.857024	1.112867	1.453795
O26	O	1.357024	1.612867	1.953795
O27	O	0.857005	0.857097	1.283481
O28	O	1.357005	1.357097	1.783481
O29	O	0.663256	1.112869	1.582857
O30	O	1.163256	1.612869	2.082857
O31	O	1.112772	0.663372	1.582843
O32	O	1.612772	1.163372	2.082843
O33	O	1.112767	0.857135	1.453787
O34	O	1.612767	1.357135	1.953787
C35	C	0.760112	0.760199	1.245370
C36	C	1.260112	1.260199	1.745370
C37	C	0.760142	0.760223	1.128593
C38	C	1.260142	1.260223	1.628593
C39	C	0.861198	0.860971	1.073749
C40	C	1.361198	1.360971	1.573749
C41	C	0.861204	0.861002	0.964025
C42	C	1.361204	1.361002	1.464025
C43	C	0.659094	0.659524	0.963999
C44	C	1.159094	1.159524	1.463999
C45	C	0.659081	0.659501	1.073721
C46	C	1.159081	1.159501	1.573721
C47	C	1.170011	0.760253	1.518324
C48	C	1.670011	1.260253	2.018324
C49	C	1.348655	0.760227	1.518352
C50	C	1.848655	1.260227	2.018352
C51	C	0.760134	1.171710	1.518329
C52	C	1.260134	1.671710	2.018329
C53	C	0.760151	1.350354	1.518332
C54	C	1.260151	1.850354	2.018332
C55	C	0.760152	0.760262	1.792370
C56	C	1.260152	1.260262	2.292370
C57	C	0.760161	0.760276	1.909147
C58	C	1.260161	1.260276	2.409147
H59	H	0.943491	0.943043	0.919376
H60	H	1.443491	1.443043	1.419376
H61	H	0.576779	0.577460	1.118376
H62	H	1.076779	1.077460	1.618376
H63	H	0.943484	0.942988	1.118423
H64	H	1.443484	1.442988	1.618423
H65	H	0.576816	0.577518	0.919308
H66	H	1.076816	1.077518	1.419308
