data_functionalizedCrystal
_audit_creation_method	'MofGen! by Chris Wilmer'
_symmetry_space_group_name_H-M	'P1'
_symmetry_Int_Tables_number	1
_symmetry_cell_setting	triclinic
loop_
_symmetry_equiv_pos_as_xyz
  x,y,z
_cell_length_a	16.625547
_cell_length_b	12.759399
_cell_length_c	12.759393
_cell_angle_alpha	89.969094
_cell_angle_beta	90.026979
_cell_angle_gamma	89.984947
loop_
_atom_site_label
_atom_site_type_symbol
_atom_site_fract_x
_atom_site_fract_y
_atom_site_fract_z
Zn1	Zn	1.232739	0.418217	0.594186
Zn2	Zn	1.232654	0.593933	0.418505
Zn3	Zn	1.097896	0.418268	0.418503
Zn4	Zn	1.097888	0.593854	0.594124
O5	O	1.165294	0.506068	0.506330
O6	O	1.345560	0.441538	0.570909
O7	O	1.214746	0.570685	0.271484
O8	O	1.115821	0.271240	0.441833
O9	O	1.345498	0.570635	0.441837
O10	O	1.214890	0.271203	0.570907
O11	O	1.115739	0.441625	0.271482
O12	O	0.985062	0.441549	0.441773
O13	O	1.115809	0.570502	0.741153
O14	O	0.985057	0.570551	0.570800
O15	O	1.214883	0.441462	0.741199
O16	O	1.214739	0.740943	0.441776
O17	O	1.115727	0.740886	0.570803
C18	C	1.165245	0.779036	0.506306
C19	C	1.165298	0.895812	0.506331
C20	C	0.955803	0.506048	0.506280
C21	C	0.866182	0.506064	0.506284
C22	C	1.165355	0.505967	0.780363
C23	C	1.165380	0.505924	0.897140
C24	C	0.793400	0.506066	0.506297
C25	C	0.702091	0.506072	0.506323
C26	C	0.629315	0.506082	0.506350
C27	C	0.538001	0.506089	0.506375
C28	C	1.375603	0.506089	0.506380
C29	C	1.465224	0.506098	0.506402
C30	C	1.165366	0.232035	0.506377
C31	C	1.165396	0.115258	0.506397
C32	C	1.216912	0.950669	0.439223
C33	C	1.216964	1.060393	0.439258
C34	C	1.113780	1.060393	0.573512
C35	C	1.113733	0.950671	0.573481
C36	C	1.165281	0.506093	0.233362
C37	C	1.165411	0.505840	0.116586
C38	C	1.216972	0.438722	0.952027
C39	C	1.216986	0.438677	1.061752
C40	C	1.113814	0.573045	1.061691
C41	C	1.113797	0.573084	0.951969
H42	H	1.258900	0.906005	0.384547
O43	O	1.063551	0.897261	0.638527
C44	C	1.011458	0.833915	0.578627
H45	H	1.039918	0.817516	0.499038
H46	H	1.000608	0.756733	0.621385
H47	H	0.951725	0.876270	0.567024
H48	H	1.071818	0.627726	1.106346
H49	H	1.258994	1.105053	0.384614
O50	O	1.267140	0.373543	1.115187
C51	C	1.319222	0.433339	1.178651
H52	H	1.290765	0.512949	1.195065
H53	H	1.330046	0.390514	1.255818
H54	H	1.378967	0.444904	1.136390
H55	H	1.071796	1.105073	0.628182
O56	O	1.063791	0.638421	0.898528
C57	C	1.109669	0.706321	0.835082
H58	H	1.170783	0.669281	0.818678
H59	H	1.076813	0.720419	0.757908
H60	H	1.118511	0.784168	0.877352
O61	O	1.267099	0.373381	0.898928
C62	C	1.312650	0.314075	0.970908
H63	H	1.279636	0.310408	1.049110
H64	H	1.321268	0.231309	0.939225
H65	H	1.373880	0.352549	0.982592
