data_functionalizedCrystal
_audit_creation_method	'MofGen! by Chris Wilmer'
_symmetry_space_group_name_H-M	'P1'
_symmetry_Int_Tables_number	1
_symmetry_cell_setting	triclinic
loop_
_symmetry_equiv_pos_as_xyz
  x,y,z
_cell_length_a	6.817900
_cell_length_b	12.908942
_cell_length_c	10.943881
_cell_angle_alpha	94.353139
_cell_angle_beta	108.843448
_cell_angle_gamma	100.860556
loop_
_atom_site_label
_atom_site_type_symbol
_atom_site_fract_x
_atom_site_fract_y
_atom_site_fract_z
V1	V	-4.074648	-0.145823	-0.401834
O2	O	-4.075231	0.007038	-0.394924
O3	O	-4.012391	-0.289171	-0.398375
O4	O	-4.053267	-0.143566	-0.577412
O5	O	-4.034072	-0.139575	-0.214647
V6	V	-4.556571	-0.127540	-0.379532
O7	O	-4.339418	-0.185926	-0.450757
O8	O	-4.741999	-0.087436	-0.330609
O9	O	-4.395621	0.015808	-0.382991
O10	O	-4.673385	-0.280401	-0.386442
O11	O	-4.714544	-0.133788	-0.566718
O12	O	-4.354745	-0.129797	-0.203953
C13	C	-3.853147	-0.324117	-0.391853
C14	C	-3.883712	-0.441306	-0.390195
C15	C	-4.306390	-0.672259	-0.399938
C16	C	-4.335118	-0.782369	-0.398381
C17	C	-3.969902	-0.771640	-0.385532
C18	C	-3.941174	-0.661530	-0.387089
C19	C	-4.109426	-0.611843	-0.394291
C20	C	-4.080691	-0.501730	-0.395839
C21	C	-3.715482	-0.491004	-0.382999
C22	C	-3.744209	-0.601114	-0.381442
C23	C	-3.905287	-0.138382	-0.620231
C24	C	-3.968997	-0.137485	-0.763762
C25	C	-4.197048	-0.142450	-0.854621
C26	C	-4.109009	-0.051834	-0.920804
C27	C	-4.170514	-0.226439	-0.953314
C28	C	-3.880093	-0.046810	-0.828041
C29	C	-3.941649	-0.221494	-0.860559
C30	C	-3.853446	-0.130853	-0.926694
C31	C	-4.218206	0.050749	-0.389510
C32	C	-4.166881	0.167937	-0.391176
C33	C	-4.166066	-0.134985	-0.161128
C34	C	-4.081594	-0.135876	-0.017596
H35	H	-4.341610	-0.147250	-0.822728
C36	C	-3.715649	0.054557	-0.755988
C37	C	-3.673526	0.118318	-0.846528
C38	C	-3.522040	0.211697	-0.780200
H39	H	-3.768855	0.092570	-0.700699
H40	H	-3.588231	0.036630	-0.704878
H41	H	-3.800918	0.136246	-0.897616
H42	H	-3.620288	0.080338	-0.901820
H43	H	-3.394622	0.193771	-0.729090
H44	H	-3.575262	0.249701	-0.724914
H45	H	-3.493425	0.254966	-0.841622
C46	C	-4.335304	-0.327624	-1.025637
C47	C	-4.515499	-0.333239	-0.989231
C48	C	-4.667344	-0.426438	-1.055807
H49	H	-4.374176	-0.326722	-1.117021
H50	H	-4.277205	-0.387943	-1.004088
H51	H	-4.573590	-0.272935	-1.010789
H52	H	-4.476695	-0.334159	-0.897857
H53	H	-4.609244	-0.486758	-1.034258
H54	H	-4.706197	-0.425528	-1.147189
H55	H	-4.789615	-0.430265	-1.031106
H56	H	-4.217687	-0.461275	-0.401693
C57	C	-4.204188	0.043852	-0.956413
C58	C	-4.205152	0.102022	-0.843376
C59	C	-4.292857	0.190160	-0.876128
H60	H	-4.121427	0.088014	-0.995794
H61	H	-4.345820	0.020013	-1.015917
H62	H	-4.063544	0.125862	-0.783894
H63	H	-4.287923	0.057891	-0.803980
H64	H	-4.434489	0.166321	-0.935632
H65	H	-4.210086	0.234313	-0.915510
H66	H	-4.293540	0.229633	-0.799441
C67	C	-3.660610	-0.124337	-0.969155
C68	C	-3.723057	-0.124438	-1.104262
C69	C	-3.545488	-0.118447	-1.143432
H70	H	-3.558024	-0.060525	-0.925743
H71	H	-3.600403	-0.184035	-0.947508
H72	H	-3.783232	-0.064745	-1.125897
H73	H	-3.825617	-0.188244	-1.147706
H74	H	-3.485281	-0.178145	-1.121785
H75	H	-3.442914	-0.054634	-1.100012
H76	H	-3.587837	-0.118524	-1.235106
H77	H	-3.832935	-0.812116	-0.379681
H78	H	-4.495504	-0.831556	-0.402981
C79	C	-3.501437	-0.425431	-0.376594
C80	C	-3.344589	-0.434767	-0.260800
C81	C	-3.147392	-0.374366	-0.254839
H82	H	-3.467208	-0.450831	-0.449193
H83	H	-3.508287	-0.352713	-0.378475
H84	H	-3.337734	-0.507470	-0.258931
H85	H	-3.378746	-0.409360	-0.188180
H86	H	-3.154242	-0.301649	-0.256720
H87	H	-3.113185	-0.399772	-0.327444
H88	H	-3.040950	-0.380685	-0.176268
C89	C	-3.846420	-0.317064	-0.824392
C90	C	-3.785771	-0.316061	-0.689189
C91	C	-3.698032	-0.404085	-0.655822
H92	H	-3.949103	-0.380894	-0.867603
H93	H	-3.725324	-0.313613	-0.850243
H94	H	-3.906852	-0.319522	-0.663352
H95	H	-3.683067	-0.252251	-0.645947
H96	H	-3.576936	-0.400634	-0.681673
H97	H	-3.800727	-0.467908	-0.699041
H98	H	-3.656853	-0.403411	-0.564084
H99	H	-4.443378	-0.631801	-0.405782
H100	H	-3.607234	-0.641585	-0.375584
