data_functionalizedCrystal
_audit_creation_method	'MofGen! by Chris Wilmer'
_symmetry_space_group_name_H-M	'P1'
_symmetry_Int_Tables_number	1
_symmetry_cell_setting	triclinic
loop_
_symmetry_equiv_pos_as_xyz
  x,y,z
_cell_length_a	15.995350
_cell_length_b	15.995350
_cell_length_c	15.072220
_cell_angle_alpha	90.003938
_cell_angle_beta	89.998756
_cell_angle_gamma	96.507625
loop_
_atom_site_label
_atom_site_type_symbol
_atom_site_fract_x
_atom_site_fract_y
_atom_site_fract_z
O1	O	-1.110986	0.107931	0.073699
O2	O	-0.867210	0.121258	0.073716
O3	O	-0.995762	-0.007293	0.073711
O4	O	-0.982434	0.236482	0.073705
O5	O	-0.995751	-0.007305	-0.073854
O6	O	-0.867199	0.121246	-0.073849
O7	O	-1.110974	0.107919	-0.073866
Zn8	Zn	-0.989085	0.114580	-0.097287
Zn9	Zn	-0.989100	0.114596	0.097137
O10	O	-0.982423	0.236470	-0.073860
C11	C	-0.836010	0.120701	-0.000064
C12	C	-0.743060	0.119049	-0.000057
C13	C	-0.995205	-0.038494	-0.000069
C14	C	-0.993553	-0.131444	-0.000061
N15	N	-0.989081	0.114569	-0.229975
C16	C	-1.142175	0.108476	-0.000084
C17	C	-1.235125	0.110127	-0.000085
C18	C	-0.405312	0.113117	-0.000075
C19	C	-0.452746	0.021565	-0.000402
C20	C	-0.549436	0.023217	-0.000063
C21	C	-0.572873	0.116060	-0.000067
C22	C	-0.531792	0.161223	0.084196
C23	C	-0.435156	0.158923	0.084260
C24	C	-0.434805	0.160801	-0.083549
C25	C	-0.531750	0.160779	-0.084657
C26	C	-0.667570	0.117727	-0.000059
C27	C	-0.310614	0.111452	-0.000077
C28	C	-0.982980	0.267671	-0.000079
C29	C	-0.984631	0.360621	-0.000081
C30	C	-0.990564	0.698369	-0.000068
C31	C	-1.082116	0.650935	0.000255
C32	C	-1.080463	0.554244	-0.000082
C33	C	-0.987621	0.530808	-0.000074
C34	C	-0.942458	0.571884	-0.084334
C35	C	-0.944758	0.668520	-0.084400
C36	C	-0.942879	0.668881	0.083409
C37	C	-0.942901	0.571936	0.084518
C38	C	-0.985953	0.436111	-0.000080
C39	C	-0.992229	0.793066	-0.000067
C40	C	-0.989091	0.114580	-0.410973
C41	C	-1.057892	0.045818	-0.448617
C42	C	-1.058142	0.046002	-0.551443
C43	C	-0.989101	0.114590	-0.589177
C44	C	-1.007820	0.202062	-0.551835
C45	C	-1.008309	0.201653	-0.448978
C46	C	-0.901363	0.096657	-0.448885
C47	C	-0.901957	0.094678	-0.551750
C48	C	-0.989104	0.114601	-0.689890
C49	C	-0.989089	0.114575	-0.310259
N50	N	-0.989110	0.114601	0.229826
H51	H	-0.577861	-0.012283	-0.060466
C52	C	-0.428197	-0.027235	-0.081045
C53	C	-0.499930	-0.051933	-0.132030
C54	C	-0.477339	-0.096884	-0.206330
H55	H	-0.403795	-0.075689	-0.062204
H56	H	-0.388622	0.007492	-0.115713
H57	H	-0.539490	-0.086659	-0.097368
H58	H	-0.524341	-0.003496	-0.150893
H59	H	-0.437764	-0.062156	-0.240998
H60	H	-0.452936	-0.145334	-0.187481
H61	H	-0.526004	-0.113641	-0.240936
C62	C	-0.982655	0.696390	0.168599
C63	C	-0.922955	0.748671	0.216910
C64	C	-0.959578	0.774036	0.295381
H65	H	-1.001664	0.648270	0.203101
H66	H	-1.028982	0.726268	0.154553
H67	H	-0.876643	0.718794	0.230958
H68	H	-0.903941	0.796803	0.182435
H69	H	-1.005905	0.803914	0.281335
H70	H	-0.978586	0.725912	0.329874
H71	H	-0.919080	0.809518	0.328165
C72	C	-1.092057	0.223684	-0.586288
C73	C	-1.079889	0.298796	-0.634675
C74	C	-1.157469	0.318729	-0.666434
H75	H	-1.128559	0.230309	-0.537706
H76	H	-1.116430	0.179630	-0.623607
H77	H	-1.055529	0.342840	-0.597359
H78	H	-1.043402	0.292191	-0.683270
H79	H	-1.181842	0.274674	-0.703753
H80	H	-1.193965	0.325350	-0.617846
H81	H	-1.149223	0.369690	-0.699275
C82	C	-0.830585	0.157237	-0.585874
C83	C	-0.844007	0.238556	-0.559407
C84	C	-0.778279	0.296219	-0.590815
H85	H	-0.828754	0.154672	-0.648799
H86	H	-0.778722	0.143762	-0.562193
H87	H	-0.895857	0.252028	-0.583093
H88	H	-0.845830	0.241149	-0.496487
H89	H	-0.726415	0.282745	-0.567134
H90	H	-0.776453	0.293646	-0.653739
H91	H	-0.787372	0.351400	-0.572855
H92	H	-0.850168	0.146798	-0.424539
H93	H	-1.072277	0.217396	-0.424985
H94	H	-0.433157	-0.014857	0.059694
H95	H	-0.559062	0.127810	-0.146994
C96	C	-0.552054	0.251112	-0.091494
C97	C	-0.477185	0.305725	-0.090463
C98	C	-0.495854	0.388948	-0.096767
H99	H	-0.586183	0.263404	-0.042678
H100	H	-0.581367	0.258232	-0.145299
H101	H	-0.447886	0.298609	-0.036663
H102	H	-0.443046	0.293460	-0.139275
H103	H	-0.525167	0.396068	-0.150572
H104	H	-0.529984	0.401231	-0.047950
H105	H	-0.445059	0.426012	-0.096076
H106	H	-0.577299	-0.012513	0.060446
H107	H	-0.887744	0.030328	-0.576156
C108	C	-0.877424	0.013353	-0.414249
C109	C	-0.941045	-0.023435	-0.358178
C110	C	-0.919036	-0.100183	-0.326262
H111	H	-0.826118	0.022826	-0.382152
H112	H	-0.870658	-0.023235	-0.462737
H113	H	-0.947800	0.013145	-0.309698
H114	H	-0.992356	-0.032929	-0.390255
H115	H	-0.912271	-0.136771	-0.374750
H116	H	-0.867729	-0.090702	-0.294169
H117	H	-0.962202	-0.125157	-0.288222
H118	H	-0.977683	0.686820	-0.147393
H119	H	-0.416852	0.125998	0.147250
H120	H	-0.402908	0.226139	0.088082
C121	C	-0.986804	0.535702	0.167743
C122	C	-0.946382	0.572888	0.242682
C123	C	-0.986822	0.539548	0.319361
H124	H	-0.984600	0.476629	0.169451
H125	H	-1.043862	0.546950	0.167223
H126	H	-0.889339	0.561633	0.243202
H127	H	-0.948584	0.631959	0.241004
H128	H	-1.043880	0.550796	0.318841
H129	H	-0.984616	0.480475	0.321060
H130	H	-0.959407	0.564779	0.370216
H131	H	-0.560171	0.129864	0.146908
C132	C	-0.550798	0.252116	0.088431
C133	C	-0.637995	0.254229	0.092174
C134	C	-0.655536	0.337943	0.096087
H135	H	-0.528927	0.281330	0.037101
H136	H	-0.525427	0.278254	0.139893
H137	H	-0.663357	0.228103	0.040718
H138	H	-0.659886	0.225032	0.143503
H139	H	-0.630165	0.364081	0.147549
H140	H	-0.633661	0.367150	0.044755
H141	H	-0.714700	0.339388	0.098636
H142	H	-0.414264	0.130865	-0.147418
C143	C	-0.852817	0.711076	0.084132
C144	C	-0.797253	0.649493	0.081381
C145	C	-0.714286	0.688335	0.082025
H146	H	-0.843272	0.743503	0.136708
H147	H	-0.843768	0.746763	0.033844
H148	H	-0.806298	0.613820	0.131663
H149	H	-0.806770	0.617062	0.028808
H150	H	-0.705236	0.724023	0.031738
H151	H	-0.704750	0.720761	0.134602
H152	H	-0.676576	0.646558	0.080150
C153	C	-1.144996	0.061385	-0.584086
C154	C	-1.197454	0.070550	-0.511195
C155	C	-1.277469	0.084739	-0.541230
H156	H	-1.168033	0.015000	-0.619070
H157	H	-1.140652	0.111194	-0.618912
H158	H	-1.201801	0.020746	-0.476384
H159	H	-1.174444	0.116936	-0.476204
H160	H	-1.273125	0.134548	-0.576057
H161	H	-1.300498	0.038351	-0.576214
H162	H	-1.313069	0.090966	-0.491779
H163	H	-0.403043	0.228302	-0.084121
H164	H	-0.875199	0.556569	0.089615
C165	C	-1.127884	0.516495	0.080472
C166	C	-1.158277	0.580740	0.129893
C167	C	-1.201984	0.545999	0.204097
H168	H	-1.091069	0.488212	0.116230
H169	H	-1.173743	0.477637	0.061522
H170	H	-1.112424	0.619583	0.148844
H171	H	-1.195103	0.609028	0.094162
H172	H	-1.247843	0.507142	0.185147
H173	H	-1.165164	0.517718	0.239847
H174	H	-1.222617	0.589584	0.237634
H175	H	-0.959947	0.254253	-0.424074
C176	C	-1.130740	0.676872	-0.079915
C177	C	-1.155938	0.605910	-0.131876
C178	C	-1.200736	0.629769	-0.205733
H179	H	-1.095811	0.716669	-0.114103
H180	H	-1.178979	0.701386	-0.060578
H181	H	-1.107706	0.581409	-0.151214
H182	H	-1.190878	0.566106	-0.097715
H183	H	-1.248975	0.654282	-0.186396
H184	H	-1.165802	0.669566	-0.239913
H185	H	-1.217845	0.581624	-0.240993
H186	H	-1.118708	0.669457	0.060689
C187	C	-0.855079	0.711369	-0.089546
C188	C	-0.799066	0.650213	-0.092580
C189	C	-0.716450	0.689649	-0.097336
H190	H	-0.843419	0.745881	-0.038751
H191	H	-0.848689	0.745083	-0.141525
H192	H	-0.805452	0.616513	-0.040606
H193	H	-0.810699	0.615697	-0.143373
H194	H	-0.710060	0.723364	-0.149316
H195	H	-0.704799	0.724161	-0.046539
H196	H	-0.678436	0.648161	-0.099403
H197	H	-1.116191	0.526379	-0.060595
H198	H	-1.046995	-0.019408	-0.423870
H199	H	-0.874249	0.557759	-0.087462
C200	C	-0.984268	0.533883	-0.167888
C201	C	-0.978993	0.447110	-0.168946
C202	C	-1.017513	0.412075	-0.245892
H203	H	-0.956543	0.559047	-0.218592
H204	H	-1.041712	0.543803	-0.168653
H205	H	-0.921560	0.437197	-0.168189
H206	H	-1.006722	0.421923	-0.118259
H207	H	-1.074957	0.421995	-0.246657
H208	H	-0.989784	0.437246	-0.296590
H209	H	-1.013946	0.353196	-0.246616
C210	C	-1.043322	-0.040615	-0.585291
C211	C	-1.043541	-0.040398	-0.678185
C212	C	-1.029885	-0.120175	-0.709392
H213	H	-1.086744	-0.081220	-0.564280
H214	H	-0.990474	-0.054267	-0.564467
H215	H	-1.096382	-0.026757	-0.699000
H216	H	-1.000120	0.000190	-0.699219
H217	H	-0.977037	-0.133827	-0.688568
H218	H	-1.073308	-0.160774	-0.688375
H219	H	-1.030024	-0.120037	-0.772422
H220	H	-1.122633	0.057134	-0.422756
H221	H	-0.959027	0.254479	-0.576276
