data_functionalizedCrystal
_audit_creation_method	'MofGen! by Chris Wilmer'
_symmetry_space_group_name_H-M	'P1'
_symmetry_Int_Tables_number	1
_symmetry_cell_setting	triclinic
loop_
_symmetry_equiv_pos_as_xyz
  x,y,z
_cell_length_a	12.759401
_cell_length_b	12.759400
_cell_length_c	12.759393
_cell_angle_alpha	89.968436
_cell_angle_beta	90.018496
_cell_angle_gamma	89.985155
loop_
_atom_site_label
_atom_site_type_symbol
_atom_site_fract_x
_atom_site_fract_y
_atom_site_fract_z
Zn1	Zn	1.606255	0.418200	0.593981
Zn2	Zn	1.606150	0.593919	0.418301
Zn3	Zn	1.430557	0.418255	0.418321
Zn4	Zn	1.430546	0.593838	0.593943
O5	O	1.518377	0.506053	0.506137
O6	O	1.753262	0.441520	0.570685
O7	O	1.582818	0.570673	0.271283
O8	O	1.453913	0.271226	0.441647
O9	O	1.753185	0.570620	0.441614
O10	O	1.582998	0.271186	0.570704
O11	O	1.453811	0.441614	0.271297
O12	O	1.283535	0.441535	0.441609
O13	O	1.453894	0.570482	0.740969
O14	O	1.283527	0.570536	0.570638
O15	O	1.582987	0.441442	0.740997
O16	O	1.582807	0.740929	0.441577
O17	O	1.453791	0.740870	0.570620
C18	C	1.245410	0.506033	0.506122
C19	C	1.128633	0.506050	0.506141
C20	C	1.518315	0.779020	0.506115
C21	C	1.518384	0.895797	0.506140
C22	C	1.073794	0.573328	0.573215
C23	C	0.964070	0.573342	0.573227
C24	C	0.964034	0.438796	0.439081
C25	C	1.073756	0.438778	0.439075
C26	C	1.128672	0.640600	0.640281
C27	C	1.073833	0.707885	0.707360
C28	C	0.964109	0.707898	0.707371
C29	C	0.909224	0.640627	0.640304
C30	C	1.518451	0.505947	0.780170
C31	C	1.518482	0.505902	0.896947
C32	C	1.792410	0.506073	0.506152
C33	C	1.909187	0.506082	0.506158
C34	C	1.518468	0.232019	0.506182
C35	C	1.518507	0.115243	0.506201
C36	C	1.585637	0.950655	0.439022
C37	C	1.585702	1.060379	0.439054
C38	C	1.451252	1.060377	0.573327
C39	C	1.451193	0.950655	0.573299
C40	C	1.652828	0.895797	0.371864
C41	C	1.720086	0.950655	0.304739
C42	C	1.720150	1.060379	0.304771
C43	C	1.652957	1.115245	0.371929
C44	C	1.518364	0.506083	0.233169
C45	C	1.518537	0.505832	0.116393
C46	C	1.585710	0.438704	0.951825
C47	C	1.585735	0.438666	1.061549
C48	C	1.451301	0.573033	1.061507
C49	C	1.451272	0.573064	0.951785
C50	C	1.652920	0.371541	0.896987
C51	C	1.720155	0.304339	0.951866
C52	C	1.720180	0.304301	1.061590
C53	C	1.652970	0.371465	1.116436
H54	H	1.118528	0.762647	0.761970
H55	H	1.652984	0.371417	1.205780
H56	H	1.774917	0.249574	1.106269
H57	H	1.774798	0.905977	0.250068
H58	H	0.919462	0.762676	0.761998
H59	H	0.819879	0.640634	0.640328
H60	H	1.653024	1.204589	0.371958
H61	H	1.118407	0.383987	0.384466
H62	H	0.919337	0.384028	0.384477
C63	C	1.725940	0.738618	0.298714
C64	C	1.652763	0.775187	0.371830
H65	H	1.725900	0.664159	0.298700
H66	H	1.707812	0.763507	0.230919
H67	H	1.793741	0.763374	0.316950
H68	H	1.584960	0.750437	0.353590
H69	H	1.670885	0.750287	0.439640
H70	H	1.218015	0.640599	0.640277
H71	H	1.774922	1.105041	0.250123
C72	C	1.391670	0.632654	1.229687
C73	C	1.377441	0.646868	1.121792
H74	H	1.346077	0.678246	1.266901
H75	H	1.376317	0.562067	1.247683
H76	H	1.462265	0.648028	1.247653
H77	H	1.306846	0.631486	1.103824
H78	H	1.392786	0.717471	1.103789
C79	C	1.273342	1.094256	0.624367
C80	C	1.377389	1.120680	0.647138
H81	H	1.227742	1.131480	0.669940
H82	H	1.258020	1.112312	0.553777
H83	H	1.263696	1.021057	0.633960
H84	H	1.387037	1.193879	0.637537
H85	H	1.392716	1.102632	0.717745
C86	C	1.399918	0.916764	0.751149
C87	C	1.377274	0.890343	0.647079
H88	H	1.354282	0.879532	0.796700
H89	H	1.470486	0.898718	0.766563
H90	H	1.390324	0.989962	0.760765
H91	H	1.386876	0.817146	0.637460
H92	H	1.306689	0.908382	0.631659
C93	C	1.400073	0.750982	0.917929
C94	C	1.377403	0.646945	0.891439
H95	H	1.354476	0.796593	0.880664
H96	H	1.390451	0.760576	0.991111
H97	H	1.470665	0.766336	0.899960
H98	H	1.306813	0.631588	0.909415
H99	H	1.387016	0.637345	0.818240
C100	C	1.679706	0.471562	0.739828
C101	C	1.652950	0.371595	0.776378
H102	H	1.679746	0.471598	0.665370
H103	H	1.630041	0.521160	0.764607
H104	H	1.747486	0.489717	0.764709
H105	H	1.585166	0.353444	0.751503
H106	H	1.702618	0.321981	0.751589
C107	C	1.779808	0.244732	0.783687
C108	C	1.794023	0.230509	0.891584
H109	H	1.825417	0.199153	0.746476
H110	H	1.709227	0.229355	0.765709
H111	H	1.795160	0.315332	0.765701
H112	H	1.778664	0.159910	0.909571
H113	H	1.864621	0.245878	0.909569
