data_functionalizedCrystal
_audit_creation_method	'MofGen! by Chris Wilmer'
_symmetry_space_group_name_H-M	'P1'
_symmetry_Int_Tables_number	1
_symmetry_cell_setting	triclinic
loop_
_symmetry_equiv_pos_as_xyz
  x,y,z
_cell_length_a	11.792241
_cell_length_b	11.792241
_cell_length_c	15.455425
_cell_angle_alpha	92.970651
_cell_angle_beta	92.978582
_cell_angle_gamma	84.193416
loop_
_atom_site_label
_atom_site_type_symbol
_atom_site_fract_x
_atom_site_fract_y
_atom_site_fract_z
O1	O	1.511366	0.160002	0.072046
O2	O	2.011366	0.660002	0.572046
O3	O	1.181026	0.176037	0.072066
O4	O	1.681026	0.676037	0.572066
O5	O	1.354212	0.002849	0.072049
O6	O	1.854212	0.502849	0.572049
O7	O	1.338180	0.333190	0.072063
O8	O	1.838180	0.833190	0.572063
O9	O	1.345272	-0.006036	-0.072210
O10	O	1.845272	0.493964	0.427790
O11	O	1.172086	0.167152	-0.072193
O12	O	1.672086	0.667152	0.427807
O13	O	1.502426	0.151117	-0.072214
O14	O	2.002426	0.651117	0.427786
Cu15	Cu	1.336440	0.158323	-0.085376
Cu16	Cu	1.836440	0.658323	0.414624
Cu17	Cu	1.347013	0.168831	0.085228
Cu18	Cu	1.847013	0.668831	0.585228
O19	O	1.329240	0.324305	-0.072197
O20	O	1.829240	0.824305	0.427803
C21	C	1.134265	0.170587	-0.000061
C22	C	1.634265	0.670587	0.499939
C23	C	1.008252	0.167573	-0.000054
C24	C	1.508252	0.667573	0.499946
C25	C	1.348735	-0.043885	-0.000080
C26	C	1.848735	0.456115	0.499920
C27	C	1.345721	-0.169899	-0.000079
C28	C	1.845721	0.330101	0.499921
C29	C	1.340179	-0.400610	-0.000064
C30	C	1.840179	0.099390	0.499936
C31	C	1.343258	-0.272225	-0.000072
C32	C	1.843258	0.227775	0.499928
C33	C	0.777538	0.162029	-0.000079
C34	C	1.277538	0.662029	0.499921
C35	C	0.905924	0.165109	-0.000065
C36	C	1.405924	0.665109	0.499935
C37	C	1.549187	0.156567	-0.000085
C38	C	2.049187	0.656567	0.499915
C39	C	1.675200	0.159581	-0.000086
C40	C	2.175200	0.659581	0.499914
C41	C	1.334717	0.371039	-0.000066
C42	C	1.834717	0.871039	0.499934
C43	C	1.337732	0.497053	-0.000061
C44	C	1.837732	0.997053	0.499939
N45	N	1.329011	0.150932	-0.205369
N46	N	1.829011	0.650932	0.294631
C47	C	1.288002	0.109726	-0.749365
C48	C	1.788002	0.609726	-0.249365
C49	C	1.293613	0.115360	-0.658559
C50	C	1.793613	0.615360	-0.158559
C51	C	1.365666	0.187486	-0.613168
C52	C	1.865666	0.687486	-0.113168
C53	C	1.432121	0.253975	-0.658587
C54	C	1.932121	0.753975	-0.158587
C55	C	1.426516	0.248335	-0.749392
C56	C	1.926516	0.748335	-0.249392
C57	C	1.389861	0.211781	-0.341593
C58	C	1.889861	0.711781	0.158407
C59	C	1.395459	0.217419	-0.250782
C60	C	1.895459	0.717419	0.249218
C61	C	1.256951	0.078801	-0.250760
C62	C	1.756951	0.578801	0.249240
C63	C	1.251347	0.073172	-0.341567
C64	C	1.751347	0.573172	0.158433
C65	C	1.317807	0.139657	-0.386978
C66	C	1.817807	0.639657	0.113022
N67	N	1.371400	0.193249	-0.520349
N68	N	1.871400	0.693249	-0.020349
N69	N	1.312079	0.133887	-0.479795
N70	N	1.812079	0.633887	0.020205
N71	N	1.354450	0.176213	0.205221
N72	N	1.854450	0.676213	0.705221
H73	H	1.239507	0.061216	-0.621588
H74	H	1.739507	0.561216	-0.121588
O75	O	1.461531	0.283500	-0.390563
O76	O	1.961531	0.783500	0.109437
H77	H	1.519660	0.226935	-0.431909
H78	H	2.019660	0.726935	0.068091
H79	H	1.480626	0.302475	-0.786366
H80	H	1.980626	0.802475	-0.286366
H81	H	1.454131	0.276161	-0.213827
H82	H	1.954131	0.776161	0.286173
H83	H	1.229322	0.050999	-0.786317
H84	H	1.729322	0.550999	-0.286317
H85	H	1.490794	0.312697	-0.621622
H86	H	1.990794	0.812697	-0.121622
H87	H	1.192676	0.014437	-0.378518
H88	H	1.692676	0.514437	0.121482
O89	O	1.185341	0.007054	-0.201758
O90	O	1.685341	0.507054	0.298242
H91	H	1.127230	0.063588	-0.160377
H92	H	1.627230	0.563588	0.339623
