data_functionalizedCrystal
_audit_creation_method	'MofGen! by Chris Wilmer'
_symmetry_space_group_name_H-M	'P1'
_symmetry_Int_Tables_number	1
_symmetry_cell_setting	triclinic
loop_
_symmetry_equiv_pos_as_xyz
  x,y,z
_cell_length_a	21.295417
_cell_length_b	12.594517
_cell_length_c	12.594509
_cell_angle_alpha	90.007751
_cell_angle_beta	89.963755
_cell_angle_gamma	89.975850
loop_
_atom_site_label
_atom_site_type_symbol
_atom_site_fract_x
_atom_site_fract_y
_atom_site_fract_z
Zn1	Zn	-0.250697	-1.627160	-0.601415
Zn2	Zn	0.249303	-1.127160	-0.101415
Zn3	Zn	-0.355976	-1.627006	-0.423412
Zn4	Zn	0.144024	-1.127006	0.076588
Zn5	Zn	-0.250713	-1.449164	-0.423486
Zn6	Zn	0.249287	-0.949164	0.076514
Zn7	Zn	-0.355921	-1.449101	-0.601384
Zn8	Zn	0.144079	-0.949101	-0.101384
O9	O	-0.303327	-1.538108	-0.512424
O10	O	0.196673	-1.038108	-0.012424
O11	O	-0.264679	-1.776085	-0.577784
O12	O	0.235321	-1.276085	-0.077784
O13	O	-0.342042	-1.603376	-0.274476
O14	O	0.157958	-1.103376	0.225524
O15	O	-0.162621	-1.472866	-0.447133
O16	O	0.337379	-0.972866	0.052867
O17	O	-0.342027	-1.775972	-0.447006
O18	O	0.157973	-1.275972	0.052994
O19	O	-0.162610	-1.603639	-0.577857
O20	O	0.337390	-1.103639	-0.077857
O21	O	-0.264706	-1.472717	-0.274530
O22	O	0.235294	-0.972717	0.225470
O23	O	-0.264652	-1.300210	-0.447103
O24	O	0.235348	-0.800210	0.052897
O25	O	-0.341933	-1.472759	-0.750334
O26	O	0.158067	-0.972759	-0.250334
O27	O	-0.341948	-1.300164	-0.577803
O28	O	0.158052	-0.800164	-0.077803
O29	O	-0.264626	-1.603578	-0.750357
O30	O	0.235374	-1.103578	-0.250357
O31	O	-0.444058	-1.603316	-0.446976
O32	O	0.055942	-1.103316	0.053024
O33	O	-0.444017	-1.472610	-0.577731
O34	O	0.055983	-0.972610	-0.077731
C35	C	-0.303296	-1.261567	-0.512458
C36	C	0.196704	-0.761567	-0.012458
C37	C	-0.303299	-1.143261	-0.512498
C38	C	0.196701	-0.643261	-0.012498
C39	C	-0.345421	-1.074014	-0.583453
C40	C	0.154579	-0.574014	-0.083453
C41	C	-0.288024	-1.003230	-0.609650
C42	C	0.211976	-0.503230	-0.109650
C43	C	-0.360738	-1.003246	-0.486292
C44	C	0.139262	-0.503246	0.013708
C45	C	-0.245872	-1.074035	-0.538745
C46	C	0.254128	-0.574035	-0.038745
C47	C	-0.318624	-1.074058	-0.415342
C48	C	0.181376	-0.574058	0.084658
C49	C	-0.261188	-1.003306	-0.441502
C50	C	0.238812	-0.503306	0.058498
C51	C	-0.466878	-1.537968	-0.512365
C52	C	0.033122	-1.037968	-0.012365
C53	C	-0.536846	-1.538006	-0.512376
C54	C	-0.036846	-1.038006	-0.012376
C55	C	-0.569713	-1.606125	-0.444361
C56	C	-0.069713	-1.106125	0.055639
C57	C	-0.635456	-1.606175	-0.444385
C58	C	-0.135456	-1.106175	0.055615
C59	C	-0.668329	-1.538087	-0.512412
C60	C	-0.168329	-1.038087	-0.012412
C61	C	-0.635454	-1.469963	-0.580440
C62	C	-0.135454	-0.969963	-0.080440
C63	C	-0.569713	-1.469922	-0.580422
C64	C	-0.069713	-0.969922	-0.080422
N65	N	-0.771588	-1.444976	-0.520538
N66	N	-0.271588	-0.944976	-0.020538
N67	N	-0.834040	-1.445018	-0.520549
N68	N	-0.334040	-0.945018	-0.020549
C69	C	-0.866404	-1.538206	-0.512473
C70	C	-0.366404	-1.038206	-0.012473
N71	N	-0.833957	-1.631353	-0.504365
N72	N	-0.333957	-1.131353	-0.004365
N73	N	-0.771500	-1.631311	-0.504348
N74	N	-0.271500	-1.131311	-0.004348
C75	C	-0.739614	-1.538123	-0.512440
C76	C	-0.239614	-1.038123	-0.012440
C77	C	-0.970556	-1.606385	-0.444481
C78	C	-0.470556	-1.106385	0.055519
C79	C	-1.036300	-1.606436	-0.444512
C80	C	-0.536300	-1.106436	0.055488
C81	C	-1.036297	-1.470215	-0.580562
C82	C	-0.536297	-0.970215	-0.080562
C83	C	-0.970554	-1.470173	-0.580536
C84	C	-0.470554	-0.970173	-0.080536
C85	C	-0.937688	-1.538256	-0.512490
C86	C	-0.437688	-1.038256	-0.012490
C87	C	-0.139136	-1.538277	-0.512507
C88	C	0.360864	-1.038277	-0.012507
C89	C	-0.069168	-1.538349	-0.512542
C90	C	0.430832	-1.038349	-0.012542
C91	C	-0.303271	-1.538179	-0.790045
C92	C	0.196729	-1.038179	-0.290045
C93	C	-0.303248	-1.538209	-0.908351
C94	C	0.196752	-1.038209	-0.408351
C95	C	-0.303352	-0.815728	-0.512407
C96	C	0.196648	-0.315728	-0.012407
C97	C	-0.303347	-0.934034	-0.512441
C98	C	0.196653	-0.434034	-0.012441
C99	C	-0.345272	-1.467079	-0.977591
C100	C	0.154728	-0.967079	-0.477591
C101	C	-0.360658	-1.564193	-1.048355
C102	C	0.139342	-1.064193	-0.548355
C103	C	-0.287823	-1.441171	-1.048386
C104	C	0.212177	-0.941171	-0.548386
C105	C	-0.318665	-1.635374	-0.977556
C106	C	0.181335	-1.135374	-0.477556
C107	C	-0.245803	-1.512287	-0.977581
C108	C	0.254197	-1.012287	-0.477581
C109	C	-0.261168	-1.609468	-1.048313
C110	C	0.238832	-1.109468	-0.548313
C111	C	-0.303336	-1.538098	-0.235883
C112	C	0.196664	-1.038098	0.264117
C113	C	-0.303182	-1.538274	-0.117578
C114	C	0.196818	-1.038274	0.382422
H115	H	-0.225546	-0.972455	-0.381473
H116	H	0.274454	-0.472455	0.118527
Br117	Br	-0.525105	-1.377469	-0.672736
Br118	Br	-0.025105	-0.877469	-0.172736
Br119	Br	-0.404592	-1.366897	-0.925831
Br120	Br	0.095408	-0.866897	-0.425831
Br121	Br	-0.441580	-1.600801	-1.100171
Br122	Br	0.058420	-1.100801	-0.600171
Br123	Br	-0.340463	-1.772237	-0.925927
Br124	Br	0.159537	-1.272237	-0.425927
Br125	Br	-0.404684	-1.125765	-0.683575
Br126	Br	0.095316	-0.625765	-0.183575
Br127	Br	-0.201888	-1.709881	-1.099750
Br128	Br	0.298112	-1.209881	-0.599750
Br129	Br	-0.925947	-1.698777	-0.352132
Br130	Br	-0.425947	-1.198777	0.147868
Br131	Br	-0.680071	-1.698629	-0.352073
Br132	Br	-0.180071	-1.198629	0.147927
Br133	Br	-0.164901	-1.475638	-0.925722
Br134	Br	0.335099	-0.975638	-0.425722
H135	H	-0.662224	-1.414527	-0.635830
H136	H	-0.162224	-0.914527	-0.135830
Br137	Br	-0.266444	-0.951376	-0.746550
Br138	Br	0.233556	-0.451376	-0.246550
H139	H	-1.063059	-1.661914	-0.389129
H140	H	-0.563059	-1.161914	0.110871
H141	H	-0.274804	-1.359080	-1.079499
H142	H	0.225196	-0.859080	-0.579499
H143	H	-1.063061	-1.414781	-0.635956
H144	H	-0.563061	-0.914781	-0.135956
H145	H	-0.331586	-1.105193	-0.333228
H146	H	0.168414	-0.605193	0.166772
Br147	Br	-0.441664	-0.951414	-0.449387
Br148	Br	0.058336	-0.451414	0.050613
Br149	Br	-0.164918	-1.125636	-0.575804
Br150	Br	0.335082	-0.625636	-0.075804
Br151	Br	-0.525111	-1.698538	-0.352028
Br152	Br	-0.025111	-1.198538	0.147972
H153	H	-0.943792	-1.414699	-0.635916
H154	H	-0.443792	-0.914699	-0.135916
