data_functionalizedCrystal
_audit_creation_method	'MofGen! by Chris Wilmer'
_symmetry_space_group_name_H-M	'P1'
_symmetry_Int_Tables_number	1
_symmetry_cell_setting	triclinic
loop_
_symmetry_equiv_pos_as_xyz
  x,y,z
_cell_length_a	17.699077
_cell_length_b	17.699083
_cell_length_c	13.448316
_cell_angle_alpha	90.003125
_cell_angle_beta	90.007944
_cell_angle_gamma	83.281795
loop_
_atom_site_label
_atom_site_type_symbol
_atom_site_fract_x
_atom_site_fract_y
_atom_site_fract_z
O1	O	1.004083	0.095686	0.082681
O2	O	0.783704	0.108144	0.082686
O3	O	0.900120	-0.008274	0.082674
O4	O	0.887668	0.212104	0.082692
O5	O	0.900101	-0.008271	-0.082710
O6	O	0.783685	0.108147	-0.082698
O7	O	1.004064	0.095689	-0.082703
Cu8	Cu	0.893873	0.101918	-0.097801
Cu9	Cu	0.893896	0.101915	0.097784
O10	O	0.887648	0.212107	-0.082692
C11	C	0.755498	0.107700	-0.000006
C12	C	0.671479	0.106363	-0.000004
C13	C	0.899664	-0.036470	-0.000018
C14	C	0.898326	-0.120488	-0.000018
C15	C	0.632001	0.105734	-0.090156
C16	C	0.553059	0.104466	-0.090157
C17	C	0.513595	0.103832	-0.000005
C18	C	0.553079	0.104458	0.090154
C19	C	0.632021	0.105721	0.090154
C20	C	0.234715	0.099365	0.090155
C21	C	0.155768	0.098104	0.090148
C22	C	0.155754	0.098110	-0.090156
C23	C	0.234695	0.099373	-0.090155
C24	C	0.274173	0.099995	0.000003
C25	C	0.359772	0.101369	0.000003
C26	C	0.427997	0.102464	-0.000004
C27	C	0.966659	-0.169110	-0.000021
C28	C	0.965397	-0.248054	-0.000012
C29	C	0.895800	-0.278373	-0.000008
C30	C	0.827461	-0.229744	-0.000002
C31	C	0.828724	-0.150803	-0.000003
C32	C	0.822366	-0.548107	0.000007
C33	C	0.821108	-0.627055	0.000005
C34	C	0.959039	-0.645358	-0.000002
C35	C	0.960302	-0.566417	-0.000004
C36	C	0.891963	-0.517795	0.000007
C37	C	0.893333	-0.432196	-0.000001
C38	C	0.894430	-0.363971	-0.000007
C39	C	1.032271	0.096133	-0.000010
C40	C	1.116289	0.097470	-0.000005
C41	C	0.888104	0.240303	0.000002
C42	C	0.889443	0.324321	0.000009
N43	N	0.893862	0.101920	-0.235366
C44	C	0.945469	0.050378	-0.712589
C45	C	0.945462	0.050383	-0.608486
C46	C	0.893896	0.101914	-0.556447
C47	C	0.842337	0.153448	-0.608517
C48	C	0.842347	0.153446	-0.712618
C49	C	0.842317	0.153448	-0.391537
C50	C	0.842306	0.153449	-0.287428
C51	C	0.945432	0.050385	-0.287405
C52	C	0.945443	0.050382	-0.391506
C53	C	0.893883	0.101916	-0.443568
N54	N	0.893912	0.101907	0.235348
H55	H	0.520921	0.103942	-0.163568
H56	H	0.664162	0.106234	0.163565
C57	C	0.750114	-0.051402	-0.085015
C58	C	0.753611	-0.097352	-0.000001
H59	H	0.703742	-0.018402	-0.085004
H60	H	0.752475	-0.082579	-0.142678
H61	H	0.791748	-0.022052	-0.085007
H62	H	0.711980	-0.126706	-0.000013
H63	H	0.751242	-0.066171	0.057677
H64	H	0.266849	0.099869	0.163567
H65	H	0.800366	0.195407	-0.755006
H66	H	0.987457	0.008412	-0.754953
C67	C	1.047388	-0.051500	-0.618919
C68	C	1.002131	-0.006264	-0.551259
H69	H	1.082371	-0.086475	-0.583588
H70	H	1.074556	-0.020031	-0.659510
H71	H	1.015930	-0.078682	-0.659536
H72	H	1.033589	0.020923	-0.510647
H73	H	0.974961	-0.037736	-0.510652
C74	C	0.740407	0.255327	-0.619004
C75	C	0.785655	0.210096	-0.551319
H76	H	0.705416	0.290301	-0.583692
H77	H	0.713249	0.223855	-0.659617
H78	H	0.771871	0.282510	-0.659596
H79	H	0.754191	0.182908	-0.510732
H80	H	0.812814	0.241572	-0.510689
H81	H	1.021041	-0.287639	-0.000017
C82	C	0.685899	-0.537956	-0.000008
C83	C	0.747249	-0.494669	-0.000000
H84	H	0.639524	-0.504961	-0.000021
H85	H	0.688279	-0.569121	0.057664
H86	H	0.688281	-0.569133	-0.057683
H87	H	0.744870	-0.463496	0.057679
H88	H	0.744868	-0.463491	-0.057678
C89	C	1.023481	-0.453532	-0.000011
C90	C	1.036804	-0.533090	-0.000008
H91	H	1.070712	-0.432960	-0.000016
H92	H	0.995361	-0.436837	0.057658
H93	H	0.995345	-0.436843	-0.057689
H94	H	1.064935	-0.549778	0.057674
H95	H	1.064936	-0.549791	-0.057683
H96	H	0.664126	0.106257	-0.163568
H97	H	1.023333	-0.144431	-0.000031
H98	H	0.123639	0.097587	0.163565
C99	C	0.226751	0.099243	-0.268385
C100	C	0.278073	0.100067	-0.189253
H101	H	0.253533	0.099664	-0.329563
H102	H	0.190109	0.142868	-0.264636
H103	H	0.201815	0.054629	-0.264629
H104	H	0.303006	0.144683	-0.193005
H105	H	0.314729	0.056437	-0.193003
C106	C	0.990003	-0.080739	-0.255705
C107	C	1.002109	-0.006371	-0.230345
H108	H	1.024986	-0.115809	-0.220519
H109	H	0.997309	-0.087997	-0.325174
H110	H	0.939505	-0.088850	-0.238604
H111	H	1.052605	0.001742	-0.247453
H112	H	0.994809	0.000890	-0.160861
H113	H	0.987429	0.008419	-0.433876
H114	H	1.014683	-0.684956	-0.000006
H115	H	0.770794	-0.254436	0.000008
H116	H	0.800315	0.195412	-0.245063
C117	C	0.739689	-0.705219	0.085036
C118	C	0.744603	-0.660386	0.000020
H119	H	0.692463	-0.725800	0.085039
H120	H	0.743055	-0.674802	0.142698
H121	H	0.780213	-0.745470	0.085016
H122	H	0.704082	-0.620131	0.000044
H123	H	0.741230	-0.690805	-0.057657
H124	H	0.123602	0.097600	-0.163567
H125	H	0.520942	0.103936	0.163557
H126	H	0.800334	0.195415	-0.433923
