data_functionalizedCrystal
_audit_creation_method	'MofGen! by Chris Wilmer'
_symmetry_space_group_name_H-M	'P1'
_symmetry_Int_Tables_number	1
_symmetry_cell_setting	triclinic
loop_
_symmetry_equiv_pos_as_xyz
  x,y,z
_cell_length_a	15.944551
_cell_length_b	15.944551
_cell_length_c	17.766277
_cell_angle_alpha	90.005497
_cell_angle_beta	90.001231
_cell_angle_gamma	83.498738
loop_
_atom_site_label
_atom_site_type_symbol
_atom_site_fract_x
_atom_site_fract_y
_atom_site_fract_z
O1	O	1.114526	0.108332	0.062517
O2	O	1.614526	0.608332	0.562517
O3	O	0.869976	0.121688	0.062536
O4	O	1.369976	0.621688	0.562536
O5	O	0.998929	-0.007265	0.062520
O6	O	1.498929	0.492735	0.562520
O7	O	0.985573	0.237285	0.062534
O8	O	1.485573	0.737285	0.562534
O9	O	0.998915	-0.007268	-0.062669
O10	O	1.498915	0.492732	0.437331
O11	O	0.869962	0.121685	-0.062652
O12	O	1.369962	0.621685	0.437348
O13	O	1.114511	0.108328	-0.062671
O14	O	1.614511	0.608328	0.437329
Cu15	Cu	0.992235	0.115006	-0.074092
Cu16	Cu	1.492235	0.615006	0.425908
Cu17	Cu	0.992252	0.115010	0.073958
Cu18	Cu	1.492252	0.615010	0.573958
O19	O	0.985559	0.237281	-0.062654
O20	O	1.485559	0.737281	0.437346
C21	C	0.838675	0.121132	-0.000056
C22	C	1.338675	0.621132	0.499944
C23	C	0.745429	0.119470	-0.000049
C24	C	1.245429	0.619470	0.499951
C25	C	0.998367	-0.038561	-0.000075
C26	C	1.498367	0.461439	0.499925
C27	C	0.996705	-0.131807	-0.000075
C28	C	1.496705	0.368193	0.499925
C29	C	0.530572	0.035565	-0.000068
C30	C	1.030572	0.535565	0.499932
C31	C	0.469559	0.074529	0.061659
C32	C	0.969559	0.574529	0.561659
C33	C	0.574703	0.116462	-0.000058
C34	C	1.074703	0.616462	0.499942
C35	C	0.469567	0.074545	-0.061767
C36	C	0.969567	0.574545	0.438233
C37	C	0.409790	0.113551	-0.000070
C38	C	0.909790	0.613551	0.499930
C39	C	0.514918	0.155448	0.061720
C40	C	1.014918	0.655448	0.561720
C41	C	0.514933	0.155453	-0.061761
C42	C	1.014933	0.655453	0.438239
C43	C	0.453937	0.194476	-0.000019
C44	C	0.953937	0.694476	0.499981
C45	C	0.669705	0.118137	-0.000050
C46	C	1.169705	0.618137	0.499950
C47	C	0.314789	0.111883	-0.000072
C48	C	0.814789	0.611883	0.499928
C49	C	0.912801	-0.346663	-0.000058
C50	C	1.412801	0.153337	0.499942
C51	C	0.951756	-0.407682	-0.061787
C52	C	1.451756	0.092318	0.438213
C53	C	0.993698	-0.302533	-0.000069
C54	C	1.493698	0.197467	0.499931
C55	C	0.951789	-0.407663	0.061639
C56	C	1.451789	0.092337	0.561639
C57	C	0.990787	-0.467445	-0.000060
C58	C	1.490787	0.032555	0.499940
C59	C	1.032675	-0.362323	-0.061849
C60	C	1.532675	0.137677	0.438151
C61	C	1.032697	-0.362297	0.061633
C62	C	1.532697	0.137703	0.561633
C63	C	1.071711	-0.423298	-0.000111
C64	C	1.571711	0.076702	0.499889
C65	C	0.995372	-0.207530	-0.000075
C66	C	1.495372	0.292470	0.499925
C67	C	0.989119	-0.562446	-0.000060
C68	C	1.489119	-0.062446	0.499940
C69	C	1.145813	0.108885	-0.000078
C70	C	1.645813	0.608885	0.499922
C71	C	1.239059	0.110547	-0.000080
C72	C	1.739059	0.610547	0.499920
C73	C	0.986120	0.268577	-0.000058
C74	C	1.486120	0.768577	0.499942
C75	C	0.987782	0.361823	-0.000053
C76	C	1.487782	0.861823	0.499947
N77	N	0.992230	0.115003	-0.178223
N78	N	1.492230	0.615003	0.321777
C79	C	1.049366	0.057922	-0.782519
C80	C	1.549366	0.557922	-0.282519
C81	C	1.049368	0.057924	-0.703717
C82	C	1.549368	0.557924	-0.203717
C83	C	0.992252	0.115002	-0.664312
C84	C	1.492252	0.615002	-0.164312
C85	C	0.935146	0.172098	-0.703714
C86	C	1.435146	0.672098	-0.203714
C87	C	0.935152	0.172100	-0.782515
C88	C	1.435152	0.672100	-0.282515
C89	C	0.915749	0.125969	-0.539474
C90	C	1.415749	0.625969	-0.039474
C91	C	0.915742	0.125961	-0.460675
C92	C	1.415742	0.625961	0.039325
C93	C	0.992234	0.115001	-0.421265
C94	C	1.492234	0.615001	0.078735
C95	C	1.068737	0.104031	-0.460664
C96	C	1.568737	0.604031	0.039336
C97	C	1.068743	0.104033	-0.539465
C98	C	1.568743	0.604033	-0.039465
C99	C	0.992240	0.115007	-0.578866
C100	C	1.492240	0.615007	-0.078866
C101	C	1.049342	0.057915	-0.296426
C102	C	1.549342	0.557915	0.203574
C103	C	1.049344	0.057923	-0.217623
C104	C	1.549344	0.557923	0.282377
C105	C	0.935116	0.172093	-0.217622
C106	C	1.435116	0.672093	0.282378
C107	C	0.935121	0.172089	-0.296423
C108	C	1.435121	0.672089	0.203577
C109	C	0.992233	0.114996	-0.335821
C110	C	1.492233	0.614996	0.164179
N111	N	0.992265	0.115006	0.178088
N112	N	1.492265	0.615006	0.678088
H113	H	0.563905	-0.031573	0.000004
H114	H	1.063905	0.468427	0.500004
F115	F	1.110146	-0.002837	-0.661785
F116	F	1.610146	0.497163	-0.161785
H117	H	0.449455	0.040314	0.113840
H118	H	0.949455	0.540314	0.613840
H119	H	0.917568	-0.427738	0.113830
H120	H	1.417568	0.072262	0.613830
H121	H	1.066857	-0.342334	-0.114093
H122	H	1.566857	0.157666	0.385907
F123	F	0.834323	0.137693	-0.418751
F124	F	1.334323	0.637693	0.081249
F125	F	1.150161	0.092365	-0.581393
F126	F	1.650161	0.592365	-0.081393
F127	F	1.077391	-0.335982	0.129841
F128	F	1.577391	0.164018	0.629841
H129	H	1.095872	0.011435	-0.814594
H130	H	1.595872	0.511435	-0.314594
H131	H	0.420779	0.261683	0.000019
H132	H	0.920779	0.761683	0.500019
H133	H	1.138919	-0.456457	-0.000151
H134	H	1.638919	0.043543	0.499849
F135	F	1.150153	0.092361	-0.418729
F136	F	1.650153	0.592361	0.081271
H137	H	1.095849	0.011429	-0.328505
H138	H	1.595849	0.511429	0.171495
F139	F	1.110127	-0.002832	-0.175696
F140	F	1.610127	0.497168	0.324304
F141	F	0.874374	0.232859	-0.824442
F142	F	1.374374	0.732859	-0.324442
F143	F	0.874335	0.232845	-0.175687
F144	F	1.374335	0.732845	0.324313
F145	F	0.874342	0.232843	-0.338352
F146	F	1.374342	0.732843	0.161648
H147	H	0.534912	0.189640	0.113962
H148	H	1.034912	0.689640	0.613962
H149	H	0.449475	0.040313	-0.113951
H150	H	0.949475	0.540313	0.386049
F151	F	0.541241	0.200138	-0.129970
F152	F	1.041241	0.700138	0.370030
H153	H	0.853455	0.134898	-0.571554
H154	H	1.353455	0.634898	-0.071554
H155	H	0.845652	-0.313356	-0.000115
H156	H	1.345652	0.186644	0.499885
F157	F	0.907027	-0.433967	-0.129992
F158	F	1.407027	0.066033	0.370008
F159	F	0.874363	0.232848	-0.661776
F160	F	1.374363	0.732848	-0.161776
