data_functionalizedCrystal
_audit_creation_method	'MofGen! by Chris Wilmer'
_symmetry_space_group_name_H-M	'P1'
_symmetry_Int_Tables_number	1
_symmetry_cell_setting	triclinic
loop_
_symmetry_equiv_pos_as_xyz
  x,y,z
_cell_length_a	17.019311
_cell_length_b	16.098538
_cell_length_c	11.792254
_cell_angle_alpha	87.258456
_cell_angle_beta	83.796913
_cell_angle_gamma	96.609511
loop_
_atom_site_label
_atom_site_type_symbol
_atom_site_fract_x
_atom_site_fract_y
_atom_site_fract_z
O1	O	1.054645	0.144891	0.134015
O2	O	0.824222	0.128368	0.153655
O3	O	0.945020	0.137024	-0.021422
O4	O	0.933848	0.136235	0.309092
O5	O	0.937964	-0.001994	-0.011234
O6	O	0.817166	-0.010650	0.163842
O7	O	1.047589	0.005873	0.144202
Zn8	Zn	0.931257	-0.024461	0.155640
Zn9	Zn	0.940554	0.158702	0.142218
O10	O	0.926791	-0.002784	0.319279
C11	C	0.791195	0.056743	0.158203
C12	C	0.703296	0.050440	0.156565
N13	N	0.924917	-0.149465	0.164799
C14	C	0.205962	0.010990	0.147615
C15	C	0.288553	0.016915	0.149154
C16	C	0.333695	0.095657	0.144362
C17	C	0.296243	0.168480	0.138042
C18	C	0.213653	0.162555	0.136511
C19	C	0.583254	0.117338	0.148714
C20	C	0.665849	0.123258	0.150242
C21	C	0.658153	-0.028309	0.161356
C22	C	0.575563	-0.034227	0.159818
C23	C	0.538117	0.038596	0.153504
C24	C	0.418116	0.101715	0.145931
C25	C	0.453697	0.032538	0.151942
C26	C	0.976208	-0.189374	0.090516
C27	C	0.971781	-0.276880	0.096934
C28	C	0.916066	-0.324475	0.177642
C29	C	0.864770	-0.284560	0.251928
C30	C	0.869194	-0.197055	0.245504
C31	C	0.900028	-0.588874	0.200911
C32	C	0.895610	-0.676385	0.207332
C33	C	1.002619	-0.668699	0.052336
C34	C	1.007042	-0.581193	0.045923
C35	C	0.955743	-0.541286	0.120206
C36	C	0.911541	-0.413921	0.184206
C37	C	0.960265	-0.451842	0.113635
C38	C	1.080617	0.077499	0.139654
C39	C	1.168516	0.083808	0.141292
C40	C	0.940788	0.067465	-0.058608
C41	C	0.938681	0.067315	-0.184588
N42	N	0.946900	0.283706	0.133049
C43	C	0.936970	0.067195	-0.286898
C44	C	0.934830	0.067049	-0.415251
C45	C	0.931023	0.066778	0.356465
C46	C	0.933130	0.066934	0.482444
H47	H	0.169212	-0.053130	0.151522
H48	H	0.858260	-0.556389	0.261397
H49	H	0.866179	-0.452679	0.249922
H50	H	0.538815	-0.098347	0.163695
C51	C	0.542076	0.197447	0.141744
N52	N	0.511060	0.257788	0.136487
C53	C	0.699347	-0.108408	0.168348
N54	N	0.730372	-0.168743	0.173633
H55	H	0.319038	-0.042381	0.154300
H56	H	1.021580	-0.150628	0.024800
H57	H	0.819402	-0.323317	0.317639
H58	H	0.827427	-0.164562	0.305992
H59	H	0.454881	0.165827	0.142026
C60	C	0.715504	0.209884	0.144987
N61	N	0.752903	0.275128	0.141034
H62	H	1.005625	-0.413088	0.047918
C63	C	0.172463	0.242660	0.129551
N64	N	0.141439	0.302998	0.124311
C65	C	0.345903	0.255098	0.132768
N66	N	0.383307	0.320341	0.128789
H67	H	1.052409	-0.542443	-0.019796
H68	H	0.416938	-0.031574	0.155850
C69	C	1.028185	-0.320778	0.015188
N70	N	1.070665	-0.353842	-0.046397
C71	C	0.834315	-0.728738	0.296118
N72	N	0.788150	-0.768170	0.362988
C73	C	1.059038	-0.712605	-0.029379
N74	N	1.101531	-0.745675	-0.090934
