data_functionalizedCrystal
_audit_creation_method	'MofGen! by Chris Wilmer'
_symmetry_space_group_name_H-M	'P1'
_symmetry_Int_Tables_number	1
_symmetry_cell_setting	triclinic
loop_
_symmetry_equiv_pos_as_xyz
  x,y,z
_cell_length_a	19.121063
_cell_length_b	18.215407
_cell_length_c	18.215399
_cell_angle_alpha	90.018561
_cell_angle_beta	92.409843
_cell_angle_gamma	87.539312
loop_
_atom_site_label
_atom_site_type_symbol
_atom_site_fract_x
_atom_site_fract_y
_atom_site_fract_z
Zn1	Zn	-0.279774	-1.112552	-0.428578
Zn2	Zn	0.220226	-0.612552	0.071422
Zn3	Zn	-0.397229	-1.107204	-0.310755
Zn4	Zn	0.102771	-0.607204	0.189245
Zn5	Zn	-0.279780	-0.989484	-0.305529
Zn6	Zn	0.220220	-0.489484	0.194471
Zn7	Zn	-0.397172	-0.984197	-0.433780
Zn8	Zn	0.102828	-0.484197	0.066220
O9	O	-0.338489	-1.048359	-0.369660
O10	O	0.161511	-0.548359	0.130340
O11	O	-0.295377	-1.214826	-0.412959
O12	O	0.204623	-0.714826	0.087041
O13	O	-0.381675	-1.091563	-0.207078
O14	O	0.118325	-0.591563	0.292922
O15	O	-0.181495	-1.010260	-0.317488
O16	O	0.318505	-0.510260	0.182512
O17	O	-0.381670	-1.210897	-0.326394
O18	O	0.118330	-0.710897	0.173606
O19	O	-0.181491	-1.100678	-0.407892
O20	O	0.318509	-0.600678	0.092108
O21	O	-0.295385	-1.005075	-0.203239
O22	O	0.204615	-0.505075	0.296761
O23	O	-0.295330	-0.885800	-0.322531
O24	O	0.204670	-0.385800	0.177469
O25	O	-0.381573	-1.001249	-0.536073
O26	O	0.118427	-0.501249	-0.036073
O27	O	-0.381578	-0.881915	-0.416757
O28	O	0.118422	-0.381915	0.083243
O29	O	-0.295321	-1.095551	-0.532252
O30	O	0.204679	-0.595551	-0.032252
O31	O	-0.495505	-1.086436	-0.331438
O32	O	0.004495	-0.586436	0.168562
O33	O	-0.495463	-0.996063	-0.421824
O34	O	0.004537	-0.496063	0.078176
C35	C	-0.338449	-0.857155	-0.369642
C36	C	0.161551	-0.357155	0.130358
C37	C	-0.338449	-0.775356	-0.369652
C38	C	0.161551	-0.275356	0.130348
C39	C	-0.293617	-0.512334	-0.414805
C40	C	0.206383	-0.012334	0.085195
C41	C	-0.293610	-0.589193	-0.414804
C42	C	0.206390	-0.089193	0.085196
C43	C	-0.383336	-0.585127	-0.324517
C44	C	0.116664	-0.085127	0.175483
C45	C	-0.383347	-0.508269	-0.324523
C46	C	0.116653	-0.008269	0.175477
C47	C	-0.338484	-0.471875	-0.369666
C48	C	0.161516	0.028125	0.130334
C49	C	-0.338465	-0.625592	-0.369658
C50	C	0.161535	-0.125592	0.130342
C51	C	-0.338457	-0.708926	-0.369656
C52	C	0.161543	-0.208926	0.130344
C53	C	-0.338493	-0.388535	-0.369670
C54	C	0.161507	0.111465	0.130330
C55	C	-0.520968	-1.040116	-0.377779
C56	C	-0.020968	-0.540116	0.122221
C57	C	-0.599034	-1.036656	-0.381276
C58	C	-0.099034	-0.536656	0.118724
C59	C	-0.635708	-1.082120	-0.335899
C60	C	-0.135708	-0.582120	0.164101
C61	C	-0.709058	-1.078871	-0.339193
C62	C	-0.209058	-0.578871	0.160807
C63	C	-0.745734	-1.030154	-0.387861
C64	C	-0.245734	-0.530154	0.112139
C65	C	-0.709055	-0.984688	-0.433242
C66	C	-0.209055	-0.484688	0.066758
C67	C	-0.635706	-0.987942	-0.429952
C68	C	-0.135706	-0.487942	0.070048
C69	C	-0.967202	-1.017978	-0.400152
C70	C	-0.467202	-0.517978	0.099848
C71	C	-1.040557	-1.014727	-0.403437
C72	C	-0.540557	-0.514727	0.096563
C73	C	-1.040555	-1.108911	-0.309388
C74	C	-0.540555	-0.608911	0.190612
C75	C	-0.967204	-1.112157	-0.306099
C76	C	-0.467204	-0.612157	0.193901
C77	C	-0.930532	-1.066694	-0.351484
C78	C	-0.430532	-0.566694	0.148516
C79	C	-0.820711	-1.026830	-0.391227
C80	C	-0.320711	-0.526830	0.108773
C81	C	-0.855557	-1.070022	-0.348121
C82	C	-0.355557	-0.570022	0.151879
C83	C	-0.155296	-1.056655	-0.361527
C84	C	0.344704	-0.556655	0.138473
C85	C	-0.077231	-1.060191	-0.358060
C86	C	0.422769	-0.560191	0.141940
C87	C	-0.338440	-1.048406	-0.561611
C88	C	0.161560	-0.548406	-0.061611
C89	C	-0.338420	-1.048426	-0.643409
C90	C	0.161580	-0.548426	-0.143409
C91	C	-0.338517	-0.240311	-0.369676
C92	C	0.161483	0.259689	0.130324
C93	C	-0.338500	-0.322111	-0.369673
C94	C	0.161500	0.177889	0.130327
C95	C	-0.293467	-1.097548	-0.829613
C96	C	0.206533	-0.597548	-0.329613
C97	C	-0.293446	-1.097558	-0.906471
C98	C	0.206554	-0.597558	-0.406471
C99	C	-0.383264	-0.999361	-0.910439
C100	C	0.116736	-0.499361	-0.410439
C101	C	-0.383280	-0.999349	-0.833582
C102	C	0.116720	-0.499349	-0.333582
C103	C	-0.338383	-1.048446	-0.793171
C104	C	0.161617	-0.548446	-0.293171
C105	C	-0.338346	-1.048469	-0.946886
C106	C	0.161654	-0.548469	-0.446886
C107	C	-0.338324	-1.048479	-1.030218
C108	C	0.161676	-0.548479	-0.530218
C109	C	-0.338403	-1.048435	-0.709833
C110	C	0.161597	-0.548435	-0.209833
C111	C	-0.338486	-1.048357	-0.178454
C112	C	0.161514	-0.548357	0.321546
C113	C	-0.338309	-1.048489	-0.096648
C114	C	0.161691	-0.548489	0.403352
H115	H	-0.419887	-0.475326	-0.287765
H116	H	0.080113	0.024674	0.212235
H117	H	-0.605851	-1.121787	-0.296266
H118	H	-0.105851	-0.621787	0.203734
Br119	Br	-1.090331	-0.948594	-0.469478
Br120	Br	-0.590331	-0.448594	0.030522
H121	H	-0.738915	-1.115892	-0.302242
H122	H	-0.238915	-0.615892	0.197758
H123	H	-0.738922	-0.945025	-0.472872
H124	H	-0.238922	-0.445025	0.027128
H125	H	-0.256870	-1.137540	-0.936138
H126	H	0.243130	-0.637540	-0.436138
H127	H	-0.937349	-0.980959	-0.437104
H128	H	-0.437349	-0.480959	0.062896
H129	H	-0.257087	-0.482704	-0.451563
H130	H	0.242913	0.017296	0.048437
H131	H	-0.257076	-0.622132	-0.451561
H132	H	0.242924	-0.122132	0.048439
Br133	Br	-0.585933	-0.926243	-0.491542
Br134	Br	-0.085933	-0.426243	0.008458
Br135	Br	-0.444218	-0.634524	-0.263253
Br136	Br	0.055782	-0.134524	0.236747
H137	H	-0.825693	-1.109691	-0.308498
H138	H	-0.325693	-0.609691	0.191502
H139	H	-0.419820	-0.959390	-0.943351
H140	H	0.080180	-0.459390	-0.443351
H141	H	-1.070422	-1.145925	-0.272440
H142	H	-0.570422	-0.645925	0.227560
Br143	Br	-0.917435	-1.178285	-0.240057
Br144	Br	-0.417435	-0.678285	0.259943
Br145	Br	-0.870491	-0.960717	-0.457275
Br146	Br	-0.370491	-0.460717	0.042725
Br147	Br	-0.444236	-0.932699	-0.784121
Br148	Br	0.055764	-0.432699	-0.284121
Br149	Br	-0.232533	-1.164179	-0.774771
Br150	Br	0.267467	-0.664179	-0.274771
