data_functionalizedCrystal
_audit_creation_method	'MofGen! by Chris Wilmer'
_symmetry_space_group_name_H-M	'P1'
_symmetry_Int_Tables_number	1
_symmetry_cell_setting	triclinic
loop_
_symmetry_equiv_pos_as_xyz
  x,y,z
_cell_length_a	18.050591
_cell_length_b	19.121063
_cell_length_c	18.050582
_cell_angle_alpha	87.584968
_cell_angle_beta	90.020922
_cell_angle_gamma	92.465257
loop_
_atom_site_label
_atom_site_type_symbol
_atom_site_fract_x
_atom_site_fract_y
_atom_site_fract_z
Zn1	Zn	1.122676	-0.279734	0.432630
Zn2	Zn	1.622676	0.220266	0.932630
Zn3	Zn	1.117290	-0.397178	0.313729
Zn4	Zn	1.617290	0.102822	0.813729
Zn5	Zn	0.998495	-0.279737	0.308441
Zn6	Zn	1.498495	0.220263	0.808441
Zn7	Zn	0.993148	-0.397141	0.437863
Zn8	Zn	1.493148	0.102859	0.937863
O9	O	1.057903	-0.338447	0.373166
O10	O	1.557903	0.161553	0.873166
O11	O	1.225886	-0.295327	0.416880
O12	O	1.725886	0.204673	0.916880
O13	O	1.101515	-0.381616	0.209104
O14	O	1.601515	0.118384	0.709104
O15	O	1.019460	-0.181452	0.320512
O16	O	1.519460	0.318548	0.820512
O17	O	1.221929	-0.381613	0.329524
O18	O	1.721929	0.118387	0.829524
O19	O	1.110695	-0.181449	0.411753
O20	O	1.610695	0.318551	0.911753
O21	O	1.014237	-0.295332	0.205219
O22	O	1.514237	0.204668	0.705219
O23	O	0.893862	-0.295296	0.325586
O24	O	1.393862	0.204704	0.825586
O25	O	1.010347	-0.381550	0.541093
O26	O	1.510347	0.118450	1.041093
O27	O	0.889934	-0.381552	0.420672
O28	O	1.389934	0.118448	0.920672
O29	O	1.105510	-0.295291	0.537248
O30	O	1.605510	0.204709	1.037248
O31	O	1.096331	-0.495458	0.334599
O32	O	1.596331	0.004542	0.834599
O33	O	1.005124	-0.495430	0.425799
O34	O	1.505124	0.004570	0.925799
C35	C	0.864952	-0.338421	0.373123
C36	C	1.364952	0.161579	0.873123
C37	C	0.782406	-0.338427	0.373124
C38	C	1.282406	0.161573	0.873124
C39	C	1.049583	-0.520928	0.381357
C40	C	1.549583	-0.020928	0.881357
C41	C	1.046092	-0.598994	0.384886
C42	C	1.546092	-0.098994	0.884886
C43	C	0.585072	-0.291466	0.321528
C44	C	1.085072	0.208534	0.821528
C45	C	0.532763	-0.355526	0.306137
C46	C	1.032763	0.144474	0.806137
C47	C	0.631274	-0.338448	0.373158
C48	C	1.131274	0.161552	0.873158
C49	C	0.536500	-0.274410	0.388548
C50	C	1.036500	0.225590	0.888548
C51	C	0.485288	-0.338463	0.373190
C52	C	0.985288	0.161537	0.873190
C53	C	0.580051	-0.402542	0.357733
C54	C	1.080051	0.097458	0.857733
C55	C	0.583794	-0.321383	0.440174
C56	C	1.083794	0.178617	0.940174
C57	C	0.531506	-0.385487	0.424811
C58	C	1.031506	0.114513	0.924811
C59	C	0.715373	-0.338439	0.373138
C60	C	1.215373	0.161561	0.873138
C61	C	0.401191	-0.338480	0.373211
C62	C	0.901191	0.161520	0.873211
C63	C	1.091975	-0.635661	0.339100
C64	C	1.591975	-0.135661	0.839100
C65	C	1.088695	-0.709012	0.342424
C66	C	1.588695	-0.209012	0.842424
C67	C	1.039529	-0.745696	0.391530
C68	C	1.539529	-0.245696	0.891530
C69	C	0.993644	-0.709024	0.437321
C70	C	1.493644	-0.209024	0.937321
C71	C	0.996928	-0.635674	0.434001
C72	C	1.496928	-0.135674	0.934001
C73	C	1.027241	-0.967166	0.403932
C74	C	1.527241	-0.467166	0.903932
C75	C	1.023960	-1.040521	0.407247
C76	C	1.523960	-0.540521	0.907247
C77	C	1.119012	-1.040504	0.312351
C78	C	1.619012	-0.540504	0.812351
C79	C	1.122288	-0.967153	0.309032
C80	C	1.622288	-0.467153	0.809032
C81	C	1.076406	-0.930487	0.354825
C82	C	1.576406	-0.430487	0.854825
C83	C	1.036174	-0.820673	0.394927
C84	C	1.536174	-0.320673	0.894927
C85	C	1.079765	-0.855512	0.351432
C86	C	1.579765	-0.355512	0.851432
C87	C	1.251607	-0.338474	0.373208
C88	C	1.751607	0.161526	0.873208
C89	C	1.334152	-0.338485	0.373227
C90	C	1.834152	0.161515	0.873227
C91	C	1.057933	-0.338416	0.566870
C92	C	1.557933	0.161584	1.066870
C93	C	1.057946	-0.338403	0.649415
C94	C	1.557946	0.161597	1.149415
C95	C	1.066275	-0.155254	0.364959
C96	C	1.566275	0.344746	0.864959
C97	C	1.069843	-0.077188	0.361461
C98	C	1.569843	0.422812	0.861461
C99	C	1.057917	-0.338428	0.180213
C100	C	1.557917	0.161572	0.680213
C101	C	1.058057	-0.338243	0.097659
C102	C	1.558057	0.161757	0.597659
C103	C	1.006237	-0.385246	0.850954
C104	C	1.506237	0.114754	1.350954
C105	C	1.073218	-0.402419	0.901126
C106	C	1.573218	0.097581	1.401126
C107	C	1.057985	-0.338349	0.800543
C108	C	1.557985	0.161651	1.300543
C109	C	0.991042	-0.321157	0.897452
C110	C	1.491042	0.178843	1.397452
C111	C	1.058017	-0.338299	0.946526
C112	C	1.558017	0.161701	1.446526
C113	C	1.125000	-0.355556	0.849629
C114	C	1.625000	0.144444	1.349629
C115	C	1.042780	-0.274264	0.845950
C116	C	1.542780	0.225736	1.345950
C117	C	1.109809	-0.291412	0.896099
C118	C	1.609809	0.208588	1.396099
C119	C	1.057966	-0.338380	0.716446
C120	C	1.557966	0.161620	1.216446
C121	C	1.058044	-0.338268	1.030621
C122	C	1.558044	0.161732	1.530621
H123	H	0.608520	-0.251778	0.277822
H124	H	1.108520	0.248222	0.777822
H125	H	1.132008	-0.605798	0.299109
H126	H	1.632008	-0.105798	0.799109
Cl127	Cl	1.022864	-0.190647	0.808651
Cl128	Cl	1.522864	0.309353	1.308651
Cl129	Cl	0.903618	-0.298737	0.929927
Cl130	Cl	1.403618	0.201263	1.429927
Cl131	Cl	1.212445	-0.378077	0.817305
Cl132	Cl	1.712445	0.121923	1.317305
Cl133	Cl	0.618390	-0.299052	0.527629
Cl134	Cl	1.118390	0.200948	1.027629
Cl135	Cl	1.177466	-0.230149	0.926603
Cl136	Cl	1.677466	0.269851	1.426603
H137	H	0.989881	-0.937319	0.441218
H138	H	1.489881	-0.437319	0.941218
Cl139	Cl	0.498193	-0.377829	0.218659
Cl140	Cl	0.998193	0.122171	0.718659
H141	H	0.599186	-0.456720	0.344666
H142	H	1.099186	0.043280	0.844666
H143	H	0.508190	-0.425270	0.468489
H144	H	1.008190	0.074730	0.968489
Cl145	Cl	0.506811	-0.190790	0.408625
Cl146	Cl	1.006811	0.309210	0.908625
H147	H	1.126058	-0.738863	0.305139
H148	H	1.626058	-0.238863	0.805139
Cl149	Cl	1.141575	-0.809394	0.289703
Cl150	Cl	1.641575	-0.309394	0.789703
Cl151	Cl	1.184111	-0.921042	0.247306
Cl152	Cl	1.684111	-0.421042	0.747306
Cl153	Cl	0.962136	-1.086637	0.468976
Cl154	Cl	1.462136	-0.586637	0.968976
Cl155	Cl	1.176694	-1.086602	0.254790
Cl156	Cl	1.676694	-0.586602	0.754790
Cl157	Cl	1.093104	-0.486058	0.938399
Cl158	Cl	1.593104	0.013942	1.438399
H159	H	0.959566	-0.605821	0.471285
H160	H	1.459566	-0.105821	0.971285
H161	H	0.996142	-0.850549	0.434907
H162	H	1.496142	-0.350549	0.934907
Cl163	Cl	0.931839	-0.755141	0.499059
Cl164	Cl	1.431839	-0.255141	0.999059
Cl165	Cl	0.938730	-0.446553	0.820243
Cl166	Cl	1.438730	0.053447	1.320243
