data_functionalizedCrystal
_audit_creation_method	'MofGen! by Chris Wilmer'
_symmetry_space_group_name_H-M	'P1'
_symmetry_Int_Tables_number	1
_symmetry_cell_setting	triclinic
loop_
_symmetry_equiv_pos_as_xyz
  x,y,z
_cell_length_a	11.169417
_cell_length_b	11.169416
_cell_length_c	16.959447
_cell_angle_alpha	90.024665
_cell_angle_beta	90.013959
_cell_angle_gamma	90.009278
loop_
_atom_site_label
_atom_site_type_symbol
_atom_site_fract_x
_atom_site_fract_y
_atom_site_fract_z
Zn1	Zn	-1.834871	0.477817	-0.446932
Zn2	Zn	-1.334871	0.977817	0.053068
Zn3	Zn	-1.834787	0.678536	-0.314767
Zn4	Zn	-1.334787	1.178536	0.185233
Zn5	Zn	-1.634184	0.477862	-0.314770
Zn6	Zn	-1.134184	0.977862	0.185230
Zn7	Zn	-1.634164	0.678454	-0.446906
Zn8	Zn	-1.134164	1.178454	0.053094
O9	O	-1.734502	0.578167	-0.380844
O10	O	-1.234502	1.078167	0.119156
O11	O	-2.002809	0.504459	-0.429409
O12	O	-1.502809	1.004459	0.070591
O13	O	-1.808150	0.651970	-0.204156
O14	O	-1.308150	1.151970	0.295844
O15	O	-1.660848	0.309906	-0.332315
O16	O	-1.160848	0.809906	0.167685
O17	O	-2.002748	0.651926	-0.332308
O18	O	-1.502748	1.151926	0.167692
O19	O	-1.808292	0.309874	-0.429413
O20	O	-1.308292	0.809874	0.070587
O21	O	-1.660767	0.504535	-0.204159
O22	O	-1.160767	1.004535	0.295841
O23	O	-1.466231	0.504455	-0.332289
O24	O	-0.966231	1.004455	0.167711
O25	O	-1.660815	0.651785	-0.557520
O26	O	-1.160815	1.151785	-0.057520
O27	O	-1.466217	0.651829	-0.429369
O28	O	-0.966217	1.151829	0.070631
O29	O	-1.808273	0.504379	-0.557540
O30	O	-1.308273	1.004379	-0.057540
O31	O	-1.808131	0.846475	-0.332283
O32	O	-1.308131	1.346475	0.167717
O33	O	-1.660734	0.846414	-0.429365
O34	O	-1.160734	1.346414	0.070635
C35	C	-1.422677	0.578139	-0.380827
C36	C	-0.922677	1.078139	0.119173
C37	C	-1.289277	0.578155	-0.380839
C38	C	-0.789277	1.078155	0.119161
C39	C	-1.734454	0.889992	-0.380838
C40	C	-1.234454	1.389992	0.119162
C41	C	-1.734543	1.023392	-0.380862
C42	C	-1.234543	1.523392	0.119138
C43	C	-1.734551	0.578068	-0.587012
C44	C	-1.234551	1.078068	-0.087012
C45	C	-1.734573	0.578026	-0.674869
C46	C	-1.234573	1.078026	-0.174869
C47	C	-1.047544	0.578187	-0.380855
C48	C	-0.547544	1.078187	0.119145
C49	C	-1.180944	0.578169	-0.380844
C50	C	-0.680944	1.078169	0.119156
C51	C	-1.734582	0.265125	-0.380867
C52	C	-1.234582	0.765125	0.119133
C53	C	-1.734616	0.131725	-0.380877
C54	C	-1.234616	0.631725	0.119123
C55	C	-1.657941	0.654647	-1.046337
C56	C	-1.157941	1.154647	-0.546337
C57	C	-1.811491	0.501151	-1.046352
C58	C	-1.311491	1.001151	-0.546352
C59	C	-1.811459	0.501177	-0.963806
C60	C	-1.311459	1.001177	-0.463806
C61	C	-1.734668	0.577940	-0.922522
C62	C	-1.234668	1.077940	-0.422522
C63	C	-1.657909	0.654677	-0.963783
C64	C	-1.157909	1.154677	-0.463783
C65	C	-1.888225	0.424449	-0.922538
C66	C	-1.388225	0.924449	-0.422538
C67	C	-1.888197	0.424473	-0.839987
C68	C	-1.388197	0.924473	-0.339987
C69	C	-1.811399	0.501230	-0.798702
C70	C	-1.311399	1.001230	-0.298702
C71	C	-1.734636	0.577970	-0.839968
C72	C	-1.234636	1.077970	-0.339968
C73	C	-1.657846	0.654733	-0.798684
C74	C	-1.157846	1.154733	-0.298684
C75	C	-1.581076	0.731467	-0.839949
C76	C	-1.081076	1.231467	-0.339949
C77	C	-1.581112	0.731435	-0.922498
C78	C	-1.081112	1.231435	-0.422498
C79	C	-1.811363	0.501263	-0.716153
C80	C	-1.311363	1.001263	-0.216153
C81	C	-1.657814	0.654763	-0.716130
C82	C	-1.157814	1.154763	-0.216130
C83	C	-1.734521	0.578180	-0.175478
C84	C	-1.234521	1.078180	0.324522
C85	C	-1.734732	0.577884	-0.087621
C86	C	-1.234732	1.077884	0.412379
H87	H	-1.595270	0.717263	-0.682522
H88	H	-1.095270	1.217263	-0.182522
H89	H	-1.518558	0.793973	-0.806325
H90	H	-1.018558	1.293973	-0.306325
Cl91	Cl	-1.484617	0.827898	-0.974378
Cl92	Cl	-0.984617	1.327898	-0.474378
Cl93	Cl	-1.984764	0.327963	-0.974442
Cl94	Cl	-1.484764	0.827963	-0.474442
H95	H	-1.595434	0.717119	-1.079939
H96	H	-1.095434	1.217119	-0.579939
H97	H	-1.874017	0.438661	-1.079971
H98	H	-1.374017	0.938661	-0.579971
H99	H	-1.950707	0.361990	-0.806396
H100	H	-1.450707	0.861990	-0.306396
H101	H	-1.873871	0.438790	-0.682559
H102	H	-1.373871	0.938790	-0.182559
