data_functionalizedCrystal
_audit_creation_method	'MofGen! by Chris Wilmer'
_symmetry_space_group_name_H-M	'P1'
_symmetry_Int_Tables_number	1
_symmetry_cell_setting	triclinic
loop_
_symmetry_equiv_pos_as_xyz
  x,y,z
_cell_length_a	11.169417
_cell_length_b	25.639240
_cell_length_c	11.169409
_cell_angle_alpha	90.046464
_cell_angle_beta	90.019513
_cell_angle_gamma	90.034008
loop_
_atom_site_label
_atom_site_type_symbol
_atom_site_fract_x
_atom_site_fract_y
_atom_site_fract_z
Zn1	Zn	1.834775	-0.208091	0.678415
Zn2	Zn	1.834586	-0.295541	0.477682
Zn3	Zn	1.634061	-0.208123	0.477750
Zn4	Zn	1.633990	-0.295499	0.678328
O5	O	1.734353	-0.251814	0.578044
O6	O	2.002700	-0.219695	0.651795
O7	O	1.807937	-0.283976	0.309742
O8	O	1.660795	-0.134954	0.504434
O9	O	2.002561	-0.283945	0.504318
O10	O	1.808259	-0.134930	0.651861
O11	O	1.660612	-0.219751	0.309792
O12	O	1.466102	-0.219710	0.504350
O13	O	1.660674	-0.283873	0.846290
O14	O	1.466050	-0.283905	0.651713
O15	O	1.808190	-0.219655	0.846353
O16	O	1.807868	-0.368701	0.504234
O17	O	1.660491	-0.368670	0.651647
C18	C	1.422529	-0.251807	0.578030
C19	C	1.289129	-0.251816	0.578053
C20	C	1.734184	-0.387656	0.577950
C21	C	1.734221	-0.445770	0.577950
C22	C	1.811176	-0.806082	0.654948
C23	C	1.811211	-0.860687	0.654972
O24	O	1.876439	-0.888880	0.720342
N25	N	1.734520	-0.888053	0.578160
C26	C	1.657779	-0.860812	0.501327
O27	O	1.592550	-0.889102	0.435995
C28	C	1.657739	-0.806208	0.501309
C29	C	1.734444	-0.778845	0.578118
C30	C	1.887874	-0.778719	0.731751
C31	C	1.887839	-0.724119	0.731725
C32	C	1.811108	-0.696881	0.654895
C33	C	1.734410	-0.724245	0.578092
C34	C	1.580993	-0.778968	0.424483
C35	C	1.580959	-0.724361	0.424473
C36	C	1.657664	-0.696998	0.501282
C37	C	1.657644	-0.642407	0.501236
N38	N	1.734335	-0.615041	0.578048
C39	C	1.811067	-0.642278	0.654878
C40	C	1.657869	-0.975482	0.501371
C41	C	1.657915	-1.030084	0.501381
C42	C	1.811345	-1.029956	0.655029
C43	C	1.811305	-0.975353	0.655011
C44	C	1.734560	-0.948116	0.578183
C45	C	1.810990	-0.527613	0.654816
C46	C	1.810953	-0.473008	0.654780
C47	C	1.657518	-0.473141	0.501137
C48	C	1.657560	-0.527742	0.501169
C49	C	1.734300	-0.554976	0.578018
O50	O	1.592445	-0.614179	0.435903
O51	O	1.876274	-0.613981	0.720210
C52	C	2.047396	-0.251821	0.578058
C53	C	2.180796	-0.251824	0.578065
C54	C	1.734445	-0.251756	0.891087
C55	C	1.734485	-0.251731	1.024487
C56	C	1.734556	-0.115441	0.578165
C57	C	1.734643	-0.057327	0.578216
C58	C	1.734330	-0.251834	0.266219
C59	C	1.734524	-0.251711	0.132820
H60	H	1.873419	-0.450730	0.717326
H61	H	1.873471	-0.549781	0.717402
Cl62	Cl	1.984264	-0.689728	0.828300
H63	H	1.595378	-0.953309	0.438798
H64	H	1.873764	-0.953077	0.717556
Cl65	Cl	1.484474	-0.690125	0.327882
Cl66	Cl	1.984347	-0.812951	0.828355
Cl67	Cl	1.907807	-1.064207	0.751618
H68	H	1.518532	-0.801238	0.361937
H69	H	1.595467	-1.052359	0.438823
Cl70	Cl	1.561145	-0.562142	0.404593
H71	H	1.595048	-0.450956	0.438580
