data_functionalizedCrystal
_audit_creation_method	'MofGen! by Chris Wilmer'
_symmetry_space_group_name_H-M	'P1'
_symmetry_Int_Tables_number	1
_symmetry_cell_setting	triclinic
loop_
_symmetry_equiv_pos_as_xyz
  x,y,z
_cell_length_a	11.169417
_cell_length_b	11.169416
_cell_length_c	11.169409
_cell_angle_alpha	90.030816
_cell_angle_beta	90.020564
_cell_angle_gamma	90.011219
loop_
_atom_site_label
_atom_site_type_symbol
_atom_site_fract_x
_atom_site_fract_y
_atom_site_fract_z
Zn1	Zn	-1.834971	0.477682	-0.678555
Zn2	Zn	-1.584971	0.727682	-0.428555
Zn3	Zn	-1.334971	0.977682	-0.178555
Zn4	Zn	-1.084971	1.227682	0.071445
Zn5	Zn	-1.834858	0.678423	-0.477877
Zn6	Zn	-1.584858	0.928423	-0.227877
Zn7	Zn	-1.334858	1.178423	0.022123
Zn8	Zn	-1.084858	1.428423	0.272123
Zn9	Zn	-1.634254	0.477755	-0.477889
Zn10	Zn	-1.384254	0.727755	-0.227889
Zn11	Zn	-1.134254	0.977755	0.022111
Zn12	Zn	-0.884254	1.227755	0.272111
Zn13	Zn	-1.634264	0.678325	-0.678522
Zn14	Zn	-1.384264	0.928325	-0.428522
Zn15	Zn	-1.134264	1.178325	-0.178522
Zn16	Zn	-0.884264	1.428325	0.071478
O17	O	-1.734587	0.578047	-0.578211
O18	O	-1.484587	0.828047	-0.328211
O19	O	-1.234587	1.078047	-0.078211
O20	O	-0.984587	1.328047	0.171789
O21	O	-2.002906	0.504321	-0.651943
O22	O	-1.752906	0.754321	-0.401943
O23	O	-1.502906	1.004321	-0.151943
O24	O	-1.252906	1.254321	0.098057
O25	O	-1.808196	0.651875	-0.309929
O26	O	-1.558196	0.901875	-0.059929
O27	O	-1.308196	1.151875	0.190071
O28	O	-1.058196	1.401875	0.440071
O29	O	-1.660923	0.309796	-0.504527
O30	O	-1.410923	0.559796	-0.254527
O31	O	-1.160923	0.809796	-0.004527
O32	O	-0.910923	1.059796	0.245473
O33	O	-2.002823	0.651804	-0.504506
O34	O	-1.752823	0.901804	-0.254506
O35	O	-1.502823	1.151804	-0.004506
O36	O	-1.252823	1.401804	0.245494
O37	O	-1.808389	0.309742	-0.651955
O38	O	-1.558389	0.559742	-0.401955
O39	O	-1.308389	0.809742	-0.151955
O40	O	-1.058389	1.059742	0.098045
O41	O	-1.660813	0.504446	-0.309938
O42	O	-1.410813	0.754446	-0.059938
O43	O	-1.160813	1.004446	0.190062
O44	O	-0.910813	1.254446	0.440062
O45	O	-1.466306	0.504351	-0.504495
O46	O	-1.216306	0.754351	-0.254495
O47	O	-0.966306	1.004351	-0.004495
O48	O	-0.716306	1.254351	0.245505
O49	O	-1.660940	0.651638	-0.846476
O50	O	-1.410940	0.901638	-0.596476
O51	O	-1.160940	1.151638	-0.346476
O52	O	-0.910940	1.401638	-0.096476
O53	O	-1.466313	0.651709	-0.651899
O54	O	-1.216313	0.901709	-0.401899
O55	O	-0.966313	1.151709	-0.151899
O56	O	-0.716313	1.401709	0.098101
O57	O	-1.808399	0.504227	-0.846500
O58	O	-1.558399	0.754227	-0.596500
O59	O	-1.308399	1.004227	-0.346500
O60	O	-1.058399	1.254227	-0.096500
O61	O	-1.808206	0.846360	-0.504474
O62	O	-1.558206	1.096360	-0.254474
O63	O	-1.308206	1.346360	-0.004474
O64	O	-1.058206	1.596360	0.245526
O65	O	-1.660830	0.846288	-0.651887
O66	O	-1.410830	1.096288	-0.401887
O67	O	-1.160830	1.346288	-0.151887
O68	O	-0.910830	1.596288	0.098113
C69	C	-1.422762	0.578028	-0.578195
C70	C	-1.172762	0.828028	-0.328195
C71	C	-0.922762	1.078028	-0.078195
C72	C	-0.672762	1.328028	0.171805
C73	C	-1.289362	0.578049	-0.578217
C74	C	-1.039362	0.828049	-0.328217
C75	C	-0.789362	1.078049	-0.078217
C76	C	-0.539362	1.328049	0.171783
C77	C	-1.734539	0.889871	-0.578202
C78	C	-1.484539	1.139871	-0.328202
C79	C	-1.234539	1.389871	-0.078202
C80	C	-0.984539	1.639871	0.171798
C81	C	-1.734629	1.023271	-0.578238
C82	C	-1.484629	1.273271	-0.328238
C83	C	-1.234629	1.523271	-0.078238
C84	C	-0.984629	1.773271	0.171762
C85	C	-1.734683	0.577914	-0.891253
C86	C	-1.484683	0.827914	-0.641253
C87	C	-1.234683	1.077914	-0.391253
C88	C	-0.984683	1.327914	-0.141253
C89	C	-1.734724	0.577857	-1.024653
C90	C	-1.484724	0.827857	-0.774653
C91	C	-1.234724	1.077857	-0.524653
C92	C	-0.984724	1.327857	-0.274653
C93	C	-2.047629	0.578066	-0.578227
C94	C	-1.797629	0.828066	-0.328227
C95	C	-1.547629	1.078066	-0.078227
C96	C	-1.297629	1.328066	0.171773
C97	C	-2.181029	0.578074	-0.578234
C98	C	-1.931029	0.828074	-0.328234
C99	C	-1.681029	1.078074	-0.078234
C100	C	-1.431029	1.328074	0.171766
C101	C	-1.734667	0.265004	-0.578246
C102	C	-1.484667	0.515004	-0.328246
C103	C	-1.234667	0.765004	-0.078246
C104	C	-0.984667	1.015004	0.171754
C105	C	-1.734702	0.131604	-0.578261
C106	C	-1.484702	0.381604	-0.328261
C107	C	-1.234702	0.631604	-0.078261
C108	C	-0.984702	0.881604	0.171739
C109	C	-1.734560	0.578092	-0.266386
C110	C	-1.484560	0.828092	-0.016386
C111	C	-1.234560	1.078092	0.233614
C112	C	-0.984560	1.328092	0.483614
C113	C	-1.734752	0.577811	-0.132987
C114	C	-1.484752	0.827811	0.117013
C115	C	-1.234752	1.077811	0.367013
C116	C	-0.984752	1.327811	0.617013
