data_functionalizedCrystal
_audit_creation_method	'MofGen! by Chris Wilmer'
_symmetry_space_group_name_H-M	'P1'
_symmetry_Int_Tables_number	1
_symmetry_cell_setting	triclinic
loop_
_symmetry_equiv_pos_as_xyz
  x,y,z
_cell_length_a	14.044191
_cell_length_b	14.044190
_cell_length_c	12.996460
_cell_angle_alpha	89.989157
_cell_angle_beta	89.997003
_cell_angle_gamma	93.191777
loop_
_atom_site_label
_atom_site_type_symbol
_atom_site_fract_x
_atom_site_fract_y
_atom_site_fract_z
O1	O	1.277180	0.230203	-0.085538
O2	O	1.000507	0.221890	-0.085551
O3	O	1.134687	0.087710	-0.085525
O4	O	1.143000	0.364383	-0.085565
O5	O	1.134671	0.087701	0.085609
O6	O	1.000491	0.221880	0.085583
O7	O	1.277164	0.230193	0.085595
Cu8	Cu	1.138826	0.226036	0.101215
Cu9	Cu	1.138845	0.226047	-0.101170
O10	O	1.142984	0.364373	0.085569
C11	C	0.964877	0.218249	0.000015
C12	C	0.858734	0.207401	0.000011
C13	C	0.613277	0.264502	0.000013
C14	C	0.664400	0.187585	0.000023
C15	C	0.772537	0.198614	0.000016
C16	C	0.505130	0.253475	0.000019
C17	C	1.131043	0.052083	0.000045
C18	C	1.120195	-0.054060	0.000054
C19	C	1.177296	-0.299517	0.000016
C20	C	1.100379	-0.248394	0.000020
C21	C	1.111408	-0.140257	0.000039
C22	C	1.166269	-0.407664	-0.000003
C23	C	1.312794	0.233834	0.000027
C24	C	1.418937	0.244682	0.000024
C25	C	1.146628	0.400000	-0.000003
C26	C	1.157476	0.506143	-0.000018
N27	N	1.138820	0.226028	0.243562
N28	N	1.138858	0.226048	-0.243518
C29	C	1.138844	0.226048	0.663376
C30	C	1.138834	0.226045	0.546571
C31	C	1.138832	0.226039	0.453473
C32	C	1.138822	0.226035	0.336660
H33	H	1.026247	-0.285839	0.000011
H34	H	0.650720	0.338629	-0.000001
H35	H	1.251423	-0.262074	0.000030
H36	H	0.626955	0.113453	-0.000039
