data_functionalizedCrystal
_audit_creation_method	'MofGen! by Chris Wilmer'
_symmetry_space_group_name_H-M	'P1'
_symmetry_Int_Tables_number	1
_symmetry_cell_setting	triclinic
loop_
_symmetry_equiv_pos_as_xyz
  x,y,z
_cell_length_a	18.101398
_cell_length_b	18.101396
_cell_length_c	13.897441
_cell_angle_alpha	89.969934
_cell_angle_beta	90.027215
_cell_angle_gamma	89.967710
loop_
_atom_site_label
_atom_site_type_symbol
_atom_site_fract_x
_atom_site_fract_y
_atom_site_fract_z
Zn1	Zn	1.132112	0.294899	0.545551
Zn2	Zn	1.131989	0.418755	0.384254
Zn3	Zn	1.008264	0.294922	0.384252
Zn4	Zn	1.008209	0.418693	0.545489
O5	O	1.070143	0.356817	0.464886
O6	O	1.235728	0.311346	0.524182
O7	O	1.115548	0.402363	0.249272
O8	O	1.024768	0.191286	0.405673
O9	O	1.235638	0.402342	0.405678
O10	O	1.115758	0.191270	0.524180
O11	O	1.024648	0.311384	0.249270
O12	O	0.904624	0.311324	0.405613
O13	O	1.024673	0.402237	0.680479
O14	O	0.904583	0.402258	0.524073
O15	O	1.115704	0.311286	0.680525
O16	O	1.115494	0.522380	0.405617
O17	O	1.024553	0.522335	0.524075
C18	C	0.877733	0.356787	0.464836
C19	C	0.795419	0.356792	0.464838
C20	C	0.496328	0.356839	0.464919
C21	C	0.527654	0.299339	0.390750
C22	C	0.613272	0.299493	0.390434
C23	C	0.644710	0.356815	0.464878
C24	C	0.613583	0.434828	0.437107
C25	C	0.527938	0.434509	0.436591
C26	C	0.527948	0.337003	0.567033
C27	C	0.613599	0.335266	0.566475
C28	C	0.728570	0.356806	0.464857
C29	C	0.412468	0.356852	0.464937
C30	C	1.070024	0.549228	0.464861
C31	C	1.070041	0.631542	0.464882
C32	C	1.070173	0.930633	0.464938
C33	C	1.013091	0.899310	0.539654
C34	C	1.012829	0.813692	0.539419
C35	C	1.070107	0.782251	0.464911
C36	C	1.048971	0.813405	0.363250
C37	C	1.048594	0.899050	0.363698
C38	C	1.148519	0.898982	0.490989
C39	C	1.148067	0.813331	0.493217
C40	C	1.070072	0.698391	0.464890
C41	C	1.070207	1.014492	0.464953
C42	C	1.263305	0.356848	0.464938
C43	C	1.345619	0.356861	0.464959
C44	C	1.070196	0.356752	0.716480
C45	C	1.070218	0.356724	0.823694
C46	C	1.070257	1.163656	0.464937
C47	C	1.070239	1.081341	0.464968
C48	C	1.070134	0.356829	0.214272
C49	C	1.070255	0.356648	0.107059
C50	C	1.070238	0.356674	1.019989
C51	C	1.070225	0.356704	0.910756
H52	H	0.634993	0.451941	0.363263
C53	C	0.640583	0.258655	0.594357
C54	C	0.579806	0.212049	0.608243
C55	C	0.604638	0.141465	0.633907
H56	H	0.668367	0.261595	0.652228
H57	H	0.670863	0.239443	0.544461
H58	H	0.549538	0.231256	0.658135
H59	H	0.552016	0.209087	0.550384
H60	H	0.634918	0.122253	0.584011
H61	H	0.632422	0.144413	0.691777
H62	H	0.563406	0.109833	0.643324
C63	C	1.174311	0.927802	0.588059
C64	C	1.240328	0.967043	0.576283
C65	C	1.264095	0.993612	0.665683
H66	H	1.182294	0.887453	0.630544
H67	H	1.137670	0.959571	0.614201
H68	H	1.276961	0.935276	0.550156
H69	H	1.232364	1.007403	0.533815
H70	H	1.227454	1.025381	0.691825
H71	H	1.272073	0.953258	0.708161
H72	H	1.308885	1.020246	0.657704
C73	C	1.030334	0.785489	0.639916
C74	C	0.971285	0.742710	0.673451
C75	C	0.987384	0.716711	0.766024
H76	H	1.037797	0.826194	0.681913
H77	H	1.073844	0.756153	0.637960
H78	H	0.927787	0.772045	0.675413
H79	H	0.963813	0.701995	0.631480
H80	H	1.030895	0.687375	0.764068
H81	H	0.994848	0.757420	0.808013
H82	H	0.947326	0.687678	0.788786
C83	C	1.169425	0.786318	0.593006
C84	C	1.238994	0.814426	0.617425
C85	C	1.258677	0.789579	0.709358
H86	H	1.171132	0.733870	0.593379
H87	H	1.133882	0.802859	0.638437
H88	H	1.274529	0.797881	0.572005
H89	H	1.237306	0.866873	0.617073
H90	H	1.223134	0.806120	0.754790
H91	H	1.260380	0.737131	0.709723
H92	H	1.305878	0.808652	0.725942
H93	H	0.507213	0.478801	0.488257
C94	C	1.207730	0.784887	0.425796
C95	C	1.191607	0.806972	0.331526
C96	C	1.246554	0.780791	0.269384
H97	H	1.209463	0.732490	0.428859
H98	H	1.254211	0.804557	0.444520
H99	H	1.145139	0.787298	0.312807
H100	H	1.189881	0.859365	0.328432
H101	H	1.293035	0.800461	0.288108
H102	H	1.248282	0.728395	0.272455
H103	H	1.235626	0.795777	0.205416
H104	H	0.506383	0.281106	0.592283
C105	C	0.641458	0.222368	0.413462
C106	C	0.684248	0.196489	0.336633
C107	C	0.710235	0.125446	0.357808
H108	H	0.600747	0.190147	0.423266
H109	H	0.670784	0.223957	0.470136
H110	H	0.654924	0.194896	0.279976
H111	H	0.724970	0.228690	0.326818
H112	H	0.739560	0.127035	0.414482
H113	H	0.669520	0.093231	0.367613
H114	H	0.739276	0.107881	0.305688
H115	H	0.507921	0.451329	0.361941
H116	H	0.507090	0.241312	0.407966
H117	H	0.635003	0.374093	0.624697
H118	H	1.191047	0.919238	0.436571
H119	H	0.991324	0.919089	0.341632
C120	C	0.498801	0.316704	0.290524
C121	C	0.421536	0.313141	0.290569
C122	C	0.394945	0.329177	0.198264
H123	H	0.517908	0.281767	0.246031
H124	H	0.514059	0.364948	0.272378
H125	H	0.406285	0.264904	0.308703
H126	H	0.402409	0.348078	0.335042
H127	H	0.410203	0.377422	0.180119
H128	H	0.414057	0.294238	0.153778
H129	H	0.342518	0.326769	0.198285
C130	C	0.640842	0.493388	0.506948
C131	C	0.686200	0.460360	0.576366
C132	C	0.711333	0.514282	0.640712
H133	H	0.599790	0.516041	0.537628
H134	H	0.668190	0.529714	0.472823
H135	H	0.658853	0.424047	0.610487
H136	H	0.727263	0.437711	0.545714
H137	H	0.738681	0.550609	0.606587
H138	H	0.670277	0.536932	0.671385
H139	H	0.742117	0.491882	0.687814
H140	H	0.507690	0.378884	0.622295
C141	C	1.030439	0.926595	0.640575
C142	C	0.978658	0.897709	0.705237
C143	C	0.994622	0.922824	0.798219
H144	H	1.028260	0.979017	0.641855
H145	H	1.078573	0.910789	0.658514
H146	H	0.930535	0.913519	0.687304
H147	H	0.980829	0.845289	0.703988
H148	H	1.042757	0.907018	0.816157
H149	H	0.992443	0.975246	0.799488
H150	H	0.959496	0.903224	0.842105
H151	H	0.992312	0.792016	0.340787
C152	C	0.936186	0.928228	0.516911
C153	C	0.936279	1.005490	0.521637
C154	C	0.865451	1.032157	0.500675
H155	H	0.901970	0.909124	0.562347
H156	H	0.922299	0.913021	0.454036
H157	H	0.950157	1.020690	0.584502
H158	H	0.970480	1.024614	0.476202
H159	H	0.851564	1.016950	0.437800
H160	H	0.831241	1.013047	0.546113
H161	H	0.865506	1.084582	0.503870
H162	H	0.633721	0.312606	0.314768
H163	H	0.954762	0.793265	0.522161
H164	H	1.089243	0.793040	0.306062
C165	C	1.101515	0.926662	0.286798
C166	C	1.078723	0.900659	0.196688
C167	C	1.127445	0.926092	0.125826
H168	H	1.149899	0.909075	0.300146
H169	H	1.101630	0.979147	0.286495
H170	H	1.078616	0.848185	0.196992
H171	H	1.030347	0.918244	0.183309
H172	H	1.127561	0.978577	0.125524
H173	H	1.175827	0.908503	0.139184
H174	H	1.111985	0.908458	0.064678
