data_functionalizedCrystal
_audit_creation_method	'MofGen! by Chris Wilmer'
_symmetry_space_group_name_H-M	'P1'
_symmetry_Int_Tables_number	1
_symmetry_cell_setting	triclinic
loop_
_symmetry_equiv_pos_as_xyz
  x,y,z
_cell_length_a	11.169417
_cell_length_b	29.839131
_cell_length_c	11.169409
_cell_angle_alpha	89.959881
_cell_angle_beta	89.980487
_cell_angle_gamma	90.042670
loop_
_atom_site_label
_atom_site_type_symbol
_atom_site_fract_x
_atom_site_fract_y
_atom_site_fract_z
Zn1	Zn	1.834703	-0.178802	-0.678468
Zn2	Zn	2.334703	0.321198	-0.178468
Zn3	Zn	1.834484	-0.253943	-0.477757
Zn4	Zn	2.334484	0.246057	0.022243
Zn5	Zn	1.633989	-0.178830	-0.477803
Zn6	Zn	2.133989	0.321170	0.022197
Zn7	Zn	1.633888	-0.253907	-0.678403
Zn8	Zn	2.133888	0.246093	-0.178403
O9	O	1.734266	-0.216371	-0.578108
O10	O	2.234266	0.283629	-0.078108
O11	O	2.002624	-0.188773	-0.651851
O12	O	2.502624	0.311227	-0.151851
O13	O	1.807838	-0.244006	-0.309814
O14	O	2.307838	0.255994	0.190186
O15	O	1.660748	-0.115959	-0.504468
O16	O	2.160748	0.384041	-0.004468
O17	O	2.002462	-0.243979	-0.504390
O18	O	2.502462	0.256021	-0.004390
O19	O	1.808212	-0.115939	-0.651895
O20	O	2.308212	0.384061	-0.151895
O21	O	1.660536	-0.188821	-0.309847
O22	O	2.160536	0.311179	0.190153
O23	O	1.466026	-0.188786	-0.504406
O24	O	1.966026	0.311214	-0.004406
O25	O	1.660576	-0.243918	-0.846362
O26	O	2.160576	0.256082	-0.346362
O27	O	1.465951	-0.243945	-0.651786
O28	O	1.965951	0.256055	-0.151786
O29	O	1.808114	-0.188738	-0.846409
O30	O	2.308114	0.311262	-0.346409
O31	O	1.807740	-0.316806	-0.504327
O32	O	2.307740	0.183194	-0.004327
O33	O	1.660363	-0.316779	-0.651741
O34	O	2.160363	0.183221	-0.151741
C35	C	1.422441	-0.216365	-0.578094
C36	C	1.922441	0.283635	-0.078094
C37	C	1.289041	-0.216373	-0.578117
C38	C	1.789041	0.283627	-0.078117
C39	C	1.734049	-0.333093	-0.578048
C40	C	2.234049	0.166907	-0.078048
C41	C	1.734066	-0.383028	-0.578063
C42	C	2.234066	0.116972	-0.078063
C43	C	1.811145	-0.692672	-0.501462
C44	C	2.311145	-0.192672	-0.001462
C45	C	1.811293	-0.880345	-0.501508
C46	C	2.311293	-0.380345	-0.001508
O47	O	1.876656	-0.904611	-0.436333
O48	O	2.376656	-0.404611	0.063667
N49	N	1.734515	-0.903813	-0.578198
N50	N	2.234515	-0.403813	-0.078198
C51	C	1.657700	-0.880359	-0.654888
C52	C	2.157700	-0.380359	-0.154888
O53	O	1.592407	-0.904626	-0.720127
O54	O	2.092407	-0.404626	-0.220127
C55	C	1.657559	-0.692687	-0.654847
C56	C	2.157559	-0.192687	-0.154847
C57	C	1.734333	-0.669222	-0.578143
C58	C	2.234333	-0.169222	-0.078143
C59	C	1.887914	-0.669207	-0.424765
C60	C	2.387914	-0.169207	0.075235
C61	C	1.887871	-0.622292	-0.424750
C62	C	2.387871	-0.122292	0.075250
C63	C	1.811060	-0.598841	-0.501431
C64	C	2.311060	-0.098841	-0.001431
C65	C	1.734291	-0.622306	-0.578127
C66	C	2.234291	-0.122306	-0.078127
C67	C	1.580751	-0.669234	-0.731541
C68	C	2.080751	-0.169234	-0.231541
C69	C	1.580724	-0.622313	-0.731526
C70	C	2.080724	-0.122313	-0.231526
C71	C	1.657499	-0.598848	-0.654822
C72	C	2.157499	-0.098848	-0.154822
C73	C	1.657437	-0.551941	-0.654793
C74	C	2.157437	-0.051941	-0.154793
N75	N	1.734215	-0.528473	-0.578103
N76	N	2.234215	-0.028473	-0.078103
C77	C	1.811026	-0.551923	-0.501422
C78	C	2.311026	-0.051923	-0.001422
C79	C	1.657778	-0.978890	-0.654903
C80	C	2.157778	-0.478890	-0.154903
C81	C	1.657811	-1.025807	-0.654912
C82	C	2.157811	-0.525807	-0.154912
C83	C	1.811406	-1.025790	-0.501533
C84	C	2.311406	-0.525790	-0.001533
C85	C	1.811366	-0.978872	-0.501519
C86	C	2.311366	-0.478872	-0.001519
C87	C	1.734556	-0.955422	-0.578213
C88	C	2.234556	-0.455422	-0.078213
C89	C	1.810931	-0.453398	-0.501394
C90	C	2.310931	0.046602	-0.001394
C91	C	1.810878	-0.406478	-0.501382
C92	C	2.310878	0.093522	-0.001382
C93	C	1.657288	-0.406499	-0.654764
C94	C	2.157288	0.093501	-0.154764
C95	C	1.657336	-0.453415	-0.654773
C96	C	2.157336	0.046585	-0.154773
C97	C	1.734167	-0.476863	-0.578084
C98	C	2.234167	0.023137	-0.078084
O99	O	1.592118	-0.527646	-0.719943
O100	O	2.092118	-0.027646	-0.219943
O101	O	1.876328	-0.527649	-0.436211
O102	O	2.376328	-0.027649	0.063789
C103	C	1.811187	-0.739588	-0.501477
C104	C	2.311187	-0.239588	-0.001477
C105	C	1.734418	-0.763053	-0.578174
C106	C	2.234418	-0.263053	-0.078174
C107	C	1.657606	-0.739602	-0.654855
C108	C	2.157606	-0.239602	-0.154855
C109	C	1.734451	-0.809971	-0.578183
C110	C	2.234451	-0.309971	-0.078183
C111	C	1.811263	-0.833421	-0.501502
C112	C	2.311263	-0.333421	-0.001502
C113	C	1.888041	-0.809953	-0.424812
C114	C	2.388041	-0.309953	0.075188
C115	C	1.887999	-0.763038	-0.424796
C116	C	2.387999	-0.263038	0.075204
C117	C	1.580828	-0.763070	-0.731545
C118	C	2.080828	-0.263070	-0.231545
C119	C	1.580876	-0.809985	-0.731553
C120	C	2.080876	-0.309985	-0.231553
C121	C	1.657688	-0.833436	-0.654872
C122	C	2.157688	-0.333436	-0.154872
C123	C	2.047308	-0.216377	-0.578122
C124	C	2.547308	0.283623	-0.078122
C125	C	2.180708	-0.216380	-0.578129
C126	C	2.680708	0.283620	-0.078129
C127	C	1.734358	-0.216321	-0.891151
C128	C	2.234358	0.283679	-0.391151
C129	C	1.734397	-0.216300	-1.024551
C130	C	2.234397	0.283700	-0.524551
C131	C	1.734516	-0.099192	-0.578194
C132	C	2.234516	0.400808	-0.078194
C133	C	1.734623	-0.049258	-0.578231
C134	C	2.234623	0.450742	-0.078231
C135	C	1.734243	-0.216388	-0.266283
C136	C	2.234243	0.283612	0.233717
C137	C	1.734436	-0.216283	-0.132884
C138	C	2.234436	0.283717	0.367116
H139	H	1.873397	-0.387374	-0.438917
H140	H	2.373397	0.112626	0.061083
C141	C	1.895433	-0.479184	-0.417030
C142	C	2.395433	0.020816	0.082970
H143	H	1.941134	-0.458484	-0.371347
H144	H	2.441134	0.041516	0.128653
H145	H	1.947728	-0.497453	-0.462975
H146	H	2.447728	0.002547	0.037025
H147	H	1.849556	-0.497518	-0.364695
H148	H	2.349556	0.002482	0.135305
C149	C	1.895894	-1.051591	-0.417183
C150	C	2.395894	-0.551591	0.082817
H151	H	1.884915	-1.082894	-0.428185
H152	H	2.384915	-0.582894	0.071815
H153	H	1.878373	-1.043934	-0.336524
H154	H	2.378373	-0.543934	0.163476
H155	H	1.976525	-1.043870	-0.434825
H156	H	2.476525	-0.543870	0.065175
H157	H	1.594745	-0.387399	-0.717194
H158	H	2.094745	0.112601	-0.217194
H159	H	1.518178	-0.603223	-0.793983
H160	H	2.018178	-0.103223	-0.293983
H161	H	1.950580	-0.829055	-0.362372
H162	H	2.450580	-0.329055	0.137628
H163	H	1.950391	-0.603189	-0.362295
H164	H	2.450391	-0.103189	0.137705
H165	H	1.518346	-0.829087	-0.794014
H166	H	2.018346	-0.329087	-0.294014
C167	C	1.972407	-0.694995	-0.340402
C168	C	2.472407	-0.194995	0.159598
H169	H	2.018109	-0.674295	-0.294724
H170	H	2.518109	-0.174295	0.205276
H171	H	2.024700	-0.713267	-0.386342
H172	H	2.524700	-0.213267	0.113658
H173	H	1.926527	-0.713327	-0.288063
H174	H	2.426527	-0.213327	0.211937
C175	C	1.572885	-0.479227	-0.739142
C176	C	2.072885	0.020773	-0.239142
H177	H	1.527138	-0.458539	-0.784812
H178	H	2.027138	0.041461	-0.284812
H179	H	1.520632	-0.497569	-0.693204
H180	H	2.020632	0.002431	-0.193204
H181	H	1.618801	-0.497491	-0.791488
H182	H	2.118801	0.002509	-0.291488
C183	C	1.496321	-0.737281	-0.815889
C184	C	1.996321	-0.237281	-0.315889
H185	H	1.450599	-0.757980	-0.861551
H186	H	1.950599	-0.257980	-0.361551
H187	H	1.542171	-0.718941	-0.868225
H188	H	2.042171	-0.218941	-0.368225
H189	H	1.444029	-0.719016	-0.769915
H190	H	1.944029	-0.219016	-0.269915
H191	H	1.873882	-0.959769	-0.439061
H192	H	2.373882	-0.459769	0.060939
C193	C	1.573352	-1.051614	-0.739278
C194	C	2.073352	-0.551614	-0.239278
H195	H	1.527614	-1.030924	-0.784950
H196	H	2.027614	-0.530924	-0.284950
H197	H	1.521092	-1.069951	-0.693336
H198	H	2.021092	-0.569951	-0.193336
H199	H	1.619257	-1.069882	-0.791622
H200	H	2.119257	-0.569882	-0.291622
C201	C	1.573268	-0.953101	-0.739258
C202	C	2.073268	-0.453101	-0.239258
H203	H	1.527544	-0.973801	-0.784916
H204	H	2.027544	-0.473801	-0.284916
H205	H	1.619122	-0.934764	-0.791597
H206	H	2.119122	-0.434764	-0.291597
H207	H	1.520979	-0.934834	-0.693288
H208	H	2.020979	-0.434834	-0.193288
H209	H	1.518227	-0.688331	-0.793996
H210	H	2.018227	-0.188331	-0.293996
H211	H	1.950516	-0.743936	-0.362337
H212	H	2.450516	-0.243936	0.137663
