data_functionalizedCrystal
_audit_creation_method	'MofGen! by Chris Wilmer'
_symmetry_space_group_name_H-M	'P1'
_symmetry_Int_Tables_number	1
_symmetry_cell_setting	triclinic
loop_
_symmetry_equiv_pos_as_xyz
  x,y,z
_cell_length_a	12.811445
_cell_length_b	14.519709
_cell_length_c	11.892095
_cell_angle_alpha	93.895429
_cell_angle_beta	80.666316
_cell_angle_gamma	83.863608
loop_
_atom_site_label
_atom_site_type_symbol
_atom_site_fract_x
_atom_site_fract_y
_atom_site_fract_z
O1	O	1.409908	0.109352	-0.238530
O2	O	1.102101	0.124822	-0.206981
O3	O	1.264165	-0.017183	-0.223582
O4	O	1.247844	0.251358	-0.221929
O5	O	1.250652	-0.005361	-0.034190
O6	O	1.088588	0.136644	-0.017589
O7	O	1.396396	0.121174	-0.049139
Zn8	Zn	1.240347	0.130786	-0.003294
Zn9	Zn	1.258150	0.115210	-0.252826
O10	O	1.234332	0.263180	-0.032538
C11	C	1.055951	0.130228	-0.108247
C12	C	0.938572	0.128710	-0.096216
C13	C	1.256648	-0.045629	-0.128808
C14	C	1.254368	-0.148001	-0.128574
C15	C	0.732731	0.112986	-0.280103
C16	C	0.622443	0.111561	-0.268803
C17	C	0.607704	0.124439	-0.062317
C18	C	0.717992	0.125865	-0.073617
C19	C	0.780502	0.120137	-0.182513
C20	C	0.890794	0.121556	-0.193812
C21	C	0.876052	0.134442	0.012673
C22	C	0.765763	0.133016	0.023973
C23	C	1.245979	-0.522865	-0.127743
C24	C	1.248309	-0.418566	-0.127973
C25	C	1.250173	-0.335436	-0.128157
C26	C	1.252504	-0.231131	-0.128390
C27	C	1.442546	0.115768	-0.147875
C28	C	1.559926	0.117285	-0.159914
C29	C	1.241849	0.291625	-0.127314
C30	C	1.244129	0.393997	-0.127556
N31	N	1.228204	0.141416	0.167004
N32	N	1.270301	0.104573	-0.423124
C33	C	1.354795	0.030555	0.390684
C34	C	1.346315	0.037991	0.509895
C35	C	1.202760	0.163721	0.524638
C36	C	1.211240	0.156284	0.405428
C37	C	1.287261	0.089700	0.338455
C38	C	1.295745	0.082268	0.219241
C39	C	1.152185	0.207993	0.233987
C40	C	1.143705	0.215429	0.353198
H41	H	0.941688	0.116892	-0.282481
H42	H	0.583552	0.105740	-0.348271
C43	C	1.119080	0.236901	0.598322
H44	H	1.080046	0.271044	0.550147
H45	H	1.153811	0.278132	0.640959
H46	H	1.071722	0.206651	0.649310
H47	H	0.556788	0.129111	0.026341
H48	H	0.783629	0.108318	-0.368771
H49	H	0.714852	0.137683	0.112633
H50	H	1.416702	-0.023655	0.336153
H51	H	0.914959	0.140263	0.092137
C52	C	1.379360	0.009026	0.145573
H53	H	1.418358	-0.025139	0.193758
H54	H	1.426747	0.039201	0.094537
H55	H	1.344551	-0.032185	0.102990
C56	C	1.077894	0.273059	0.176538
H57	H	1.031413	0.313781	0.233501
H58	H	1.037126	0.237081	0.134558
H59	H	1.119319	0.308471	0.126123
C60	C	1.420606	-0.027066	0.567344
H61	H	1.467097	-0.067780	0.510380
H62	H	1.379192	-0.062473	0.617767
H63	H	1.461378	0.008922	0.609315
H64	H	1.081807	0.269639	0.407741
