data_functionalizedCrystal
_audit_creation_method	'MofGen! by Chris Wilmer'
_symmetry_space_group_name_H-M	'P1'
_symmetry_Int_Tables_number	1
_symmetry_cell_setting	triclinic
loop_
_symmetry_equiv_pos_as_xyz
  x,y,z
_cell_length_a	6.817900
_cell_length_b	11.168130
_cell_length_c	14.858572
_cell_angle_alpha	93.497900
_cell_angle_beta	104.524003
_cell_angle_gamma	108.508653
loop_
_atom_site_label
_atom_site_type_symbol
_atom_site_fract_x
_atom_site_fract_y
_atom_site_fract_z
V1	V	-4.064039	-0.175499	-0.289968
O2	O	-4.024496	0.007616	-0.284440
O3	O	-4.040639	-0.347199	-0.287992
O4	O	-4.020335	-0.173159	-0.416429
O5	O	-4.044940	-0.167630	-0.155114
V6	V	-4.543818	-0.153554	-0.273837
O7	O	-4.333508	-0.223638	-0.325351
O8	O	-4.724546	-0.105416	-0.238454
O9	O	-4.344011	0.018146	-0.275813
O10	O	-4.700757	-0.336669	-0.279364
O11	O	-4.680313	-0.161424	-0.408691
O12	O	-4.364315	-0.155895	-0.147376
C13	C	-3.891570	-0.389045	-0.283419
C14	C	-3.953756	-0.529414	-0.282647
C15	C	-4.001734	-0.719709	-0.200569
C16	C	-3.937460	-0.574630	-0.201366
C17	C	-3.865669	-0.167037	-0.447253
C18	C	-3.911386	-0.166259	-0.550636
C19	C	-4.078712	-0.163417	-0.929204
C20	C	-4.032148	-0.164208	-0.823874
C21	C	-3.995051	-0.164839	-0.739923
C22	C	-3.948484	-0.165628	-0.634587
C23	C	-4.156423	0.059984	-0.280383
C24	C	-4.073476	0.200352	-0.281161
C25	C	-4.182323	-0.162021	-0.116547
C26	C	-4.115844	-0.162792	-0.013163
H27	H	-4.015288	-0.598085	-0.351647
Br28	Br	-4.096524	-0.734713	-0.397152
H29	H	-3.875943	-0.505951	-0.132370
Br30	Br	-3.978642	-0.784642	-0.084578
