data_functionalizedCrystal
_audit_creation_method	'MofGen! by Chris Wilmer'
_symmetry_space_group_name_H-M	'P1'
_symmetry_Int_Tables_number	1
_symmetry_cell_setting	triclinic
loop_
_symmetry_equiv_pos_as_xyz
  x,y,z
_cell_length_a	16.959455
_cell_length_b	19.077068
_cell_length_c	19.076919
_cell_angle_alpha	94.470751
_cell_angle_beta	87.717788
_cell_angle_gamma	87.676048
loop_
_atom_site_label
_atom_site_type_symbol
_atom_site_fract_x
_atom_site_fract_y
_atom_site_fract_z
Zn1	Zn	1.176473	0.296738	0.409832
Zn2	Zn	1.176375	0.409891	0.296677
Zn3	Zn	1.049829	0.292016	0.291964
Zn4	Zn	1.038720	0.414582	0.414522
O5	O	1.110349	0.353307	0.353249
O6	O	1.287070	0.311761	0.394831
O7	O	1.164197	0.390316	0.197404
O8	O	1.071319	0.193994	0.303664
O9	O	1.286998	0.394894	0.311696
O10	O	1.164363	0.197463	0.390261
O11	O	1.071224	0.303714	0.193942
O12	O	0.937746	0.308262	0.308212
O13	O	1.052385	0.402888	0.512547
O14	O	0.929584	0.398310	0.398255
O15	O	1.153591	0.316309	0.509101
O16	O	1.153424	0.509163	0.316244
O17	O	1.052290	0.512608	0.402825
C18	C	1.101662	0.536465	0.360570
C19	C	1.098016	0.614821	0.363726
C20	C	0.904985	0.353283	0.353232
C21	C	0.817127	0.353290	0.353242
C22	C	1.101760	0.360649	0.537118
C23	C	1.098099	0.363777	0.615472
C24	C	0.449874	0.306386	0.306456
C25	C	0.441423	0.400288	0.400084
C26	C	0.523970	0.400277	0.400080
C27	C	0.569472	0.353321	0.353262
C28	C	0.532428	0.306375	0.306448
C29	C	0.561020	0.447227	0.446887
C30	C	0.643572	0.447219	0.446884
C31	C	0.689076	0.400259	0.400069
C32	C	0.652027	0.353311	0.353254
C33	C	0.697529	0.306355	0.306436
C34	C	0.660481	0.259402	0.259624
C35	C	0.577932	0.259415	0.259633
C36	C	0.771625	0.400247	0.400060
C37	C	0.780083	0.306344	0.306429
C38	C	1.316516	0.353331	0.353266
C39	C	1.404371	0.353342	0.353274
C40	C	1.119091	0.169434	0.345914
C41	C	1.122817	0.091079	0.342788
C42	C	1.148997	0.649818	0.320168
C43	C	1.145573	0.723442	0.323141
C44	C	1.091164	0.762069	0.369668
C45	C	1.040181	0.727068	0.413231
C46	C	1.043610	0.653445	0.410261
C47	C	1.075263	0.982454	0.383382
C48	C	1.071837	1.056083	0.386346
C49	C	1.177229	1.052452	0.296257
C50	C	1.180650	0.978827	0.293289
C51	C	1.129670	0.943832	0.336854
N52	N	1.087661	0.837326	0.372706
N53	N	1.133178	0.868578	0.333819
C54	C	1.118953	0.345943	0.170093
C55	C	1.122776	0.342615	0.091732
C56	C	1.149070	0.320172	0.650490
C57	C	1.145621	0.323109	0.724111
C58	C	1.091205	0.369655	0.762714
C59	C	1.040229	0.413262	0.727691
C60	C	1.043674	0.410321	0.654070
C61	C	1.075246	0.383281	0.983088
C62	C	1.071806	0.386221	1.056714
C63	C	1.177197	0.296066	1.053129
C64	C	1.180641	0.293132	0.979507
C65	C	1.129663	0.336737	0.944491
N66	N	1.087680	0.372660	0.837967
N67	N	1.133184	0.333728	0.869238
H68	H	0.697540	0.221174	0.221502
H69	H	1.002161	0.445822	0.625559
H70	H	0.995919	0.451159	0.759127
C71	C	0.961184	1.139328	0.399402
C72	C	1.012025	1.098540	0.437495
H73	H	0.924258	1.165535	0.430977
H74	H	0.991053	1.170705	0.373889
H75	H	0.933752	1.109403	0.367512
H76	H	1.039462	1.128466	0.469381
H77	H	0.982152	1.067160	0.463019
C78	C	0.661798	0.486499	0.567576
C79	C	0.684291	0.498821	0.498344
H80	H	0.686942	0.518352	0.599346
H81	H	0.606129	0.493229	0.574272
H82	H	0.677083	0.439560	0.576065
H83	H	0.669001	0.545759	0.489853
H84	H	0.739972	0.492097	0.491645
C85	C	0.939090	0.664424	0.499608
C86	C	0.987572	0.614974	0.458143
H87	H	0.904494	0.640673	0.529168
H88	H	0.970909	0.694183	0.527752
H89	H	0.908977	0.691945	0.470023
H90	H	1.017689	0.587457	0.487728
H91	H	0.955749	0.585203	0.429997
C92	C	1.284462	0.204306	0.983362
C93	C	1.240453	0.241963	0.937077
H94	H	1.321386	0.172715	0.957165
H95	H	1.311893	0.236170	1.013304
H96	H	1.249954	0.178485	1.010998
H97	H	1.274961	0.267788	0.909445
H98	H	1.213021	0.210094	0.907123
H99	H	1.033752	0.953968	0.418853
C100	C	1.157363	0.802633	0.231787
C101	C	1.201671	0.761980	0.275378
H102	H	1.192018	0.826447	0.202339
H103	H	1.125619	0.772910	0.203530
H104	H	1.124411	0.836120	0.259934
H105	H	1.234619	0.728490	0.247231
H106	H	1.233429	0.791706	0.303638
H107	H	1.193383	0.282271	0.619064
H108	H	1.218700	0.260565	1.081648
H109	H	1.187128	0.287603	0.752620
H110	H	0.817126	0.268102	0.268307
H111	H	0.995884	0.758524	0.451117
H112	H	0.801786	0.438476	0.438171
C113	C	1.284497	0.982637	0.204551
C114	C	1.240467	0.936371	0.242153
H115	H	1.321429	0.956424	0.172986
H116	H	1.250009	1.010305	0.178714
H117	H	1.311925	1.012550	0.236455
H118	H	1.213034	0.906460	0.210249
H119	H	1.274961	0.908690	0.267992
C120	C	0.967963	0.475036	1.052866
C121	C	1.011984	0.437385	1.099148
H122	H	0.931032	0.506618	1.079065
H123	H	1.002457	0.500860	1.025231
H124	H	0.940534	0.443161	1.022923
H125	H	1.039418	0.469259	1.129088
H126	H	0.977485	0.411560	1.126795
H127	H	1.033747	0.418798	0.954587
H128	H	1.218735	1.080952	0.260790
C129	C	0.455143	0.217733	0.218079
C130	C	0.537208	0.207806	0.208185
H131	H	0.430001	0.185873	0.186315
H132	H	0.439903	0.209389	0.265049
H133	H	0.439869	0.264670	0.209571
H134	H	0.552483	0.160870	0.216698
H135	H	0.552454	0.216144	0.161204
C136	C	0.343709	0.414014	0.495289
C137	C	0.391406	0.451896	0.451545
H138	H	0.312831	0.445876	0.527063
H139	H	0.309839	0.386063	0.467407
H140	H	0.376114	0.384418	0.521073
H141	H	0.359000	0.481488	0.425757
H142	H	0.425279	0.479859	0.479431
C143	C	0.463310	0.460946	0.542093
C144	C	0.510998	0.498833	0.498347
H145	H	0.432427	0.492806	0.573867
H146	H	0.429443	0.432990	0.514213
H147	H	0.495720	0.431356	0.567878
H148	H	0.478587	0.528420	0.472558
H149	H	0.544868	0.526802	0.526231
C150	C	1.194239	0.622416	0.199917
C151	C	1.208804	0.607363	0.269022
H152	H	1.231168	0.596210	0.168343
H153	H	1.142191	0.609973	0.189077
H154	H	1.199495	0.671274	0.195462
H155	H	1.203543	0.558505	0.273478
H156	H	1.260866	0.619800	0.279865
H157	H	0.419706	0.268156	0.268345
