data_functionalizedCrystal
_audit_creation_method	'MofGen! by Chris Wilmer'
_symmetry_space_group_name_H-M	'P1'
_symmetry_Int_Tables_number	1
_symmetry_cell_setting	triclinic
loop_
_symmetry_equiv_pos_as_xyz
  x,y,z
_cell_length_a	15.944493
_cell_length_b	10.654552
_cell_length_c	9.730223
_cell_angle_alpha	89.998711
_cell_angle_beta	90.001507
_cell_angle_gamma	96.019646
loop_
_atom_site_label
_atom_site_type_symbol
_atom_site_fract_x
_atom_site_fract_y
_atom_site_fract_z
O1	O	1.115484	-0.161615	-0.114261
O2	O	0.871044	-0.181660	-0.114267
O3	O	0.998884	0.011176	-0.114267
O4	O	0.987645	-0.354451	-0.114261
O5	O	0.998885	0.011174	0.114313
O6	O	0.871046	-0.181662	0.114313
O7	O	1.115486	-0.161617	0.114319
Zn8	Zn	0.993266	-0.171640	0.150608
Zn9	Zn	0.993264	-0.171637	-0.150556
O10	O	0.987646	-0.354453	0.114318
C11	C	0.839745	-0.180842	0.000022
C12	C	0.746483	-0.178385	0.000020
C13	C	0.511380	-0.291893	0.000020
C14	C	0.460468	-0.230684	0.112727
C15	C	0.575735	-0.173834	0.000022
C16	C	0.460471	-0.230654	-0.112635
C17	C	0.410800	-0.169447	0.000019
C18	C	0.526051	-0.112657	0.112822
C19	C	0.526058	-0.112644	-0.112641
C20	C	0.475178	-0.051348	0.000094
C21	C	0.670750	-0.176365	0.000026
C22	C	0.315788	-0.166907	0.000026
C23	C	0.998059	0.057962	0.000020
C24	C	0.995589	0.197373	0.000009
C25	C	0.994429	0.262870	-0.124588
C26	C	0.992102	0.393859	-0.124583
C27	C	0.992096	0.393843	0.124627
C28	C	0.994418	0.262855	0.124621
C29	C	0.995600	0.197388	-0.249200
C30	C	0.994442	0.262886	-0.373807
C31	C	0.992114	0.393875	-0.373802
C32	C	0.990944	0.459367	-0.249190
C33	C	1.146785	-0.162435	0.000027
C34	C	1.240047	-0.164892	0.000020
C35	C	0.988471	0.598761	0.000026
C36	C	0.990939	0.459350	0.000020
N37	N	0.993263	-0.171627	-0.356092
C38	C	0.941986	-0.095274	-0.428043
C39	C	0.941993	-0.095277	-0.571926
C40	C	1.044557	-0.247996	-0.571895
C41	C	1.044553	-0.247985	-0.428015
C42	C	0.890695	-0.018916	-0.356120
C43	C	0.839413	0.057442	-0.428070
C44	C	0.839420	0.057439	-0.571953
C45	C	0.890710	-0.018922	-0.643886
N46	N	0.993274	-0.171640	0.356144
H47	H	0.431820	-0.280542	0.208012
H48	H	1.086313	-0.310167	-0.630474
O49	O	0.995698	0.192248	-0.508200
H50	H	0.938096	0.206173	-0.567942
H51	H	0.797670	0.119622	-0.630532
O52	O	0.453897	0.083452	0.000186
H53	H	0.384351	0.084344	-0.000701
O54	O	0.990848	0.464504	-0.508202
H55	H	1.046931	0.535405	-0.514171
O56	O	0.564032	-0.046659	-0.238859
H57	H	0.548788	0.052621	-0.239716
O58	O	0.890732	-0.019038	-0.799075
H59	H	0.911004	0.077602	-0.837132
O60	O	1.099869	-0.330325	-0.350407
H61	H	1.091259	-0.317472	-0.238275
H62	H	0.527593	-0.393588	0.000127
H63	H	0.989037	0.566025	-0.249196
H64	H	0.431821	-0.280535	-0.207906
H65	H	0.554591	-0.062829	0.208202
O66	O	0.990857	0.464476	0.259025
H67	H	0.989061	0.566567	0.238096
H68	H	0.995344	0.209522	0.226079
H69	H	0.890682	-0.018907	-0.238963
H70	H	0.797660	0.119619	-0.369493
O71	O	0.998308	0.056146	-0.249200
H72	H	0.998994	0.021626	-0.356779
