data_functionalizedCrystal
_audit_creation_method	'MofGen! by Chris Wilmer'
_symmetry_space_group_name_H-M	'P1'
_symmetry_Int_Tables_number	1
_symmetry_cell_setting	triclinic
loop_
_symmetry_equiv_pos_as_xyz
  x,y,z
_cell_length_a	10.723024
_cell_length_b	10.654550
_cell_length_c	9.798715
_cell_angle_alpha	89.998020
_cell_angle_beta	89.996609
_cell_angle_gamma	84.476386
loop_
_atom_site_label
_atom_site_type_symbol
_atom_site_fract_x
_atom_site_fract_y
_atom_site_fract_z
O1	O	1.657213	0.176147	-0.113478
O2	O	1.294064	0.193008	-0.113483
O3	O	1.483988	0.001837	-0.113475
O4	O	1.467289	0.367318	-0.113486
O5	O	1.483974	0.001836	0.113507
O6	O	1.294049	0.193007	0.113499
O7	O	1.657199	0.176146	0.113504
Zn8	Zn	1.475622	0.184577	0.149540
Zn9	Zn	1.475641	0.184577	-0.149519
O10	O	1.467275	0.367317	0.113496
C11	C	1.247557	0.191780	0.000008
C12	C	1.109002	0.188109	0.000006
C13	C	1.034035	0.295078	0.000002
C14	C	0.890831	0.291287	0.000001
C15	C	1.482755	-0.044961	0.000014
C16	C	1.479086	-0.184404	0.000009
C17	C	1.590911	-0.263907	0.000015
C18	C	1.587456	-0.394927	0.000005
C19	C	1.360343	-0.366929	-0.000010
C20	C	1.363799	-0.235912	-0.000010
C21	C	1.706198	-0.212399	0.000034
C22	C	1.818032	-0.291903	0.000041
C23	C	1.814578	-0.422923	0.000031
C24	C	1.699289	-0.474440	0.000015
C25	C	1.703706	0.177373	0.000010
C26	C	1.842261	0.181045	0.000003
C27	C	1.468508	0.414115	0.000004
C28	C	1.472176	0.553558	-0.000000
N29	N	1.475618	0.184575	0.353640
N30	N	1.475654	0.184569	-0.353619
C31	C	1.555362	0.103954	0.421420
C32	C	1.555382	0.103950	0.578582
H33	H	1.067166	0.093722	-0.000026
C34	C	1.240799	-0.148449	-0.000012
H35	H	1.259371	-0.063044	-0.000024
H36	H	1.193563	-0.164166	0.079138
H37	H	1.193585	-0.164166	-0.079179
H38	H	0.826412	0.382860	-0.000008
H39	H	1.407383	0.253600	0.588102
C40	C	0.929263	0.057322	0.000000
H41	H	0.880213	-0.012333	-0.000009
H42	H	0.980624	0.053977	0.079150
H43	H	0.980622	0.053987	-0.079167
C44	C	1.233536	-0.423590	-0.000022
H45	H	1.167430	-0.357475	-0.000037
H46	H	1.227459	-0.474122	0.079130
H47	H	1.227480	-0.474114	-0.079187
C48	C	1.383385	0.277803	0.432410
H49	H	1.333341	0.328374	0.369505
H50	H	1.428918	0.330310	0.488155
H51	H	1.330968	0.232228	0.488148
H52	H	1.911895	-0.249949	0.000020
C53	C	1.695484	-0.618559	-0.000004
H54	H	1.610810	-0.637850	-0.000019
H55	H	1.736637	-0.653378	0.079145
H56	H	1.736644	-0.653356	-0.079172
C57	C	1.937586	-0.510373	0.000036
H58	H	2.006736	-0.460928	0.000057
H59	H	1.940974	-0.562064	-0.079117
H60	H	1.940946	-0.562066	0.079200
C61	C	1.647573	0.010710	0.342643
H62	H	1.635468	0.022950	0.247346
H63	H	1.633088	-0.073194	0.366000
H64	H	1.731063	0.024864	0.365972
C65	C	1.647612	0.010700	0.657315
H66	H	1.635520	0.022923	0.752617
H67	H	1.731092	0.024840	0.633948
H68	H	1.633106	-0.073206	0.633970
H69	H	1.709024	-0.105717	0.000046
H70	H	1.075871	0.389466	0.000007
