data_functionalizedCrystal
_audit_creation_method	'MofGen! by Chris Wilmer'
_symmetry_space_group_name_H-M	'P1'
_symmetry_Int_Tables_number	1
_symmetry_cell_setting	triclinic
loop_
_symmetry_equiv_pos_as_xyz
  x,y,z
_cell_length_a	27.731996
_cell_length_b	27.732066
_cell_length_c	9.730223
_cell_angle_alpha	89.993176
_cell_angle_beta	89.989948
_cell_angle_gamma	97.364255
loop_
_atom_site_label
_atom_site_type_symbol
_atom_site_fract_x
_atom_site_fract_y
_atom_site_fract_z
O1	O	0.057560	-0.640909	-0.114030
O2	O	0.066297	-0.500115	-0.114096
O3	O	-0.008470	-0.574898	-0.114032
O4	O	0.132327	-0.566126	-0.114095
O5	O	-0.008472	-0.574895	0.114548
O6	O	0.066295	-0.500112	0.114484
O7	O	0.057558	-0.640906	0.114550
Zn8	Zn	0.061926	-0.570509	0.150809
Zn9	Zn	0.061929	-0.570512	-0.150355
O10	O	0.132325	-0.566123	0.114485
C11	C	0.066111	-0.482107	0.000186
C12	C	0.065555	-0.428453	0.000162
C13	C	0.017584	-0.051389	0.000243
C14	C	0.019632	-0.253049	0.000216
O15	O	-0.017590	-0.284308	0.000286
N16	N	0.063967	-0.272168	0.000191
C17	C	0.107794	-0.240869	0.000182
O18	O	0.145551	-0.261758	0.000174
C19	C	0.105746	-0.039210	0.000218
C20	C	0.061408	-0.020094	0.000229
C21	C	-0.026751	-0.032272	0.000255
C22	C	-0.027262	0.018140	0.000255
C23	C	0.016561	0.049435	0.000241
C24	C	0.060896	0.030318	0.000228
C25	C	0.149572	-0.007912	0.000219
C26	C	0.149056	0.042506	0.000231
C27	C	0.104718	0.061622	0.000242
C28	C	0.104208	0.112025	0.000214
N29	N	0.059873	0.131145	0.000239
C30	C	0.016049	0.099849	0.000253
C31	C	0.108866	-0.346743	0.000160
C32	C	0.109378	-0.397157	0.000148
C33	C	0.021216	-0.409334	0.000185
C34	C	0.020704	-0.358919	0.000187
C35	C	0.064530	-0.327624	0.000185
C36	C	0.014979	0.205719	0.000250
C37	C	0.014471	0.256136	0.000243
C38	C	0.102633	0.268308	0.000213
C39	C	0.103141	0.217895	0.000213
C40	C	0.059310	0.186601	0.000235
O41	O	0.141410	0.143313	0.000160
O42	O	-0.021702	0.120748	0.000291
C43	C	0.018096	-0.101801	0.000244
C44	C	0.062430	-0.120918	0.000231
C45	C	0.106254	-0.089622	0.000217
C46	C	0.062942	-0.171332	0.000219
C47	C	0.019119	-0.202627	0.000233
C48	C	-0.025217	-0.183508	0.000258
C49	C	-0.025728	-0.133096	0.000257
C50	C	0.150589	-0.108742	0.000192
C51	C	0.151097	-0.159154	0.000192
C52	C	0.107274	-0.190449	0.000205
C53	C	-0.026478	-0.574716	0.000263
C54	C	-0.080134	-0.574173	0.000277
C55	C	-0.412850	-0.570760	-0.124391
C56	C	-0.614508	-0.568699	-0.124416
O57	O	-0.640578	-0.568413	-0.230384
N58	N	-0.639726	-0.568442	0.000182
C59	C	-0.614526	-0.568696	0.124794
O60	O	-0.640602	-0.568425	0.230772
C61	C	-0.412868	-0.570754	0.124818
C62	C	-0.387654	-0.571016	0.000212
C63	C	-0.387635	-0.571022	-0.248986
C64	C	-0.337224	-0.571540	-0.248979
C65	C	-0.312027	-0.571796	-0.124376
C66	C	-0.337242	-0.571534	0.000220
C67	C	-0.387669	-0.571005	0.249429
C68	C	-0.337251	-0.571518	0.249424
C69	C	-0.312036	-0.571781	0.124819
C70	C	-0.261635	-0.572308	0.124831
N71	N	-0.236417	-0.572565	0.000233
C72	C	-0.261613	-0.572309	-0.124370
C73	C	-0.720400	-0.567617	0.124773
C74	C	-0.770814	-0.567104	0.124768
C75	C	-0.770792	-0.567106	-0.124443
C76	C	-0.720378	-0.567623	-0.124436
C77	C	-0.695182	-0.567875	0.000176
C78	C	-0.155746	-0.573397	-0.124345
C79	C	-0.105331	-0.573917	-0.124326
C80	C	-0.105356	-0.573913	0.124884
C81	C	-0.155768	-0.573395	0.124866
C82	C	-0.180961	-0.573136	0.000241
O83	O	-0.235533	-0.572589	0.230743
O84	O	-0.235527	-0.572570	-0.230332
C85	C	-0.463261	-0.570242	-0.124398
C86	C	-0.488476	-0.569980	0.000197
C87	C	-0.463280	-0.570237	0.124800
C88	C	-0.538890	-0.569467	0.000192
C89	C	-0.564087	-0.569211	-0.124411
C90	C	-0.538869	-0.569468	-0.249009
C91	C	-0.488457	-0.569986	-0.249002
C92	C	-0.488498	-0.569979	0.249398
C93	C	-0.538909	-0.569462	0.249380
C94	C	-0.564106	-0.569206	0.124777
C95	C	0.150333	-0.566305	0.000187
C96	C	0.203990	-0.566848	0.000164
N97	N	0.061924	-0.570510	0.356345
C98	C	0.057743	0.341086	0.000252
C99	C	0.058294	0.287431	0.000230
N100	N	0.061927	-0.570515	-0.355892
C101	C	0.032804	-0.541423	0.428293
C102	C	0.032807	-0.541425	0.572176
C103	C	0.091050	-0.599603	0.572151
C104	C	0.091050	-0.599598	0.428270
C105	C	-0.000824	-0.507836	0.428308
C106	C	-0.000821	-0.507837	0.572191
H107	H	0.186276	-0.083265	0.000183
Br108	Br	-0.085905	-0.107161	0.000261
H109	H	-0.021636	0.271697	0.000249
Br110	Br	-0.039471	-0.332981	0.000205
H111	H	-0.559435	-0.569252	0.350857
H112	H	0.011673	-0.469511	0.389252
Br113	Br	-0.061903	-0.534191	0.353947
H114	H	0.145483	-0.412717	0.000120
H115	H	0.144557	-0.321266	0.000156
H116	H	0.014958	-0.471178	0.616802
Br117	Br	-0.064682	-0.528729	0.637328
H118	H	-0.084803	-0.574132	-0.225800
Br119	Br	-0.084691	-0.225990	0.000267
Br120	Br	-0.303011	-0.571892	-0.418096
Br121	Br	0.208539	0.084975	0.000239
H122	H	-0.020713	0.180244	0.000268
H123	H	-0.063367	0.033699	0.000269
Br124	Br	0.211277	-0.185090	0.000163
H125	H	-0.062439	-0.057749	0.000271
Br126	Br	-0.804997	-0.566756	-0.293547
Br127	Br	-0.038259	-0.451816	0.000199
Br128	Br	-0.421820	-0.570674	-0.418114
Br129	Br	0.209750	-0.033842	0.000200
H130	H	0.139245	0.202330	0.000202
H131	H	0.114764	-0.623285	0.630730
H132	H	0.138313	0.293797	0.000195
H133	H	0.114767	-0.623279	0.369696
H134	H	-0.176252	-0.573184	-0.225827
H135	H	-0.699851	-0.567835	-0.225901
Br136	Br	-0.573074	-0.569125	-0.418112
H137	H	-0.699890	-0.567825	0.226253
Br138	Br	-0.805030	-0.566759	0.293882
H139	H	-0.408190	-0.570792	0.350897
Br140	Br	-0.303059	-0.571859	0.418551
H141	H	-0.176299	-0.573186	0.226330
H142	H	-0.084833	-0.574124	0.226332
H143	H	-0.467932	-0.570200	-0.350469
Br144	Br	-0.454310	-0.570321	0.418520
