data_functionalizedCrystal
_audit_creation_method	'MofGen! by Chris Wilmer'
_symmetry_space_group_name_H-M	'P1'
_symmetry_Int_Tables_number	1
_symmetry_cell_setting	triclinic
loop_
_symmetry_equiv_pos_as_xyz
  x,y,z
_cell_length_a	17.077402
_cell_length_b	17.077404
_cell_length_c	17.077396
_cell_angle_alpha	89.978543
_cell_angle_beta	90.029784
_cell_angle_gamma	89.978013
loop_
_atom_site_label
_atom_site_type_symbol
_atom_site_fract_x
_atom_site_fract_y
_atom_site_fract_z
Zn1	Zn	-0.312527	-1.200055	0.443877
Zn2	Zn	0.187473	-0.700055	0.943877
Zn3	Zn	-0.443802	-1.199962	0.312608
Zn4	Zn	0.056198	-0.699962	0.812608
Zn5	Zn	-0.312552	-1.068786	0.312620
Zn6	Zn	0.187448	-0.568786	0.812620
Zn7	Zn	-0.443753	-1.068754	0.443827
Zn8	Zn	0.056247	-0.568754	0.943827
O9	O	-0.378158	-1.134389	0.378233
O10	O	0.121842	-0.634389	0.878233
O11	O	-0.329951	-1.309889	0.426479
O12	O	0.170049	-0.809889	0.926479
O13	O	-0.426422	-1.182536	0.202762
O14	O	0.073578	-0.682536	0.702762
O15	O	-0.202702	-1.086252	0.330058
O16	O	0.297298	-0.586252	0.830058
O17	O	-0.426398	-1.309821	0.330036
O18	O	0.073602	-0.809821	0.830036
O19	O	-0.202683	-1.182694	0.426491
O20	O	0.297317	-0.682694	0.926491
O21	O	-0.329993	-1.086162	0.202771
O22	O	0.170007	-0.586162	0.702771
O23	O	-0.329946	-0.958935	0.330009
O24	O	0.170054	-0.458935	0.830009
O25	O	-0.426314	-1.086197	0.553680
O26	O	0.073686	-0.586197	1.053680
O27	O	-0.426338	-0.958912	0.426406
O28	O	0.073662	-0.458912	0.926406
O29	O	-0.329903	-1.182663	0.553717
O30	O	0.170097	-0.682663	1.053717
O31	O	-0.553642	-1.182505	0.329988
O32	O	-0.053642	-0.682505	0.829988
O33	O	-0.553606	-1.086107	0.426394
O34	O	-0.053606	-0.586107	0.926394
C35	C	-0.378140	-0.930441	0.378204
C36	C	0.121860	-0.430441	0.878204
C37	C	-0.378151	-0.843192	0.378210
C38	C	0.121849	-0.343192	0.878210
C39	C	-0.428418	-0.802210	0.428322
C40	C	0.071582	-0.302210	0.928322
C41	C	-0.428418	-0.720229	0.428332
C42	C	0.071582	-0.220229	0.928332
C43	C	-0.378155	-0.679232	0.378225
C44	C	0.121845	-0.179232	0.878225
C45	C	-0.327883	-0.720220	0.328111
C46	C	0.172117	-0.220220	0.828111
C47	C	-0.327879	-0.802199	0.328106
C48	C	0.172121	-0.302199	0.828106
C49	C	-0.327895	-0.549350	0.328124
C50	C	0.172105	-0.049350	0.828124
C51	C	-0.327899	-0.467365	0.328128
C52	C	0.172101	0.032635	0.828128
C53	C	-0.428433	-0.467380	0.428350
C54	C	0.071567	0.032620	0.928350
C55	C	-0.428430	-0.549359	0.428345
C56	C	0.071570	-0.049359	0.928345
C57	C	-0.378159	-0.590341	0.378230
C58	C	0.121841	-0.090341	0.878230
C59	C	-0.582106	-1.134314	0.378201
C60	C	-0.082106	-0.634314	0.878201
C61	C	-0.669356	-1.134353	0.378214
C62	C	-0.169356	-0.634353	0.878214
C63	C	-0.710339	-1.184598	0.328069
C64	C	-0.210339	-0.684598	0.828069
C65	C	-0.792319	-1.184637	0.328089
C66	C	-0.292319	-0.684637	0.828089
C67	C	-0.833315	-1.134425	0.378251
C68	C	-0.333315	-0.634425	0.878251
C69	C	-0.792327	-1.084178	0.428401
C70	C	-0.292327	-0.584178	0.928401
C71	C	-0.710348	-1.084144	0.428385
C72	C	-0.210348	-0.584144	0.928385
C73	C	-0.963197	-1.084250	0.428431
C74	C	-0.463197	-0.584250	0.928431
C75	C	-1.045181	-1.084283	0.428447
C76	C	-0.545181	-0.584283	0.928447
C77	C	-1.045168	-1.184743	0.328136
C78	C	-0.545168	-0.684743	0.828136
C79	C	-0.963189	-1.184709	0.328119
C80	C	-0.463189	-0.684709	0.828119
C81	C	-0.922206	-1.134461	0.378269
C82	C	-0.422206	-0.634461	0.878269
C83	C	-0.173414	-1.134487	0.378281
C84	C	0.326586	-0.634487	0.878281
C85	C	-0.086164	-1.134528	0.378302
C86	C	0.413836	-0.634528	0.878302
C87	C	-0.378100	-1.134437	0.582977
C88	C	0.121900	-0.634437	1.082977
C89	C	-0.378076	-1.134457	0.670227
C90	C	0.121924	-0.634457	1.170227
C91	C	-0.378172	-0.339134	0.378253
C92	C	0.121828	0.160866	0.878253
C93	C	-0.378166	-0.426383	0.378240
C94	C	0.121834	0.073617	0.878240
C95	C	-0.378159	-1.134387	0.174285
C96	C	0.121841	-0.634387	0.674285
C97	C	-0.377963	-1.134519	0.087036
C98	C	0.122037	-0.634519	0.587036
C99	C	-0.327870	-1.184689	0.711237
C100	C	0.172130	-0.684689	1.211237
C101	C	-0.327844	-1.184698	0.793218
C102	C	0.172156	-0.684698	1.293218
C103	C	-0.378028	-1.134479	0.834186
C104	C	0.121972	-0.634479	1.334186
C105	C	-0.428236	-1.084242	0.793170
C106	C	0.071764	-0.584242	1.293170
C107	C	-0.428257	-1.084229	0.711191
C108	C	0.071743	-0.584229	1.211191
C109	C	-0.428188	-1.084274	0.964040
C110	C	0.071812	-0.584274	1.464040
C111	C	-0.428168	-1.084288	1.046025
C112	C	0.071832	-0.584288	1.546025
C113	C	-0.327776	-1.184742	1.046067
C114	C	0.172224	-0.684742	1.546067
C115	C	-0.327797	-1.184730	0.964088
C116	C	0.172203	-0.684730	1.464088
C117	C	-0.378006	-1.134493	0.923077
C118	C	0.121994	-0.634493	1.423077
H119	H	-0.469364	-0.434009	0.469159
H120	H	0.030636	0.065991	0.969159
H121	H	-0.286952	-0.582715	0.287322
H122	H	0.213048	-0.082715	0.787322
H123	H	-0.287007	-1.225585	0.677887
H124	H	0.212993	-0.725585	1.177887
N125	N	-0.666149	-1.029943	0.482468
N126	N	-0.166149	-0.529943	0.982468
H127	H	-0.632187	-0.993571	0.450526
H128	H	-0.132187	-0.493571	0.950526
H129	H	-0.632130	-1.061862	0.518860
H130	H	-0.132130	-0.561862	1.018860
N131	N	-0.273613	-1.238910	1.090307
N132	N	0.226387	-0.738910	1.590307
H133	H	-0.217532	-1.226740	1.076048
H134	H	0.282468	-0.726740	1.576048
H135	H	-0.285875	-1.294970	1.076043
H136	H	0.214125	-0.794970	1.576043
N137	N	-0.273674	-0.676009	0.274059
N138	N	0.226326	-0.176009	0.774059
H139	H	-0.285801	-0.690258	0.217954
H140	H	0.214199	-0.190258	0.717954
H141	H	-0.217624	-0.690317	0.286413
H142	H	0.282376	-0.190317	0.786413
H143	H	-0.286937	-1.225627	0.930734
H144	H	0.213063	-0.725627	1.430734
N145	N	-0.666121	-1.238755	0.273968
N146	N	-0.166121	-0.738755	0.773968
H147	H	-0.680438	-1.226605	0.217873
H148	H	-0.180438	-0.726605	0.717873
H149	H	-0.680351	-1.294817	0.286286
H150	H	-0.180351	-0.794817	0.786286
H151	H	-0.286964	-1.225603	0.826605
H152	H	0.213036	-0.725603	1.326605
N153	N	-1.089399	-1.030129	0.482551
N154	N	-0.589399	-0.530129	0.982551
H155	H	-1.075088	-1.042289	0.538646
H156	H	-0.575088	-0.542289	1.038646
H157	H	-1.147536	-1.037801	0.474879
H158	H	-0.647536	-0.537801	0.974879
N159	N	-0.273688	-0.423144	0.274087
N160	N	0.226312	0.076856	0.774087
H161	H	-0.241836	-0.461544	0.242342
H162	H	0.258164	0.038456	0.742342
H163	H	-0.237410	-0.389154	0.306112
H164	H	0.262590	0.110846	0.806112
H165	H	-0.469093	-1.043350	0.826533
H166	H	0.030907	-0.543350	1.326533
H167	H	-0.469030	-1.043393	1.079379
H168	H	0.030970	-0.543393	1.579379
N169	N	-0.836519	-1.238829	0.274001
N170	N	-0.336519	-0.738829	0.774001
H171	H	-0.870587	-1.206963	0.237604
H172	H	-0.370587	-0.706963	0.737604
H173	H	-0.870431	-1.275195	0.305998
H174	H	-0.370431	-0.775195	0.805998
N175	N	-0.836546	-1.030020	0.482500
N176	N	-0.336546	-0.530020	0.982500
H177	H	-0.822329	-0.973936	0.470252
H178	H	-0.322329	-0.473936	0.970252
H179	H	-0.822215	-1.042239	0.538575
H180	H	-0.322215	-0.542239	1.038575
N181	N	-0.482337	-1.030088	0.919805
N182	N	0.017663	-0.530088	1.419805
H183	H	-0.514127	-0.998278	0.958196
H184	H	-0.014127	-0.498278	1.458196
H185	H	-0.518675	-1.062019	0.885788
H186	H	-0.018675	-0.562019	1.385788
H187	H	-0.286943	-0.835565	0.287304
H188	H	0.213057	-0.335565	0.787304
H189	H	-0.469363	-0.582737	0.469142
H190	H	0.030637	-0.082737	0.969142
H191	H	-0.929810	-1.225591	0.287270
H192	H	-0.429810	-0.725591	0.787270
N193	N	-1.089365	-1.238941	0.274044
N194	N	-0.589365	-0.738941	0.774044
H195	H	-1.147519	-1.231349	0.281668
H196	H	-0.647519	-0.731349	0.781668
H197	H	-1.074979	-1.294990	0.286309
H198	H	-0.574979	-0.794990	0.786309
N199	N	-0.918991	-1.030058	0.482523
N200	N	-0.418991	-0.530058	0.982523
H201	H	-0.957400	-0.998252	0.514301
H202	H	-0.457400	-0.498252	1.014301
H203	H	-0.885029	-0.993737	0.450528
H204	H	-0.385029	-0.493737	0.950528
N205	N	-0.482405	-1.030043	0.666962
N206	N	0.017595	-0.530043	1.166962
H207	H	-0.538490	-1.042206	0.681215
H208	H	-0.038490	-0.542206	1.181215
H209	H	-0.474738	-1.037673	0.608826
H210	H	0.025262	-0.537673	1.108826
N211	N	-0.482636	-0.846425	0.482361
N212	N	0.017364	-0.346425	0.982361
H213	H	-0.514478	-0.808020	0.514109
H214	H	-0.014478	-0.308020	1.014109
H215	H	-0.450730	-0.880467	0.518744
H216	H	0.049270	-0.380467	1.018744
H217	H	-0.469351	-0.686866	0.469138
H218	H	0.030649	-0.186866	0.969138
