data_functionalizedCrystal
_audit_creation_method	'MofGen! by Chris Wilmer'
_symmetry_space_group_name_H-M	'P1'
_symmetry_Int_Tables_number	1
_symmetry_cell_setting	triclinic
loop_
_symmetry_equiv_pos_as_xyz
  x,y,z
_cell_length_a	18.215407
_cell_length_b	14.908520
_cell_length_c	18.215399
_cell_angle_alpha	93.269364
_cell_angle_beta	89.980167
_cell_angle_gamma	93.321174
loop_
_atom_site_label
_atom_site_type_symbol
_atom_site_fract_x
_atom_site_fract_y
_atom_site_fract_z
Zn1	Zn	1.108178	-0.359158	-0.433017
Zn2	Zn	1.100989	-0.510027	-0.317051
Zn3	Zn	0.985109	-0.359188	-0.309966
Zn4	Zn	0.977982	-0.509977	-0.440073
O5	O	1.043064	-0.434588	-0.375027
O6	O	1.210208	-0.379180	-0.417646
O7	O	1.085592	-0.490052	-0.213128
O8	O	1.007425	-0.232939	-0.320371
O9	O	1.204927	-0.490023	-0.332446
O10	O	1.097843	-0.232917	-0.410776
O11	O	1.000455	-0.379230	-0.207923
O12	O	0.881180	-0.379182	-0.327213
O13	O	0.995278	-0.489937	-0.542120
O14	O	0.875943	-0.489966	-0.422802
O15	O	1.090932	-0.379131	-0.536936
O16	O	1.078681	-0.636266	-0.339288
O17	O	0.988308	-0.636229	-0.429672
C18	C	0.851859	-0.434572	-0.375005
C19	C	0.770059	-0.434587	-0.375014
C20	C	0.579154	-0.492363	-0.424733
C21	C	0.502295	-0.492366	-0.424742
C22	C	0.507726	-0.376828	-0.325338
C23	C	0.584584	-0.376822	-0.325333
C24	C	0.620295	-0.434594	-0.375029
C25	C	0.466579	-0.434604	-0.375044
C26	C	0.383245	-0.434606	-0.375053
C27	C	0.703635	-0.434591	-0.375021
C28	C	1.031961	-0.668981	-0.386030
C29	C	1.027278	-0.769256	-0.390762
C30	C	1.112681	-0.957660	-0.305613
C31	C	1.108284	-1.051877	-0.310057
C32	C	1.014091	-1.051908	-0.404097
C33	C	1.018488	-0.957691	-0.399653
C34	C	1.067784	-0.910570	-0.350409
C35	C	1.072177	-0.816352	-0.345962
C36	C	0.977988	-0.816385	-0.440005
C37	C	0.973591	-0.910602	-0.444449
C38	C	1.235017	-0.434604	-0.375049
C39	C	1.316815	-0.434611	-0.375059
C40	C	1.043112	-0.434526	-0.566977
C41	C	1.043133	-0.434499	-0.648775
C42	C	1.054231	-0.199279	-0.363996
C43	C	1.058990	-0.099004	-0.359296
C44	C	1.092959	-0.376748	-0.834268
C45	C	1.092969	-0.376722	-0.911126
C46	C	0.993364	-0.492110	-0.916513
C47	C	0.993351	-0.492131	-0.839656
C48	C	1.043153	-0.434452	-0.798536
C49	C	1.043176	-0.434404	-0.952250
C50	C	1.043186	-0.434376	-1.035582
C51	C	1.043142	-0.434478	-0.715198
C52	C	1.043062	-0.434585	-0.183820
C53	C	1.043196	-0.434357	-0.102011
H54	H	0.468801	-0.539406	-0.465216
Cl55	Cl	0.952133	-1.111161	-0.466008
Cl56	Cl	0.930729	-0.564673	-0.794732
H57	H	0.478640	-0.329793	-0.284876
Cl58	Cl	0.921533	-0.757182	-0.496313
H59	H	0.608228	-0.539403	-0.465200
Cl60	Cl	0.636309	-0.304186	-0.262847
Cl61	Cl	0.911624	-0.969848	-0.506354
Cl62	Cl	1.134146	-0.757115	-0.284053
Cl63	Cl	1.174641	-0.898419	-0.243697
Cl64	Cl	1.164731	-1.111072	-0.253741
Cl65	Cl	1.155564	-0.304234	-0.782576
H66	H	1.133525	-0.329733	-0.940215
Cl67	Cl	0.930764	-0.564622	-0.968212
