data_functionalizedCrystal
_audit_creation_method	'MofGen! by Chris Wilmer'
_symmetry_space_group_name_H-M	'P1'
_symmetry_Int_Tables_number	1
_symmetry_cell_setting	triclinic
loop_
_symmetry_equiv_pos_as_xyz
  x,y,z
_cell_length_a	8.497374
_cell_length_b	21.395364
_cell_length_c	21.395355
_cell_angle_alpha	90.024552
_cell_angle_beta	89.999406
_cell_angle_gamma	89.983956
loop_
_atom_site_label
_atom_site_type_symbol
_atom_site_fract_x
_atom_site_fract_y
_atom_site_fract_z
Zn1	Zn	0.627609	0.957988	0.354340
Zn2	Zn	0.891382	0.957945	0.249595
Zn3	Zn	0.627678	0.853203	0.249576
Zn4	Zn	0.891410	0.853226	0.354335
O5	O	0.759520	0.905591	0.301961
O6	O	0.662559	1.045660	0.340455
O7	O	0.856418	0.944023	0.161914
O8	O	0.406907	0.867111	0.263467
O9	O	0.856351	1.045628	0.263499
O10	O	0.406856	0.944097	0.340437
O11	O	0.662676	0.867069	0.161901
O12	O	0.662704	0.765528	0.263463
O13	O	0.856399	0.867151	0.442014
O14	O	0.856466	0.765545	0.340429
O15	O	0.662586	0.944119	0.442017
O16	O	1.112148	0.944045	0.263495
O17	O	1.112169	0.867109	0.340447
C18	C	0.759597	0.742803	0.301944
C19	C	0.759667	0.673162	0.301951
C20	C	0.658925	0.640488	0.342084
C21	C	0.658883	0.575052	0.342086
C22	C	0.759612	0.542293	0.301963
C23	C	0.860361	0.574975	0.261822
C24	C	0.860389	0.640410	0.261816
C25	C	0.901682	0.438598	0.296943
C26	C	0.901657	0.373165	0.296953
C27	C	0.759525	0.340473	0.301976
C28	C	0.617414	0.373221	0.307003
C29	C	0.617442	0.438655	0.306998
C30	C	0.759592	0.471341	0.301964
C31	C	0.658728	0.236846	0.342114
C32	C	0.658684	0.171409	0.342112
C33	C	0.860176	0.171334	0.261851
C34	C	0.860207	0.236769	0.261850
C35	C	0.759485	0.269521	0.301985
C36	C	1.169400	0.905583	0.301970
C37	C	1.348044	0.905599	0.301960
C38	C	0.759488	0.905643	0.465385
C39	C	0.759474	0.905665	0.535026
C40	C	0.759444	1.069014	0.301979
C41	C	0.759412	1.138655	0.301987
C42	C	0.759438	0.905575	0.139174
C43	C	0.759007	0.905674	0.069533
C44	C	0.658551	0.945740	0.567742
C45	C	0.658484	0.945739	0.633177
C46	C	0.759367	0.905670	0.665894
C47	C	0.860297	0.865586	0.633171
C48	C	0.860350	0.865584	0.567736
C49	C	0.901417	0.900723	0.769578
C50	C	0.901366	0.900730	0.835011
C51	C	0.759200	0.905673	0.867715
C52	C	0.617081	0.910624	0.834979
C53	C	0.617135	0.910621	0.769545
C54	C	0.759319	0.905667	0.736847
C55	C	0.658195	0.945750	0.971384
C56	C	0.658125	0.945745	1.036820
C57	C	0.859952	0.865595	1.036812
C58	C	0.860008	0.865597	0.971377
C59	C	0.759132	0.905678	0.938667
H60	H	0.942191	0.144662	0.229181
H61	H	1.017156	0.896529	0.742955
H62	H	0.942200	0.832967	0.944739
O63	O	0.968881	0.272014	0.218567
H64	H	0.898161	0.301817	0.186727
H65	H	0.576705	0.263514	0.374790
O66	O	0.968998	0.539643	0.218544
H67	H	1.039048	0.573360	0.190631
H68	H	0.576408	0.978376	0.541113
H69	H	0.576292	0.978372	0.659820
H70	H	0.942431	0.832959	0.659813
H71	H	0.576838	0.548444	0.374766
H72	H	0.576047	0.978383	0.944749
H73	H	0.942532	0.832947	0.541100
H74	H	0.501676	0.346604	0.311094
O75	O	0.463863	0.915959	0.734235
H76	H	0.386413	0.876121	0.746762
O77	O	0.463723	0.915939	0.870241
H78	H	0.487550	0.915096	0.921241
O79	O	0.549270	0.988972	1.072112
H80	H	0.479151	1.016845	1.038370
O81	O	0.968766	0.822374	1.072089
H82	H	0.951780	0.829110	1.123087
H83	H	1.017373	0.346507	0.292863
H84	H	1.017088	0.896703	0.861659
O85	O	0.550281	0.675809	0.385369
H86	H	0.567229	0.726800	0.378627
O87	O	0.464177	0.473980	0.312403
H88	H	0.365330	0.440259	0.315890
H89	H	0.576638	0.144807	0.374792
H90	H	1.017432	0.465211	0.292851
H91	H	0.942429	0.667013	0.229135
