data_functionalizedCrystal
_audit_creation_method	'MofGen! by Chris Wilmer'
_symmetry_space_group_name_H-M	'P1'
_symmetry_Int_Tables_number	1
_symmetry_cell_setting	triclinic
loop_
_symmetry_equiv_pos_as_xyz
  x,y,z
_cell_length_a	27.732048
_cell_length_b	27.732048
_cell_length_c	26.809956
_cell_angle_alpha	90.000636
_cell_angle_beta	90.003258
_cell_angle_gamma	82.642655
loop_
_atom_site_label
_atom_site_type_symbol
_atom_site_fract_x
_atom_site_fract_y
_atom_site_fract_z
O1	O	0.640931	0.057510	0.041421
O2	O	1.140931	0.557510	0.541421
O3	O	0.500138	0.066256	0.041436
O4	O	1.000138	0.566256	0.541436
O5	O	0.574907	-0.008514	0.041419
O6	O	1.074907	0.491486	0.541419
O7	O	0.566162	0.132280	0.041439
O8	O	1.066162	0.632280	0.541439
O9	O	0.574893	-0.008502	-0.041541
O10	O	1.074893	0.491498	0.458459
O11	O	0.500123	0.066267	-0.041523
O12	O	1.000123	0.566267	0.458477
O13	O	0.640917	0.057522	-0.041539
O14	O	1.140917	0.557522	0.458461
Zn15	Zn	0.570518	0.061896	-0.054702
Zn16	Zn	1.070518	0.561896	0.445298
Zn17	Zn	0.570536	0.061881	0.054600
Zn18	Zn	1.070536	0.561881	0.554600
O19	O	0.566147	0.132291	-0.041521
O20	O	1.066147	0.632291	0.458479
C21	C	0.482124	0.066078	-0.000041
C22	C	0.982124	0.566078	0.499959
C23	C	0.428469	0.065525	-0.000036
C24	C	0.928469	0.565525	0.499964
C25	C	0.089654	0.106229	-0.000051
C26	C	0.589654	0.606229	0.499949
C27	C	-0.112006	0.104178	-0.000056
C28	C	0.387994	0.604178	0.499944
O29	O	-0.143262	0.141398	-0.000073
O30	O	0.356738	0.641398	0.499927
N31	N	-0.131130	0.059843	-0.000062
N32	N	0.368870	0.559843	0.499938
C33	C	-0.099835	0.016017	-0.000069
C34	C	0.400165	0.516017	0.499931
O35	O	-0.120728	-0.021740	-0.000079
O36	O	0.379272	0.478260	0.499921
C37	C	0.101824	0.018068	-0.000068
C38	C	0.601824	0.518068	0.499932
C39	C	0.120944	0.062407	-0.000057
C40	C	0.620944	0.562407	0.499943
C41	C	0.108775	0.150563	-0.000042
C42	C	0.608775	0.650563	0.499958
C43	C	0.159187	0.151076	-0.000038
C44	C	0.659187	0.651076	0.499962
C45	C	0.190477	0.107253	-0.000044
C46	C	0.690477	0.607253	0.499956
C47	C	0.171356	0.062919	-0.000054
C48	C	0.671356	0.562919	0.499946
C49	C	0.133117	-0.025757	-0.000079
C50	C	0.633117	0.474243	0.499921
C51	C	0.183535	-0.025240	-0.000080
C52	C	0.683535	0.474760	0.499920
C53	C	0.202655	0.019098	-0.000069
C54	C	0.702655	0.519098	0.499931
C55	C	0.253059	0.019609	-0.000056
C56	C	0.753059	0.519609	0.499944
N57	N	0.272183	0.063944	-0.000050
N58	N	0.772183	0.563944	0.499950
C59	C	0.240892	0.107766	-0.000044
C60	C	0.740892	0.607766	0.499956
C61	C	-0.205709	0.014943	-0.000069
C62	C	0.294291	0.514943	0.499931
C63	C	-0.256124	0.014430	-0.000068
C64	C	0.243876	0.514430	0.499932
C65	C	-0.268291	0.102591	-0.000056
C66	C	0.231709	0.602591	0.499944
C67	C	-0.217876	0.103104	-0.000053
C68	C	0.282124	0.603104	0.499947
C69	C	-0.186585	0.059278	-0.000063
C70	C	0.313415	0.559278	0.499937
C71	C	0.346761	0.108839	-0.000036
C72	C	0.846761	0.608839	0.499964
C73	C	0.397178	0.109347	-0.000030
C74	C	0.897178	0.609347	0.499970
C75	C	0.409341	0.021186	-0.000044
C76	C	0.909341	0.521186	0.499956
C77	C	0.358929	0.020678	-0.000048
C78	C	0.858929	0.520678	0.499952
C79	C	0.327639	0.064508	-0.000045
C80	C	0.827639	0.564508	0.499955
O81	O	0.284343	-0.017592	-0.000045
O82	O	0.784343	0.482408	0.499955
O83	O	0.261794	0.145518	-0.000045
O84	O	0.761794	0.645518	0.499955
C85	C	0.039242	0.105716	-0.000055
C86	C	0.539242	0.605716	0.499945
C87	C	0.020120	0.061382	-0.000065
C88	C	0.520120	0.561382	0.499935
C89	C	0.051411	0.017560	-0.000071
C90	C	0.551411	0.517560	0.499929
C91	C	-0.030294	0.060869	-0.000065
C92	C	0.469706	0.560869	0.499935
C93	C	-0.061585	0.104691	-0.000059
C94	C	0.438415	0.604691	0.499941
C95	C	-0.042461	0.149026	-0.000053
C96	C	0.457539	0.649026	0.499947
C97	C	0.007951	0.149539	-0.000049
C98	C	0.507951	0.649539	0.499951
C99	C	0.032287	-0.026775	-0.000077
C100	C	0.532287	0.473225	0.499923
C101	C	-0.018125	-0.027284	-0.000080
C102	C	0.481875	0.472716	0.499920
C103	C	-0.049416	0.016538	-0.000074
C104	C	0.450584	0.516538	0.499926
C105	C	0.574716	-0.026515	-0.000062
C106	C	1.074716	0.473485	0.499938
C107	C	0.574164	-0.080170	-0.000066
C108	C	1.074164	0.419830	0.499934
C109	C	0.614867	-0.418985	-0.000045
C110	C	1.114867	0.081015	0.499955
C111	C	0.612816	-0.620645	-0.000038
C112	C	1.112816	-0.120645	0.499962
O113	O	0.650037	-0.651900	-0.000021
O114	O	1.150037	-0.151900	0.499979
N115	N	0.568481	-0.639768	-0.000034
N116	N	1.068481	-0.139768	0.499966
C117	C	0.524656	-0.608474	-0.000028
C118	C	1.024656	-0.108474	0.499972
O119	O	0.486899	-0.629367	-0.000019
O120	O	0.986899	-0.129367	0.499981
C121	C	0.526707	-0.406815	-0.000031
C122	C	1.026707	0.093185	0.499969
C123	C	0.571045	-0.387694	-0.000041
C124	C	1.071045	0.112306	0.499959
C125	C	0.659202	-0.399864	-0.000054
C126	C	1.159202	0.100136	0.499946
C127	C	0.659714	-0.349452	-0.000059
C128	C	1.159714	0.150548	0.499941
C129	C	0.615892	-0.318161	-0.000054
C130	C	1.115892	0.181839	0.499946
C131	C	0.571557	-0.337282	-0.000045
C132	C	1.071557	0.162718	0.499955
C133	C	0.482882	-0.375521	-0.000022
C134	C	0.982882	0.124479	0.499978
C135	C	0.483399	-0.325104	-0.000021
C136	C	0.983399	0.174896	0.499979
C137	C	0.527737	-0.305983	-0.000031
C138	C	1.027737	0.194017	0.499969
C139	C	0.528247	-0.255580	-0.000045
C140	C	1.028247	0.244420	0.499955
N141	N	0.572583	-0.236456	-0.000050
N142	N	1.072583	0.263544	0.499950
C143	C	0.616405	-0.267747	-0.000054
C144	C	1.116405	0.232253	0.499946
C145	C	0.523582	-0.714348	-0.000027
C146	C	1.023582	-0.214348	0.499973
C147	C	0.523069	-0.764762	-0.000027
C148	C	1.023069	-0.264762	0.499973
C149	C	0.611230	-0.776930	-0.000036
C150	C	1.111230	-0.276930	0.499964
C151	C	0.611742	-0.726514	-0.000040
C152	C	1.111742	-0.226514	0.499960
C153	C	0.567917	-0.695224	-0.000031
C154	C	1.067917	-0.195224	0.499969
C155	C	0.617477	-0.161878	-0.000064
C156	C	1.117477	0.338122	0.499936
C157	C	0.617986	-0.111461	-0.000071
C158	C	1.117986	0.388539	0.499929
C159	C	0.529825	-0.099298	-0.000059
C160	C	1.029825	0.400702	0.499941
C161	C	0.529316	-0.149710	-0.000055
C162	C	1.029316	0.350290	0.499945
C163	C	0.573147	-0.180999	-0.000056
C164	C	1.073147	0.319001	0.499944
O165	O	0.491047	-0.224296	-0.000057
O166	O	0.991047	0.275704	0.499943
O167	O	0.654156	-0.246844	-0.000053
O168	O	1.154156	0.253156	0.499947
C169	C	0.614355	-0.469397	-0.000041
C170	C	1.114355	0.030603	0.499959
C171	C	0.570021	-0.488518	-0.000032
C172	C	1.070021	0.011482	0.499968
C173	C	0.526198	-0.457228	-0.000027
C174	C	1.026198	0.042772	0.499973
C175	C	0.569508	-0.538933	-0.000032
C176	C	1.069508	-0.038933	0.499968
C177	C	0.613330	-0.570223	-0.000036
C178	C	1.113330	-0.070223	0.499964
C179	C	0.657665	-0.551100	-0.000041
C180	C	1.157665	-0.051100	0.499959
C181	C	0.658177	-0.500688	-0.000045
C182	C	1.158177	-0.000688	0.499955
C183	C	0.481863	-0.476351	-0.000023
C184	C	0.981863	0.023649	0.499977
C185	C	0.481355	-0.526764	-0.000019
C186	C	0.981355	-0.026764	0.499981
C187	C	0.525177	-0.558054	-0.000023
C188	C	1.025177	-0.058054	0.499977
C189	C	0.658931	0.057699	-0.000060
C190	C	1.158931	0.557699	0.499940
C191	C	0.712586	0.058252	-0.000062
C192	C	1.212586	0.558252	0.499938
C193	C	0.566338	0.150292	-0.000039
C194	C	1.066338	0.650292	0.499961
C195	C	0.566891	0.203947	-0.000031
C196	C	1.066891	0.703947	0.499969
N197	N	0.570509	0.061906	-0.129298
N198	N	1.070509	0.561906	0.370702
C199	C	0.603640	0.028781	-0.473932
C200	C	1.103640	0.528781	0.026068
C201	C	0.603652	0.028774	-0.682810
C202	C	1.103652	0.528774	-0.182810
O203	O	0.631801	0.000613	-0.709820
O204	O	1.131801	0.500613	-0.209820
N205	N	0.570539	0.061870	-0.708925
N206	N	1.070539	0.561870	-0.208925
C207	C	0.537419	0.094969	-0.682818
C208	C	1.037419	0.594969	-0.182818
O209	O	0.509252	0.123116	-0.709824
O210	O	1.009252	0.623116	-0.209824
C211	C	0.537406	0.094974	-0.473941
C212	C	1.037406	0.594974	0.026059
C213	C	0.570524	0.061878	-0.447829
C214	C	1.070524	0.561878	0.052171
C215	C	0.636755	-0.004312	-0.447819
C216	C	1.136755	0.495688	0.052181
C217	C	0.636754	-0.004308	-0.395603
C218	C	1.136754	0.495692	0.104397
C219	C	0.603637	0.028789	-0.369500
C220	C	1.103637	0.528789	0.130500
C221	C	0.570522	0.061882	-0.395612
C222	C	1.070522	0.561882	0.104388
C223	C	0.504284	0.128070	-0.447835
C224	C	1.004284	0.628070	0.052165
C225	C	0.504283	0.128067	-0.395613
C226	C	1.004283	0.628067	0.104387
C227	C	0.537401	0.094972	-0.369500
C228	C	1.037401	0.594972	0.130500
C229	C	0.537405	0.094983	-0.317293
C230	C	1.037405	0.594983	0.182707
N231	N	0.570517	0.061887	-0.291177
N232	N	1.070517	0.561887	0.208823
C233	C	0.603633	0.028790	-0.317281
C234	C	1.103633	0.528790	0.182719
C235	C	0.537429	0.094965	-0.792481
C236	C	1.037429	0.594965	-0.292481
C237	C	0.537433	0.094964	-0.844700
C238	C	1.037433	0.594964	-0.344700
C239	C	0.603665	0.028768	-0.844689
C240	C	1.103665	0.528768	-0.344689
C241	C	0.603663	0.028772	-0.792469
C242	C	1.103663	0.528772	-0.292469
C243	C	0.570542	0.061868	-0.766366
C244	C	1.070542	0.561868	-0.266366
C245	C	0.603628	0.028801	-0.207623
C246	C	1.103628	0.528801	0.292377
C247	C	0.603625	0.028809	-0.155402
C248	C	1.103625	0.528809	0.344598
C249	C	0.537392	0.095003	-0.155418
C250	C	1.037392	0.595003	0.344582
C251	C	0.537396	0.094997	-0.207635
C252	C	1.037396	0.594997	0.292365
C253	C	0.570516	0.061892	-0.233735
C254	C	1.070516	0.561892	0.266265
O255	O	0.509266	0.123126	-0.290250
O256	O	1.009266	0.623126	0.209750
O257	O	0.631789	0.000640	-0.290266
O258	O	1.131789	0.500640	0.209734
C259	C	0.603642	0.028777	-0.526149
C260	C	1.103642	0.528777	-0.026149
C261	C	0.570527	0.061870	-0.552261
C262	C	1.070527	0.561870	-0.052261
C263	C	0.537410	0.094968	-0.526158
C264	C	1.037410	0.594968	-0.026158
C265	C	0.570531	0.061870	-0.604480
C266	C	1.070531	0.561870	-0.104480
C267	C	0.603647	0.028773	-0.630584
C268	C	1.103647	0.528773	-0.130584
C269	C	0.636759	-0.004324	-0.604468
C270	C	1.136759	0.495676	-0.104468
C271	C	0.636758	-0.004320	-0.552252
C272	C	1.136758	0.495680	-0.052252
C273	C	0.504298	0.128064	-0.552273
C274	C	1.004298	0.628064	-0.052273
C275	C	0.504303	0.128058	-0.604489
C276	C	1.004303	0.628058	-0.104489
C277	C	0.537419	0.094961	-0.630593
C278	C	1.037419	0.594961	-0.130593
N279	N	0.570549	0.061867	0.129196
N280	N	1.070549	0.561867	0.629196
H281	H	-0.293777	0.138273	-0.000051
H282	H	0.206223	0.638273	0.499949
H283	H	0.510457	0.121917	-0.771232
H284	H	1.010457	0.621917	-0.271232
O285	O	0.213861	-0.067857	-0.000065
O286	O	0.713861	0.432143	0.499935
C287	C	0.186168	-0.107096	-0.000086
C288	C	0.686168	0.392904	0.499914
H289	H	0.148448	-0.094539	0.015618
H290	H	0.648448	0.405461	0.515618
H291	H	0.204988	-0.137782	0.023995
H292	H	0.704988	0.362218	0.523995
H293	H	0.182677	-0.120698	-0.039889
H294	H	0.682677	0.379302	0.460111
H295	H	0.694889	-0.425336	-0.000056
H296	H	1.194889	0.074664	0.499944
H297	H	0.343360	-0.015426	-0.000049
H298	H	0.843360	0.484574	0.499951
H299	H	0.477317	0.155019	-0.469089
H300	H	0.977317	0.655019	0.030911
H301	H	0.653168	-0.187348	-0.000063
H302	H	1.153168	0.312652	0.499937
H303	H	0.117558	-0.061861	-0.000088
H304	H	0.617558	0.438139	0.499912
H305	H	-0.271687	-0.021674	-0.000069
H306	H	0.228313	0.478326	0.499931
O307	O	0.439723	-0.021393	0.000038
O308	O	0.939723	0.478607	0.500038
C309	C	0.431105	-0.048351	0.042991
C310	C	0.931105	0.451649	0.542991
H311	H	0.413683	-0.022710	0.073027
H312	H	0.913683	0.477290	0.573027
H313	H	0.467023	-0.068006	0.057409
H314	H	0.967023	0.431994	0.557409
H315	H	0.405641	-0.076137	0.033270
H316	H	0.905641	0.423863	0.533270
H317	H	0.494146	-0.073812	-0.000057
H318	H	0.994146	0.426188	0.499943
O319	O	0.479956	-0.783252	-0.000001
O320	O	0.979956	-0.283252	0.499999
C321	C	0.441391	-0.744818	-0.000008
C322	C	0.941391	-0.244818	0.499992
H323	H	0.454686	-0.710667	0.015695
H324	H	0.954686	-0.210667	0.515695
H325	H	0.410417	-0.755124	0.024082
H326	H	0.910417	-0.255124	0.524082
H327	H	0.427885	-0.737584	-0.039806
H328	H	0.927885	-0.237584	0.460194
O329	O	0.177819	0.194113	-0.000091
O330	O	0.677819	0.694113	0.499909
C331	C	0.206608	0.197065	-0.043058
C332	C	0.706608	0.697065	0.456942
H333	H	0.219444	0.158875	-0.057393
H334	H	0.719444	0.658875	0.442607
H335	H	0.239483	0.216079	-0.033385
H336	H	0.739483	0.716079	0.466615
H337	H	0.184176	0.218629	-0.073140
H338	H	0.684176	0.718629	0.426860
H339	H	0.477310	0.155018	-0.374362
H340	H	0.977310	0.655018	0.125638
H341	H	-0.202311	0.139207	-0.000047
H342	H	0.297689	0.639207	0.499953
O343	O	0.486205	-0.168206	-0.000025
O344	O	0.986205	0.331794	0.499975
C345	C	0.447637	-0.129775	-0.000037
C346	C	0.947637	0.370225	0.499963
H347	H	0.460930	-0.095619	0.015658
H348	H	0.960930	0.404381	0.515658
H349	H	0.416665	-0.140080	0.024058
H350	H	0.916665	0.359920	0.524058
H351	H	0.434128	-0.122549	-0.039835
H352	H	0.934128	0.377451	0.460165
H353	H	0.447710	-0.299629	-0.000014
H354	H	0.947710	0.200371	0.499986
H355	H	0.510433	0.121951	-0.228896
H356	H	1.010433	0.621951	0.271104
O357	O	0.026441	0.192652	-0.000065
O358	O	0.526441	0.692652	0.499935
C359	C	-0.011996	0.231215	-0.000048
C360	C	0.488004	0.731215	0.499952
H361	H	-0.046147	0.217922	-0.015756
H362	H	0.453853	0.717922	0.484244
H363	H	-0.001693	0.262197	-0.024129
H364	H	0.498307	0.762197	0.475871
H365	H	-0.019229	0.244708	0.039754
H366	H	0.480771	0.744708	0.539754
O367	O	0.505241	0.127104	-0.129979
O368	O	1.005241	0.627104	0.370021
C369	C	0.512351	0.120012	-0.078291
C370	C	1.012351	0.620012	0.421709
H371	H	0.530712	0.081457	-0.071162
H372	H	1.030712	0.581457	0.428838
H373	H	0.475706	0.125635	-0.058446
H374	H	0.975706	0.625635	0.441554
H375	H	0.536384	0.147209	-0.063468
H376	H	1.036384	0.647209	0.436532
O377	O	0.701290	-0.482198	-0.000029
O378	O	1.201290	0.017802	0.499971
C379	C	0.739853	-0.520634	-0.000044
C380	C	1.239853	-0.020634	0.499956
H381	H	0.726561	-0.554784	0.015664
H382	H	1.226561	-0.054784	0.515664
H383	H	0.770837	-0.510329	0.024038
H384	H	1.270837	-0.010329	0.524038
H385	H	0.753346	-0.527870	-0.039845
H386	H	1.253346	-0.027870	0.460155
H387	H	0.663726	-0.031271	-0.625730
H388	H	1.163726	0.468729	-0.125730
O389	O	-0.175386	-0.027676	-0.000053
O390	O	0.324614	0.472324	0.499947
C391	C	-0.203082	-0.066912	-0.000069
C392	C	0.296918	0.433088	0.499931
H393	H	-0.240801	-0.054350	0.015638
H394	H	0.259199	0.445650	0.515638
H395	H	-0.184263	-0.097598	0.024013
H396	H	0.315737	0.402402	0.524013
H397	H	-0.206578	-0.080516	-0.039870
H398	H	0.293422	0.419484	0.460130
H399	H	0.477335	0.155012	-0.625747
H400	H	0.977335	0.655012	-0.125747
O401	O	-0.036615	-0.070400	-0.000111
O402	O	0.463385	0.429600	0.499889
C403	C	0.001820	-0.108965	-0.000105
C404	C	0.501820	0.391035	0.499895
H405	H	0.035971	-0.095669	-0.015802
H406	H	0.535971	0.404331	0.484198
H407	H	-0.008486	-0.139938	-0.024200
H408	H	0.491514	0.360062	0.475800
H409	H	0.009052	-0.122473	0.039692
H410	H	0.509052	0.377527	0.539692
H411	H	-0.067947	0.184708	-0.000046
H412	H	0.432053	0.684708	0.499954
H413	H	0.477330	0.155015	-0.531024
H414	H	0.977330	0.655015	-0.031024
O415	O	0.438238	-0.545254	0.000012
O416	O	0.938238	-0.045254	0.500012
C417	C	0.399673	-0.506819	0.000003
C418	C	0.899673	-0.006819	0.500003
H419	H	0.412970	-0.472666	0.015701
H420	H	0.912970	0.027334	0.515701
H421	H	0.368701	-0.517123	0.024098
H422	H	0.868701	-0.017123	0.524098
H423	H	0.386164	-0.499589	-0.039794
H424	H	0.886164	0.000411	0.460206
H425	H	0.693347	-0.576585	-0.000047
H426	H	1.193347	-0.076585	0.499953
H427	H	0.663725	-0.031269	-0.530995
H428	H	1.163725	0.468731	-0.030995
O429	O	0.635822	-0.003290	-0.233026
O430	O	1.135822	0.496710	0.266974
C431	C	0.665459	0.022388	-0.263220
C432	C	1.165459	0.522388	0.236780
H433	H	0.645923	0.060344	-0.271055
H434	H	1.145923	0.560344	0.228945
H435	H	0.673267	0.002151	-0.299934
H436	H	1.173267	0.502151	0.200066
H437	H	0.701154	0.025433	-0.243087
H438	H	1.201154	0.525433	0.256913
O439	O	0.439304	-0.445940	0.000068
O440	O	0.939304	0.054060	0.500068
C441	C	0.436967	-0.416401	0.043024
C442	C	0.936967	0.083599	0.543024
H443	H	0.461833	-0.435040	0.073055
H444	H	0.961833	0.064960	0.573055
H445	H	0.397988	-0.410453	0.057448
H446	H	0.897988	0.089547	0.557448
H447	H	0.449189	-0.379826	0.033305
H448	H	0.949189	0.120174	0.533305
H449	H	0.057760	-0.062462	-0.000083
H450	H	0.557760	0.437538	0.499917
H451	H	0.412743	0.145454	-0.000021
H452	H	0.912743	0.645454	0.499979
O453	O	0.661101	-0.092968	-0.000056
O454	O	1.161101	0.407032	0.499944
C455	C	0.699668	-0.131401	-0.000070
C456	C	1.199668	0.368599	0.499930
H457	H	0.686380	-0.165552	0.015640
H458	H	1.186380	0.334448	0.515640
H459	H	0.730649	-0.121091	0.024011
H460	H	1.230649	0.378909	0.524011
H461	H	0.713160	-0.138637	-0.039870
H462	H	1.213160	0.361363	0.460130
O463	O	0.668794	-0.036599	-0.370256
O464	O	1.168794	0.463401	0.129744
C465	C	0.643019	-0.066238	-0.340165
C466	C	1.143019	0.433762	0.159835
H467	H	0.605112	-0.046614	-0.332273
H468	H	1.105112	0.453386	0.167727
H469	H	0.663249	-0.074222	-0.303472
H470	H	1.163249	0.425778	0.196528
H471	H	0.639855	-0.101845	-0.360416
H472	H	1.139855	0.398155	0.139584
H473	H	0.321291	0.144530	-0.000035
H474	H	0.821291	0.644530	0.499965
O475	O	0.635786	-0.003366	-0.870128
O476	O	1.135786	0.496634	-0.370128
C477	C	0.628691	0.003743	-0.921816
C478	C	1.128691	0.503743	-0.421816
H479	H	0.590128	0.022081	-0.928946
H480	H	1.090128	0.522081	-0.428946
H481	H	0.634337	-0.032901	-0.941664
H482	H	1.134337	0.467099	-0.441664
H483	H	0.655871	0.027795	-0.936633
H484	H	1.155871	0.527795	-0.436633
H485	H	0.630595	0.001859	-0.134142
H486	H	1.130595	0.501859	0.365858
H487	H	0.083302	0.186251	-0.000038
H488	H	0.583302	0.686251	0.499962
H489	H	0.487892	-0.688875	-0.000020
H490	H	0.987892	-0.188875	0.499980
O491	O	0.668975	-0.036482	-0.473094
O492	O	1.168975	0.463518	0.026906
C493	C	0.698188	-0.065695	-0.438839
C494	C	1.198188	0.434305	0.061161
H495	H	0.698573	-0.045874	-0.401617
H496	H	1.198573	0.454126	0.098383
H497	H	0.736850	-0.073333	-0.453913
H498	H	1.236850	0.426667	0.046087
H499	H	0.682766	-0.101498	-0.433286
H500	H	1.182766	0.398502	0.066714
O501	O	0.635783	-0.003458	-0.767142
O502	O	1.135783	0.496542	-0.267142
C503	C	0.628278	-0.051245	-0.779939
C504	C	1.128278	0.448755	-0.279939
H505	H	0.589575	-0.051197	-0.794288
H506	H	1.089575	0.448803	-0.294288
H507	H	0.634023	-0.075565	-0.745614
H508	H	1.134023	0.424435	-0.245614
H509	H	0.655165	-0.065617	-0.810263
H510	H	1.155165	0.434383	-0.310263
O511	O	0.702827	-0.330962	-0.000042
O512	O	1.202827	0.169038	0.499958
C513	C	0.741390	-0.369399	-0.000057
C514	C	1.241390	0.130601	0.499943
H515	H	0.728098	-0.403549	0.015651
H516	H	1.228098	0.096451	0.515651
H517	H	0.772373	-0.359094	0.024026
H518	H	1.272373	0.140906	0.524026
H519	H	0.754883	-0.376634	-0.039858
H520	H	1.254883	0.123366	0.460142
O521	O	0.654824	-0.707965	0.000044
O522	O	1.154824	-0.207965	0.500044
C523	C	0.681524	-0.724002	0.043000
C524	C	1.181524	-0.224002	0.543000
H525	H	0.655595	-0.734299	0.073032
H526	H	1.155595	-0.234299	0.573032
H527	H	0.701862	-0.693611	0.057422
H528	H	1.201862	-0.193611	0.557422
H529	H	0.708707	-0.757061	0.033281
H530	H	1.208707	-0.257061	0.533281
O531	O	0.653755	-0.807399	-0.000014
O532	O	1.153755	-0.307399	0.499986
C533	C	0.643789	-0.855994	-0.000024
C534	C	1.143789	-0.355994	0.499976
H535	H	0.605835	-0.857643	0.015679
H536	H	1.105835	-0.357643	0.515679
H537	H	0.671742	-0.879042	0.024065
H538	H	1.171742	-0.379042	0.524065
H539	H	0.645731	-0.870592	-0.039823
H540	H	1.145731	-0.370592	0.460177
O541	O	0.439824	-0.394112	-0.000095
O542	O	0.939824	0.105888	0.499905
C543	C	0.436874	-0.422921	-0.043050
C544	C	0.936874	0.077079	0.456950
H545	H	0.462034	-0.411189	-0.073090
H546	H	0.962034	0.088811	0.426910
H547	H	0.397877	-0.418106	-0.057458
H548	H	0.897877	0.081894	0.442542
H549	H	0.448325	-0.462765	-0.033335
H550	H	0.948325	0.037235	0.466665
O551	O	0.505219	0.127135	-0.869986
O552	O	1.005219	0.627135	-0.369986
C553	C	0.475999	0.156352	-0.835742
C554	C	0.975999	0.656352	-0.335742
H555	H	0.475604	0.136535	-0.798520
H556	H	0.975604	0.636535	-0.298520
H557	H	0.437341	0.163992	-0.850830
H558	H	0.937341	0.663992	-0.350830
H559	H	0.491422	0.192155	-0.830186
H560	H	0.991422	0.692155	-0.330186
