data_functionalizedCrystal
_audit_creation_method	'MofGen! by Chris Wilmer'
_symmetry_space_group_name_H-M	'P1'
_symmetry_Int_Tables_number	1
_symmetry_cell_setting	triclinic
loop_
_symmetry_equiv_pos_as_xyz
  x,y,z
_cell_length_a	14.628931
_cell_length_b	18.426585
_cell_length_c	14.628931
_cell_angle_alpha	59.997488
_cell_angle_beta	59.999807
_cell_angle_gamma	59.999517
loop_
_atom_site_label
_atom_site_type_symbol
_atom_site_fract_x
_atom_site_fract_y
_atom_site_fract_z
Zr1	Zr	1.881199	-0.095240	-0.880616
O2	O	1.925942	-0.211122	-0.734647
O3	O	1.735239	-0.059716	-0.925363
O4	O	1.925943	-0.211122	-0.925353
O5	O	1.735240	0.059714	-0.734664
O6	O	2.076375	-0.211122	-1.075785
O7	O	1.735238	-0.059717	-0.734657
O8	O	1.735240	0.059715	-1.075802
O9	O	2.076374	-0.211122	-0.734647
O10	O	1.945028	-0.044566	-1.056713
O11	O	1.832763	0.044564	-0.944453
O12	O	2.057293	-0.133696	-0.944441
O13	O	1.945028	-0.044566	-0.832181
Zr14	Zr	2.121124	0.095238	-1.120550
Zr15	Zr	2.121121	-0.095240	-1.120538
Zr16	Zr	1.881201	0.095238	-0.880628
Zr17	Zr	2.121121	-0.095241	-0.880616
Zr18	Zr	1.881202	0.095238	-1.120550
O19	O	2.267084	0.059714	-1.075803
O20	O	2.267081	-0.211122	-1.075786
O21	O	1.925946	0.059714	-0.734665
O22	O	2.076380	0.211120	-1.266519
O23	O	2.076377	-0.059716	-1.266501
O24	O	1.735242	0.211120	-0.925380
O25	O	2.267083	-0.059717	-1.266501
O26	O	2.076380	0.211119	-1.075813
O27	O	1.925948	0.211119	-0.925380
O28	O	2.267084	0.059714	-1.266509
O29	O	2.267081	-0.211122	-0.925353
O30	O	1.735242	0.211120	-1.075812
O31	O	1.925948	0.211120	-1.266518
O32	O	1.925946	0.059715	-1.266509
O33	O	2.076376	-0.059717	-0.734657
O34	O	2.267082	-0.059717	-0.925363
O35	O	1.945030	0.133694	-1.056724
O36	O	2.057295	0.044564	-1.168985
O37	O	2.169560	-0.044566	-1.056713
O38	O	2.057295	0.044564	-0.944453
C39	C	1.701056	-0.000001	-1.000582
C40	C	1.599203	-0.000001	-1.000582
C41	C	1.609484	-0.044215	-1.056271
C42	C	1.504215	-0.044216	-1.056272
C43	C	2.001158	-0.238261	-1.000567
C44	C	2.001158	-0.319124	-1.000562
C45	C	2.001161	-0.615208	-1.000604
C46	C	2.001157	-0.532826	-1.000595
C47	C	2.001158	-0.467168	-1.000582
C48	C	2.001156	-0.384782	-1.000575
C49	C	2.301267	-0.000002	-1.000583
C50	C	2.403120	-0.000002	-1.000583
C51	C	2.001162	-0.000001	-1.300689
C52	C	2.001162	-0.000001	-1.402542
C53	C	2.001164	0.238258	-1.000598
C54	C	2.001165	0.319122	-1.000604
C55	C	1.945470	-0.044215	-1.392257
C56	C	1.945469	-0.044216	-1.497526
C57	C	2.001161	-0.000002	-0.700477
C58	C	2.001161	-0.000002	-0.598624
C59	C	1.701055	-0.000001	-0.700477
C60	C	1.599202	-0.000001	-0.598623
C61	C	1.701059	0.238259	-1.000598
C62	C	1.599206	0.319122	-1.000603
C63	C	2.001165	0.238259	-1.300704
C64	C	2.001166	0.319122	-1.402562
C65	C	2.001158	-0.238261	-0.700462
C66	C	2.001157	-0.319124	-0.598603
C67	C	2.301267	-0.000001	-1.300689
C68	C	2.403121	-0.000001	-1.402542
C69	C	2.301264	-0.238261	-1.000568
C70	C	2.403116	-0.319124	-1.000563
C71	C	1.609978	0.403629	-1.059210
C72	C	1.514286	0.479616	-1.059211
C73	C	1.407824	0.471094	-1.000610
C74	C	1.397055	0.386578	-0.941996
C75	C	1.492745	0.310593	-0.941989
C76	C	2.059777	0.310571	-1.509005
C77	C	2.059801	0.386544	-1.604721
C78	C	2.001206	0.471066	-1.593992
C79	C	1.942592	0.479615	-1.487538
C80	C	1.942576	0.403643	-1.391825
C81	C	1.942557	-0.310574	-0.492161
C82	C	1.942563	-0.386546	-0.396445
C83	C	2.001163	-0.471068	-0.407174
C84	C	2.059771	-0.479617	-0.513627
C85	C	2.059770	-0.403646	-0.609341
C86	C	2.509559	-0.310574	-1.059175
C87	C	2.605270	-0.386546	-1.059192
C88	C	2.594534	-0.471068	-1.000589
C89	C	2.488080	-0.479617	-0.941976
C90	C	2.392372	-0.403646	-0.941966
C91	C	1.498102	0.044213	-0.608908
C92	C	1.392830	0.044214	-0.503639
H93	H	1.897796	-0.082072	-1.305517
H94	H	1.512844	-0.082074	-1.103944
Br95	Br	2.001239	0.574163	-1.723902
Br96	Br	1.863017	-0.374923	-0.251987
Br97	Br	1.865983	-0.107303	-1.483128
Br98	Br	2.247917	-0.415266	-0.862402
Br99	Br	2.139292	-0.594333	-0.528169
H100	H	1.894841	0.410618	-1.305158
H101	H	1.523076	0.548425	-1.106945
H102	H	2.518322	-0.241758	-1.106896
Br103	Br	2.080627	0.063105	-1.613030
Br104	Br	1.388719	0.063088	-0.921100
Br105	Br	1.248276	0.107302	-0.518036
H106	H	1.489843	-0.037860	-0.393902
H107	H	1.696656	0.410585	-1.106930
Br108	Br	1.613584	-0.063087	-0.454057
Br109	Br	2.139301	-0.415266	-0.753795
H110	H	2.048845	0.037849	-1.489281
Br111	Br	1.277968	0.574227	-1.000630
Br112	Br	2.001153	-0.574165	-0.277264
H113	H	1.894828	-0.241758	-0.483404
Br114	Br	1.754046	-0.107305	-1.135746
Br115	Br	2.139317	0.195872	-1.523597
H116	H	1.512466	0.037854	-0.952909
H117	H	1.310361	0.379652	-0.894285
H118	H	2.691940	-0.379568	-1.106920
Br119	Br	2.724437	-0.574165	-1.000613
Br120	Br	2.139350	0.374921	-1.749179
Br121	Br	1.478107	0.195907	-0.862447
H122	H	1.894886	0.548443	-1.478819
H123	H	2.479355	-0.548445	-0.894263
H124	H	1.489482	0.082070	-0.695647
