data_functionalizedCrystal
_audit_creation_method	'MofGen! by Chris Wilmer'
_symmetry_space_group_name_H-M	'P1'
_symmetry_Int_Tables_number	1
_symmetry_cell_setting	triclinic
loop_
_symmetry_equiv_pos_as_xyz
  x,y,z
_cell_length_a	17.699083
_cell_length_b	12.837942
_cell_length_c	16.776229
_cell_angle_alpha	89.994225
_cell_angle_beta	89.998886
_cell_angle_gamma	89.055978
loop_
_atom_site_label
_atom_site_type_symbol
_atom_site_fract_x
_atom_site_fract_y
_atom_site_fract_z
O1	O	1.013707	0.131067	-0.066175
O2	O	0.794582	0.148119	-0.066201
O3	O	0.899286	-0.011297	-0.066184
O4	O	0.909003	0.290484	-0.066192
O5	O	0.899269	-0.011307	0.066393
O6	O	0.794565	0.148110	0.066376
O7	O	1.013691	0.131057	0.066401
Zn8	Zn	0.904126	0.139582	0.087438
Zn9	Zn	0.904147	0.139595	-0.087237
O10	O	0.908987	0.290474	0.066384
C11	C	0.766332	0.147503	0.000084
C12	C	0.682179	0.145670	0.000074
C13	C	0.895995	-0.049915	0.000104
C14	C	0.886204	-0.164967	0.000101
C15	C	0.640432	0.239245	0.000072
C16	C	0.561362	0.237516	0.000082
C17	C	0.524040	0.142212	0.000089
C18	C	0.565792	0.048631	0.000094
C19	C	0.644861	0.050360	0.000089
C20	C	0.246916	0.041653	0.000114
C21	C	0.167842	0.039931	0.000116
C22	C	0.163418	0.228809	0.000107
C23	C	0.242486	0.230539	0.000102
C24	C	0.284232	0.136958	0.000111
C25	C	0.369969	0.138833	0.000101
C26	C	0.438304	0.140336	0.000093
C27	C	1.003908	-0.406222	0.000099
C28	C	0.994712	-0.514324	0.000096
C29	C	0.858617	-0.489277	0.000088
C30	C	0.867813	-0.381174	0.000091
C31	C	0.940461	-0.339651	0.000097
C32	C	0.949656	-0.231546	0.000105
C33	C	0.813561	-0.206501	0.000092
C34	C	0.804365	-0.314604	0.000089
C35	C	1.041941	0.131673	0.000115
C36	C	1.126094	0.133506	0.000119
C37	C	0.912278	0.329091	0.000095
C38	C	0.922069	0.444144	0.000092
N39	N	0.904117	0.139572	0.206649
N40	N	0.904161	0.139596	-0.206449
C41	C	0.950497	0.069012	0.248374
C42	C	0.950502	0.069011	0.331826
C43	C	0.904128	0.139576	0.373552
C44	C	0.857742	0.210141	0.331821
C45	C	0.857735	0.210136	0.248371
C46	C	0.857771	0.210161	0.668369
C47	C	0.857784	0.210163	0.751825
C48	C	0.950538	0.069036	0.751824
C49	C	0.950530	0.069031	0.668373
C50	C	0.904142	0.139591	0.626650
C51	C	0.904137	0.139590	0.536162
C52	C	0.904137	0.139583	0.464039
H53	H	0.670814	0.316852	0.000065
H54	H	0.745217	-0.348427	0.000081
H55	H	0.988263	0.011553	0.214406
O56	O	0.745120	-0.134701	0.000087
H57	H	0.763717	-0.052553	0.000086
H58	H	0.820002	0.267615	0.634404
O59	O	1.063147	-0.586123	0.000107
H60	H	1.062225	-0.635962	-0.053931
O61	O	0.807715	0.286245	0.203361
H62	H	0.775475	0.335322	0.246394
H63	H	0.988268	0.011554	0.365798
O64	O	1.082259	-0.361427	0.000112
H65	H	1.089708	-0.312760	-0.053920
O66	O	1.000540	-0.007093	0.623373
H67	H	0.992744	0.004761	0.558335
O68	O	1.000574	-0.007072	0.796825
H69	H	0.985118	-0.087856	0.780811
O70	O	0.807778	0.286291	0.796835
H71	H	0.775520	0.335357	0.753803
O72	O	0.525542	-0.054165	0.000108
H73	H	0.489628	-0.059477	-0.053928
O74	O	0.282737	0.333334	0.000106
H75	H	0.266495	0.378304	-0.053924
O76	O	0.807727	0.286259	0.376820
H77	H	0.815530	0.274418	0.441859
H78	H	0.129419	0.305007	0.000104
H79	H	0.799470	-0.523105	0.000075
H80	H	0.527375	0.313714	0.000079
H81	H	0.280896	-0.034546	0.000122
O82	O	0.127586	-0.062868	0.000139
H83	H	0.143825	-0.107837	-0.053886
O84	O	0.689895	-0.050564	0.000095
H85	H	0.675788	-0.096180	-0.053941
O86	O	1.028007	-0.186752	0.000102
H87	H	1.070580	-0.251209	0.000091
