data_functionalizedCrystal
_audit_creation_method	'MofGen! by Chris Wilmer'
_symmetry_space_group_name_H-M	'P1'
_symmetry_Int_Tables_number	1
_symmetry_cell_setting	triclinic
loop_
_symmetry_equiv_pos_as_xyz
  x,y,z
_cell_length_a	19.077105
_cell_length_b	16.120484
_cell_length_c	19.076919
_cell_angle_alpha	95.046610
_cell_angle_beta	90.076224
_cell_angle_gamma	90.738523
loop_
_atom_site_label
_atom_site_type_symbol
_atom_site_fract_x
_atom_site_fract_y
_atom_site_fract_z
Zn1	Zn	1.040337	-0.403262	-0.456942
Zn2	Zn	1.540337	0.096738	0.043058
Zn3	Zn	1.039017	-0.537287	-0.344927
Zn4	Zn	1.539017	-0.037287	0.155073
Zn5	Zn	0.928051	-0.392095	-0.334278
Zn6	Zn	1.428051	0.107905	0.165722
Zn7	Zn	0.916861	-0.536784	-0.457659
Zn8	Zn	1.416861	-0.036784	0.042341
O9	O	0.981066	-0.467357	-0.398451
O10	O	1.481066	0.032643	0.101549
O11	O	1.138276	-0.425924	-0.446240
O12	O	1.638276	0.074076	0.053760
O13	O	1.028428	-0.513564	-0.245000
O14	O	1.528428	-0.013564	0.255000
O15	O	0.948182	-0.276934	-0.345793
O16	O	1.448182	0.223066	0.154207
O17	O	1.137306	-0.524392	-0.363943
O18	O	1.637306	-0.024392	0.136057
O19	O	1.030678	-0.285138	-0.435913
O20	O	1.530678	0.214862	0.064087
O21	O	0.946902	-0.406892	-0.237176
O22	O	1.446902	0.093108	0.262824
O23	O	0.828452	-0.406405	-0.346488
O24	O	1.328452	0.093595	0.153512
O25	O	0.929109	-0.523535	-0.556078
O26	O	1.429109	-0.023535	-0.056078
O27	O	0.820230	-0.512707	-0.437136
O28	O	1.320230	-0.012707	0.062864
O29	O	1.019827	-0.425436	-0.555551
O30	O	1.519827	0.074564	-0.055551
O31	O	1.017576	-0.653863	-0.364638
O32	O	1.517576	-0.153863	0.135362
O33	O	0.927829	-0.653494	-0.447462
O34	O	1.427829	-0.153494	0.052538
C35	C	0.798901	-0.458290	-0.390734
C36	C	1.298901	0.041710	0.109266
C37	C	0.720969	-0.454433	-0.387451
C38	C	1.220969	0.045567	0.112549
C39	C	0.680093	-0.508043	-0.433036
C40	C	1.180093	-0.008043	0.066964
C41	C	0.606867	-0.504408	-0.429953
C42	C	1.106867	-0.004408	0.070047
C43	C	0.574519	-0.447165	-0.381281
C44	C	1.074519	0.052835	0.118719
C45	C	0.615400	-0.393548	-0.335694
C46	C	1.115400	0.106452	0.164306
C47	C	0.688624	-0.397180	-0.338781
C48	C	1.188624	0.102820	0.161219
C49	C	0.355979	-0.430354	-0.367000
C50	C	0.855979	0.069646	0.133000
C51	C	0.282749	-0.426728	-0.363916
C52	C	0.782749	0.073272	0.136084
C53	C	0.274222	-0.537586	-0.458176
C54	C	0.774222	-0.037586	0.041824
C55	C	0.347448	-0.541217	-0.461255
C56	C	0.847448	-0.041217	0.038745
C57	C	0.388323	-0.487598	-0.415670
C58	C	0.888323	0.012402	0.084330
N59	N	0.499670	-0.443449	-0.378128
N60	N	0.999670	0.056551	0.121872
N61	N	0.463169	-0.491310	-0.418828
N62	N	0.963169	0.008690	0.081172
C63	C	0.971363	-0.683924	-0.407299
C64	C	1.471363	-0.183924	0.092701
C65	C	0.967276	-0.776577	-0.411111
C66	C	1.467276	-0.276577	0.088889
C67	C	0.959816	-0.946215	-0.418084
C68	C	1.459816	-0.446215	0.081916
C69	C	1.002442	-0.987665	-0.378836
C70	C	1.502442	-0.487665	0.121164
C71	C	0.998291	-1.082058	-0.382716
C72	C	1.498291	-0.582058	0.117284
C73	C	0.963966	-0.851814	-0.414205
C74	C	1.463966	-0.351814	0.085795
C75	C	1.163943	-0.476459	-0.406199
C76	C	1.663943	0.023541	0.093801
C77	C	1.241874	-0.480338	-0.409501
C78	C	1.741874	0.019662	0.090499
C79	C	0.973367	-0.475675	-0.582072
C80	C	1.473367	0.024325	-0.082072
C81	C	0.970086	-0.479220	-0.660321
C82	C	1.470086	0.020780	-0.160321
C83	C	0.990826	-0.249946	-0.389585
C84	C	1.490826	0.250054	0.110415
C85	C	0.994984	-0.157298	-0.385807
C86	C	1.494984	0.342702	0.114193
C87	C	1.015774	-0.429813	-0.696809
C88	C	1.515774	0.070187	-0.196809
C89	C	1.012683	-0.433140	-0.770331
C90	C	1.512683	0.066860	-0.270331
C91	C	0.963906	-0.485879	-0.807364
C92	C	1.463906	0.014121	-0.307364
C93	C	0.918214	-0.535288	-0.770871
C94	C	1.418214	-0.035288	-0.270871
C95	C	0.921302	-0.531956	-0.697350
C96	C	1.421302	-0.031956	-0.197350
C97	C	0.949602	-0.501317	-1.027278
C98	C	1.449602	-0.001317	-0.527278
C99	C	0.946518	-0.504647	-1.100804
C100	C	1.446518	-0.004647	-0.600804
C101	C	1.040987	-0.402498	-1.100259
C102	C	1.540987	0.097502	-0.600259
C103	C	1.044074	-0.399174	-1.026737
C104	C	1.544074	0.100826	-0.526737
C105	C	0.998378	-0.448580	-0.990250
C106	C	1.498378	0.051420	-0.490250
N107	N	0.960747	-0.489283	-0.882516
N108	N	1.460747	0.010717	-0.382516
N109	N	1.001535	-0.445171	-0.915099
N110	N	1.501535	0.054829	-0.415099
C111	C	0.988779	-0.459013	-0.215544
C112	C	1.488779	0.040987	0.284456
C113	C	0.992206	-0.455240	-0.137292
C114	C	1.492206	0.044760	0.362708
H115	H	0.706425	-0.554659	-0.472667
H116	H	1.206425	-0.054659	0.027333
C117	C	1.090507	-0.348887	-1.139999
C118	C	1.590507	0.151113	-0.639999
C119	C	1.077354	-0.363072	-1.212311
C120	C	1.577354	0.136928	-0.712311
C121	C	1.122952	-0.313687	-1.248940
C122	C	1.622952	0.186313	-0.748940
H123	H	1.137602	-0.362834	-1.130531
H124	H	1.637602	0.137166	-0.630531
H125	H	1.083255	-0.291809	-1.125269
H126	H	1.583255	0.208191	-0.625269
H127	H	1.084611	-0.420137	-1.227036
H128	H	1.584611	0.079863	-0.727036
H129	H	1.030267	-0.349120	-1.221801
H130	H	1.530267	0.150880	-0.721801
H131	H	1.115700	-0.256610	-1.234210
H132	H	1.615700	0.243390	-0.734210
H133	H	1.170044	-0.327639	-1.239465
H134	H	1.670044	0.172361	-0.739465
H135	H	1.114029	-0.323300	-1.298006
H136	H	1.614029	0.176700	-0.798006
H137	H	0.906796	-0.547595	-1.130954
H138	H	1.406796	-0.047595	-0.630954
C139	C	0.899946	-0.555039	-0.987798
C140	C	1.399946	-0.055039	-0.487798
C141	C	0.856579	-0.601947	-1.035970
C142	C	1.356579	-0.101947	-0.535970
C143	C	0.810826	-0.651448	-0.999624
C144	C	1.310826	-0.151448	-0.499624
H145	H	0.871969	-0.520409	-0.956528
H146	H	1.371969	-0.020409	-0.456528
H147	H	0.926307	-0.591443	-0.961743
H148	H	1.426307	-0.091443	-0.461743
H149	H	0.830220	-0.565547	-1.062012
H150	H	1.330220	-0.065547	-0.562012
H151	H	0.884536	-0.636594	-1.067241
H152	H	1.384536	-0.136594	-0.567241
H153	H	0.837187	-0.687852	-0.973569
H154	H	1.337187	-0.187852	-0.473569
H155	H	0.782854	-0.616812	-0.968355
H156	H	1.282854	-0.116812	-0.468355
H157	H	0.781400	-0.683287	-1.032303
H158	H	1.281400	-0.183287	-0.532303
H159	H	0.920208	-0.981617	-0.454597
H160	H	1.420208	-0.481617	0.045403
H161	H	0.589056	-0.346936	-0.296068
H162	H	1.089056	0.153064	0.203932
H163	H	1.055495	-0.386870	-0.666662
H164	H	1.555495	0.113130	-0.166662
H165	H	1.049888	-0.392910	-0.800037
H166	H	1.549888	0.107090	-0.300037
H167	H	1.083794	-0.356231	-0.996590
H168	H	1.583794	0.143769	-0.496590
C169	C	0.400229	-0.372099	-0.317426
C170	C	0.900229	0.127901	0.182574
C171	C	0.356224	-0.321208	-0.274131
C172	C	0.856224	0.178792	0.225869
C173	C	0.396966	-0.267536	-0.228448
C174	C	0.896966	0.232464	0.271552
H175	H	0.429298	-0.338390	-0.344050
H176	H	0.929298	0.161610	0.155950
H177	H	0.428642	-0.403925	-0.289171
H178	H	0.928642	0.096075	0.210829
H179	H	0.327824	-0.289384	-0.302383
H180	H	0.827824	0.210616	0.197617
H181	H	0.327156	-0.354893	-0.247491
H182	H	0.827156	0.145107	0.252509
H183	H	0.425378	-0.299362	-0.200193
H184	H	0.925378	0.200638	0.299807
H185	H	0.426032	-0.233833	-0.255078
H186	H	0.926032	0.266167	0.244922
H187	H	0.367114	-0.233006	-0.199062
H188	H	0.867114	0.266994	0.300938
H189	H	0.240934	-0.581239	-0.495289
H190	H	0.740934	-0.081239	0.004711
H191	H	0.573589	-0.548064	-0.467073
H192	H	1.073589	-0.048064	0.032927
C193	C	1.055183	-0.940311	-0.330155
C194	C	1.555183	-0.440311	0.169845
C195	C	1.048847	-0.854743	-0.335913
C196	C	1.548847	-0.354743	0.164087
C197	C	1.097408	-0.811090	-0.291072
C198	C	1.597408	-0.311090	0.208928
H199	H	1.101277	-0.957177	-0.343007
H200	H	1.601277	-0.457177	0.156993
H201	H	1.046317	-0.951869	-0.282972
H202	H	1.546317	-0.451869	0.217028
H203	H	1.057717	-0.843190	-0.383086
H204	H	1.557717	-0.343190	0.116914
H205	H	1.002763	-0.837852	-0.323055
H206	H	1.502763	-0.337852	0.176945
H207	H	1.088543	-0.822648	-0.243889
H208	H	1.588543	-0.322648	0.256111
H209	H	1.143499	-0.827963	-0.303928
H210	H	1.643499	-0.327963	0.196072
H211	H	1.093112	-0.753027	-0.294968
H212	H	1.593112	-0.253027	0.205032
C213	C	0.865365	-0.592658	-0.811123
C214	C	1.365365	-0.092658	-0.311123
C215	C	0.900894	-0.649987	-0.857180
C216	C	1.400894	-0.149987	-0.357180
C217	C	0.852234	-0.702859	-0.894263
C218	C	1.352234	-0.202859	-0.394263
H219	H	0.835024	-0.560650	-0.837269
H220	H	1.335024	-0.060650	-0.337269
H221	H	0.838605	-0.621655	-0.778885
H222	H	1.338605	-0.121655	-0.278885
H223	H	0.927642	-0.620992	-0.889413
H224	H	1.427642	-0.120992	-0.389413
H225	H	0.931232	-0.682014	-0.831052
H226	H	1.431232	-0.182014	-0.331052
H227	H	0.825474	-0.731856	-0.862026
H228	H	1.325474	-0.231856	-0.362026
H229	H	0.821895	-0.670844	-0.920405
H230	H	1.321895	-0.170844	-0.420405
H231	H	0.876334	-0.741767	-0.925512
H232	H	1.376334	-0.241767	-0.425512
C233	C	0.732885	-0.338938	-0.289200
C234	C	1.232885	0.161062	0.210800
C235	C	0.688885	-0.288046	-0.245899
C236	C	1.188885	0.211954	0.254101
C237	C	0.729631	-0.234388	-0.200210
C238	C	1.229631	0.265612	0.299790
H239	H	0.761958	-0.305230	-0.315819
H240	H	1.261958	0.194770	0.184181
H241	H	0.761292	-0.370774	-0.260948
H242	H	1.261292	0.129226	0.239052
H243	H	0.660489	-0.256212	-0.274148
H244	H	1.160489	0.243788	0.225852
H245	H	0.659811	-0.321731	-0.219265
H246	H	1.159811	0.178269	0.280735
H247	H	0.758039	-0.266224	-0.171958
H248	H	1.258039	0.233776	0.328042
H249	H	0.758703	-0.200686	-0.226835
H250	H	1.258703	0.299314	0.273165
H251	H	0.699783	-0.199857	-0.170821
H252	H	1.199783	0.300143	0.329179
H253	H	0.884091	-0.572180	-0.667641
H254	H	1.384091	-0.072180	-0.167641
H255	H	0.373781	-0.587832	-0.500887
H256	H	0.873781	-0.087832	-0.000887
H257	H	0.256414	-0.380104	-0.324285
H258	H	0.756414	0.119896	0.175715
