data_functionalizedCrystal
_audit_creation_method	'MofGen! by Chris Wilmer'
_symmetry_space_group_name_H-M	'P1'
_symmetry_Int_Tables_number	1
_symmetry_cell_setting	triclinic
loop_
_symmetry_equiv_pos_as_xyz
  x,y,z
_cell_length_a	16.992694
_cell_length_b	10.489741
_cell_length_c	15.455313
_cell_angle_alpha	92.692689
_cell_angle_beta	87.142206
_cell_angle_gamma	87.603699
loop_
_atom_site_label
_atom_site_type_symbol
_atom_site_fract_x
_atom_site_fract_y
_atom_site_fract_z
O1	O	1.045321	0.265388	-0.072021
O2	O	0.817021	0.262418	-0.072047
O3	O	0.936366	0.078758	-0.072028
O4	O	0.925976	0.449049	-0.072040
O5	O	0.929541	0.089214	0.072233
O6	O	0.810196	0.272874	0.072214
O7	O	1.038496	0.275845	0.072240
Cu8	Cu	0.923723	0.275314	0.085399
Cu9	Cu	0.931794	0.262948	-0.085206
O10	O	0.919151	0.459505	0.072221
C11	C	0.784374	0.263826	0.000081
C12	C	0.697266	0.252430	0.000071
C13	C	0.647647	0.362380	0.000068
C14	C	0.565799	0.351666	0.000081
C15	C	0.533573	0.231001	0.000089
C16	C	0.583198	0.121044	0.000095
C17	C	0.665044	0.131759	0.000089
C18	C	0.289723	0.186590	0.000114
C19	C	0.207871	0.175882	0.000117
C20	C	0.190477	0.406505	0.000105
C21	C	0.272325	0.417210	0.000094
C22	C	0.321944	0.307253	0.000104
N23	N	0.449911	0.220047	0.000099
N24	N	0.405603	0.318209	0.000100
C25	C	0.932168	0.036386	0.000102
C26	C	0.929821	-0.105448	0.000100
C27	C	0.853885	-0.180195	0.000085
C28	C	0.886392	-0.264041	0.071217
C29	C	0.893138	-0.274324	-0.071013
C30	C	0.962356	-0.187422	0.071291
C31	C	0.969095	-0.197700	-0.071003
C32	C	1.001656	-0.281512	0.000146
C33	C	1.071143	0.274436	0.000111
C34	C	1.158251	0.285832	0.000115
C35	C	0.923349	0.501877	0.000090
C36	C	0.925697	0.643710	0.000086
N37	N	0.918052	0.284011	0.205394
N38	N	0.937472	0.254242	-0.205201
C39	C	0.968772	0.206019	0.250796
C40	C	0.964490	0.212608	0.341603
C41	C	0.909492	0.297199	0.387007
C42	C	0.858766	0.375195	0.341598
C43	C	0.863045	0.368597	0.250793
C44	C	0.891025	0.325640	0.658585
C45	C	0.886752	0.332234	0.749397
C46	C	0.992475	0.169646	0.749396
C47	C	0.996751	0.163062	0.658589
C48	C	0.946023	0.241053	0.613188
N49	N	0.905116	0.303939	0.479826
N50	N	0.950396	0.234305	0.520370
H51	H	0.330113	0.097055	0.000123
O52	O	0.799453	0.466441	0.390570
H53	H	0.764900	0.519561	0.343741
H54	H	1.005790	0.149100	0.378569
H55	H	0.841963	0.401123	0.786361
H56	H	1.064144	-0.325496	0.000193
O57	O	0.808344	0.452723	0.201817
H58	H	0.769387	0.512663	0.248642
O59	O	0.307088	0.547352	0.000085
H60	H	0.341195	0.562001	0.058876
O61	O	1.056064	0.071814	0.609617
H62	H	1.090609	0.018676	0.656444
O63	O	0.173111	0.045729	0.000141
H64	H	0.139018	0.031055	-0.058658
O65	O	0.136962	0.525100	0.000112
H66	H	0.074634	0.497385	0.000129
H67	H	0.525401	0.441198	0.000077
O68	O	0.548445	-0.009105	0.000112
H69	H	0.514352	-0.023778	-0.058687
H70	H	0.705444	0.042227	0.000090
H71	H	0.791448	-0.135971	0.000150
O72	O	0.840073	-0.303051	0.150872
H73	H	0.778753	-0.262251	0.150723
H74	H	0.991610	-0.149433	0.131495
O75	O	0.836321	0.409767	0.609622
H76	H	0.797368	0.469706	0.656452
H77	H	0.673878	0.460638	0.000060
O78	O	1.015389	-0.158629	-0.150651
H79	H	0.986537	-0.193376	-0.209615
H80	H	1.013560	0.137142	0.213834
O81	O	0.854340	-0.324840	-0.150675
H82	H	0.793010	-0.283996	-0.150525
H83	H	1.033774	0.106148	0.786369
