data_functionalizedCrystal
_audit_creation_method	'MofGen! by Chris Wilmer'
_symmetry_space_group_name_H-M	'P1'
_symmetry_Int_Tables_number	1
_symmetry_cell_setting	triclinic
loop_
_symmetry_equiv_pos_as_xyz
  x,y,z
_cell_length_a	13.032891
_cell_length_b	13.034570
_cell_length_c	19.076919
_cell_angle_alpha	80.270825
_cell_angle_beta	94.613894
_cell_angle_gamma	76.684200
loop_
_atom_site_label
_atom_site_type_symbol
_atom_site_fract_x
_atom_site_fract_y
_atom_site_fract_z
Zn1	Zn	1.646058	-0.660779	0.595107
Zn2	Zn	1.673831	-0.833036	0.494543
Zn3	Zn	1.475578	-0.631092	0.460327
Zn4	Zn	1.490951	-0.815722	0.595101
O5	O	1.571604	-0.735157	0.536269
O6	O	1.797625	-0.703299	0.596089
O7	O	1.652722	-0.801069	0.391515
O8	O	1.480136	-0.485672	0.463888
O9	O	1.818030	-0.829855	0.522206
O10	O	1.605386	-0.507483	0.562910
O11	O	1.507067	-0.652702	0.366376
O12	O	1.329735	-0.635914	0.463882
O13	O	1.506336	-0.800347	0.693591
O14	O	1.341029	-0.771561	0.562901
O15	O	1.620293	-0.686511	0.693596
O16	O	1.667629	-0.980098	0.522200
O17	O	1.533267	-0.967377	0.596079
C18	C	1.297037	-0.698638	0.509678
C19	C	1.179579	-0.683041	0.498322
C20	C	1.605158	-1.012469	0.562870
C21	C	1.619607	-1.131118	0.574283
C22	C	1.011443	-0.727184	0.530466
C23	C	1.132844	-0.743309	0.542203
C24	C	1.579070	-1.295939	0.542140
C25	C	1.564135	-1.173309	0.530348
C26	C	1.847244	-0.771820	0.562965
C27	C	1.964705	-0.787444	0.574341
C28	C	1.561931	-0.744809	0.719845
C29	C	1.557809	-0.748922	0.798074
C30	C	1.537948	-0.456767	0.509583
C31	C	1.523606	-0.338134	0.498211
C32	C	1.581292	-0.725474	0.353407
C33	C	1.585582	-0.721088	0.275169
C34	C	1.615200	-0.691589	0.834829
C35	C	1.611314	-0.695448	0.908332
C36	C	1.550041	-0.756647	0.945079
C37	C	1.492643	-0.813982	0.908318
C38	C	1.496524	-0.810116	0.834815
C39	C	1.532065	-0.774557	1.164906
C40	C	1.528191	-0.778421	1.238414
C41	C	1.646861	-0.659885	1.238422
C42	C	1.650741	-0.656030	1.164920
C43	C	1.593339	-0.713360	1.128164
N44	N	1.546069	-0.760595	1.020211
N45	N	1.597305	-0.709405	1.053033
H46	H	0.961581	-0.663652	0.484217
H47	H	1.465068	-1.283474	0.451869
Cl48	Cl	1.041678	-0.885524	0.645756
H49	H	1.442749	-0.863807	0.938242
Cl50	Cl	1.727774	-0.579091	1.118729
H51	H	1.637616	-1.350602	0.588477
H52	H	1.505593	-1.118652	0.484003
Cl53	Cl	1.710006	-1.215498	0.645830
Cl54	Cl	1.102610	-0.584946	0.426908
H55	H	1.665099	-0.641758	0.804915
H56	H	1.449778	-0.856791	0.804888
Cl57	Cl	1.683519	-0.623421	0.954544
H58	H	1.182701	-0.806837	0.588460
Cl59	Cl	1.719014	-0.587812	1.284632
H60	H	1.478292	-0.828259	1.268331
Cl61	Cl	1.459902	-0.846631	1.118709
