data_functionalizedCrystal
_audit_creation_method	'MofGen! by Chris Wilmer'
_symmetry_space_group_name_H-M	'P1'
_symmetry_Int_Tables_number	1
_symmetry_cell_setting	triclinic
loop_
_symmetry_equiv_pos_as_xyz
  x,y,z
_cell_length_a	33.592126
_cell_length_b	33.591377
_cell_length_c	33.588093
_cell_angle_alpha	60.004089
_cell_angle_beta	60.008299
_cell_angle_gamma	59.994549
loop_
_atom_site_label
_atom_site_type_symbol
_atom_site_fract_x
_atom_site_fract_y
_atom_site_fract_z
O1	O	0.055297	-0.581666	0.486338
O2	O	0.555297	-0.081666	0.986338
O3	O	0.020882	-0.452873	0.391864
O4	O	0.520882	0.047127	0.891864
O5	O	0.102445	-0.534352	0.391775
O6	O	0.602445	-0.034352	0.891775
O7	O	-0.026266	-0.500187	0.486427
O8	O	0.473734	-0.000187	0.986427
O9	O	0.129510	-0.507292	0.418747
O10	O	0.629510	-0.007292	0.918747
O11	O	0.047947	-0.425814	0.418835
O12	O	0.547947	0.074186	0.918835
O13	O	0.082362	-0.554606	0.513309
O14	O	0.582362	-0.054606	1.013309
Cu15	Cu	0.067626	-0.487739	0.468535
Cu16	Cu	0.567626	0.012261	0.968535
Cu17	Cu	0.035618	-0.519740	0.436638
Cu18	Cu	0.535618	-0.019740	0.936638
O19	O	0.000799	-0.473128	0.513398
O20	O	0.500799	0.026872	1.013398
N21	N	0.090139	-0.465235	0.490972
N22	N	0.590139	0.034765	0.990972
N23	N	0.013110	-0.542249	0.414202
N24	N	0.513110	-0.042249	0.914202
C25	C	0.124394	-0.431229	0.734914
C26	C	0.624394	0.068771	1.234914
C27	C	0.334265	-0.431145	0.524799
C28	C	0.834265	0.068855	1.024799
C29	C	0.124204	-0.431200	0.524965
C30	C	0.624204	0.068800	1.024965
C31	C	0.124184	-0.221175	0.524955
C32	C	0.624184	0.278825	1.024955
C33	C	0.158017	-0.322536	0.558710
C34	C	0.658017	0.177464	1.058710
C35	C	0.158027	-0.397406	0.558711
C36	C	0.658027	0.102594	1.058711
C37	C	0.176763	-0.378688	0.577408
C38	C	0.676763	0.121312	1.077408
C39	C	0.258412	-0.364594	0.534386
C40	C	0.758412	0.135406	1.034386
C41	C	0.309454	-0.381596	0.517340
C42	C	0.809454	0.118404	1.017340
C43	C	0.309485	-0.464188	0.548836
C44	C	0.809485	0.035812	1.048836
C45	C	0.258444	-0.447186	0.565883
C46	C	0.758444	0.052814	1.065883
C47	C	0.170304	-0.297002	0.508532
C48	C	0.670304	0.202998	1.008532
C49	C	0.153260	-0.245956	0.491537
C50	C	0.653260	0.254044	0.991537
C51	C	0.111648	-0.245983	0.574901
C52	C	0.611648	0.254017	1.074901
C53	C	0.128691	-0.297029	0.591896
C54	C	0.628691	0.202971	1.091896
C55	C	0.107841	-0.385091	0.571080
C56	C	0.607841	0.114909	1.071080
C57	C	0.090813	-0.402108	0.554078
C58	C	0.590813	0.097892	1.054078
C59	C	0.174153	-0.443755	0.512351
C60	C	0.674153	0.056245	1.012351
C61	C	0.191183	-0.426739	0.529347
C62	C	0.691183	0.073261	1.029347
C63	C	0.107923	-0.385106	0.659111
C64	C	0.607923	0.114894	1.159111
C65	C	0.090955	-0.402138	0.710156
C66	C	0.590955	0.097862	1.210156
C67	C	0.174335	-0.443795	0.710087
C68	C	0.674335	0.056205	1.210087
C69	C	0.191302	-0.426764	0.659041
C70	C	0.691302	0.073236	1.159041
C71	C	0.158095	-0.397418	0.633555
C72	C	0.658095	0.102582	1.133555
C73	C	0.232909	-0.397388	0.558656
C74	C	0.732909	0.102612	1.058656
C75	C	0.105069	-0.449619	0.791057
C76	C	0.605069	0.050381	1.291057
C77	C	0.390406	-0.449193	0.505789
C78	C	0.890406	0.050807	1.005789
C79	C	0.104813	-0.449599	0.506607
C80	C	0.604813	0.050401	1.006607
C81	C	0.105125	-0.165028	0.506915
C82	C	0.605125	0.334972	1.006915
C83	C	-0.020560	-0.576246	0.169890
C84	C	0.479440	-0.076246	0.669890
C85	C	-0.020889	-0.786183	0.379970
C86	C	0.479111	-0.286183	0.879970
C87	C	-0.020859	-0.576235	0.380063
C88	C	0.479141	-0.076235	0.880063
C89	C	-0.230772	-0.576015	0.379658
C90	C	0.269228	-0.076015	0.879658
C91	C	-0.129417	-0.609898	0.346025
C92	C	0.370583	-0.109898	0.846025
C93	C	-0.054587	-0.609979	0.346172
C94	C	0.445413	-0.109979	0.846172
C95	C	-0.073269	-0.628671	0.327396
C96	C	0.426731	-0.128671	0.827396
C97	C	-0.087401	-0.710299	0.370335
C98	C	0.412599	-0.210299	0.870335
C99	C	-0.070424	-0.761345	0.387369
C100	C	0.429576	-0.261345	0.887369
C101	C	0.012165	-0.761428	0.356003
C102	C	0.512165	-0.261428	0.856003
C103	C	-0.004813	-0.710383	0.338967
C104	C	0.495187	-0.210383	0.838967
C105	C	-0.155001	-0.622196	0.396191
C106	C	0.344999	-0.122196	0.896191
C107	C	-0.206043	-0.605128	0.413125
C108	C	0.293957	-0.105128	0.913125
C109	C	-0.205914	-0.563467	0.329724
C110	C	0.294086	-0.063467	0.829724
C111	C	-0.154872	-0.580535	0.312790
C112	C	0.345128	-0.080535	0.812790
C113	C	-0.066886	-0.559797	0.333828
C114	C	0.433114	-0.059797	0.833828
C115	C	-0.049903	-0.542809	0.350903
C116	C	0.450097	-0.042809	0.850903
C117	C	-0.008321	-0.626180	0.392654
C118	C	0.491679	-0.126180	0.892654
C119	C	-0.025304	-0.643170	0.375585
C120	C	0.474696	-0.143170	0.875585
C121	C	-0.066758	-0.559805	0.245702
C122	C	0.433242	-0.059805	0.745702
C123	C	-0.049671	-0.542819	0.194658
C124	C	0.450329	-0.042819	0.694658
C125	C	-0.008026	-0.626194	0.194706
C126	C	0.491974	-0.126194	0.694706
C127	C	-0.025111	-0.643179	0.245752
C128	C	0.474889	-0.143179	0.745752
C129	C	-0.054479	-0.609983	0.271248
C130	C	0.445521	-0.109983	0.771248
C131	C	-0.054597	-0.684821	0.346135
C132	C	0.445403	-0.184821	0.846135
C133	C	-0.002109	-0.556901	0.113746
C134	C	0.497891	-0.056901	0.613746
C135	C	-0.002869	-0.842328	0.398966
C136	C	0.497131	-0.342328	0.898966
C137	C	-0.002496	-0.556887	0.398501
C138	C	0.497504	-0.056887	0.898501
C139	C	-0.286914	-0.556929	0.397631
C140	C	0.213086	-0.056929	0.897631
N141	N	0.436349	-0.465146	0.490703
N142	N	0.936349	0.034854	0.990703
O143	O	0.592194	-0.469605	0.374236
O144	O	1.092194	0.030395	0.874236
O145	O	0.592389	-0.564393	0.502890
O146	O	1.092389	-0.064393	1.002890
O147	O	0.592305	-0.564176	0.421300
O148	O	1.092305	-0.064176	0.921300
O149	O	0.592277	-0.469822	0.455826
O150	O	1.092277	0.030178	0.955826
O151	O	0.511216	-0.537214	0.448415
O152	O	1.011216	-0.037214	0.948415
O153	O	0.511300	-0.537431	0.530004
O154	O	1.011300	-0.037431	1.030004
O155	O	0.511104	-0.442643	0.401350
O156	O	1.011104	0.057357	0.901350
Cu157	Cu	0.503798	-0.487575	0.468153
Cu158	Cu	1.003798	0.012425	0.968153
Cu159	Cu	0.599695	-0.519461	0.436087
Cu160	Cu	1.099695	-0.019461	0.936087
O161	O	0.511188	-0.442860	0.482940
O162	O	1.011188	0.057140	0.982940
N163	N	0.667145	-0.541890	0.413532
N164	N	1.167145	-0.041890	0.913532
N165	N	0.090108	-0.119085	0.490958
N166	N	0.590108	0.380915	0.990958
O167	O	-0.026275	0.036848	0.486394
O168	O	0.473725	0.536848	0.986394
O169	O	0.102381	0.036888	0.391584
O170	O	0.602381	0.536888	0.891584
O171	O	0.020751	0.036852	0.391854
O172	O	0.520751	0.536852	0.891854
O173	O	0.055356	0.036884	0.486124
O174	O	0.555356	0.536884	0.986124
O175	O	0.047821	-0.044242	0.418876
O176	O	0.547821	0.455758	0.918876
O177	O	0.129452	-0.044207	0.418606
O178	O	0.629452	0.455793	0.918606
O179	O	0.000796	-0.044246	0.513417
O180	O	0.500796	0.455754	1.013417
Cu181	Cu	0.067596	-0.051631	0.468479
Cu182	Cu	0.567596	0.448369	0.968479
Cu183	Cu	0.035582	0.044273	0.436522
Cu184	Cu	0.535582	0.544273	0.936522
O185	O	0.082426	-0.044211	0.513146
O186	O	0.582426	0.455789	1.013146
N187	N	0.013063	0.111726	0.414043
N188	N	0.513063	0.611726	0.914043
N189	N	0.090453	-0.465282	0.837001
N190	N	0.590453	0.034718	1.337001
O191	O	0.085913	-0.581648	0.992925
O192	O	0.585913	-0.081648	1.492925
O193	O	-0.008857	-0.452947	0.992970
O194	O	0.491143	0.047053	1.492970
O195	O	-0.008635	-0.534562	0.992946
O196	O	0.491365	-0.034562	1.492946
O197	O	0.085691	-0.500033	0.992949
O198	O	0.585691	-0.000033	1.492949
O199	O	0.018365	-0.507512	0.911855
O200	O	0.518365	-0.007512	1.411855
O201	O	0.018143	-0.425898	0.911878
O202	O	0.518143	0.074102	1.411878
O203	O	0.112912	-0.554598	0.911834
O204	O	0.612912	-0.054598	1.411834
Cu205	Cu	0.067993	-0.487778	0.904452
Cu206	Cu	0.567993	0.012222	1.404452
Cu207	Cu	0.036063	-0.519767	1.000352
Cu208	Cu	0.536063	-0.019767	1.500352
O209	O	0.112691	-0.472984	0.911857
O210	O	0.612691	0.027016	1.411857
N211	N	0.013602	-0.542269	1.067803
N212	N	0.513602	-0.042269	1.567803
C213	C	0.031188	-0.423114	0.392334
C214	C	0.531188	0.076886	0.892334
C215	C	0.132194	-0.524016	0.392223
C216	C	0.632194	-0.024016	0.892223
C217	C	0.072056	-0.584366	0.512840
C218	C	0.572056	-0.084366	1.012840
C219	C	-0.028950	-0.483464	0.512950
C220	C	0.471050	0.016536	1.012950
C221	C	0.551868	-0.563965	0.532655
C222	C	1.051868	-0.063965	1.032655
C223	C	0.551766	-0.563697	0.431617
C224	C	1.051766	-0.063697	0.931617
C225	C	0.551623	-0.443070	0.371586
C226	C	1.051623	0.056930	0.871586
C227	C	0.551728	-0.443339	0.472623
C228	C	1.051728	0.056661	0.972623
C229	C	0.132090	-0.003555	0.392006
C230	C	0.632090	0.496445	0.892006
C231	C	0.031035	-0.003698	0.392374
C232	C	0.531035	0.496302	0.892374
C233	C	-0.028947	-0.003703	0.512961
C234	C	0.471053	0.496297	1.012961
C235	C	0.072143	-0.003661	0.512626
C236	C	0.572143	0.496339	1.012626
C237	C	-0.008408	-0.423209	0.952430
C238	C	0.491592	0.076791	1.452430
C239	C	-0.008128	-0.524272	0.952385
C240	C	0.491872	-0.024272	1.452385
C241	C	0.112464	-0.584336	0.952374
C242	C	0.612464	-0.084336	1.452374
C243	C	0.112190	-0.483267	0.952401
C244	C	0.612190	0.016733	1.452401
H245	H	0.080878	-0.361206	0.638363
H246	H	0.580878	0.138794	1.138363
H247	H	0.551560	-0.413310	0.334638
H248	H	1.051560	0.086690	0.834638
C249	C	0.551714	-0.403294	0.482599
C250	C	1.051714	0.096706	0.982599
C251	C	0.551774	-0.413278	0.532589
C252	C	1.051774	0.086722	1.032589
C253	C	0.551760	-0.373233	0.542564
C254	C	1.051760	0.126767	1.042564
C255	C	0.551687	-0.323204	0.502549
C256	C	1.051687	0.176796	1.002549
C257	C	0.551627	-0.313218	0.452556
C258	C	1.051627	0.186782	0.952556
C259	C	0.551641	-0.353263	0.442580
C260	C	1.051641	0.146737	0.942580
H261	H	0.551828	-0.450314	0.562213
H262	H	1.051828	0.049686	1.062213
H263	H	0.551804	-0.380626	0.579573
H264	H	1.051804	0.119374	1.079573
H265	H	0.551676	-0.293560	0.509933
H266	H	1.051676	0.206440	1.009933
H267	H	0.551573	-0.276181	0.422931
H268	H	1.051573	0.223819	0.922931
H269	H	0.551597	-0.345870	0.405572
H270	H	1.051597	0.154130	0.905572
C271	C	0.021027	-0.003709	0.352361
C272	C	0.521027	0.496291	0.852361
C273	C	0.052582	-0.045817	0.331377
C274	C	0.552582	0.454183	0.831377
C275	C	0.042574	-0.045827	0.291364
C276	C	0.542574	0.454173	0.791364
C277	C	0.001011	-0.003730	0.272334
C278	C	0.501011	0.496270	0.772334
C279	C	-0.030548	0.038382	0.293317
C280	C	0.469452	0.538382	0.793317
C281	C	-0.020540	0.038392	0.333331
C282	C	0.479460	0.538392	0.833331
H283	H	0.083352	-0.076983	0.345464
H284	H	0.583352	0.423017	0.845464
H285	H	0.065936	-0.077001	0.275830
H286	H	0.565936	0.422999	0.775830
H287	H	-0.006398	-0.003737	0.242713
H288	H	0.493602	0.496263	0.742713
H289	H	-0.061318	0.069548	0.279230
H290	H	0.438682	0.569548	0.779230
H291	H	-0.043901	0.069566	0.348864
H292	H	0.456099	0.569566	0.848864
C293	C	0.079397	-0.217918	0.611400
C294	C	0.579397	0.282082	1.111400
C295	C	0.098975	-0.224932	0.648087
C296	C	0.598975	0.275068	1.148087
C297	C	0.066725	-0.196867	0.684585
C298	C	0.566725	0.303133	1.184585
C299	C	0.014896	-0.161788	0.684396
C300	C	0.514896	0.338212	1.184396
C301	C	-0.004684	-0.154773	0.647708
C302	C	0.495316	0.345227	1.147708
C303	C	0.027566	-0.182838	0.611210
C304	C	0.527566	0.317162	1.111210
H305	H	0.137344	-0.250901	0.648227
H306	H	0.637344	0.249099	1.148227
H307	H	0.081220	-0.202060	0.711744
H308	H	0.581220	0.297940	1.211744
H309	H	-0.008977	-0.141012	0.711415
H310	H	0.491023	0.358988	1.211415
H311	H	-0.043053	-0.128804	0.647568
H312	H	0.456947	0.371196	1.147568
H313	H	0.013071	-0.177645	0.584051
H314	H	0.513071	0.322355	1.084051
H315	H	0.168963	-0.003318	0.362168
H316	H	0.668963	0.496682	0.862168
C317	C	-0.078890	-0.473635	0.553104
C318	C	0.421110	0.026365	1.053104
C319	C	-0.097396	-0.432149	0.572242
C320	C	0.402604	0.067851	1.072242
C321	C	-0.147336	-0.422319	0.612396
C322	C	0.352664	0.077681	1.112396
C323	C	-0.178770	-0.453976	0.633413
C324	C	0.321230	0.046024	1.133413
C325	C	-0.160264	-0.495465	0.614276
C326	C	0.339736	0.004535	1.114276
C327	C	-0.110324	-0.505295	0.574122
C328	C	0.389676	-0.005295	1.074122
H329	H	-0.074126	-0.408712	0.556683
H330	H	0.425874	0.091288	1.056683
H331	H	-0.161034	-0.391606	0.626563
H332	H	0.338966	0.108394	1.126563
H333	H	-0.215738	-0.446700	0.663138
H334	H	0.284262	0.053300	1.163138
H335	H	-0.183534	-0.518902	0.629835
H336	H	0.316466	-0.018902	1.129835
H337	H	-0.096625	-0.536008	0.559955
H338	H	0.403375	-0.036008	1.059955
C339	C	0.551941	-0.604168	0.582571
C340	C	1.051941	-0.104168	1.082571
C341	C	0.551981	-0.654116	0.592313
C342	C	1.051981	-0.154116	1.092313
C343	C	0.552054	-0.694320	0.642229
C344	C	1.052054	-0.194320	1.142229
C345	C	0.552086	-0.684575	0.682402
C346	C	1.052086	-0.184575	1.182402
C347	C	0.552045	-0.634624	0.672662
C348	C	1.052045	-0.134624	1.172662
C349	C	0.551973	-0.594421	0.622746
C350	C	1.051973	-0.094421	1.122746
H351	H	0.551958	-0.661332	0.562573
H352	H	1.051958	-0.161332	1.062573
H353	H	0.552084	-0.731296	0.649439
H354	H	1.052084	-0.231296	1.149439
H355	H	0.552140	-0.714336	0.719353
H356	H	1.052140	-0.214336	1.219353
H357	H	0.552069	-0.627409	0.702402
H358	H	1.052069	-0.127409	1.202402
H359	H	0.551942	-0.557445	0.615536
H360	H	1.051942	-0.057445	1.115536
H361	H	-0.065895	-0.003715	0.542725
H362	H	0.434105	0.496285	1.042725
C363	C	0.082152	-0.003652	0.552641
C364	C	0.582152	0.496348	1.052641
C365	C	0.132161	-0.003634	0.542631
C366	C	0.632161	0.496366	1.042631
C367	C	0.142170	-0.003626	0.582645
C368	C	0.642170	0.496374	1.082645
C369	C	0.102169	-0.003636	0.632669
C370	C	0.602169	0.496364	1.132669
C371	C	0.052156	-0.003654	0.642681
C372	C	0.552156	0.496346	1.142681
C373	C	0.042147	-0.003663	0.602667
C374	C	0.542147	0.496337	1.102667
H375	H	0.161775	-0.003626	0.505598
H376	H	0.661775	0.496374	1.005598
H377	H	0.179193	-0.003612	0.575234
H378	H	0.679193	0.496388	1.075234
H379	H	0.109578	-0.003630	0.662290
H380	H	0.609578	0.496370	1.162290
H381	H	0.022542	-0.003662	0.679713
H382	H	0.522542	0.496338	1.179713
H383	H	0.005124	-0.003676	0.610078
H384	H	0.505124	0.496324	1.110078
H385	H	0.142219	-0.621297	0.952354
H386	H	0.642219	-0.121297	1.452354
H387	H	-0.038161	-0.386246	0.952443
H388	H	0.461839	0.113754	1.452443
H389	H	0.169160	-0.531297	0.362501
H390	H	0.669160	-0.031297	0.862501
C391	C	0.551781	-0.603743	0.421641
C392	C	1.051781	-0.103743	0.921641
C393	C	0.551722	-0.593759	0.371651
C394	C	1.051722	-0.093759	0.871651
C395	C	0.551738	-0.633805	0.361675
C396	C	1.051738	-0.133805	0.861675
C397	C	0.551812	-0.683834	0.401689
C398	C	1.051812	-0.183834	0.901689
C399	C	0.551870	-0.693820	0.451683
C400	C	1.051870	-0.193820	0.951683
C401	C	0.551855	-0.653774	0.461659
C402	C	1.051855	-0.153774	0.961659
H403	H	0.551668	-0.556722	0.342026
H404	H	1.051668	-0.056722	0.842026
H405	H	0.551694	-0.626412	0.324666
H406	H	1.051694	-0.126412	0.824666
H407	H	0.551823	-0.713478	0.394305
H408	H	1.051823	-0.213478	0.894305
H409	H	0.551925	-0.730856	0.481307
H410	H	1.051925	-0.230856	0.981307
H411	H	0.551898	-0.661167	0.498668
H412	H	1.051898	-0.161167	0.998668
C413	C	-0.048146	-0.534232	0.952337
C414	C	0.451854	-0.034232	1.452337
C415	C	-0.038154	-0.584231	0.952298
C416	C	0.461846	-0.084231	1.452298
C417	C	-0.078172	-0.594191	0.952249
C418	C	0.421828	-0.094191	1.452249
C419	C	-0.128182	-0.554152	0.952241
C420	C	0.371818	-0.054152	1.452241
C421	C	-0.138176	-0.504150	0.952280
C422	C	0.361824	-0.004150	1.452280
C423	C	-0.098158	-0.494190	0.952328
C424	C	0.401842	0.005810	1.452328
H425	H	-0.001132	-0.613873	0.952304
H426	H	0.498868	-0.113873	1.452304
H427	H	-0.070773	-0.631205	0.952220
H428	H	0.429227	-0.131205	1.452220
H429	H	-0.157806	-0.561525	0.952205
H430	H	0.342194	-0.061525	1.452205
H431	H	-0.175199	-0.474508	0.952273
H432	H	0.324801	0.025492	1.452273
H433	H	-0.105557	-0.457175	0.952357
H434	H	0.394443	0.042825	1.452357
H435	H	0.141823	-0.475877	0.952395
H436	H	0.641823	0.024123	1.452395
H437	H	0.201378	-0.467681	0.730833
H438	H	0.701378	0.032319	1.230833
C439	C	0.035762	-0.388584	0.738262
C440	C	0.535762	0.111416	1.238262
C441	C	0.003700	-0.403435	0.731271
C442	C	0.503700	0.096565	1.231271
C443	C	-0.051493	-0.389881	0.759378
C444	C	0.448507	0.110119	1.259378
C445	C	-0.074623	-0.361475	0.794476
C446	C	0.425377	0.138525	1.294476
C447	C	-0.042561	-0.346622	0.801468
C448	C	0.457439	0.153378	1.301468
C449	C	0.012632	-0.360176	0.773361
C450	C	0.512632	0.139824	1.273361
H451	H	0.020822	-0.424464	0.705288
H452	H	0.520822	0.075536	1.205288
H453	H	-0.075227	-0.400877	0.754201
H454	H	0.424773	0.099123	1.254201
H455	H	-0.115480	-0.351442	0.815282
H456	H	0.384520	0.148558	1.315282
H457	H	-0.059683	-0.325593	0.827451
H458	H	0.440317	0.174407	1.327451
H459	H	0.036366	-0.349181	0.778538
H460	H	0.536366	0.150819	1.278538
C461	C	0.071367	-0.352823	0.603377
C462	C	0.571367	0.147177	1.103377
C463	C	0.034679	-0.372371	0.652622
C464	C	0.534679	0.127629	1.152622
C465	C	-0.001796	-0.340104	0.684921
C466	C	0.498204	0.159896	1.184921
C467	C	-0.001583	-0.288288	0.667974
C468	C	0.498417	0.211712	1.167974
C469	C	0.035106	-0.268737	0.618726
C470	C	0.535106	0.231263	1.118726
C471	C	0.071581	-0.301004	0.586427
C472	C	0.571581	0.198996	1.086427
H473	H	0.034521	-0.410731	0.665169
H474	H	0.534521	0.089269	1.165169
H475	H	-0.028956	-0.354577	0.721378
H476	H	0.471044	0.145423	1.221378
H477	H	-0.028584	-0.264401	0.691883
H478	H	0.471416	0.235599	1.191883
H479	H	0.035265	-0.230377	0.606179
H480	H	0.535265	0.269623	1.106179
H481	H	0.098741	-0.286531	0.549971
H482	H	0.598741	0.213469	1.049971
C483	C	0.035609	-0.388566	0.567678
C484	C	0.535609	0.111434	1.067678
C485	C	0.003606	-0.403442	0.621599
C486	C	0.503606	0.096558	1.121599
C487	C	-0.051597	-0.389901	0.635198
C488	C	0.448403	0.110099	1.135198
C489	C	-0.074797	-0.361484	0.594875
C490	C	0.425203	0.138516	1.094875
C491	C	-0.042794	-0.346606	0.540951
C492	C	0.457206	0.153394	1.040951
C493	C	0.012409	-0.360147	0.527352
C494	C	0.512409	0.139853	1.027352
H495	H	0.020780	-0.424480	0.651451
H496	H	0.520780	0.075520	1.151451
H497	H	-0.075287	-0.400915	0.675117
H498	H	0.424713	0.099085	1.175117
H499	H	-0.115662	-0.351460	0.604942
H500	H	0.384338	0.148540	1.104942
H501	H	-0.059968	-0.325568	0.511098
H502	H	0.440032	0.174432	1.011098
H503	H	0.036099	-0.349133	0.487433
H504	H	0.536099	0.150867	0.987433
C505	C	0.246495	-0.440310	0.630930
C506	C	0.746495	0.059690	1.130930
C507	C	0.269622	-0.399947	0.595828
C508	C	0.769622	0.100053	1.095828
C509	C	0.324814	-0.413492	0.567717
C510	C	0.824814	0.086508	1.067717
C511	C	0.356878	-0.467401	0.574709
C512	C	0.856878	0.032599	1.074709
C513	C	0.333751	-0.507767	0.609813
C514	C	0.833751	-0.007767	1.109813
C515	C	0.278560	-0.494222	0.637923
C516	C	0.778560	0.005778	1.137923
H517	H	0.245886	-0.360037	0.590651
H518	H	0.745886	0.139963	1.090651
H519	H	0.341934	-0.383610	0.541731
H520	H	0.841934	0.116390	1.041731
H521	H	0.397735	-0.477428	0.553900
H522	H	0.897735	0.022572	1.053900
H523	H	0.357488	-0.547677	0.614990
H524	H	0.857488	-0.047677	1.114990
H525	H	0.261440	-0.524104	0.663909
H526	H	0.761440	-0.024104	1.163909
H527	H	0.201155	-0.467643	0.488446
H528	H	0.701155	0.032357	0.988446
C529	C	-0.063432	-0.487610	0.337331
C530	C	0.436568	0.012390	0.837331
C531	C	-0.044754	-0.468922	0.356115
C532	C	0.455246	0.031078	0.856115
C533	C	-0.058286	-0.413723	0.342546
C534	C	0.441714	0.086277	0.842546
C535	C	-0.090496	-0.377211	0.310193
C536	C	0.409504	0.122789	0.810193
C537	C	-0.109176	-0.395898	0.291408
C538	C	0.390824	0.104102	0.791408
C539	C	-0.095644	-0.451097	0.304977
C540	C	0.404356	0.048903	0.804977
H541	H	-0.020909	-0.495951	0.380066
H542	H	0.479091	0.004049	0.880066
H543	H	-0.044458	-0.399891	0.356452
H544	H	0.455542	0.100109	0.856452
H545	H	-0.100513	-0.336350	0.300149
H546	H	0.399487	0.163650	0.800149
H547	H	-0.133021	-0.368869	0.267457
H548	H	0.366979	0.131131	0.767457
H549	H	-0.109472	-0.464930	0.291071
H550	H	0.390528	0.035070	0.791071
H551	H	0.232048	-0.436761	0.519270
H552	H	0.732048	0.063239	1.019270
H553	H	-0.134040	-0.570516	0.271939
H554	H	0.365960	-0.070516	0.771939
H555	H	0.237680	-0.473893	0.585645
H556	H	0.737680	0.026107	1.085645
H557	H	0.023834	-0.386116	0.362662
H558	H	0.523834	0.113884	0.862662
C559	C	0.081986	-0.634346	0.552928
C560	C	0.581986	-0.134346	1.052928
C561	C	0.123515	-0.652835	0.572001
C562	C	0.623515	-0.152835	1.072001
C563	C	0.133445	-0.702815	0.612090
C564	C	0.633445	-0.202815	1.112090
C565	C	0.101846	-0.734307	0.633105
C566	C	0.601846	-0.234307	1.133105
C567	C	0.060314	-0.715818	0.614032
C568	C	0.560314	-0.215818	1.114032
C569	C	0.050384	-0.665838	0.573943
C570	C	0.550384	-0.165838	1.073943
H571	H	0.146909	-0.629523	0.556444
H572	H	0.646909	-0.129523	1.056444
H573	H	0.164190	-0.716502	0.626209
H574	H	0.664190	-0.216502	1.126209
H575	H	0.109196	-0.771305	0.662781
H576	H	0.609196	-0.271305	1.162781
H577	H	0.036920	-0.739130	0.629589
H578	H	0.536920	-0.239130	1.129589
H579	H	0.019639	-0.652151	0.559825
H580	H	0.519639	-0.152151	1.059825
C581	C	0.337580	-0.518966	0.556780
C582	C	0.837580	-0.018966	1.056780
C583	C	0.330612	-0.556090	0.608861
C584	C	0.830612	-0.056090	1.108861
C585	C	0.358706	-0.610867	0.616806
C586	C	0.858706	-0.110867	1.116806
C587	C	0.393769	-0.628520	0.572669
C588	C	0.893769	-0.128520	1.072669
C589	C	0.400738	-0.591396	0.520584
C590	C	0.900738	-0.091396	1.020584
C591	C	0.372644	-0.536619	0.512640
C592	C	0.872644	-0.036619	1.012640
H593	H	0.304655	-0.543023	0.641537
H594	H	0.804655	-0.043023	1.141537
H595	H	0.353547	-0.638349	0.655363
H596	H	0.853547	-0.138349	1.155363
H597	H	0.414566	-0.669069	0.578551
H598	H	0.914566	-0.169069	1.078551
H599	H	0.426695	-0.604463	0.487909
H600	H	0.926695	-0.104463	0.987909
H601	H	0.377803	-0.509137	0.474083
H602	H	0.877803	-0.009137	0.974083
C603	C	0.337510	-0.345522	0.490638
C604	C	0.837510	0.154478	0.990638
C605	C	0.309422	-0.290746	0.482684
C606	C	0.809422	0.209254	0.982684
C607	C	0.337479	-0.254671	0.455980
C608	C	0.837479	0.245329	0.955980
C609	C	0.393623	-0.273373	0.437229
C610	C	0.893623	0.226627	0.937229
C611	C	0.421714	-0.328153	0.445183
C612	C	0.921714	0.171847	0.945183
C613	C	0.393657	-0.364227	0.471887
C614	C	0.893657	0.135773	0.971887
H615	H	0.267858	-0.276899	0.496565
H616	H	0.767858	0.223101	0.996565
H617	H	0.316684	-0.214120	0.450093
H618	H	0.816684	0.285880	0.950093
H619	H	0.414393	-0.246669	0.417461
H620	H	0.914393	0.253331	0.917461
H621	H	0.463278	-0.341999	0.431302
H622	H	0.963278	0.158001	0.931302
H623	H	0.414452	-0.404779	0.477774
H624	H	0.914452	0.095221	0.977774
H625	H	-0.226640	-0.539563	0.302661
H626	H	0.273360	-0.039563	0.802661
C627	C	0.230326	-0.309817	0.526437
C628	C	0.730326	0.190183	1.026437
C629	C	0.195264	-0.292159	0.570571
C630	C	0.695264	0.207841	1.070571
C631	C	0.167178	-0.237381	0.562622
C632	C	0.667178	0.262619	1.062622
C633	C	0.174152	-0.200260	0.510539
C634	C	0.674152	0.299740	1.010539
C635	C	0.209215	-0.217917	0.466402
C636	C	0.709215	0.282083	0.966402
C637	C	0.237302	-0.272695	0.474351
C638	C	0.737302	0.227305	0.974351
H639	H	0.190100	-0.319639	0.609129
H640	H	0.690100	0.180361	1.109129
H641	H	0.141222	-0.224310	0.595296
H642	H	0.641222	0.275690	1.095296
H643	H	0.153361	-0.159710	0.504655
H644	H	0.653361	0.340290	1.004655
H645	H	0.214380	-0.190437	0.427844
H646	H	0.714380	0.309563	0.927844
H647	H	0.263258	-0.285766	0.441677
H648	H	0.763258	0.214234	0.941677
C649	C	0.202561	-0.325061	0.472031
C650	C	0.702561	0.174939	0.972031
C651	C	0.216069	-0.296972	0.416834
C652	C	0.716069	0.203028	0.916834
C653	C	0.248327	-0.325031	0.380331
C654	C	0.748327	0.174969	0.880331
C655	C	0.267077	-0.381179	0.399023
C656	C	0.767077	0.118821	0.899023
C657	C	0.253569	-0.409271	0.454223
C658	C	0.753569	0.090729	0.954223
C659	C	0.221310	-0.381212	0.490726
C660	C	0.721310	0.118788	0.990726
H661	H	0.202190	-0.255406	0.402995
H662	H	0.702190	0.244594	0.902995
H663	H	0.258327	-0.304236	0.339469
H664	H	0.758327	0.195764	0.839469
H665	H	0.290956	-0.401950	0.372001
H666	H	0.790956	0.098050	0.872001
H667	H	0.267448	-0.450838	0.468062
H668	H	0.767448	0.049162	0.968062
H669	H	0.211311	-0.402008	0.531588
H670	H	0.711311	0.097992	1.031588
H671	H	0.118680	-0.317820	0.632757
H672	H	0.618680	0.182180	1.132757
C673	C	0.166774	-0.217865	0.436338
C674	C	0.666774	0.282135	0.936338
C675	C	0.126393	-0.182778	0.413214
C676	C	0.626393	0.317222	0.913214
C677	C	0.139908	-0.154688	0.358015
C678	C	0.639908	0.345312	0.858015
C679	C	0.193805	-0.161685	0.325940
C680	C	0.693805	0.338315	0.825940
C681	C	0.234190	-0.196773	0.349063
C682	C	0.734190	0.303227	0.849063
C683	C	0.220674	-0.224863	0.404262
C684	C	0.720674	0.275137	0.904262
H685	H	0.086492	-0.177597	0.436959
H686	H	0.586492	0.322403	0.936959
H687	H	0.110012	-0.128713	0.340898
H688	H	0.610012	0.371287	0.840898
H689	H	0.203810	-0.140891	0.285079
H690	H	0.703810	0.359109	0.785079
H691	H	0.274091	-0.201954	0.325319
H692	H	0.774091	0.298046	0.825319
H693	H	0.250570	-0.250838	0.421379
H694	H	0.750570	0.249162	0.921379
C695	C	-0.063189	-0.487618	0.166563
C696	C	0.436811	0.012382	0.666563
C697	C	-0.095494	-0.451108	0.194612
C698	C	0.404506	0.048892	0.694612
C699	C	-0.109011	-0.395908	0.166515
C700	C	0.390989	0.104092	0.666515
C701	C	-0.090223	-0.377219	0.110369
C702	C	0.409777	0.122781	0.610369
C703	C	-0.057915	-0.413731	0.082317
C704	C	0.442085	0.086269	0.582317
C705	C	-0.044398	-0.468930	0.110414
C706	C	0.455602	0.031070	0.610414
H707	H	-0.109404	-0.464942	0.236177
H708	H	0.390596	0.035058	0.736177
H709	H	-0.132927	-0.368880	0.187281
H710	H	0.367073	0.131120	0.687281
H711	H	-0.100229	-0.336358	0.089570
H712	H	0.399771	0.163642	0.589570
H713	H	-0.044005	-0.399897	0.040752
H714	H	0.455995	0.100103	0.540752
H715	H	-0.020482	-0.495958	0.089648
H716	H	0.479518	0.004042	0.589648
H717	H	0.015877	-0.653227	0.173952
H718	H	0.515877	-0.153227	0.673952
C719	C	-0.011602	-0.698379	0.273852
C720	C	0.488398	-0.198379	0.773852
C721	C	0.042290	-0.730471	0.266919
C722	C	0.542290	-0.230471	0.766919
C723	C	0.055799	-0.785670	0.295018
C724	C	0.555799	-0.285670	0.795018
C725	C	0.015416	-0.808777	0.330049
C726	C	0.515416	-0.308777	0.830049
C727	C	-0.038480	-0.776684	0.336983
C728	C	0.461520	-0.276684	0.836983
C729	C	-0.051989	-0.721485	0.308885
C730	C	0.448011	-0.221485	0.808885
H731	H	0.072188	-0.713366	0.240985
H732	H	0.572188	-0.213366	0.740985
H733	H	0.095697	-0.809426	0.289884
H734	H	0.595697	-0.309426	0.789884
H735	H	0.025416	-0.849638	0.350849
H736	H	0.525416	-0.349638	0.850849
H737	H	-0.068378	-0.793789	0.362917
H738	H	0.431622	-0.293789	0.862917
H739	H	-0.091887	-0.697729	0.314018
H740	H	0.408113	-0.197729	0.814018
H741	H	-0.090673	-0.532769	0.266460
H742	H	0.409327	-0.032769	0.766460
H743	H	-0.090726	-0.532768	0.309877
H744	H	0.409274	-0.032768	0.809877
H745	H	-0.015291	-0.684031	0.385637
H746	H	0.484709	-0.184031	0.885637
C747	C	0.023896	-0.662699	0.424999
C748	C	0.523896	-0.162699	0.924999
C749	C	0.073125	-0.699460	0.405521
C750	C	0.573125	-0.199460	0.905521
C751	C	0.105344	-0.735984	0.437866
C752	C	0.605344	-0.235984	0.937866
C753	C	0.088333	-0.735746	0.489689
C754	C	0.588333	-0.235746	0.989689
C755	C	0.039102	-0.698983	0.509170
C756	C	0.539102	-0.198983	1.009170
C757	C	0.006883	-0.662459	0.476825
C758	C	0.506883	-0.162459	0.976825
H759	H	0.085720	-0.699638	0.367156
H760	H	0.585720	-0.199638	0.867156
H761	H	0.141788	-0.763198	0.423445
H762	H	0.641788	-0.263198	0.923445
H763	H	0.112183	-0.762783	0.513633
H764	H	0.612183	-0.262783	1.013633
H765	H	0.026507	-0.698805	0.547535
H766	H	0.526507	-0.198805	1.047535
H767	H	-0.029561	-0.635245	0.491247
H768	H	0.470439	-0.135245	0.991247
C769	C	0.031274	-0.682354	0.312349
C770	C	0.531274	-0.182354	0.812349
C771	C	0.062237	-0.689398	0.338530
C772	C	0.562237	-0.189398	0.838530
C773	C	0.098323	-0.661370	0.311911
C774	C	0.598323	-0.161370	0.811911
C775	C	0.103447	-0.626297	0.259110
C776	C	0.603447	-0.126297	0.759110
C777	C	0.072483	-0.619251	0.232925
C778	C	0.572483	-0.119251	0.732925
C779	C	0.036396	-0.647280	0.259545
C780	C	0.536396	-0.147280	0.759545
H781	H	0.058445	-0.715363	0.377620
H782	H	0.558445	-0.215363	0.877620
H783	H	0.121245	-0.666586	0.331295
H784	H	0.621245	-0.166586	0.831295
H785	H	0.130160	-0.605549	0.239405
H786	H	0.630160	-0.105549	0.739405
H787	H	0.076275	-0.593287	0.193836
H788	H	0.576275	-0.093287	0.693836
H789	H	0.013475	-0.642064	0.240161
H790	H	0.513475	-0.142064	0.740161
C791	C	0.066927	-0.789551	0.348125
C792	C	0.566927	-0.289551	0.848125
C793	C	0.103014	-0.761525	0.321506
C794	C	0.603014	-0.261525	0.821506
C795	C	0.157775	-0.789647	0.313628
C796	C	0.657775	-0.289647	0.813628
C797	C	0.176450	-0.845795	0.332369
C798	C	0.676450	-0.345795	0.832369
C799	C	0.140362	-0.873824	0.358989
C800	C	0.640362	-0.373824	0.858989
C801	C	0.085601	-0.845702	0.366867
C802	C	0.585601	-0.345702	0.866867
H803	H	0.089190	-0.719958	0.307632
H804	H	0.589190	-0.219958	0.807632
H805	H	0.184489	-0.768898	0.293922
H806	H	0.684489	-0.268898	0.793922
H807	H	0.216987	-0.866613	0.326537
H808	H	0.716987	-0.366613	0.826537
H809	H	0.154186	-0.915391	0.372863
H810	H	0.654186	-0.415391	0.872863
H811	H	0.058887	-0.866451	0.386573
H812	H	0.558887	-0.366451	0.886573
H813	H	-0.127938	-0.689491	0.376175
H814	H	0.372062	-0.189491	0.876175
C815	C	-0.106509	-0.789374	0.413992
C816	C	0.393491	-0.289374	0.913992
C817	C	-0.161270	-0.761256	0.421879
C818	C	0.338730	-0.261256	0.921879
C819	C	-0.197355	-0.789287	0.448503
C820	C	0.302645	-0.289287	0.948503
C821	C	-0.178680	-0.845434	0.467239
C822	C	0.321320	-0.345434	0.967239
C823	C	-0.123917	-0.873555	0.459353
C824	C	0.376083	-0.373555	0.959353
C825	C	-0.087831	-0.845525	0.432729
C826	C	0.412169	-0.345525	0.932729
H827	H	-0.175096	-0.719690	0.408009
H828	H	0.324904	-0.219690	0.908009
H829	H	-0.237895	-0.768470	0.454341
H830	H	0.262105	-0.268470	0.954341
H831	H	-0.205393	-0.866184	0.486948
H832	H	0.294607	-0.366184	0.986948
H833	H	-0.110090	-0.915122	0.473223
H834	H	0.389910	-0.415122	0.973223
H835	H	-0.047292	-0.866342	0.426891
H836	H	0.452708	-0.366342	0.926891
H837	H	-0.134277	-0.646110	0.423254
H838	H	0.365723	-0.146110	0.923254
C839	C	-0.234192	-0.618650	0.468311
C840	C	0.265808	-0.118650	0.968311
C841	C	-0.227224	-0.603807	0.500400
C842	C	0.272776	-0.103807	1.000400
C843	C	-0.255373	-0.617328	0.555585
C844	C	0.244627	-0.117328	1.055585
C845	C	-0.290490	-0.645691	0.578680
C846	C	0.209510	-0.145691	1.078680
C847	C	-0.297460	-0.660535	0.546590
C848	C	0.202540	-0.160535	1.046590
C849	C	-0.269311	-0.647015	0.491406
C850	C	0.230689	-0.147015	0.991406
H851	H	-0.201227	-0.582809	0.483304
H852	H	0.298773	-0.082809	0.983304
H853	H	-0.250213	-0.606339	0.579340
H854	H	0.249787	-0.106339	1.079340
H855	H	-0.311327	-0.655700	0.619531
H856	H	0.188673	-0.155700	1.119531
H857	H	-0.323457	-0.681533	0.563686
H858	H	0.176543	-0.181533	1.063686
H859	H	-0.274471	-0.658004	0.467651
H860	H	0.225529	-0.158004	0.967651
