data_functionalizedCrystal
_audit_creation_method	'MofGen! by Chris Wilmer'
_symmetry_space_group_name_H-M	'P1'
_symmetry_Int_Tables_number	1
_symmetry_cell_setting	triclinic
loop_
_symmetry_equiv_pos_as_xyz
  x,y,z
_cell_length_a	15.944551
_cell_length_b	15.944551
_cell_length_c	14.421503
_cell_angle_alpha	90.003340
_cell_angle_beta	89.996859
_cell_angle_gamma	83.498738
loop_
_atom_site_label
_atom_site_type_symbol
_atom_site_fract_x
_atom_site_fract_y
_atom_site_fract_z
O1	O	1.114529	0.108320	-0.077017
O2	O	0.869980	0.121677	-0.077040
O3	O	0.998933	-0.007276	-0.077020
O4	O	0.985576	0.237273	-0.077038
O5	O	0.998911	-0.007257	0.077204
O6	O	0.869958	0.121696	0.077183
O7	O	1.114508	0.108340	0.077206
Cu8	Cu	0.992231	0.115020	0.091277
Cu9	Cu	0.992256	0.114997	-0.091110
O10	O	0.985555	0.237293	0.077186
C11	C	0.838675	0.121132	0.000069
C12	C	0.745429	0.119470	0.000060
C13	C	0.530572	0.035565	0.000084
C14	C	0.469563	0.074518	-0.075959
C15	C	0.574703	0.116462	0.000071
C16	C	0.469564	0.074556	0.076093
C17	C	0.409790	0.113551	0.000086
C18	C	0.514922	0.155437	-0.076035
C19	C	0.514929	0.155464	0.076086
C20	C	0.453937	0.194476	0.000024
C21	C	0.669705	0.118137	0.000062
C22	C	0.314789	0.111883	0.000089
C23	C	0.998367	-0.038561	0.000092
C24	C	0.996705	-0.131807	0.000093
C25	C	0.912801	-0.346663	0.000072
C26	C	0.951753	-0.407671	0.076117
C27	C	0.993698	-0.302533	0.000085
C28	C	0.951793	-0.407674	-0.075935
C29	C	0.990787	-0.467445	0.000074
C30	C	1.032672	-0.362312	0.076193
C31	C	1.032701	-0.362308	-0.075927
C32	C	1.071711	-0.423298	0.000136
C33	C	0.995372	-0.207530	0.000092
C34	C	0.989119	-0.562446	0.000073
C35	C	1.145813	0.108885	0.000096
C36	C	1.239059	0.110547	0.000098
C37	C	0.986120	0.268577	0.000072
C38	C	0.987782	0.361823	0.000066
N39	N	0.992219	0.115035	0.219558
N40	N	0.992275	0.114975	-0.219392
C41	C	0.932581	0.174636	0.469202
C42	C	1.008481	0.190943	0.531011
C43	C	0.992240	0.115015	0.408719
C44	C	0.916359	0.098727	0.531005
C45	C	0.992253	0.114997	0.591441
C46	C	1.068178	0.131360	0.469167
C47	C	0.976007	0.039111	0.469156
C48	C	1.051961	0.055386	0.530936
C49	C	0.992231	0.115027	0.303458
C50	C	0.992270	0.114985	0.696700
H51	H	0.420779	0.261683	-0.000023
H52	H	0.535052	0.189660	0.140373
H53	H	0.449469	0.040333	0.140379
H54	H	0.917527	-0.427771	0.140401
H55	H	0.563905	-0.031573	-0.000005
C56	C	1.078899	-0.335115	-0.162771
C57	C	1.089591	-0.241353	-0.178208
C58	C	1.135782	-0.214157	-0.265060
C59	C	1.171281	-0.280723	-0.336476
C60	C	1.160590	-0.374491	-0.321041
C61	C	1.114399	-0.401687	-0.234189
H62	H	1.063312	-0.192071	-0.125340
H63	H	1.143696	-0.144743	-0.276485
H64	H	1.205474	-0.260591	-0.400769
H65	H	1.186869	-0.423773	-0.373910
H66	H	1.106485	-0.471101	-0.222764
H67	H	0.962240	-0.025051	0.441965
H68	H	0.845652	-0.313356	0.000141
C69	C	0.442305	0.028253	-0.162734
C70	C	0.476432	-0.064782	-0.179384
C71	C	0.449134	-0.111070	-0.266123
C72	C	0.387708	-0.064322	-0.336212
C73	C	0.353577	0.028718	-0.319564
C74	C	0.380876	0.075006	-0.232825
H75	H	0.521906	-0.099392	-0.127498
H76	H	0.474400	-0.179945	-0.278446
H77	H	0.367500	-0.098587	-0.400421
H78	H	0.308103	0.063328	-0.371450
H79	H	0.355609	0.143880	-0.220502
H80	H	1.066850	-0.342314	0.140554
C81	C	0.905568	-0.434822	-0.162786
C82	C	0.812564	-0.400613	-0.179478
C83	C	0.766333	-0.427758	-0.266323
C84	C	0.813106	-0.489112	-0.336478
C85	C	0.906116	-0.523325	-0.319789
C86	C	0.952347	-0.496180	-0.232943
H87	H	0.777935	-0.355191	-0.127544
H88	H	0.697480	-0.402430	-0.278678
H89	H	0.778883	-0.509206	-0.400766
H90	H	0.940745	-0.568747	-0.371723
H91	H	1.021199	-0.521508	-0.220589
C92	C	0.864496	0.242798	0.432571
C93	C	0.771192	0.239573	0.458355
C94	C	0.703112	0.307736	0.421722
C95	C	0.728336	0.379124	0.359304
C96	C	0.821644	0.382352	0.333516
C97	C	0.889724	0.314189	0.370149
H98	H	0.752516	0.186725	0.504563
H99	H	0.634039	0.305346	0.440812
H100	H	0.677939	0.429582	0.332186
H101	H	0.840320	0.435200	0.287308
H102	H	0.958797	0.316579	0.351059
H103	H	1.138919	-0.456457	0.000186
H104	H	0.534918	0.189620	-0.140394
H105	H	1.022224	0.255126	0.558180
C106	C	1.154896	0.150068	0.432636
C107	C	1.170902	0.153571	0.327476
C108	C	1.257617	0.172282	0.290943
C109	C	1.328326	0.187490	0.359569
C110	C	1.312323	0.183988	0.464735
C111	C	1.225608	0.165277	0.501269
H112	H	1.118557	0.142313	0.276669
H113	H	1.269463	0.174874	0.213092
H114	H	1.392518	0.201341	0.332525
H115	H	1.364668	0.195246	0.515542
H116	H	1.213761	0.162684	0.579120
C117	C	1.120196	-0.012739	0.567337
C118	C	1.132422	-0.025863	0.672470
C119	C	1.200659	-0.093983	0.708873
C120	C	1.256669	-0.148979	0.640144
C121	C	1.244444	-0.135857	0.535005
C122	C	1.176208	-0.067738	0.498602
H123	H	1.090959	0.014850	0.723353
H124	H	1.209708	-0.103696	0.786704
H125	H	1.307182	-0.199405	0.667092
H126	H	1.285908	-0.176571	0.484122
H127	H	1.167158	-0.058024	0.420770
H128	H	0.852183	0.084959	0.558170
