data_functionalizedCrystal
_audit_creation_method	'MofGen! by Chris Wilmer'
_symmetry_space_group_name_H-M	'P1'
_symmetry_Int_Tables_number	1
_symmetry_cell_setting	triclinic
loop_
_symmetry_equiv_pos_as_xyz
  x,y,z
_cell_length_a	16.959455
_cell_length_b	12.594516
_cell_length_c	12.594509
_cell_angle_alpha	89.975348
_cell_angle_beta	89.979816
_cell_angle_gamma	90.013000
loop_
_atom_site_label
_atom_site_type_symbol
_atom_site_fract_x
_atom_site_fract_y
_atom_site_fract_z
Zn1	Zn	1.208452	-0.423813	-0.601834
Zn2	Zn	1.208370	-0.601818	-0.423862
Zn3	Zn	1.076267	-0.423845	-0.423868
Zn4	Zn	1.076254	-0.601740	-0.601796
O5	O	1.142335	-0.512804	-0.512840
O6	O	1.319052	-0.447445	-0.578239
O7	O	1.190817	-0.578256	-0.274917
O8	O	1.093841	-0.274895	-0.447493
O9	O	1.318992	-0.578225	-0.447484
O10	O	1.190956	-0.274871	-0.578245
O11	O	1.093761	-0.447499	-0.274921
O12	O	0.965654	-0.447424	-0.447457
O13	O	1.093819	-0.578092	-0.750747
O14	O	0.965645	-0.578123	-0.578180
O15	O	1.190944	-0.447369	-0.750775
O16	O	1.190805	-0.750754	-0.447447
O17	O	1.093740	-0.750697	-0.578175
C18	C	0.936969	-0.512769	-0.512816
C19	C	0.849113	-0.512780	-0.512830
C20	C	0.477617	-0.444693	-0.444914
C21	C	0.477657	-0.581003	-0.580827
C22	C	0.560203	-0.580987	-0.580820
C23	C	0.601460	-0.512825	-0.512859
C24	C	0.560171	-0.444678	-0.444904
C25	C	0.601497	-0.649140	-0.648766
C26	C	0.684048	-0.649129	-0.648762
C27	C	0.725307	-0.580960	-0.580805
C28	C	0.684013	-0.512810	-0.512848
C29	C	0.725270	-0.444648	-0.444886
C30	C	0.683978	-0.376491	-0.376934
C31	C	0.601430	-0.376510	-0.376947
C32	C	0.807855	-0.580942	-0.580792
C33	C	0.807824	-0.444633	-0.444875
C34	C	1.142284	-0.789345	-0.512830
C35	C	1.142334	-0.907651	-0.512861
C36	C	1.089535	-0.976911	-0.583914
C37	C	1.070276	-1.047773	-0.486791
C38	C	1.161665	-1.047588	-0.610000
C39	C	1.123037	-0.976954	-0.415687
C40	C	1.214459	-0.976763	-0.538961
C41	C	1.195227	-1.047592	-0.441772
C42	C	1.348504	-0.512840	-0.512865
C43	C	1.436360	-0.512856	-0.512876
C44	C	1.142389	-0.512718	-0.790461
C45	C	1.142412	-0.512682	-0.908767
C46	C	1.142409	-0.235183	-0.512874
C47	C	1.142440	-0.116878	-0.512888
C48	C	1.089619	-0.583693	-1.048768
C49	C	1.070294	-0.486626	-0.977964
C50	C	1.161702	-0.609738	-0.978000
C51	C	1.123095	-0.415431	-1.048748
C52	C	1.214537	-0.538608	-1.048790
C53	C	1.195239	-0.441475	-0.978017
C54	C	1.142327	-0.512813	-0.236299
C55	C	1.142457	-0.512549	-0.117994
H56	H	0.567802	-0.321022	-0.321622
H57	H	1.275494	-0.560628	-1.079923
N58	N	1.182112	-1.086515	-0.713043
N59	N	1.140120	-1.063851	-0.791381
H60	H	1.154553	-1.091341	-0.864158
H61	H	0.567900	-0.704642	-0.704089
H62	H	1.009319	-0.464636	-0.946853
N63	N	1.251300	-1.086310	-0.366340
N64	N	1.307503	-1.142977	-0.396497
H65	H	1.347102	-1.170325	-0.343222
N66	N	1.033440	-0.937963	-0.659197
N67	N	1.039894	-0.961858	-0.755125
H68	H	1.000276	-0.934349	-0.808291
H69	H	1.275391	-0.945552	-0.561061
N70	N	0.435505	-0.650625	-0.650229
N71	N	0.361801	-0.650632	-0.650224
H72	H	0.332027	-0.699805	-0.699244
H73	H	1.106729	-0.333271	-1.079695
H74	H	1.044921	-0.643724	-1.079835
H75	H	1.239903	-0.381298	-0.947149
H76	H	0.717662	-0.704625	-0.704093
N77	N	1.182136	-0.712779	-0.939011
N78	N	1.140172	-0.791150	-0.961695
H79	H	1.154597	-0.863925	-0.934162
H80	H	1.009330	-1.078987	-0.464738
H81	H	1.106659	-0.946055	-0.333526
N82	N	0.849965	-0.374988	-0.375471
N83	N	0.840758	-0.276784	-0.382707
H84	H	0.870521	-0.227595	-0.333691
N85	N	0.726137	-0.306883	-0.307512
N86	N	0.799841	-0.306896	-0.307511
H87	H	0.829620	-0.257738	-0.258482
H88	H	0.841472	-0.636437	-0.636114
N89	N	0.435432	-0.375076	-0.375519
N90	N	0.361728	-0.375088	-0.375539
H91	H	0.331933	-0.325919	-0.326530
