data_functionalizedCrystal
_audit_creation_method	'MofGen! by Chris Wilmer'
_symmetry_space_group_name_H-M	'P1'
_symmetry_Int_Tables_number	1
_symmetry_cell_setting	triclinic
loop_
_symmetry_equiv_pos_as_xyz
  x,y,z
_cell_length_a	29.839134
_cell_length_b	29.839131
_cell_length_c	29.839125
_cell_angle_alpha	90.017709
_cell_angle_beta	90.024313
_cell_angle_gamma	90.034165
loop_
_atom_site_label
_atom_site_type_symbol
_atom_site_fract_x
_atom_site_fract_y
_atom_site_fract_z
Zn1	Zn	0.686720	-0.179003	0.254153
Zn2	Zn	1.186720	0.320997	0.754153
Zn3	Zn	0.686652	-0.254115	0.179023
Zn4	Zn	1.186652	0.245885	0.679023
Zn5	Zn	0.611602	-0.178991	0.179019
Zn6	Zn	1.111602	0.321009	0.679019
Zn7	Zn	0.611550	-0.254097	0.254108
Zn8	Zn	1.111550	0.245903	0.754108
O9	O	0.649131	-0.216552	0.216576
O10	O	1.149131	0.283448	0.716576
O11	O	0.749578	-0.188980	0.244207
O12	O	1.249578	0.311020	0.744207
O13	O	0.676690	-0.244152	0.116155
O14	O	1.176690	0.255848	0.616155
O15	O	0.621617	-0.116125	0.189003
O16	O	1.121617	0.383875	0.689003
O17	O	0.749528	-0.244164	0.189009
O18	O	1.249528	0.255836	0.689009
O19	O	0.676805	-0.116134	0.244204
O20	O	1.176805	0.383866	0.744204
O21	O	0.621551	-0.188958	0.116153
O22	O	1.121551	0.311042	0.616153
O23	O	0.548728	-0.188941	0.188960
O24	O	1.048728	0.311059	0.688960
O25	O	0.621528	-0.244134	0.316981
O26	O	1.121528	0.255866	0.816981
O27	O	0.548690	-0.244122	0.244127
O28	O	1.048690	0.255878	0.744127
O29	O	0.676755	-0.188962	0.317014
O30	O	1.176755	0.311038	0.817014
O31	O	0.676639	-0.316980	0.188966
O32	O	1.176639	0.183020	0.688966
O33	O	0.621462	-0.316967	0.244131
O34	O	1.121462	0.183033	0.744131
C35	C	0.532408	-0.216528	0.216539
C36	C	1.032408	0.283472	0.716539
C37	C	0.482474	-0.216529	0.216534
C38	C	0.982474	0.283471	0.716534
C39	C	0.125894	-0.187777	0.187909
C40	C	0.625894	0.312223	0.687909
C41	C	0.313567	-0.187764	0.187882
C42	C	0.813567	0.312236	0.687882
O43	O	0.337838	-0.163279	0.163502
O44	O	0.837838	0.336721	0.663502
N45	N	0.337029	-0.216536	0.216556
N46	N	0.837029	0.283464	0.716556
C47	C	0.313569	-0.245312	0.245242
C48	C	0.813569	0.254688	0.745242
O49	O	0.337831	-0.269781	0.269634
O50	O	0.837831	0.230219	0.769634
C51	C	0.125897	-0.245322	0.245271
C52	C	0.625897	0.254678	0.745271
C53	C	0.102438	-0.216551	0.216591
C54	C	0.602438	0.283449	0.716591
C55	C	0.102435	-0.159007	0.159232
C56	C	0.602435	0.340993	0.659232
C57	C	0.055520	-0.159013	0.159237
C58	C	0.555520	0.340987	0.659237
C59	C	0.032063	-0.187787	0.187920
C60	C	0.532063	0.312213	0.687920
C61	C	0.055522	-0.216556	0.216597
C62	C	0.555522	0.283444	0.716597
C63	C	0.102438	-0.274095	0.273958
C64	C	0.602438	0.225905	0.773958
C65	C	0.055517	-0.274094	0.273964
C66	C	0.555517	0.225906	0.773964
C67	C	0.032058	-0.245323	0.245284
C68	C	0.532058	0.254677	0.745284
C69	C	-0.014849	-0.245336	0.245284
C70	C	0.485151	0.254664	0.745284
N71	N	-0.038311	-0.216563	0.216610
N72	N	0.461689	0.283437	0.716610
C73	C	-0.014854	-0.187789	0.187927
C74	C	0.485146	0.312211	0.687927
C75	C	0.412100	-0.245305	0.245224
C76	C	0.912100	0.254695	0.745224
C77	C	0.459018	-0.245303	0.245216
C78	C	0.959018	0.254697	0.745216
C79	C	0.459013	-0.187755	0.187856
C80	C	0.959013	0.312245	0.687856
C81	C	0.412094	-0.187759	0.187862
C82	C	0.912094	0.312241	0.687862
C83	C	0.388638	-0.216533	0.216549
C84	C	0.888638	0.283467	0.716549
C85	C	-0.113380	-0.187802	0.187941
C86	C	0.386620	0.312198	0.687941
C87	C	-0.160300	-0.187811	0.187947
C88	C	0.339700	0.312189	0.687947
C89	C	-0.160291	-0.245358	0.245308
C90	C	0.339709	0.254642	0.745308
C91	C	-0.113375	-0.245351	0.245300
C92	C	0.386625	0.254649	0.745300
C93	C	-0.089921	-0.216569	0.216615
C94	C	0.410079	0.283431	0.716615
O95	O	-0.039149	-0.269804	0.269654
O96	O	0.460851	0.230196	0.769654
O97	O	-0.039124	-0.163316	0.163546
O98	O	0.460876	0.336684	0.663546
C99	C	0.172810	-0.187771	0.187904
C100	C	0.672810	0.312229	0.687904
C101	C	0.196269	-0.216541	0.216580
C102	C	0.696269	0.283459	0.716580
C103	C	0.172812	-0.245315	0.245263
C104	C	0.672812	0.254685	0.745263
C105	C	0.243187	-0.216539	0.216573
C106	C	0.743187	0.283461	0.716573
C107	C	0.266643	-0.187764	0.187890
C108	C	0.766643	0.312236	0.687890
C109	C	0.243182	-0.158992	0.159216
C110	C	0.743182	0.341008	0.659216
C111	C	0.196266	-0.158997	0.159221
C112	C	0.696266	0.341003	0.659221
C113	C	0.196274	-0.274087	0.273937
C114	C	0.696274	0.225913	0.773937
C115	C	0.243189	-0.274080	0.273929
C116	C	0.743189	0.225920	0.773929
C117	C	0.266646	-0.245306	0.245247
C118	C	0.766646	0.254694	0.745247
C119	C	0.649050	-0.333274	0.216554
C120	C	1.149050	0.166726	0.716554
C121	C	0.649056	-0.383209	0.216559
C122	C	1.149056	0.116791	0.716559
C123	C	0.677914	-0.692846	0.187894
C124	C	1.177914	-0.192846	0.687894
C125	C	0.677969	-0.880519	0.187911
C126	C	1.177969	-0.380519	0.687911
O127	O	0.702441	-0.904779	0.163521
O128	O	1.202441	-0.404779	0.663521
N129	N	0.649224	-0.903994	0.216610
N130	N	1.149224	-0.403994	0.716610
C131	C	0.620465	-0.880547	0.245308
C132	C	1.120465	-0.380547	0.745308
O133	O	0.596020	-0.904820	0.269722
O134	O	1.096020	-0.404820	0.769722
C135	C	0.620412	-0.692875	0.245293
C136	C	1.120412	-0.192875	0.745293
C137	C	0.649156	-0.669403	0.216589
C138	C	1.149156	-0.169403	0.716589
C139	C	0.706656	-0.669374	0.159192
C140	C	1.206656	-0.169374	0.659192
C141	C	0.706640	-0.622459	0.159187
C142	C	1.206640	-0.122459	0.659187
C143	C	0.677882	-0.599015	0.187882
C144	C	1.177882	-0.099015	0.687882
C145	C	0.649140	-0.622487	0.216583
C146	C	1.149140	-0.122487	0.716583
C147	C	0.591656	-0.669429	0.273993
C148	C	1.091656	-0.169429	0.773993
C149	C	0.591646	-0.622508	0.273988
C150	C	1.091646	-0.122508	0.773988
C151	C	0.620390	-0.599036	0.245284
C152	C	1.120390	-0.099036	0.745284
C153	C	0.620367	-0.552128	0.245273
C154	C	1.120367	-0.052128	0.745273
N155	N	0.649112	-0.528654	0.216574
N156	N	1.149112	-0.028654	0.716574
C157	C	0.677869	-0.552097	0.187879
C158	C	1.177869	-0.052097	0.687879
C159	C	0.620494	-0.979078	0.245314
C160	C	1.120494	-0.479078	0.745314
C161	C	0.620507	-1.025995	0.245317
C162	C	1.120507	-0.525995	0.745317
C163	C	0.678012	-1.025964	0.187920
C164	C	1.178012	-0.525964	0.687920
C165	C	0.677996	-0.979046	0.187915
C166	C	1.177996	-0.479046	0.687915
C167	C	0.649239	-0.955603	0.216615
C168	C	1.149239	-0.455603	0.716615
C169	C	0.677834	-0.453572	0.187868
C170	C	1.177834	0.046428	0.687868
C171	C	0.677814	-0.406652	0.187864
C172	C	1.177814	0.093348	0.687864
C173	C	0.620311	-0.406687	0.245262
C174	C	1.120311	0.093313	0.745262
C175	C	0.620329	-0.453603	0.245265
C176	C	1.120329	0.046397	0.745265
C177	C	0.649094	-0.477044	0.216567
C178	C	1.149094	0.022956	0.716567
O179	O	0.595912	-0.527840	0.269653
O180	O	1.095912	-0.027840	0.769653
O181	O	0.702318	-0.527817	0.163475
O182	O	1.202318	-0.027817	0.663475
C183	C	0.677930	-0.739762	0.187899
C184	C	1.177930	-0.239762	0.687899
C185	C	0.649188	-0.763234	0.216601
C186	C	1.149188	-0.263234	0.716601
C187	C	0.620430	-0.739790	0.245296
C188	C	1.120430	-0.239790	0.745296
C189	C	0.649200	-0.810152	0.216604
C190	C	1.149200	-0.310152	0.716604
C191	C	0.677958	-0.833595	0.187909
C192	C	1.177958	-0.333595	0.687909
C193	C	0.706703	-0.810120	0.159210
C194	C	1.206703	-0.310120	0.659210
C195	C	0.706687	-0.763205	0.159204
C196	C	1.206687	-0.263205	0.659204
C197	C	0.591685	-0.763265	0.273995
C198	C	1.091685	-0.263265	0.773995
C199	C	0.591703	-0.810180	0.273998
C200	C	1.091703	-0.310180	0.773998
C201	C	0.620461	-0.833624	0.245302
C202	C	1.120461	-0.333624	0.745302
C203	C	0.766309	-0.216575	0.216613
C204	C	1.266309	0.283425	0.716613
C205	C	0.816244	-0.216586	0.216629
C206	C	1.316244	0.283414	0.716629
C207	C	0.649143	-0.216548	0.333754
C208	C	1.149143	0.283452	0.833754
C209	C	0.649148	-0.216546	0.383689
C210	C	1.149148	0.283454	0.883689
C211	C	0.649225	-0.099373	0.216608
C212	C	1.149225	0.400627	0.716608
C213	C	0.649265	-0.049439	0.216622
C214	C	1.149265	0.450561	0.716622
C215	C	0.649145	-0.216523	0.099853
C216	C	1.149145	0.283477	0.599853
C217	C	0.649227	-0.216398	0.049919
C218	C	1.149227	0.283602	0.549919
C219	C	0.677935	-0.187743	0.693352
C220	C	1.177935	0.312257	1.193352
C221	C	0.677957	-0.187705	0.881026
C222	C	1.177957	0.312295	1.381026
O223	O	0.702399	-0.163258	0.905307
O224	O	1.202399	0.336742	1.405307
N225	N	0.649208	-0.216426	0.904474
N226	N	1.149208	0.283574	1.404474
C227	C	0.620449	-0.245156	0.881001
C228	C	1.120449	0.254844	1.381001
O229	O	0.595993	-0.269581	0.905252
O230	O	1.095993	0.230419	1.405252
C231	C	0.620424	-0.245192	0.693329
C232	C	1.120424	0.254808	1.193329
C233	C	0.649179	-0.216472	0.669883
C234	C	1.149179	0.283528	1.169883
C235	C	0.706687	-0.159025	0.669906
C236	C	1.206687	0.340975	1.169906
C237	C	0.706683	-0.159037	0.622991
C238	C	1.206683	0.340963	1.122991
C239	C	0.677927	-0.187766	0.599521
C240	C	1.177927	0.312234	1.099521
C241	C	0.649175	-0.216484	0.622968
C242	C	1.149175	0.283516	1.122968
C243	C	0.591663	-0.273920	0.669857
C244	C	1.091663	0.226080	1.169857
C245	C	0.591659	-0.273925	0.622936
C246	C	1.091659	0.226075	1.122936
C247	C	0.620414	-0.245206	0.599490
C248	C	1.120414	0.254794	1.099490
C249	C	0.620415	-0.245225	0.552583
C250	C	1.120415	0.254775	1.052583
N251	N	0.649164	-0.216504	0.529134
N252	N	1.149164	0.283496	1.029134
C253	C	0.677920	-0.187774	0.552604
C254	C	1.177920	0.312226	1.052604
C255	C	0.620464	-0.245136	0.979532
C256	C	1.120464	0.254864	1.479532
C257	C	0.620471	-0.245128	1.026450
C258	C	1.120471	0.254872	1.526450
C259	C	0.677979	-0.187675	1.026471
C260	C	1.177979	0.312325	1.526471
C261	C	0.677974	-0.187686	0.979552
C262	C	1.177974	0.312314	1.479552
C263	C	0.649214	-0.216415	0.956084
C264	C	1.149214	0.283585	1.456084
C265	C	0.677910	-0.187801	0.454078
C266	C	1.177910	0.312199	0.954078
C267	C	0.677904	-0.187817	0.407158
C268	C	1.177904	0.312183	0.907158
C269	C	0.620395	-0.245267	0.407141
C270	C	1.120395	0.254733	0.907141
C271	C	0.620401	-0.245253	0.454057
C272	C	1.120401	0.254747	0.954057
C273	C	0.649161	-0.216517	0.477524
C274	C	1.149161	0.283483	0.977524
O275	O	0.595982	-0.269655	0.528272
O276	O	1.095982	0.230345	1.028272
O277	O	0.702366	-0.163346	0.528345
O278	O	1.202366	0.336654	1.028345
C279	C	0.677939	-0.187731	0.740268
C280	C	1.177939	0.312269	1.240268
C281	C	0.649187	-0.216449	0.763714
C282	C	1.149187	0.283551	1.263714
C283	C	0.620431	-0.245178	0.740245
C284	C	1.120431	0.254822	1.240245
C285	C	0.649194	-0.216441	0.810632
C286	C	1.149194	0.283559	1.310632
C287	C	0.677950	-0.187711	0.834101
C288	C	1.177950	0.312289	1.334101
C289	C	0.706699	-0.158990	0.810653
C290	C	1.206699	0.341010	1.310653
C291	C	0.706695	-0.159002	0.763737
C292	C	1.206695	0.340998	1.263737
C293	C	0.591682	-0.273899	0.763693
C294	C	1.091682	0.226101	1.263693
C295	C	0.591689	-0.273886	0.810609
C296	C	1.091689	0.226114	1.310609
C297	C	0.620445	-0.245156	0.834078
C298	C	1.120445	0.254844	1.334078
H299	H	0.262288	-0.135564	0.135860
H300	H	0.762288	0.364436	0.635860
H301	H	0.701388	-0.164300	0.960465
H302	H	1.201388	0.335700	1.460465
H303	H	0.478119	-0.164326	0.164502
H304	H	0.978119	0.335674	0.664502
Cl305	Cl	0.272675	-0.310255	0.309985
Cl306	Cl	0.772675	0.189745	0.809985
Cl307	Cl	0.714133	-0.949543	0.151830
Cl308	Cl	1.214133	-0.449543	0.651830
Cl309	Cl	0.584163	-0.377207	0.281337
Cl310	Cl	1.084163	0.122793	0.781337
H311	H	0.036424	-0.135584	0.135884
H312	H	0.536424	0.364416	0.635884
H313	H	0.597061	-0.268519	1.045536
H314	H	1.097061	0.231481	1.545536
Cl315	Cl	-0.189788	-0.151639	0.151890
Cl316	Cl	0.310212	0.348361	0.651890
Cl317	Cl	0.555529	-0.733800	0.310073
Cl318	Cl	1.055529	-0.233800	0.810073
H319	H	0.597044	-0.268533	0.960428
H320	H	1.097044	0.231467	1.460428
Cl321	Cl	0.166793	-0.310265	0.309998
Cl322	Cl	0.666793	0.189735	0.809998
H323	H	0.568292	-0.829287	0.297372
H324	H	1.068292	-0.329287	0.797372
Cl325	Cl	0.131915	-0.122828	0.123170
Cl326	Cl	0.631915	0.377172	0.623170
Cl327	Cl	0.584338	-0.949614	0.281397
Cl328	Cl	1.084338	-0.449614	0.781397
Cl329	Cl	0.742845	-0.122895	0.734269
Cl330	Cl	1.242845	0.377105	1.234269
H331	H	0.392997	-0.164329	0.164510
H332	H	0.892997	0.335671	0.664510
H333	H	0.730093	-0.744097	0.135831
H334	H	1.230093	-0.244097	0.635831
H335	H	0.730115	-0.135600	0.829770
H336	H	1.230115	0.364400	1.329770
Cl337	Cl	0.488503	-0.281481	0.281265
Cl338	Cl	0.988503	0.218519	0.781265
Cl339	Cl	0.382619	-0.281484	0.281289
Cl340	Cl	0.882619	0.218516	0.781289
H341	H	0.597097	-1.045102	0.268687
H342	H	1.097097	-0.545102	0.768687
H343	H	0.701220	-0.387543	0.164488
H344	H	1.201220	0.112457	0.664488
Cl345	Cl	0.742848	-0.122909	0.699402
Cl346	Cl	1.242848	0.377091	1.199402
H347	H	0.701258	-0.472652	0.164500
H348	H	1.201258	0.027348	0.664500
H349	H	0.568248	-0.297306	0.688939
H350	H	1.068248	0.202694	1.188939
Cl351	Cl	0.742854	-0.839601	0.123135
Cl352	Cl	1.242854	-0.339601	0.623135
H353	H	0.036422	-0.297524	0.297326
H354	H	0.536422	0.202476	0.797326
Cl355	Cl	0.555500	-0.310043	0.593436
Cl356	Cl	1.055500	0.189957	1.093436
Cl357	Cl	0.714056	-0.151710	0.377686
Cl358	Cl	1.214056	0.348290	0.877686
H359	H	0.177170	-0.135568	0.135868
H360	H	0.677170	0.364432	0.635868
H361	H	0.121530	-0.297524	0.297312
H362	H	0.621530	0.202476	0.797312
Cl363	Cl	-0.189788	-0.281535	0.281358
Cl364	Cl	0.310212	0.218465	0.781358
Cl365	Cl	0.714062	-0.151673	0.483572
Cl366	Cl	1.214062	0.348327	0.983572
H367	H	0.596984	-0.268659	0.388024
H368	H	1.096984	0.231341	0.888024
H369	H	0.568274	-0.297277	0.829695
H370	H	1.068274	0.202723	1.329695
Cl371	Cl	-0.083883	-0.281525	0.281350
Cl372	Cl	0.416117	0.218475	0.781350
Cl373	Cl	0.714163	-1.055445	0.151846
Cl374	Cl	1.214163	-0.555445	0.651846
H375	H	0.596991	-0.268643	0.473148
H376	H	1.096991	0.231357	0.973148
Cl377	Cl	0.742784	-0.592958	0.123106
Cl378	Cl	1.242784	-0.092958	0.623106
Cl379	Cl	0.555493	-0.593040	0.310071
Cl380	Cl	1.055493	-0.093040	0.810071
Cl381	Cl	0.742813	-0.698837	0.123113
Cl382	Cl	1.242813	-0.198837	0.623113
Cl383	Cl	0.555524	-0.698925	0.310086
Cl384	Cl	1.055524	-0.198925	0.810086
Cl385	Cl	0.584184	-0.483111	0.281341
Cl386	Cl	1.084184	0.016889	0.781341
H387	H	0.730097	-0.135650	0.603905
H388	H	1.230097	0.364350	1.103905
H389	H	0.701393	-0.164283	1.045587
H390	H	1.201393	0.335717	1.545587
H391	H	-0.094290	-0.164363	0.164584
H392	H	0.405710	0.335637	0.664584
Cl393	Cl	0.555527	-0.310020	0.734196
Cl394	Cl	1.055527	0.189980	1.234196
