data_functionalizedCrystal
_audit_creation_method	'MofGen! by Chris Wilmer'
_symmetry_space_group_name_H-M	'P1'
_symmetry_Int_Tables_number	1
_symmetry_cell_setting	triclinic
loop_
_symmetry_equiv_pos_as_xyz
  x,y,z
_cell_length_a	6.817900
_cell_length_b	15.301126
_cell_length_c	9.582880
_cell_angle_alpha	92.795801
_cell_angle_beta	111.207034
_cell_angle_gamma	104.177575
loop_
_atom_site_label
_atom_site_type_symbol
_atom_site_fract_x
_atom_site_fract_y
_atom_site_fract_z
V1	V	-4.120136	-0.124378	-0.467055
V2	V	-3.620136	0.375622	0.032945
O3	O	-4.102207	0.006368	-0.457696
O4	O	-3.602207	0.506368	0.042304
O5	O	-4.074539	-0.246997	-0.464311
O6	O	-3.574539	0.253003	0.035689
O7	O	-4.110851	-0.122293	-0.670548
O8	O	-3.610851	0.377707	-0.170548
O9	O	-4.065644	-0.119199	-0.250031
O10	O	-3.565644	0.380801	0.249969
V11	V	-4.598332	-0.108759	-0.441042
V12	V	-4.098332	0.391241	0.058958
O13	O	-4.393079	-0.158638	-0.524115
O14	O	-3.893079	0.341362	-0.024115
O15	O	-4.775587	-0.074499	-0.383982
O16	O	-4.275587	0.425501	0.116018
O17	O	-4.420723	0.013860	-0.443786
O18	O	-3.920723	0.513860	0.056214
O19	O	-4.733658	-0.239506	-0.450401
O20	O	-4.233658	0.260494	0.049599
O21	O	-4.770221	-0.113938	-0.658066
O22	O	-4.270221	0.386062	-0.158066
O23	O	-4.384411	-0.110844	-0.237549
O24	O	-3.884411	0.389156	0.262451
C25	C	-3.918956	-0.276894	-0.457059
C26	C	-3.418956	0.223106	0.042941
C27	C	-3.963222	-0.377136	-0.456171
C28	C	-3.463222	0.122864	0.043829
C29	C	-4.167694	-0.428816	-0.463236
C30	C	-3.667694	0.071184	0.036764
C31	C	-4.209280	-0.523005	-0.462411
C32	C	-3.709280	-0.023005	0.037589
C33	C	-4.046385	-0.565510	-0.454511
C34	C	-3.546385	-0.065510	0.045489
C35	C	-3.841899	-0.513823	-0.447450
C36	C	-3.341899	-0.013823	0.052550
C37	C	-3.800321	-0.419637	-0.448286
C38	C	-3.300321	0.080363	0.051714
C39	C	-3.928571	-0.710135	-0.445705
C40	C	-3.428571	-0.210135	0.054295
C41	C	-3.970149	-0.804327	-0.444867
C42	C	-3.470149	-0.304327	0.055133
C43	C	-4.337529	-0.813502	-0.459830
C44	C	-3.837529	-0.313502	0.040170
C45	C	-4.295952	-0.719317	-0.460666
C46	C	-3.795952	-0.219317	0.039334
C47	C	-4.091466	-0.667636	-0.453603
C48	C	-3.591466	-0.167636	0.046397
C49	C	-3.965274	-0.117821	-0.720133
C50	C	-3.465274	0.382179	-0.220133
C51	C	-4.038985	-0.116927	-0.886493
C52	C	-3.538985	0.383073	-0.386493
C53	C	-4.239647	0.043752	-0.451034
C54	C	-3.739647	0.543752	0.048966
C55	C	-4.174620	0.143993	-0.451931
C56	C	-3.674620	0.643993	0.048069
C57	C	-4.193328	-0.115320	-0.187956
C58	C	-3.693328	0.384680	0.312044
C59	C	-4.098855	-0.116208	-0.021595
C60	C	-3.598855	0.383792	0.478405
H61	H	-4.428593	-0.684711	-0.467090
H62	H	-3.928593	-0.184711	0.032910
Br63	Br	-4.615049	-0.883639	-0.469424
Br64	Br	-4.115049	-0.383639	0.030576
H65	H	-3.837525	-0.838936	-0.438478
H66	H	-3.337525	-0.338936	0.061522
H67	H	-3.762066	-0.668060	-0.439966
H68	H	-3.262066	-0.168060	0.060034
H69	H	-4.300340	-0.394215	-0.469655
H70	H	-3.800340	0.105785	0.030345
H71	H	-3.709275	-0.548439	-0.441027
H72	H	-3.209275	-0.048439	0.058973
H73	H	-4.375779	-0.565079	-0.468166
H74	H	-3.875779	-0.065079	0.031834
Br75	Br	-3.522821	-0.349500	-0.438714
Br76	Br	-3.022821	0.150500	0.061286
