data_functionalizedCrystal
_audit_creation_method	'MofGen! by Chris Wilmer'
_symmetry_space_group_name_H-M	'P1'
_symmetry_Int_Tables_number	1
_symmetry_cell_setting	triclinic
loop_
_symmetry_equiv_pos_as_xyz
  x,y,z
_cell_length_a	16.956995
_cell_length_b	8.597304
_cell_length_c	15.455313
_cell_angle_alpha	85.021039
_cell_angle_beta	87.515363
_cell_angle_gamma	80.732763
loop_
_atom_site_label
_atom_site_type_symbol
_atom_site_fract_x
_atom_site_fract_y
_atom_site_fract_z
O1	O	1.062188	0.057230	-0.076467
O2	O	0.830655	0.111859	-0.080537
O3	O	0.950172	-0.142792	-0.061511
O4	O	0.942672	0.311881	-0.095493
O5	O	0.943336	-0.128286	0.081668
O6	O	0.823819	0.126365	0.062641
O7	O	1.055353	0.071736	0.066712
Cu8	Cu	0.938962	0.100375	0.077750
Cu9	Cu	0.947046	0.083220	-0.091575
O10	O	0.935836	0.326387	0.047686
C11	C	0.797561	0.121909	-0.009155
C12	C	0.709135	0.130225	-0.009772
C13	C	0.210547	0.192432	-0.014454
C14	C	0.293633	0.184606	-0.013868
C15	C	0.343043	0.037717	-0.002883
C16	C	0.309364	-0.101357	0.007508
C17	C	0.226280	-0.093530	0.006916
C18	C	0.592372	-0.001022	0.000027
C19	C	0.675461	-0.008838	0.000621
C20	C	0.659724	0.277126	-0.020757
C21	C	0.576639	0.284940	-0.021343
C22	C	0.542968	0.145866	-0.010956
N23	N	0.427970	0.029715	-0.002282
N24	N	0.458042	0.153869	-0.011564
C25	C	0.945568	-0.193445	0.014405
C26	C	0.942025	-0.365986	0.027295
C27	C	1.088447	0.061685	-0.004672
C28	C	1.176873	0.053369	-0.004061
C29	C	0.940440	0.377040	-0.028232
C30	C	0.943983	0.549580	-0.041128
N31	N	0.933283	0.112439	0.196844
N32	N	0.952731	0.071143	-0.210668
C33	C	0.984076	0.004289	0.250319
C34	C	0.979788	0.013426	0.340444
C35	C	0.924710	0.130721	0.377092
C36	C	0.873912	0.238876	0.323611
C37	C	0.878196	0.229731	0.233488
C38	C	0.906217	0.170153	0.645728
C39	C	0.901938	0.179293	0.735857
C40	C	1.007814	-0.046160	0.752684
C41	C	1.012097	-0.055289	0.662558
C42	C	0.961295	0.052861	0.609085
N43	N	0.920328	0.140066	0.469214
N44	N	0.965674	0.043507	0.516965
H45	H	0.564968	-0.114265	0.008487
H46	H	0.948369	-0.390708	-0.109574
H47	H	0.715691	-0.128459	0.009563
C48	C	0.442292	0.423905	-0.031754
C49	C	0.522329	0.446404	-0.033430
H50	H	0.408764	0.523589	-0.039211
H51	H	0.434305	0.361377	-0.077382
H52	H	0.429524	0.371512	0.022476
H53	H	0.535098	0.498787	-0.087663
H54	H	0.530319	0.508957	0.012201
H55	H	0.937627	-0.425701	0.095746
C56	C	0.104466	0.374609	0.046080
C57	C	0.156239	0.353901	-0.026529
H58	H	0.070945	0.474301	0.038624
H59	H	0.072520	0.292922	0.052180
H60	H	0.134825	0.370675	0.096679
H61	H	0.125881	0.357824	-0.077126
H62	H	0.188189	0.435610	-0.032638
C63	C	0.269731	0.468052	-0.035041
C64	C	0.330646	0.337470	-0.025285
H65	H	0.292583	0.562426	-0.042084
H66	H	0.240043	0.460102	-0.084754
H67	H	0.235263	0.470198	0.015107
H68	H	0.365111	0.335317	-0.075436
H69	H	0.360347	0.345423	0.024433
H70	H	0.836834	0.317796	0.189949
H71	H	1.028930	-0.091219	0.220486
H72	H	0.687149	0.390352	-0.029215
H73	H	1.021148	-0.074639	0.383983
C74	C	1.116313	-0.277237	0.688248
C75	C	1.072636	-0.184232	0.622278
H76	H	1.153685	-0.356844	0.663379
H77	H	1.144020	-0.212556	0.718816
H78	H	1.080853	-0.325407	0.727282
H79	H	1.108096	-0.136052	0.583247
H80	H	1.044927	-0.248923	0.591696
H81	H	1.049174	-0.134212	0.796230
H82	H	0.857085	0.274815	0.765691
H83	H	0.829062	0.334376	0.353456
C84	C	0.443712	-0.240328	0.017918
C85	C	0.363675	-0.262822	0.019586
H86	H	0.477238	-0.340013	0.025382
H87	H	0.456484	-0.187941	-0.036303
H88	H	0.451696	-0.177793	0.063554
H89	H	0.355690	-0.325347	-0.026054
H90	H	0.350898	-0.315232	0.073814
C91	C	0.145500	-0.258087	-0.054952
C92	C	0.189263	-0.246393	0.018341
H93	H	0.122653	-0.352467	-0.047903
H94	H	0.104188	-0.169496	-0.061572
H95	H	0.179984	-0.260256	-0.105087
H96	H	0.154777	-0.244212	0.068475
H97	H	0.230581	-0.335008	0.024970
H98	H	0.864853	0.258216	0.602196
