data_functionalizedCrystal
_audit_creation_method	'MofGen! by Chris Wilmer'
_symmetry_space_group_name_H-M	'P1'
_symmetry_Int_Tables_number	1
_symmetry_cell_setting	triclinic
loop_
_symmetry_equiv_pos_as_xyz
  x,y,z
_cell_length_a	13.897449
_cell_length_b	13.897448
_cell_length_c	12.827885
_cell_angle_alpha	89.967724
_cell_angle_beta	89.977049
_cell_angle_gamma	90.018519
loop_
_atom_site_label
_atom_site_type_symbol
_atom_site_fract_x
_atom_site_fract_y
_atom_site_fract_z
Zn1	Zn	1.474698	-0.383947	-0.590928
Zn2	Zn	1.974698	0.116053	-0.090928
Zn3	Zn	1.474594	-0.545273	-0.416181
Zn4	Zn	1.974594	-0.045273	0.083819
Zn5	Zn	1.313389	-0.383996	-0.416191
Zn6	Zn	1.813389	0.116004	0.083809
Zn7	Zn	1.313369	-0.545204	-0.590870
Zn8	Zn	1.813369	-0.045204	-0.090870
O9	O	1.394013	-0.464605	-0.503542
O10	O	1.894013	0.035395	-0.003542
O11	O	1.609666	-0.405356	-0.567767
O12	O	2.109666	0.094644	-0.067767
O13	O	1.453174	-0.523929	-0.269946
O14	O	1.953174	-0.023929	0.230054
O15	O	1.334839	-0.249008	-0.439399
O16	O	1.834839	0.250992	0.060601
O17	O	1.609589	-0.523881	-0.439381
O18	O	2.109589	-0.023881	0.060619
O19	O	1.453352	-0.248972	-0.567777
O20	O	1.953352	0.251028	-0.067777
O21	O	1.334737	-0.405440	-0.269953
O22	O	1.834737	0.094560	0.230047
O23	O	1.178405	-0.405372	-0.439342
O24	O	1.678405	0.094628	0.060658
O25	O	1.334806	-0.523763	-0.737114
O26	O	1.834806	-0.023763	-0.237114
O27	O	1.178390	-0.523811	-0.567678
O28	O	1.678390	-0.023811	-0.067678
O29	O	1.453333	-0.405288	-0.737156
O30	O	1.953333	0.094712	-0.237156
O31	O	1.453155	-0.680246	-0.439325
O32	O	1.953155	-0.180246	0.060675
O33	O	1.334704	-0.680195	-0.567668
O34	O	1.834704	-0.180195	-0.067668
C35	C	1.143398	-0.464590	-0.503506
C36	C	1.643398	0.035410	-0.003506
C37	C	1.036184	-0.464607	-0.503515
C38	C	1.536184	0.035393	-0.003515
C39	C	0.949115	-0.464610	-0.503532
C40	C	1.449115	0.035390	-0.003532
C41	C	0.839882	-0.464617	-0.503564
C42	C	1.339882	0.035383	-0.003564
C43	C	1.393942	-0.715219	-0.503512
C44	C	1.893942	-0.215219	-0.003512
C45	C	1.394000	-0.822433	-0.503534
C46	C	1.894000	-0.322433	-0.003534
C47	C	1.394102	-1.018728	-0.503600
C48	C	1.894102	-0.518728	-0.003600
C49	C	1.394043	-0.909496	-0.503566
C50	C	1.894043	-0.409496	-0.003566
C51	C	1.645605	-0.464621	-0.503579
C52	C	2.145605	0.035379	-0.003579
C53	C	1.752819	-0.464627	-0.503595
C54	C	2.252819	0.035373	-0.003595
C55	C	1.394079	-0.464512	-0.776113
C56	C	1.894079	0.035488	-0.276113
C57	C	1.394107	-0.464473	-0.892266
C58	C	1.894107	0.035527	-0.392266
C59	C	1.394109	-0.213012	-0.503596
C60	C	1.894109	0.286988	-0.003596
C61	C	1.394151	-0.105798	-0.503618
C62	C	1.894151	0.394202	-0.003618
C63	C	1.335520	-0.405829	-0.944054
C64	C	1.835520	0.094171	-0.444054
C65	C	1.335548	-0.405787	-1.064105
C66	C	1.835548	0.094213	-0.564105
C67	C	1.394002	-0.464628	-0.232032
C68	C	1.894002	0.035372	0.267968
C69	C	1.394160	-0.464395	-0.115880
C70	C	1.894160	0.035605	0.384120
H71	H	1.285337	-0.355657	-0.899516
H72	H	1.785337	0.144343	-0.399516
H73	H	1.444326	-0.514602	-1.071350
H74	H	1.944326	-0.014602	-0.571350
H75	H	1.285393	-0.355576	-1.108642
H76	H	1.785393	0.144424	-0.608642
C77	C	1.461817	-0.532345	-0.952431
C78	C	1.961817	-0.032345	-0.452431
N79	N	1.512788	-0.583497	-0.997745
N80	N	2.012788	-0.083497	-0.497745
