data_functionalizedCrystal
_audit_creation_method	'MofGen! by Chris Wilmer'
_symmetry_space_group_name_H-M	'P1'
_symmetry_Int_Tables_number	1
_symmetry_cell_setting	triclinic
loop_
_symmetry_equiv_pos_as_xyz
  x,y,z
_cell_length_a	29.839134
_cell_length_b	13.897447
_cell_length_c	13.897441
_cell_angle_alpha	89.973472
_cell_angle_beta	90.031618
_cell_angle_gamma	89.983942
loop_
_atom_site_label
_atom_site_type_symbol
_atom_site_fract_x
_atom_site_fract_y
_atom_site_fract_z
Zn1	Zn	0.686826	0.384116	0.545689
Zn2	Zn	0.686772	0.545438	0.384401
Zn3	Zn	0.611696	0.384144	0.384376
Zn4	Zn	0.611683	0.545357	0.545623
O5	O	0.649244	0.464764	0.465022
O6	O	0.749685	0.405538	0.524331
O7	O	0.676796	0.524088	0.249416
O8	O	0.621690	0.249159	0.405791
O9	O	0.749646	0.524061	0.405834
O10	O	0.676887	0.249138	0.524307
O11	O	0.621638	0.405586	0.249398
O12	O	0.548827	0.405507	0.405728
O13	O	0.621668	0.523922	0.680614
O14	O	0.548817	0.523949	0.524196
O15	O	0.676875	0.405459	0.680662
O16	O	0.676783	0.680409	0.405771
O17	O	0.621615	0.680349	0.524220
C18	C	0.532521	0.464723	0.464953
C19	C	0.482587	0.464729	0.464946
C20	C	0.649204	0.715378	0.465012
C21	C	0.649228	0.822592	0.465040
C22	C	0.649248	0.909662	0.465066
C23	C	0.649279	1.018894	0.465097
C24	C	0.172948	0.526528	0.526633
C25	C	-0.014725	0.526555	0.526676
O26	O	-0.038986	0.579053	0.579083
N27	N	-0.038198	0.464799	0.465095
C28	C	-0.014750	0.403028	0.403504
O29	O	-0.039022	0.350494	0.351133
C30	C	0.172922	0.402996	0.403466
C31	C	0.196393	0.464763	0.465044
C32	C	0.196419	0.588289	0.588206
C33	C	0.243334	0.588285	0.588191
C34	C	0.266779	0.526520	0.526603
C35	C	0.243308	0.464759	0.465029
C36	C	0.196369	0.341221	0.341881
C37	C	0.243290	0.341217	0.341878
C38	C	0.266761	0.402983	0.403456
C39	C	0.313668	0.402991	0.403425
N40	N	0.337141	0.464747	0.465006
C41	C	0.313697	0.526511	0.526595
C42	C	-0.113281	0.403050	0.403526
C43	C	-0.160199	0.403059	0.403534
C44	C	-0.160170	0.526585	0.526708
C45	C	-0.113252	0.526580	0.526694
C46	C	-0.089808	0.464806	0.465107
C47	C	0.412223	0.526500	0.526558
C48	C	0.459142	0.526493	0.526535
C49	C	0.459110	0.402964	0.403365
C50	C	0.412194	0.402973	0.403384
C51	C	0.388752	0.464744	0.464989
O52	O	0.337958	0.350512	0.351053
O53	O	0.337976	0.579022	0.578972
C54	C	0.126032	0.526531	0.526648
C55	C	0.102562	0.464770	0.465074
C56	C	0.126007	0.403006	0.403486
C57	C	0.055644	0.464779	0.465082
C58	C	0.032199	0.526544	0.526671
C59	C	0.055672	0.588300	0.588252
C60	C	0.102588	0.588296	0.588237
C61	C	0.102533	0.341250	0.341905
C62	C	0.055618	0.341259	0.341924
C63	C	0.032173	0.403024	0.403513
C64	C	0.766422	0.464805	0.465093
C65	C	0.816357	0.464823	0.465123
C66	C	0.649276	0.464678	0.716615
C67	C	0.649289	0.464642	0.823829
C68	C	0.649293	1.213171	0.465066
C69	C	0.649305	1.105957	0.465116
C70	C	0.649238	0.464779	0.214408
C71	C	0.649311	0.464544	0.107195
C72	C	0.649302	0.464577	1.020125
C73	C	0.649293	0.464616	0.910892
H74	H	0.478250	0.576795	0.576679
H75	H	0.036575	0.638594	0.638397
H76	H	0.036512	0.290963	0.291771
C77	C	0.386443	0.594458	0.594319
N78	N	0.367026	0.645650	0.645350
C79	C	0.128316	0.273304	0.274144
N80	N	0.147734	0.222128	0.223098
C81	C	0.128399	0.656242	0.655981
N82	N	0.147838	0.707421	0.707011
C83	C	-0.087438	0.594522	0.594439
N84	N	-0.067998	0.645697	0.645470
H85	H	-0.179305	0.352772	0.353382
C86	C	0.269146	0.656229	0.655937
N87	N	0.288584	0.707406	0.706969
H88	H	0.177335	0.638585	0.638365
C89	C	-0.185968	0.594521	0.594461
N90	N	-0.205401	0.645682	0.645496
H91	H	-0.094197	0.352744	0.353370
H92	H	0.177267	0.290926	0.291735
H93	H	0.262376	0.290905	0.291731
H94	H	0.393083	0.352680	0.353241
C95	C	0.484908	0.335015	0.335632
N96	N	0.504341	0.283826	0.284624
