data_functionalizedCrystal
_audit_creation_method	'MofGen! by Chris Wilmer'
_symmetry_space_group_name_H-M	'P1'
_symmetry_Int_Tables_number	1
_symmetry_cell_setting	triclinic
loop_
_symmetry_equiv_pos_as_xyz
  x,y,z
_cell_length_a	23.096457
_cell_length_b	19.902436
_cell_length_c	19.902436
_cell_angle_alpha	89.995377
_cell_angle_beta	59.997401
_cell_angle_gamma	119.992495
loop_
_atom_site_label
_atom_site_type_symbol
_atom_site_fract_x
_atom_site_fract_y
_atom_site_fract_z
Zr1	Zr	0.633654	0.088086	0.647339
O2	O	0.754440	0.195369	0.540051
O3	O	0.512869	0.055203	0.680226
O4	O	0.633640	0.195363	0.680230
O5	O	0.633680	-0.055358	0.540047
O6	O	0.633629	0.195354	0.790809
O7	O	0.633669	0.055208	0.540047
O8	O	0.417591	-0.055368	0.790802
O9	O	0.849718	0.195364	0.540053
O10	O	0.562541	0.041166	0.776779
O11	O	0.562558	-0.041341	0.694255
O12	O	0.704751	0.123680	0.694260
O13	O	0.704768	0.041173	0.611736
Zr14	Zr	0.633654	-0.088268	0.823700
Zr15	Zr	0.633637	0.088072	0.823700
Zr16	Zr	0.633672	-0.088253	0.647339
Zr17	Zr	0.785612	0.088079	0.647344
Zr18	Zr	0.481697	-0.088260	0.823695
O19	O	0.754440	-0.055384	0.790812
O20	O	0.754415	0.195348	0.790812
O21	O	0.754466	-0.055364	0.540050
O22	O	0.512869	-0.195550	0.930988
O23	O	0.512843	0.055182	0.930988
O24	O	0.512894	-0.195530	0.680226
O25	O	0.633629	0.055176	0.930992
O26	O	0.633669	-0.195545	0.790809
O27	O	0.633680	-0.195536	0.680230
O28	O	0.633640	-0.055390	0.930992
O29	O	0.849704	0.195353	0.680236
O30	O	0.417605	-0.195534	0.790802
O31	O	0.417591	-0.195545	0.930985
O32	O	0.417576	-0.055379	0.930985
O33	O	0.849733	0.055197	0.540053
O34	O	0.849718	0.055186	0.680236
O35	O	0.562558	-0.123862	0.776779
O36	O	0.562541	-0.041354	0.859303
O37	O	0.704751	0.041159	0.776783
O38	O	0.704768	-0.041348	0.694260
C39	C	0.443579	-0.000081	0.735514
C40	C	0.379069	-0.000078	0.735512
C41	C	0.633632	0.220483	0.735520
C42	C	0.633624	0.295344	0.735520
C43	C	0.633677	-0.220665	0.735519
C44	C	0.633684	-0.295526	0.735519
C45	C	0.348759	0.042993	0.778583
C46	C	0.288137	0.042986	0.778591
C47	C	0.257838	-0.000081	0.735512
C48	C	0.288152	-0.043161	0.692439
C49	C	0.348768	-0.043160	0.692439
N50	N	0.195449	0.005898	0.665409
N51	N	0.137869	0.005901	0.665411
C52	C	0.075207	-0.000088	0.735511
N53	N	0.072308	-0.006065	0.805609
N54	N	0.129896	-0.006064	0.805606
C55	C	0.192111	-0.000087	0.735508
C56	C	-0.020838	0.042978	0.778595
C57	C	-0.081465	0.042965	0.778605
C58	C	-0.081443	-0.043177	0.692445
C59	C	-0.020823	-0.043170	0.692443
C60	C	0.009479	-0.000088	0.735516
C61	C	0.823730	-0.000100	0.735525
C62	C	0.888240	-0.000103	0.735527
C63	C	0.633677	-0.000073	0.514919
C64	C	0.633684	-0.000067	0.440050
C65	C	0.633665	0.567393	0.735519
C66	C	0.543956	0.486851	0.787822
C67	C	0.543900	0.408948	0.787595
C68	C	0.633644	0.432426	0.735520
C69	C	0.678202	0.486550	0.645853
C70	C	0.677628	0.564112	0.646139
C71	C	0.679458	0.565242	0.772160
C72	C	0.677772	0.486364	0.773975
C73	C	0.633637	0.356151	0.735515
C74	C	0.633674	0.643669	0.735517
C75	C	0.633644	-0.000099	0.168048
C76	C	0.723353	0.051703	0.144483
C77	C	0.723409	0.051991	0.222321
C78	C	0.633665	-0.000083	0.302991
C79	C	0.589107	0.037877	0.300578
C80	C	0.589681	0.038260	0.222351
C81	C	0.587851	-0.089884	0.223338
C82	C	0.589537	-0.089746	0.300259
C83	C	0.633672	-0.000075	0.379258
C84	C	0.633635	-0.000104	0.091783
C85	C	0.633632	-0.000109	0.956119
C86	C	0.633624	-0.000115	1.030989
C87	C	0.443557	-0.000099	0.956114
C88	C	0.379039	-0.000102	1.030982
C89	C	0.443601	-0.220655	0.735514
C90	C	0.379099	-0.295513	0.735512
C91	C	0.443579	-0.220673	0.956114
C92	C	0.379069	-0.295537	1.030981
C93	C	0.823730	0.220492	0.514925
C94	C	0.888240	0.295356	0.440057
C95	C	0.823752	-0.000082	0.514925
C96	C	0.888270	-0.000079	0.440057
C97	C	0.823708	0.220474	0.735525
C98	C	0.888210	0.295332	0.735527
C99	C	0.348741	0.042979	1.023064
C100	C	0.288128	0.042992	1.093403
C101	C	0.257811	-0.000080	1.171660
C102	C	0.288115	-0.043162	1.179576
C103	C	0.348731	-0.043171	1.109237
C104	C	0.348808	-0.373749	0.778587
C105	C	0.288210	-0.444093	0.778582
C106	C	0.257900	-0.436198	0.735506
C107	C	0.288196	-0.357954	0.692425
C108	C	0.348798	-0.287612	0.692426
C109	C	0.348766	-0.287626	1.109224
C110	C	0.288160	-0.357962	1.179577
C111	C	0.257855	-0.436208	1.171685
C112	C	0.288164	-0.444117	1.093434
C113	C	0.348773	-0.373782	1.023083
C114	C	0.918550	0.287444	0.361815
C115	C	0.979175	0.357780	0.291462
C116	C	1.009483	0.436026	0.299353
C117	C	0.979170	0.443936	0.377604
C118	C	0.918551	0.373601	0.447955
C119	C	0.918574	-0.043153	0.447975
C120	C	0.979204	-0.043147	0.377636
C121	C	1.009523	-0.000072	0.299379
C122	C	0.979216	0.043007	0.291463
C123	C	0.918592	0.043005	0.361802
C124	C	0.918501	0.287411	0.778612
C125	C	0.979100	0.357741	0.778630
C126	C	1.009410	0.435991	0.735558
C127	C	0.979113	0.443910	0.692472
C128	C	0.918511	0.373581	0.692459
H129	H	0.373427	0.078070	0.813658
Br130	Br	0.175545	-0.000060	1.267112
H131	H	0.373438	-0.380235	0.959377
H132	H	0.893920	0.078079	0.355343
Br133	Br	0.789606	0.659860	0.708968
Br134	Br	0.247037	-0.347208	1.285763
H135	H	0.893831	0.223702	0.813686
H136	H	0.263454	0.078061	0.813666
H137	H	0.208504	-0.493472	1.228976
H138	H	0.208554	-0.493482	0.735512
H139	H	0.263549	-0.507796	0.813667
H140	H	0.620043	0.103318	0.302130
Br141	Br	0.782055	0.009486	0.079201
Br142	Br	0.247052	-0.347254	0.633969
H143	H	0.650742	0.568225	0.837192
H144	H	0.373453	-0.223911	0.657351
Br145	Br	0.877418	0.384352	0.554139
H146	H	0.743244	0.504883	0.739841
Br147	Br	0.477702	-0.154514	0.256550
H148	H	0.373431	-0.223920	1.115665
H149	H	0.616563	-0.121593	0.187026
H150	H	0.893877	0.223739	0.355374
H151	H	0.003859	-0.078239	0.657366
H152	H	0.263481	-0.507835	1.087021
Br153	Br	0.643672	-0.137024	0.299653
Br154	Br	1.020310	0.550133	0.388300
Br155	Br	1.091753	0.531474	0.203867
H156	H	0.645277	0.449039	0.840038
H157	H	1.003845	0.351324	0.227754
H158	H	0.524064	-0.131591	0.357717
Br159	Br	0.877442	-0.101616	0.554172
Br160	Br	0.389838	-0.101649	1.119998
H161	H	0.373480	-0.380193	0.813665
Br162	Br	1.020320	-0.101618	0.388399
Br163	Br	1.020207	0.346973	0.837104
Br164	Br	1.091658	0.531430	0.735582
Br165	Br	0.247025	-0.101620	0.633985
Br166	Br	0.781673	0.009552	0.220371
Br167	Br	1.091800	-0.000079	0.203927
Br168	Br	0.246959	-0.101617	1.285788
H169	H	0.263462	0.078075	1.086941
Br170	Br	1.020371	0.101460	0.185251
H171	H	1.003801	0.507631	0.657404
H172	H	0.893855	0.380042	0.657371
H173	H	0.373446	-0.078234	0.657363
H174	H	0.758385	0.117535	0.104573
H175	H	0.003832	0.078054	0.813670
H176	H	-0.106111	-0.078242	0.657370
Br177	Br	-0.122599	0.101426	0.837062
H178	H	0.508941	0.369550	0.853623
H179	H	0.508927	0.486105	0.762640
Br180	Br	0.485249	0.484013	0.898160
H181	H	0.508726	0.369913	0.762183
H182	H	0.743447	0.621149	0.605048
Br183	Br	0.788185	0.519498	0.578074
Br184	Br	0.626644	0.424135	0.596610
Br185	Br	0.624869	0.563799	0.597248
H186	H	0.758570	0.118221	0.220547
Br187	Br	0.389875	0.101444	0.916867
H188	H	0.523862	0.002970	0.241696
Br189	Br	0.479123	-0.021982	0.395264
Br190	Br	0.642447	0.148381	0.161437
