data_functionalizedCrystal
_audit_creation_method	'MofGen! by Chris Wilmer'
_symmetry_space_group_name_H-M	'P1'
_symmetry_Int_Tables_number	1
_symmetry_cell_setting	triclinic
loop_
_symmetry_equiv_pos_as_xyz
  x,y,z
_cell_length_a	12.759401
_cell_length_b	12.645330
_cell_length_c	12.759393
_cell_angle_alpha	89.969748
_cell_angle_beta	89.982620
_cell_angle_gamma	90.017853
loop_
_atom_site_label
_atom_site_type_symbol
_atom_site_fract_x
_atom_site_fract_y
_atom_site_fract_z
Zn1	Zn	1.606222	-0.421970	-0.593992
Zn2	Zn	1.606111	-0.599275	-0.418317
Zn3	Zn	1.430527	-0.422026	-0.418332
Zn4	Zn	1.430503	-0.599193	-0.593959
O5	O	1.518341	-0.510616	-0.506150
O6	O	1.753228	-0.445501	-0.570697
O7	O	1.582782	-0.575820	-0.271298
O8	O	1.453890	-0.273672	-0.441654
O9	O	1.753146	-0.575766	-0.441629
O10	O	1.582972	-0.273630	-0.570711
O11	O	1.453782	-0.445597	-0.271309
O12	O	1.283503	-0.445517	-0.441621
O13	O	1.453849	-0.575626	-0.740984
O14	O	1.283486	-0.575680	-0.570653
O15	O	1.582949	-0.445421	-0.741009
O16	O	1.582759	-0.747611	-0.441596
O17	O	1.453741	-0.747551	-0.570639
C18	C	1.245373	-0.510596	-0.506136
C19	C	1.128597	-0.510614	-0.506155
C20	C	1.073753	-0.578498	-0.573231
C21	C	0.964029	-0.578512	-0.573242
C22	C	0.964002	-0.442753	-0.439092
C23	C	1.073724	-0.442735	-0.439087
C24	C	1.073768	-0.656881	-0.650678
C25	C	0.964044	-0.656894	-0.650689
C26	C	1.518264	-0.786046	-0.506135
C27	C	1.518327	-0.903876	-0.506164
C28	C	1.437497	-1.071446	-0.587595
C29	C	1.437084	-0.948886	-0.587334
C30	C	1.488356	-0.948480	-0.395443
C31	C	1.487863	-1.071079	-0.395937
C32	C	1.629624	-1.070962	-0.534556
C33	C	1.628942	-0.948355	-0.536977
C34	C	1.792374	-0.510636	-0.506165
C35	C	1.909151	-0.510645	-0.506171
C36	C	1.518409	-0.510508	-0.780183
C37	C	1.518438	-0.510462	-0.896960
C38	C	1.518446	-0.234111	-0.506188
C39	C	1.518491	-0.116281	-0.506204
C40	C	1.451296	-0.442642	-0.951834
C41	C	1.451328	-0.442610	-1.061558
C42	C	1.585653	-0.578222	-1.061525
C43	C	1.585615	-0.578258	-0.951803
C44	C	1.373748	-0.364344	-0.951854
C45	C	1.373780	-0.364313	-1.061578
C46	C	1.518333	-0.510647	-0.233183
C47	C	1.518508	-0.510394	-0.116407
H48	H	1.455835	-0.918724	-0.669433
C49	C	1.119722	-0.762181	-0.611129
H50	H	1.064260	-0.809088	-0.593527
H51	H	1.161609	-0.749506	-0.550893
H52	H	1.161637	-0.792923	-0.664583
H53	H	1.544296	-1.100742	-0.333226
C54	C	0.918107	-0.617306	-0.755177
H55	H	0.973576	-0.599674	-0.801704
H56	H	0.876209	-0.556496	-0.742801
H57	H	0.876206	-0.671338	-0.785497
H58	H	1.296481	-0.393701	-1.095605
H59	H	1.354695	-0.919654	-0.568550
H60	H	1.292357	-0.386330	-0.922077
C61	C	1.659548	-0.652784	-1.121855
H62	H	1.649959	-0.643047	-1.195062
H63	H	1.644140	-0.724016	-1.103858
H64	H	1.730142	-0.637273	-1.103876
H65	H	1.402916	-0.286369	-0.917836
C66	C	1.134054	-0.368053	-0.365317
H67	H	1.207260	-0.377754	-0.374925
H68	H	1.116047	-0.383473	-0.294698
H69	H	1.116085	-0.296847	-0.380834
C70	C	1.114049	-0.627304	-0.760642
H71	H	1.188507	-0.627305	-0.760635
H72	H	1.089258	-0.558919	-0.778942
H73	H	1.089246	-0.677460	-0.810189
H74	H	0.919311	-0.387488	-0.384489
H75	H	0.934244	-0.738977	-0.628759
H76	H	1.692464	-0.917710	-0.482013
C77	C	1.462493	-1.111297	-0.698846
H78	H	1.522555	-1.155626	-0.696660
H79	H	1.475857	-1.052670	-0.743476
H80	H	1.404460	-1.150243	-0.725025
C81	C	1.403290	-0.253397	-1.101837
H82	H	1.415415	-0.207806	-1.043936
H83	H	1.347628	-0.226095	-1.143203
H84	H	1.465052	-0.257866	-1.143196
H85	H	1.406624	-1.099773	-0.371918
C86	C	1.326890	-1.113178	-0.562544
H87	H	1.329856	-1.157804	-0.502697
H88	H	1.301089	-1.152170	-0.620691
H89	H	1.281490	-1.055298	-0.548767
H90	H	1.407965	-0.917872	-0.370989
C91	C	1.565512	-0.909095	-0.311275
H92	H	1.616809	-0.864989	-0.342988
H93	H	1.598927	-0.967947	-0.279268
H94	H	1.528397	-0.870028	-0.259650
C95	C	1.666559	-1.112610	-0.641773
H96	H	1.614540	-1.158030	-0.670251
H97	H	1.730128	-1.150737	-0.633267
H98	H	1.677767	-1.054749	-0.687959
H99	H	1.651544	-0.919197	-0.618463
H100	H	1.640273	-0.633499	-0.907129
C101	C	1.711120	-1.110023	-0.454405
H102	H	1.677642	-1.153751	-0.403914
H103	H	1.742074	-1.051005	-0.420320
H104	H	1.763903	-1.149405	-0.489513
