data_functionalizedCrystal
_audit_creation_method	'MofGen! by Chris Wilmer'
_symmetry_space_group_name_H-M	'P1'
_symmetry_Int_Tables_number	1
_symmetry_cell_setting	triclinic
loop_
_symmetry_equiv_pos_as_xyz
  x,y,z
_cell_length_a	10.654550
_cell_length_b	13.339070
_cell_length_c	9.130313
_cell_angle_alpha	90.000326
_cell_angle_beta	89.996220
_cell_angle_gamma	100.057099
loop_
_atom_site_label
_atom_site_type_symbol
_atom_site_fract_x
_atom_site_fract_y
_atom_site_fract_z
O1	O	1.715926	0.142430	-0.121918
O2	O	1.355030	0.156000	-0.121894
O3	O	1.494059	0.001661	-0.121899
O4	O	1.576897	0.296769	-0.121913
O5	O	1.494058	0.001665	0.121700
O6	O	1.355029	0.156004	0.121705
O7	O	1.715925	0.142434	0.121681
Cu8	Cu	1.535477	0.149219	0.143935
Cu9	Cu	1.535478	0.149215	-0.144149
O10	O	1.576896	0.296773	0.121686
C11	C	1.307895	0.155006	-0.000092
C12	C	1.167445	0.152025	-0.000083
C13	C	1.118643	0.242897	-0.000108
C14	C	0.986674	0.240090	-0.000134
C15	C	0.952320	0.055530	-0.000113
C16	C	1.084286	0.058338	-0.000078
C17	C	1.138476	0.349452	-0.000126
C18	C	1.006507	0.346644	-0.000152
C19	C	1.480065	-0.036124	-0.000101
C20	C	1.438355	-0.148719	-0.000104
C21	C	1.762670	-0.511236	-0.000124
C22	C	1.801862	-0.405449	-0.000113
C23	C	1.710989	-0.341261	-0.000111
C24	C	1.580916	-0.382872	-0.000120
C25	C	1.541720	-0.488670	-0.000119
C26	C	1.490039	-0.318694	-0.000106
C27	C	1.359966	-0.360305	-0.000115
C28	C	1.320776	-0.466093	-0.000116
C29	C	1.411650	-0.530280	-0.000117
C30	C	1.529235	-0.212896	-0.000107
C31	C	1.308285	-0.190329	-0.000102
C32	C	1.269093	-0.296117	-0.000113
C33	C	1.763060	0.143428	-0.000125
C34	C	1.903510	0.146409	-0.000144
C35	C	1.590890	0.334559	-0.000116
C36	C	1.632600	0.447153	-0.000122
N37	N	1.535485	0.149222	0.346558
N38	N	1.535477	0.149204	-0.346771
C39	C	1.597077	0.080904	0.423208
C40	C	1.597069	0.080892	0.576545
C41	C	1.473877	0.217525	0.576568
C42	C	1.473878	0.217531	0.423234
C43	C	1.668206	0.002023	0.423195
C44	C	1.668198	0.002011	0.576532
H45	H	1.635141	-0.179028	-0.000099
H46	H	0.971709	0.378848	0.105015
C47	C	1.706978	-0.183571	-0.125322
C48	C	1.754056	-0.224976	-0.000099
H49	H	1.733563	-0.111778	-0.125308
H50	H	1.738930	-0.211663	-0.210253
H51	H	1.616508	-0.199179	-0.125312
H52	H	1.844528	-0.209375	-0.000114
H53	H	1.722110	-0.196874	0.084854
H54	H	1.770577	0.019386	0.618141
H55	H	1.163185	-0.330012	-0.000119
H56	H	1.620444	-0.075923	0.381581
H57	H	1.907767	-0.371577	-0.000104
C58	C	1.276652	0.275424	0.623804
C59	C	1.406162	0.292607	0.660860
H60	H	1.234848	0.321774	0.675849
H61	H	1.267851	0.285214	0.521527
H62	H	1.239421	0.207633	0.648930
H63	H	1.443396	0.360396	0.635724
H64	H	1.414971	0.282825	0.763160
C65	C	1.031165	0.502247	-0.137761
C66	C	0.968452	0.400835	-0.137781
H67	H	1.007674	0.535697	-0.222727
H68	H	1.007649	0.535681	-0.052818
H69	H	1.120706	0.504135	-0.137749
H70	H	0.878911	0.398947	-0.137782
H71	H	0.991960	0.367392	-0.222746
H72	H	1.836644	-0.563506	-0.000114
H73	H	1.379745	-0.616422	-0.000132
H74	H	1.214863	-0.499968	-0.000111
H75	H	1.612814	-0.071647	0.624085
H76	H	1.234288	-0.138068	-0.000093
C77	C	1.461081	0.392535	0.376051
C78	C	1.406166	0.292625	0.338982
H79	H	1.419280	0.438894	0.324030
H80	H	1.452261	0.402296	0.478333
H81	H	1.548945	0.404174	0.350904
H82	H	1.318304	0.280983	0.364139
H83	H	1.414975	0.282859	0.236677
C84	C	1.852104	0.134198	0.406414
C85	C	1.802565	0.035375	0.359003
H86	H	1.935057	0.154789	0.366798
H87	H	1.798230	0.179513	0.374278
H88	H	1.856643	0.135305	0.510324
H89	H	1.798017	0.034269	0.255093
H90	H	1.856453	-0.009952	0.391131
C91	C	1.037068	-0.124371	-0.000042
C92	C	1.137931	-0.041551	-0.000034
H93	H	1.070188	-0.186040	-0.000022
H94	H	0.986293	-0.121618	0.084885
H95	H	0.986331	-0.121630	-0.085013
H96	H	1.188663	-0.044288	0.084943
H97	H	1.188727	-0.044306	-0.084969
H98	H	0.884597	-0.020747	-0.000132
C99	C	1.100626	0.437009	0.220944
C100	C	1.197078	0.405704	0.137500
H101	H	1.136807	0.471728	0.305911
H102	H	1.059363	0.481385	0.164292
H103	H	1.040306	0.379137	0.249241
H104	H	1.257394	0.463576	0.109195
H105	H	1.238362	0.361325	0.194163
H106	H	1.185588	0.383378	-0.105300
