data_functionalizedCrystal
_audit_creation_method	'MofGen! by Chris Wilmer'
_symmetry_space_group_name_H-M	'P1'
_symmetry_Int_Tables_number	1
_symmetry_cell_setting	triclinic
loop_
_symmetry_equiv_pos_as_xyz
  x,y,z
_cell_length_a	17.639054
_cell_length_b	17.640280
_cell_length_c	13.032268
_cell_angle_alpha	87.294217
_cell_angle_beta	84.490606
_cell_angle_gamma	87.823438
loop_
_atom_site_label
_atom_site_type_symbol
_atom_site_fract_x
_atom_site_fract_y
_atom_site_fract_z
Zn1	Zn	1.159129	-0.162985	-0.857787
Zn2	Zn	1.659129	0.337015	-0.357787
Zn3	Zn	1.198909	-0.268672	-0.665486
Zn4	Zn	1.698909	0.231328	-0.165486
Zn5	Zn	1.047260	-0.165874	-0.652330
Zn6	Zn	1.547260	0.334126	-0.152330
Zn7	Zn	1.062548	-0.308402	-0.793045
Zn8	Zn	1.562548	0.191598	-0.293045
O9	O	1.116962	-0.226483	-0.742162
O10	O	1.616962	0.273517	-0.242162
O11	O	1.268291	-0.159168	-0.864878
O12	O	1.768291	0.340832	-0.364878
O13	O	1.189043	-0.239617	-0.524372
O14	O	1.689043	0.260383	-0.024372
O15	O	1.039053	-0.061612	-0.701173
O16	O	1.539053	0.438388	-0.201173
O17	O	1.297517	-0.236816	-0.723595
O18	O	1.797517	0.263184	-0.223595
O19	O	1.121243	-0.059489	-0.852121
O20	O	1.621243	0.440511	-0.352121
O21	O	1.077627	-0.164092	-0.514707
O22	O	1.577627	0.335908	-0.014707
O23	O	0.945403	-0.202617	-0.638396
O24	O	1.445403	0.297383	-0.138396
O25	O	1.065110	-0.304531	-0.941002
O26	O	1.565110	0.195469	-0.441002
O27	O	0.956635	-0.307332	-0.741779
O28	O	1.456635	0.192668	-0.241779
O29	O	1.136067	-0.197693	-0.988567
O30	O	1.636067	0.302307	-0.488567
O31	O	1.203867	-0.377821	-0.660818
O32	O	1.703867	0.122179	-0.160818
O33	O	1.103683	-0.407011	-0.754535
O34	O	1.603683	0.092989	-0.254535
C35	C	0.924083	-0.259600	-0.681635
C36	C	1.424083	0.240400	-0.181635
C37	C	0.841571	-0.273788	-0.655761
C38	C	1.341571	0.226212	-0.155761
C39	C	0.740479	-0.334124	-0.545658
C40	C	1.240479	0.165876	-0.045658
C41	C	0.818010	-0.320788	-0.569979
C42	C	1.318010	0.179212	-0.069979
C43	C	0.787604	-0.240109	-0.717259
C44	C	1.287604	0.259891	-0.217259
C45	C	0.710069	-0.253442	-0.692953
C46	C	1.210069	0.246558	-0.192953
C47	C	0.686513	-0.300449	-0.607151
C48	C	1.186513	0.199551	-0.107151
C49	C	0.656103	-0.219767	-0.754446
C50	C	1.156103	0.280233	-0.254446
C51	C	0.578575	-0.233095	-0.730139
C52	C	1.078575	0.266905	-0.230139
C53	C	0.555012	-0.280099	-0.644339
C54	C	1.055012	0.219901	-0.144339
C55	C	0.608985	-0.313778	-0.582844
C56	C	1.108985	0.186222	-0.082844
C57	C	0.679660	-0.172755	-0.840244
C58	C	1.179660	0.327245	-0.340244
C59	C	0.625694	-0.139080	-0.901737
C60	C	1.125694	0.360920	-0.401737
C61	C	0.548165	-0.152413	-0.877434
C62	C	1.048165	0.347587	-0.377434
C63	C	0.524602	-0.199417	-0.791634
C64	C	1.024602	0.300583	-0.291634
C65	C	0.494192	-0.118734	-0.938929
C66	C	0.994192	0.381266	-0.438929
C67	C	0.416664	-0.132063	-0.914622
C68	C	0.916664	0.367937	-0.414622
C69	C	0.447074	-0.212745	-0.767327
C70	C	0.947074	0.287255	-0.267327
C71	C	1.159769	-0.419349	-0.702107
C72	C	1.659769	0.080651	-0.202107
C73	C	1.178148	-0.501850	-0.685026
C74	C	1.678148	-0.001850	-0.185026
C75	C	0.977617	-0.849305	-0.872383
C76	C	1.477617	-0.349305	-0.372383
C77	C	0.994891	-0.926823	-0.856301
C78	C	1.494891	-0.426823	-0.356301
C79	C	1.099262	-0.896367	-0.758861
C80	C	1.599262	-0.396367	-0.258861
C81	C	1.081999	-0.818844	-0.774938
C82	C	1.581999	-0.318844	-0.274938
C83	C	1.021176	-0.795320	-0.831699
C84	C	1.521176	-0.295320	-0.331699
C85	C	1.125558	-0.764859	-0.734255
C86	C	1.625558	-0.264859	-0.234255
C87	C	1.108294	-0.687343	-0.750327
C88	C	1.608294	-0.187343	-0.250327
C89	C	1.047472	-0.663812	-0.807082
C90	C	1.547472	-0.163812	-0.307082
C91	C	1.003912	-0.717804	-0.847771
C92	C	1.503912	-0.217804	-0.347771
C93	C	1.186378	-0.788385	-0.677488
C94	C	1.686378	-0.288385	-0.177488
C95	C	1.229936	-0.734400	-0.636804
C96	C	1.729936	-0.234400	-0.136804
C97	C	1.212676	-0.656882	-0.652882
C98	C	1.712676	-0.156882	-0.152882
C99	C	1.151854	-0.633351	-0.709638
C100	C	1.651854	-0.133351	-0.209638
C101	C	1.256236	-0.602890	-0.612193
C102	C	1.756236	-0.102890	-0.112193
C103	C	1.238972	-0.525374	-0.628265
C104	C	1.738972	-0.025374	-0.128265
C105	C	1.134590	-0.555835	-0.725710
C106	C	1.634590	-0.055835	-0.225710
C107	C	1.310594	-0.193238	-0.802926
C108	C	1.810594	0.306762	-0.302926
C109	C	1.393108	-0.179071	-0.828820
C110	C	1.893108	0.320929	-0.328820
C111	C	1.097856	-0.255221	-1.001932
C112	C	1.597856	0.244779	-0.501932
C113	C	1.089715	-0.267468	-1.112630
C114	C	1.589715	0.232532	-0.612630
C115	C	1.074005	-0.032863	-0.782402
C116	C	1.574005	0.467137	-0.282402
C117	C	1.055700	0.049647	-0.799549
C118	C	1.555700	0.549647	-0.299549
C119	C	1.121193	-0.220067	-1.185517
C120	C	1.621193	0.279933	-0.685517
C121	C	1.112779	-0.232723	-1.299931
C122	C	1.612779	0.267277	-0.799931
C123	C	1.136023	-0.197796	-0.483427
C124	C	1.636023	0.302204	0.016573
C125	C	1.144262	-0.185315	-0.372818
C126	C	1.644262	0.314685	0.127182
H127	H	0.721300	-0.372410	-0.475797
H128	H	1.221300	0.127590	0.024203
O129	O	0.912015	-0.823921	-0.933604
O130	O	1.412015	-0.323921	-0.433604
H131	H	0.884621	-0.874482	-0.959194
H132	H	1.384621	-0.374482	-0.459194
H133	H	1.148782	-0.915531	-0.712642
H134	H	1.648782	-0.415531	-0.212642
O135	O	1.205004	-0.871990	-0.660143
O136	O	1.705004	-0.371990	-0.160143
H137	H	1.218995	-0.898151	-0.735736
H138	H	1.718995	-0.398151	-0.235736
H139	H	1.079592	-0.282674	-1.322226
H140	H	1.579592	0.217326	-0.822226
O141	O	0.471391	-0.294471	-0.618116
O142	O	0.971391	0.205529	-0.118116
H143	H	0.464079	-0.332809	-0.548117
H144	H	0.964079	0.167191	-0.048117
H145	H	0.644884	-0.100804	-0.971595
H146	H	1.144884	0.399196	-0.471595
O147	O	0.519601	-0.068030	-1.031466
O148	O	1.019601	0.431970	-0.531466
H149	H	0.582577	-0.064419	-1.038037
H150	H	1.082577	0.435581	-0.538037
O151	O	0.876221	-0.357116	-0.503657
O152	O	1.376221	0.142884	-0.003657
H153	H	0.846813	-0.392045	-0.439917
H154	H	1.346813	0.107955	0.060083
O155	O	1.045763	-0.333636	-1.142163
O156	O	1.545763	0.166364	-0.642163
H157	H	0.986127	-0.328715	-1.106615
H158	H	1.486127	0.171285	-0.606615
H159	H	1.177439	-0.135356	-1.350523
H160	H	1.677439	0.364644	-0.850523
H161	H	0.372722	-0.104638	-0.964692
H162	H	0.872722	0.395362	-0.464692
H163	H	1.085066	-0.536682	-0.771939
H164	H	1.585066	-0.036682	-0.271939
O165	O	0.421657	-0.263445	-0.674781
O166	O	0.921657	0.236555	-0.174781
H167	H	0.448234	-0.321042	-0.684289
H168	H	0.948234	0.178958	-0.184289
O169	O	0.583568	-0.364478	-0.490298
O170	O	1.083568	0.135522	0.009702
H171	H	0.610145	-0.422075	-0.499806
H172	H	1.110145	0.077925	0.000194
O173	O	0.813011	-0.189410	-0.809801
O174	O	1.313011	0.310590	-0.309801
H175	H	0.875988	-0.185801	-0.816378
H176	H	1.375988	0.314199	-0.316378
H177	H	0.742789	-0.161901	-0.860028
H178	H	1.242789	0.338099	-0.360028
H179	H	1.033412	-0.600693	-0.820158
H180	H	1.533412	-0.100693	-0.320158
O181	O	1.321849	-0.628265	-0.550998
O182	O	1.821849	-0.128265	-0.050998
H183	H	1.326542	-0.691236	-0.546669
H184	H	1.826542	-0.191236	-0.046669
O185	O	0.938307	-0.692424	-0.908991
O186	O	1.438307	-0.192424	-0.408991
H187	H	0.948547	-0.713753	-0.988070
H188	H	1.448547	-0.213753	-0.488070
O189	O	0.947912	-0.985055	-0.900192
O190	O	1.447912	-0.485055	-0.400192
H191	H	0.902723	-0.955670	-0.942366
H192	H	1.402723	-0.455670	-0.442366
H193	H	1.279457	-0.753564	-0.590586
H194	H	1.779457	-0.253564	-0.090586
O195	O	1.285953	-0.467139	-0.584396
O196	O	1.785953	0.032861	-0.084396
H197	H	1.331153	-0.496519	-0.542238
H198	H	1.831153	0.003481	-0.042238
O199	O	1.165151	-0.153900	-1.155994
O200	O	1.665151	0.346100	-0.655994
H201	H	1.164869	-0.154348	-1.070763
H202	H	1.664869	0.345652	-0.570763
