data_functionalizedCrystal
_audit_creation_method	'MofGen! by Chris Wilmer'
_symmetry_space_group_name_H-M	'P1'
_symmetry_Int_Tables_number	1
_symmetry_cell_setting	triclinic
loop_
_symmetry_equiv_pos_as_xyz
  x,y,z
_cell_length_a	16.120484
_cell_length_b	16.625548
_cell_length_c	16.625539
_cell_angle_alpha	90.017055
_cell_angle_beta	92.870299
_cell_angle_gamma	87.073374
loop_
_atom_site_label
_atom_site_type_symbol
_atom_site_fract_x
_atom_site_fract_y
_atom_site_fract_z
Zn1	Zn	-0.331898	-1.216358	-0.472168
Zn2	Zn	0.001435	-0.883025	-0.138834
Zn3	Zn	0.334768	-0.549692	0.194499
Zn4	Zn	-0.471318	-1.209425	-0.344164
Zn5	Zn	-0.137985	-0.876092	-0.010831
Zn6	Zn	0.195348	-0.542758	0.322502
Zn7	Zn	-0.331926	-1.081527	-0.337349
Zn8	Zn	0.001408	-0.748194	-0.004016
Zn9	Zn	0.334741	-0.414860	0.329317
Zn10	Zn	-0.471275	-1.074648	-0.478952
Zn11	Zn	-0.137942	-0.741315	-0.145619
Zn12	Zn	0.195392	-0.407981	0.187714
O13	O	-0.401604	-1.145490	-0.408158
O14	O	-0.068271	-0.812156	-0.074825
O15	O	0.265062	-0.478823	0.258508
O16	O	-0.350399	-1.328271	-0.455200
O17	O	-0.017066	-0.994937	-0.121867
O18	O	0.316267	-0.661604	0.211466
O19	O	-0.452857	-1.192436	-0.230429
O20	O	-0.119524	-0.859103	0.102904
O21	O	0.213809	-0.525770	0.436237
O22	O	-0.215256	-1.105193	-0.349542
O23	O	0.118077	-0.771860	-0.016209
O24	O	0.451411	-0.438526	0.317125
O25	O	-0.452831	-1.323177	-0.361157
O26	O	-0.119498	-0.989843	-0.027824
O27	O	0.213836	-0.656510	0.305510
O28	O	-0.215236	-1.204253	-0.448592
O29	O	0.118097	-0.870920	-0.115259
O30	O	0.451431	-0.537586	0.218074
O31	O	-0.350446	-1.098470	-0.225423
O32	O	-0.017113	-0.765137	0.107911
O33	O	0.316221	-0.431804	0.441244
O34	O	-0.350404	-0.967782	-0.356121
O35	O	-0.017070	-0.634449	-0.022787
O36	O	0.316263	-0.301116	0.310546
O37	O	-0.452757	-1.093469	-0.590883
O38	O	-0.119424	-0.760135	-0.257550
O39	O	0.213910	-0.426802	0.075783
O40	O	-0.452783	-0.962728	-0.460156
O41	O	-0.119450	-0.629395	-0.126822
O42	O	0.213883	-0.296062	0.206511
O43	O	-0.350357	-1.197583	-0.585899
O44	O	-0.017024	-0.864249	-0.252565
O45	O	0.316309	-0.530916	0.080768
O46	O	-0.587979	-1.185766	-0.367736
O47	O	-0.254645	-0.852433	-0.034402
O48	O	0.078688	-0.519099	0.298931
O49	O	-0.587947	-1.086746	-0.466764
O50	O	-0.254614	-0.753413	-0.133430
O51	O	0.078720	-0.420079	0.199903
C52	C	-0.401592	-0.935999	-0.408135
C53	C	-0.068259	-0.602666	-0.074802
C54	C	0.265074	-0.269333	0.258531
C55	C	-0.401607	-0.846377	-0.408146
C56	C	-0.068274	-0.513044	-0.074812
C57	C	0.265059	-0.179711	0.258521
C58	C	-0.618213	-1.134779	-0.418743
C59	C	-0.284880	-0.801446	-0.085410
C60	C	0.048454	-0.468112	0.247924
C61	C	-0.710879	-1.130271	-0.423298
C62	C	-0.377546	-0.796937	-0.089965
C63	C	-0.044213	-0.463604	0.243368
C64	C	-0.880541	-1.122045	-0.431631
C65	C	-0.547208	-0.788711	-0.098298
C66	C	-0.213875	-0.455378	0.235036
C67	C	-0.921827	-1.169079	-0.384699
C68	C	-0.588494	-0.835746	-0.051366
C69	C	-0.255160	-0.502412	0.281968
C70	C	-1.016233	-1.164502	-0.389335
C71	C	-0.682899	-0.831169	-0.056002
C72	C	-0.349566	-0.497835	0.277331
C73	C	-0.786127	-1.126621	-0.426996
C74	C	-0.452794	-0.793287	-0.093662
C75	C	-0.119460	-0.459954	0.239671
C76	C	-0.401549	-1.145532	-0.618465
C77	C	-0.068216	-0.812198	-0.285131
C78	C	0.265117	-0.478865	0.048202
C79	C	-0.401526	-1.145550	-0.708085
C80	C	-0.068193	-0.812216	-0.374751
C81	C	0.265141	-0.478883	-0.041418
C82	C	-0.184150	-1.156264	-0.397550
C83	C	0.149184	-0.822931	-0.064217
C84	C	0.482517	-0.489597	0.269117
C85	C	-0.091484	-1.160855	-0.393029
C86	C	0.241850	-0.827522	-0.059696
C87	C	0.575183	-0.494189	0.273637
C88	C	-0.401617	-1.355798	-0.408182
C89	C	-0.068284	-1.022464	-0.074849
C90	C	0.265050	-0.689131	0.258485
C91	C	-0.401622	-1.445419	-0.408192
C92	C	-0.068289	-1.112085	-0.074859
C93	C	0.265044	-0.778752	0.258474
C94	C	-0.401613	-0.518202	-0.408180
C95	C	-0.068280	-0.184868	-0.074847
C96	C	0.265054	0.148465	0.258486
C97	C	-0.401609	-0.609510	-0.408168
C98	C	-0.068276	-0.276177	-0.074835
C99	C	0.265058	0.057157	0.258499
C100	C	-0.401611	-0.682287	-0.408162
C101	C	-0.068277	-0.348953	-0.074829
C102	C	0.265056	-0.015620	0.258504
C103	C	-0.401606	-0.773601	-0.408151
C104	C	-0.068273	-0.440268	-0.074818
C105	C	0.265061	-0.106934	0.258516
C106	C	-0.401507	-1.145564	-0.780866
C107	C	-0.068174	-0.812230	-0.447533
C108	C	0.265159	-0.478897	-0.114200
C109	C	-0.401476	-1.145584	-0.872173
C110	C	-0.068143	-0.812251	-0.538840
C111	C	0.265190	-0.478917	-0.205507
C112	C	-0.401447	-1.145605	-0.944948
C113	C	-0.068114	-0.812271	-0.611615
C114	C	0.265220	-0.478938	-0.278282
C115	C	-0.401417	-1.145626	-1.036261
C116	C	-0.068084	-0.812293	-0.702928
C117	C	0.265250	-0.478959	-0.369595
C118	C	-0.401599	-1.145497	-0.198667
C119	C	-0.068266	-0.812163	0.134666
C120	C	0.265068	-0.478830	0.467999
C121	C	-0.401388	-1.145647	-0.109036
C122	C	-0.068054	-0.812313	0.224297
C123	C	0.265279	-0.478980	0.557630
H124	H	-0.886271	-1.212783	-0.341036
H125	H	-0.552938	-0.879450	-0.007703
H126	H	-0.219605	-0.546117	0.325630
N127	N	-0.925124	-1.067202	-0.486394
N128	N	-0.591791	-0.733869	-0.153060
N129	N	-0.258458	-0.400535	0.180273
N130	N	-0.886367	-1.022968	-0.530517
N131	N	-0.553034	-0.689635	-0.197183
N132	N	-0.219700	-0.356302	0.136150
H133	H	-0.917861	-0.984232	-0.569190
H134	H	-0.584528	-0.650899	-0.235857
H135	H	-0.251195	-0.317566	0.097477
