data_functionalizedCrystal
_audit_creation_method	'MofGen! by Chris Wilmer'
_symmetry_space_group_name_H-M	'P1'
_symmetry_Int_Tables_number	1
_symmetry_cell_setting	triclinic
loop_
_symmetry_equiv_pos_as_xyz
  x,y,z
_cell_length_a	14.628931
_cell_length_b	12.970454
_cell_length_c	12.970454
_cell_angle_alpha	60.000396
_cell_angle_beta	89.999635
_cell_angle_gamma	59.999968
loop_
_atom_site_label
_atom_site_type_symbol
_atom_site_fract_x
_atom_site_fract_y
_atom_site_fract_z
Zr1	Zr	0.880622	1.128511	-0.135292
O2	O	0.734663	1.343599	-0.299913
O3	O	0.925366	0.913422	-0.084828
O4	O	0.925368	1.128510	-0.299916
O5	O	0.734660	1.128512	0.084841
O6	O	1.075800	1.128510	-0.299916
O7	O	0.734661	1.128511	-0.084825
O8	O	1.075796	0.743757	0.084837
O9	O	0.734664	1.513265	-0.299912
O10	O	1.056715	1.001891	-0.063304
O11	O	0.944448	1.001892	0.063316
O12	O	0.944451	1.255130	-0.189922
O13	O	0.832184	1.255131	-0.063301
Zr14	Zr	1.120542	1.128512	0.135306
Zr15	Zr	1.120544	1.128511	-0.135292
Zr16	Zr	0.880620	1.128512	0.135307
Zr17	Zr	0.880623	1.399108	-0.135289
Zr18	Zr	1.120541	0.857914	0.135304
O19	O	1.075798	1.343601	0.084842
O20	O	1.075801	1.343599	-0.299914
O21	O	0.734661	1.343601	0.084843
O22	O	1.266501	0.913424	0.299928
O23	O	1.266503	0.913422	-0.084828
O24	O	0.925364	0.913424	0.299929
O25	O	1.266504	1.128511	-0.084827
O26	O	1.075796	1.128513	0.299930
O27	O	0.925364	1.128513	0.299930
O28	O	1.266503	1.128512	0.084840
O29	O	0.925369	1.513265	-0.299912
O30	O	1.075795	0.743758	0.299927
O31	O	1.266501	0.743758	0.299926
O32	O	1.266502	0.743757	0.084837
O33	O	0.734662	1.513266	-0.084822
O34	O	0.925368	1.513266	-0.084823
O35	O	1.056713	1.001893	0.189936
O36	O	1.168980	1.001892	0.063316
O37	O	1.056716	1.255131	-0.063302
O38	O	0.944449	1.255131	0.063319
C39	C	1.000581	0.790035	0.000004
C40	C	1.000581	0.675159	0.000003
C41	C	0.700477	1.128511	0.000008
C42	C	0.598624	1.128511	0.000008
C43	C	0.553215	1.128511	-0.088822
C44	C	0.447945	1.128511	-0.088823
C45	C	1.300687	1.128511	0.000007
C46	C	1.402540	1.128511	0.000006
C47	C	1.000584	1.128510	-0.338470
C48	C	1.000585	1.128509	-0.453346
C49	C	1.000583	1.466988	0.000010
C50	C	1.000583	1.581863	0.000011
C51	C	1.000580	1.128513	0.338485
C52	C	1.000579	1.128514	0.453361
C53	C	1.300686	0.790035	0.000004
C54	C	1.402539	0.675159	0.000002
C55	C	1.000579	0.790037	0.338482
C56	C	1.000578	0.675162	0.453357
C57	C	1.300684	0.790037	0.338481
C58	C	1.402536	0.675162	0.453356
C59	C	0.700480	1.466986	-0.338467
C60	C	0.598628	1.581861	-0.453342
C61	C	0.700478	1.466988	0.000011
C62	C	0.598625	1.581863	0.000012
C63	C	1.000585	1.466986	-0.338467
C64	C	1.000586	1.581861	-0.453343
C65	C	1.450370	0.527728	0.093477
C66	C	1.546062	0.419775	0.093480
C67	C	1.593925	0.459256	0.000013
C68	C	1.546085	0.606702	-0.093471
C69	C	1.450391	0.714652	-0.093478
C70	C	1.450374	0.527731	0.507301
C71	C	1.546086	0.419777	0.615226
C72	C	1.593952	0.459256	0.669210
C73	C	1.546110	0.606702	0.615255
C74	C	1.450405	0.714653	0.507327
C75	C	0.550798	1.729292	-0.507296
C76	C	0.455108	1.837246	-0.615245
C77	C	0.407245	1.797766	-0.669233
C78	C	0.455084	1.650320	-0.615273
C79	C	0.550777	1.542369	-0.507331
C80	C	0.550792	1.542337	0.093496
C81	C	0.455100	1.650260	0.093523
C82	C	0.407239	1.797709	0.000060
C83	C	0.455081	1.837235	-0.093429
C84	C	0.550775	1.729313	-0.093450
H85	H	0.592275	1.128503	-0.164868
Cl86	Cl	0.462815	1.128523	0.117427
Cl87	Cl	1.390217	0.478057	0.210990
H88	H	0.589753	1.761466	-0.463350
Cl89	Cl	0.538333	1.128501	0.117434
H90	H	0.416098	1.618194	-0.659245
H91	H	0.408892	1.128518	-0.164878
H92	H	1.585001	0.299726	0.169609
H93	H	1.411413	0.495558	0.463362
Cl94	Cl	1.714230	0.323527	0.000042
Cl95	Cl	1.606206	0.234430	0.683037
H96	H	1.411457	0.834696	-0.169595
H97	H	1.585070	0.638828	-0.169570
Cl98	Cl	0.286941	1.933495	-0.804930
H99	H	0.589708	1.422325	-0.463404
Cl100	Cl	1.714267	0.323526	0.804896
Cl101	Cl	1.606294	0.656310	0.683142
H102	H	1.411459	0.834697	0.463417
H103	H	0.416169	1.957295	-0.659162
H104	H	0.589745	1.422283	0.169604
H105	H	0.416159	1.618048	0.169653
Cl106	Cl	0.286934	1.933366	0.000102
Cl107	Cl	0.394894	2.022607	-0.210922
Cl108	Cl	0.610890	1.779030	-0.210993
