data_functionalizedCrystal
_audit_creation_method	'MofGen! by Chris Wilmer'
_symmetry_space_group_name_H-M	'P1'
_symmetry_Int_Tables_number	1
_symmetry_cell_setting	triclinic
loop_
_symmetry_equiv_pos_as_xyz
  x,y,z
_cell_length_a	19.077142
_cell_length_b	19.805406
_cell_length_c	19.805399
_cell_angle_alpha	89.985648
_cell_angle_beta	92.317588
_cell_angle_gamma	92.304021
loop_
_atom_site_label
_atom_site_type_symbol
_atom_site_fract_x
_atom_site_fract_y
_atom_site_fract_z
Zn1	Zn	-1.076116	-0.311139	-0.424334
Zn2	Zn	-0.826116	-0.061139	-0.174334
Zn3	Zn	-0.576116	0.188861	0.075666
Zn4	Zn	-0.326116	0.438861	0.325666
Zn5	Zn	-1.076082	-0.424326	-0.311171
Zn6	Zn	-0.826082	-0.174326	-0.061171
Zn7	Zn	-0.576082	0.075674	0.188829
Zn8	Zn	-0.326082	0.325674	0.438829
Zn9	Zn	-0.958418	-0.306601	-0.306614
Zn10	Zn	-0.708418	-0.056601	-0.056614
Zn11	Zn	-0.458418	0.193399	0.193386
Zn12	Zn	-0.208418	0.443399	0.443386
Zn13	Zn	-0.958435	-0.419735	-0.419775
Zn14	Zn	-0.708435	-0.169735	-0.169775
Zn15	Zn	-0.458435	0.080265	0.080225
Zn16	Zn	-0.208435	0.330265	0.330225
O17	O	-1.017263	-0.365450	-0.365474
O18	O	-0.767263	-0.115450	-0.115474
O19	O	-0.517263	0.134550	0.134526
O20	O	-0.267263	0.384550	0.384526
O21	O	-1.174604	-0.329974	-0.413138
O22	O	-0.924604	-0.079974	-0.163138
O23	O	-0.674604	0.170026	0.086862
O24	O	-0.424604	0.420026	0.336862
O25	O	-1.060452	-0.408732	-0.215849
O26	O	-0.810452	-0.158732	0.034151
O27	O	-0.560452	0.091268	0.284151
O28	O	-0.310452	0.341268	0.534151
O29	O	-0.974039	-0.212487	-0.322231
O30	O	-0.724039	0.037513	-0.072231
O31	O	-0.474039	0.287513	0.177769
O32	O	-0.224039	0.537513	0.427769
O33	O	-1.174579	-0.413132	-0.329997
O34	O	-0.924579	-0.163132	-0.079997
O35	O	-0.674579	0.086868	0.170003
O36	O	-0.424579	0.336868	0.420003
O37	O	-1.060511	-0.215821	-0.408720
O38	O	-0.810511	0.034179	-0.158720
O39	O	-0.560511	0.284179	0.091280
O40	O	-0.310511	0.534179	0.341280
O41	O	-0.974005	-0.322240	-0.212501
O42	O	-0.724005	-0.072240	0.037499
O43	O	-0.474005	0.177760	0.287499
O44	O	-0.224005	0.427760	0.537499
O45	O	-0.859928	-0.317788	-0.317810
O46	O	-0.609928	-0.067788	-0.067810
O47	O	-0.359928	0.182212	0.182190
O48	O	-0.109928	0.432212	0.432190
O49	O	-0.974067	-0.405308	-0.515097
O50	O	-0.724067	-0.155308	-0.265097
O51	O	-0.474067	0.094692	-0.015097
O52	O	-0.224067	0.344692	0.234903
O53	O	-0.859940	-0.400908	-0.400949
O54	O	-0.609940	-0.150908	-0.150949
O55	O	-0.359940	0.099092	0.099051
O56	O	-0.109940	0.349092	0.349051
O57	O	-1.060526	-0.325522	-0.518447
O58	O	-0.810526	-0.075522	-0.268447
O59	O	-0.560526	0.174478	-0.018447
O60	O	-0.310526	0.424478	0.231553
O61	O	-1.060468	-0.518433	-0.325576
O62	O	-0.810468	-0.268433	-0.075576
O63	O	-0.560468	-0.018433	0.174424
O64	O	-0.310468	0.231567	0.424424
O65	O	-0.974033	-0.515061	-0.405367
O66	O	-0.724033	-0.265061	-0.155367
O67	O	-0.474033	-0.015061	0.094633
O68	O	-0.224033	0.234939	0.344633
C69	C	-0.834396	-0.358358	-0.358391
C70	C	-0.584396	-0.108358	-0.108391
C71	C	-0.334396	0.141642	0.141609
C72	C	-0.084396	0.391642	0.391609
C73	C	-0.756165	-0.355340	-0.355377
C74	C	-0.506165	-0.105340	-0.105377
C75	C	-0.256165	0.144660	0.144623
C76	C	-0.006165	0.394660	0.394623
C77	C	-1.017268	-0.541307	-0.365487
C78	C	-0.767268	-0.291307	-0.115487
C79	C	-0.517268	-0.041307	0.134513
C80	C	-0.267268	0.208693	0.384513
C81	C	-1.017335	-0.616541	-0.365518
C82	C	-0.767335	-0.366541	-0.115518
C83	C	-0.517335	-0.116541	0.134482
C84	C	-0.267335	0.133459	0.384482
C85	C	-1.017302	-0.365409	-0.542018
C86	C	-0.767302	-0.115409	-0.292018
C87	C	-0.517302	0.134591	-0.042018
C88	C	-0.267302	0.384591	0.207982
C89	C	-1.017319	-0.365392	-0.617251
C90	C	-0.767319	-0.115392	-0.367251
C91	C	-0.517319	0.134608	-0.117251
C92	C	-0.267319	0.384608	0.132749
C93	C	-0.719436	-0.397263	-0.397178
C94	C	-0.469436	-0.147263	-0.147178
C95	C	-0.219436	0.102737	0.102822
C96	C	0.030564	0.352737	0.352822
C97	C	-0.645930	-0.394419	-0.394350
C98	C	-0.395930	-0.144419	-0.144350
C99	C	-0.145930	0.105581	0.105650
C100	C	0.104070	0.355581	0.355650
C101	C	-0.609153	-0.349654	-0.349715
C102	C	-0.359153	-0.099654	-0.099715
C103	C	-0.109153	0.150346	0.150285
C104	C	0.140847	0.400346	0.400285
C105	C	-0.645887	-0.307726	-0.307912
C106	C	-0.395887	-0.057726	-0.057912
C107	C	-0.145887	0.192274	0.192088
C108	C	0.104113	0.442274	0.442088
C109	C	-0.719392	-0.310568	-0.310744
C110	C	-0.469392	-0.060568	-0.060744
C111	C	-0.219392	0.189432	0.189256
C112	C	0.030608	0.439432	0.439256
C113	C	-0.389313	-0.336505	-0.336612
C114	C	-0.139313	-0.086505	-0.086612
C115	C	0.110687	0.163495	0.163388
C116	C	0.360687	0.413495	0.413388
C117	C	-0.315803	-0.333668	-0.333781
C118	C	-0.065803	-0.083668	-0.083781
C119	C	0.184197	0.166332	0.166219
C120	C	0.434197	0.416332	0.416219
C121	C	-0.315851	-0.420360	-0.420220
C122	C	-0.065851	-0.170360	-0.170220
C123	C	0.184149	0.079640	0.079780
C124	C	0.434149	0.329640	0.329780
C125	C	-0.389358	-0.423200	-0.423046
C126	C	-0.139358	-0.173200	-0.173046
C127	C	0.110642	0.076800	0.076954
C128	C	0.360642	0.326800	0.326954
C129	C	-0.426085	-0.381270	-0.381245
C130	C	-0.176085	-0.131270	-0.131245
C131	C	0.073915	0.118730	0.118755
C132	C	0.323915	0.368730	0.368755
N133	N	-0.534018	-0.346747	-0.346821
N134	N	-0.284018	-0.096747	-0.096821
N135	N	-0.034018	0.153253	0.153179
N136	N	0.215982	0.403253	0.403179
N137	N	-0.501219	-0.384174	-0.384143
N138	N	-0.251219	-0.134174	-0.134143
N139	N	-0.001219	0.115826	0.115857
N140	N	0.248781	0.365826	0.365857
C141	C	-0.200843	-0.372567	-0.372577
C142	C	0.049157	-0.122567	-0.122577
C143	C	0.299157	0.127433	0.127423
C144	C	0.549157	0.377433	0.377423
C145	C	-0.279075	-0.375591	-0.375583
C146	C	-0.029075	-0.125591	-0.125583
C147	C	0.220925	0.124409	0.124417
C148	C	0.470925	0.374409	0.374417
C149	C	-1.017277	-0.188908	-0.365476
C150	C	-0.767277	0.061092	-0.115476
C151	C	-0.517277	0.311092	0.134524
C152	C	-0.267277	0.561092	0.384524
C153	C	-1.017283	-0.113676	-0.365477
C154	C	-0.767283	0.136324	-0.115477
C155	C	-0.517283	0.386324	0.134523
C156	C	-0.267283	0.636324	0.384523
C157	C	-0.972267	-0.076596	-0.320449
C158	C	-0.722267	0.173404	-0.070449
C159	C	-0.472267	0.423404	0.179551
C160	C	-0.222267	0.673404	0.429551
C161	C	-0.972271	-0.005907	-0.320456
C162	C	-0.722271	0.244093	-0.070456
C163	C	-0.472271	0.494093	0.179544
C164	C	-0.222271	0.744093	0.429544
C165	C	-1.017296	0.027699	-0.365489
C166	C	-0.767296	0.277699	-0.115489
C167	C	-0.517296	0.527699	0.134511
C168	C	-0.267296	0.777699	0.384511
C169	C	-1.062313	-0.009387	-0.410522
C170	C	-0.812313	0.240613	-0.160522
C171	C	-0.562313	0.490613	0.089478
C172	C	-0.312313	0.740613	0.339478
C173	C	-1.062305	-0.080074	-0.410517
C174	C	-0.812305	0.169926	-0.160517
C175	C	-0.562305	0.419926	0.089483
C176	C	-0.312305	0.669926	0.339483
C177	C	-1.062348	0.275685	-0.410543
C178	C	-0.812348	0.525685	-0.160543
C179	C	-0.562348	0.775685	0.089457
C180	C	-0.312348	1.025685	0.339457
C181	C	-1.062354	0.346377	-0.410543
C182	C	-0.812354	0.596377	-0.160543
C183	C	-0.562354	0.846377	0.089457
C184	C	-0.312354	1.096377	0.339457
C185	C	-0.972314	0.349851	-0.320482
C186	C	-0.722314	0.599851	-0.070482
C187	C	-0.472314	0.849851	0.179518
C188	C	-0.222314	1.099851	0.429518
C189	C	-0.972306	0.279165	-0.320477
C190	C	-0.722306	0.529165	-0.070477
C191	C	-0.472306	0.779165	0.179523
C192	C	-0.222306	1.029165	0.429523
C193	C	-1.017321	0.242085	-0.365512
C194	C	-0.767321	0.492085	-0.115512
C195	C	-0.517321	0.742085	0.134488
C196	C	-0.267321	0.992085	0.384488
C197	C	-1.017314	0.165437	-0.365504
C198	C	-0.767314	0.415437	-0.115504
C199	C	-0.517314	0.665437	0.134496
C200	C	-0.267314	0.915437	0.384496
C201	C	-1.017306	0.104345	-0.365494
C202	C	-0.767306	0.354345	-0.115494
C203	C	-0.517306	0.604345	0.134506
C204	C	-0.267306	0.854345	0.384506
C205	C	-1.062340	-0.323845	-0.654340
C206	C	-0.812340	-0.073845	-0.404340
C207	C	-0.562340	0.176155	-0.154340
C208	C	-0.312340	0.426155	0.095660
C209	C	-1.062347	-0.323826	-0.725029
C210	C	-0.812347	-0.073826	-0.475029
C211	C	-0.562347	0.176174	-0.225029
C212	C	-0.312347	0.426174	0.024971
C213	C	-1.017336	-0.365357	-0.758627
C214	C	-0.767336	-0.115357	-0.508627
C215	C	-0.517336	0.134643	-0.258627
C216	C	-0.267336	0.384643	-0.008627
C217	C	-0.972311	-0.406905	-0.721532
C218	C	-0.722311	-0.156905	-0.471532
C219	C	-0.472311	0.093095	-0.221532
C220	C	-0.222311	0.343095	0.028468
C221	C	-0.972301	-0.406920	-0.650845
C222	C	-0.722301	-0.156920	-0.400845
C223	C	-0.472301	0.093080	-0.150845
C224	C	-0.222301	0.343080	0.099155
C225	C	-0.972350	-0.406844	-1.006607
C226	C	-0.722350	-0.156844	-0.756607
C227	C	-0.472350	0.093156	-0.506607
C228	C	-0.222350	0.343156	-0.256607
C229	C	-0.972366	-0.406827	-1.077300
C230	C	-0.722366	-0.156827	-0.827300
C231	C	-0.472366	0.093173	-0.577300
C232	C	-0.222366	0.343173	-0.327300
C233	C	-1.062397	-0.323749	-1.080791
C234	C	-0.812397	-0.073749	-0.830791
C235	C	-0.562397	0.176251	-0.580791
C236	C	-0.312397	0.426251	-0.330791
C237	C	-1.062387	-0.323764	-1.010104
C238	C	-0.812387	-0.073764	-0.760104
C239	C	-0.562387	0.176236	-0.510104
C240	C	-0.312387	0.426236	-0.260104
C241	C	-1.017359	-0.365310	-0.973015
C242	C	-0.767359	-0.115310	-0.723015
C243	C	-0.517359	0.134690	-0.473015
C244	C	-0.267359	0.384690	-0.223015
C245	C	-1.017350	-0.365329	-0.896366
C246	C	-0.767350	-0.115329	-0.646366
C247	C	-0.517350	0.134671	-0.396366
C248	C	-0.267350	0.384671	-0.146366
C249	C	-1.017348	-0.365342	-0.835275
C250	C	-0.767348	-0.115342	-0.585275
C251	C	-0.517348	0.134658	-0.335275
C252	C	-0.267348	0.384658	-0.085275
C253	C	-1.017264	-0.365444	-0.189618
C254	C	-0.767264	-0.115444	0.060382
C255	C	-0.517264	0.134556	0.310382
C256	C	-0.267264	0.384556	0.560382
C257	C	-1.017383	-0.365276	-0.114391
C258	C	-0.767383	-0.115276	0.135609
C259	C	-0.517383	0.134724	0.385609
C260	C	-0.267383	0.384724	0.635609
H261	H	-0.749375	-0.433718	-0.433522
H262	H	-0.499375	-0.183718	-0.183522
H263	H	-0.249375	0.066282	0.066478
H264	H	0.000625	0.316282	0.316478
Br265	Br	-0.769239	-0.253666	-0.254015
Br266	Br	-0.519239	-0.003666	-0.004015
Br267	Br	-0.269239	0.246334	0.245985
Br268	Br	-0.019239	0.496334	0.495985
Br269	Br	-0.595976	-0.246967	-0.247342
Br270	Br	-0.345976	0.003033	0.002658
Br271	Br	-0.095976	0.253033	0.252658
Br272	Br	0.154024	0.503033	0.502658
H273	H	-1.098956	-0.110264	-0.447188
H274	H	-0.848956	0.139736	-0.197188
H275	H	-0.598956	0.389736	0.052812
H276	H	-0.348956	0.639736	0.302812
Br277	Br	-0.911165	-0.122197	-0.259324
Br278	Br	-0.661165	0.127803	-0.009324
Br279	Br	-0.411165	0.377803	0.240676
Br280	Br	-0.161165	0.627803	0.490676
Br281	Br	-1.123482	-0.267472	-0.775364
Br282	Br	-0.873482	-0.017472	-0.525364
Br283	Br	-0.623482	0.232528	-0.275364
Br284	Br	-0.373482	0.482528	-0.025364
H285	H	-0.935616	0.024284	-0.283792
H286	H	-0.685616	0.274284	-0.033792
H287	H	-0.435616	0.524284	0.216208
H288	H	-0.185616	0.774284	0.466208
H289	H	-1.099020	0.373737	-0.447217
H290	H	-0.849020	0.623737	-0.197217
H291	H	-0.599020	0.873737	0.052783
H292	H	-0.349020	1.123737	0.302783
H293	H	-0.935645	0.251806	-0.283805
H294	H	-0.685645	0.501806	-0.033805
H295	H	-0.435645	0.751806	0.216195
H296	H	-0.185645	1.001806	0.466195
H297	H	-0.419296	-0.459654	-0.459391
H298	H	-0.169296	-0.209654	-0.209391
H299	H	0.080704	0.040346	0.040609
H300	H	0.330704	0.290346	0.290609
Br301	Br	-0.266004	-0.477265	-0.476944
Br302	Br	-0.016004	-0.227265	-0.226944
Br303	Br	0.233996	0.022735	0.023056
Br304	Br	0.483996	0.272735	0.273056
H305	H	-1.098970	0.017979	-0.447192
H306	H	-0.848970	0.267979	-0.197192
H307	H	-0.598970	0.517979	0.052808
H308	H	-0.348970	0.767979	0.302808
H309	H	-0.419208	-0.302367	-0.302570
H310	H	-0.169208	-0.052367	-0.052570
H311	H	0.080792	0.197633	0.197430
H312	H	0.330792	0.447633	0.447430
H313	H	-0.935658	0.380049	-0.283814
H314	H	-0.685658	0.630049	-0.033814
H315	H	-0.435658	0.880049	0.216186
H316	H	-0.185658	1.130049	0.466186
Br317	Br	-1.123434	-0.267484	-0.608750
Br318	Br	-0.873434	-0.017484	-0.358750
Br319	Br	-0.623434	0.232516	-0.108750
Br320	Br	-0.373434	0.482516	0.141250
Br321	Br	-1.123431	0.225372	-0.471670
Br322	Br	-0.873431	0.475372	-0.221670
Br323	Br	-0.623431	0.725372	0.028330
Br324	Br	-0.373431	0.975372	0.278330
Br325	Br	-1.123478	-0.267403	-0.964510
Br326	Br	-0.873478	-0.017403	-0.714510
Br327	Br	-0.623478	0.232597	-0.464510
Br328	Br	-0.373478	0.482597	-0.214510
Br329	Br	-0.911240	-0.463225	-0.956281
Br330	Br	-0.661240	-0.213225	-0.706281
Br331	Br	-0.411240	0.036775	-0.456281
Br332	Br	-0.161240	0.286775	-0.206281
H333	H	-1.099058	-0.289919	-1.110997
H334	H	-0.849058	-0.039919	-0.860997
H335	H	-0.599058	0.210081	-0.610997
H336	H	-0.349058	0.460081	-0.360997
Br337	Br	-0.911277	-0.463195	-1.122897
Br338	Br	-0.661277	-0.213195	-0.872897
Br339	Br	-0.411277	0.036805	-0.622897
Br340	Br	-0.161277	0.286805	-0.372897
H341	H	-0.935633	-0.440745	-0.620647
H342	H	-0.685633	-0.190745	-0.370647
H343	H	-0.435633	0.059255	-0.120647
H344	H	-0.185633	0.309255	0.129353
Br345	Br	-0.596086	-0.451316	-0.451085
Br346	Br	-0.346086	-0.201316	-0.201085
Br347	Br	-0.096086	0.048684	0.048915
Br348	Br	0.153914	0.298684	0.298915
Br349	Br	-0.265892	-0.272919	-0.273194
Br350	Br	-0.015892	-0.022919	-0.023194
Br351	Br	0.234108	0.227081	0.226806
Br352	Br	0.484108	0.477081	0.476806
Br353	Br	-0.911220	-0.463265	-0.767129
Br354	Br	-0.661220	-0.213265	-0.517129
Br355	Br	-0.411220	0.036735	-0.267129
Br356	Br	-0.161220	0.286735	-0.017129
