data_functionalizedCrystal
_audit_creation_method	'MofGen! by Chris Wilmer'
_symmetry_space_group_name_H-M	'P1'
_symmetry_Int_Tables_number	1
_symmetry_cell_setting	triclinic
loop_
_symmetry_equiv_pos_as_xyz
  x,y,z
_cell_length_a	9.065218
_cell_length_b	11.026607
_cell_length_c	7.540329
_cell_angle_alpha	89.998289
_cell_angle_beta	89.996962
_cell_angle_gamma	96.800951
loop_
_atom_site_label
_atom_site_type_symbol
_atom_site_fract_x
_atom_site_fract_y
_atom_site_fract_z
O1	O	2.004900	0.178453	-0.147482
O2	O	1.579265	0.193091	-0.147484
O3	O	1.756807	0.008731	-0.147476
O4	O	1.827359	0.362813	-0.147489
O5	O	1.756792	0.008729	0.147489
O6	O	1.579251	0.193088	0.147481
O7	O	2.004886	0.178451	0.147483
Cu8	Cu	1.792067	0.185769	0.174415
Cu9	Cu	1.792084	0.185772	-0.174415
O10	O	1.827345	0.362810	0.147476
C11	C	1.523921	0.191683	-0.000002
C12	C	1.359029	0.187476	-0.000002
C13	C	1.743784	-0.036624	0.000004
C14	C	1.704984	-0.171765	-0.000003
C15	C	1.812117	-0.244393	-0.000005
C16	C	1.772018	-0.384068	-0.000011
C17	C	2.060230	0.179859	-0.000003
C18	C	2.225122	0.184065	-0.000014
C19	C	1.840368	0.408165	-0.000008
C20	C	1.879168	0.543306	-0.000013
N21	N	1.792066	0.185767	0.419763
N22	N	1.792094	0.185765	-0.419764
H23	H	1.650603	-0.425288	-0.000024
O24	O	2.024072	-0.407674	0.000227
C25	C	2.094875	-0.446524	0.153016
H26	H	2.031301	-0.535070	0.203944
H27	H	2.213459	-0.462654	0.118661
H28	H	2.097119	-0.373267	0.259989
O29	O	1.560119	-0.220876	-0.000323
C30	C	1.489298	-0.181972	-0.153063
H31	H	1.575910	-0.154591	-0.259834
H32	H	1.406043	-0.259643	-0.204349
H33	H	1.428673	-0.100226	-0.118519
O34	O	1.956885	-0.195022	0.000077
C35	C	1.964693	-0.066554	0.000035
H36	H	1.857076	-0.038140	0.055876
H37	H	2.062118	-0.026519	0.085673
H38	H	1.981200	-0.031122	-0.141474
