data_functionalizedCrystal
_audit_creation_method	'MofGen! by Chris Wilmer'
_symmetry_space_group_name_H-M	'P1'
_symmetry_Int_Tables_number	1
_symmetry_cell_setting	triclinic
loop_
_symmetry_equiv_pos_as_xyz
  x,y,z
_cell_length_a	6.817900
_cell_length_b	17.982783
_cell_length_c	16.255661
_cell_angle_alpha	95.649221
_cell_angle_beta	103.488922
_cell_angle_gamma	102.448572
loop_
_atom_site_label
_atom_site_type_symbol
_atom_site_fract_x
_atom_site_fract_y
_atom_site_fract_z
V1	V	-4.021529	-0.106028	-0.264224
O2	O	-4.014408	0.004462	-0.258833
O3	O	-3.968017	-0.209627	-0.262765
O4	O	-3.973157	-0.104675	-0.379303
O5	O	-4.009233	-0.101217	-0.141488
V6	V	-4.505816	-0.092779	-0.249502
O7	O	-4.281112	-0.135090	-0.296519
O8	O	-4.696430	-0.063717	-0.217207
O9	O	-4.336122	0.010819	-0.250961
O10	O	-4.630334	-0.203269	-0.254893
O11	O	-4.635509	-0.097591	-0.372238
O12	O	-4.330981	-0.094133	-0.134423
C13	C	-3.811773	-0.234874	-0.258686
C14	C	-3.849308	-0.319569	-0.258260
C15	C	-3.827256	-0.348297	-0.180521
C16	C	-3.862543	-0.427878	-0.180124
C17	C	-3.919868	-0.478729	-0.257466
C18	C	-3.941927	-0.449995	-0.335211
C19	C	-3.906654	-0.370416	-0.335608
C20	C	-4.084182	-0.770930	-0.333612
C21	C	-4.119448	-0.850514	-0.333209
C22	C	-4.040071	-0.828392	-0.178128
C23	C	-4.004798	-0.748812	-0.178525
C24	C	-4.026870	-0.720086	-0.256270
C25	C	-3.988611	-0.633796	-0.256700
C26	C	-3.958113	-0.565018	-0.257036
C27	C	-3.818329	-0.100996	-0.407341
C28	C	-3.860030	-0.100575	-0.501421
C29	C	-3.770832	-0.095549	-0.724223
C30	C	-3.924077	-0.160419	-0.793915
C31	C	-3.936453	-0.099786	-0.673667
C32	C	-3.857534	-0.034174	-0.771610
C33	C	-4.010258	-0.099021	-0.840048
C34	C	-4.089177	-0.164714	-0.742130
C35	C	-4.022575	-0.038412	-0.719808
C36	C	-4.175956	-0.103300	-0.789481
C37	C	-3.893930	-0.100228	-0.577819
C38	C	-4.052798	-0.098585	-0.935895
C39	C	-4.155707	0.036062	-0.255038
C40	C	-4.097411	0.120756	-0.255469
C41	C	-4.149151	-0.097814	-0.106381
C42	C	-4.086690	-0.098231	-0.012300
H43	H	-3.844589	-0.451265	-0.116821
C44	C	-4.078113	0.031274	-0.676187
C45	C	-3.965558	0.113757	-0.682203
C46	C	-4.021070	0.183450	-0.638577
C47	C	-4.189136	0.170660	-0.588935
C48	C	-4.301702	0.088173	-0.582916
C49	C	-4.246190	0.018480	-0.626543
H50	H	-3.841136	0.123228	-0.718954
H51	H	-3.937741	0.244512	-0.643032
H52	H	-4.230229	0.222251	-0.556640
H53	H	-4.426124	0.078702	-0.546166
H54	H	-4.329519	-0.042582	-0.622087
H55	H	-3.780562	-0.306899	-0.117540
C56	C	-4.004947	-0.505935	-0.420284
C57	C	-3.859503	-0.500406	-0.480261
C58	C	-3.922498	-0.556346	-0.565333
C59	C	-4.130939	-0.617814	-0.590428
C60	C	-4.276397	-0.623345	-0.530449
C61	C	-4.213401	-0.567405	-0.445377
H62	H	-3.705191	-0.454901	-0.461685
H63	H	-3.814820	-0.552251	-0.609733
H64	H	-4.177572	-0.659224	-0.653404
H65	H	-4.430709	-0.668850	-0.549025
H66	H	-4.321080	-0.571500	-0.400977
C67	C	-3.930907	-0.338812	-0.421122
C68	C	-4.090885	-0.290853	-0.446756
C69	C	-4.115152	-0.259251	-0.532274
C70	C	-3.979441	-0.275609	-0.592157
C71	C	-3.819453	-0.323571	-0.566525
C72	C	-3.795185	-0.355173	-0.481007
H73	H	-4.191356	-0.278741	-0.402426
H74	H	-4.233587	-0.223746	-0.551248
H75	H	-3.997405	-0.252215	-0.655463
H76	H	-3.718982	-0.335682	-0.610855
H77	H	-3.676751	-0.390678	-0.462032
C78	C	-3.725783	0.040359	-0.789707
C79	C	-3.486578	0.058762	-0.759794
C80	C	-3.354812	0.133290	-0.777889
C81	C	-3.462251	0.189416	-0.825897
C82	C	-3.701469	0.171015	-0.855812
C83	C	-3.833235	0.096487	-0.837717
H84	H	-3.407034	0.017213	-0.724254
H85	H	-3.177727	0.146911	-0.755744
H86	H	-3.364710	0.244586	-0.839292
H87	H	-3.781013	0.212564	-0.891352
H88	H	-4.010320	0.082865	-0.859862
H89	H	-3.882883	-0.212002	-0.826173
C90	C	-3.941745	-0.692878	-0.093448
C91	C	-3.917501	-0.724478	-0.007934
C92	C	-3.854457	-0.668544	0.077144
C93	C	-3.815657	-0.581010	0.076709
C94	C	-3.839901	-0.549405	-0.008808
C95	C	-3.902945	-0.605339	-0.093886
H96	H	-3.946223	-0.789280	-0.007609
H97	H	-3.836510	-0.691941	0.140449
H98	H	-3.768988	-0.539604	0.139689
H99	H	-3.811178	-0.484603	-0.009132
H100	H	-3.920891	-0.581942	-0.157191
H101	H	-4.022110	-0.851790	-0.114825
H102	H	-4.166130	-0.891916	-0.396194
C103	C	-4.220912	-0.239329	-0.724195
C104	C	-4.368111	-0.299728	-0.799179
C105	C	-4.499832	-0.374344	-0.781242
C106	C	-4.484355	-0.388560	-0.688321
C107	C	-4.337149	-0.328159	-0.613330
C108	C	-4.205428	-0.253544	-0.631267
H109	H	-4.379574	-0.289206	-0.867971
H110	H	-4.608804	-0.419056	-0.836756
H111	H	-4.581863	-0.443794	-0.675043
H112	H	-4.325686	-0.338681	-0.544539
H113	H	-4.096456	-0.208831	-0.575754
H114	H	-4.102130	-0.747551	-0.396916
H115	H	-4.347667	-0.106595	-0.817839
H116	H	-3.599234	-0.092356	-0.695732
