data_functionalizedCrystal
_audit_creation_method	'MofGen! by Chris Wilmer'
_symmetry_space_group_name_H-M	'P1'
_symmetry_Int_Tables_number	1
_symmetry_cell_setting	triclinic
loop_
_symmetry_equiv_pos_as_xyz
  x,y,z
_cell_length_a	21.295417
_cell_length_b	18.215407
_cell_length_c	18.215399
_cell_angle_alpha	90.017777
_cell_angle_beta	89.967848
_cell_angle_gamma	89.973873
loop_
_atom_site_label
_atom_site_type_symbol
_atom_site_fract_x
_atom_site_fract_y
_atom_site_fract_z
Zn1	Zn	-0.250689	-1.125043	-0.416054
Zn2	Zn	-0.355960	-1.124939	-0.292979
Zn3	Zn	-0.250701	-1.001976	-0.293006
Zn4	Zn	-0.355916	-1.001930	-0.416008
O5	O	-0.303317	-1.063472	-0.354512
O6	O	-0.264667	-1.228014	-0.399736
O7	O	-0.342021	-1.108604	-0.189998
O8	O	-0.162610	-1.018364	-0.309359
O9	O	-0.342009	-1.227937	-0.309313
O10	O	-0.162601	-1.108781	-0.399762
O11	O	-0.264687	-1.018263	-0.190018
O12	O	-0.264645	-0.898985	-0.309314
O13	O	-0.341935	-1.018285	-0.518998
O14	O	-0.341946	-0.898951	-0.399684
O15	O	-0.264625	-1.108736	-0.519032
O16	O	-0.444044	-1.108559	-0.309268
O17	O	-0.444012	-1.018184	-0.399657
C18	C	-0.303292	-0.872266	-0.354497
C19	C	-0.303297	-0.790467	-0.354509
C20	C	-0.263103	-0.602312	-0.401665
C21	C	-0.263106	-0.525453	-0.401667
C22	C	-0.343521	-0.525384	-0.307364
C23	C	-0.343515	-0.602242	-0.307359
C24	C	-0.303306	-0.640703	-0.354514
C25	C	-0.303316	-0.486987	-0.354521
C26	C	-0.303320	-0.403654	-0.354522
C27	C	-0.303301	-0.724042	-0.354511
C28	C	-0.466868	-1.063375	-0.354471
C29	C	-0.536836	-1.063402	-0.354478
C30	C	-0.569699	-1.110502	-0.307461
C31	C	-0.635442	-1.110536	-0.307477
C32	C	-0.668319	-1.063457	-0.354503
C33	C	-0.635449	-1.016354	-0.401530
C34	C	-0.569707	-1.016326	-0.401517
N35	N	-0.771581	-0.999079	-0.360109
N36	N	-0.834032	-0.999107	-0.360117
C37	C	-0.866394	-1.063540	-0.354546
N38	N	-0.833945	-1.127944	-0.348952
N39	N	-0.771488	-1.127915	-0.348940
C40	C	-0.739604	-1.063483	-0.354523
C41	C	-0.970542	-1.110681	-0.307544
C42	C	-1.036285	-1.110717	-0.307565
C43	C	-1.036291	-1.016528	-0.401614
C44	C	-0.970549	-1.016499	-0.401596
C45	C	-0.937678	-1.063575	-0.354557
C46	C	-0.139126	-1.063589	-0.354569
C47	C	-0.069158	-1.063639	-0.354593
C48	C	-0.303273	-1.063517	-0.546465
C49	C	-0.303255	-1.063536	-0.628264
C50	C	-0.303335	-0.255425	-0.354525
C51	C	-0.303325	-0.337224	-0.354525
C52	C	-0.262962	-1.110651	-0.816476
C53	C	-0.262944	-1.110659	-0.893335
C54	C	-0.343450	-1.016473	-0.893289
C55	C	-0.343465	-1.016461	-0.816431
C56	C	-0.303222	-1.063554	-0.778027
C57	C	-0.303189	-1.063575	-0.931743
C58	C	-0.303169	-1.063584	-1.015077
C59	C	-0.303240	-1.063544	-0.694688
C60	C	-0.303315	-1.063470	-0.163305
C61	C	-0.303156	-1.063593	-0.081507
H62	H	-0.230367	-0.494198	-0.440061
O63	O	-0.224074	-0.639594	-0.447567
C64	C	-0.193672	-0.663201	-0.572815
C65	C	-0.237904	-0.620924	-0.520914
H66	H	-0.204847	-0.648134	-0.632128
H67	H	-0.142891	-0.648092	-0.560059
H68	H	-0.200563	-0.724725	-0.564677
H69	H	-0.231069	-0.559390	-0.529024
H70	H	-0.288669	-0.636094	-0.533683
O71	O	-1.068288	-0.970899	-0.447335
C72	C	-1.142423	-0.960980	-0.546736
C73	C	-1.106233	-1.012735	-0.494987
H74	H	-1.173100	-0.994785	-0.585286
H75	H	-1.173294	-0.922543	-0.512965
H76	H	-1.107625	-0.927293	-0.580303
H77	H	-1.140985	-1.046471	-0.461409
H78	H	-1.075353	-1.051124	-0.528800
O79	O	-0.382631	-0.639427	-0.261530
C80	C	-0.462366	-0.631255	-0.167963
C81	C	-0.418115	-0.589052	-0.219838
H82	H	-0.491057	-0.590545	-0.134230
H83	H	-0.495355	-0.667218	-0.201644
H84	H	-0.433408	-0.667254	-0.129575
H85	H	-0.447022	-0.553013	-0.258237
H86	H	-0.385124	-0.553135	-0.186112
H87	H	-0.376258	-0.494060	-0.268973
O88	O	-0.537867	-1.156306	-0.261752
C89	C	-0.544802	-1.249701	-0.168444
C90	C	-0.580932	-1.197875	-0.220180
H91	H	-0.579604	-1.283312	-0.134808
H92	H	-0.513996	-1.288199	-0.202227
H93	H	-0.514051	-1.215915	-0.129958
H94	H	-0.611717	-1.231602	-0.258676
H95	H	-0.611698	-1.159374	-0.186351
H96	H	-0.662203	-1.148893	-0.269190
O97	O	-0.382632	-0.970771	-0.930516
C98	C	-0.489704	-0.935013	-0.954018
C99	C	-0.445400	-0.986803	-0.911802
H100	H	-0.540462	-0.947966	-0.938915
H101	H	-0.478700	-0.875663	-0.938890
H102	H	-0.482747	-0.943100	-1.015551
H103	H	-0.452332	-0.978781	-0.850259
H104	H	-0.456415	-1.046133	-0.926991
H105	H	-0.376249	-0.978104	-0.785125
H106	H	-0.662222	-0.978024	-0.439820
O107	O	-0.537879	-0.970499	-0.447213
C108	C	-0.544822	-0.877117	-0.540532
C109	C	-0.580947	-0.928967	-0.488808
H110	H	-0.579627	-0.843536	-0.574185
H111	H	-0.514111	-0.838592	-0.506739
H112	H	-0.513976	-0.910882	-0.579002
H113	H	-0.611827	-0.895261	-0.450327
H114	H	-0.611618	-0.967494	-0.522646
H115	H	-0.943790	-0.978143	-0.439879
H116	H	-0.230159	-1.149009	-0.924637
H117	H	-0.943777	-1.149015	-0.269244
O118	O	-1.068113	-1.156604	-0.261929
C119	C	-1.088097	-1.281847	-0.226379
C120	C	-1.052020	-1.229944	-0.278096
H121	H	-1.075110	-1.341154	-0.239441
H122	H	-1.075195	-1.269019	-0.167013
H123	H	-1.140736	-1.273789	-0.234428
H124	H	-0.999374	-1.237973	-0.270111
H125	H	-1.064975	-1.242785	-0.337442
O126	O	-0.223808	-1.156413	-0.779284
C127	C	-0.143977	-1.249861	-0.787445
C128	C	-0.188279	-1.198061	-0.829654
H129	H	-0.115250	-1.283557	-0.828152
H130	H	-0.111024	-1.216124	-0.751491
H131	H	-0.172897	-1.288287	-0.751437
H132	H	-0.159410	-1.159624	-0.865702
H133	H	-0.221234	-1.231843	-0.865563
