data_functionalizedCrystal
_audit_creation_method	'MofGen! by Chris Wilmer'
_symmetry_space_group_name_H-M	'P1'
_symmetry_Int_Tables_number	1
_symmetry_cell_setting	triclinic
loop_
_symmetry_equiv_pos_as_xyz
  x,y,z
_cell_length_a	19.805405
_cell_length_b	12.827893
_cell_length_c	19.805399
_cell_angle_alpha	90.015874
_cell_angle_beta	89.969291
_cell_angle_gamma	89.975570
loop_
_atom_site_label
_atom_site_type_symbol
_atom_site_fract_x
_atom_site_fract_y
_atom_site_fract_z
Zn1	Zn	-0.269505	-1.597535	-0.382693
Zn2	Zn	-0.382696	-1.597411	-0.269502
Zn3	Zn	-0.269523	-1.422792	-0.269520
Zn4	Zn	-0.382654	-1.422728	-0.382650
O5	O	-0.326095	-1.510117	-0.326091
O6	O	-0.284531	-1.743754	-0.367688
O7	O	-0.367709	-1.574223	-0.174787
O8	O	-0.174804	-1.446051	-0.284558
O9	O	-0.367692	-1.743664	-0.284527
O10	O	-0.174791	-1.574433	-0.367706
O11	O	-0.284561	-1.445931	-0.174801
O12	O	-0.284519	-1.276548	-0.284517
O13	O	-0.367619	-1.445941	-0.477373
O14	O	-0.367636	-1.276500	-0.367633
O15	O	-0.284489	-1.574371	-0.477404
O16	O	-0.477407	-1.574161	-0.284485
O17	O	-0.477376	-1.445821	-0.367615
C18	C	-0.326076	-1.238607	-0.326073
C19	C	-0.326084	-1.122454	-0.326081
C20	C	-0.367276	-1.070673	-0.367145
C21	C	-0.367285	-0.950623	-0.367154
C22	C	-0.501951	-1.509999	-0.326059
C23	C	-0.577183	-1.510044	-0.326067
C24	C	-0.612521	-1.576935	-0.282827
C25	C	-0.683209	-1.576980	-0.282842
C26	C	-0.718558	-1.510127	-0.326094
C27	C	-0.683215	-1.443233	-0.369339
C28	C	-0.612528	-1.443195	-0.369327
C29	C	-0.968288	-1.443387	-0.369390
C30	C	-1.038981	-1.443428	-0.369397
C31	C	-1.038969	-1.577172	-0.282904
C32	C	-0.968282	-1.577134	-0.282892
C33	C	-0.932945	-1.510244	-0.326139
C34	C	-0.856297	-1.510198	-0.326123
C35	C	-0.795205	-1.510167	-0.326107
C36	C	-0.149552	-1.510263	-0.326139
C37	C	-0.074320	-1.510326	-0.326159
C38	C	-0.326048	-1.510162	-0.502634
C39	C	-0.326028	-1.510182	-0.577866
C40	C	-0.326109	-0.782687	-0.326105
C41	C	-0.326100	-0.898840	-0.326097
C42	C	-0.282728	-1.443399	-0.613217
C43	C	-0.282715	-1.443414	-0.683905
C44	C	-0.325998	-1.510217	-0.719242
C45	C	-0.369302	-1.577002	-0.683886
C46	C	-0.369319	-1.576982	-0.613199
C47	C	-0.369239	-1.577085	-0.968960
C48	C	-0.369218	-1.577103	-1.039652
C49	C	-0.282636	-1.443517	-1.039666
C50	C	-0.282652	-1.443497	-0.968979
C51	C	-0.325958	-1.510278	-0.933629
C52	C	-0.325973	-1.510260	-0.856981
C53	C	-0.325981	-1.510241	-0.795889
C54	C	-0.326092	-1.510131	-0.150235
C55	C	-0.325922	-1.510314	-0.075004
H56	H	-0.290822	-1.077908	-0.290934
C57	C	-0.235078	-1.369958	-0.722788
C58	C	-0.240583	-1.251152	-0.713054
C59	C	-0.192942	-1.177693	-0.751935
C60	C	-0.139797	-1.223040	-0.800549
C61	C	-0.134290	-1.341852	-0.810285
C62	C	-0.181930	-1.415311	-0.771404
H63	H	-0.279926	-1.217578	-0.677065
H64	H	-0.197019	-1.089740	-0.744727
H65	H	-0.104530	-1.168662	-0.829331
H66	H	-0.094946	-1.375426	-0.846274
H67	H	-0.177853	-1.503264	-0.778611
H68	H	-1.067760	-1.388990	-0.404623
H69	H	-0.939523	-1.388921	-0.404602
H70	H	-0.247376	-1.389138	-1.068456
H71	H	-0.711978	-1.631449	-0.247630
H72	H	-0.583744	-1.631370	-0.247603
H73	H	-0.247478	-1.389006	-0.584451
H74	H	-0.583756	-1.388726	-0.404539
H75	H	-0.939503	-1.631568	-0.247669
C76	C	-0.416925	-1.650479	-0.722749
C77	C	-0.411427	-1.769280	-0.713035
C78	C	-0.459054	-1.842758	-0.751893
C79	C	-0.512179	-1.797434	-0.800464
C80	C	-0.517680	-1.678627	-0.810180
C81	C	-0.470053	-1.605150	-0.771323
H82	H	-0.372098	-1.802837	-0.677077
H83	H	-0.454981	-1.930707	-0.744700
H84	H	-0.547436	-1.851827	-0.829229
H85	H	-0.557009	-1.645071	-0.846138
H86	H	-0.474125	-1.517201	-0.778515
H87	H	-1.067749	-1.631641	-0.247692
C88	C	-0.722097	-1.369697	-0.416921
C89	C	-0.799850	-1.369733	-0.416936
C90	C	-0.838730	-1.296195	-0.464518
C91	C	-0.799857	-1.222620	-0.512086
C92	C	-0.722100	-1.222581	-0.512073
C93	C	-0.683220	-1.296119	-0.464490
H94	H	-0.828630	-1.424200	-0.381722
H95	H	-0.896291	-1.296224	-0.464528
H96	H	-0.828638	-1.168182	-0.547309
H97	H	-0.693319	-1.168114	-0.547286
H98	H	-0.625658	-1.296090	-0.464481
H99	H	-0.402553	-0.906093	-0.402308
C100	C	-0.278453	-0.958980	-0.278598
C101	C	-0.225389	-1.034085	-0.308061
C102	C	-0.177742	-1.094235	-0.260562
C103	C	-0.183159	-1.079280	-0.183599
C104	C	-0.236225	-1.004171	-0.154131
C105	C	-0.283872	-0.944022	-0.201631
H106	H	-0.221378	-1.045159	-0.365037
H107	H	-0.138459	-1.149835	-0.282376
H108	H	-0.147888	-1.123806	-0.148437
H109	H	-0.240237	-0.993098	-0.097155
H110	H	-0.323155	-0.888422	-0.179817
H111	H	-0.247404	-1.389102	-0.940211
C112	C	-0.416836	-1.650586	-1.078523
C113	C	-0.493784	-1.641980	-1.068788
C114	C	-0.541398	-1.715460	-1.107659
C115	C	-0.512065	-1.797547	-1.156266
C116	C	-0.435114	-1.806157	-1.166004
C117	C	-0.387499	-1.732676	-1.127132
H118	H	-0.515501	-1.581211	-1.032804
H119	H	-0.598363	-1.709086	-1.100450
H120	H	-0.547312	-1.851941	-1.185041
H121	H	-0.413396	-1.866925	-1.201987
H122	H	-0.330535	-1.739051	-1.134341
C123	C	-0.416947	-1.650446	-0.574310
C124	C	-0.464557	-1.723932	-0.613176
C125	C	-0.512190	-1.797394	-0.574288
C126	C	-0.512212	-1.797371	-0.496535
C127	C	-0.464601	-1.723883	-0.457665
C128	C	-0.416968	-1.650420	-0.496553
H129	H	-0.464542	-1.723951	-0.670737
H130	H	-0.547435	-1.851795	-0.603063
H131	H	-0.547473	-1.851752	-0.467748
H132	H	-0.464616	-1.723863	-0.400104
H133	H	-0.381722	-1.596020	-0.467779
C134	C	-0.414911	-1.130841	-0.414632
C135	C	-0.491860	-1.115898	-0.408978
C136	C	-0.539497	-1.176065	-0.456467
C137	C	-0.510186	-1.251174	-0.509609
C138	C	-0.433234	-1.266120	-0.515265
C139	C	-0.385596	-1.205954	-0.467776
H140	H	-0.513561	-1.060295	-0.369637
H141	H	-0.596462	-1.165000	-0.452280
H142	H	-0.545450	-1.295713	-0.544763
H143	H	-0.411532	-1.321724	-0.554606
H144	H	-0.328631	-1.217019	-0.471963
H145	H	-0.404509	-1.631451	-0.940187
