data_functionalizedCrystal
_audit_creation_method	'MofGen! by Chris Wilmer'
_symmetry_space_group_name_H-M	'P1'
_symmetry_Int_Tables_number	1
_symmetry_cell_setting	triclinic
loop_
_symmetry_equiv_pos_as_xyz
  x,y,z
_cell_length_a	10.654562
_cell_length_b	11.792254
_cell_length_c	9.730223
_cell_angle_alpha	89.998472
_cell_angle_beta	89.996961
_cell_angle_gamma	84.344351
loop_
_atom_site_label
_atom_site_type_symbol
_atom_site_fract_x
_atom_site_fract_y
_atom_site_fract_z
O1	O	1.667382	0.159483	-0.114381
O2	O	1.301863	0.174656	-0.114364
O3	O	1.493484	0.001921	-0.114363
O4	O	1.475760	0.332218	-0.114382
O5	O	1.493482	0.001925	0.114217
O6	O	1.301861	0.174660	0.114216
O7	O	1.667379	0.159487	0.114199
Zn8	Zn	1.484620	0.167074	0.150499
Zn9	Zn	1.484623	0.167069	-0.150665
O10	O	1.475758	0.332222	0.114198
C11	C	1.255067	0.173541	-0.000072
C12	C	1.115634	0.170199	-0.000065
C13	C	1.050107	0.168642	0.124523
C14	C	0.919093	0.165511	0.124500
C15	C	0.919146	0.165498	-0.124710
C16	C	1.050158	0.168621	-0.124686
C17	C	1.115583	0.170220	0.249144
C18	C	1.050055	0.168665	0.373742
C19	C	0.919041	0.165534	0.373720
C20	C	0.853556	0.163957	0.249098
C21	C	1.492367	-0.040371	-0.000074
C22	C	1.489025	-0.166391	-0.000075
C23	C	1.486310	-0.268734	-0.000080
C24	C	1.482914	-0.397129	-0.000092
C25	C	1.714175	0.160602	-0.000096
C26	C	1.853608	0.163944	-0.000112
C27	C	1.476876	0.374514	-0.000095
C28	C	1.480218	0.500534	-0.000102
N29	N	1.484627	0.167078	0.356036
N30	N	1.484625	0.167056	-0.356201
C31	C	1.569499	0.090617	0.427962
C32	C	1.569495	0.090603	0.571845
C33	C	1.399745	0.243521	0.571863
C34	C	1.399743	0.243529	0.427982
C35	C	1.654383	0.014166	0.356016
C36	C	1.739262	-0.062301	0.427942
C37	C	1.739259	-0.062315	0.571825
C38	C	1.654376	0.014138	0.643782
H39	H	0.865693	0.164258	0.475173
N40	N	1.256890	0.173584	0.249159
H41	H	1.278768	0.244567	0.200229
H42	H	1.288339	0.174300	0.347040
H43	H	1.330631	0.305789	0.369419
N44	N	0.712250	0.160568	0.249077
H45	H	0.671004	0.230044	0.200144
H46	H	0.690510	0.089530	0.200181
H47	H	0.865816	0.164217	-0.226171
N48	N	1.830812	-0.144751	0.350338
H49	H	1.884576	-0.193194	0.417740
H50	H	1.782399	-0.195333	0.290635
H51	H	1.808363	-0.124584	0.630386
N52	N	1.654356	0.014129	0.798970
H53	H	1.635561	-0.063146	0.833622
H54	H	1.739804	0.031409	0.833522
N55	N	1.120678	0.170354	0.508149
H56	H	1.213616	0.172576	0.489262
H57	H	1.088073	0.240047	0.562550
N58	N	1.308198	0.325976	0.649465
H59	H	1.321080	0.314370	0.751527
H60	H	1.323249	0.406622	0.624319
H61	H	1.103511	0.169894	-0.226137
H62	H	1.654396	0.014172	0.238859
