data_functionalizedCrystal
_audit_creation_method	'MofGen! by Chris Wilmer'
_symmetry_space_group_name_H-M	'P1'
_symmetry_Int_Tables_number	1
_symmetry_cell_setting	triclinic
loop_
_symmetry_equiv_pos_as_xyz
  x,y,z
_cell_length_a	21.295419
_cell_length_b	29.839133
_cell_length_c	21.295411
_cell_angle_alpha	90.010367
_cell_angle_beta	89.975461
_cell_angle_gamma	89.951686
loop_
_atom_site_label
_atom_site_type_symbol
_atom_site_fract_x
_atom_site_fract_y
_atom_site_fract_z
Zn1	Zn	0.962342	0.178727	-0.355960
Zn2	Zn	1.295676	0.512060	-0.022627
Zn3	Zn	1.629009	0.845394	0.310706
Zn4	Zn	0.962239	0.253843	-0.250707
Zn5	Zn	1.295573	0.587176	0.082627
Zn6	Zn	1.628906	0.920509	0.415960
Zn7	Zn	0.857066	0.178747	-0.250705
Zn8	Zn	1.190399	0.512080	0.082628
Zn9	Zn	1.523732	0.845413	0.415961
Zn10	Zn	0.857029	0.253850	-0.355938
Zn11	Zn	1.190363	0.587184	-0.022605
Zn12	Zn	1.523696	0.920517	0.310728
O13	O	0.909669	0.216292	-0.303328
O14	O	1.243003	0.549625	0.030006
O15	O	1.576336	0.882958	0.363339
O16	O	1.050418	0.188680	-0.342008
O17	O	1.383751	0.522013	-0.008675
O18	O	1.717085	0.855347	0.324659
O19	O	0.948260	0.243886	-0.162617
O20	O	1.281593	0.577219	0.170716
O21	O	1.614926	0.910553	0.504050
O22	O	0.871089	0.115877	-0.264677
O23	O	1.204422	0.449210	0.068657
O24	O	1.537756	0.782544	0.401990
O25	O	1.050342	0.243867	-0.264678
O26	O	1.383676	0.577200	0.068655
O27	O	1.717009	0.910534	0.401988
O28	O	0.948435	0.115863	-0.342007
O29	O	1.281769	0.449196	-0.008674
O30	O	1.615102	0.782529	0.324660
O31	O	0.870989	0.188714	-0.162616
O32	O	1.204322	0.522047	0.170717
O33	O	1.537656	0.855380	0.504050
O34	O	0.768971	0.188721	-0.264655
O35	O	1.102305	0.522054	0.068678
O36	O	1.435638	0.855388	0.402012
O37	O	0.871027	0.243880	-0.444031
O38	O	1.204361	0.577213	-0.110697
O39	O	1.537694	0.910547	0.222636
O40	O	0.768945	0.243899	-0.341969
O41	O	1.102278	0.577232	-0.008636
O42	O	1.435612	0.910566	0.324697
O43	O	0.948400	0.188687	-0.444047
O44	O	1.281734	0.522021	-0.110714
O45	O	1.615067	0.855354	0.222620
O46	O	0.948225	0.316711	-0.264657
O47	O	1.281558	0.650044	0.068676
O48	O	1.614891	0.983377	0.402010
O49	O	0.870928	0.316716	-0.341970
O50	O	1.204261	0.650050	-0.008637
O51	O	1.537594	0.983383	0.324696
C52	C	0.746118	0.216313	-0.303310
C53	C	1.079451	0.549647	0.030023
C54	C	1.412784	0.882980	0.363357
C55	C	0.676149	0.216333	-0.303317
C56	C	1.009483	0.549667	0.030016
C57	C	1.342816	0.883000	0.363349
C58	C	0.643345	0.187644	-0.343645
C59	C	0.976678	0.520978	-0.010312
C60	C	1.310011	0.854311	0.323022
C61	C	0.577602	0.187632	-0.343648
C62	C	0.910936	0.520966	-0.010314
C63	C	1.244269	0.854299	0.323019
C64	C	0.544667	0.216317	-0.303329
C65	C	0.878000	0.549650	0.030004
C66	C	1.211334	0.882984	0.363338
C67	C	0.577480	0.245008	-0.262993
C68	C	0.910813	0.578341	0.070340
C69	C	1.244146	0.911675	0.403673
C70	C	0.643221	0.245016	-0.262988
C71	C	0.976554	0.578349	0.070346
C72	C	1.309888	0.911683	0.403679
N73	N	0.441389	0.255624	-0.298420
N74	N	0.774722	0.588958	0.034913
N75	N	1.108055	0.922291	0.368247
N76	N	0.378937	0.255615	-0.298429
N77	N	0.712271	0.588949	0.034904
N78	N	1.045604	0.922282	0.368238
C79	C	0.346592	0.216294	-0.303343
C80	C	0.679926	0.549627	0.029991
C81	C	1.013259	0.882961	0.363324
N82	N	0.379058	0.176981	-0.308259
N83	N	0.712391	0.510314	0.025074
N84	N	1.045725	0.843647	0.358407
N85	N	0.441515	0.176990	-0.308253
N86	N	0.774849	0.510324	0.025080
N87	N	1.108182	0.843657	0.358413
C88	C	0.473382	0.216311	-0.303330
C89	C	0.806715	0.549645	0.030003
C90	C	1.140048	0.882978	0.363336
C91	C	0.242502	0.187589	-0.343675
C92	C	0.575835	0.520923	-0.010342
C93	C	0.909169	0.854256	0.322991
C94	C	0.176758	0.187577	-0.343673
C95	C	0.510092	0.520910	-0.010340
C96	C	0.843425	0.854243	0.322993
C97	C	0.176637	0.244956	-0.263022
C98	C	0.509970	0.578290	0.070311
C99	C	0.843304	0.911623	0.403644
C100	C	0.242379	0.244965	-0.263021
C101	C	0.575713	0.578299	0.070312
C102	C	0.909046	0.911632	0.403646
C103	C	0.275308	0.216282	-0.303351
C104	C	0.608641	0.549616	0.029982
C105	C	0.941975	0.882949	0.363316
C106	C	0.909578	0.333014	-0.303325
C107	C	1.242911	0.666348	0.030008
C108	C	1.576245	0.999681	0.363342
C109	C	0.909597	0.382949	-0.303345
C110	C	1.242930	0.716282	0.029988
C111	C	1.576263	1.049615	0.363322
C112	C	0.949917	0.739493	-0.343636
C113	C	1.283250	1.072827	-0.010303
C114	C	1.616583	1.406160	0.323031
C115	C	0.949875	0.551820	-0.343637
C116	C	1.283208	0.885154	-0.010303
C117	C	1.616542	1.218487	0.323030
O118	O	0.984106	0.527520	-0.377886
O119	O	1.317439	0.860853	-0.044553
O120	O	1.650773	1.194186	0.288780
N121	N	0.909633	0.528394	-0.303342
N122	N	1.242966	0.861727	0.029991
N123	N	1.576299	1.195060	0.363324
C124	C	0.869401	0.551888	-0.263042
C125	C	1.202734	0.885222	0.070291
C126	C	1.536067	1.218555	0.403624
O127	O	0.835176	0.527657	-0.228765
O128	O	1.168509	0.860990	0.104568
O129	O	1.501842	1.194323	0.437902
C130	C	0.869446	0.739561	-0.263039
C131	C	1.202779	1.072894	0.070294
C132	C	1.536113	1.406227	0.403628
C133	C	0.909686	0.762985	-0.303340
C134	C	1.243020	1.096318	0.029993
C135	C	1.576353	1.429651	0.363326
C136	C	0.990154	0.762917	-0.383933
C137	C	1.323488	1.096251	-0.050600
C138	C	1.656821	1.429584	0.282733
C139	C	0.990162	0.809833	-0.383935
C140	C	1.323495	1.143166	-0.050602
C141	C	1.656828	1.476499	0.282731
C142	C	0.949932	0.833324	-0.343640
C143	C	1.283265	1.166658	-0.010306
C144	C	1.616598	1.499991	0.323027
C145	C	0.909694	0.809900	-0.303342
C146	C	1.243027	1.143233	0.029991
C147	C	1.576361	1.476567	0.363325
C148	C	0.829218	0.763055	-0.222736
C149	C	1.162551	1.096388	0.110597
C150	C	1.495884	1.429721	0.443931
C151	C	0.829234	0.809976	-0.222738
C152	C	1.162567	1.143309	0.110596
C153	C	1.495900	1.476642	0.443929
C154	C	0.869474	0.833400	-0.263039
C155	C	1.202807	1.166733	0.070294
C156	C	1.536141	1.500066	0.403628
C157	C	0.869471	0.880307	-0.263048
C158	C	1.202805	1.213640	0.070285
C159	C	1.536138	1.546974	0.403618
N160	N	0.909714	0.903733	-0.303342
N161	N	1.243047	1.237067	0.029991
N162	N	1.576380	1.570400	0.363324
C163	C	0.949944	0.880242	-0.343638
C164	C	1.283277	1.213575	-0.010305
C165	C	1.616611	1.546909	0.323029
C166	C	0.869379	0.453358	-0.263048
C167	C	1.202712	0.786691	0.070286
C168	C	1.536045	1.120025	0.403619
C169	C	0.869367	0.406440	-0.263049
C170	C	1.202700	0.739773	0.070284
C171	C	1.536033	1.073107	0.403617
C172	C	0.949842	0.406375	-0.343643
C173	C	1.283175	0.739708	-0.010310
C174	C	1.616509	1.073042	0.323024
C175	C	0.949850	0.453294	-0.343644
C176	C	1.283184	0.786627	-0.010311
C177	C	1.616517	1.119960	0.323023
C178	C	0.909621	0.476784	-0.303342
C179	C	1.242955	0.810118	0.029991
C180	C	1.576288	1.143451	0.363325
C181	C	0.949956	0.978768	-0.343639
C182	C	1.283290	1.312101	-0.010306
C183	C	1.616623	1.645435	0.323027
C184	C	0.949959	1.025687	-0.343639
C185	C	1.283292	1.359021	-0.010306
C186	C	1.616625	1.692354	0.323027
C187	C	0.869486	1.025748	-0.263044
C188	C	1.202819	1.359082	0.070290
C189	C	1.536153	1.692415	0.403623
C190	C	0.869481	0.978833	-0.263046
C191	C	1.202814	1.312166	0.070288
C192	C	1.536148	1.645500	0.403621
C193	C	0.909721	0.955344	-0.303346
C194	C	1.243055	1.288677	0.029988
C195	C	1.576388	1.622010	0.363321
O196	O	0.835263	0.904637	-0.228811
O197	O	1.168597	1.237970	0.104522
O198	O	1.501930	1.571303	0.437855
O199	O	0.984174	0.904482	-0.377900
O200	O	1.317507	1.237815	-0.044567
O201	O	1.650840	1.571149	0.288766
C202	C	0.949909	0.692578	-0.343634
C203	C	1.283242	1.025911	-0.010301
C204	C	1.616576	1.359245	0.323033
C205	C	0.909671	0.669154	-0.303337
C206	C	1.243005	1.002487	0.029997
C207	C	1.576338	1.335820	0.363330
C208	C	0.869441	0.692645	-0.263041
C209	C	1.202774	1.025979	0.070292
C210	C	1.536108	1.359312	0.403626
C211	C	0.909659	0.622236	-0.303338
C212	C	1.242992	0.955569	0.029995
C213	C	1.576326	1.288903	0.363329
C214	C	0.949889	0.598745	-0.343634
C215	C	1.283222	0.932078	-0.010300
C216	C	1.616556	1.265411	0.323033
C217	C	0.990132	0.622171	-0.383928
C218	C	1.323465	0.955504	-0.050595
C219	C	1.656798	1.288838	0.282739
C220	C	0.990139	0.669086	-0.383930
C221	C	1.323472	1.002420	-0.050596
C222	C	1.656806	1.335753	0.282737
C223	C	0.829199	0.669219	-0.222747
C224	C	1.162532	1.002552	0.110587
C225	C	1.495865	1.335885	0.443920
C226	C	0.829194	0.622303	-0.222749
C227	C	1.162527	0.955637	0.110585
C228	C	1.495861	1.288970	0.443918
C229	C	0.869424	0.598812	-0.263044
C230	C	1.202757	0.932145	0.070289
C231	C	1.536091	1.265479	0.403622
C232	C	1.073859	0.216270	-0.303346
C233	C	1.407193	0.549604	0.029988
C234	C	1.740526	0.882937	0.363321
C235	C	1.143828	0.216261	-0.303353
C236	C	1.477161	0.549595	0.029980
C237	C	1.810494	0.882928	0.363313
C238	C	0.909721	0.216282	-0.467518
C239	C	1.243055	0.549615	-0.134185
C240	C	1.576388	0.882949	0.199149
C241	C	0.909744	0.216278	-0.537486
C242	C	1.243077	0.549611	-0.204153
C243	C	1.576410	0.882945	0.129181
C244	C	0.909754	1.099113	-0.303342
C245	C	1.243087	1.432447	0.029991
C246	C	1.576420	1.765780	0.363324
C247	C	0.909728	1.049179	-0.303344
C248	C	1.243062	1.382512	0.029990
C249	C	1.576395	1.715846	0.363323
C250	C	0.950030	0.187538	-0.570362
C251	C	1.283363	0.520871	-0.237029
C252	C	1.616697	0.854205	0.096304
C253	C	0.950029	0.187519	-0.636105
C254	C	1.283363	0.520852	-0.302771
C255	C	1.616696	0.854185	0.030562
C256	C	0.909749	0.216247	-0.668969
C257	C	1.243082	0.549581	-0.335635
C258	C	1.576415	0.882914	-0.002302
C259	C	0.869454	0.244989	-0.636085
C260	C	1.202788	0.578323	-0.302751
C261	C	1.536121	0.911656	0.030582
C262	C	0.869452	0.245005	-0.570343
C263	C	1.202785	0.578338	-0.237010
C264	C	1.536119	0.911671	0.096323
N265	N	0.904889	0.255549	-0.772195
N266	N	1.238222	0.588882	-0.438862
N267	N	1.571556	0.922215	-0.105528
N268	N	0.904895	0.255533	-0.834646
N269	N	1.238228	0.588866	-0.501313
N270	N	1.571562	0.922199	-0.167980
C271	C	0.909753	0.216202	-0.867044
C272	C	1.243086	0.549535	-0.533710
C273	C	1.576419	0.882868	-0.200377
N274	N	0.914616	0.176886	-0.834630
N275	N	1.247950	0.510220	-0.501297
N276	N	1.581283	0.843553	-0.167963
N277	N	0.914613	0.176903	-0.772173
N278	N	1.247947	0.510236	-0.438839
N279	N	1.581280	0.843570	-0.105506
C280	C	0.909746	0.216233	-0.740254
C281	C	1.243080	0.549567	-0.406921
C282	C	1.576413	0.882900	-0.073587
C283	C	0.950040	0.187438	-0.971205
C284	C	1.283373	0.520771	-0.637872
C285	C	1.616707	0.854105	-0.304539
C286	C	0.950035	0.187418	-1.036949
C287	C	1.283368	0.520751	-0.703616
C288	C	1.616702	0.854084	-0.370282
C289	C	0.869463	0.244893	-1.036928
C290	C	1.202797	0.578226	-0.703594
C291	C	1.536130	0.911559	-0.370261
C292	C	0.869465	0.244909	-0.971185
C293	C	1.202799	0.578242	-0.637852
C294	C	1.536132	0.911575	-0.304518
C295	C	0.909757	0.216182	-0.938328
C296	C	1.243090	0.549515	-0.604995
C297	C	1.576424	0.882849	-0.271661
C298	C	0.909653	0.216269	-0.139776
C299	C	1.242987	0.549602	0.193557
C300	C	1.576320	0.882935	0.526891
C301	C	0.909753	0.216146	-0.069808
C302	C	1.243086	0.549479	0.263525
C303	C	1.576420	0.882813	0.596858
H304	H	0.669930	0.268379	-0.230147
H305	H	1.003263	0.601712	0.103187
H306	H	1.336597	0.935046	0.436520
F307	F	1.032968	0.694010	-0.426825
F308	F	1.366301	1.027344	-0.093492
F309	F	1.699635	1.360677	0.239841
F310	F	0.277294	0.275499	-0.220096
F311	F	0.610627	0.608832	0.113237
F312	F	0.943961	0.942166	0.446571
F313	F	0.992788	1.050614	-0.386538
F314	F	1.326121	1.383948	-0.053204
F315	F	1.659454	1.717281	0.280129
H316	H	0.836664	0.268315	-0.944417
H317	H	1.169997	0.601648	-0.611084
H318	H	1.503330	0.934981	-0.277750
H319	H	0.796420	0.603235	-0.189932
H320	H	1.129753	0.936568	0.143401
H321	H	1.463086	1.269901	0.476735
F322	F	0.277549	0.157061	-0.386594
F323	F	0.610883	0.490394	-0.053260
F324	F	0.944216	0.823727	0.280073
F325	F	0.826651	0.953903	-0.220155
F326	F	1.159984	1.287236	0.113178
F327	F	1.493317	1.620569	0.446511
F328	F	0.992785	0.953776	-0.386531
F329	F	1.326118	1.287109	-0.053198
F330	F	1.659451	1.620442	0.280136
F331	F	0.786377	0.694214	-0.179856
F332	F	1.119711	1.027547	0.153477
F333	F	1.453044	1.360881	0.486810
H334	H	0.982840	0.164012	-1.063716
H335	H	1.316173	0.497345	-0.730382
H336	H	1.649507	0.830678	-0.397049
H337	H	0.982834	0.164112	-0.662878
H338	H	1.316167	0.497446	-0.329544
H339	H	1.649501	0.830779	0.003789
F340	F	0.826572	0.275595	-0.535353
F341	F	1.159905	0.608929	-0.202020
F342	F	1.493238	0.942262	0.131314
F343	F	1.032945	0.597161	-0.426816
F344	F	1.366278	0.930495	-0.093483
F345	F	1.699612	1.263828	0.239851
H346	H	0.982838	0.164146	-0.543614
H347	H	1.316171	0.497479	-0.210281
H348	H	1.649505	0.830813	0.123053
H349	H	1.022935	0.828900	-0.416748
H350	H	1.356268	1.162234	-0.083415
H351	H	1.689601	1.495567	0.249919
F352	F	0.992681	0.478219	-0.386537
F353	F	1.326014	0.811552	-0.053203
F354	F	1.659347	1.144886	0.280130
F355	F	0.992919	0.156863	-0.936234
F356	F	1.326252	0.490197	-0.602901
F357	F	1.659586	0.823530	-0.269567
F358	F	0.826583	0.275563	-0.671061
F359	F	1.159916	0.608896	-0.337728
F360	F	1.493250	0.942230	-0.004395
H361	H	0.836660	0.268279	-1.063685
H362	H	1.169993	0.601613	-0.730351
H363	H	1.503326	0.934946	-0.397018
F364	F	0.678386	0.157117	-0.386567
F365	F	1.011719	0.490450	-0.053234
F366	F	1.345053	0.823783	0.280100
H367	H	0.550887	0.164268	-0.376486
H368	H	0.884221	0.497601	-0.043153
H369	H	1.217554	0.830935	0.290180
H370	H	0.150050	0.164212	-0.376512
H371	H	0.483383	0.497545	-0.043179
H372	H	0.816716	0.830879	0.290155
H373	H	0.982598	0.387241	-0.376454
H374	H	1.315931	0.720574	-0.043121
H375	H	1.649265	1.053907	0.290212
F376	F	1.032977	0.737923	-0.426825
F377	F	1.366310	1.071256	-0.093492
F378	F	1.699644	1.404590	0.239842
H379	H	0.836592	0.387371	-0.230239
H380	H	1.169926	0.720705	0.103094
H381	H	1.503259	1.054038	0.436427
H382	H	0.149822	0.268312	-0.230194
H383	H	0.483155	0.601645	0.103139
H384	H	0.816488	0.934979	0.436473
H385	H	0.550660	0.268363	-0.230165
H386	H	0.883993	0.601696	0.103168
H387	H	1.217326	0.935030	0.436502
H388	H	0.836617	0.472480	-0.230227
H389	H	1.169951	0.805813	0.103106
H390	H	1.503284	1.139146	0.436440
F391	F	0.786384	0.738135	-0.179845
F392	F	1.119717	1.071468	0.153489
F393	F	1.453050	1.404802	0.486822
H394	H	0.796474	0.829099	-0.189917
H395	H	1.129807	1.162432	0.143416
H396	H	1.463141	1.495766	0.476749
H397	H	0.836730	1.044884	-0.230238
H398	H	1.170063	1.378217	0.103096
H399	H	1.503397	1.711550	0.436429
