data_functionalizedCrystal
_audit_creation_method	'MofGen! by Chris Wilmer'
_symmetry_space_group_name_H-M	'P1'
_symmetry_Int_Tables_number	1
_symmetry_cell_setting	triclinic
loop_
_symmetry_equiv_pos_as_xyz
  x,y,z
_cell_length_a	6.817900
_cell_length_b	10.992421
_cell_length_c	19.453030
_cell_angle_alpha	94.462411
_cell_angle_beta	101.707737
_cell_angle_gamma	108.764763
loop_
_atom_site_label
_atom_site_type_symbol
_atom_site_fract_x
_atom_site_fract_y
_atom_site_fract_z
V1	V	-4.033975	-0.179098	-0.218989
O2	O	-3.993628	0.007230	-0.214830
O3	O	-4.012107	-0.353798	-0.217481
O4	O	-3.976556	-0.176947	-0.314502
O5	O	-4.029424	-0.170845	-0.117138
V6	V	-4.515334	-0.156740	-0.206808
O7	O	-4.299981	-0.228143	-0.245709
O8	O	-4.699526	-0.107695	-0.180088
O9	O	-4.313996	0.017960	-0.208315
O10	O	-4.673079	-0.343068	-0.210966
O11	O	-4.637282	-0.164993	-0.308658
O12	O	-4.349547	-0.158891	-0.111295
C13	C	-3.863854	-0.396367	-0.214024
C14	C	-3.927200	-0.539190	-0.213428
C15	C	-3.796625	-0.734448	-0.208625
C16	C	-3.730418	-0.585806	-0.208967
C17	C	-4.021820	-0.577425	-0.147927
C18	C	-4.086310	-0.725964	-0.147233
C19	C	-4.168595	-0.765366	-0.281508
C20	C	-4.099020	-0.616861	-0.282929
C21	C	-3.818504	-0.170775	-0.337783
C22	C	-3.853017	-0.170172	-0.415865
C23	C	-3.926344	-0.287609	-0.462564
C24	C	-3.958798	-0.287056	-0.535932
C25	C	-3.917880	-0.169058	-0.562597
C26	C	-3.844553	-0.051606	-0.515888
C27	C	-3.812121	-0.052163	-0.442522
N28	N	-3.812154	-0.076544	-0.668096
N29	N	-3.842962	-0.076022	-0.737791
C30	C	-4.015595	-0.167374	-0.783644
N31	N	-4.156241	-0.259285	-0.757170
N32	N	-4.125423	-0.259809	-0.687469
C33	C	-3.953042	-0.168441	-0.642149
C34	C	-4.124120	-0.284220	-0.909898
C35	C	-4.156585	-0.283663	-0.983267
C36	C	-4.042316	-0.048208	-0.963222
C37	C	-4.009874	-0.048769	-0.889854
C38	C	-4.050770	-0.166779	-0.863197
C39	C	-4.125593	0.060522	-0.211770
C40	C	-4.041484	0.203344	-0.212371
C41	C	-4.170942	-0.165067	-0.088010
C42	C	-4.115667	-0.165664	-0.009927
H43	H	-4.167175	-0.547194	-0.148682
H44	H	-3.656138	-0.560327	-0.255770
H45	H	-4.157423	-0.380310	-0.888193
C46	C	-3.799538	0.078194	-0.545217
C47	C	-3.632009	0.117087	-0.589487
C48	C	-3.587003	0.246891	-0.618815
C49	C	-3.709526	0.337802	-0.603872
C50	C	-3.877066	0.298910	-0.559599
C51	C	-3.922072	0.169106	-0.530271
H52	H	-3.541300	0.049788	-0.600551
H53	H	-3.462979	0.275681	-0.651589
H54	H	-3.676210	0.433890	-0.625582
H55	H	-3.967775	0.366209	-0.548535
H56	H	-4.046096	0.140317	-0.497497
H57	H	-4.009012	0.047868	-0.984932
H58	H	-3.900091	-0.522873	-0.096474
H59	H	-4.216310	-0.379299	-1.021290
C60	C	-3.929242	0.080414	-0.838481
C61	C	-3.884274	0.210212	-0.867807
C62	C	-3.803675	0.339401	-0.816434
C63	C	-3.768045	0.338792	-0.735735
C64	C	-3.813013	0.208990	-0.706404
C65	C	-3.893612	0.079801	-0.757778
H66	H	-3.910650	0.210667	-0.927550
H67	H	-3.770387	0.435489	-0.838147
H68	H	-3.708380	0.434426	-0.697706
H69	H	-3.786637	0.208535	-0.646662
H70	H	-3.926900	-0.016287	-0.736065
H71	H	-3.753752	-0.781152	-0.255138
H72	H	-4.018505	-0.382691	-0.573961
H73	H	-3.752410	0.043472	-0.404499
C74	C	-4.324402	-0.781213	-0.147089
C75	C	-4.482266	-0.886436	-0.208085
C76	C	-4.720346	-0.941680	-0.207935
C77	C	-4.800563	-0.891703	-0.146790
C78	C	-4.642697	-0.786475	-0.085789
C79	C	-4.404616	-0.731230	-0.085939
H80	H	-4.422887	-0.923437	-0.253353
H81	H	-4.837209	-1.019577	-0.253093
H82	H	-4.976804	-0.932598	-0.146679
H83	H	-4.702075	-0.749473	-0.040521
H84	H	-4.287754	-0.653333	-0.040782
H85	H	-4.246121	-0.586698	-0.290244
H86	H	-3.699109	-0.754703	-0.158766
H87	H	-4.144089	-0.815185	-0.331071
C88	C	-4.008870	-0.584952	-0.348403
C89	C	-3.780331	-0.488832	-0.338836
C90	C	-3.690185	-0.456895	-0.404309
C91	C	-3.828579	-0.521079	-0.479348
C92	C	-4.057131	-0.617205	-0.488918
C93	C	-4.147277	-0.649141	-0.423445
H94	H	-3.677872	-0.441314	-0.283284
H95	H	-3.520995	-0.385737	-0.397224
H96	H	-3.761847	-0.497438	-0.527815
H97	H	-4.159591	-0.664722	-0.544470
H98	H	-4.316468	-0.720300	-0.430530
H99	H	-3.994573	-0.743161	-0.095226
H100	H	-4.347186	-0.806504	-0.284941
H101	H	-3.959658	-0.383702	-0.440865
H102	H	-3.600029	-0.533059	-0.159066
