data_functionalizedCrystal
_audit_creation_method	'MofGen! by Chris Wilmer'
_symmetry_space_group_name_H-M	'P1'
_symmetry_Int_Tables_number	1
_symmetry_cell_setting	triclinic
loop_
_symmetry_equiv_pos_as_xyz
  x,y,z
_cell_length_a	17.052862
_cell_length_b	17.052862
_cell_length_c	17.052832
_cell_angle_alpha	45.842616
_cell_angle_beta	77.972185
_cell_angle_gamma	61.493569
loop_
_atom_site_label
_atom_site_type_symbol
_atom_site_fract_x
_atom_site_fract_y
_atom_site_fract_z
Zr1	Zr	1.025676	0.561908	-0.033747
O2	O	0.952397	0.751986	-0.202566
O3	O	1.024843	0.394713	0.031224
O4	O	1.097437	0.539754	-0.147413
O5	O	0.849041	0.616442	0.101946
O6	O	1.238347	0.496249	-0.118945
O7	O	0.879803	0.606945	-0.023929
O8	O	1.108490	0.236796	0.200605
O9	O	0.978898	0.875894	-0.217604
O10	O	1.157794	0.422541	0.064208
O11	O	1.029676	0.462095	0.136901
O12	O	1.115146	0.632862	-0.073421
O13	O	0.987028	0.672417	-0.000728
Zr14	Zr	1.201348	0.507669	0.212412
Zr15	Zr	1.250411	0.492523	0.011656
Zr16	Zr	0.976613	0.577055	0.167008
Zr17	Zr	1.067941	0.759527	-0.057731
Zr18	Zr	1.159083	0.310051	0.236395
O19	O	1.202181	0.674865	0.147440
O20	O	1.271942	0.653329	-0.138008
O21	O	0.882636	0.773522	0.082882
O22	O	1.274627	0.317591	0.381231
O23	O	1.344388	0.296055	0.095783
O24	O	0.955082	0.416249	0.316673
O25	O	1.377984	0.453136	0.076719
O26	O	1.129587	0.529824	0.326078
O27	O	0.988677	0.573329	0.297609
O28	O	1.347221	0.462633	0.202594
O29	O	1.157532	0.820742	-0.181514
O30	O	1.069492	0.248836	0.360179
O31	O	1.248127	0.193684	0.396269
O32	O	1.287125	0.181644	0.236695
O33	O	0.939899	0.887933	-0.058030
O34	O	1.118534	0.832781	-0.021940
O35	O	1.111878	0.436715	0.252086
O36	O	1.239996	0.397161	0.179392
O37	O	1.197348	0.607483	0.041763
O38	O	1.069230	0.647037	0.114456
C39	C	1.060645	0.287598	0.119332
C40	C	1.042702	0.203704	0.129513
C41	C	1.259630	-0.115361	0.006418
C42	C	1.276487	-0.036533	-0.003155
C43	C	1.218043	0.023530	0.030011
C44	C	1.142737	0.004758	0.072753
C45	C	1.125874	-0.074070	0.082319
C46	C	1.084287	0.064820	0.105912
C47	C	1.008981	0.046048	0.148653
C48	C	0.992122	-0.032773	0.158218
C49	C	1.050566	-0.092836	0.125052
C50	C	1.101150	0.143648	0.096346
C51	C	0.967394	0.184938	0.172246
C52	C	0.950537	0.106111	0.181820
C53	C	0.832402	0.621579	0.032539
C54	C	0.736996	0.651035	0.013264
C55	C	0.557111	0.294912	0.246298
C56	C	0.646753	0.267233	0.264405
C57	C	0.669318	0.363181	0.201622
C58	C	0.602233	0.486814	0.120728
C59	C	0.512585	0.514496	0.102613
C60	C	0.624791	0.582764	0.057937
C61	C	0.557706	0.706397	-0.022957
C62	C	0.468067	0.734074	-0.041067
C63	C	0.445502	0.638126	0.021716
C64	C	0.714439	0.555082	0.076051
C65	C	0.669913	0.774665	-0.067633
C66	C	0.580272	0.802345	-0.085740
C67	C	1.394622	0.447998	0.146125
C68	C	1.490028	0.418542	0.165400
C69	C	1.174882	0.515843	-0.161782
C70	C	1.195711	0.509413	-0.247008
C71	C	1.166379	0.781980	0.059333
C72	C	1.184322	0.865874	0.049151
C73	C	0.943896	0.587151	-0.549972
C74	C	0.924326	0.593185	-0.469893
C75	C	0.992170	0.572243	-0.414168
C76	C	1.079588	0.545265	-0.438529
C77	C	1.099161	0.539221	-0.518610
C78	C	1.147436	0.524313	-0.382806
C79	C	1.234854	0.497335	-0.407167
C80	C	1.254423	0.491293	-0.487240
C81	C	1.186579	0.512234	-0.542965
C82	C	1.127863	0.530357	-0.302726
C83	C	1.283128	0.482427	-0.271364
C84	C	1.302698	0.476393	-0.351442
C85	C	1.052142	0.553734	0.340447
C86	C	1.031313	0.560164	0.425673
C87	C	1.341755	0.200807	0.176125
C88	C	1.419218	0.087457	0.205581
C89	C	0.999274	0.306544	0.370446
C90	C	0.960503	0.229079	0.465854
C91	C	1.280385	0.219753	0.427239
C92	C	1.337019	0.112833	0.541922
C93	C	0.946640	0.849825	-0.248575
C94	C	0.890005	0.956745	-0.363257
C95	C	0.885269	0.868770	0.002540
C96	C	0.807806	0.982120	-0.026917
C97	C	1.227750	0.763034	-0.191782
C98	C	1.266521	0.840498	-0.287189
C99	C	1.412689	0.047474	0.159281
C100	C	1.485473	-0.059018	0.186937
C101	C	1.564782	-0.125531	0.260899
C102	C	1.571310	-0.085539	0.307200
C103	C	1.498530	0.020956	0.279538
C104	C	0.985202	0.179454	0.570792
C105	C	0.948769	0.106681	0.660443
C106	C	0.887642	0.083527	0.645155
C107	C	0.862940	0.133162	0.540206
C108	C	0.899368	0.205941	0.450555
C109	C	1.430501	0.041972	0.557835
C110	C	1.483729	-0.058483	0.665584
C111	C	1.443471	-0.088081	0.757419
C112	C	1.349981	-0.017209	0.741501
C113	C	1.296757	0.083249	0.633753
C114	C	0.796525	1.027615	-0.379171
C115	C	0.743303	1.128095	-0.486923
C116	C	0.783561	1.157697	-0.578759
C117	C	0.877050	1.086820	-0.562841
C118	C	0.930272	0.986348	-0.455091
C119	C	0.814338	1.022111	0.019374
C120	C	0.741565	1.128624	-0.008306
C121	C	0.662257	1.195139	-0.082272
C122	C	0.655727	1.155144	-0.128568
C123	C	0.728503	1.048638	-0.100894
C124	C	1.327646	0.863626	-0.271867
C125	C	1.364092	0.936395	-0.361499
C126	C	1.339407	0.986044	-0.466455
C127	C	1.278278	0.962909	-0.481775
C128	C	1.241838	0.890133	-0.392142
H129	H	1.162465	0.158925	0.061545
F130	F	0.971340	0.578668	-0.328943
F131	F	1.207405	0.505819	-0.628200
F132	F	0.726906	1.264632	-0.693432
H133	H	0.591145	1.209316	-0.188794
F134	F	0.643806	1.203509	-0.503841
H135	H	0.413449	0.834744	-0.106945
H136	H	1.192064	0.871314	-0.404634
H137	H	1.307205	-0.164260	-0.020590
F138	F	0.919883	1.118338	-0.660592
F139	F	0.975072	0.053864	0.772129
H140	H	1.036849	-0.157032	0.132851
F141	F	1.655723	-0.156343	0.385919
F142	F	1.378196	1.063500	-0.561842
H143	H	0.769051	0.454419	0.141923
F144	F	0.911967	-0.052736	0.203693
H145	H	0.813166	0.114299	0.527774
F146	F	1.473366	0.073456	0.460110
H147	H	1.325607	0.469312	-0.507065
F148	F	0.870396	0.086117	0.227312
H149	H	1.231773	0.087714	0.022214
F150	F	0.584809	1.308490	-0.111715
H151	H	1.317214	-0.041323	0.816289
H152	H	1.624037	-0.212245	0.283415
H153	H	1.006388	0.928644	-0.442145
F154	F	0.350093	0.667579	0.002457
F155	F	1.356627	-0.016555	-0.048646
F156	F	0.721534	1.006085	-0.150164
H157	H	1.034973	0.198296	0.583259
F158	F	1.353931	0.810797	-0.160172
H159	H	1.413862	0.955223	-0.349005
F160	F	0.898738	0.951340	0.098094
H161	H	0.746897	1.161169	0.029403
F162	F	1.252008	1.015767	-0.593487
H163	H	0.888666	0.604190	-0.595341
F164	F	1.583225	-0.133898	0.682502
H165	H	0.853152	0.615148	-0.450060
H166	H	0.919802	0.233846	0.199250
H167	H	1.373875	0.454426	-0.371287
F168	F	1.478506	-0.101563	0.137653
F169	F	0.764723	0.333718	0.220895
H170	H	0.879253	0.246337	0.365114
H171	H	1.486821	-0.169884	0.845149
F172	F	0.718142	0.135659	0.350494
H173	H	1.503856	0.053497	0.317251
F174	F	0.508866	0.933921	-0.171830
F175	F	0.533090	0.192812	0.313099
F176	F	0.693925	0.876787	-0.134465
H177	H	1.338374	0.465371	-0.225990
F178	F	1.034829	0.559069	-0.276809
H179	H	1.348123	0.101626	0.099044
H180	H	0.857986	0.024264	0.718164
H181	H	1.220637	0.140936	0.620811
H182	H	0.763728	1.003524	-0.304406
