data_functionalizedCrystal
_audit_creation_method	'MofGen! by Chris Wilmer'
_symmetry_space_group_name_H-M	'P1'
_symmetry_Int_Tables_number	1
_symmetry_cell_setting	triclinic
loop_
_symmetry_equiv_pos_as_xyz
  x,y,z
_cell_length_a	12.759401
_cell_length_b	21.295417
_cell_length_c	12.759393
_cell_angle_alpha	89.961827
_cell_angle_beta	89.981425
_cell_angle_gamma	90.030129
loop_
_atom_site_label
_atom_site_type_symbol
_atom_site_fract_x
_atom_site_fract_y
_atom_site_fract_z
Zn1	Zn	1.606145	-0.250565	-0.593937
Zn2	Zn	1.605994	-0.355849	-0.418237
Zn3	Zn	1.430448	-0.250598	-0.418276
Zn4	Zn	1.430390	-0.355801	-0.593878
O5	O	1.518244	-0.303203	-0.506082
O6	O	1.753146	-0.264537	-0.570638
O7	O	1.582668	-0.341921	-0.271221
O8	O	1.453842	-0.162504	-0.441619
O9	O	1.753035	-0.341889	-0.441552
O10	O	1.582926	-0.162480	-0.570676
O11	O	1.453695	-0.264594	-0.271250
O12	O	1.283419	-0.264547	-0.441562
O13	O	1.453744	-0.341807	-0.740907
O14	O	1.283377	-0.341839	-0.570576
O15	O	1.582870	-0.264490	-0.740950
O16	O	1.582612	-0.443932	-0.441495
O17	O	1.453597	-0.443896	-0.570538
C18	C	1.245277	-0.303192	-0.506067
C19	C	1.128500	-0.303203	-0.506086
C20	C	1.073697	-0.262998	-0.573404
C21	C	0.963973	-0.263005	-0.573411
C22	C	0.963865	-0.343425	-0.438778
C23	C	1.073587	-0.343415	-0.438766
C24	C	1.518110	-0.466755	-0.506029
C25	C	1.518149	-0.536723	-0.506041
C26	C	1.585325	-0.569519	-0.573289
C27	C	1.585362	-0.635262	-0.573315
C28	C	1.518234	-0.668205	-0.506074
C29	C	1.451045	-0.635401	-0.438821
C30	C	1.451003	-0.569659	-0.438805
N31	N	1.510295	-0.771475	-0.414128
N32	N	1.510342	-0.833926	-0.414146
C33	C	1.518357	-0.866280	-0.506122
N34	N	1.526344	-0.833823	-0.598079
N35	N	1.526303	-0.771366	-0.598060
C36	C	1.518273	-0.739491	-0.506085
C37	C	1.585577	-0.970362	-0.573404
C38	C	1.585606	-1.036106	-0.573431
C39	C	1.451295	-1.036243	-0.438928
C40	C	1.451260	-0.970501	-0.438910
C41	C	1.518406	-0.937564	-0.506146
C42	C	1.792277	-0.303214	-0.506097
C43	C	1.909054	-0.303219	-0.506104
C44	C	1.518318	-0.303139	-0.780115
C45	C	1.518349	-0.303112	-0.896892
C46	C	1.518407	-0.139013	-0.506158
C47	C	1.518477	-0.069045	-0.506191
C48	C	1.451217	-0.262841	-0.951769
C49	C	1.451241	-0.262821	-1.061493
C50	C	1.585539	-0.343347	-1.061454
C51	C	1.585508	-0.343369	-0.951732
C52	C	1.518232	-0.303221	-0.233115
C53	C	1.518404	-0.303071	-0.116338
H54	H	1.118209	-0.376155	-0.383942
H55	H	1.639997	-0.542704	-0.628040
C56	C	0.904432	-0.387113	-0.365587
C57	C	0.975915	-0.422309	-0.306610
C58	C	0.921207	-0.462558	-0.239169
H59	H	0.861629	-0.414629	-0.405583
H60	H	0.861644	-0.363021	-0.319832
H61	H	1.018685	-0.446400	-0.352360
H62	H	1.018721	-0.394810	-0.266593
H63	H	0.878419	-0.438465	-0.193413
H64	H	0.878405	-0.490069	-0.279173
H65	H	0.969700	-0.486439	-0.199138
H66	H	1.640309	-1.062808	-0.628198
H67	H	1.396531	-0.230061	-0.907121
C68	C	1.378317	-0.219027	-1.120883
C69	C	1.319517	-0.183768	-1.049368
C70	C	1.252334	-0.143411	-1.104039
H71	H	1.332430	-0.243024	-1.163672
H72	H	1.418524	-0.191560	-1.163683
H73	H	1.279313	-0.211231	-1.006587
H74	H	1.365376	-0.159758	-1.006577
H75	H	1.292542	-0.115944	-1.146838
H76	H	1.206455	-0.167414	-1.146826
H77	H	1.212438	-0.119479	-1.055524
H78	H	1.396299	-0.542956	-0.384042
H79	H	1.640056	-0.661970	-0.628089
H80	H	1.118404	-0.230253	-0.628217
H81	H	1.396387	-0.662227	-0.384076
H82	H	1.640219	-0.376122	-1.106118
C83	C	1.658498	-0.934711	-0.646532
C84	C	1.717307	-0.977507	-0.705464
C85	C	1.784478	-0.944691	-0.772853
H86	H	1.704378	-0.909056	-0.606500
H87	H	1.618281	-0.909079	-0.692318
H88	H	1.757520	-1.003129	-0.659683
H89	H	1.671454	-1.003163	-0.745516
H90	H	1.744262	-0.919059	-0.818639
H91	H	1.830352	-0.919037	-0.732814
H92	H	1.824381	-0.973723	-0.812853
H93	H	1.640178	-0.376165	-0.907051
H94	H	1.396632	-1.063065	-0.384186
H95	H	0.919357	-0.230265	-0.628227
H96	H	1.396564	-0.943796	-0.384145
