data_functionalizedCrystal
_audit_creation_method	'MofGen! by Chris Wilmer'
_symmetry_space_group_name_H-M	'P1'
_symmetry_Int_Tables_number	1
_symmetry_cell_setting	triclinic
loop_
_symmetry_equiv_pos_as_xyz
  x,y,z
_cell_length_a	12.645331
_cell_length_b	12.645330
_cell_length_c	12.645323
_cell_angle_alpha	89.975130
_cell_angle_beta	89.981990
_cell_angle_gamma	90.018103
loop_
_atom_site_label
_atom_site_type_symbol
_atom_site_fract_x
_atom_site_fract_y
_atom_site_fract_z
Zn1	Zn	1.620731	-0.422019	-0.599314
Zn2	Zn	1.620613	-0.599307	-0.422054
Zn3	Zn	1.443446	-0.422060	-0.422073
Zn4	Zn	1.443428	-0.599243	-0.599284
O5	O	1.532054	-0.510657	-0.510681
O6	O	1.769063	-0.445547	-0.575805
O7	O	1.597069	-0.575839	-0.273710
O8	O	1.467020	-0.273707	-0.445605
O9	O	1.768976	-0.575800	-0.445573
O10	O	1.597271	-0.273677	-0.575823
O11	O	1.466905	-0.445616	-0.273723
O12	O	1.295096	-0.445553	-0.445576
O13	O	1.466989	-0.575690	-0.747636
O14	O	1.295083	-0.575729	-0.575772
O15	O	1.597253	-0.445484	-0.747658
O16	O	1.597052	-0.747646	-0.445544
O17	O	1.466874	-0.747598	-0.575754
C18	C	1.256625	-0.510639	-0.510673
C19	C	1.138795	-0.510657	-0.510695
C20	C	1.093940	-0.592690	-0.592481
C21	C	0.971380	-0.593027	-0.592239
C22	C	0.970841	-0.540495	-0.398838
C23	C	1.093439	-0.541074	-0.399312
C24	C	1.093648	-0.398611	-0.539787
C25	C	0.971043	-0.399230	-0.542250
C26	C	1.531977	-0.786087	-0.510667
C27	C	1.532041	-0.903917	-0.510696
C28	C	1.450484	-1.071495	-0.592863
C29	C	1.450067	-0.948936	-0.592599
C30	C	1.501796	-0.948511	-0.398976
C31	C	1.501298	-1.071110	-0.399475
C32	C	1.644342	-1.071006	-0.539342
C33	C	1.643654	-0.948399	-0.541785
C34	C	1.808560	-0.510676	-0.510690
C35	C	1.926390	-0.510685	-0.510694
C36	C	1.532132	-0.510575	-0.787187
C37	C	1.532166	-0.510540	-0.905017
C38	C	1.532161	-0.234152	-0.510720
C39	C	1.532206	-0.116322	-0.510736
C40	C	1.449964	-0.592066	-1.072567
C41	C	1.450179	-0.592470	-0.950007
C42	C	1.643865	-0.540858	-0.949528
C43	C	1.643414	-0.541369	-1.072126
C44	C	1.503724	-0.398241	-1.072217
C45	C	1.501232	-0.398914	-0.949611
C46	C	1.532038	-0.510662	-0.235252
C47	C	1.532210	-0.510399	-0.117422
H48	H	1.124717	-0.675244	-0.573414
H49	H	1.124604	-0.371373	-0.619978
H50	H	1.707747	-0.917748	-0.486322
C51	C	1.728875	-0.463047	-0.910156
N52	N	1.792904	-0.404440	-0.880497
C53	C	0.929326	-0.649920	-0.365050
N54	N	0.898059	-0.732342	-0.339606
C55	C	1.726596	-1.110173	-0.458537
N56	N	1.788543	-1.139681	-0.397673
H57	H	1.367871	-1.102396	-0.574155
C58	C	1.132031	-0.651705	-0.366099
N59	N	1.161093	-0.735036	-0.341086
H60	H	1.366889	-0.573277	-1.102048
C61	C	0.931788	-0.368839	-0.653455
N62	N	0.902211	-0.345950	-0.737213
H63	H	1.366935	-0.919702	-0.573648
C64	C	1.390204	-0.367999	-0.910265
N65	N	1.306584	-0.344709	-0.880608
C66	C	1.475628	-0.908196	-0.704513
N67	N	1.494876	-0.877516	-0.788813
C68	C	0.931713	-0.705199	-0.566146
N69	N	0.901838	-0.789689	-0.546484
H70	H	1.706772	-0.484469	-1.101799
H71	H	0.941698	-0.482580	-0.336227
H72	H	1.671932	-1.101849	-0.619422
C73	C	1.133526	-0.463839	-0.314136
N74	N	1.163714	-0.405673	-0.249976
H75	H	0.940419	-0.334887	-0.487071
C76	C	1.576233	-0.312359	-0.908218
N77	N	1.632726	-0.247168	-0.877034
H78	H	1.122657	-0.337498	-0.480224
H79	H	0.941327	-0.574431	-0.675164
H80	H	1.469234	-1.100907	-0.675975
H81	H	1.123458	-0.574308	-0.675665
C82	C	1.390555	-1.109874	-0.366743
N83	N	1.307140	-1.139066	-0.342093
H84	H	1.558238	-1.100766	-0.336197
C85	C	1.677042	-0.650465	-0.908074
N86	N	1.702024	-0.733025	-0.876855
H87	H	1.559431	-0.919352	-0.336113
C88	C	1.676024	-0.652136	-1.110778
N89	N	1.700582	-0.735570	-1.139885
H90	H	1.420678	-0.917901	-0.374304
C91	C	1.475129	-0.703698	-1.114184
N92	N	1.494091	-0.787780	-1.145525
C93	C	1.674495	-0.908973	-0.652837
N94	N	1.697729	-0.879257	-0.736476
H95	H	1.423691	-0.370605	-1.103128
C96	C	1.338281	-0.566837	-0.909347
N97	N	1.253993	-0.547533	-0.878728
H98	H	1.468983	-0.675618	-0.920692
H99	H	1.563628	-0.337395	-1.101226
