data_functionalizedCrystal
_audit_creation_method	'MofGen! by Chris Wilmer'
_symmetry_space_group_name_H-M	'P1'
_symmetry_Int_Tables_number	1
_symmetry_cell_setting	triclinic
loop_
_symmetry_equiv_pos_as_xyz
  x,y,z
_cell_length_a	10.654554
_cell_length_b	14.044209
_cell_length_c	9.130313
_cell_angle_alpha	89.995778
_cell_angle_beta	90.000417
_cell_angle_gamma	91.162602
loop_
_atom_site_label
_atom_site_type_symbol
_atom_site_fract_x
_atom_site_fract_y
_atom_site_fract_z
O1	O	1.681219	-0.133249	0.121816
O2	O	1.317017	-0.145938	0.121819
O3	O	1.493653	-0.001573	0.121797
O4	O	1.504583	-0.277614	0.121839
O5	O	1.493651	-0.001577	-0.121802
O6	O	1.317015	-0.145942	-0.121780
O7	O	1.681217	-0.133253	-0.121782
Cu8	Cu	1.499116	-0.139598	-0.144024
Cu9	Cu	1.499118	-0.139593	0.144060
O10	O	1.504581	-0.277618	-0.121760
C11	C	1.270124	-0.145007	0.000020
C12	C	1.130401	-0.142217	0.000020
C13	C	0.938771	-0.051970	0.000019
C14	C	1.070056	-0.054591	0.000008
C15	C	1.059453	-0.227227	0.000026
C16	C	0.928171	-0.224605	0.000026
C17	C	0.878433	0.035661	0.000022
C18	C	0.949371	0.120672	0.000013
C19	C	1.080656	0.118051	0.000002
C20	C	1.141003	0.030419	0.000002
C21	C	1.488866	0.033771	-0.000005
C22	C	1.474592	0.139091	-0.000011
C23	C	1.448495	0.331925	0.000001
C24	C	1.549744	0.388891	0.000002
C25	C	1.535223	0.496190	0.000009
C26	C	1.463014	0.224616	-0.000006
C27	C	1.728110	-0.134184	0.000020
C28	C	1.867833	-0.136974	0.000030
C29	C	1.509370	0.687038	0.000033
C30	C	1.523653	0.581719	0.000015
N31	N	1.499123	-0.139600	-0.346646
C32	C	1.577362	-0.075697	-0.423308
C33	C	1.577357	-0.075686	-0.576645
C34	C	1.420872	-0.203489	-0.576645
C35	C	1.420871	-0.203495	-0.423311
C36	C	1.655614	-0.011803	-0.346644
C37	C	1.733860	0.052105	-0.423306
C38	C	1.733855	0.052116	-0.576642
C39	C	1.655605	-0.011780	-0.653317
N40	N	1.499120	-0.139583	0.346683
H41	H	0.900228	0.192018	0.000026
H42	H	0.771535	0.037805	0.000034
O43	O	1.332014	0.369757	-0.000198
C44	C	1.266366	0.339263	-0.126385
H45	H	1.308151	0.270363	-0.168446
H46	H	1.274641	0.396418	-0.214725
C47	C	1.075714	0.406445	-0.036414
C48	C	1.127028	0.321816	-0.088066
H49	H	0.989762	0.395686	-0.012781
H50	H	1.119942	0.426992	0.048598
H51	H	1.082621	0.454066	-0.110040
H52	H	1.120134	0.274200	-0.014435
H53	H	1.082795	0.301260	-0.173066
O54	O	1.118270	-0.312265	0.000107
C55	C	1.249355	-0.296351	0.000074
H56	H	1.271837	-0.222524	0.046175
H57	H	1.286363	-0.301192	-0.116790
C58	C	1.284571	-0.462830	0.039005
C59	C	1.312185	-0.372158	0.095638
H60	H	1.323330	-0.509593	0.097947
H61	H	1.196257	-0.473553	0.039021
H62	H	1.315413	-0.466851	-0.058381
H63	H	1.281330	-0.368134	0.193014
H64	H	1.400496	-0.361436	0.095640
O65	O	1.809971	0.114230	-0.650887
C66	C	1.879007	0.170637	-0.550334
H67	H	1.884778	0.131726	-0.441034
H68	H	1.830319	0.241393	-0.534022
C69	C	2.005307	0.237023	-0.744420
C70	C	2.012403	0.189229	-0.610180
H71	H	2.087590	0.248496	-0.781337
H72	H	1.958793	0.199024	-0.812166
H73	H	1.964728	0.295981	-0.730808
H74	H	2.052967	0.130268	-0.623796
H75	H	2.058927	0.227219	-0.542437
O76	O	1.666233	0.351056	-0.000211
C77	C	1.731869	0.381571	-0.126399
H78	H	1.690077	0.450477	-0.168445
H79	H	1.723590	0.324430	-0.214747
C80	C	1.922532	0.314382	-0.036456
C81	C	1.871209	0.399018	-0.088091
H82	H	2.008485	0.325140	-0.012830
H83	H	1.878312	0.293820	0.048557
H84	H	1.915621	0.266773	-0.110088
H85	H	1.878106	0.446622	-0.014453
H86	H	1.915434	0.419589	-0.173091
H87	H	1.138411	0.187270	-0.000019
H88	H	1.655627	-0.011808	-0.221789
O89	O	0.859443	-0.307265	0.000111
C90	C	0.940847	-0.385173	0.000088
H91	H	1.035986	-0.361740	0.046201
H92	H	0.953175	-0.411995	-0.116775
C93	C	0.767745	-0.494474	0.038996
C94	C	0.884594	-0.465696	0.095645
H95	H	0.733044	-0.544147	0.097934
H96	H	0.712900	-0.441987	0.039007
H97	H	0.778034	-0.516820	-0.058388
H98	H	0.874301	-0.443340	0.193020
H99	H	0.939436	-0.518182	0.095653
O100	O	1.344936	-0.265688	-0.650959
C101	C	1.375893	-0.359737	-0.613516
H102	H	1.424321	-0.359966	-0.502184
H103	H	1.441733	-0.389510	-0.699812
C104	C	1.195870	-0.421663	-0.743172
C105	C	1.255341	-0.421945	-0.606427
H106	H	1.121509	-0.460038	-0.738806
H107	H	1.175015	-0.358300	-0.768404
H108	H	1.250749	-0.446471	-0.815072
H109	H	1.200468	-0.397127	-0.534534
H110	H	1.276183	-0.485305	-0.581183
H111	H	1.247905	0.028292	-0.000020
H112	H	1.357161	-0.255530	-0.360892
H113	H	1.797562	0.104132	-0.360869
H114	H	1.655598	-0.011759	-0.778175
