data_functionalizedCrystal
_audit_creation_method	'MofGen! by Chris Wilmer'
_symmetry_space_group_name_H-M	'P1'
_symmetry_Int_Tables_number	1
_symmetry_cell_setting	triclinic
loop_
_symmetry_equiv_pos_as_xyz
  x,y,z
_cell_length_a	10.654550
_cell_length_b	19.188930
_cell_length_c	9.730223
_cell_angle_alpha	89.993564
_cell_angle_beta	89.996251
_cell_angle_gamma	83.814841
loop_
_atom_site_label
_atom_site_type_symbol
_atom_site_fract_x
_atom_site_fract_y
_atom_site_fract_z
O1	O	1.665759	0.098059	-0.114420
O2	O	1.300083	0.107401	-0.114400
O3	O	1.493474	0.001144	-0.114384
O4	O	1.472368	0.204317	-0.114436
O5	O	1.493471	0.001146	0.114196
O6	O	1.300081	0.107404	0.114180
O7	O	1.665757	0.098061	0.114160
Zn8	Zn	1.482918	0.102733	0.150462
Zn9	Zn	1.482921	0.102730	-0.150702
O10	O	1.472366	0.204319	0.114144
C11	C	1.253298	0.106717	-0.000107
C12	C	1.113898	0.104664	-0.000098
C13	C	1.492789	-0.024871	-0.000090
C14	C	1.490737	-0.102389	-0.000078
C15	C	1.033089	0.167227	-0.000134
C16	C	0.902109	0.165295	-0.000157
C17	C	0.932761	0.038231	-0.000114
C18	C	1.063738	0.040164	-0.000081
C19	C	1.083249	0.231728	-0.000151
C20	C	1.002438	0.294296	-0.000189
C21	C	0.871458	0.292363	-0.000212
C22	C	0.821289	0.227863	-0.000198
C23	C	1.604213	-0.146570	-0.000078
C24	C	1.602285	-0.219407	-0.000099
C25	C	1.486876	-0.248058	-0.000094
C26	C	1.373386	-0.203867	-0.000102
C27	C	1.375316	-0.131032	-0.000094
N28	N	1.398658	-0.356639	0.077701
N29	N	1.396832	-0.425830	0.077696
C30	C	1.481052	-0.467505	-0.000121
N31	N	1.567186	-0.437377	-0.077917
N32	N	1.569016	-0.368180	-0.077906
C33	C	1.484770	-0.327034	-0.000104
C34	C	1.592445	-0.590665	-0.000147
C35	C	1.590513	-0.663502	-0.000177
C36	C	1.361610	-0.647960	-0.000166
C37	C	1.363545	-0.575125	-0.000149
C38	C	1.478966	-0.546481	-0.000133
C39	C	1.712541	0.098746	-0.000136
C40	C	1.851941	0.100798	-0.000154
C41	C	1.473051	0.230334	-0.000153
C42	C	1.475102	0.307852	-0.000174
N43	N	1.482925	0.102735	0.355998
N44	N	1.482924	0.102722	-0.356238
C45	C	1.568581	0.055700	0.427932
C46	C	1.568577	0.055692	0.571815
C47	C	1.397260	0.149759	0.571818
C48	C	1.397258	0.149764	0.427938
C49	C	1.654248	0.008672	0.355992
C50	C	1.739911	-0.038367	0.427925
C51	C	1.739908	-0.038375	0.571808
C52	C	1.654242	0.008655	0.643758
H53	H	1.189898	0.233309	-0.000138
C54	C	1.834136	-0.090099	0.348789
C55	C	1.834158	-0.090089	0.190526
C56	C	1.928385	-0.141824	0.111394
C57	C	2.022590	-0.193569	0.190525
C58	C	2.022572	-0.193582	0.348796
C59	C	1.928345	-0.141847	0.427928
H60	H	1.764418	-0.051782	0.131941
H61	H	1.928397	-0.141814	-0.005770
H62	H	2.092342	-0.231866	0.131946
H63	H	2.092312	-0.231889	0.407381
H64	H	1.928332	-0.141857	0.545092
H65	H	1.682922	-0.699475	-0.000185
H66	H	1.129536	-0.010780	-0.000055
C67	C	1.057620	0.365243	-0.000202
C68	C	1.143427	0.384049	0.118500
C69	C	1.198605	0.454998	0.118488
C70	C	1.167977	0.507141	-0.000228
C71	C	1.082166	0.488337	-0.118939
C72	C	1.026987	0.417388	-0.118926
H73	H	1.166104	0.345448	0.206388
H74	H	1.262129	0.468917	0.206366
H75	H	1.208824	0.559662	-0.000237
H76	H	1.059489	0.526938	-0.206827
H77	H	0.963463	0.403468	-0.206804
H78	H	0.714635	0.226294	-0.000195
H79	H	0.805665	0.343309	-0.000229
C80	C	1.727115	-0.268019	-0.000085
C81	C	1.854070	-0.236513	-0.000065
C82	C	1.978899	-0.285122	-0.000046
C83	C	1.976772	-0.365237	-0.000047
C84	C	1.849811	-0.396747	-0.000068
C85	C	1.724983	-0.348138	-0.000087
H86	H	1.855649	-0.177203	-0.000064
H87	H	2.072883	-0.261796	-0.000031
H88	H	2.069177	-0.401221	-0.000033
H89	H	1.848232	-0.456057	-0.000069
H90	H	1.630998	-0.371464	-0.000102
H91	H	0.891902	-0.014283	-0.000125
H92	H	1.698197	-0.123254	-0.000069
H93	H	1.279418	-0.227199	-0.000101
H94	H	1.282908	-0.095058	-0.000094
C95	C	1.719400	-0.559149	-0.000143
C96	C	1.813554	-0.575587	0.118544
C97	C	1.940508	-0.544073	0.118549
C98	C	1.973309	-0.496120	-0.000132
C99	C	1.879154	-0.479680	-0.118828
C100	C	1.752199	-0.511194	-0.118833
H101	H	1.789274	-0.611087	0.206407
H102	H	2.010208	-0.556243	0.206416
H103	H	2.067289	-0.472791	-0.000129
H104	H	1.903433	-0.444180	-0.206691
H105	H	1.682499	-0.499024	-0.206700
H106	H	1.267641	-0.671287	-0.000168
H107	H	1.271141	-0.539151	-0.000142
H108	H	1.654261	0.008676	0.238835
H109	H	1.809649	-0.076680	0.630375
H110	H	1.654238	0.008639	0.760917
H111	H	1.327515	0.188050	0.630409
H112	H	1.327509	0.188064	0.369370
