data_functionalizedCrystal
_audit_creation_method	'MofGen! by Chris Wilmer'
_symmetry_space_group_name_H-M	'P1'
_symmetry_Int_Tables_number	1
_symmetry_cell_setting	triclinic
loop_
_symmetry_equiv_pos_as_xyz
  x,y,z
_cell_length_a	15.500227
_cell_length_b	14.044220
_cell_length_c	14.044220
_cell_angle_alpha	86.811122
_cell_angle_beta	86.913751
_cell_angle_gamma	86.902009
loop_
_atom_site_label
_atom_site_type_symbol
_atom_site_fract_x
_atom_site_fract_y
_atom_site_fract_z
O1	O	0.071855	-1.281229	0.226116
O2	O	0.071877	-1.004559	0.217809
O3	O	0.071858	-1.138741	0.083627
O4	O	0.071874	-1.147047	0.360298
O5	O	-0.072030	-1.130595	0.091735
O6	O	-0.072011	-0.996413	0.225917
O7	O	-0.072032	-1.273084	0.234223
Cu8	Cu	-0.085160	-1.134005	0.230810
Cu9	Cu	0.085004	-1.143638	0.221222
O10	O	-0.072013	-1.138902	0.368405
C11	C	-0.000064	-0.964865	0.218227
C12	C	-0.000056	-0.858722	0.207382
N13	N	-0.204844	-1.127236	0.237554
C14	C	-0.000086	-1.131032	0.052059
C15	C	-0.000086	-1.120188	-0.054084
C16	C	-0.250128	-1.184118	0.180721
C17	C	-0.340700	-1.179008	0.185831
C18	C	-0.385986	-1.117022	0.247779
C19	C	-0.340695	-1.060135	0.304614
C20	C	-0.250125	-1.065240	0.299499
C21	C	-0.659450	-1.098631	0.266191
C22	C	-0.750027	-1.093532	0.271304
C23	C	-0.750026	-1.212405	0.152519
C24	C	-0.659454	-1.217508	0.147413
C25	C	-0.614171	-1.160617	0.204245
C26	C	-0.478565	-1.111800	0.253006
C27	C	-0.521593	-1.165835	0.199013
N28	N	0.204688	-1.150413	0.214471
C29	C	-0.000089	-1.312778	0.233805
C30	C	-0.000092	-1.418921	0.244650
C31	C	-0.000074	-0.664383	0.187557
C32	C	-0.000073	-0.613254	0.264471
C33	C	-0.000084	-0.505117	0.253440
C34	C	-0.000064	-0.772530	0.198586
C35	C	-0.000072	-1.100362	-0.248422
C36	C	-0.000076	-1.177276	-0.299552
C37	C	-0.000068	-1.166245	-0.407688
C38	C	-0.000080	-1.111392	-0.140276
C39	C	-0.000068	-1.146610	0.399973
C40	C	-0.000062	-1.157455	0.506116
H41	H	-0.377571	-1.225324	0.139553
C42	C	0.073898	-0.993454	-0.360232
C43	C	-0.000069	-1.000291	-0.298960
H44	H	0.073892	-0.931677	-0.391444
H45	H	0.124064	-1.003769	-0.324305
H46	H	0.073891	-1.040274	-0.406513
H47	H	-0.000059	-0.953476	-0.252674
H48	H	-0.050248	-0.989966	-0.334889
H49	H	-0.622584	-1.267982	0.096970
C50	C	-0.777924	-1.252918	-0.006409
C51	C	-0.799804	-1.274924	0.090041
H52	H	-0.808652	-1.291518	-0.044984
H53	H	-0.792779	-1.187495	-0.021349
H54	H	-0.717501	-1.264834	-0.018307
H55	H	-0.860226	-1.263001	0.101940
H56	H	-0.784955	-1.340362	0.104986
C57	C	-0.442572	-0.926221	0.320021
C58	C	-0.390475	-0.991999	0.372708
H59	H	-0.473307	-0.884162	0.362064
H60	H	-0.407252	-0.890513	0.275372
H61	H	-0.482500	-0.959380	0.286909
H62	H	-0.350543	-0.958840	0.405815
H63	H	-0.425799	-1.027711	0.417374
C64	C	-0.259234	-1.301095	0.063815
C65	C	-0.200355	-1.252253	0.112623
H66	H	-0.228506	-1.343154	0.021767
H67	H	-0.294546	-1.336804	0.108473
H68	H	-0.294573	-1.256450	0.028089
H69	H	-0.165020	-1.296899	0.148354
H70	H	-0.165028	-1.216543	0.067958
C71	C	-0.000010	-0.762687	0.356250
C72	C	-0.000032	-0.663790	0.364549
H73	H	0.000029	-0.793887	0.418032
H74	H	-0.050194	-0.777804	0.325406
H75	H	0.050160	-0.783441	0.319697
H76	H	-0.050206	-0.643035	0.401097
H77	H	0.050157	-0.648666	0.395407
C78	C	-0.000077	-0.514955	0.095790
C79	C	-0.000075	-0.613849	0.087484
H80	H	-0.000070	-0.483752	0.034009
H81	H	-0.050254	-0.494187	0.132307
H82	H	0.050100	-0.499857	0.126675
H83	H	-0.050256	-0.628948	0.056605
H84	H	0.050107	-0.634625	0.050952
H85	H	-0.000023	-1.251413	-0.262116
C86	C	-0.740936	-0.976511	0.388184
C87	C	-0.799807	-1.025377	0.339388
H88	H	-0.771670	-0.934433	0.430206
H89	H	-0.705603	-1.021134	0.423925
H90	H	-0.705617	-0.940813	0.343509
H91	H	-0.835122	-1.061081	0.384063
H92	H	-0.835155	-0.980748	0.303644
C93	C	-0.259217	-0.947238	0.417435
C94	C	-0.200344	-1.002719	0.361976
H95	H	-0.228483	-0.908642	0.456009
H96	H	-0.294552	-0.907548	0.376767
H97	H	-0.294533	-0.987899	0.457154
H98	H	-0.165032	-0.962057	0.322252
H99	H	-0.164994	-1.042412	0.402649
C100	C	-0.557596	-1.094640	0.388615
C101	C	-0.609686	-1.036110	0.328677
H102	H	-0.526869	-1.056040	0.427191
H103	H	-0.592920	-1.135289	0.428321
H104	H	-0.517660	-1.132273	0.350977
H105	H	-0.649626	-0.998482	0.366314
H106	H	-0.574359	-0.995444	0.288966
C107	C	-0.419799	-1.181259	0.065064
C108	C	-0.471837	-1.233945	0.130881
H109	H	-0.389079	-1.223305	0.022997
H110	H	-0.455158	-1.136622	0.029370
H111	H	-0.379858	-1.148132	0.098190
H112	H	-0.511782	-1.267067	0.097755
H113	H	-0.436475	-1.278599	0.166579
H114	H	-0.515444	-1.061332	0.303447
