data_functionalizedCrystal
_audit_creation_method	'MofGen! by Chris Wilmer'
_symmetry_space_group_name_H-M	'P1'
_symmetry_Int_Tables_number	1
_symmetry_cell_setting	triclinic
loop_
_symmetry_equiv_pos_as_xyz
  x,y,z
_cell_length_a	14.908571
_cell_length_b	25.639239
_cell_length_c	14.908803
_cell_angle_alpha	86.718274
_cell_angle_beta	89.810884
_cell_angle_gamma	86.734636
loop_
_atom_site_label
_atom_site_type_symbol
_atom_site_fract_x
_atom_site_fract_y
_atom_site_fract_z
Zn1	Zn	1.345014	-0.272957	0.587534
Zn2	Zn	1.353584	-0.355625	0.437164
Zn3	Zn	1.203371	-0.262884	0.428535
Zn4	Zn	1.194580	-0.355031	0.578814
O5	O	1.274137	-0.311624	0.508012
O6	O	1.471973	-0.288387	0.574847
O7	O	1.340924	-0.339356	0.310197
O8	O	1.222253	-0.191059	0.449665
O9	O	1.478269	-0.349123	0.464371
O10	O	1.326318	-0.198460	0.566480
O11	O	1.230563	-0.271220	0.303858
O12	O	1.076383	-0.270644	0.441210
O13	O	1.207270	-0.348110	0.705793
O14	O	1.069924	-0.338343	0.551619
O15	O	1.317793	-0.287811	0.712199
O16	O	1.332399	-0.428707	0.455916
O17	O	1.215580	-0.428271	0.559985
C18	C	1.040529	-0.303336	0.494532
C19	C	0.940590	-0.299804	0.488787
C20	C	0.746124	-0.363761	0.592805
C21	C	0.652221	-0.360444	0.587410
C22	C	0.658880	-0.289850	0.472606
C23	C	0.752783	-0.293168	0.478001
C24	C	0.796401	-0.330125	0.538102
C25	C	0.890306	-0.333444	0.543492
C26	C	0.896962	-0.262848	0.428694
C27	C	0.803060	-0.259531	0.423298
C28	C	1.273989	-0.447460	0.507962
C29	C	1.274005	-0.505575	0.507975
C30	C	1.335110	-0.866167	0.453929
C31	C	1.335144	-0.920773	0.453943
O32	O	1.386943	-0.949197	0.407937
N33	N	1.274292	-0.947871	0.508080
C34	C	1.213408	-0.920360	0.562214
O35	O	1.161653	-0.948423	0.608263
C36	C	1.213379	-0.865756	0.562204
C37	C	1.274229	-0.838660	0.508057
C38	C	1.395955	-0.839072	0.399787
C39	C	1.395920	-0.784469	0.399772
C40	C	1.335039	-0.756963	0.453899
C41	C	1.274193	-0.784058	0.508041
C42	C	1.152500	-0.838246	0.616341
C43	C	1.152477	-0.783638	0.616327
C44	C	1.213326	-0.756543	0.562180
C45	C	1.213277	-0.701949	0.562153
N46	N	1.274129	-0.674851	0.508016
C47	C	1.335010	-0.702358	0.453889
C48	C	1.213475	-1.035034	0.562231
C49	C	1.213499	-1.089637	0.562237
C50	C	1.335236	-1.090046	0.453968
C51	C	1.335207	-1.035441	0.453958
C52	C	1.274327	-1.007936	0.508094
C53	C	1.334930	-0.587689	0.453861
C54	C	1.334887	-0.533082	0.453848
C55	C	1.213153	-0.532678	0.562121
C56	C	1.213193	-0.587280	0.562131
C57	C	1.274089	-0.614785	0.507998
O58	O	1.161507	-0.673490	0.608139
O59	O	1.386764	-0.674289	0.407856
C60	C	1.508658	-0.319945	0.521545
C61	C	1.608596	-0.323490	0.527312
C62	C	1.260595	-0.319018	0.742533
C63	C	1.254824	-0.322168	0.842472
C64	C	1.274310	-0.175259	0.508083
C65	C	1.274384	-0.117149	0.508113
C66	C	1.359066	-0.265287	1.036940
C67	C	1.353646	-0.268245	1.130842
C68	C	1.238562	-0.331041	1.124178
C69	C	1.243981	-0.328083	1.030276
C70	C	1.304236	-0.295205	0.986661
C71	C	1.309660	-0.292249	0.892758
C72	C	1.194571	-0.355042	0.886095
C73	C	1.189152	-0.358001	0.979997
C74	C	1.287622	-0.304271	1.274403
C75	C	1.293397	-0.301122	1.174464
H76	H	0.767533	-0.229441	0.374369
H77	H	1.149927	-0.379405	0.845148
H78	H	1.384757	-1.013384	0.409867
N79	N	0.951190	-0.226569	0.369681
H80	H	1.017296	-0.234278	0.382214
H81	H	0.934001	-0.189105	0.382844
N82	N	1.124158	-0.393449	1.027056
H83	H	1.158415	-0.420199	1.068119
H84	H	1.090253	-0.411919	0.980906
N85	N	0.937356	-0.373305	0.608306
H86	H	0.891253	-0.394109	0.642143
H87	H	0.973940	-0.354750	0.652220
N88	N	0.793172	-0.403624	0.657617
H89	H	0.829755	-0.385109	0.701591
H90	H	0.834166	-0.428029	0.623165
N91	N	0.597992	-0.396724	0.646408
H92	H	0.639876	-0.420638	0.685297
H93	H	0.561121	-0.418354	0.607492
H94	H	0.623349	-0.259759	0.423681
H95	H	1.384438	-0.511023	0.409752
N96	N	1.400609	-0.617350	0.395478
H97	H	1.439143	-0.591893	0.361180
H98	H	1.366464	-0.637429	0.351732
H99	H	1.445471	-0.762412	0.355684
H100	H	1.445537	-0.861462	0.355710
N101	N	1.400903	-1.119719	0.395585
H102	H	1.391685	-1.158422	0.403814
H103	H	1.464291	-1.112854	0.413335
N104	N	1.147854	-1.118857	0.620622
H105	H	1.109283	-1.093141	0.654904
H106	H	1.182022	-1.144091	0.664383
H107	H	1.163892	-1.012641	0.606313
H108	H	1.102901	-0.761246	0.660415
H109	H	1.102945	-0.860298	0.660430
N110	N	1.147555	-0.616508	0.620520
H111	H	1.108980	-0.590794	0.654803
H112	H	1.181733	-0.641737	0.664279
H113	H	1.163582	-0.510273	0.606188
N114	N	1.173541	-0.366477	1.171226
H115	H	1.178418	-0.363802	1.238340
H116	H	1.188406	-0.403802	1.155625
H117	H	1.408132	-0.238519	1.001428
N118	N	1.374649	-0.256793	0.845711
H119	H	1.408558	-0.238288	0.891815
H120	H	1.340326	-0.230074	0.804650
N121	N	1.412775	-0.235972	1.185073
H122	H	1.451763	-0.214695	1.143190
H123	H	1.452114	-0.259952	1.226427
