data_functionalizedCrystal
_audit_creation_method	'MofGen! by Chris Wilmer'
_symmetry_space_group_name_H-M	'P1'
_symmetry_Int_Tables_number	1
_symmetry_cell_setting	triclinic
loop_
_symmetry_equiv_pos_as_xyz
  x,y,z
_cell_length_a	14.044220
_cell_length_b	11.892095
_cell_length_c	12.837942
_cell_angle_alpha	85.697431
_cell_angle_beta	85.991091
_cell_angle_gamma	85.750402
loop_
_atom_site_label
_atom_site_type_symbol
_atom_site_fract_x
_atom_site_fract_y
_atom_site_fract_z
O1	O	1.285971	-0.093880	-0.245911
O2	O	1.009182	-0.093908	-0.236815
O3	O	1.141439	-0.093888	-0.089893
O4	O	1.153714	-0.093900	-0.392833
O5	O	1.130409	0.094118	-0.102123
O6	O	0.998153	0.094097	-0.249045
O7	O	1.274942	0.094126	-0.258141
Zn8	Zn	1.134796	0.123962	-0.255535
Zn9	Zn	1.149328	-0.123744	-0.239422
O10	O	1.142685	0.094105	-0.405063
C11	C	0.967994	0.000091	-0.238949
C12	C	0.861696	0.000080	-0.227074
N13	N	1.124886	0.293014	-0.266531
N14	N	1.159245	-0.292797	-0.228418
C15	C	0.667072	0.000103	-0.205367
C16	C	0.617046	0.000104	-0.289584
C17	C	0.508751	0.000117	-0.277506
C18	C	0.775377	0.000090	-0.217443
C19	C	1.316130	0.000124	-0.256007
C20	C	1.422428	0.000128	-0.267882
C21	C	1.131777	0.000114	-0.057004
C22	C	1.119410	0.000111	0.059217
C23	C	1.228200	0.529678	-0.151838
C24	C	1.221281	0.648019	-0.159533
C25	C	1.104122	0.648039	-0.289609
C26	C	1.111042	0.529698	-0.281915
C27	C	1.173084	0.470522	-0.213028
C28	C	1.180008	0.352179	-0.205339
C29	C	1.062846	0.352201	-0.335410
C30	C	1.055926	0.470542	-0.343104
C31	C	1.152347	0.000101	-0.437952
C32	C	1.164714	0.000097	-0.554172
C33	C	1.268090	0.000103	0.286428
C34	C	1.256474	0.000100	0.395628
C35	C	1.084564	0.000094	0.386820
C36	C	1.096180	0.000097	0.277620
C37	C	1.187946	0.000103	0.227427
C38	C	1.199560	0.000114	0.118225
C39	C	1.027652	0.000100	0.109419
C40	C	1.016036	0.000097	0.218619
H41	H	0.655549	0.000096	-0.370756
O42	O	0.926842	0.000241	0.267251
C43	C	0.871693	0.097627	0.231581
H44	H	0.902666	0.130095	0.151439
H45	H	0.794742	0.075728	0.225235
H46	H	0.873073	0.165804	0.289223
O47	O	0.995490	-0.000069	0.435719
C48	C	0.989340	-0.097460	0.504925
H49	H	1.064135	-0.129920	0.527202
H50	H	0.943520	-0.075572	0.578437
H51	H	0.955391	-0.165640	0.465100
H52	H	1.321736	0.000096	0.443662
O53	O	0.949898	0.000046	0.051952
C54	C	0.979822	0.000082	-0.055197
H55	H	1.057364	-0.035507	-0.064016
H56	H	0.932542	-0.054500	-0.095965
H57	H	0.973755	0.090280	-0.092254
O58	O	1.009344	0.294560	-0.394751
C59	C	1.028777	0.177419	-0.373218
H60	H	1.057931	0.161246	-0.292376
H61	H	0.960074	0.132449	-0.375206
H62	H	1.084038	0.143840	-0.434660
O63	O	0.621000	0.000055	-0.108607
C64	C	0.521563	0.000092	-0.117939
H65	H	0.507728	-0.035494	-0.195080
H66	H	0.488489	-0.054493	-0.050066
H67	H	0.488064	0.090290	-0.116219
H68	H	1.278724	0.481496	-0.095756
O69	O	1.240157	0.294768	-0.138256
C70	C	1.213563	0.323749	-0.035229
H71	H	1.135079	0.356275	-0.029745
H72	H	1.224370	0.245946	0.021300
H73	H	1.259735	0.392457	-0.013932
O74	O	1.274919	0.705309	-0.100051
C75	C	1.331138	0.627697	-0.037581
H76	H	1.341025	0.543339	-0.075058
H77	H	1.404034	0.661877	-0.030952
H78	H	1.293818	0.615115	0.043778
H79	H	1.053602	0.696235	-0.345688
O80	O	0.995523	0.527982	-0.409896
C81	C	0.901059	0.499056	-0.382238
H82	H	0.894933	0.466520	-0.296386
H83	H	0.849621	0.576890	-0.394855
H84	H	0.882234	0.430372	-0.433106
O85	O	1.288727	-0.000086	0.069525
C86	C	1.343887	-0.097445	0.105237
H87	H	1.294386	-0.165498	0.137103
H88	H	1.392429	-0.130130	0.037546
H89	H	1.389450	-0.075435	0.169939
O90	O	1.357295	0.000060	0.237834
C91	C	1.425542	0.000094	0.313324
H92	H	1.394153	-0.035501	0.392190
H93	H	1.492214	-0.054486	0.288400
H94	H	1.445447	0.090291	0.320426
