data_functionalizedCrystal
_audit_creation_method	'MofGen! by Chris Wilmer'
_symmetry_space_group_name_H-M	'P1'
_symmetry_Int_Tables_number	1
_symmetry_cell_setting	triclinic
loop_
_symmetry_equiv_pos_as_xyz
  x,y,z
_cell_length_a	14.853566
_cell_length_b	14.853559
_cell_length_c	15.186229
_cell_angle_alpha	89.998446
_cell_angle_beta	89.999490
_cell_angle_gamma	83.632934
loop_
_atom_site_label
_atom_site_type_symbol
_atom_site_fract_x
_atom_site_fract_y
_atom_site_fract_z
O1	O	1.196361	0.117698	-0.073166
O2	O	0.933900	0.131721	-0.073180
O3	O	1.072145	-0.006521	-0.073172
O4	O	1.058116	0.255940	-0.073174
O5	O	1.072136	-0.006523	0.073286
O6	O	0.933891	0.131719	0.073277
O7	O	1.196351	0.117696	0.073291
Zn8	Zn	1.065120	0.124707	0.096538
Zn9	Zn	1.065132	0.124710	-0.096426
O10	O	1.058107	0.255938	0.073283
C11	C	0.900307	0.131085	0.000047
C12	C	0.800223	0.129181	0.000041
C13	C	1.071506	-0.040111	0.000055
C14	C	1.069605	-0.140195	0.000050
C15	C	0.377044	0.121132	-0.079777
C16	C	0.377055	0.121130	0.079896
C17	C	0.471089	0.122917	0.079894
C18	C	0.518105	0.123813	0.000054
C19	C	0.471086	0.122922	-0.079782
C20	C	0.518113	0.123818	0.159729
C21	C	0.612153	0.125607	0.159729
C22	C	0.659171	0.126496	0.079889
C23	C	0.612147	0.125604	0.000049
C24	C	0.659163	0.126499	-0.079790
C25	C	0.612141	0.125600	-0.159631
C26	C	0.518104	0.123811	-0.159622
C27	C	0.753208	0.128285	0.079881
C28	C	0.753205	0.128290	-0.079795
C29	C	1.061547	-0.563369	-0.079784
C30	C	1.061537	-0.563366	0.079889
C31	C	1.063330	-0.469332	0.079890
C32	C	1.064230	-0.422313	0.000053
C33	C	1.063338	-0.469326	-0.079786
C34	C	1.064214	-0.422310	0.159727
C35	C	1.066006	-0.328271	0.159731
C36	C	1.066913	-0.281251	0.079893
C37	C	1.066021	-0.328270	0.000051
C38	C	1.066922	-0.281251	-0.079787
C39	C	1.066036	-0.328270	-0.159629
C40	C	1.064245	-0.422306	-0.159624
C41	C	1.068705	-0.187214	0.079888
C42	C	1.068713	-0.187208	-0.079788
C43	C	1.229945	0.118332	0.000063
C44	C	1.330028	0.120236	0.000062
C45	C	1.058745	0.289528	0.000054
C46	C	1.060646	0.389612	0.000053
N47	N	1.065118	0.124705	0.228230
N48	N	1.065141	0.124705	-0.228119
C49	C	1.126354	0.063512	0.453957
C50	C	1.126357	0.063510	0.546146
C51	C	1.003899	0.185901	0.546148
C52	C	1.003892	0.185898	0.453960
C53	C	1.065125	0.124704	0.407867
C54	C	1.065134	0.124705	0.592244
C55	C	1.065137	0.124703	0.692201
C56	C	1.065121	0.124705	0.307904
H57	H	0.791479	0.129016	-0.144811
F58	F	0.938717	0.251026	0.404904
F59	F	0.468071	0.122875	0.244693
F60	F	0.938736	0.251026	0.595210
H61	H	1.176213	0.013681	0.583670
H62	H	1.063523	-0.460597	-0.224628
F63	F	1.069645	-0.137178	0.164855
H64	H	0.338769	0.120407	0.144898
H65	H	0.650430	0.126337	0.224740
H66	H	1.066763	-0.289973	-0.224633
H67	H	0.650432	0.126336	-0.224636
H68	H	1.060829	-0.601656	-0.144790
F69	F	1.191521	-0.001617	0.404904
F70	F	0.327004	0.120153	-0.164745
H71	H	0.479811	0.123078	-0.224624
H72	H	1.063476	-0.460600	0.224726
F73	F	0.803247	0.129249	0.164846
F74	F	1.069677	-0.137175	-0.164764
F75	F	1.060565	-0.613408	0.164853
H76	H	1.066731	-0.289997	0.224744
