data_functionalizedCrystal
_audit_creation_method	'MofGen! by Chris Wilmer'
_symmetry_space_group_name_H-M	'P1'
_symmetry_Int_Tables_number	1
_symmetry_cell_setting	triclinic
loop_
_symmetry_equiv_pos_as_xyz
  x,y,z
_cell_length_a	27.731994
_cell_length_b	15.944551
_cell_length_c	14.421503
_cell_angle_alpha	89.996660
_cell_angle_beta	89.998531
_cell_angle_gamma	96.940364
loop_
_atom_site_label
_atom_site_type_symbol
_atom_site_fract_x
_atom_site_fract_y
_atom_site_fract_z
O1	O	0.641379	-0.099716	-0.076982
O2	O	1.141379	0.400284	0.423018
O3	O	0.500648	-0.114960	-0.077013
O4	O	1.000648	0.385040	0.422987
O5	O	0.574857	0.014988	-0.076988
O6	O	1.074857	0.514988	0.423012
O7	O	0.567171	-0.229664	-0.077006
O8	O	1.067171	0.270336	0.422994
O9	O	0.574844	0.014969	0.077235
O10	O	1.074844	0.514969	0.577235
O11	O	0.500636	-0.114980	0.077211
O12	O	1.000636	0.385020	0.577211
O13	O	0.641367	-0.099735	0.077242
O14	O	1.141367	0.400265	0.577242
Cu15	Cu	0.571000	-0.107359	0.091308
Cu16	Cu	1.071000	0.392641	0.591308
Cu17	Cu	0.571015	-0.107336	-0.091079
Cu18	Cu	1.071015	0.392664	0.408921
O19	O	0.567158	-0.229684	0.077217
O20	O	1.067158	0.270316	0.577217
C21	C	0.482633	-0.114657	0.000095
C22	C	0.982633	0.385343	0.500095
C23	C	0.428973	-0.113715	0.000084
C24	C	0.928973	0.386285	0.500084
C25	C	0.096222	-0.107790	0.084187
C26	C	0.596222	0.392210	0.584187
C27	C	-0.105452	-0.104207	0.084198
C28	C	0.394548	0.395793	0.584198
O29	O	-0.131532	-0.103717	0.155694
O30	O	0.368468	0.396283	0.655694
N31	N	-0.130662	-0.103752	0.000131
N32	N	0.369338	0.396248	0.500131
C33	C	-0.105450	-0.104187	-0.083945
C34	C	0.394550	0.395813	0.416055
O35	O	-0.131520	-0.103708	-0.155449
O36	O	0.368480	0.396292	0.344551
C37	C	0.096223	-0.107763	-0.083955
C38	C	0.596223	0.392237	0.416045
C39	C	0.121430	-0.108227	0.000118
C40	C	0.621430	0.391773	0.500118
C41	C	0.121429	-0.108253	0.168253
C42	C	0.621429	0.391747	0.668253
C43	C	0.171844	-0.109153	0.168249
C44	C	0.671844	0.390847	0.668249
C45	C	0.197052	-0.109590	0.084180
C46	C	0.697052	0.390410	0.584180
C47	C	0.171845	-0.109127	0.000114
C48	C	0.671845	0.390873	0.500114
C49	C	0.121435	-0.108192	-0.168030
C50	C	0.621435	0.391808	0.331970
C51	C	0.171856	-0.109084	-0.168025
C52	C	0.671856	0.390916	0.331975
C53	C	0.197063	-0.109547	-0.083952
C54	C	0.697063	0.390453	0.416048
C55	C	0.247468	-0.110464	-0.083959
C56	C	0.747468	0.389536	0.416041
N57	N	0.272678	-0.110920	0.000108
N58	N	0.772678	0.389080	0.500108
C59	C	0.247470	-0.110483	0.084178
C60	C	0.747470	0.389517	0.584178
C61	C	-0.211331	-0.102311	-0.083934
C62	C	0.288669	0.397689	0.416066
C63	C	-0.261750	-0.101418	-0.083932
C64	C	0.238250	0.398582	0.416068
C65	C	-0.261748	-0.101437	0.084211
C66	C	0.238252	0.398563	0.584211
C67	C	-0.211329	-0.102336	0.084208
C68	C	0.288671	0.397664	0.584208
C69	C	-0.186121	-0.102766	0.000133
C70	C	0.313879	0.397234	0.500133
C71	C	0.353345	-0.112374	0.084164
C72	C	0.853345	0.387626	0.584164
C73	C	0.403765	-0.113277	0.084153
C74	C	0.903765	0.386723	0.584153
C75	C	0.403759	-0.113254	-0.083990
C76	C	0.903759	0.386746	0.416010
C77	C	0.353344	-0.112354	-0.083979
C78	C	0.853344	0.387646	0.416021
C79	C	0.328138	-0.111912	0.000105
C80	C	0.828138	0.388088	0.500105
O81	O	0.273580	-0.110946	-0.155417
O82	O	0.773580	0.389054	0.344583
O83	O	0.273550	-0.110942	0.155671
O84	O	0.773550	0.389058	0.655671
C85	C	0.045807	-0.106890	0.084191
C86	C	0.545807	0.393110	0.584191
C87	C	0.020600	-0.106427	0.000125
C88	C	0.520600	0.393573	0.500125
C89	C	0.045808	-0.106864	-0.083945
C90	C	0.545808	0.393136	0.416055
C91	C	-0.029818	-0.105534	0.000127
C92	C	0.470182	0.394466	0.500127
C93	C	-0.055026	-0.105097	0.084196
C94	C	0.444974	0.394903	0.584196
C95	C	-0.029816	-0.105552	0.168263
C96	C	0.470184	0.394448	0.668263
C97	C	0.020599	-0.106452	0.168260
C98	C	0.520599	0.393548	0.668260
C99	C	0.020598	-0.106408	-0.168012
C100	C	0.520598	0.393592	0.331988
C101	C	-0.029817	-0.105509	-0.168001
C102	C	0.470183	0.394491	0.331999
C103	C	-0.055025	-0.105072	-0.083932
C104	C	0.444975	0.394928	0.416068
C105	C	0.574531	0.046268	0.000124
C106	C	1.074531	0.546268	0.500124
C107	C	0.573575	0.139501	0.000124
C108	C	1.073575	0.639501	0.500124
C109	C	0.659382	-0.100039	0.000132
C110	C	1.159382	0.399961	0.500132
C111	C	0.713042	-0.100981	0.000137
C112	C	1.213042	0.399019	0.500137
C113	C	0.567484	-0.260964	0.000103
C114	C	1.067484	0.239036	0.500103
C115	C	0.568440	-0.354197	0.000097
C116	C	1.068440	0.145803	0.500097
N117	N	0.570993	-0.107375	0.219589
N118	N	1.070993	0.392625	0.719589
C119	C	0.525290	0.353710	0.000101
C120	C	1.025290	0.853710	0.500101
C121	C	0.547706	0.415019	0.076147
C122	C	1.047706	0.915019	0.576147
C123	C	0.571844	0.310204	0.000117
C124	C	1.071844	0.810204	0.500117
C125	C	0.547729	0.415022	-0.075905
C126	C	1.047729	0.915022	0.424095
C127	C	0.570169	0.475094	0.000105
C128	C	1.070169	0.975094	0.500105
C129	C	0.594273	0.370285	0.076226
C130	C	1.094273	0.870285	0.576226
C131	C	0.594289	0.370281	-0.075895
C132	C	1.094289	0.870281	0.424105
C133	C	0.616739	0.431572	0.000170
C134	C	1.116739	0.931572	0.500170
C135	C	0.572808	0.215215	0.000124
C136	C	1.072808	0.715215	0.500124
C137	C	0.569209	0.570083	0.000105
C138	C	1.069209	1.070083	0.500105
N139	N	0.571025	-0.107314	-0.219360
N140	N	1.071025	0.392686	0.280640
C141	C	0.536673	-0.167436	0.469232
C142	C	1.036673	0.332564	0.969232
C143	C	0.580352	-0.183158	0.531043
C144	C	1.080352	0.316842	1.031043
C145	C	0.571005	-0.107355	0.408751
C146	C	1.071005	0.392645	0.908751
C147	C	0.527338	-0.091653	0.531034
C148	C	1.027338	0.408347	1.031034
C149	C	0.571013	-0.107337	0.591472
C150	C	1.071013	0.392663	1.091472
C151	C	0.614706	-0.123113	0.469201
C152	C	1.114706	0.376887	0.969201
C153	C	0.561663	-0.031576	0.469187
C154	C	1.061663	0.468424	0.969187
C155	C	0.605373	-0.047265	0.530970
C156	C	1.105373	0.452735	1.030970
C157	C	0.571000	-0.107367	0.303490
C158	C	1.071000	0.392633	0.803490
C159	C	0.571023	-0.107324	0.696731
C160	C	1.071023	0.392676	1.196731
H161	H	0.332829	-0.112021	0.152633
H162	H	0.832829	0.387979	0.652633
Cl163	Cl	0.465631	0.301485	0.000199
Cl164	Cl	0.965631	0.801485	0.500199
Cl165	Cl	0.435459	-0.113798	-0.189671
Cl166	Cl	0.935459	0.386202	0.310329
Cl167	Cl	0.517324	0.445645	-0.175158
Cl168	Cl	1.017324	0.945645	0.324842
Cl169	Cl	-0.061500	-0.104931	-0.273704
Cl170	Cl	0.438500	0.395069	0.226296
Cl171	Cl	0.203525	-0.109730	0.273946
Cl172	Cl	0.703525	0.390270	0.773946
Cl173	Cl	0.089747	-0.107708	0.273955
Cl174	Cl	0.589747	0.392292	0.773955
H175	H	0.041118	-0.106762	-0.236472
H176	H	0.541118	0.393238	0.263528
H177	H	0.613941	0.350550	0.140588
H178	H	1.113941	0.850550	0.640588
Cl179	Cl	-0.179649	-0.102854	-0.189640
Cl180	Cl	0.320351	0.397146	0.310360
Cl181	Cl	0.203543	-0.109623	-0.273726
Cl182	Cl	0.703543	0.390377	0.226274
Cl183	Cl	0.650250	0.031196	0.572568
Cl184	Cl	1.150250	0.531196	1.072568
Cl185	Cl	0.592563	-0.282085	0.572993
Cl186	Cl	1.092563	0.217915	1.072993
H187	H	0.613968	0.350422	-0.140181
H188	H	1.113968	0.850422	0.359819
H189	H	-0.282281	-0.101083	0.152664
H190	H	0.217719	0.398917	0.652664
Cl191	Cl	0.671739	-0.143722	0.427449
Cl192	Cl	1.171739	0.356278	0.927449
H193	H	0.332818	-0.111990	-0.152438
H194	H	0.832818	0.388010	0.347562
H195	H	0.655415	0.465250	0.000222
H196	H	1.155415	0.965250	0.500222
Cl197	Cl	0.517299	0.445646	0.175395
Cl198	Cl	1.017299	0.945646	0.675395
H199	H	0.100920	-0.107813	-0.236491
H200	H	0.600920	0.392187	0.263509
H201	H	-0.282270	-0.101054	-0.152392
H202	H	0.217730	0.398946	0.347608
H203	H	0.507670	-0.218285	0.442124
H204	H	1.007670	0.281715	0.942124
H205	H	0.553741	0.032480	0.441995
H206	H	1.053741	0.532480	0.941995
H207	H	-0.050350	-0.105201	0.236716
H208	H	0.449650	0.394799	0.736716
Cl209	Cl	0.435450	-0.113863	0.189852
Cl210	Cl	0.935450	0.386137	0.689852
Cl211	Cl	-0.179646	-0.102916	0.189903
Cl212	Cl	0.320354	0.397084	0.689903
Cl213	Cl	0.052280	-0.107034	0.273957
Cl214	Cl	0.552280	0.392966	0.773957
H215	H	0.490407	-0.078380	0.558197
H216	H	0.990407	0.421620	1.058197
