data_functionalizedCrystal
_audit_creation_method	'MofGen! by Chris Wilmer'
_symmetry_space_group_name_H-M	'P1'
_symmetry_Int_Tables_number	1
_symmetry_cell_setting	triclinic
loop_
_symmetry_equiv_pos_as_xyz
  x,y,z
_cell_length_a	16.625546
_cell_length_b	19.077300
_cell_length_c	19.076919
_cell_angle_alpha	85.332737
_cell_angle_beta	92.269917
_cell_angle_gamma	92.272239
loop_
_atom_site_label
_atom_site_type_symbol
_atom_site_fract_x
_atom_site_fract_y
_atom_site_fract_z
Zn1	Zn	-0.386172	-1.061661	-0.355292
Zn2	Zn	-0.515798	-1.066320	-0.237408
Zn3	Zn	-0.375787	-0.948519	-0.242156
Zn4	Zn	-0.515763	-0.943752	-0.359987
O5	O	-0.448380	-1.005063	-0.298711
O6	O	-0.407728	-1.160925	-0.335702
O7	O	-0.492894	-1.054638	-0.139390
O8	O	-0.264335	-0.963573	-0.257186
O9	O	-0.502964	-1.164348	-0.249093
O10	O	-0.271965	-1.046698	-0.340306
O11	O	-0.390028	-0.968090	-0.142879
O12	O	-0.389994	-0.849241	-0.261739
O13	O	-0.502904	-0.955448	-0.458011
O14	O	-0.492833	-0.845738	-0.348309
O15	O	-0.407694	-1.042076	-0.454562
O16	O	-0.628623	-1.050016	-0.253646
O17	O	-0.628597	-0.959966	-0.343704
C18	C	-0.440283	-0.821912	-0.306049
C19	C	-0.436840	-0.743558	-0.309205
C20	C	-0.412080	-0.302318	-0.331852
C21	C	-0.415330	-0.375939	-0.328882
C22	C	-0.466452	-0.414526	-0.282232
C23	C	-0.514332	-0.379487	-0.238553
C24	C	-0.511085	-0.305867	-0.241527
C25	C	-0.481473	-0.634899	-0.268500
C26	C	-0.484715	-0.708524	-0.265528
C27	C	-0.385714	-0.704971	-0.355858
C28	C	-0.382468	-0.631349	-0.358825
C29	C	-0.430351	-0.596317	-0.315149
N30	N	-0.469773	-0.489780	-0.279194
N31	N	-0.427033	-0.521065	-0.318191
C32	C	-0.657867	-1.004998	-0.298684
C33	C	-0.747490	-1.005033	-0.298693
C34	C	-1.075674	-1.005153	-0.298762
C35	C	-0.984363	-1.005117	-0.298745
C36	C	-0.911585	-1.005093	-0.298727
C37	C	-0.820268	-1.005058	-0.298711
C38	C	-0.238077	-1.005147	-0.298752
C39	C	-0.148458	-1.005183	-0.298770
C40	C	-0.456453	-0.997711	-0.482580
C41	C	-0.459894	-0.994577	-0.560934
C42	C	-0.456504	-0.188930	-0.291337
C43	C	-0.459955	-0.267284	-0.288175
C44	C	-0.411942	-1.038205	-0.595951
C45	C	-0.415171	-1.035253	-0.669573
C46	C	-0.466357	-0.988675	-0.708178
C47	C	-0.514311	-0.945042	-0.673156
C48	C	-0.511077	-0.947992	-0.599536
C49	C	-0.481340	-0.975014	-0.928554
C50	C	-0.484572	-0.972069	-1.002179
C51	C	-0.385431	-1.062279	-0.998591
C52	C	-0.382205	-1.065228	-0.924969
C53	C	-0.430156	-1.021592	-0.889954
N54	N	-0.469661	-0.985658	-0.783432
N55	N	-0.426847	-1.024607	-0.814701
C56	C	-0.440282	-1.012428	-0.115555
C57	C	-0.436620	-1.015697	-0.037196
H58	H	-0.340843	-0.599937	-0.396815
N59	N	-0.336460	-1.106845	-1.034369
N60	N	-0.339352	-1.104209	-1.100101
H61	H	-0.304763	-1.135684	-1.125371
N62	N	-0.530359	-0.599110	-0.223877
N63	N	-0.527454	-0.533378	-0.226530
H64	H	-0.561978	-0.508098	-0.195010
N65	N	-0.336810	-0.740768	-0.400464
N66	N	-0.339712	-0.806500	-0.397804
H67	H	-0.305173	-0.831782	-0.429310
N68	N	-0.566540	-0.418913	-0.190901
N69	N	-0.537925	-0.461783	-0.144368
H70	H	-0.574796	-0.489628	-0.110711
H71	H	-0.526347	-0.739940	-0.227538
H72	H	-0.550071	-0.277343	-0.205962
N73	N	-0.536838	-0.924462	-1.041605
N74	N	-0.579628	-0.885490	-1.010335
H75	H	-0.616529	-0.851861	-1.038179
N76	N	-0.359657	-1.085793	-0.556531
N77	N	-0.316846	-1.124741	-0.587808
H78	H	-0.279916	-1.158350	-0.559970
N79	N	-0.366183	-1.079823	-0.705330
N80	N	-0.320490	-1.121410	-0.670853
H81	H	-0.285890	-1.152891	-0.696105
H82	H	-0.340526	-1.103158	-0.893541
H83	H	-0.520397	-0.939493	-0.900053
H84	H	-0.555984	-0.907115	-0.704594
N85	N	-0.560047	-0.903418	-0.563765
N86	N	-0.552178	-0.838044	-0.574590
H87	H	-0.586761	-0.806559	-0.549327
N88	N	-0.359870	-0.262912	-0.379518
N89	N	-0.368569	-0.268557	-0.444223
H90	H	-0.331699	-0.240727	-0.477893
N91	N	-0.366430	-0.411714	-0.373509
N92	N	-0.320791	-0.377253	-0.415159
H93	H	-0.286255	-0.402518	-0.446682
