data_functionalizedCrystal
_audit_creation_method	'MofGen! by Chris Wilmer'
_symmetry_space_group_name_H-M	'P1'
_symmetry_Int_Tables_number	1
_symmetry_cell_setting	triclinic
loop_
_symmetry_equiv_pos_as_xyz
  x,y,z
_cell_length_a	10.654556
_cell_length_b	15.538191
_cell_length_c	9.730223
_cell_angle_alpha	89.998968
_cell_angle_beta	89.998368
_cell_angle_gamma	65.879815
loop_
_atom_site_label
_atom_site_type_symbol
_atom_site_fract_x
_atom_site_fract_y
_atom_site_fract_z
O1	O	1.606154	0.131943	-0.114225
O2	O	1.234805	0.144505	-0.114238
O3	O	1.492766	0.001568	-0.114236
O4	O	1.348193	0.274880	-0.114228
O5	O	1.492755	0.001564	0.114344
O6	O	1.234794	0.144501	0.114342
O7	O	1.606144	0.131939	0.114355
Zn8	Zn	1.420467	0.138219	0.150640
Zn9	Zn	1.420481	0.138224	-0.150524
O10	O	1.348183	0.274876	0.114352
C11	C	1.188433	0.143579	0.000050
C12	C	1.050282	0.140816	0.000045
C13	C	0.855561	0.136927	-0.124544
C14	C	0.985372	0.139518	-0.124552
C15	C	0.985380	0.139513	0.124658
C16	C	0.855575	0.136916	0.124665
C17	C	1.507886	-0.033431	0.000050
C18	C	1.552942	-0.137709	0.000038
C19	C	1.105326	-0.428432	0.000052
C20	C	1.147694	-0.526420	0.000057
C21	C	1.386006	-0.547302	0.000064
C22	C	1.343657	-0.449313	0.000053
C23	C	1.203316	-0.389886	0.000049
C24	C	1.441647	-0.410767	0.000049
C25	C	1.399302	-0.312787	0.000045
C26	C	1.258966	-0.253354	0.000045
C27	C	1.160970	-0.291906	0.000044
C28	C	1.581988	-0.470197	0.000064
C29	C	1.679978	-0.431651	0.000060
C30	C	1.637633	-0.333669	0.000046
C31	C	1.497298	-0.274235	0.000046
C32	C	1.735629	-0.295117	0.000047
C33	C	1.693284	-0.197137	0.000043
C34	C	1.454952	-0.176255	0.000042
C35	C	1.652515	0.132865	0.000064
C36	C	1.790666	0.135628	0.000060
C37	C	1.333062	0.309874	0.000063
C38	C	1.288006	0.414153	0.000066
N39	N	1.420467	0.138215	0.356177
N40	N	1.420494	0.138221	-0.356060
C41	C	1.534709	0.074950	0.428104
C42	C	1.534721	0.074950	0.571987
C43	C	1.306242	0.201490	0.572003
C44	C	1.306227	0.201484	0.428123
H45	H	0.802737	0.135857	0.226139
H46	H	0.802717	0.135877	-0.226005
Cl47	Cl	1.066952	0.141148	-0.281205
Cl48	Cl	1.678322	-0.004592	0.337663
H49	H	1.038243	0.140564	0.226107
H50	H	1.067888	-0.557799	0.000080
Cl51	Cl	1.278519	-0.101538	0.000022
Cl52	Cl	1.678344	-0.004589	0.662405
Cl53	Cl	1.205728	-0.130177	0.000053
H54	H	1.849895	-0.343517	0.000064
H55	H	1.213232	0.253003	0.630596
H56	H	1.213192	0.253003	0.369556
Cl57	Cl	0.984537	-0.217189	0.000025
H58	H	0.991046	-0.380042	0.000038
H59	H	1.500272	-0.595701	0.000074
H60	H	1.616461	-0.549978	0.000055
Cl61	Cl	1.816472	-0.148675	0.000064
H62	H	1.794244	-0.480050	0.000069
