data_functionalizedCrystal
_audit_creation_method	'MofGen! by Chris Wilmer'
_symmetry_space_group_name_H-M	'P1'
_symmetry_Int_Tables_number	1
_symmetry_cell_setting	triclinic
loop_
_symmetry_equiv_pos_as_xyz
  x,y,z
_cell_length_a	12.811445
_cell_length_b	11.892095
_cell_length_c	10.654550
_cell_angle_alpha	93.928097
_cell_angle_beta	95.735640
_cell_angle_gamma	99.333684
loop_
_atom_site_label
_atom_site_type_symbol
_atom_site_fract_x
_atom_site_fract_y
_atom_site_fract_z
O1	O	1.410793	0.238616	-0.148905
O2	O	1.910793	0.738616	0.351095
O3	O	1.103111	0.207079	-0.169971
O4	O	1.603111	0.707079	0.330029
O5	O	1.264026	0.223568	0.023399
O6	O	1.764026	0.723568	0.523399
O7	O	1.249878	0.222127	-0.342275
O8	O	1.749878	0.722127	0.157725
O9	O	1.250609	0.034186	0.007301
O10	O	1.750609	0.534186	0.507301
O11	O	1.089694	0.017696	-0.186069
O12	O	1.589694	0.517696	0.313931
O13	O	1.397376	0.049234	-0.165003
O14	O	1.897376	0.549234	0.334997
Zn15	Zn	1.241405	0.003397	-0.178092
Zn16	Zn	1.741405	0.503397	0.321908
Zn17	Zn	1.259082	0.252916	-0.156882
Zn18	Zn	1.759082	0.752916	0.343118
O19	O	1.236461	0.032744	-0.358373
O20	O	1.736461	0.532744	0.141627
C21	C	1.057005	0.108349	-0.177332
C22	C	1.557005	0.608349	0.322668
C23	C	0.939613	0.096317	-0.175265
C24	C	1.439613	0.596317	0.324735
N25	N	1.229348	-0.166893	-0.192566
N26	N	1.729348	0.333107	0.307434
C27	C	0.733645	0.280191	-0.153854
C28	C	1.233645	0.780191	0.346146
C29	C	0.623345	0.268891	-0.151913
C30	C	1.123345	0.768891	0.348087
C31	C	0.608711	0.062415	-0.169450
C32	C	1.108711	0.562415	0.330550
C33	C	0.719011	0.073716	-0.171391
C34	C	1.219011	0.573716	0.328609
C35	C	0.781474	0.182608	-0.163591
C36	C	1.281474	0.682608	0.336409
C37	C	0.891777	0.193908	-0.165524
C38	C	1.391777	0.693908	0.334476
C39	C	0.877140	-0.012567	-0.183070
C40	C	1.377140	0.487433	0.316930
C41	C	0.766840	-0.023868	-0.181128
C42	C	1.266840	0.476132	0.318872
C43	C	1.355043	-0.390661	-0.041606
C44	C	1.855043	0.109339	0.458394
C45	C	1.346623	-0.509865	-0.051733
C46	C	1.846623	-0.009865	0.448267
C47	C	1.204084	-0.524510	-0.222939
C48	C	1.704084	-0.024510	0.277061
C49	C	1.212504	-0.405305	-0.212813
C50	C	1.712504	0.094695	0.287187
C51	C	1.287987	-0.338384	-0.122145
C52	C	1.787987	0.161616	0.377855
C53	C	1.296411	-0.219177	-0.112025
C54	C	1.796411	0.280823	0.387975
C55	C	1.153868	-0.233824	-0.283225
C56	C	1.653868	0.266176	0.216775
C57	C	1.145448	-0.353029	-0.293351
C58	C	1.645448	0.146971	0.206649
C59	C	1.443482	0.147966	-0.157642
C60	C	1.943482	0.647966	0.342358
C61	C	1.560875	0.160006	-0.159708
C62	C	2.060875	0.660006	0.340292
C63	C	1.256279	0.128772	0.062133
C64	C	1.756279	0.628772	0.562133
C65	C	1.253171	0.128457	0.201534
C66	C	1.753171	0.628457	0.701534
N67	N	1.271147	0.423206	-0.142398
N68	N	1.771147	0.923206	0.357602
C69	C	1.244209	0.127543	-0.397107
C70	C	1.744209	0.627543	0.102893
C71	C	1.247317	0.127865	-0.536507
C72	C	1.747317	0.627865	-0.036507
C73	C	1.347915	0.138165	0.282331
C74	C	1.847915	0.638165	0.782331
C75	C	1.344989	0.137873	0.413312
C76	C	1.844989	0.637873	0.913312
C77	C	1.152566	0.118160	0.382685
C78	C	1.652566	0.618160	0.882685
C79	C	1.155494	0.118460	0.251708
C80	C	1.655494	0.618460	0.751708
C81	C	1.459009	0.149542	0.300014
C82	C	1.959009	0.649542	0.800014
C83	C	1.456083	0.149250	0.430995
C84	C	1.956083	0.649250	0.930995
H85	H	0.942634	0.282573	-0.159172
H86	H	1.442634	0.782573	0.340828
H87	H	1.099270	-0.191248	-0.348808
H88	H	1.599270	0.308752	0.151192
F89	F	1.497661	0.047394	0.244993
F90	F	1.997661	0.547394	0.744993
F91	F	0.800128	0.396080	-0.145537
F92	F	1.300128	0.896080	0.354463
F93	F	0.572446	0.372753	-0.141553
F94	F	1.072446	0.872753	0.358447
H95	H	1.078345	0.110571	0.185927
H96	H	1.578345	0.610571	0.685927
F97	F	0.928052	-0.116430	-0.193417
F98	F	1.428052	0.383570	0.306583
F99	F	0.542213	-0.053466	-0.177769
F100	F	1.042213	0.446534	0.322231
F101	F	0.700350	-0.139752	-0.189435
F102	F	1.200350	0.360248	0.310565
H103	H	1.357875	-0.164690	-0.038202
H104	H	1.857875	0.335310	0.461798
H105	H	1.416511	-0.336172	0.032211
H106	H	1.916511	0.163828	0.532211
F107	F	1.417991	-0.565497	0.033990
F108	F	1.917991	-0.065497	0.533990
H109	H	1.142621	-0.579013	-0.296751
H110	H	1.642621	-0.079013	0.203249
H111	H	1.492327	0.074286	0.466598
H112	H	1.992327	0.574286	0.966598
F113	F	1.507537	0.260624	0.500353
F114	F	2.007537	0.760624	1.000353
F115	F	1.065115	-0.424261	-0.389839
F116	F	1.565115	0.075739	0.110161
F117	F	1.048616	0.107523	0.436096
F118	F	1.548616	0.607523	0.936096
H119	H	1.508076	0.233246	0.277994
H120	H	2.008076	0.733246	0.777994
