data_functionalizedCrystal
_audit_creation_method	'MofGen! by Chris Wilmer'
_symmetry_space_group_name_H-M	'P1'
_symmetry_Int_Tables_number	1
_symmetry_cell_setting	triclinic
loop_
_symmetry_equiv_pos_as_xyz
  x,y,z
_cell_length_a	15.995350
_cell_length_b	15.995350
_cell_length_c	14.586319
_cell_angle_alpha	89.998440
_cell_angle_beta	90.000141
_cell_angle_gamma	83.492375
loop_
_atom_site_label
_atom_site_type_symbol
_atom_site_fract_x
_atom_site_fract_y
_atom_site_fract_z
O1	O	1.110984	0.107926	-0.076158
O2	O	0.867209	0.121253	-0.076176
O3	O	0.995761	-0.007298	-0.076166
O4	O	0.982433	0.236477	-0.076169
O5	O	0.995752	-0.007300	0.076315
O6	O	0.867200	0.121251	0.076304
O7	O	1.110976	0.107924	0.076323
Cu8	Cu	0.989087	0.114587	0.090236
Cu9	Cu	0.989098	0.114589	-0.090090
O10	O	0.982424	0.236475	0.076312
C11	C	0.836010	0.120701	0.000062
C12	C	0.743060	0.119049	0.000054
C13	C	0.405312	0.113117	0.000074
C14	C	0.452746	0.021565	0.000415
C15	C	0.549436	0.023217	0.000065
C16	C	0.572873	0.116060	0.000065
C17	C	0.531791	0.161217	-0.087006
C18	C	0.435155	0.158917	-0.087073
C19	C	0.434806	0.160807	0.086327
C20	C	0.531751	0.160785	0.087471
C21	C	0.667570	0.117727	0.000057
C22	C	0.310614	0.111452	0.000076
C23	C	0.995205	-0.038494	0.000073
C24	C	0.993553	-0.131444	0.000067
C25	C	0.987621	-0.469192	0.000070
C26	C	0.896069	-0.421758	-0.000279
C27	C	0.897721	-0.325068	0.000065
C28	C	0.990564	-0.301631	0.000068
C29	C	1.035715	-0.342710	0.087144
C30	C	1.033415	-0.439346	0.087217
C31	C	1.035317	-0.439702	-0.086182
C32	C	1.035295	-0.342756	-0.087333
C33	C	0.992231	-0.206934	0.000070
C34	C	0.985956	-0.563890	0.000074
C35	C	1.142175	0.108476	0.000083
C36	C	1.235125	0.110127	0.000084
C37	C	0.982980	0.267671	0.000072
C38	C	0.984631	0.360621	0.000071
N39	N	0.989086	0.114585	0.217068
N40	N	0.989106	0.114585	-0.216922
C41	C	1.046027	0.057682	0.452079
C42	C	1.046030	0.057680	0.548060
C43	C	0.932158	0.171491	0.548061
C44	C	0.932152	0.171488	0.452081
C45	C	0.989092	0.114585	0.404093
C46	C	0.989100	0.114585	0.596054
C47	C	0.989102	0.114584	0.700121
C48	C	0.989089	0.114585	0.300019
H49	H	0.577298	-0.012517	-0.062459
F50	F	0.996192	-0.466538	-0.172447
F51	F	1.121269	-0.481499	0.092393
H52	H	0.861983	-0.297204	0.062586
H53	H	0.577862	-0.012279	0.062481
H54	H	1.103000	-0.327394	-0.092588
F55	F	0.990367	-0.463270	0.172289
H56	H	1.103924	-0.328584	0.090385
F57	F	0.871548	0.232052	0.401006
H58	H	1.092391	0.011343	0.587128
H59	H	1.102818	-0.471462	-0.086765
F60	F	0.871564	0.232052	0.599139
F61	F	0.411227	0.115876	-0.172146
F62	F	0.551829	0.249281	0.094345
H63	H	0.559064	0.127820	0.151886
F64	F	0.393002	0.246771	-0.092238
H65	H	0.434220	-0.015031	0.062857
H66	H	0.433156	-0.014861	-0.061682
F67	F	0.550272	0.250365	-0.091256
H68	H	0.560169	0.129854	-0.151806
F69	F	1.106625	-0.002883	0.401010
H70	H	1.002283	-0.315507	-0.151749
H71	H	0.403044	0.228307	0.086915
F72	F	0.851330	-0.287914	-0.081522
F73	F	0.848242	-0.445977	-0.081899
F74	F	0.407964	0.121682	0.172591
H75	H	0.859636	-0.441353	0.061812
F76	F	0.994717	-0.305617	0.171840
