data_functionalizedCrystal
_audit_creation_method	'MofGen! by Chris Wilmer'
_symmetry_space_group_name_H-M	'P1'
_symmetry_Int_Tables_number	1
_symmetry_cell_setting	triclinic
loop_
_symmetry_equiv_pos_as_xyz
  x,y,z
_cell_length_a	11.026607
_cell_length_b	10.868271
_cell_length_c	11.026607
_cell_angle_alpha	89.997040
_cell_angle_beta	71.413983
_cell_angle_gamma	90.003487
loop_
_atom_site_label
_atom_site_type_symbol
_atom_site_fract_x
_atom_site_fract_y
_atom_site_fract_z
O1	O	1.726733	0.102319	-0.533624
O2	O	1.360153	0.102321	-0.472861
O3	O	1.513061	0.102316	-0.319952
O4	O	1.573825	0.102325	-0.686532
O5	O	1.513044	-0.102329	-0.319941
O6	O	1.360135	-0.102323	-0.472850
O7	O	1.726715	-0.102325	-0.533613
Zn8	Zn	1.543423	-0.134816	-0.503230
Zn9	Zn	1.543446	0.134812	-0.503244
O10	O	1.573807	-0.102320	-0.686521
C11	C	1.312485	-0.000001	-0.461645
C12	C	1.170471	-0.000000	-0.428228
C13	C	1.116821	0.000003	-0.520498
C14	C	0.970043	0.000004	-0.485962
N15	N	1.543416	-0.318830	-0.503221
C16	C	1.543439	-0.569836	-0.503240
C17	C	1.543423	-0.430159	-0.503232
C18	C	1.774384	-0.000001	-0.544828
C19	C	1.916398	0.000007	-0.578245
C20	C	1.501843	-0.000005	-0.272287
C21	C	1.468426	-0.000000	-0.130273
N22	N	1.543461	0.318826	-0.503245
C23	C	1.585026	0.000003	-0.734187
C24	C	1.618443	0.000007	-0.876200
C25	C	1.560695	0.000001	-0.076624
C26	C	1.526160	0.000006	0.070155
H27	H	0.907314	0.000033	-0.381393
N28	N	1.394969	-0.000009	0.148817
N29	N	1.308203	-0.000018	0.098453
H30	H	1.215550	-0.000031	0.154008
N31	N	1.091787	-0.000031	-0.297051
N32	N	1.015035	-0.086301	-0.254453
H33	H	0.959466	-0.086326	-0.161805
H34	H	1.363863	0.000008	-0.067540
H35	H	1.723013	0.000099	0.061072
H36	H	1.665258	-0.000007	-0.139357
N37	N	1.195508	-0.000022	-0.651675
N38	N	1.272247	-0.086290	-0.694262
H39	H	1.327818	-0.086311	-0.786909
N40	N	0.995074	-0.000019	-0.709431
N41	N	1.071810	-0.086289	-0.752023
H42	H	1.127374	-0.086311	-0.844672
