data_functionalizedCrystal
_audit_creation_method	'MofGen! by Chris Wilmer'
_symmetry_space_group_name_H-M	'P1'
_symmetry_Int_Tables_number	1
_symmetry_cell_setting	triclinic
loop_
_symmetry_equiv_pos_as_xyz
  x,y,z
_cell_length_a	17.077404
_cell_length_b	17.077402
_cell_length_c	17.077396
_cell_angle_alpha	90.029131
_cell_angle_beta	90.017336
_cell_angle_gamma	90.018878
loop_
_atom_site_label
_atom_site_type_symbol
_atom_site_fract_x
_atom_site_fract_y
_atom_site_fract_z
Zn1	Zn	1.200032	-0.312592	0.443854
Zn2	Zn	1.700032	0.187408	0.943854
Zn3	Zn	1.199944	-0.443871	0.312590
Zn4	Zn	1.699944	0.056129	0.812590
Zn5	Zn	1.068770	-0.312612	0.312601
Zn6	Zn	1.568770	0.187388	0.812601
Zn7	Zn	1.068731	-0.443810	0.443813
Zn8	Zn	1.568731	0.056190	0.943813
O9	O	1.134369	-0.378221	0.378214
O10	O	1.634369	0.121779	0.878214
O11	O	1.309868	-0.330024	0.426454
O12	O	1.809868	0.169976	0.926454
O13	O	1.182522	-0.426493	0.202744
O14	O	1.682522	0.073507	0.702744
O15	O	1.086236	-0.202763	0.330034
O16	O	1.586236	0.297237	0.830034
O17	O	1.309802	-0.426474	0.330015
O18	O	1.809802	0.073526	0.830015
O19	O	1.182674	-0.202748	0.426464
O20	O	1.682674	0.297252	0.926464
O21	O	1.086149	-0.330058	0.202753
O22	O	1.586149	0.169942	0.702753
O23	O	0.958918	-0.329999	0.329994
O24	O	1.458918	0.170001	0.829994
O25	O	1.086169	-0.426369	0.553665
O26	O	1.586169	0.073631	1.053665
O27	O	0.958889	-0.426389	0.426395
O28	O	1.458889	0.073611	0.926395
O29	O	1.182636	-0.329965	0.553695
O30	O	1.682636	0.170035	1.053695
O31	O	1.182485	-0.553710	0.329975
O32	O	1.682485	-0.053710	0.829975
O33	O	1.086083	-0.553665	0.426384
O34	O	1.586083	-0.053665	0.926384
C35	C	0.930421	-0.378190	0.378192
C36	C	1.430421	0.121810	0.878192
C37	C	0.843172	-0.378195	0.378201
C38	C	1.343172	0.121805	0.878201
C39	C	0.467363	-0.428524	0.428354
C40	C	0.967363	0.071476	0.928354
C41	C	0.549343	-0.428514	0.428342
C42	C	1.049343	0.071486	0.928342
C43	C	0.590323	-0.378242	0.378227
C44	C	1.090323	0.121758	0.878227
C45	C	0.549317	-0.327983	0.328115
C46	C	1.049317	0.172017	0.828115
C47	C	0.467338	-0.327998	0.328123
C48	C	0.967338	0.172002	0.828123
C49	C	0.720187	-0.327955	0.328102
C50	C	1.220187	0.172045	0.828102
C51	C	0.802172	-0.327939	0.328094
C52	C	1.302172	0.172061	0.828094
C53	C	0.802192	-0.428470	0.428320
C54	C	1.302192	0.071530	0.928320
C55	C	0.720213	-0.428485	0.428329
C56	C	1.220213	0.071515	0.928329
C57	C	0.679214	-0.378225	0.378218
C58	C	1.179214	0.121775	0.878218
C59	C	1.134291	-0.582169	0.378191
C60	C	1.634291	-0.082169	0.878191
C61	C	1.134330	-0.669419	0.378207
C62	C	1.634330	-0.169419	0.878207
C63	C	1.184518	-0.710334	0.428459
C64	C	1.684518	-0.210334	0.928459
C65	C	1.184551	-0.792314	0.428476
C66	C	1.684551	-0.292314	0.928476
C67	C	1.134399	-0.833378	0.378236
C68	C	1.634399	-0.333378	0.878236
C69	C	1.084206	-0.792458	0.327982
C70	C	1.584206	-0.292458	0.827982
C71	C	1.084169	-0.710479	0.327970
C72	C	1.584169	-0.210479	0.827970
C73	C	1.084286	-0.963328	0.328009
C74	C	1.584286	-0.463328	0.828009
C75	C	1.084323	-1.045312	0.328020
C76	C	1.584323	-0.545312	0.828020
C77	C	1.184668	-1.045163	0.428515
C78	C	1.684668	-0.545163	0.928515
C79	C	1.184631	-0.963184	0.428503
C80	C	1.684631	-0.463184	0.928503
C81	C	1.134439	-0.922269	0.378248
C82	C	1.634439	-0.422269	0.878248
C83	C	1.339113	-0.378253	0.378237
C84	C	1.839113	0.121747	0.878237
C85	C	1.426363	-0.378267	0.378247
C86	C	1.926363	0.121733	0.878247
C87	C	1.134408	-0.378158	0.582959
C88	C	1.634408	0.121842	1.082959
C89	C	1.134424	-0.378131	0.670209
C90	C	1.634424	0.121869	1.170209
C91	C	1.134469	-0.173477	0.378255
C92	C	1.634469	0.326523	0.878255
C93	C	1.134511	-0.086227	0.378272
C94	C	1.634511	0.413773	0.878272
C95	C	1.134376	-0.378228	0.174266
C96	C	1.634376	0.121772	0.674266
C97	C	1.134511	-0.378034	0.087017
C98	C	1.634511	0.121966	0.587017
C99	C	1.184677	-0.428253	1.046021
C100	C	1.684677	0.071747	1.546021
C101	C	1.184657	-0.428276	0.964041
C102	C	1.684657	0.071724	1.464041
C103	C	1.134475	-0.378075	0.923058
C104	C	1.634475	0.121925	1.423058
C105	C	1.084304	-0.327854	0.964059
C106	C	1.584304	0.172146	1.464059
C107	C	1.084320	-0.327836	1.046038
C108	C	1.584320	0.172164	1.546038
C109	C	1.084274	-0.327895	0.793189
C110	C	1.584274	0.172105	1.293189
C111	C	1.084259	-0.327912	0.711204
C112	C	1.584259	0.172088	1.211204
C113	C	1.184611	-0.428335	0.711192
C114	C	1.684611	0.071665	1.211192
C115	C	1.184628	-0.428316	0.793171
C116	C	1.684628	0.071684	1.293171
C117	C	1.134457	-0.378094	0.834167
C118	C	1.634457	0.121906	1.334167
H119	H	0.686808	-0.287026	0.287298
H120	H	1.186808	0.212974	0.787298
O121	O	0.593508	-0.273761	0.274056
O122	O	1.093508	0.226239	0.774056
H123	H	0.630872	-0.233855	0.309256
H124	H	1.130872	0.266145	0.809256
O125	O	0.423171	-0.482746	0.482412
O126	O	0.923171	0.017254	0.982412
H127	H	0.359277	-0.474309	0.474008
H128	H	0.859277	0.025691	0.974008
H129	H	1.225545	-0.469128	1.079384
H130	H	1.725545	0.030872	1.579384
H131	H	1.225425	-0.825624	0.469390
H132	H	1.725425	-0.325624	0.969390
H133	H	0.433958	-0.287072	0.287324
H134	H	0.933958	0.212928	0.787324
H135	H	0.686850	-0.469417	0.469141
H136	H	1.186850	0.030583	0.969141
O137	O	0.593567	-0.482712	0.482391
O138	O	1.093567	0.017288	0.982391
H139	H	0.551299	-0.517662	0.517250
H140	H	1.051299	-0.017662	1.017250
H141	H	1.225536	-1.078480	0.469436
H142	H	1.725536	-0.578480	0.969436
H143	H	1.225462	-0.469228	0.677809
H144	H	1.725462	0.030772	1.177809
H145	H	0.835578	-0.469392	0.469125
H146	H	1.335578	0.030608	0.969125
O147	O	0.846376	-0.273724	0.274039
O148	O	1.346376	0.226276	0.774039
H149	H	0.804096	-0.238786	0.239186
H150	H	1.304096	0.261214	0.739186
O151	O	1.238617	-0.666044	0.482640
O152	O	1.738617	-0.166044	0.982640
H153	H	1.273518	-0.708271	0.517588
H154	H	1.773518	-0.208271	1.017588
O155	O	1.238739	-0.918889	0.482671
O156	O	1.738739	-0.418889	0.982671
H157	H	1.273648	-0.961110	0.517618
H158	H	1.773648	-0.461110	1.017618
O159	O	1.030225	-1.089608	0.273844
O160	O	1.530225	-0.589608	0.773844
H161	H	0.995306	-1.047387	0.238906
H162	H	1.495306	-0.547387	0.738906
O163	O	1.030171	-0.273710	0.837399
O164	O	1.530171	0.226290	1.337399
H165	H	1.065347	-0.233778	0.874758
H166	H	1.565347	0.266222	1.374758
O167	O	1.030157	-0.919193	0.273801
O168	O	1.530157	-0.419193	0.773801
H169	H	0.995297	-0.961518	0.238860
H170	H	1.495297	-0.461518	0.738860
H171	H	1.043368	-0.825899	0.287079
H172	H	1.543368	-0.325899	0.787079
H173	H	1.043300	-0.677167	0.287051
H174	H	1.543300	-0.177167	0.787051
H175	H	1.225498	-0.469179	0.930666
H176	H	1.725498	0.030821	1.430666
H177	H	1.225495	-0.469190	0.826537
H178	H	1.725495	0.030810	1.326537
O179	O	1.030124	-0.273781	0.666996
O180	O	1.530124	0.226219	1.166996
H181	H	0.995228	-0.238866	0.709274
H182	H	1.495228	0.261134	1.209274
O183	O	1.030183	-0.273702	0.919858
O184	O	1.530183	0.226298	1.419858
H185	H	0.990223	-0.308831	0.882486
H186	H	1.490223	0.191169	1.382486
H187	H	1.043471	-0.286941	1.079416
H188	H	1.543471	0.213059	1.579416
