data_functionalizedCrystal
_audit_creation_method	'MofGen! by Chris Wilmer'
_symmetry_space_group_name_H-M	'P1'
_symmetry_Int_Tables_number	1
_symmetry_cell_setting	triclinic
loop_
_symmetry_equiv_pos_as_xyz
  x,y,z
_cell_length_a	18.050589
_cell_length_b	21.395362
_cell_length_c	21.395355
_cell_angle_alpha	90.043940
_cell_angle_beta	89.987098
_cell_angle_gamma	89.955899
loop_
_atom_site_label
_atom_site_type_symbol
_atom_site_fract_x
_atom_site_fract_y
_atom_site_fract_z
Zn1	Zn	-0.295431	-0.957870	-0.354610
Zn2	Zn	0.204569	-0.457870	0.145390
Zn3	Zn	-0.419603	-0.957777	-0.249843
Zn4	Zn	0.080397	-0.457777	0.250157
Zn5	Zn	-0.295465	-0.853085	-0.249811
Zn6	Zn	0.204535	-0.353085	0.250189
Zn7	Zn	-0.419618	-0.853059	-0.354548
Zn8	Zn	0.080382	-0.353059	0.145452
O9	O	-0.357529	-0.905448	-0.302203
O10	O	0.142471	-0.405448	0.197797
O11	O	-0.311882	-1.045536	-0.340752
O12	O	0.188118	-0.545536	0.159248
O13	O	-0.403144	-0.943862	-0.162161
O14	O	0.096856	-0.443862	0.337839
O15	O	-0.191536	-0.867035	-0.263726
O16	O	0.308464	-0.367035	0.236274
O17	O	-0.403110	-1.045468	-0.263780
O18	O	0.096890	-0.545468	0.236220
O19	O	-0.191511	-0.944020	-0.340721
O20	O	0.308489	-0.444020	0.159279
O21	O	-0.311940	-0.866945	-0.162138
O22	O	0.188060	-0.366945	0.337862
O23	O	-0.311955	-0.765404	-0.263665
O24	O	0.188045	-0.265404	0.236335
O25	O	-0.403136	-0.866990	-0.442234
O26	O	0.096864	-0.366990	0.057766
O27	O	-0.403170	-0.765385	-0.340615
O28	O	0.096830	-0.265385	0.159385
O29	O	-0.311896	-0.943995	-0.442280
O30	O	0.188104	-0.443995	0.057720
O31	O	-0.523529	-0.943836	-0.263719
O32	O	-0.023529	-0.443836	0.236281
O33	O	-0.523540	-0.866900	-0.340645
O34	O	-0.023540	-0.366900	0.159355
C35	C	-0.550481	-0.905372	-0.302192
C36	C	-0.050481	-0.405372	0.197808
C37	C	-0.633027	-0.905397	-0.302209
C38	C	-0.133027	-0.405397	0.197791
C39	C	-0.357568	-0.742660	-0.302130
C40	C	0.142432	-0.242660	0.197870
C41	C	-0.357603	-0.673019	-0.302114
C42	C	0.142397	-0.173019	0.197886
C43	C	-0.357514	-0.905500	-0.465626
C44	C	0.142486	-0.405500	0.034374
C45	C	-0.357508	-0.905522	-0.535268
C46	C	0.142492	-0.405522	-0.035268
C47	C	-0.832511	-0.863601	-0.344027
C48	C	-0.332511	-0.363601	0.155973
C49	C	-0.881943	-0.848322	-0.286848
C50	C	-0.381943	-0.348322	0.213152
C51	C	-0.784157	-0.905459	-0.302217
C52	C	-0.284157	-0.405459	0.197783
C53	C	-0.881806	-0.920768	-0.359402
C54	C	-0.381806	-0.420768	0.140598
C55	C	-0.930142	-0.905517	-0.302230
C56	C	-0.430142	-0.405517	0.197770
C57	C	-0.832503	-0.890151	-0.245009
C58	C	-0.332503	-0.390151	0.254991
C59	C	-0.832361	-0.962623	-0.317601
C60	C	-0.332361	-0.462623	0.182399
C61	C	-0.881772	-0.947366	-0.260383
C62	C	-0.381772	-0.447366	0.239617
C63	C	-0.700059	-0.905424	-0.302211
C64	C	-0.200059	-0.405424	0.197789
C65	C	-1.014239	-0.905552	-0.302230
C66	C	-0.514239	-0.405552	0.197770
C67	C	-0.163823	-0.905541	-0.302227
C68	C	0.336177	-0.405541	0.197773
C69	C	-0.081278	-0.905581	-0.302237
C70	C	0.418722	-0.405581	0.197763
C71	C	-0.357490	-1.068871	-0.302276
C72	C	0.142510	-0.568871	0.197724
C73	C	-0.357474	-1.138513	-0.302307
C74	C	0.142526	-0.638513	0.197693
C75	C	-0.405161	-0.640312	-0.342121
C76	C	0.094839	-0.140312	0.157879
C77	C	-0.405143	-0.574877	-0.342149
C78	C	0.094857	-0.074877	0.157851
C79	C	-0.357574	-0.542151	-0.302159
C80	C	0.142426	-0.042151	0.197841
C81	C	-0.310007	-0.574865	-0.262148
C82	C	0.189993	-0.074865	0.237852
C83	C	-0.310021	-0.640300	-0.262126
C84	C	0.189979	-0.140300	0.237874
C85	C	-0.351592	-0.438426	-0.245753
C86	C	0.148408	0.061574	0.254247
C87	C	-0.351583	-0.372993	-0.245774
C88	C	0.148417	0.127007	0.254226
C89	C	-0.357526	-0.340330	-0.302228
C90	C	0.142474	0.159670	0.197772
C91	C	-0.363494	-0.373108	-0.358662
C92	C	0.136506	0.126892	0.141338
C93	C	-0.363508	-0.438542	-0.358640
C94	C	0.136492	0.061458	0.141360
C95	C	-0.357553	-0.471198	-0.302179
C96	C	0.142447	0.028802	0.197821
C97	C	-0.405067	-0.236671	-0.342269
C98	C	0.094933	0.263329	0.157731
C99	C	-0.405044	-0.171234	-0.342298
C100	C	0.094956	0.328766	0.157702
C101	C	-0.309911	-0.171224	-0.262291
C102	C	0.190089	0.328776	0.237709
C103	C	-0.309931	-0.236659	-0.262268
C104	C	0.190069	0.263341	0.237732
C105	C	-0.357513	-0.269379	-0.302256
C106	C	0.142487	0.230621	0.197744
C107	C	-0.309997	-0.945617	-0.568006
C108	C	0.190003	-0.445617	-0.068006
C109	C	-0.309965	-0.945616	-0.633441
C110	C	0.190035	-0.445616	-0.133441
C111	C	-0.357457	-0.905527	-0.666136
C112	C	0.142543	-0.405527	-0.166136
C113	C	-0.404971	-0.865425	-0.633390
C114	C	0.095029	-0.365425	-0.133390
C115	C	-0.404996	-0.865422	-0.567956
C116	C	0.095004	-0.365422	-0.067956
C117	C	-0.424328	-0.900554	-0.769805
C118	C	0.075672	-0.400554	-0.269805
C119	C	-0.424304	-0.900560	-0.835238
C120	C	0.075696	-0.400560	-0.335238
C121	C	-0.357379	-0.905531	-0.867957
C122	C	0.142621	-0.405531	-0.367957
C123	C	-0.290475	-0.910508	-0.835234
C124	C	0.209525	-0.410508	-0.335234
C125	C	-0.290501	-0.910505	-0.769800
C126	C	0.209499	-0.410505	-0.269800
C127	C	-0.357435	-0.905525	-0.737088
C128	C	0.142565	-0.405525	-0.237088
C129	C	-0.309829	-0.945627	-0.971647
C130	C	0.190171	-0.445627	-0.471647
C131	C	-0.309796	-0.945621	-1.037084
C132	C	0.190204	-0.445621	-0.537084
C133	C	-0.404809	-0.865434	-1.037032
C134	C	0.095191	-0.365434	-0.537032
C135	C	-0.404835	-0.865436	-0.971596
C136	C	0.095165	-0.365436	-0.471596
C137	C	-0.357347	-0.905535	-0.938908
C138	C	0.142653	-0.405535	-0.438908
C139	C	-0.357490	-0.905432	-0.139415
C140	C	0.142510	-0.405432	0.360585
C141	C	-0.357288	-0.905531	-0.069774
C142	C	0.142712	-0.405531	0.430226
H143	H	-0.810879	-0.828150	-0.379334
H144	H	-0.310879	-0.328150	0.120666
N145	N	-0.261407	-0.541450	-0.221299
N146	N	0.238593	-0.041450	0.278701
N147	N	-0.192889	-0.548818	-0.225553
N148	N	0.307111	-0.048818	0.274447
H149	H	-0.158560	-0.525219	-0.196703
H150	H	0.341440	-0.025219	0.303297
H151	H	-0.271272	-0.978264	-0.660102
H152	H	0.228728	-0.478264	-0.160102
N153	N	-0.453542	-0.824476	-0.534511
N154	N	0.046458	-0.324476	-0.034511
N155	N	-0.500876	-0.846498	-0.498021
N156	N	-0.000876	-0.346498	0.001979
H157	H	-0.535164	-0.817580	-0.474398
H158	H	-0.035164	-0.317580	0.025602
N159	N	-0.453370	-0.824490	-0.938142
N160	N	0.046630	-0.324490	-0.438142
N161	N	-0.453386	-0.824493	-0.879719
N162	N	0.046614	-0.324493	-0.379719
H163	H	-0.487663	-0.795571	-0.856091
H164	H	0.012337	-0.295571	-0.356091
N165	N	-0.261271	-0.986579	-1.070537
N166	N	0.238729	-0.486579	-0.570537
N167	N	-0.261252	-0.986574	-1.128960
N168	N	0.238748	-0.486574	-0.628960
H169	H	-0.226981	-1.015501	-1.152588
H170	H	0.273019	-0.515501	-0.652588
H171	H	-0.810935	-0.877170	-0.196640
H172	H	-0.310935	-0.377170	0.303360
N173	N	-0.261481	-0.986560	-0.534607
N174	N	0.238519	-0.486560	-0.034607
N175	N	-0.261502	-0.986550	-0.476184
N176	N	0.238498	-0.486550	0.023816
H177	H	-0.227235	-1.015464	-0.452594
H178	H	0.272765	-0.515464	0.047406
H179	H	-0.346749	-0.465014	-0.199778
H180	H	0.153251	0.034986	0.300222
N181	N	-0.345480	-0.339526	-0.188125
N182	N	0.154520	0.160474	0.311875
N183	N	-0.289755	-0.346845	-0.154230
N184	N	0.210245	0.153155	0.345770
H185	H	-0.285444	-0.323212	-0.113512
H186	H	0.214556	0.176788	0.386488
N187	N	-0.908990	-0.936979	-0.420059
N188	N	-0.408990	-0.436979	0.079941
N189	N	-0.949537	-0.899686	-0.449249
N190	N	-0.449537	-0.399686	0.050751
H191	H	-0.968735	-0.911129	-0.492089
H192	H	-0.468735	-0.411129	0.007911
N193	N	-0.908757	-0.991797	-0.215986
N194	N	-0.408757	-0.491797	0.284014
N195	N	-0.976933	-0.999323	-0.209080
N196	N	-0.476933	-0.499323	0.290920
H197	H	-0.995994	-1.030699	-0.177723
H198	H	-0.495994	-0.530699	0.322277
N199	N	-0.453764	-0.673740	-0.382961
N200	N	0.046236	-0.173740	0.117039
N201	N	-0.501057	-0.710188	-0.360832
N202	N	-0.001057	-0.210188	0.139168
H203	H	-0.535384	-0.733798	-0.389674
H204	H	-0.035384	-0.233798	0.110326
N205	N	-0.453728	-0.541468	-0.383023
N206	N	0.046272	-0.041468	0.116977
N207	N	-0.496205	-0.570689	-0.418723
N208	N	0.003795	-0.070689	0.081277
H209	H	-0.530519	-0.547097	-0.447590
H210	H	-0.030519	-0.047097	0.052410
N211	N	-0.453624	-0.137832	-0.383177
N212	N	0.046376	0.362168	0.116823
N213	N	-0.496099	-0.167057	-0.418876
N214	N	0.003901	0.332943	0.081124
H215	H	-0.530409	-0.143467	-0.447748
H216	H	-0.030409	0.356533	0.052252
H217	H	-0.271291	-0.666929	-0.229547
H218	H	0.228709	-0.166929	0.270453
H219	H	-0.810569	-1.010926	-0.330628
H220	H	-0.310569	-0.510926	0.169372
H221	H	-0.236026	-0.914556	-0.743160
H222	H	0.263974	-0.414556	-0.243160
H223	H	-0.903738	-0.800008	-0.273849
H224	H	-0.403738	-0.300008	0.226151
H225	H	-0.235979	-0.914556	-0.861872
H226	H	0.264021	-0.414556	-0.361872
N227	N	-0.369605	-0.472015	-0.416286
N228	N	0.130395	0.027985	0.083714
N229	N	-0.374914	-0.442851	-0.466689
N230	N	0.125086	0.057149	0.033311
H231	H	-0.379218	-0.466491	-0.507404
H232	H	0.120782	0.033509	-0.007404
H233	H	-0.271157	-0.978275	-0.945031
H234	H	0.228843	-0.478275	-0.445031
H235	H	-0.443470	-0.832786	-1.063651
H236	H	0.056530	-0.332786	-0.563651
N237	N	-0.369575	-0.339769	-0.416342
N238	N	0.130425	0.160231	0.083658
N239	N	-0.425301	-0.347077	-0.450233
N240	N	0.074699	0.152923	0.049767
H241	H	-0.429599	-0.323532	-0.490970
H242	H	0.070401	0.176468	0.009030
H243	H	-0.443807	-0.263312	-0.374833
H244	H	0.056193	0.236688	0.125167
H245	H	-0.271177	-0.144579	-0.229733
H246	H	0.228823	0.355421	0.270267
H247	H	-0.271208	-0.263290	-0.229686
H248	H	0.228792	0.236710	0.270314
H249	H	-0.478780	-0.896512	-0.861876
H250	H	0.021220	-0.396512	-0.361876
H251	H	-0.478812	-0.896338	-0.743171
H252	H	0.021188	-0.396338	-0.243171
H253	H	-0.443637	-0.832782	-0.660014
H254	H	0.056363	-0.332782	-0.160014
