data_functionalizedCrystal
_audit_creation_method	'MofGen! by Chris Wilmer'
_symmetry_space_group_name_H-M	'P1'
_symmetry_Int_Tables_number	1
_symmetry_cell_setting	triclinic
loop_
_symmetry_equiv_pos_as_xyz
  x,y,z
_cell_length_a	13.262402
_cell_length_b	13.185407
_cell_length_c	15.186229
_cell_angle_alpha	89.996626
_cell_angle_beta	105.914975
_cell_angle_gamma	68.869530
loop_
_atom_site_label
_atom_site_type_symbol
_atom_site_fract_x
_atom_site_fract_y
_atom_site_fract_z
O1	O	1.351201	0.146733	0.250416
O2	O	1.041119	0.162676	0.176143
O3	O	1.249286	-0.003802	0.226008
O4	O	1.143034	0.313211	0.200551
O5	O	1.249276	-0.003804	0.372463
O6	O	1.041109	0.162673	0.322598
O7	O	1.351190	0.146731	0.396871
Zn8	Zn	1.196148	0.154702	0.382987
Zn9	Zn	1.196161	0.154705	0.190027
O10	O	1.143023	0.313208	0.347006
C11	C	1.002263	0.161779	0.240065
C12	C	0.886504	0.159100	0.212337
C13	C	0.832126	0.157840	0.119476
C14	C	0.723360	0.155333	0.093425
C15	C	0.668966	0.154076	0.160234
C16	C	0.723348	0.155327	0.253098
C17	C	0.832121	0.157844	0.279150
C18	C	0.668961	0.154079	0.319908
C19	C	0.723343	0.155331	0.412772
C20	C	0.832105	0.157846	0.438820
C21	C	0.886499	0.159103	0.372012
C22	C	0.560189	0.151563	0.293856
C23	C	0.560183	0.151566	0.453530
C24	C	0.668949	0.154074	0.479581
C25	C	1.260052	-0.044382	0.301814
C26	C	1.292136	-0.165296	0.309496
C27	C	0.985939	-0.455949	0.236145
C28	C	0.955791	-0.342344	0.228918
C29	C	1.039875	-0.298076	0.249062
C30	C	1.154111	-0.367425	0.276434
C31	C	1.184262	-0.481041	0.283655
C32	C	1.238198	-0.323168	0.296572
C33	C	1.352434	-0.392517	0.323944
C34	C	1.382580	-0.506122	0.331164
C35	C	1.298496	-0.550389	0.311020
C36	C	1.208047	-0.209552	0.289351
C37	C	1.406370	-0.234644	0.336861
C38	C	1.436518	-0.348249	0.344088
C39	C	1.390046	0.147627	0.332947
C40	C	1.505805	0.150307	0.360669
C41	C	1.132257	0.353789	0.271198
C42	C	1.100173	0.474703	0.263510
N43	N	1.196147	0.154699	0.514680
N44	N	1.196173	0.154699	0.058337
C45	C	1.288340	0.081008	0.762487
C46	C	1.288344	0.081005	0.854677
C47	C	1.103971	0.228394	0.810521
C48	C	1.103964	0.228390	0.718332
C49	C	1.196155	0.154699	0.694318
C50	C	1.196165	0.154700	0.878698
C51	C	1.196169	0.154697	0.978655
C52	C	1.196150	0.154699	0.594355
H53	H	0.515921	0.150545	0.218245
C54	C	0.501305	0.150259	0.526205
C55	C	0.572193	0.151932	0.613102
C56	C	0.517979	0.150746	0.680064
H57	H	0.484786	0.085859	0.525696
H58	H	0.432966	0.212738	0.513199
H59	H	0.640511	0.089459	0.626106
H60	H	0.588716	0.216327	0.613642
H61	H	0.449639	0.213225	0.667058
H62	H	0.501461	0.086345	0.679546
H63	H	0.566063	0.151891	0.739030
H64	H	1.115035	-0.153099	0.267066
H65	H	1.028913	0.288393	0.830083
H66	H	1.028891	0.288398	0.662822
H67	H	0.580404	0.152034	0.139017
C68	C	0.728160	0.155500	0.580349
C69	C	0.835042	0.157999	0.588856
C70	C	0.889614	0.159328	0.681667
H71	H	0.736374	0.091675	0.615191
H72	H	0.684466	0.218551	0.602693
H73	H	0.878726	0.094954	0.566524
H74	H	0.826861	0.221820	0.554035
H75	H	0.845919	0.222379	0.704010
H76	H	0.897819	0.095502	0.716500
H77	H	0.962134	0.161034	0.687450
H78	H	1.474838	-0.198603	0.353218
C79	C	0.664536	0.153911	-0.007432
C80	C	0.735461	0.155516	-0.060361
C81	C	0.681317	0.154187	-0.153278
H82	H	0.596188	0.216345	-0.027253
H83	H	0.648062	0.089468	-0.014737
H84	H	0.751920	0.219951	-0.053061
H85	H	0.803809	0.093086	-0.040569
H86	H	0.664843	0.089744	-0.160583
H87	H	0.612971	0.216623	-0.173089
H88	H	0.729436	0.155266	-0.189201
C89	C	1.006918	-0.174705	0.241217
C90	C	0.888880	-0.123446	0.212962
C91	C	0.858474	-0.009792	0.205742
H92	H	1.036617	-0.153481	0.197278
H93	H	1.036651	-0.153599	0.299438
H94	H	0.859159	-0.144542	0.154749
H95	H	0.859153	-0.144637	0.256891
H96	H	0.888207	0.011313	0.263963
H97	H	0.888180	0.011419	0.161803
H98	H	0.778383	0.025000	0.186578
C99	C	0.891246	0.159384	0.047032
C100	C	0.915469	0.254405	0.048185
C101	C	0.969944	0.255861	-0.018534
H102	H	0.843386	0.158334	-0.012058
H103	H	0.959647	0.096968	0.060094
H104	H	0.847079	0.316806	0.035117
H105	H	0.963340	0.255476	0.107259
H106	H	1.038345	0.193444	-0.005472
H107	H	0.922078	0.254808	-0.077619
H108	H	0.986395	0.320326	-0.017755
H109	H	0.862780	-0.285888	0.206630
H110	H	0.975068	0.161137	0.393219
C111	C	1.388359	0.000793	0.736466
C112	C	1.401542	-0.106300	0.762069
C113	C	1.493662	-0.180238	0.738117
H114	H	1.455054	0.012823	0.767511
H115	H	1.375198	0.011243	0.671796
H116	H	1.414711	-0.116746	0.826728
H117	H	1.334871	-0.118365	0.731028
H118	H	1.480501	-0.169788	0.673447
H119	H	1.560350	-0.168199	0.769164
H120	H	1.502612	-0.252909	0.755478
C121	C	1.506669	-0.581235	0.360935
C122	C	1.573855	-0.518157	0.377055
C123	C	1.688170	-0.587311	0.404494
H124	H	1.522715	-0.626097	0.313719
H125	H	1.522597	-0.626061	0.415844
H126	H	1.557933	-0.473349	0.322153
H127	H	1.557844	-0.473296	0.424275
H128	H	1.704099	-0.632137	0.459403
H129	H	1.704204	-0.632170	0.357275
H130	H	1.733770	-0.544523	0.415443
H131	H	1.323037	-0.642895	0.316913
H132	H	0.876375	0.158876	0.514435
H133	H	1.529531	-0.404729	0.366373
H134	H	0.917491	-0.492003	0.219740
C135	C	1.388302	0.000873	0.928704
C136	C	1.351323	-0.066108	0.972762
C137	C	1.443377	-0.139952	1.040952
H138	H	1.420925	0.040149	0.972548
H139	H	1.443205	-0.043075	0.901224
H140	H	1.296440	-0.022164	1.000242
H141	H	1.318710	-0.105407	0.928942
H142	H	1.498280	-0.183901	1.013471
H143	H	1.475994	-0.100668	1.084789
H144	H	1.418302	-0.185414	1.070847
