data_functionalizedCrystal
_audit_creation_method	'MofGen! by Chris Wilmer'
_symmetry_space_group_name_H-M	'P1'
_symmetry_Int_Tables_number	1
_symmetry_cell_setting	triclinic
loop_
_symmetry_equiv_pos_as_xyz
  x,y,z
_cell_length_a	12.759395
_cell_length_b	16.625546
_cell_length_c	16.625539
_cell_angle_alpha	89.969603
_cell_angle_beta	89.981800
_cell_angle_gamma	90.024005
loop_
_atom_site_label
_atom_site_type_symbol
_atom_site_fract_x
_atom_site_fract_y
_atom_site_fract_z
Zn1	Zn	1.606188	-0.320967	-0.455847
Zn2	Zn	1.606062	-0.455810	-0.321009
Zn3	Zn	1.430493	-0.320999	-0.321033
Zn4	Zn	1.430455	-0.455765	-0.455804
O5	O	1.518299	-0.388385	-0.388423
O6	O	1.753192	-0.338860	-0.437968
O7	O	1.582736	-0.437959	-0.208180
O8	O	1.453868	-0.208162	-0.338944
O9	O	1.753100	-0.437929	-0.338903
O10	O	1.582951	-0.208139	-0.437991
O11	O	1.453746	-0.338914	-0.208197
O12	O	1.283467	-0.338870	-0.338903
O13	O	1.453803	-0.437852	-0.568642
O14	O	1.283439	-0.437882	-0.437919
O15	O	1.582913	-0.338816	-0.568674
O16	O	1.582698	-0.568637	-0.338862
O17	O	1.453680	-0.568603	-0.437896
C18	C	1.245332	-0.388376	-0.388409
C19	C	1.128555	-0.388391	-0.388423
C20	C	1.128564	-0.491659	-0.491361
C21	C	1.073708	-0.543299	-0.542833
C22	C	0.963987	-0.543309	-0.542843
C23	C	0.909119	-0.491671	-0.491377
C24	C	0.963975	-0.440031	-0.439905
C25	C	1.073699	-0.440028	-0.439899
C26	C	0.963966	-0.336760	-0.336972
C27	C	1.073687	-0.336753	-0.336957
C28	C	0.909098	-0.285122	-0.285506
C29	C	0.963954	-0.233485	-0.234030
C30	C	1.073682	-0.233478	-0.234021
C31	C	1.128544	-0.285113	-0.285485
C32	C	1.518200	-0.597876	-0.388389
C33	C	1.518254	-0.687497	-0.388402
C34	C	1.518437	-1.015673	-0.388486
C35	C	1.518383	-0.924364	-0.388465
C36	C	1.518344	-0.851588	-0.388444
C37	C	1.518292	-0.760274	-0.388423
C38	C	1.792333	-0.388396	-0.388438
C39	C	1.909110	-0.388400	-0.388444
C40	C	1.518368	-0.388325	-0.598732
C41	C	1.518397	-0.388300	-0.688353
C42	C	1.518428	-0.178076	-0.388475
C43	C	1.518483	-0.088455	-0.388497
C44	C	1.518445	-0.388209	-1.016529
C45	C	1.518429	-0.388237	-0.925221
C46	C	1.518422	-0.388255	-0.852444
C47	C	1.518404	-0.388282	-0.761130
C48	C	1.518292	-0.388387	-0.178932
C49	C	1.518466	-0.388185	-0.089312
H50	H	0.819778	-0.491677	-0.491397
C51	C	1.134020	-0.176670	-0.177400
C52	C	1.209398	-0.211513	-0.114021
C53	C	1.269731	-0.154704	-0.057399
C54	C	1.254684	-0.063052	-0.064157
C55	C	1.179302	-0.028205	-0.127539
C56	C	1.118970	-0.085014	-0.184161
H57	H	1.220540	-0.279363	-0.109016
H58	H	1.325533	-0.180501	-0.010479
H59	H	1.299345	-0.020999	-0.022242
H60	H	1.168161	0.039645	-0.132544
H61	H	1.063167	-0.059217	-0.231081
H62	H	1.118394	-0.585340	-0.584736
H63	H	1.217905	-0.491662	-0.491352
H64	H	0.819757	-0.285130	-0.285522
C65	C	0.903638	-0.600113	-0.599460
C66	C	0.963979	-0.656911	-0.656071
C67	C	0.903630	-0.713715	-0.712687
C68	C	0.782940	-0.713721	-0.712693
C69	C	0.722592	-0.656921	-0.656080
C70	C	0.782941	-0.600117	-0.599463
H71	H	1.053327	-0.656908	-0.656069
H72	H	0.948305	-0.755762	-0.754596
H73	H	0.738267	-0.755770	-0.754603
H74	H	0.633244	-0.656923	-0.656082
H75	H	0.738267	-0.558070	-0.557555
H76	H	0.919272	-0.191441	-0.192134
H77	H	1.217885	-0.285114	-0.285481
