data_functionalizedCrystal
_audit_creation_method	'MofGen! by Chris Wilmer'
_symmetry_space_group_name_H-M	'P1'
_symmetry_Int_Tables_number	1
_symmetry_cell_setting	triclinic
loop_
_symmetry_equiv_pos_as_xyz
  x,y,z
_cell_length_a	14.472311
_cell_length_b	15.995343
_cell_length_c	15.995350
_cell_angle_alpha	96.509221
_cell_angle_beta	89.993325
_cell_angle_gamma	89.997583
loop_
_atom_site_label
_atom_site_type_symbol
_atom_site_fract_x
_atom_site_fract_y
_atom_site_fract_z
O1	O	-0.076744	1.110994	-0.107884
O2	O	-0.076765	0.867217	-0.121218
O3	O	-0.076753	0.995769	0.007337
O4	O	-0.076756	0.982442	-0.236439
O5	O	0.076929	0.995750	0.007318
O6	O	0.076917	0.867198	-0.121237
O7	O	0.076938	1.110974	-0.107903
Cu8	Cu	0.090960	0.989085	-0.114572
Cu9	Cu	-0.090787	0.989107	-0.114549
O10	O	0.076926	0.982423	-0.236458
C11	C	0.000073	0.836013	-0.120678
C12	C	0.000065	0.743062	-0.119028
N13	N	0.218791	0.989075	-0.114588
C14	C	0.000077	0.572876	-0.116035
C15	C	0.000078	0.549530	-0.023238
C16	C	0.000432	0.452852	-0.021492
C17	C	0.000088	0.405316	-0.113086
C18	C	0.087673	0.434397	-0.159757
C19	C	0.087741	0.531189	-0.160858
C20	C	-0.087030	0.531121	-0.162195
C21	C	-0.088176	0.434627	-0.158769
C22	C	0.000098	0.310618	-0.111425
C23	C	0.000074	0.667574	-0.117699
C24	C	0.407291	0.989087	-0.114572
C25	C	0.446515	0.920290	-0.183335
C26	C	0.553603	0.920053	-0.183149
C27	C	0.592882	0.989099	-0.114558
C28	C	0.553991	0.970374	-0.027087
C29	C	0.446870	0.969874	-0.027498
C30	C	0.446758	1.076820	-0.132492
C31	C	0.553886	1.076238	-0.134469
C32	C	0.697770	0.989107	-0.114545
C33	C	0.302403	0.989077	-0.114580
N34	N	0.781382	0.989111	-0.114543
C35	C	0.000086	0.995209	0.038522
C36	C	0.000081	0.993557	0.131472
C37	C	0.000098	1.142179	-0.108444
C38	C	0.000101	1.235130	-0.110093
C39	C	0.000085	0.982983	-0.267643
C40	C	0.000084	0.984635	-0.360594
C41	C	0.000083	0.987625	0.469220
C42	C	-0.000269	0.896072	0.421783
C43	C	0.000077	0.897725	0.325093
C44	C	0.000082	0.990567	0.301659
C45	C	0.087844	1.035713	0.342727
C46	C	0.087917	1.033413	0.439363
C47	C	-0.086848	1.035326	0.439743
C48	C	-0.088008	1.035305	0.342797
C49	C	0.000084	0.992235	0.206962
C50	C	0.000088	0.985960	0.563917
H51	H	-0.062340	0.433841	0.015041
H52	H	0.421384	1.128013	-0.082353
Cl53	Cl	0.593266	1.045709	0.053848
H54	H	0.091902	1.100629	0.471612
H55	H	-0.063206	0.859488	0.440322
Cl56	Cl	-0.189548	0.989117	0.471452
Cl57	Cl	0.092894	1.141023	0.320922
Cl58	Cl	-0.096758	0.383754	-0.261958
H59	H	0.153150	1.004341	0.314336
Cl60	Cl	-0.096878	0.592784	0.032313
H61	H	0.420766	0.931199	-0.248565
Cl62	Cl	0.096063	0.839658	0.452378
Cl63	Cl	0.096906	0.594263	0.031382
H64	H	-0.153438	0.559400	-0.132909
H65	H	-0.152972	0.416077	-0.124781
Cl66	Cl	0.404975	0.820326	-0.165860
Cl67	Cl	0.405061	1.104725	-0.228899
H68	H	0.579241	0.854946	-0.171660
H69	H	0.090683	0.402550	-0.227168
H70	H	0.579291	1.090447	-0.198824
H71	H	0.063585	0.434408	0.014854
Cl72	Cl	0.595164	1.158956	-0.062192
H73	H	0.063090	0.861982	0.297219
Cl74	Cl	0.188693	0.403369	-0.110343
H75	H	-0.093303	1.103010	0.327438
H76	H	0.153462	0.557967	-0.128930
Cl77	Cl	0.595423	0.872745	-0.002196
Cl78	Cl	-0.097053	0.842932	0.281218
H79	H	-0.087875	0.545135	-0.230499
H80	H	0.153518	1.000477	0.457655
H81	H	0.420920	1.018095	0.025226
Cl82	Cl	0.408307	0.871105	-0.003205
Cl83	Cl	-0.188262	0.984762	0.300249
Cl84	Cl	-0.087757	1.139541	0.488783
Cl85	Cl	0.594207	0.937184	-0.283520
H86	H	0.091485	0.545762	-0.228909
