data_functionalizedCrystal
_audit_creation_method	'MofGen! by Chris Wilmer'
_symmetry_space_group_name_H-M	'P1'
_symmetry_Int_Tables_number	1
_symmetry_cell_setting	triclinic
loop_
_symmetry_equiv_pos_as_xyz
  x,y,z
_cell_length_a	17.699083
_cell_length_b	16.992695
_cell_length_c	16.176319
_cell_angle_alpha	89.993125
_cell_angle_beta	89.998611
_cell_angle_gamma	86.975619
loop_
_atom_site_label
_atom_site_type_symbol
_atom_site_fract_x
_atom_site_fract_y
_atom_site_fract_z
O1	O	1.010252	0.099146	-0.068631
O2	O	0.790676	0.112045	-0.068658
O3	O	0.899584	-0.008546	-0.068638
O4	O	0.901344	0.219736	-0.068651
O5	O	0.899567	-0.008553	0.068855
O6	O	0.790660	0.112037	0.068835
O7	O	1.010235	0.099138	0.068862
Cu8	Cu	0.900446	0.105587	0.081403
Cu9	Cu	0.900465	0.105596	-0.081199
O10	O	0.901328	0.219729	0.068842
C11	C	0.762442	0.111579	0.000085
C12	C	0.678338	0.110192	0.000075
C13	C	0.634124	0.180976	0.000071
C14	C	0.555099	0.179669	0.000082
C15	C	0.520290	0.107576	0.000091
C16	C	0.564510	0.036787	0.000097
C17	C	0.643533	0.038095	0.000092
C18	C	0.245818	0.031509	0.000118
C19	C	0.166789	0.030206	0.000120
C20	C	0.157384	0.173082	0.000108
C21	C	0.236408	0.174391	0.000103
C22	C	0.280621	0.103602	0.000113
C23	C	0.366308	0.105020	0.000103
C24	C	0.434604	0.106157	0.000095
C25	C	0.897311	-0.037758	0.000108
C26	C	0.890554	-0.124789	0.000107
C27	C	0.955751	-0.175154	0.000116
C28	C	0.949398	-0.256928	0.000107
C29	C	0.877846	-0.288336	0.000096
C30	C	0.812643	-0.237965	0.000084
C31	C	0.818998	-0.156192	0.000087
C32	C	0.851510	-0.531884	0.000081
C33	C	0.845160	-0.613663	0.000081
C34	C	0.981915	-0.632621	0.000102
C35	C	0.988263	-0.550845	0.000110
C36	C	0.923061	-0.500481	0.000094
N37	N	0.871350	-0.371923	0.000090
N38	N	0.929558	-0.416897	0.000095
C39	C	1.038469	0.099604	0.000117
C40	C	1.122574	0.100991	0.000122
C41	C	0.903601	0.248941	0.000094
C42	C	0.910358	0.335972	0.000090
N43	N	0.900438	0.105580	0.195768
N44	N	0.900479	0.105597	-0.195564
C45	C	0.948679	0.052204	0.239041
C46	C	0.948683	0.052203	0.325588
C47	C	0.900449	0.105583	0.368861
C48	C	0.852202	0.158961	0.325582
C49	C	0.852195	0.158957	0.239036
C50	C	0.852229	0.158976	0.674610
C51	C	0.852242	0.158977	0.761161
C52	C	0.948717	0.052222	0.761162
C53	C	0.948709	0.052218	0.674617
C54	C	0.900461	0.105593	0.631345
C55	C	0.900456	0.105593	0.537501
C56	C	0.900457	0.105588	0.462703
H57	H	0.662460	0.239682	0.000064
H58	H	0.812925	0.202421	0.360819
H59	H	0.121377	0.230722	0.000103
H60	H	0.754384	-0.263544	0.000070
C61	C	1.034457	-0.140608	0.000132
H62	H	1.028906	-0.084693	0.000140
H63	H	1.061518	-0.157899	-0.047811
H64	H	1.061501	-0.157913	0.048089
C65	C	1.021115	-0.312326	0.000126
H66	H	1.064639	-0.281909	0.000145
H67	H	1.021493	-0.344616	-0.047821
H68	H	1.021467	-0.344624	0.048079
C69	C	0.128496	-0.049097	0.000132
H70	H	0.075101	-0.039735	0.000124
H71	H	0.143376	-0.078239	0.048082
H72	H	0.143380	-0.078236	-0.047818
H73	H	0.519103	0.237308	0.000078
C74	C	0.526222	-0.042513	0.000105
H75	H	0.472826	-0.033156	0.000098
H76	H	0.541105	-0.071657	0.048052
H77	H	0.541106	-0.071647	-0.047848
H78	H	0.798417	-0.490887	0.000069
H79	H	0.281807	-0.026132	0.000127
H80	H	1.046528	-0.525279	0.000120
C81	C	0.747280	-0.100791	0.000079
H82	H	0.703756	-0.131207	0.000079
H83	H	0.746923	-0.068492	-0.047867
H84	H	0.746910	-0.068504	0.048033
H85	H	0.264745	0.233096	0.000092
C86	C	1.001736	-0.006515	0.191449
H87	H	1.030461	-0.038308	0.229620
H88	H	1.034940	0.021643	0.157677
H89	H	0.972532	-0.039120	0.157699
H90	H	0.812912	0.202420	0.203804
C91	C	1.001755	-0.006502	0.373185
H92	H	1.030489	-0.038285	0.335019
H93	H	0.972571	-0.039108	0.406958
H94	H	1.034963	0.021673	0.406935
H95	H	0.987989	0.008755	0.639387
C96	C	1.053631	-0.688021	0.000108
H97	H	1.039602	-0.741221	0.000097
H98	H	1.082765	-0.678523	0.048056
H99	H	1.082768	-0.678506	-0.047844
C100	C	0.799180	0.217691	0.808764
H101	H	0.806102	0.210053	0.866504
H102	H	0.748158	0.209238	0.794593
H103	H	0.810559	0.270010	0.794570
C104	C	0.692172	-0.039765	0.000095
H105	H	0.744220	-0.028661	0.000100
H106	H	0.681155	-0.069334	-0.047847
H107	H	0.681154	-0.069331	0.048053
C108	C	0.766450	-0.648211	0.000054
H109	H	0.728527	-0.606505	0.000035
H110	H	0.761115	-0.679724	0.047998
H111	H	0.761147	-0.679710	-0.047902
C112	C	0.799180	0.217704	0.627018
H113	H	0.806079	0.210060	0.569277
H114	H	0.810577	0.270013	0.641201
H115	H	0.748153	0.209266	0.641205
C116	C	1.001782	-0.006499	0.808763
H117	H	0.994875	0.001139	0.866504
H118	H	1.052801	0.001950	0.794573
H119	H	0.990395	-0.058816	0.794586
