data_functionalizedCrystal
_audit_creation_method	'MofGen! by Chris Wilmer'
_symmetry_space_group_name_H-M	'P1'
_symmetry_Int_Tables_number	1
_symmetry_cell_setting	triclinic
loop_
_symmetry_equiv_pos_as_xyz
  x,y,z
_cell_length_a	12.594517
_cell_length_b	12.594509
_cell_length_c	18.101165
_cell_angle_alpha	90.203763
_cell_angle_beta	90.186246
_cell_angle_gamma	89.978673
loop_
_atom_site_label
_atom_site_type_symbol
_atom_site_fract_x
_atom_site_fract_y
_atom_site_fract_z
Zn1	Zn	1.628761	-0.600563	0.294818
Zn2	Zn	1.629280	-0.422039	0.418677
Zn3	Zn	1.450765	-0.422591	0.294850
Zn4	Zn	1.451375	-0.599969	0.418625
O5	O	1.540045	-0.511290	0.356742
O6	O	1.777776	-0.576898	0.311257
O7	O	1.605561	-0.273166	0.402286
O8	O	1.473905	-0.446679	0.191210
O9	O	1.778157	-0.445738	0.402255
O10	O	1.604677	-0.577434	0.191187
O11	O	1.474407	-0.273572	0.311311
O12	O	1.301900	-0.446104	0.311261
O13	O	1.474943	-0.748994	0.402167
O14	O	1.302348	-0.576422	0.402198
O15	O	1.605268	-0.749430	0.311207
O16	O	1.606152	-0.445162	0.522305
O17	O	1.475446	-0.575887	0.522267
C18	C	1.263504	-0.511259	0.356728
C19	C	1.145199	-0.511271	0.356739
C20	C	1.075671	-0.440526	0.307211
C21	C	1.005202	-0.414049	0.374765
C22	C	1.004868	-0.537766	0.289219
C23	C	1.076288	-0.484743	0.424328
C24	C	1.075961	-0.608505	0.338737
C25	C	1.005524	-0.582065	0.406337
C26	C	1.540116	-0.788912	0.356678
C27	C	1.540146	-0.907217	0.356650
C28	C	1.469285	-0.976234	0.406095
C29	C	1.566497	-1.046944	0.424190
C30	C	1.443010	-1.047306	0.338510
C31	C	1.637410	-0.976370	0.374781
C32	C	1.513856	-0.976725	0.289069
C33	C	1.611136	-1.047404	0.307138
C34	C	1.817666	-0.511322	0.356758
C35	C	1.935971	-0.511336	0.356765
C36	C	1.539165	-0.512184	0.163576
C37	C	1.538790	-0.512565	0.081260
C38	C	1.540035	-0.234749	0.356754
C39	C	1.540210	-0.116445	0.356573
C40	C	1.539677	-0.511735	-0.069444
C41	C	1.457582	-0.429300	-0.100782
C42	C	1.458328	-0.428506	-0.186395
C43	C	1.540548	-0.510918	-0.217822
C44	C	1.652613	-0.481022	-0.186014
C45	C	1.651634	-0.480896	-0.100371
C46	C	1.510875	-0.624099	-0.101729
C47	C	1.508903	-0.623025	-0.187386
C48	C	1.541048	-0.510458	-0.301679
C49	C	1.539185	-0.512193	0.014413
C50	C	1.540950	-0.510423	0.549158
C51	C	1.541435	-0.510088	0.631474
H52	H	1.106480	-0.380626	0.265368
H53	H	0.974120	-0.331848	0.390007
H54	H	1.107519	-0.462269	0.481457
N55	N	0.963328	-0.567417	0.213569
H56	H	0.990168	-0.640317	0.199574
H57	H	0.883149	-0.567834	0.214310
H58	H	1.719608	-0.945343	0.390156
H59	H	1.671158	-1.078451	0.265291
H60	H	1.107068	-0.690682	0.323474
H61	H	1.430288	-0.651655	-0.080678
H62	H	1.491557	-0.945848	0.231967
N63	N	1.389969	-0.934837	0.461562
H64	H	1.409997	-0.960372	0.512570
H65	H	1.390062	-0.854658	0.460801
H66	H	0.974911	-0.641918	0.448281
N67	N	1.590085	-0.705426	-0.074882
H68	H	1.551919	-0.762253	-0.046056
H69	H	1.627021	-0.738710	-0.118662
N70	N	1.334167	-1.088584	0.318225
H71	H	1.280680	-1.062688	0.355640
H72	H	1.313827	-1.061933	0.267558
N73	N	1.683928	-0.372073	-0.073205
H74	H	1.624664	-0.340517	-0.042739
H75	H	1.750103	-0.378212	-0.041846
H76	H	1.375229	-0.447165	-0.207931
H77	H	1.373978	-0.447966	-0.080707
H78	H	1.588768	-1.077798	0.481309
N79	N	1.482553	-0.319623	-0.071601
H80	H	1.546811	-0.323103	-0.038169
H81	H	1.497689	-0.270605	-0.114326
N82	N	1.483955	-0.317908	-0.212852
H83	H	1.428452	-0.266638	-0.194130
H84	H	1.556065	-0.296150	-0.193502
H85	H	1.714905	-0.538362	-0.079609
H86	H	1.715711	-0.538988	-0.206344
N87	N	1.685843	-0.373114	-0.213708
H88	H	1.628477	-0.343441	-0.246848
H89	H	1.697233	-0.323764	-0.170304
N90	N	1.399640	-0.652928	-0.215001
H91	H	1.370751	-0.594111	-0.247095
H92	H	1.404232	-0.720692	-0.244823
H93	H	1.564562	-0.687448	-0.208821
