data_functionalizedCrystal
_audit_creation_method	'MofGen! by Chris Wilmer'
_symmetry_space_group_name_H-M	'P1'
_symmetry_Int_Tables_number	1
_symmetry_cell_setting	triclinic
loop_
_symmetry_equiv_pos_as_xyz
  x,y,z
_cell_length_a	11.792241
_cell_length_b	10.268362
_cell_length_c	10.654551
_cell_angle_alpha	90.002449
_cell_angle_beta	95.660611
_cell_angle_gamma	90.000272
loop_
_atom_site_label
_atom_site_type_symbol
_atom_site_fract_x
_atom_site_fract_y
_atom_site_fract_z
O1	O	-1.507307	0.108145	0.172136
O2	O	-1.177007	0.108179	0.189877
O3	O	-1.349751	0.108162	-0.001754
O4	O	-1.334563	0.108162	0.363767
O5	O	-1.349735	-0.108438	-0.001762
O6	O	-1.176992	-0.108421	0.189869
O7	O	-1.507292	-0.108455	0.172128
Cu8	Cu	-1.342140	-0.128216	0.180998
Cu9	Cu	-1.342158	0.127940	0.181007
O10	O	-1.334548	-0.108438	0.363759
C11	C	-1.134706	-0.000117	0.188758
C12	C	-1.008685	-0.000103	0.185423
N13	N	-1.342136	-0.308381	0.180990
C14	C	-0.777958	-0.000138	0.179290
C15	C	-0.906351	-0.000119	0.182697
C16	C	-1.342153	-0.574052	0.181005
C17	C	-1.342140	-0.426214	0.181000
C18	C	-0.549593	-0.000153	0.173247
C19	C	-0.675614	-0.000148	0.176582
C20	C	-1.348628	-0.000135	-0.048553
C21	C	-1.345291	-0.000126	-0.187987
N22	N	-1.342172	0.308106	0.181005
C23	C	-1.343733	0.117941	-0.253490
C24	C	-1.340588	0.117935	-0.384501
C25	C	-1.340562	-0.118215	-0.384496
C26	C	-1.343699	-0.118208	-0.253485
C27	C	-1.343753	0.254280	-0.253495
C28	C	-1.340608	0.254275	-0.384507
C29	C	-1.335671	-0.000138	0.410558
C30	C	-1.339008	-0.000139	0.549992
H31	H	-1.344961	-0.214349	-0.200157
C32	C	-1.239314	0.324310	-0.191421
C33	C	-1.273843	0.431376	-0.123246
C34	C	-1.177668	0.495926	-0.066063
H35	H	-1.196368	0.266331	-0.135857
H36	H	-1.193607	0.353473	-0.254452
H37	H	-1.319532	0.402212	-0.060223
H38	H	-1.316777	0.489385	-0.178782
H39	H	-1.131961	0.525088	-0.129093
H40	H	-1.134728	0.437936	-0.010505
H41	H	-1.201082	0.568583	-0.019809
C42	C	-1.445303	0.324039	-0.446305
C43	C	-1.512487	0.366717	-0.353131
C44	C	-1.608943	0.430971	-0.410012
H45	H	-1.422248	0.396799	-0.492636
H46	H	-1.488228	0.265898	-0.501751
H47	H	-1.469570	0.424854	-0.297706
H48	H	-1.535572	0.293982	-0.306794
H49	H	-1.651868	0.372830	-0.465458
H50	H	-1.585877	0.503725	-0.456341
H51	H	-1.654544	0.459925	-0.346803
H52	H	-1.426539	0.296574	-0.224161
H53	H	-1.339265	-0.214352	-0.437840
C54	C	-1.230311	0.310961	-0.423567
C55	C	-1.218714	0.439801	-0.381214
C56	C	-1.117131	0.492060	-0.417188
H57	H	-1.167665	0.260902	-0.387401
H58	H	-1.231926	0.309093	-0.512876
H59	H	-1.217089	0.441660	-0.291922
H60	H	-1.281334	0.489893	-0.417375
H61	H	-1.118745	0.490192	-0.506497
H62	H	-1.054493	0.441991	-0.381019
H63	H	-1.109254	0.579486	-0.388467
