data_functionalizedCrystal
_audit_creation_method	'MofGen! by Chris Wilmer'
_symmetry_space_group_name_H-M	'P1'
_symmetry_Int_Tables_number	1
_symmetry_cell_setting	triclinic
loop_
_symmetry_equiv_pos_as_xyz
  x,y,z
_cell_length_a	6.817900
_cell_length_b	9.514063
_cell_length_c	12.200875
_cell_angle_alpha	89.403086
_cell_angle_beta	107.143593
_cell_angle_gamma	118.843314
loop_
_atom_site_label
_atom_site_type_symbol
_atom_site_fract_x
_atom_site_fract_y
_atom_site_fract_z
V1	V	-4.153274	-0.222572	-0.358568
V2	V	-3.653274	0.277428	0.141432
O3	O	-4.051100	0.010320	-0.350810
O4	O	-3.551100	0.510320	0.149190
O5	O	-4.187867	-0.440961	-0.357012
O6	O	-3.687867	0.059039	0.142988
O7	O	-4.121753	-0.219313	-0.514543
O8	O	-3.621753	0.280687	-0.014543
O9	O	-4.117672	-0.212863	-0.192189
O10	O	-3.617672	0.287137	0.307811
V11	V	-4.623961	-0.194696	-0.338559
V12	V	-4.123961	0.305304	0.161441
O13	O	-4.442690	-0.283720	-0.402460
O14	O	-3.942690	0.216280	0.097540
O15	O	-4.784742	-0.133547	-0.294667
O16	O	-4.284742	0.366453	0.205333
O17	O	-4.366161	0.023694	-0.340115
O18	O	-3.866161	0.523694	0.159885
O19	O	-4.843531	-0.427587	-0.346317
O20	O	-4.343531	0.072413	0.153683
O21	O	-4.776960	-0.204405	-0.504938
O22	O	-4.276960	0.295595	-0.004938
O23	O	-4.432275	-0.197954	-0.182584
O24	O	-3.932275	0.302046	0.317416
C25	C	-4.052512	-0.494195	-0.351587
C26	C	-3.552512	0.005805	0.148413
C27	C	-4.162195	-0.672732	-0.351354
C28	C	-3.662195	-0.172732	0.148646
C29	C	-3.968175	-0.211458	-0.552532
C30	C	-3.468175	0.288542	-0.052532
C31	C	-4.024236	-0.210239	-0.680048
C32	C	-3.524236	0.289761	-0.180048
C33	C	-4.126836	-0.208008	-0.913513
C34	C	-3.626836	0.291992	-0.413513
C35	C	-4.069733	-0.209248	-0.783596
C36	C	-3.569733	0.290752	-0.283596
C37	C	-4.164861	0.076919	-0.345537
C38	C	-3.664861	0.576919	0.154463
C39	C	-4.034417	0.255455	-0.345777
C40	C	-3.534417	0.755455	0.154223
C41	C	-4.249197	-0.205814	-0.144589
C42	C	-3.749197	0.294186	0.355411
C43	C	-4.172371	-0.207026	-0.017072
C44	C	-3.672371	0.292974	0.482928
H45	H	-4.355494	-0.747832	-0.355937
H46	H	-3.855494	-0.247832	0.144063
H47	H	-3.841094	-0.669433	-0.341177
H48	H	-3.341094	-0.169433	0.158823
