data_functionalizedCrystal
_audit_creation_method	'MofGen! by Chris Wilmer'
_symmetry_space_group_name_H-M	'P1'
_symmetry_Int_Tables_number	1
_symmetry_cell_setting	triclinic
loop_
_symmetry_equiv_pos_as_xyz
  x,y,z
_cell_length_a	10.540539
_cell_length_b	19.288865
_cell_length_c	18.366186
_cell_angle_alpha	90.011479
_cell_angle_beta	90.006974
_cell_angle_gamma	83.830870
loop_
_atom_site_label
_atom_site_type_symbol
_atom_site_fract_x
_atom_site_fract_y
_atom_site_fract_z
O1	O	-1.683714	-0.097883	-0.060525
O2	O	-1.183714	0.402117	0.439475
O3	O	-1.314095	-0.107106	-0.060535
O4	O	-0.814095	0.392894	0.439465
O5	O	-1.509585	-0.001436	-0.060515
O6	O	-1.009585	0.498564	0.439485
O7	O	-1.488224	-0.203554	-0.060544
O8	O	-0.988224	0.296446	0.439456
O9	O	-1.509552	-0.001430	0.060584
O10	O	-1.009552	0.498570	0.560584
O11	O	-1.314062	-0.107100	0.060565
O12	O	-0.814062	0.392900	0.560565
O13	O	-1.683681	-0.097878	0.060575
O14	O	-1.183681	0.402122	0.560575
Zn15	Zn	-1.498866	-0.102488	0.079797
Zn16	Zn	-0.998866	0.397512	0.579797
Zn17	Zn	-1.498910	-0.102495	-0.079757
Zn18	Zn	-0.998910	0.397505	0.420243
O19	O	-1.488191	-0.203548	0.060555
O20	O	-0.988191	0.296452	0.560555
C21	C	-1.266791	-0.106411	0.000014
C22	C	-0.766791	0.393589	0.500014
C23	C	-1.125889	-0.104342	0.000011
C24	C	-0.625889	0.395658	0.500011
C25	C	-1.508881	0.024448	0.000037
C26	C	-1.008881	0.524448	0.500037
C27	C	-1.506818	0.101566	0.000043
C28	C	-1.006818	0.601566	0.500043
C29	C	-1.730985	-0.098572	0.000024
C30	C	-1.230985	0.401428	0.500024
C31	C	-1.871887	-0.100641	0.000023
C32	C	-1.371887	0.399359	0.500023
C33	C	-0.944230	-0.025053	0.000305
C34	C	-0.444230	0.474947	0.500305
C35	C	-1.090801	-0.027151	0.000024
C36	C	-0.590801	0.472849	0.500024
C37	C	-1.063408	-0.141493	-0.069145
C38	C	-0.563408	0.358507	0.430855
C39	C	-0.916922	-0.138859	-0.069196
C40	C	-0.416922	0.361141	0.430804
C41	C	-0.916361	-0.140423	0.068517
C42	C	-0.416361	0.359577	0.568517
C43	C	-1.063327	-0.141134	0.069423
C44	C	-0.563327	0.358866	0.569423
C45	C	-1.488895	-0.229432	0.000002
C46	C	-0.988895	0.270568	0.500002
C47	C	-1.490958	-0.306549	-0.000010
C48	C	-0.990958	0.193451	0.499990
N49	N	-1.498846	-0.102483	0.188688
N50	N	-0.998846	0.397517	0.688688
C51	C	-1.621522	0.145496	0.000050
C52	C	-1.121522	0.645496	0.500050
C53	C	-1.619584	0.217956	0.000038
C54	C	-1.119584	0.717956	0.500038
C55	C	-1.502935	0.246482	0.000035
C56	C	-1.002935	0.746482	0.500035
C57	C	-1.388215	0.202542	0.000024
C58	C	-0.888215	0.702542	0.500024
C59	C	-1.390157	0.130083	0.000028
C60	C	-0.890157	0.630083	0.500028
C61	C	-1.411223	0.355384	0.042451
C62	C	-0.911223	0.855384	0.542451
C63	C	-1.409286	0.427841	0.042451
C64	C	-0.909286	0.927841	0.542451
C65	C	-1.496941	0.469968	0.000018
C66	C	-0.996941	0.969968	0.500018
C67	C	-1.586555	0.439630	-0.042405
C68	C	-1.086555	0.939630	0.457595
C69	C	-1.588496	0.367172	-0.042401
C70	C	-1.088496	0.867172	0.457599
C71	C	-1.500816	0.325051	0.000030
C72	C	-1.000816	0.825051	0.500030
C73	C	-1.609552	0.592469	0.000011
C74	C	-1.109552	1.092469	0.500011
C75	C	-1.607609	0.664930	-0.000005
C76	C	-1.107609	1.164930	0.499995
C77	C	-1.376237	0.649513	-0.000012
C78	C	-0.876237	1.149513	0.499988
C79	C	-1.378183	0.577054	-0.000003
C80	C	-0.878183	1.077054	0.499997
C81	C	-1.494844	0.548536	0.000012
C82	C	-0.994844	1.048536	0.500012
N83	N	-1.498941	-0.102495	-0.188648
N84	N	-0.998941	0.397505	0.311352
C85	C	-1.585437	-0.055716	0.226797
C86	C	-1.085437	0.444284	0.726797
C87	C	-1.585445	-0.055713	0.303025
C88	C	-1.085445	0.444287	0.803025
C89	C	-1.498874	-0.102489	0.341141
C90	C	-0.998874	0.397511	0.841141
C91	C	-1.412267	-0.149260	0.303022
C92	C	-0.912267	0.350740	0.803022
C93	C	-1.412253	-0.149257	0.226796
C94	C	-0.912253	0.350743	0.726796
C95	C	-1.481882	-0.165663	0.461892
C96	C	-0.981882	0.334337	0.961892
C97	C	-1.481905	-0.165667	0.538117
C98	C	-0.981905	0.334333	1.038117
C99	C	-1.498910	-0.102498	0.576248
C100	C	-0.998910	0.397502	1.076248
C101	C	-1.515919	-0.039322	0.538146
C102	C	-1.015919	0.460678	1.038146
C103	C	-1.515905	-0.039319	0.461919
C104	C	-1.015905	0.460681	0.961919
C105	C	-1.498879	-0.102497	0.423795
C106	C	-0.998879	0.397503	0.923795
C107	C	-1.585514	-0.055723	0.697012
C108	C	-1.085514	0.444277	1.197012
C109	C	-1.585514	-0.055719	0.773241
C110	C	-1.085514	0.444281	1.273241
C111	C	-1.412342	-0.149273	0.773238
C112	C	-0.912342	0.350727	1.273238
C113	C	-1.412336	-0.149271	0.697010
C114	C	-0.912336	0.350729	1.197010
C115	C	-1.498930	-0.102497	0.658902
C116	C	-0.998930	0.397503	1.158902
H117	H	-1.134053	0.002081	0.049599
H118	H	-0.634053	0.502081	0.549599
F119	F	-1.677612	-0.005934	0.343590
F120	F	-1.177612	0.494066	0.843590
H121	H	-1.336312	0.452536	0.076990
H122	H	-0.836312	0.952536	0.576990
H123	H	-1.284778	0.541284	-0.000004
H124	H	-0.784778	1.041284	0.499996
F125	F	-1.745684	0.115150	0.000050
F126	F	-1.245684	0.615150	0.500050
H127	H	-1.341738	-0.187341	0.195767
H128	H	-0.841738	0.312659	0.695767
F129	F	-1.091003	-0.215582	-0.072533
F130	F	-0.591003	0.284418	0.427467
H131	H	-1.468013	-0.217107	0.430851
H132	H	-0.968013	0.282893	0.930851
H133	H	-1.339841	0.321089	0.077008
H134	H	-0.839841	0.821089	0.577008
H135	H	-1.701019	0.700698	-0.000003
H136	H	-1.201019	1.200698	0.499997
F137	F	-1.677591	-0.005933	0.186241
F138	F	-1.177591	0.494067	0.686241
F139	F	-0.907731	0.014809	0.065132
F140	F	-0.407731	0.514809	0.565132
F141	F	-1.093343	-0.214695	0.074870
F142	F	-0.593343	0.285305	0.574870
F143	F	-1.264069	0.232902	0.000015
F144	F	-0.764069	0.732902	0.500015
F145	F	-1.677669	-0.005940	0.656454
F146	F	-1.177669	0.494060	1.156454
H147	H	-0.867716	-0.194374	-0.072342
H148	H	-0.367716	0.305626	0.427658
H149	H	-0.914713	0.005310	-0.049006
H150	H	-0.414713	0.505310	0.450994
F151	F	-1.741673	0.264720	0.000044
F152	F	-1.241673	0.764720	0.500044
H153	H	-1.341777	-0.187345	0.334060
H154	H	-0.841777	0.312655	0.834060
F155	F	-1.533996	0.027915	0.421370
F156	F	-1.033996	0.527915	0.921370
F157	F	-1.268067	0.083327	0.000021
F158	F	-0.768067	0.583327	0.500021
H159	H	-1.661460	0.342474	-0.076945
H160	H	-1.161460	0.842474	0.423055
F161	F	-1.146208	0.011165	-0.064977
F162	F	-0.646208	0.511165	0.435023
F163	F	-0.880863	-0.102975	-0.136754
F164	F	-0.380863	0.397025	0.363246
F165	F	-1.117514	-0.105603	0.136295
F166	F	-0.617514	0.394397	0.636295
H167	H	-1.281259	0.672738	-0.000018
H168	H	-0.781259	1.172738	0.499982
F169	F	-1.320199	-0.199051	0.813800
F170	F	-0.820199	0.300949	1.313800
F171	F	-1.679850	0.484459	-0.087570
F172	F	-1.179850	0.984459	0.412430
H173	H	-1.529766	0.012117	0.569191
H174	H	-1.029766	0.512117	1.069191
F175	F	-1.677673	-0.005937	0.813802
F176	F	-1.177673	0.494063	1.313802
F177	F	-1.320180	-0.199050	0.656448
F178	F	-0.820180	0.300950	1.156448
H179	H	-1.106585	-0.115690	-0.120606
H180	H	-0.606585	0.384310	0.379394
F181	F	-0.853010	-0.213298	0.069118
F182	F	-0.353010	0.286702	0.569118
H183	H	-0.885357	-0.115439	0.120937
H184	H	-0.385357	0.384561	0.620937
H185	H	-1.468063	-0.217109	0.569134
H186	H	-0.968063	0.282891	1.069134
F187	F	-1.733711	0.562116	0.000031
F188	F	-1.233711	1.062116	0.500031
