data_functionalizedCrystal
_audit_creation_method	'MofGen! by Chris Wilmer'
_symmetry_space_group_name_H-M	'P1'
_symmetry_Int_Tables_number	1
_symmetry_cell_setting	triclinic
loop_
_symmetry_equiv_pos_as_xyz
  x,y,z
_cell_length_a	6.394984
_cell_length_b	16.109301
_cell_length_c	15.186229
_cell_angle_alpha	90.000638
_cell_angle_beta	89.997785
_cell_angle_gamma	95.021583
loop_
_atom_site_label
_atom_site_type_symbol
_atom_site_fract_x
_atom_site_fract_y
_atom_site_fract_z
O1	O	0.268481	-1.105971	-0.073170
O2	O	0.301893	-0.864262	-0.073184
O3	O	-0.018881	-0.988550	-0.073174
O4	O	0.589254	-0.981683	-0.073179
O5	O	-0.018885	-0.988541	0.073283
O6	O	0.301888	-0.864253	0.073274
O7	O	0.268476	-1.105962	0.073287
Zn8	Zn	0.285181	-0.985106	0.096534
Zn9	Zn	0.285187	-0.985118	-0.096430
O10	O	0.589250	-0.981674	0.073278
C11	C	0.300537	-0.833268	0.000043
C12	C	0.296479	-0.740930	0.000038
C13	C	0.903299	-0.987180	0.000057
C14	C	0.667065	-0.983042	0.000055
C15	C	0.269832	-1.136955	0.000059
C16	C	0.273890	-1.229294	0.000058
N17	N	0.285176	-0.985105	0.228226
N18	N	0.285176	-0.985126	-0.228123
C19	C	0.477385	-0.520571	0.000047
C20	C	0.473556	-0.433811	0.000052
C21	C	0.092969	-0.449659	0.000052
C22	C	0.096800	-0.536418	0.000053
C23	C	0.289014	-0.571872	0.000046
C24	C	0.281354	-0.398352	0.000051
C25	C	0.277202	-0.304282	0.000057
C26	C	0.293168	-0.665948	0.000041
C27	C	0.143185	-1.040159	0.453954
C28	C	0.143180	-1.040162	0.546143
C29	C	0.427174	-0.930065	0.546144
C30	C	0.427167	-0.930059	0.453956
C31	C	0.285175	-0.985111	0.407863
C32	C	0.285177	-0.985119	0.592241
C33	C	0.285173	-0.985122	0.692197
C34	C	0.285176	-0.985108	0.307901
H35	H	0.626947	-0.392045	0.000055
O36	O	0.580326	-0.870686	0.404233
H37	H	0.679086	-0.832416	0.451770
O38	O	0.684689	-0.558816	0.000057
H39	H	0.815030	-0.508563	0.000070
H40	H	0.027564	-1.084984	0.416427
O41	O	-0.009938	-1.099545	0.595859
H42	H	-0.108651	-1.137828	0.548317
H43	H	0.542783	-0.885245	0.583682
H44	H	-0.063525	-0.420782	0.000063
H45	H	-0.056603	-0.578190	0.000054
