data_functionalizedCrystal
_audit_creation_method	'MofGen! by Chris Wilmer'
_symmetry_space_group_name_H-M	'P1'
_symmetry_Int_Tables_number	1
_symmetry_cell_setting	triclinic
loop_
_symmetry_equiv_pos_as_xyz
  x,y,z
_cell_length_a	10.654559
_cell_length_b	10.654562
_cell_length_c	9.130313
_cell_angle_alpha	89.995234
_cell_angle_beta	89.998371
_cell_angle_gamma	84.489394
loop_
_atom_site_label
_atom_site_type_symbol
_atom_site_fract_x
_atom_site_fract_y
_atom_site_fract_z
O1	O	-0.176473	-1.667833	0.121887
O2	O	-0.193263	-1.302357	0.121867
O3	O	-0.002130	-1.493492	0.121877
O4	O	-0.367606	-1.476698	0.121877
O5	O	-0.002125	-1.493485	-0.121721
O6	O	-0.193258	-1.302350	-0.121731
O7	O	-0.176468	-1.667826	-0.121712
Cu8	Cu	-0.184863	-1.485087	-0.143964
Cu9	Cu	-0.184869	-1.485096	0.144120
O10	O	-0.367601	-1.476691	-0.121722
C11	C	-0.192024	-1.255556	0.000066
C12	C	-0.188326	-1.116113	0.000059
C13	C	0.044670	-1.492253	0.000081
C14	C	0.184113	-1.488556	0.000090
C15	C	-0.177707	-1.714627	0.000093
C16	C	-0.181405	-1.854070	0.000109
C17	C	-0.414402	-1.477930	0.000077
C18	C	-0.553844	-1.481627	0.000078
C19	C	0.235658	-1.372545	0.000088
C20	C	0.366681	-1.369079	0.000076
C21	C	0.394602	-1.597647	0.000076
C22	C	0.263582	-1.601111	0.000077
C23	C	0.156189	-1.259990	0.000101
C24	C	0.207733	-1.143969	0.000100
C25	C	0.338755	-1.140503	0.000089
C26	C	0.418234	-1.253058	0.000079
N27	N	-0.184858	-1.485090	-0.346587
C28	C	-0.186598	-1.050578	-0.132715
C29	C	-0.183133	-0.919556	-0.132691
C30	C	-0.183129	-0.919614	0.132894
C31	C	-0.186585	-1.050635	0.132868
C32	C	-0.188339	-1.116056	-0.265524
C33	C	-0.186613	-1.050521	-0.398310
C34	C	-0.183148	-0.919499	-0.398285
C35	C	-0.181409	-0.854011	-0.265476
C36	C	-0.107971	-1.408269	-0.423267
C37	C	-0.107977	-1.408272	-0.576603
C38	C	-0.261759	-1.561927	-0.576568
C39	C	-0.261759	-1.561917	-0.423234
C40	C	-0.031070	-1.331442	-0.346620
C41	C	0.045824	-1.254616	-0.423300
C42	C	0.045819	-1.254619	-0.576637
C43	C	-0.031081	-1.331448	-0.653294
N44	N	-0.184864	-1.485103	0.346742
H45	H	0.049503	-1.262799	0.000113
H46	H	0.143014	-1.052331	0.000096
C47	C	0.395452	-1.012889	0.000087
H48	H	0.329355	-0.946357	0.000106
H49	H	0.445983	-1.006773	-0.084862
H50	H	0.445981	-1.006798	0.085046
H51	H	-0.188019	-1.103850	-0.506438
C52	C	-0.181246	-0.847413	-0.544338
H53	H	-0.182788	-0.905177	-0.623432
H54	H	-0.106790	-0.805228	-0.549860
H55	H	-0.253016	-0.787374	-0.549840
H56	H	-0.178585	-0.747325	-0.265466
C57	C	0.562355	-1.249245	0.000072
H58	H	0.581674	-1.164031	0.000080
H59	H	0.597158	-1.290666	-0.084871
H60	H	0.597144	-1.290669	0.085036
H61	H	-0.031054	-1.331434	-0.221766
H62	H	0.108420	-1.192054	-0.639065
H63	H	-0.324367	-1.624478	-0.638994
H64	H	0.459323	-1.689284	0.000070
H65	H	-0.181717	-0.866284	0.241021
C66	C	-0.188497	-1.122727	0.278916
H67	H	-0.186985	-1.064966	0.358016
H68	H	-0.116739	-1.182769	0.284426
H69	H	-0.262965	-1.164908	0.284419
C70	C	0.130395	-1.170100	-0.338984
H71	H	0.119394	-1.181104	-0.236681
H72	H	0.107859	-1.084378	-0.364127
H73	H	0.216116	-1.192693	-0.364114
H74	H	-0.031087	-1.331437	-0.778151
C75	C	-0.346319	-1.646431	-0.338880
H76	H	-0.392102	-1.692204	-0.406486
H77	H	-0.403638	-1.595471	-0.279065
H78	H	-0.295375	-1.703779	-0.279063
H79	H	-0.191164	-1.222741	-0.265559
C80	C	0.206877	-1.728721	0.000081
H81	H	0.272969	-1.795259	0.000093
H82	H	0.156348	-1.734814	-0.084867
H83	H	0.156346	-1.734826	0.085040
