data_functionalizedCrystal
_audit_creation_method	'MofGen! by Chris Wilmer'
_symmetry_space_group_name_H-M	'P1'
_symmetry_Int_Tables_number	1
_symmetry_cell_setting	triclinic
loop_
_symmetry_equiv_pos_as_xyz
  x,y,z
_cell_length_a	17.038272
_cell_length_b	17.000371
_cell_length_c	16.098524
_cell_angle_alpha	93.245923
_cell_angle_beta	92.870584
_cell_angle_gamma	83.355402
loop_
_atom_site_label
_atom_site_type_symbol
_atom_site_fract_x
_atom_site_fract_y
_atom_site_fract_z
O1	O	1.028469	0.175408	0.069154
O2	O	0.801026	0.172677	0.069179
O3	O	0.928869	0.059132	0.069159
O4	O	0.900625	0.288953	0.069174
O5	O	0.923081	0.052383	-0.069354
O6	O	0.795238	0.165928	-0.069334
O7	O	1.022680	0.168659	-0.069359
Zn8	Zn	0.908040	0.166222	-0.091338
Zn9	Zn	0.915666	0.175114	0.091159
O10	O	0.894837	0.282204	-0.069339
C11	C	0.769174	0.166818	-0.000075
C12	C	0.682889	0.159406	-0.000065
C13	C	0.927492	0.026206	-0.000097
C14	C	0.932004	-0.061847	-0.000097
C15	C	0.862582	-0.098572	-0.000086
C16	C	0.866826	-0.181308	-0.000088
C17	C	0.940491	-0.227316	-0.000096
C18	C	1.009918	-0.190585	-0.000110
C19	C	1.005673	-0.107851	-0.000113
C20	C	0.956885	-0.477352	-0.000092
C21	C	0.961124	-0.560091	-0.000087
C22	C	0.818032	-0.550809	-0.000067
C23	C	0.813794	-0.468073	-0.000065
C24	C	0.883220	-0.431350	-0.000083
C25	C	0.944830	-0.311886	-0.000096
C26	C	0.878880	-0.346782	-0.000089
C27	C	0.628114	0.227464	-0.000062
C28	C	0.547040	0.220494	-0.000074
C29	C	0.520744	0.145464	-0.000083
C30	C	0.575526	0.077401	-0.000090
C31	C	0.656597	0.084371	-0.000084
C32	C	0.276671	0.120837	-0.000107
C33	C	0.195593	0.113872	-0.000111
C34	C	0.167113	0.256966	-0.000096
C35	C	0.248188	0.263930	-0.000085
C36	C	0.302962	0.195866	-0.000096
C37	C	0.437874	0.138338	-0.000093
C38	C	0.385830	0.202993	-0.000092
C39	C	1.054532	0.174518	-0.000103
C40	C	1.140818	0.181930	-0.000107
C41	C	0.896214	0.315129	-0.000081
C42	C	0.891703	0.403183	-0.000076
N43	N	0.902841	0.160153	-0.215888
C44	C	0.944914	0.209306	-0.259471
C45	C	0.941288	0.205056	-0.346660
C46	C	0.895584	0.151656	-0.390264
C47	C	0.853510	0.102498	-0.346675
C48	C	0.857141	0.106744	-0.259487
C49	C	0.882429	0.136265	-0.653515
C50	C	0.878799	0.132024	-0.740708
C51	C	0.966578	0.234582	-0.740688
C52	C	0.970202	0.238827	-0.653499
C53	C	0.928131	0.189666	-0.609917
C54	C	0.891874	0.147312	-0.479386
C55	C	0.931845	0.194006	-0.520797
N56	N	0.920872	0.181177	0.215708
H57	H	0.802596	-0.061118	-0.000075
H58	H	0.753808	-0.430618	-0.000056
H59	H	0.848172	0.096234	-0.618041
H60	H	0.174187	0.052771	-0.000118
F61	F	0.993556	0.266143	-0.213073
F62	F	0.986066	0.257373	-0.393042
F63	F	0.744149	-0.589899	-0.000048
F64	F	1.088318	-0.239553	-0.000127
H65	H	0.841578	0.088539	-0.776208
F66	F	0.792937	-0.220391	-0.000075
H67	H	0.816301	0.059015	-0.382184
F68	F	1.018818	0.295687	-0.607099
H69	H	0.701196	0.028951	-0.000086
F70	F	1.030776	-0.438277	-0.000089
H71	H	1.021115	-0.597550	-0.000088
F72	F	1.079561	-0.068766	-0.000132
F73	F	0.812368	0.054423	-0.213103
H74	H	0.818902	-0.309319	-0.000087
F75	F	0.334957	0.048397	-0.000118
H76	H	0.854662	0.103834	-0.514898
H77	H	1.000830	0.274605	-0.776182
H78	H	0.649517	0.288561	-0.000053
F79	F	1.023229	-0.360858	-0.000108
F80	F	0.488747	0.292932	-0.000066
F81	F	0.409880	0.058488	-0.000100
H82	H	0.969060	0.237481	-0.485291
H83	H	0.269591	0.325028	-0.000068
F84	F	0.108813	0.329399	-0.000087
F85	F	0.547537	-0.002452	-0.000105
F86	F	0.413819	0.282842	-0.000085
