data_functionalizedCrystal
_audit_creation_method	'MofGen! by Chris Wilmer'
_symmetry_space_group_name_H-M	'P1'
_symmetry_Int_Tables_number	1
_symmetry_cell_setting	triclinic
loop_
_symmetry_equiv_pos_as_xyz
  x,y,z
_cell_length_a	16.956995
_cell_length_b	16.974813
_cell_length_c	13.448316
_cell_angle_alpha	86.338833
_cell_angle_beta	89.989933
_cell_angle_gamma	79.732302
loop_
_atom_site_label
_atom_site_type_symbol
_atom_site_fract_x
_atom_site_fract_y
_atom_site_fract_z
O1	O	1.058004	0.032775	-0.085397
O2	O	1.391337	0.366108	0.247936
O3	O	1.724670	0.699441	0.581270
O4	O	0.825816	0.060535	-0.087618
O5	O	1.159149	0.393869	0.245716
O6	O	1.492483	0.727202	0.579049
O7	O	0.948382	-0.068872	-0.077206
O8	O	1.281716	0.264462	0.256127
O9	O	1.615049	0.597795	0.589460
O10	O	0.935437	0.162182	-0.095808
O11	O	1.268771	0.495515	0.237525
O12	O	1.602104	0.828848	0.570858
O13	O	0.948367	-0.068878	0.088178
O14	O	1.281700	0.264455	0.421511
O15	O	1.615034	0.597789	0.754845
O16	O	0.825801	0.060529	0.077767
O17	O	1.159134	0.393862	0.411100
O18	O	1.492467	0.727196	0.744433
O19	O	1.057988	0.032768	0.079987
O20	O	1.391322	0.366102	0.413321
O21	O	1.724655	0.699435	0.746654
Cu22	Cu	0.941893	0.046648	0.093978
Cu23	Cu	1.275226	0.379981	0.427311
Cu24	Cu	1.608560	0.713315	0.760645
Cu25	Cu	0.941911	0.046656	-0.101608
Cu26	Cu	1.275245	0.379989	0.231725
Cu27	Cu	1.608578	0.713322	0.565058
O28	O	0.935422	0.162175	0.069576
O29	O	1.268755	0.495509	0.402909
O30	O	1.602089	0.828842	0.736243
C31	C	0.796099	0.061953	-0.005038
C32	C	1.129432	0.395287	0.328295
C33	C	1.462765	0.728620	0.661629
C34	C	0.707574	0.066179	-0.005373
C35	C	1.040907	0.399513	0.327960
C36	C	1.374240	0.732846	0.661294
C37	C	0.208239	0.097793	-0.007955
C38	C	0.541572	0.431126	0.325378
C39	C	0.874905	0.764459	0.658712
C40	C	0.291418	0.093816	-0.007634
C41	C	0.624752	0.427149	0.325699
C42	C	0.958085	0.760483	0.659032
C43	C	0.342588	0.019170	-0.001617
C44	C	0.675922	0.352503	0.331716
C45	C	1.009255	0.685837	0.665050
C46	C	0.310575	-0.051503	0.004069
C47	C	0.643908	0.281830	0.337403
C48	C	0.977241	0.615163	0.670736
C49	C	0.227397	-0.047526	0.003741
C50	C	0.560730	0.285807	0.337075
C51	C	0.894063	0.619141	0.670408
C52	C	0.592382	-0.000517	-0.000015
C53	C	0.925716	0.332817	0.333319
C54	C	1.259049	0.666150	0.666652
C55	C	0.675565	-0.004489	0.000316
C56	C	1.008899	0.328844	0.333649
C57	C	1.342232	0.662178	0.666983
C58	C	0.656403	0.140831	-0.011389
C59	C	0.989737	0.474164	0.321944
C60	C	1.323070	0.807498	0.655277
C61	C	0.573224	0.144802	-0.011711
C62	C	0.906558	0.478135	0.321622
C63	C	1.239891	0.811468	0.654956
C64	C	0.541218	0.074128	-0.006030
C65	C	0.874551	0.407462	0.327304
C66	C	1.207885	0.740795	0.660637
N67	N	0.427611	0.015103	-0.001286
N68	N	0.760945	0.348437	0.332048
N69	N	1.094278	0.681770	0.665381
N70	N	0.456196	0.078196	-0.006368
N71	N	0.789530	0.411529	0.326965
N72	N	1.122863	0.744862	0.660298
C73	C	0.947882	-0.098301	0.007853
C74	C	1.281215	0.235032	0.341186
C75	C	1.614549	0.568365	0.674520
C76	C	0.946405	-0.185982	0.014906
C77	C	1.279738	0.147352	0.348239
C78	C	1.613071	0.480685	0.681573
C79	C	0.945721	-0.227166	-0.071931
C80	C	1.279054	0.106167	0.261403
C81	C	1.612388	0.439500	0.594736
C82	C	0.944328	-0.309550	-0.065301
C83	C	1.277661	0.023783	0.268033
C84	C	1.610994	0.357116	0.601366
C85	C	0.943624	-0.350750	0.028167
C86	C	1.276957	-0.017416	0.361501
C87	C	1.610291	0.315917	0.694834
C88	C	0.944306	-0.309559	0.115011
C89	C	1.277639	0.023775	0.448344
C90	C	1.610972	0.357108	0.781677
C91	C	0.945693	-0.227175	0.108379
C92	C	1.279026	0.106158	0.441713
C93	C	1.612360	0.439492	0.775046
C94	C	0.939468	-0.597140	0.057667
C95	C	1.272802	-0.263807	0.391000
C96	C	1.606135	0.069527	0.724334
C97	C	0.938083	-0.679530	0.064292
C98	C	1.271417	-0.346197	0.397625
C99	C	1.604750	-0.012863	0.730958
C100	C	0.938104	-0.679516	-0.116020
C101	C	1.271437	-0.346182	0.217313
C102	C	1.604771	-0.012849	0.550646
C103	C	0.939496	-0.597131	-0.122643
C104	C	1.272830	-0.263798	0.210690
C105	C	1.606163	0.069535	0.544023
C106	C	0.940173	-0.555947	-0.035800
C107	C	1.273507	-0.222614	0.297533
C108	C	1.606840	0.110720	0.630867
N109	N	0.942203	-0.434960	0.034947
N110	N	1.275536	-0.101627	0.368280
N111	N	1.608869	0.231707	0.701614
N112	N	0.941589	-0.471737	-0.042581
N113	N	1.274923	-0.138404	0.290753
N114	N	1.608256	0.194930	0.624086
C115	C	1.087705	0.031350	-0.002594
C116	C	1.421039	0.364683	0.330739
C117	C	1.754372	0.698017	0.664072
C118	C	1.176231	0.027124	-0.002266
C119	C	1.509564	0.360458	0.331067
C120	C	1.842897	0.693791	0.664401
C121	C	0.935922	0.191605	-0.015485
C122	C	1.269256	0.524938	0.317848
C123	C	1.602589	0.858271	0.651181
C124	C	0.937399	0.279285	-0.022545
C125	C	1.270733	0.612619	0.310788
C126	C	1.604066	0.945952	0.644122
N127	N	0.941886	0.046642	0.231543
N128	N	1.275219	0.379975	0.564876
N129	N	1.608553	0.713308	0.898209
N130	N	0.941924	0.046655	-0.239172
N131	N	1.275258	0.379989	0.094161
N132	N	1.608591	0.713322	0.427494
C133	C	0.996175	-0.010639	0.288191
C134	C	1.329508	0.322695	0.621525
C135	C	1.662842	0.656028	0.954858
C136	C	0.996180	-0.010640	0.392295
C137	C	1.329513	0.322694	0.725628
C138	C	1.662847	0.656027	1.058961
C139	C	0.941899	0.046644	0.439747
C140	C	1.275233	0.379977	0.773080
C141	C	1.608566	0.713311	1.106414
C142	C	0.887604	0.103927	0.383091
C143	C	1.220938	0.437261	0.716424
C144	C	1.554271	0.770594	1.049758
C145	C	0.887596	0.103924	0.278990
C146	C	1.220930	0.437257	0.612323
C147	C	1.554263	0.770591	0.945656
C148	C	0.887626	0.103931	0.600071
C149	C	1.220960	0.437265	0.933404
C150	C	1.554293	0.770598	1.266737
C151	C	0.887635	0.103936	0.704179
C152	C	1.220969	0.437269	1.037512
C153	C	1.554302	0.770602	1.370845
C154	C	0.996210	-0.010633	0.713376
C155	C	1.329544	0.322701	1.046709
C156	C	1.662877	0.656034	1.380042
C157	C	0.996202	-0.010636	0.609275
C158	C	1.329536	0.322698	0.942608
C159	C	1.662869	0.656031	1.275941
C160	C	0.941908	0.046649	0.552625
C161	C	1.275242	0.379982	0.885959
C162	C	1.608575	0.713315	1.219292
H163	H	0.166581	0.158577	-0.012847
H164	H	0.499915	0.491911	0.320486
H165	H	0.833248	0.825244	0.653819
Br166	Br	0.813936	0.181673	0.523193
Br167	Br	1.147270	0.515006	0.856526
Br168	Br	1.480603	0.848339	1.189860
H169	H	0.946298	-0.193629	-0.148042
H170	H	1.279631	0.139705	0.185291
H171	H	1.612965	0.473038	0.518624
H172	H	0.843404	0.150566	0.421733
H173	H	1.176737	0.483900	0.755066
H174	H	1.510070	0.817233	1.088399
Br175	Br	0.937186	-0.735413	-0.233872
Br176	Br	1.270519	-0.402080	0.099461
Br177	Br	1.603852	-0.068746	0.432795
H178	H	1.040406	-0.057277	0.570639
H179	H	1.373739	0.276057	0.903972
H180	H	1.707072	0.609390	1.237306
H181	H	0.352244	-0.112282	0.008963
H182	H	0.685577	0.221052	0.342296
H183	H	1.018911	0.554385	0.675630
Br184	Br	0.813965	0.181681	0.768571
Br185	Br	1.147298	0.515014	1.101904
Br186	Br	1.480632	0.848348	1.435237
H187	H	0.682472	0.198369	-0.016016
H188	H	1.015805	0.531703	0.317317
H189	H	1.349139	0.865036	0.650650
H190	H	0.531566	0.205586	-0.016614
H191	H	0.864900	0.538920	0.316720
H192	H	1.198233	0.872253	0.650053
H193	H	0.943774	-0.343080	-0.136012
H194	H	1.277108	-0.009747	0.197321
H195	H	1.610441	0.323587	0.530654
Br196	Br	1.069852	-0.088380	0.223803
Br197	Br	1.403186	0.244953	0.557136
Br198	Br	1.736519	0.578286	0.890469
Br199	Br	0.334855	0.189727	-0.015365
Br200	Br	0.668188	0.523061	0.317968
Br201	Br	1.001522	0.856394	0.651302
Br202	Br	0.745011	-0.105801	0.008485
Br203	Br	1.078345	0.227533	0.341818
Br204	Br	1.411678	0.560866	0.675151
Br205	Br	0.940371	-0.541254	0.175526
Br206	Br	1.273704	-0.207921	0.508859
Br207	Br	1.607037	0.125413	0.842193
H208	H	0.566333	-0.058064	0.004614
H209	H	0.899667	0.275269	0.337948
H210	H	1.233000	0.608603	0.671281
Br211	Br	0.943338	-0.365468	0.241862
Br212	Br	1.276671	-0.032135	0.575195
Br213	Br	1.610004	0.301198	0.908528
H214	H	0.843388	0.150567	0.232867
H215	H	1.176721	0.483900	0.566200
H216	H	1.510054	0.817233	0.899534
Br217	Br	0.183956	-0.143437	0.011459
Br218	Br	0.517289	0.189897	0.344792
Br219	Br	0.850623	0.523230	0.678125
Br220	Br	0.940457	-0.541225	-0.249497
Br221	Br	1.273790	-0.207891	0.083836
Br222	Br	1.607123	0.125442	0.417169
H223	H	0.946239	-0.193641	0.179091
H224	H	1.279572	0.139692	0.512424
H225	H	1.612905	0.473025	0.845758
H226	H	0.937506	-0.713071	0.140408
H227	H	1.270840	-0.379738	0.473742
H228	H	1.604173	-0.046405	0.807075
Br229	Br	1.069856	-0.088381	0.469179
Br230	Br	1.403190	0.244952	0.802512
Br231	Br	1.736523	0.578286	1.135846
Br232	Br	1.069897	-0.088371	0.790259
Br233	Br	1.403231	0.244962	1.123592
Br234	Br	1.736564	0.578295	1.456926
