data_functionalizedCrystal
_audit_creation_method	'MofGen! by Chris Wilmer'
_symmetry_space_group_name_H-M	'P1'
_symmetry_Int_Tables_number	1
_symmetry_cell_setting	triclinic
loop_
_symmetry_equiv_pos_as_xyz
  x,y,z
_cell_length_a	17.077404
_cell_length_b	15.297327
_cell_length_c	15.298431
_cell_angle_alpha	91.656067
_cell_angle_beta	80.342999
_cell_angle_gamma	99.707136
loop_
_atom_site_label
_atom_site_type_symbol
_atom_site_fract_x
_atom_site_fract_y
_atom_site_fract_z
Zn1	Zn	1.076822	-0.262968	0.555579
Zn2	Zn	1.069075	-0.434816	0.434441
Zn3	Zn	0.963772	-0.288357	0.409126
Zn4	Zn	0.919658	-0.409412	0.580859
O5	O	1.007332	-0.348889	0.495001
O6	O	1.185638	-0.285771	0.539524
O7	O	1.070327	-0.436645	0.308516
O8	O	1.000473	-0.162408	0.407378
O9	O	1.179947	-0.412027	0.450525
O10	O	1.083530	-0.143755	0.514977
O11	O	0.992961	-0.329042	0.289916
O12	O	0.848077	-0.304409	0.431892
O13	O	0.925286	-0.368729	0.700073
O14	O	0.815666	-0.393347	0.558063
O15	O	1.040754	-0.261138	0.681500
O16	O	1.027551	-0.554028	0.475038
O17	O	0.917774	-0.535363	0.582611
C18	C	0.803390	-0.348877	0.494974
C19	C	0.716136	-0.348889	0.494987
C20	C	0.658286	-0.395300	0.560610
C21	C	0.576304	-0.395299	0.560624
C22	C	0.552173	-0.348893	0.495011
C23	C	0.610029	-0.302477	0.429386
C24	C	0.692011	-0.302472	0.429376
C25	C	0.439154	-0.302490	0.429410
C26	C	0.357167	-0.302495	0.429418
C27	C	0.323447	-0.395317	0.560658
C28	C	0.405428	-0.395313	0.560648
C29	C	0.463279	-0.348898	0.495021
C30	C	0.967054	-0.576476	0.534334
C31	C	0.949890	-0.673834	0.551190
C32	C	1.130285	-0.986988	0.374827
C33	C	1.146411	-0.895516	0.358986
C34	C	1.097283	-0.840091	0.407035
C35	C	1.032025	-0.876147	0.470929
C36	C	1.015894	-0.967628	0.486768
C37	C	0.982891	-0.820732	0.518976
C38	C	0.917634	-0.856787	0.582870
C39	C	0.901506	-0.948260	0.598706
C40	C	0.950634	-1.003685	0.550656
C41	C	0.999022	-0.729250	0.503138
C42	C	0.884631	-0.709891	0.615078
C43	C	0.868505	-0.801362	0.630920
C44	C	1.212070	-0.348901	0.495029
C45	C	1.299317	-0.348906	0.495041
C46	C	0.978963	-0.309268	0.723455
C47	C	0.966874	-0.292384	0.820809
C48	C	1.047786	-0.120409	0.455534
C49	C	1.065026	-0.023045	0.438715
C50	C	1.035647	-0.388292	0.267425
C51	C	1.047932	-0.404929	0.170029
C52	C	0.920913	-0.228425	0.856855
C53	C	0.909544	-0.212563	0.948323
C54	C	0.944140	-0.260653	1.003754
C55	C	0.990107	-0.324608	0.967708
C56	C	1.001471	-0.340477	0.876231
C57	C	1.024699	-0.372705	1.023130
C58	C	1.070665	-0.436660	0.987084
C59	C	1.082028	-0.452525	0.895616
C60	C	1.047432	-0.404436	0.840185
C61	C	1.013334	-0.356836	1.114607
C62	C	1.093892	-0.468887	1.133983
C63	C	1.105261	-0.484750	1.042515
H64	H	0.276340	-0.433107	0.614096
H65	H	0.529205	-0.433092	0.614060
Cl66	Cl	0.688613	-0.453648	0.643095
Cl67	Cl	0.786470	-0.846701	0.711241
H68	H	0.425072	-0.433107	0.614071
H69	H	1.056689	-0.417344	0.765702
H70	H	0.486256	-0.264685	0.375975
Cl71	Cl	0.822861	-0.640221	0.675482
H72	H	0.937510	-1.078169	0.563553
Cl73	Cl	1.163046	-0.565147	0.997188
H74	H	1.110415	-0.765611	0.394132
Cl75	Cl	0.326831	-0.244160	0.346930
H76	H	1.052155	-0.699902	0.451115
Cl77	Cl	0.955552	-0.276435	1.159911
H78	H	0.934882	-0.247733	1.078231
Cl79	Cl	0.819465	-0.993586	0.679026
Cl80	Cl	1.228452	-0.850194	0.278674
H81	H	1.122065	-0.508044	1.179115
Cl82	Cl	0.579693	-0.244130	0.346905
Cl83	Cl	1.192037	-1.056667	0.314428
Cl84	Cl	0.764737	-0.244123	0.346877
Cl85	Cl	0.851725	-0.132200	0.993638
Cl86	Cl	0.877442	-0.167964	0.787166
H87	H	1.119445	-0.504613	0.866272
