data_functionalizedCrystal
_audit_creation_method	'MofGen! by Chris Wilmer'
_symmetry_space_group_name_H-M	'P1'
_symmetry_Int_Tables_number	1
_symmetry_cell_setting	triclinic
loop_
_symmetry_equiv_pos_as_xyz
  x,y,z
_cell_length_a	19.121424
_cell_length_b	19.120786
_cell_length_c	12.759393
_cell_angle_alpha	92.476000
_cell_angle_beta	87.589103
_cell_angle_gamma	95.008527
loop_
_atom_site_label
_atom_site_type_symbol
_atom_site_fract_x
_atom_site_fract_y
_atom_site_fract_z
Zn1	Zn	1.063738	-0.234180	0.511437
Zn2	Zn	1.563738	0.265820	1.011437
Zn3	Zn	1.058623	-0.351873	0.328553
Zn4	Zn	1.558623	0.148127	0.828553
Zn5	Zn	0.946067	-0.239239	0.342927
Zn6	Zn	1.446067	0.260761	0.842927
Zn7	Zn	0.941023	-0.356842	0.511347
Zn8	Zn	1.441023	0.143158	1.011347
O9	O	1.002363	-0.295534	0.423566
O10	O	1.502363	0.204466	0.923566
O11	O	1.161522	-0.245596	0.481199
O12	O	1.661522	0.254404	0.981199
O13	O	1.043662	-0.336970	0.183438
O14	O	1.543662	0.163030	0.683438
O15	O	0.965929	-0.140095	0.371333
O16	O	1.465929	0.359905	0.871333
O17	O	1.157763	-0.332065	0.346836
O18	O	1.657763	0.167935	0.846836
O19	O	1.052381	-0.136379	0.495136
O20	O	1.552381	0.363621	0.995136
O21	O	0.960968	-0.254217	0.193998
O22	O	1.460968	0.245783	0.693998
O23	O	0.846936	-0.259035	0.371245
O24	O	1.346936	0.240965	0.871245
O25	O	0.957331	-0.340533	0.658380
O26	O	1.457331	0.159467	1.158380
O27	O	0.843230	-0.345438	0.494983
O28	O	1.343230	0.154562	0.994983
O29	O	1.047490	-0.250414	0.658446
O30	O	1.547490	0.249586	1.158446
O31	O	1.038771	-0.451005	0.346749
O32	O	1.538771	0.048995	0.846749
O33	O	0.952371	-0.454655	0.481046
O34	O	1.452371	0.045345	0.981046
C35	C	0.819553	-0.303325	0.434665
C36	C	1.319553	0.196675	0.934665
C37	C	0.741346	-0.306676	0.439437
C38	C	1.241346	0.193324	0.939437
C39	C	0.298924	-0.327861	0.469737
C40	C	0.798924	0.172139	0.969737
C41	C	0.372408	-0.324719	0.465233
C42	C	0.872408	0.175281	0.965233
C43	C	0.411060	-0.278090	0.398674
C44	C	0.911060	0.221910	0.898674
C45	C	0.376224	-0.234606	0.336606
C46	C	0.876224	0.265394	0.836606
C47	C	0.302741	-0.237752	0.341105
C48	C	0.802741	0.262248	0.841105
C49	C	0.633026	-0.266338	0.381868
C50	C	1.133026	0.233662	0.881868
C51	C	0.706514	-0.263193	0.377376
C52	C	1.206514	0.236807	0.877376
C53	C	0.702694	-0.353308	0.506002
C54	C	1.202694	0.146692	1.006002
C55	C	0.629210	-0.356447	0.510500
C56	C	1.129210	0.143553	1.010500
C57	C	0.594380	-0.312966	0.448428
C58	C	1.094380	0.187034	0.948428
C59	C	0.486173	-0.274875	0.394071
C60	C	0.986173	0.225125	0.894071
C61	C	0.519268	-0.316185	0.453026
C62	C	1.019268	0.183815	0.953026
C63	C	0.994487	-0.478362	0.412350
C64	C	1.494487	0.021638	0.912350
C65	C	0.991182	-0.556574	0.407582
C66	C	1.491182	-0.056574	0.907582
C67	C	1.034608	-0.591324	0.469857
C68	C	1.534608	-0.091324	0.969857
C69	C	1.031499	-0.664813	0.465380
C70	C	1.531499	-0.164813	0.965380
C71	C	0.984969	-0.703550	0.398622
C72	C	1.484969	-0.203550	0.898622
C73	C	0.941540	-0.668794	0.336344
C74	C	1.441540	-0.168794	0.836344
C75	C	0.944645	-0.595307	0.340828
C76	C	1.444645	-0.095307	0.840828
C77	C	0.973341	-0.925533	0.381862
C78	C	1.473341	-0.425533	0.881862
C79	C	0.970241	-0.999025	0.377381
C80	C	1.470241	-0.499025	0.877381
C81	C	1.060200	-0.995038	0.506418
C82	C	1.560200	-0.495038	1.006418
C83	C	1.063304	-0.921550	0.510891
C84	C	1.563304	-0.421550	1.010891
C85	C	1.019871	-0.886801	0.448618
C86	C	1.519871	-0.386801	0.948618
C87	C	0.981793	-0.778667	0.394041
C88	C	1.481793	-0.278667	0.894041
C89	C	1.023045	-0.811686	0.453205
C90	C	1.523045	-0.311686	0.953205
C91	C	1.185886	-0.287712	0.412424
C92	C	1.685886	0.212288	0.912424
C93	C	1.264093	-0.284379	0.407676
C94	C	1.764093	0.215621	0.907676
C95	C	1.002418	-0.295464	0.697600
C96	C	1.502418	0.204536	1.197600
C97	C	1.002442	-0.295434	0.814377
C98	C	1.502442	0.204566	1.314377
C99	C	1.010288	-0.111991	0.434848
C100	C	1.510288	0.388009	0.934848
C101	C	1.013666	-0.033775	0.439656
C102	C	1.513666	0.466225	0.939656
C103	C	1.002350	-0.295551	0.150598
C104	C	1.502350	0.204449	0.650598
C105	C	1.002471	-0.295376	0.033826
C106	C	1.502471	0.204624	0.533826
C107	C	1.049391	-0.248502	0.869276
C108	C	1.549391	0.251498	1.369276
C109	C	1.049405	-0.248471	0.979001
C110	C	1.549405	0.251529	1.479001
C111	C	0.955517	-0.342311	0.978920
C112	C	1.455517	0.157689	1.478920
C113	C	0.955501	-0.342338	0.869197
C114	C	1.455501	0.157662	1.369197
H115	H	0.487795	-0.354152	0.507215
H116	H	0.987795	0.145848	1.007215
H117	H	0.943910	-0.810214	0.339683
H118	H	1.443910	-0.310214	0.839683
H119	H	0.517651	-0.236908	0.339880
H120	H	1.017651	0.263092	0.839880
H121	H	1.095559	-1.023339	0.557119
H122	H	1.595559	-0.523339	1.057119
H123	H	0.903651	-0.700340	0.281993
H124	H	1.403651	-0.200340	0.781993
H125	H	0.917264	-0.380555	0.824498
H126	H	1.417264	0.119445	1.324498
H127	H	1.087634	-0.210253	1.023694
H128	H	1.587634	0.289747	1.523694
H129	H	0.400764	-0.360128	0.515767
H130	H	0.900764	0.139872	1.015767
H131	H	0.937978	-0.897246	0.331154
H132	H	1.437978	-0.397246	0.831154
H133	H	0.274383	-0.202342	0.290572
H134	H	0.774383	0.297658	0.790572
H135	H	0.932347	-1.030563	0.323017
H136	H	1.432347	-0.530563	0.823017
H137	H	1.087612	-0.210308	0.824645
H138	H	1.587612	0.289692	1.324645
H139	H	0.917301	-0.380500	1.023567
H140	H	1.417301	0.119500	1.523567
H141	H	1.066866	-0.693103	0.516082
H142	H	1.566866	-0.193103	1.016082
H143	H	0.267459	-0.365828	0.523943
H144	H	0.767459	0.134172	1.023943
H145	H	1.060927	-0.780144	0.507564
H146	H	1.560927	-0.280144	1.007564
H147	H	0.597744	-0.394419	0.564697
H148	H	1.097744	0.105581	1.064697
H149	H	0.731060	-0.388708	0.556536
H150	H	1.231060	0.111292	1.056536
H151	H	0.909282	-0.567015	0.290118
H152	H	1.409282	-0.067015	0.790118
H153	H	0.737983	-0.225214	0.323184
H154	H	1.237983	0.274786	0.823184
H155	H	0.407700	-0.196642	0.282407
H156	H	0.907700	0.303358	0.782407
H157	H	1.072500	-0.559789	0.524214
H158	H	1.572500	-0.059789	1.024214
H159	H	0.604677	-0.230935	0.331321
H160	H	1.104677	0.269065	0.831321
H161	H	1.101192	-0.890012	0.565251
H162	H	1.601192	-0.390012	1.065251
