data_functionalizedCrystal
_audit_creation_method	'MofGen! by Chris Wilmer'
_symmetry_space_group_name_H-M	'P1'
_symmetry_Int_Tables_number	1
_symmetry_cell_setting	triclinic
loop_
_symmetry_equiv_pos_as_xyz
  x,y,z
_cell_length_a	6.394984
_cell_length_b	14.971486
_cell_length_c	14.048226
_cell_angle_alpha	90.001501
_cell_angle_beta	89.995171
_cell_angle_gamma	94.945259
loop_
_atom_site_label
_atom_site_type_symbol
_atom_site_fract_x
_atom_site_fract_y
_atom_site_fract_z
O1	O	0.272213	-1.189888	-0.079048
O2	O	0.304811	-0.929841	-0.079073
O3	O	-0.015544	-1.063558	-0.079057
O4	O	0.592568	-1.056171	-0.079064
O5	O	-0.015563	-1.063542	0.079264
O6	O	0.304792	-0.929824	0.079248
O7	O	0.272194	-1.189872	0.079274
Zn8	Zn	0.288490	-1.059845	0.104398
Zn9	Zn	0.288515	-1.059867	-0.104197
O10	O	0.592549	-1.056154	0.079258
C11	C	0.303344	-0.896492	0.000084
C12	C	0.298975	-0.797147	0.000074
C13	C	0.906624	-1.062081	0.000106
C14	C	0.670376	-1.057629	0.000104
C15	C	0.273661	-1.223221	0.000114
C16	C	0.278030	-1.322565	0.000118
N17	N	0.288472	-1.059837	0.246758
N18	N	0.288517	-1.059883	-0.246558
C19	C	0.487175	-0.741956	0.000074
C20	C	0.483057	-0.648612	0.000088
C21	C	0.290738	-0.610461	0.000096
C22	C	0.102524	-0.665660	0.000099
C23	C	0.106643	-0.759002	0.000092
C24	C	0.093951	-0.471105	0.000113
C25	C	0.089830	-0.377757	0.000118
C26	C	0.470365	-0.360715	0.000109
C27	C	0.474484	-0.454057	0.000101
C28	C	0.286269	-0.509249	0.000103
C29	C	0.146677	-1.119067	0.296584
C30	C	0.146676	-1.119073	0.396241
C31	C	0.288481	-1.059852	0.446072
C32	C	0.430282	-1.000616	0.396240
C33	C	0.430272	-1.000606	0.296584
C34	C	0.430297	-1.000642	0.603954
C35	C	0.430311	-1.000653	0.703617
C36	C	0.146702	-1.119108	0.703611
C37	C	0.146691	-1.119099	0.603955
C38	C	0.288496	-1.059863	0.554130
H39	H	0.636309	-0.603678	0.000086
C40	C	-0.100379	-0.819718	0.000090
C41	C	-0.257917	-0.813918	0.082307
C42	C	-0.464944	-0.874633	0.082310
C43	C	-0.514434	-0.941148	0.000098
C44	C	-0.356892	-0.946951	-0.082124
C45	C	-0.149864	-0.886236	-0.082128
H46	H	-0.221285	-0.764677	0.143171
H47	H	-0.581567	-0.870336	0.143177
H48	H	-0.667688	-0.986093	0.000101
H49	H	-0.393524	-0.996192	-0.142988
H50	H	-0.033242	-0.890532	-0.142995
H51	H	0.643783	-0.773010	0.000066
C52	C	-0.009292	-1.184264	0.758417
C53	C	-0.169183	-1.147528	0.826939
C54	C	-0.325161	-1.212684	0.881751
C55	C	-0.321247	-1.314577	0.868041
C56	C	-0.161350	-1.351319	0.799516
C57	C	-0.005372	-1.286162	0.744704
H58	H	-0.172086	-1.072096	0.837091
H59	H	-0.443527	-1.185485	0.932478
H60	H	-0.436711	-1.362810	0.908617
H61	H	-0.158447	-1.426750	0.789365
H62	H	0.112994	-1.313361	0.693978
C63	C	-0.009315	-1.184211	0.241775
C64	C	-0.165294	-1.249359	0.296587
C65	C	-0.321296	-1.314503	0.241782
C66	C	-0.321318	-1.314500	0.132165
C67	C	-0.165333	-1.249350	0.077346
C68	C	-0.009331	-1.184206	0.132151
H69	H	-0.165282	-1.249363	0.377738
H70	H	-0.436766	-1.362731	0.282363
H71	H	-0.436800	-1.362724	0.091595
H72	H	-0.165345	-1.249346	-0.003805
H73	H	0.106139	-1.135978	0.091570
H74	H	0.631087	-0.485116	0.000086
H75	H	0.031215	-1.167301	0.436808
C76	C	-0.009288	-1.184240	0.549136
C77	C	-0.247164	-1.180069	0.562844
C78	C	-0.403148	-1.245209	0.508024
C79	C	-0.321257	-1.314520	0.439495
C80	C	-0.083369	-1.318693	0.425785
C81	C	0.072615	-1.253554	0.480605
H82	H	-0.307795	-1.128759	0.613576
H83	H	-0.579248	-1.242119	0.518174
H84	H	-0.436726	-1.362740	0.398914
H85	H	-0.022738	-1.370004	0.375053
H86	H	0.248715	-1.256644	0.470455
H87	H	0.623616	-0.315772	0.000111
H88	H	0.545781	-0.952428	0.744184
H89	H	-0.066773	-0.346698	0.000126
H90	H	-0.059314	-0.516041	0.000115
H91	H	-0.054066	-0.634591	0.000120
H92	H	0.545763	-0.952403	0.563390
H93	H	0.545736	-0.952393	0.436818
H94	H	0.545732	-0.952374	0.256017
