data_functionalizedCrystal
_audit_creation_method	'MofGen! by Chris Wilmer'
_symmetry_space_group_name_H-M	'P1'
_symmetry_Int_Tables_number	1
_symmetry_cell_setting	triclinic
loop_
_symmetry_equiv_pos_as_xyz
  x,y,z
_cell_length_a	18.050591
_cell_length_b	15.297327
_cell_length_c	15.296720
_cell_angle_alpha	72.680778
_cell_angle_beta	99.656035
_cell_angle_gamma	80.295981
loop_
_atom_site_label
_atom_site_type_symbol
_atom_site_fract_x
_atom_site_fract_y
_atom_site_fract_z
Zn1	Zn	0.985502	0.461333	-0.589979
Zn2	Zn	1.485502	0.961333	-0.089979
Zn3	Zn	0.985418	0.589955	-0.461373
Zn4	Zn	1.485418	1.089955	0.038627
Zn5	Zn	0.887310	0.434450	-0.434482
Zn6	Zn	1.387310	0.934450	0.065518
Zn7	Zn	0.835305	0.616780	-0.616795
Zn8	Zn	1.335305	1.116780	-0.116795
O9	O	0.923384	0.525630	-0.525657
O10	O	1.423384	1.025630	-0.025657
O11	O	1.089408	0.478419	-0.572950
O12	O	1.589408	0.978419	-0.072950
O13	O	0.994133	0.546849	-0.327685
O14	O	1.494133	1.046849	0.172315
O15	O	0.922135	0.307882	-0.432632
O16	O	1.422135	0.807882	0.067368
O17	O	1.089346	0.572917	-0.478464
O18	O	1.589346	1.072917	0.021536
O19	O	0.994276	0.327633	-0.546875
O20	O	1.494276	0.827633	-0.046875
O21	O	0.922053	0.432601	-0.307928
O22	O	1.422053	0.932601	0.192072
O23	O	0.776495	0.458613	-0.458635
O24	O	1.276495	0.958613	0.041365
O25	O	0.833500	0.618637	-0.743358
O26	O	1.333500	1.118637	-0.243358
O27	O	0.738287	0.592570	-0.592579
O28	O	1.238287	1.092570	-0.092579
O29	O	0.943849	0.504431	-0.723657
O30	O	1.443849	1.004431	-0.223657
O31	O	0.943705	0.723648	-0.504467
O32	O	1.443705	1.223648	-0.004467
O33	O	0.833418	0.743356	-0.618655
O34	O	1.333418	1.243356	-0.118655
C35	C	0.882926	0.767248	-0.567409
C36	C	1.382926	1.267248	-0.067409
C37	C	0.865681	0.870619	-0.585302
C38	C	1.365681	1.370619	-0.085302
C39	C	0.730446	0.525586	-0.525600
C40	C	1.230446	1.025586	-0.025600
C41	C	0.647899	0.525594	-0.525601
C42	C	1.147899	1.025594	-0.025601
C43	C	0.882883	0.567525	-0.768190
C44	C	1.382883	1.067525	-0.268190
C45	C	0.865624	0.585378	-0.871543
C46	C	1.365624	1.085378	-0.371543
C47	C	0.469192	0.452700	-0.452892
C48	C	0.969192	0.952700	0.047108
C49	C	0.409424	0.533566	-0.444678
C50	C	0.909424	1.033566	0.055322
C51	C	0.496757	0.525629	-0.525648
C52	C	0.996757	1.025629	-0.025648
C53	C	0.409439	0.444793	-0.533865
C54	C	0.909439	0.944793	-0.033865
C55	C	0.350762	0.525656	-0.525690
C56	C	0.850762	1.025656	-0.025690
C57	C	0.438076	0.606532	-0.517397
C58	C	0.938076	1.106532	-0.017397
C59	C	0.438098	0.517708	-0.606614
C60	C	0.938098	1.017708	-0.106614
C61	C	0.378337	0.598638	-0.598441
C62	C	0.878337	1.098638	-0.098441
C63	C	0.580861	0.525612	-0.525621
C64	C	1.080861	1.025612	-0.025621
C65	C	0.266658	0.525682	-0.525719
C66	C	0.766658	1.025682	-0.025719
C67	C	1.117075	0.525674	-0.525715
C68	C	1.617075	1.025674	-0.025715
C69	C	1.199614	0.525693	-0.525740
C70	C	1.699614	1.025693	-0.025740
C71	C	0.964016	0.283071	-0.483763
C72	C	1.464016	0.783071	0.016237
C73	C	0.981331	0.179707	-0.465910
C74	C	1.481331	0.679707	0.034090
C75	C	1.046891	1.120861	-0.398092
C76	C	1.546891	1.620861	0.101908
C77	C	1.063094	1.023738	-0.381277
C78	C	1.563094	1.523738	0.118723
C79	C	1.013742	0.985453	-0.432282
C80	C	1.513742	1.485453	0.067718
C81	C	0.948184	1.044301	-0.500105
C82	C	1.448184	1.544301	-0.000105
C83	C	0.931976	1.141432	-0.516917
C84	C	1.431976	1.641432	-0.016917
C85	C	0.898828	1.006025	-0.551106
C86	C	1.398828	1.506025	-0.051106
C87	C	0.833270	1.064873	-0.618930
C88	C	1.333270	1.564873	-0.118930
C89	C	0.817065	1.161994	-0.635739
C90	C	1.317065	1.661994	-0.135739
C91	C	0.866417	1.200279	-0.584734
C92	C	1.366417	1.700279	-0.084734
C93	C	0.915036	0.908894	-0.534294
C94	C	1.415036	1.408894	-0.034294
C95	C	0.800122	0.929465	-0.653119
C96	C	1.300122	1.429465	-0.153119
C97	C	0.783918	1.026588	-0.669935
C98	C	1.283918	1.526588	-0.169935
C99	C	1.046791	0.397866	-1.121848
C100	C	1.546791	0.897866	-0.621848
C101	C	1.063011	0.381093	-1.024743
C102	C	1.563011	0.881093	-0.524743
C103	C	1.013666	0.432163	-0.986438
C104	C	1.513666	0.932163	-0.486438
C105	C	0.948098	0.500008	-1.045248
C106	C	1.448098	1.000008	-0.545248
C107	C	0.931879	0.516788	-1.142363
C108	C	1.431879	1.016788	-0.642363
C109	C	0.898754	0.551085	-1.006953
C110	C	1.398754	1.051085	-0.506953
C111	C	0.833186	0.618930	-1.065763
C112	C	1.333186	1.118930	-0.565763
C113	C	0.816970	0.635706	-1.162869
C114	C	1.316970	1.135706	-0.662869
C115	C	0.866315	0.584637	-1.201174
C116	C	1.366315	1.084637	-0.701174
C117	C	0.914972	0.534305	-0.909838
C118	C	1.414972	1.034305	-0.409838
C119	C	0.800060	0.653227	-0.930353
C120	C	1.300060	1.153227	-0.430353
C121	C	0.783840	0.670000	-1.027458
C122	C	1.283840	1.170000	-0.527458
C123	C	0.963781	0.483830	-0.284056
C124	C	1.463781	0.983830	0.215944
C125	C	0.981227	0.465715	-0.180659
C126	C	1.481227	0.965715	0.319341
H127	H	0.508403	0.391074	-0.391319
H128	H	1.008403	0.891074	0.108681
C129	C	0.744944	1.226723	-0.710339
C130	C	1.244944	1.726723	-0.210339
N131	N	0.690622	1.275476	-0.766528
N132	N	1.190622	1.775476	-0.266528
H133	H	0.396484	0.540285	-0.376226
H134	H	0.896484	1.040285	0.123774
C135	C	1.135129	0.306458	-0.960059
C136	C	1.635129	0.806458	-0.460059
N137	N	1.189450	0.250234	-0.911336
N138	N	1.689450	0.750234	-0.411336
C139	C	0.325522	0.682051	-0.681595
C140	C	0.825522	1.182051	-0.181595
N141	N	0.285739	0.744880	-0.744222
N142	N	0.785739	1.244880	-0.244222
C143	C	0.455624	0.508586	-0.699050
C144	C	0.955624	1.008586	-0.199050
N145	N	0.468830	0.501703	-0.768670
N146	N	0.968830	1.001703	-0.268670
C147	C	1.101060	0.341694	-1.163990
C148	C	1.601060	0.841694	-0.663990
N149	N	1.141938	0.299378	-1.195732
N150	N	1.641938	0.799378	-0.695732
C151	C	0.848485	0.603096	-1.307997
C152	C	1.348485	1.103096	-0.807997
N153	N	0.835060	0.617003	-1.388459
N154	N	1.335060	1.117003	-0.888459
H155	H	0.763585	0.690958	-1.210751
H156	H	1.263585	1.190958	-0.710751
H157	H	0.450913	0.674912	-0.510386
H158	H	0.950913	1.174912	-0.010386
H159	H	0.396486	0.376424	-0.540769
H160	H	0.896486	0.876424	-0.040769
H161	H	0.730540	1.074515	-0.725157
H162	H	1.230540	1.574515	-0.225157
C163	C	1.135195	0.959010	-0.306657
C164	C	1.635195	1.459010	0.193343
N165	N	1.189503	0.910255	-0.250445
N166	N	1.689503	1.410255	0.249555
H167	H	0.968413	0.860988	-0.479071
H168	H	1.468413	1.360988	0.020929
C169	C	0.848594	1.307119	-0.603225
C170	C	1.348594	1.807119	-0.103225
N171	N	0.835171	1.387592	-0.617148
N172	N	1.335171	1.887592	-0.117148
H173	H	0.759934	0.898295	-0.694650
H174	H	1.259934	1.398295	-0.194650
C175	C	1.031579	0.878618	-0.413798
C176	C	1.531579	1.378618	0.086202
N177	N	1.045022	0.798146	-0.399881
N178	N	1.545022	1.298146	0.100119
C179	C	0.711716	0.744627	-1.092161
C180	C	1.211716	1.244627	-0.592161
N181	N	0.657391	0.800834	-1.140895
N182	N	1.157391	1.300834	-0.640895
H183	H	0.759880	0.694814	-0.899166
H184	H	1.259880	1.194814	-0.399166
H185	H	0.968358	0.479064	-0.861964
H186	H	1.468358	0.979064	-0.361964
C187	C	1.031506	0.413703	-0.879618
C188	C	1.531506	0.913703	-0.379618
N189	N	1.044943	0.399791	-0.799156
N190	N	1.544943	0.899791	-0.299156
C191	C	1.101163	1.162980	-0.341985
C192	C	1.601163	1.662980	0.158015
N193	N	1.142043	1.194704	-0.299719
N194	N	1.642043	1.694704	0.200281
