data_functionalizedCrystal
_audit_creation_method	'MofGen! by Chris Wilmer'
_symmetry_space_group_name_H-M	'P1'
_symmetry_Int_Tables_number	1
_symmetry_cell_setting	triclinic
loop_
_symmetry_equiv_pos_as_xyz
  x,y,z
_cell_length_a	14.044191
_cell_length_b	16.176319
_cell_length_c	17.699083
_cell_angle_alpha	90.007696
_cell_angle_beta	91.762604
_cell_angle_gamma	89.995217
loop_
_atom_site_label
_atom_site_type_symbol
_atom_site_fract_x
_atom_site_fract_y
_atom_site_fract_z
O1	O	1.257292	-0.068710	-0.182469
O2	O	0.981337	-0.068720	-0.175880
O3	O	1.127111	-0.068707	-0.069523
O4	O	1.111518	-0.068722	-0.288826
O5	O	1.127091	0.068786	-0.069514
O6	O	0.981317	0.068773	-0.175871
O7	O	1.257272	0.068784	-0.182460
Cu8	Cu	1.119293	0.081333	-0.179165
Cu9	Cu	1.119317	-0.081269	-0.179175
O10	O	1.111498	0.068771	-0.288817
C11	C	0.946020	0.000025	-0.172993
C12	C	0.840814	0.000022	-0.164395
C13	C	0.590423	0.000027	-0.209655
C14	C	0.648192	0.000030	-0.148688
C15	C	0.755376	0.000025	-0.157430
C16	C	0.483229	0.000031	-0.200915
C17	C	1.126542	0.000040	-0.041283
C18	C	1.124866	0.000040	0.042850
C19	C	1.292590	0.000036	-0.185347
C20	C	1.397796	0.000035	-0.193945
N21	N	1.119283	0.195698	-0.179158
N22	N	1.119334	-0.195634	-0.179177
C23	C	1.183851	0.238968	-0.132085
C24	C	1.183856	0.325515	-0.132085
C25	C	1.119297	0.368791	-0.179161
C26	C	1.054722	0.325515	-0.226236
C27	C	1.054713	0.238969	-0.226232
C28	C	1.054754	0.674543	-0.226252
C29	C	1.054770	0.761094	-0.226254
C30	C	1.183897	0.761089	-0.132105
C31	C	1.183888	0.674543	-0.132101
C32	C	1.119311	0.631275	-0.179172
C33	C	1.119305	0.537431	-0.179171
C34	C	1.119306	0.462633	-0.179167
C35	C	1.112067	0.000022	-0.317057
C36	C	1.113743	0.000017	-0.401191
C37	C	1.210432	0.000044	0.085567
C38	C	1.208852	0.000037	0.164620
C39	C	1.121704	0.000031	0.200954
C40	C	1.036131	0.000024	0.158231
C41	C	1.037713	0.000026	0.079180
C42	C	1.029751	0.000017	0.477035
C43	C	1.028176	0.000018	0.556091
C44	C	1.200890	0.000028	0.562474
C45	C	1.202471	0.000030	0.483423
C46	C	1.116899	0.000019	0.440707
C47	C	1.118614	0.000025	0.354990
C48	C	1.119988	0.000031	0.286670
H49	H	1.236427	0.203738	-0.093754
F50	F	0.986007	0.371572	-0.276335
F51	F	0.630992	0.000014	-0.286455
F52	F	1.252575	0.371566	-0.081984
H53	H	1.236461	0.639311	-0.093770
H54	H	1.236477	0.796327	-0.093775
H55	H	0.617152	-0.000024	-0.089927
F56	F	0.986029	0.628500	-0.276350
F57	F	1.299923	0.000043	0.210079
H58	H	1.281398	0.000054	0.055990
F59	F	0.986053	0.807150	-0.276361
F60	F	0.985988	0.192919	-0.276330
H61	H	0.957206	0.000015	0.585672
H62	H	1.273436	0.000039	0.453844
F63	F	1.291964	0.000037	0.607941
H64	H	0.960073	0.000008	0.442265
F65	F	0.943382	0.000009	0.196903
H66	H	0.968036	0.000022	0.044401
