data_functionalizedCrystal
_audit_creation_method	'MofGen! by Chris Wilmer'
_symmetry_space_group_name_H-M	'P1'
_symmetry_Int_Tables_number	1
_symmetry_cell_setting	triclinic
loop_
_symmetry_equiv_pos_as_xyz
  x,y,z
_cell_length_a	17.077404
_cell_length_b	16.120484
_cell_length_c	16.120339
_cell_angle_alpha	89.785998
_cell_angle_beta	92.864510
_cell_angle_gamma	92.925780
loop_
_atom_site_label
_atom_site_type_symbol
_atom_site_fract_x
_atom_site_fract_y
_atom_site_fract_z
Zn1	Zn	1.162271	-0.306898	-0.486961
Zn2	Zn	1.662271	0.193102	0.013039
Zn3	Zn	1.161459	-0.453100	-0.354947
Zn4	Zn	1.661459	0.046900	0.145053
Zn5	Zn	1.037261	-0.314067	-0.347919
Zn6	Zn	1.537261	0.185933	0.152081
Zn7	Zn	1.023996	-0.445913	-0.493958
Zn8	Zn	1.523996	0.054087	0.006042
O9	O	1.096247	-0.379994	-0.420946
O10	O	1.596247	0.120006	0.079054
O11	O	1.272009	-0.326300	-0.469462
O12	O	1.772009	0.173700	0.030538
O13	O	1.150196	-0.440665	-0.237649
O14	O	1.650196	0.059335	0.262351
O15	O	1.059735	-0.196751	-0.360493
O16	O	1.559735	0.303249	0.139507
O17	O	1.271412	-0.433714	-0.372472
O18	O	1.771412	0.066286	0.127528
O19	O	1.151580	-0.191484	-0.462647
O20	O	1.651580	0.308516	0.037353
O21	O	1.058948	-0.338518	-0.232485
O22	O	1.558948	0.161482	0.267515
O23	O	0.925655	-0.331549	-0.367278
O24	O	1.425655	0.168451	0.132722
O25	O	1.037126	-0.421464	-0.609396
O26	O	1.537126	0.078536	-0.109396
O27	O	0.915909	-0.428415	-0.474573
O28	O	1.415909	0.071585	0.025427
O29	O	1.138717	-0.319330	-0.604255
O30	O	1.638717	0.180670	-0.104255
O31	O	1.137332	-0.568511	-0.379257
O32	O	1.637332	-0.068511	0.120743
O33	O	1.036339	-0.563231	-0.481388
O34	O	1.536339	-0.063231	0.018612
C35	C	0.892301	-0.379981	-0.420922
C36	C	1.392301	0.120019	0.079078
C37	C	0.805050	-0.379994	-0.420933
C38	C	1.305050	0.120006	0.079067
C39	C	1.085328	-0.596042	-0.431862
C40	C	1.585328	-0.096042	0.068138
C41	C	1.080728	-0.688467	-0.436560
C42	C	1.580728	-0.188467	0.063440
C43	C	0.759005	-0.430517	-0.476720
C44	C	1.259005	0.069483	0.023280
C45	C	0.677024	-0.430518	-0.476734
C46	C	1.177024	0.069482	0.023266
C47	C	0.641089	-0.380000	-0.420955
C48	C	1.141089	0.120000	0.079045
C49	C	0.687140	-0.329471	-0.365166
C50	C	1.187140	0.170529	0.134834
C51	C	0.769119	-0.329466	-0.365157
C52	C	1.269119	0.170534	0.134843
C53	C	0.516268	-0.329486	-0.365186
C54	C	1.016268	0.170514	0.134814
C55	C	0.434283	-0.329492	-0.365194
C56	C	0.934283	0.170508	0.134806
C57	C	0.424172	-0.430538	-0.476763
C58	C	0.924172	0.069462	0.023237
C59	C	0.506152	-0.430533	-0.476754
C60	C	1.006152	0.069467	0.023246
C61	C	0.552197	-0.380005	-0.420963
C62	C	1.052197	0.119995	0.079037
C63	C	1.072333	-0.857687	-0.445154
C64	C	1.572333	-0.357687	0.054846
C65	C	1.120300	-0.901460	-0.396752
C66	C	1.620300	-0.401460	0.103248
C67	C	1.115629	-0.995620	-0.401533
C68	C	1.615629	-0.495620	0.098467
C69	C	1.077003	-0.763519	-0.440374
C70	C	1.577003	-0.263519	0.059626
C71	C	1.300989	-0.380009	-0.420971
C72	C	1.800989	0.119991	0.079029
C73	C	1.388238	-0.380015	-0.420981
C74	C	1.888238	0.119985	0.079019
C75	C	1.086532	-0.368796	-0.637842
C76	C	1.586532	0.131204	-0.137842
C77	C	1.082393	-0.364023	-0.730270
C78	C	1.582393	0.135977	-0.230270
C79	C	1.107228	-0.163102	-0.410006
C80	C	1.607228	0.336898	0.089994
C81	C	1.111907	-0.070676	-0.405343
C82	C	1.611907	0.429324	0.094657
C83	C	1.105971	-0.391090	-0.204891
C84	C	1.605971	0.108910	0.295109
C85	C	1.110275	-0.395627	-0.112452
C86	C	1.610275	0.104373	0.387548
C87	C	1.074532	-0.355744	0.100482
C88	C	1.574532	0.144256	0.600482
C89	C	1.118133	-0.403905	0.056791
C90	C	1.618133	0.096095	0.556791
C91	C	1.113760	-0.399298	-0.037384
C92	C	1.613760	0.100702	0.462616
C93	C	1.078905	-0.360349	0.194666
C94	C	1.578905	0.139651	0.694666
H95	H	0.788257	-0.471658	-0.522139
H96	H	1.288257	0.028342	-0.022139
Cl97	Cl	1.189116	-0.850143	-0.327224
Cl98	Cl	1.689116	-0.350143	0.172776
H99	H	1.027762	-0.890926	-0.490180
H100	H	1.527762	-0.390926	0.009820
Cl101	Cl	0.574152	-0.265964	-0.295048
Cl102	Cl	1.074152	0.234036	0.204952
H103	H	1.033921	-0.311056	0.067160
H104	H	1.533921	0.188944	0.567160
Cl105	Cl	0.619142	-0.494036	-0.546869
Cl106	Cl	1.119142	0.005964	-0.046869
Cl107	Cl	0.551326	-0.494049	-0.546871
Cl108	Cl	1.051326	0.005951	-0.046871
Cl109	Cl	0.366288	-0.494047	-0.546911
Cl110	Cl	0.866288	0.005953	-0.046911
H111	H	0.405027	-0.288345	-0.319784
H112	H	0.905027	0.211655	0.180216
H113	H	0.657875	-0.288334	-0.319753
H114	H	1.157875	0.211666	0.180247
H115	H	1.158747	-0.448597	0.090115
H116	H	1.658747	0.051403	0.590115
H117	H	0.806608	-0.288320	-0.319733
H118	H	1.306608	0.211680	0.180267
