data_functionalizedCrystal
_audit_creation_method	'MofGen! by Chris Wilmer'
_symmetry_space_group_name_H-M	'P1'
_symmetry_Int_Tables_number	1
_symmetry_cell_setting	triclinic
loop_
_symmetry_equiv_pos_as_xyz
  x,y,z
_cell_length_a	14.044220
_cell_length_b	19.288865
_cell_length_c	18.366186
_cell_angle_alpha	90.011479
_cell_angle_beta	90.003974
_cell_angle_gamma	88.162563
loop_
_atom_site_label
_atom_site_type_symbol
_atom_site_fract_x
_atom_site_fract_y
_atom_site_fract_z
O1	O	-1.256998	-0.167413	-0.060488
O2	O	-0.756998	0.332587	0.439512
O3	O	-0.981055	-0.161372	-0.060506
O4	O	-0.481055	0.338628	0.439494
O5	O	-1.127000	-0.063774	-0.060482
O6	O	-0.627000	0.436226	0.439518
O7	O	-1.111053	-0.265010	-0.060512
O8	O	-0.611053	0.234990	0.439488
O9	O	-1.126975	-0.063768	0.060617
O10	O	-0.626975	0.436232	0.560617
O11	O	-0.981030	-0.161365	0.060593
O12	O	-0.481030	0.338635	0.560593
O13	O	-1.256973	-0.167406	0.060611
O14	O	-0.756973	0.332594	0.560611
Zn15	Zn	-1.118998	-0.164384	0.079829
Zn16	Zn	-0.618998	0.335616	0.579829
Zn17	Zn	-1.119030	-0.164393	-0.079724
Zn18	Zn	-0.619030	0.335607	0.420276
O19	O	-1.111028	-0.265004	0.060587
O20	O	-0.611028	0.234996	0.560587
C21	C	-1.126474	-0.037862	0.000069
C22	C	-0.626474	0.462138	0.500069
C23	C	-1.124934	0.039341	0.000076
C24	C	-0.624934	0.539341	0.500076
C25	C	-0.945739	-0.158724	0.000041
C26	C	-0.445739	0.341276	0.500041
C27	C	-0.840547	-0.150836	0.000035
C28	C	-0.340547	0.349164	0.500035
C29	C	-1.292289	-0.170054	0.000062
C30	C	-0.792289	0.329946	0.500062
C31	C	-1.397481	-0.177942	0.000063
C32	C	-0.897481	0.322058	0.500063
C33	C	-0.647947	-0.136416	0.000052
C34	C	-0.147947	0.363584	0.500052
C35	C	-0.590075	-0.192359	0.000047
C36	C	-0.090075	0.307641	0.500047
C37	C	-0.482906	-0.184335	0.000056
C38	C	0.017094	0.315665	0.500056
C39	C	-0.755126	-0.144438	0.000043
C40	C	-0.255126	0.355562	0.500043
C41	C	-1.111554	-0.290916	0.000034
C42	C	-0.611554	0.209084	0.500034
C43	C	-1.113094	-0.368119	0.000023
C44	C	-0.613094	0.131881	0.500023
N45	N	-1.118982	-0.164378	0.188720
N46	N	-0.618982	0.335622	0.688720
C47	C	-1.210568	0.078535	0.000085
C48	C	-0.710568	0.578535	0.500085
C49	C	-1.209121	0.151075	0.000073
C50	C	-0.709121	0.651075	0.500073
C51	C	-1.122035	0.184418	0.000067
C52	C	-0.622035	0.684418	0.500067
C53	C	-1.036390	0.145215	0.000054
C54	C	-0.536390	0.645215	0.500054
C55	C	-1.037839	0.072676	0.000058
C56	C	-0.537839	0.572676	0.500058
C57	C	-1.053566	0.297107	0.042481
C58	C	-0.553566	0.797107	0.542481
C59	C	-1.052121	0.369644	0.042481
C60	C	-0.552121	0.869644	0.542481
C61	C	-1.117560	0.408151	0.000051
C62	C	-0.617560	0.908151	0.500051
C63	C	-1.184462	0.374113	-0.042371
C64	C	-0.684462	0.874113	0.457629
C65	C	-1.185912	0.301574	-0.042367
C66	C	-0.685912	0.801574	0.457633
C67	C	-1.120453	0.263074	0.000062
C68	C	-0.620453	0.763074	0.500062
C69	C	-1.201631	0.526002	0.000046
C70	C	-0.701631	1.026002	0.500046
C71	C	-1.200181	0.598543	0.000030
C72	C	-0.700181	1.098543	0.500030
C73	C	-1.027447	0.592681	0.000018
C74	C	-0.527447	1.092681	0.500018
C75	C	-1.028900	0.520142	0.000027
C76	C	-0.528900	1.020142	0.500027
C77	C	-1.115995	0.486806	0.000044
C78	C	-0.615995	0.986806	0.500044
N79	N	-1.119053	-0.164395	-0.188616
N80	N	-0.619053	0.335605	0.311384
C81	C	-1.183628	-0.121187	0.226831
C82	C	-0.683628	0.378813	0.726831
C83	C	-1.183634	-0.121184	0.303059
C84	C	-0.683634	0.378816	0.803059
C85	C	-1.119003	-0.164385	0.341173
C86	C	-0.619003	0.335615	0.841173
C87	C	-1.054346	-0.207580	0.303053
C88	C	-0.554346	0.292420	0.803053
C89	C	-1.054335	-0.207576	0.226827
C90	C	-0.554335	0.292424	0.726827
C91	C	-1.106318	-0.226858	0.461924
C92	C	-0.606318	0.273142	0.961924
C93	C	-1.106335	-0.226863	0.538148
C94	C	-0.606335	0.273137	1.038148
C95	C	-1.119030	-0.164396	0.576281
C96	C	-0.619030	0.335604	1.076281
C97	C	-1.131729	-0.101922	0.538178
C98	C	-0.631729	0.398078	1.038178
C99	C	-1.131718	-0.101919	0.461952
C100	C	-0.631718	0.398081	0.961952
C101	C	-1.119007	-0.164394	0.423828
C102	C	-0.619007	0.335606	0.923828
C103	C	-1.183686	-0.121198	0.697046
C104	C	-0.683686	0.378802	1.197046
C105	C	-1.183685	-0.121194	0.773276
C106	C	-0.683685	0.378806	1.273276
C107	C	-1.054402	-0.207596	0.773268
C108	C	-0.554402	0.292404	1.273268
C109	C	-1.054398	-0.207593	0.697040
C110	C	-0.554398	0.292407	1.197040
C111	C	-1.119045	-0.164395	0.658934
C112	C	-0.619045	0.335605	1.158934
H113	H	-0.621016	-0.246280	0.000035
H114	H	-0.121016	0.253720	0.500035
N115	N	-0.988326	-0.251718	0.341970
N116	N	-0.488326	0.248282	0.841970
N117	N	-0.930610	-0.290281	0.307929
N118	N	-0.430610	0.209719	0.807929
H119	H	-0.883977	-0.321453	0.335413
H120	H	-0.383977	0.178547	0.835413
N121	N	-1.251297	0.413440	-0.085729
N122	N	-0.751297	0.913440	0.414271
N123	N	-1.252843	0.405367	-0.153244
N124	N	-0.752843	0.905367	0.346756
H125	H	-1.300043	0.433145	-0.183864
H126	H	-0.800043	0.933145	0.316136
H127	H	-0.617008	-0.082499	0.000064
H128	H	-0.117008	0.417501	0.500064
H129	H	-1.281487	0.051398	0.000097
H130	H	-0.781487	0.551398	0.500097
N131	N	-0.941426	0.480101	0.000042
N132	N	-0.441426	0.980101	0.500042
N133	N	-0.922957	0.438985	0.051093
N134	N	-0.422957	0.938985	0.551093
H135	H	-0.861175	0.410706	0.051103
H136	H	-0.361175	0.910706	0.551103
H137	H	-1.278856	0.182993	0.000078
H138	H	-0.778856	0.682993	0.500078
N139	N	-1.287668	0.638571	0.000029
N140	N	-0.787668	1.138571	0.500029
N141	N	-1.365418	0.608795	0.000042
N142	N	-0.865418	1.108795	0.500042
H143	H	-1.427208	0.637065	0.000041
H144	H	-0.927208	1.137065	0.500041
N145	N	-0.947443	0.179283	0.000057
N146	N	-0.447443	0.679283	0.500057
N147	N	-0.927358	0.219118	0.051102
N148	N	-0.427358	0.719118	0.551102
H149	H	-0.864537	0.243180	0.051103
H150	H	-0.364537	0.743180	0.551103
H151	H	-1.142066	-0.051055	0.569224
H152	H	-0.642066	0.448945	1.069224
H153	H	-1.272549	0.498859	0.000057
H154	H	-0.772549	0.998859	0.500057
H155	H	-1.236323	-0.086021	0.666019
H156	H	-0.736323	0.413979	1.166019
N157	N	-1.254251	0.266815	-0.085700
N158	N	-0.754251	0.766815	0.414300
N159	N	-1.312680	0.301197	-0.123581
N160	N	-0.812680	0.801197	0.376419
H161	H	-1.360945	0.276649	-0.154187
H162	H	-0.860945	0.776649	0.345813
H163	H	-1.236325	-0.086018	0.804306
H164	H	-0.736325	0.413982	1.304306
H165	H	-0.956540	0.619828	0.000009
H166	H	-0.456540	1.119828	0.500009
N167	N	-0.983811	0.404400	0.085845
N168	N	-0.483811	0.904400	0.585845
N169	N	-0.925397	0.370014	0.123734
N170	N	-0.425397	0.870014	0.623734
H171	H	-0.877160	0.394558	0.154370
H172	H	-0.377160	0.894558	0.654370
N173	N	-0.986700	0.257786	0.085822
N174	N	-0.486700	0.757786	0.585822
N175	N	-0.926976	0.288183	0.123695
N176	N	-0.426976	0.788183	0.623695
H177	H	-0.879750	0.260415	0.154301
H178	H	-0.379750	0.760415	0.654301
N179	N	-0.950353	0.032647	0.000045
N180	N	-0.450353	0.532647	0.500045
N181	N	-0.872601	0.062422	0.000032
N182	N	-0.372601	0.562422	0.500032
H183	H	-0.810812	0.034150	0.000023
H184	H	-0.310812	0.534150	0.500023
H185	H	-1.236265	-0.086011	0.195807
H186	H	-0.736265	0.413989	0.695807
H187	H	-1.001692	-0.242749	0.195796
H188	H	-0.501692	0.257251	0.695796
H189	H	-1.236278	-0.086011	0.334095
H190	H	-0.736278	0.413989	0.834095
N191	N	-1.144688	-0.038103	0.423043
N192	N	-0.644688	0.461897	0.923043
N193	N	-1.156025	0.017669	0.457089
N194	N	-0.656025	0.517669	0.957089
H195	H	-1.165182	0.062741	0.429610
H196	H	-0.665182	0.562741	0.929610
H197	H	-1.001775	-0.242768	0.804300
H198	H	-0.501775	0.257232	1.304300
N199	N	-1.093348	-0.290667	0.577076
N200	N	-0.593348	0.209333	1.077076
N201	N	-1.093354	-0.290662	0.645135
N202	N	-0.593354	0.209338	1.145135
H203	H	-1.084178	-0.335725	0.672628
H204	H	-0.584178	0.164275	1.172628
N205	N	-0.988357	-0.251718	0.658118
N206	N	-0.488357	0.248282	1.158118
N207	N	-0.930651	-0.290286	0.692153
N208	N	-0.430651	0.209714	1.192153
H209	H	-0.884003	-0.321449	0.664665
H210	H	-0.384003	0.178551	1.164665
H211	H	-1.095963	-0.277729	0.430883
H212	H	-0.595963	0.222271	0.930883
