data_functionalizedCrystal
_audit_creation_method	'MofGen! by Chris Wilmer'
_symmetry_space_group_name_H-M	'P1'
_symmetry_Int_Tables_number	1
_symmetry_cell_setting	triclinic
loop_
_symmetry_equiv_pos_as_xyz
  x,y,z
_cell_length_a	18.101395
_cell_length_b	19.805407
_cell_length_c	19.805399
_cell_angle_alpha	90.019573
_cell_angle_beta	89.974882
_cell_angle_gamma	89.968896
loop_
_atom_site_label
_atom_site_type_symbol
_atom_site_fract_x
_atom_site_fract_y
_atom_site_fract_z
Zn1	Zn	-0.294847	-1.034714	-0.382731
Zn2	Zn	-0.418690	-1.034619	-0.269548
Zn3	Zn	-0.294867	-0.921528	-0.269556
Zn4	Zn	-0.418651	-0.921482	-0.382695
O5	O	-0.356764	-0.978086	-0.326132
O6	O	-0.311283	-1.129418	-0.367729
O7	O	-0.402290	-1.019597	-0.174832
O8	O	-0.191232	-0.936601	-0.284587
O9	O	-0.402270	-1.129348	-0.284574
O10	O	-0.191217	-1.019758	-0.367737
O11	O	-0.311318	-0.936510	-0.174838
O12	O	-0.311279	-0.826806	-0.284552
O13	O	-0.402203	-0.936523	-0.477416
O14	O	-0.402223	-0.826772	-0.367674
O15	O	-0.311245	-1.019714	-0.477443
O16	O	-0.522318	-1.019553	-0.284538
O17	O	-0.522289	-0.936432	-0.367667
C18	C	-0.356750	-0.802230	-0.326110
C19	C	-0.356761	-0.726998	-0.326117
C20	C	-0.549174	-0.977995	-0.326112
C21	C	-0.631489	-0.978018	-0.326127
C22	C	-0.356717	-0.978124	-0.502675
C23	C	-0.356697	-0.978140	-0.577907
C24	C	-0.930579	-0.978167	-0.326163
C25	C	-0.899267	-0.925991	-0.378595
C26	C	-0.813649	-0.925743	-0.378431
C27	C	-0.782197	-0.978093	-0.326146
C28	C	-0.813345	-0.958782	-0.254811
C29	C	-0.898990	-0.958446	-0.255125
C30	C	-0.898924	-1.049768	-0.344438
C31	C	-0.813273	-1.049347	-0.346002
C32	C	-0.698337	-0.978053	-0.326131
C33	C	-1.014439	-0.978206	-0.326173
C34	C	-0.163602	-0.978195	-0.326167
C35	C	-0.081288	-0.978242	-0.326182
C36	C	-0.356779	-1.154629	-0.326155
C37	C	-0.356785	-1.229861	-0.326164
C38	C	-0.404187	-0.691654	-0.369329
C39	C	-0.404188	-0.620965	-0.369339
C40	C	-0.356767	-0.585622	-0.326132
C41	C	-0.309336	-0.620971	-0.282919
C42	C	-0.309332	-0.691658	-0.282913
C43	C	-0.309353	-0.335898	-0.282941
C44	C	-0.309363	-0.265206	-0.282948
C45	C	-0.404209	-0.265205	-0.369367
C46	C	-0.404205	-0.335892	-0.369361
C47	C	-0.356771	-0.371235	-0.326150
C48	C	-0.356770	-0.447883	-0.326141
C49	C	-0.356772	-0.508975	-0.326137
C50	C	-0.309333	-1.021458	-0.613266
C51	C	-0.309311	-1.021465	-0.683955
C52	C	-0.356659	-0.978157	-0.719283
C53	C	-0.404025	-0.934834	-0.683919
C54	C	-0.404042	-0.934824	-0.613231
C55	C	-0.403956	-0.934872	-0.968992
C56	C	-0.403937	-0.934887	-1.039684
C57	C	-0.309225	-1.021513	-1.039716
C58	C	-0.309242	-1.021503	-0.969028
C59	C	-0.356606	-0.978178	-0.933670
C60	C	-0.356628	-0.978170	-0.857022
C61	C	-0.356641	-0.978168	-0.795930
C62	C	-0.356757	-0.978087	-0.150276
C63	C	-0.356568	-0.978202	-0.075045
H64	H	-0.792587	-0.937825	-0.431325
C65	C	-0.183816	-1.054567	-1.061500
C66	C	-0.257153	-1.069134	-1.078581
H67	H	-0.151673	-1.083969	-1.085489
H68	H	-0.172974	-1.009104	-1.073081
H69	H	-0.177065	-1.060759	-1.014343
H70	H	-0.263906	-1.062936	-1.125737
H71	H	-0.267999	-1.114607	-1.067004
H72	H	-0.919706	-0.994801	-0.214727
C73	C	-0.740440	-1.057181	-0.230755
C74	C	-0.785842	-1.008464	-0.200630
H75	H	-0.723457	-1.087849	-0.197304
H76	H	-0.767732	-1.081077	-0.264009
H77	H	-0.699332	-1.035654	-0.251372
H78	H	-0.826953	-1.029990	-0.180017
H79	H	-0.758549	-0.984565	-0.167363
H80	H	-0.442573	-0.899569	-0.712688
H81	H	-0.442808	-0.592192	-0.404525
H82	H	-0.920853	-0.873241	-0.366642
C83	C	-0.446310	-0.444250	-0.407724
C84	C	-0.456329	-0.374742	-0.416856
H85	H	-0.478492	-0.468232	-0.437046
H86	H	-0.396570	-0.455854	-0.417707
H87	H	-0.457086	-0.455804	-0.362228
H88	H	-0.445547	-0.363187	-0.462352
H89	H	-0.506080	-0.363132	-0.406878
C90	C	-0.865117	-0.846158	-0.221553
C91	C	-0.926053	-0.887788	-0.234234
H92	H	-0.881823	-0.802535	-0.208661
H93	H	-0.836336	-0.865001	-0.186166
H94	H	-0.835871	-0.842697	-0.261237
H95	H	-0.955295	-0.891254	-0.194548
H96	H	-0.954846	-0.868941	-0.269623
H97	H	-0.270735	-0.364665	-0.247751
C98	C	-0.446301	-0.800010	-0.407692
C99	C	-0.456315	-0.730501	-0.416823
H100	H	-0.478486	-0.823989	-0.437013
H101	H	-0.396562	-0.811617	-0.417678
H102	H	-0.457076	-0.811564	-0.362195
H103	H	-0.445535	-0.718946	-0.462319
H104	H	-0.506065	-0.718889	-0.406842
H105	H	-0.270742	-0.236431	-0.247765
H106	H	-0.442494	-0.899617	-1.068446
C107	C	-0.497558	-0.849230	-0.976071
C108	C	-0.456008	-0.887241	-0.930133
H109	H	-0.529693	-0.819823	-0.952077
H110	H	-0.465277	-0.823378	-1.003649
H111	H	-0.525892	-0.878714	-1.003635
H112	H	-0.427670	-0.857758	-0.902572
H113	H	-0.488293	-0.913096	-0.902543
C114	C	-0.974780	-1.024131	-0.440492
C115	C	-0.928007	-1.073536	-0.413465
H116	H	-0.992731	-1.038799	-0.483110
H117	H	-1.015187	-1.016905	-0.410739
H118	H	-0.948138	-0.983186	-0.445967
H119	H	-0.954651	-1.114481	-0.407986
H120	H	-0.887594	-1.080771	-0.443226
C121	C	-0.497682	-0.849214	-0.620296
C122	C	-0.456120	-0.887219	-0.574362
H123	H	-0.529837	-0.819828	-0.596298
H124	H	-0.465411	-0.823339	-0.647862
H125	H	-0.525995	-0.878702	-0.647872
H126	H	-0.427802	-0.857731	-0.546788
H127	H	-0.488395	-0.913096	-0.546784
H128	H	-0.791960	-0.906997	-0.239053
H129	H	-0.270722	-0.592189	-0.247742
H130	H	-0.442829	-0.236420	-0.404554
C131	C	-0.966803	-1.152305	-0.326331
C132	C	-0.926258	-1.102253	-0.292893
H133	H	-0.983675	-1.184705	-0.294508
H134	H	-1.007987	-1.132304	-0.348305
H135	H	-0.936236	-1.173859	-0.358850
H136	H	-0.956825	-1.080696	-0.260378
H137	H	-0.885068	-1.122256	-0.270908
C138	C	-0.215589	-0.684564	-0.197480
C139	C	-0.257207	-0.730511	-0.235407
H140	H	-0.183411	-0.708551	-0.168149
H141	H	-0.187303	-0.657021	-0.227016
H142	H	-0.247829	-0.656965	-0.171544
H143	H	-0.224967	-0.758106	-0.261347
H144	H	-0.285494	-0.758065	-0.205867
H145	H	-0.270779	-1.056727	-0.584508
H146	H	-0.270690	-1.056772	-0.940268
C147	C	-0.846699	-0.811235	-0.352388
C148	C	-0.786070	-0.854100	-0.362078
H149	H	-0.829671	-0.767007	-0.342285
H150	H	-0.875695	-0.810123	-0.392331
H151	H	-0.875840	-0.827502	-0.315966
H152	H	-0.756931	-0.837836	-0.398503
H153	H	-0.757062	-0.855210	-0.322131
C154	C	-0.813826	-1.132583	-0.434171
C155	C	-0.785824	-1.068995	-0.416889
H156	H	-0.796892	-1.144702	-0.477941
H157	H	-0.797298	-1.165089	-0.402320
H158	H	-0.866279	-1.131077	-0.433984
H159	H	-0.733370	-1.070502	-0.417071
H160	H	-0.802348	-1.036481	-0.448748
H161	H	-0.270744	-1.056741	-0.712741
H162	H	-0.919817	-0.937953	-0.431660
H163	H	-0.791859	-1.090278	-0.310597
