data_functionalizedCrystal
_audit_creation_method	'MofGen! by Chris Wilmer'
_symmetry_space_group_name_H-M	'P1'
_symmetry_Int_Tables_number	1
_symmetry_cell_setting	triclinic
loop_
_symmetry_equiv_pos_as_xyz
  x,y,z
_cell_length_a	16.625547
_cell_length_b	29.839131
_cell_length_c	16.625539
_cell_angle_alpha	89.962116
_cell_angle_beta	89.978691
_cell_angle_gamma	90.035164
loop_
_atom_site_label
_atom_site_type_symbol
_atom_site_fract_x
_atom_site_fract_y
_atom_site_fract_z
Zn1	Zn	1.232581	-0.178862	-0.455937
Zn2	Zn	1.565914	0.154472	-0.122603
Zn3	Zn	1.899248	0.487805	0.210730
Zn4	Zn	1.232462	-0.253990	-0.321077
Zn5	Zn	1.565796	0.079343	0.012256
Zn6	Zn	1.899129	0.412677	0.345590
Zn7	Zn	1.097751	-0.178875	-0.321107
Zn8	Zn	1.431084	0.154459	0.012226
Zn9	Zn	1.764418	0.487792	0.345559
Zn10	Zn	1.097683	-0.253965	-0.455857
Zn11	Zn	1.431017	0.079368	-0.122524
Zn12	Zn	1.764350	0.412702	0.210810
O13	O	1.165119	-0.216423	-0.388494
O14	O	1.498453	0.116910	-0.055161
O15	O	1.831786	0.450244	0.278172
O16	O	1.345398	-0.188832	-0.438068
O17	O	1.678731	0.144501	-0.104735
O18	O	2.012064	0.477834	0.228599
O19	O	1.214572	-0.244042	-0.208249
O20	O	1.547905	0.089292	0.125085
O21	O	1.881238	0.422625	0.458418
O22	O	1.115715	-0.116006	-0.339039
O23	O	1.449048	0.217327	-0.005705
O24	O	1.782381	0.550661	0.327628
O25	O	1.345311	-0.244029	-0.338987
O26	O	1.678644	0.089304	-0.005654
O27	O	2.011977	0.422638	0.327679
O28	O	1.214774	-0.115996	-0.438097
O29	O	1.548107	0.217337	-0.104764
O30	O	1.881440	0.550671	0.228569
O31	O	1.115600	-0.188855	-0.208271
O32	O	1.448933	0.144479	0.125063
O33	O	1.782266	0.477812	0.458396
O34	O	0.984910	-0.188831	-0.338961
O35	O	1.318243	0.144503	-0.005628
O36	O	1.651576	0.477836	0.327705
O37	O	1.115599	-0.243987	-0.568700
O38	O	1.448932	0.089347	-0.235367
O39	O	1.782266	0.422680	0.097967
O40	O	0.984860	-0.243999	-0.437961
O41	O	1.318193	0.089334	-0.104628
O42	O	1.651527	0.422667	0.228705
O43	O	1.214708	-0.188808	-0.568759
O44	O	1.548041	0.144525	-0.235425
O45	O	1.881374	0.477858	0.097908
O46	O	1.214506	-0.316854	-0.338910
O47	O	1.547839	0.016479	-0.005576
O48	O	1.881172	0.349813	0.327757
O49	O	1.115484	-0.316836	-0.437932
O50	O	1.448817	0.016498	-0.104599
O51	O	1.782151	0.349831	0.228735
C52	C	0.955629	-0.216414	-0.388456
C53	C	1.288962	0.116919	-0.055123
C54	C	1.622295	0.450253	0.278210
C55	C	0.866007	-0.216421	-0.388459
C56	C	1.199341	0.116912	-0.055126
C57	C	1.532674	0.450245	0.278207
C58	C	0.793225	-0.216422	-0.388469
C59	C	1.126558	0.116911	-0.055136
C60	C	1.459892	0.450245	0.278198
C61	C	0.701917	-0.216424	-0.388489
C62	C	1.035250	0.116909	-0.055156
C63	C	1.368583	0.450242	0.278177
C64	C	0.629140	-0.216429	-0.388510
C65	C	0.962473	0.116905	-0.055176
C66	C	1.295807	0.450238	0.278157
C67	C	0.537826	-0.216432	-0.388529
C68	C	0.871159	0.116902	-0.055196
C69	C	1.204493	0.450235	0.278138
C70	C	1.164996	-0.333145	-0.388426
C71	C	1.498330	0.000188	-0.055093
C72	C	1.831663	0.333521	0.278240
C73	C	1.165018	-0.383080	-0.388424
C74	C	1.498351	-0.049747	-0.055091
C75	C	1.831684	0.283587	0.278242
C76	C	1.216688	-0.692683	-0.440148
C77	C	1.550022	-0.359350	-0.106814
C78	C	1.883355	-0.026017	0.226519
C79	C	1.216776	-0.880356	-0.440196
C80	C	1.550109	-0.547023	-0.106863
C81	C	1.883442	-0.213690	0.226470
O82	O	1.260587	-0.904587	-0.484123
O83	O	1.593921	-0.571254	-0.150790
O84	O	1.927254	-0.237921	0.182544
N85	N	1.165256	-0.903865	-0.388584
N86	N	1.498590	-0.570532	-0.055251
N87	N	1.831923	-0.237198	0.278083
C88	C	1.113708	-0.880452	-0.336960
C89	C	1.447041	-0.547119	-0.003626
C90	C	1.780374	-0.213786	0.329707
O91	O	1.069884	-0.904754	-0.293067
O92	O	1.403217	-0.571421	0.040266
O93	O	1.736550	-0.238087	0.373600
C94	C	1.113617	-0.692780	-0.336916
C95	C	1.446950	-0.359447	-0.003582
C96	C	1.780283	-0.026113	0.329751
C97	C	1.165145	-0.669274	-0.388526
C98	C	1.498479	-0.335941	-0.055192
C99	C	1.831812	-0.002607	0.278141
C100	C	1.268212	-0.669177	-0.491754
C101	C	1.601545	-0.335844	-0.158421
C102	C	1.934879	-0.002510	0.174913
C103	C	1.268193	-0.622262	-0.491738
C104	C	1.601526	-0.288928	-0.158405
C105	C	1.934859	0.044405	0.174928
C106	C	1.216650	-0.598852	-0.440116
C107	C	1.549983	-0.265519	-0.106783
C108	C	1.883316	0.067814	0.226550
C109	C	1.165126	-0.622359	-0.388510
C110	C	1.498459	-0.289025	-0.055177
C111	C	1.831793	0.044308	0.278157
C112	C	1.062065	-0.669368	-0.285296
C113	C	1.395398	-0.336035	0.048037
C114	C	1.728731	-0.002702	0.381371
C115	C	1.062045	-0.622447	-0.285291
C116	C	1.395378	-0.289114	0.048042
C117	C	1.728712	0.044219	0.381375
C118	C	1.113574	-0.598941	-0.336901
C119	C	1.446907	-0.265608	-0.003568
C120	C	1.780240	0.067725	0.329766
C121	C	1.113564	-0.552034	-0.336872
C122	C	1.446897	-0.218701	-0.003539
C123	C	1.780230	0.114633	0.329794
N124	N	1.165083	-0.528525	-0.388484
N125	N	1.498416	-0.195192	-0.055151
N126	N	1.831750	0.138141	0.278182
C127	C	1.216626	-0.551935	-0.440107
C128	C	1.549959	-0.218601	-0.106773
C129	C	1.883293	0.114732	0.226560
C130	C	1.113760	-0.978983	-0.336985
C131	C	1.447094	-0.645650	-0.003652
C132	C	1.780427	-0.312316	0.329682
C133	C	1.113784	-1.025901	-0.336995
C134	C	1.447117	-0.692567	-0.003662
C135	C	1.780451	-0.359234	0.329672
C136	C	1.216851	-1.025802	-0.440233
C137	C	1.550184	-0.692468	-0.106899
C138	C	1.883518	-0.359135	0.226434
C139	C	1.216831	-0.978883	-0.440218
C140	C	1.550164	-0.645549	-0.106885
C141	C	1.883498	-0.312216	0.226448
C142	C	1.165280	-0.955474	-0.388597
C143	C	1.498613	-0.622141	-0.055264
C144	C	1.831946	-0.288808	0.278069
C145	C	1.216582	-0.453409	-0.440069
C146	C	1.549915	-0.120075	-0.106736
C147	C	1.883249	0.213258	0.226598
C148	C	1.216561	-0.406489	-0.440046
C149	C	1.549894	-0.073156	-0.106713
C150	C	1.883227	0.260178	0.226620
C151	C	1.113491	-0.406592	-0.336812
C152	C	1.446824	-0.073259	-0.003479
C153	C	1.780158	0.260074	0.329855
C154	C	1.113515	-0.453508	-0.336831
C155	C	1.446848	-0.120175	-0.003498
C156	C	1.780182	0.213159	0.329835
C157	C	1.165063	-0.476915	-0.388466
C158	C	1.498397	-0.143582	-0.055133
C159	C	1.831730	0.189752	0.278200
O160	O	1.069769	-0.527774	-0.292975
O161	O	1.403102	-0.194441	0.040358
O162	O	1.736435	0.138893	0.373692
O163	O	1.260431	-0.527625	-0.484005
O164	O	1.593764	-0.194291	-0.150672
O165	O	1.927098	0.139042	0.182662
C166	C	1.216708	-0.739599	-0.440163
C167	C	1.550041	-0.406265	-0.106830
C168	C	1.883374	-0.072932	0.226503
C169	C	1.165184	-0.763105	-0.388557
C170	C	1.498517	-0.429772	-0.055224
C171	C	1.831851	-0.096438	0.278110
C172	C	1.113641	-0.739696	-0.336935
C173	C	1.446974	-0.406362	-0.003602
C174	C	1.780308	-0.073029	0.329732
C175	C	1.165207	-0.810023	-0.388567
C176	C	1.498541	-0.476689	-0.055234
C177	C	1.831874	-0.143356	0.278100
C178	C	1.216750	-0.833432	-0.440189
C179	C	1.550084	-0.500099	-0.106856
C180	C	1.883417	-0.166765	0.226478
C181	C	1.268270	-0.809923	-0.491801
C182	C	1.601603	-0.476590	-0.158468
C183	C	1.934936	-0.143257	0.174865
C184	C	1.268250	-0.763008	-0.491786
C185	C	1.601584	-0.429675	-0.158452
C186	C	1.934917	-0.096341	0.174881
C187	C	1.062122	-0.763204	-0.285323
C188	C	1.395455	-0.429871	0.048011
C189	C	1.728788	-0.096538	0.381344
C190	C	1.062146	-0.810120	-0.285342
C191	C	1.395479	-0.476786	0.047991
C192	C	1.728812	-0.143453	0.381325
C193	C	1.113689	-0.833529	-0.336964
C194	C	1.447022	-0.500196	-0.003631
C195	C	1.780355	-0.166862	0.329702
C196	C	1.375428	-0.216432	-0.388533
C197	C	1.708762	0.116901	-0.055200
C198	C	2.042095	0.450235	0.278134
C199	C	1.465049	-0.216436	-0.388550
C200	C	1.798383	0.116898	-0.055216
C201	C	2.131716	0.450231	0.278117
C202	C	1.165159	-0.216393	-0.598803
C203	C	1.498492	0.116940	-0.265470
C204	C	1.831826	0.450273	0.067863
C205	C	1.165176	-0.216381	-0.688425
C206	C	1.498509	0.116953	-0.355091
C207	C	1.831843	0.450286	-0.021758
C208	C	1.165265	-0.099244	-0.388580
C209	C	1.498598	0.234089	-0.055247
C210	C	1.831932	0.567422	0.278086
C211	C	1.165327	-0.049310	-0.388617
C212	C	1.498660	0.284023	-0.055284
C213	C	1.831994	0.617357	0.278050
C214	C	1.165189	-0.216371	-0.761207
C215	C	1.498522	0.116963	-0.427874
C216	C	1.831856	0.450296	-0.094540
C217	C	1.165208	-0.216354	-0.852516
C218	C	1.498541	0.116979	-0.519182
C219	C	1.831874	0.450313	-0.185849
C220	C	1.165227	-0.216338	-0.925292
C221	C	1.498560	0.116995	-0.591959
C222	C	1.831893	0.450329	-0.258625
C223	C	1.165247	-0.216322	-1.016606
C224	C	1.498580	0.117011	-0.683273
C225	C	1.831914	0.450345	-0.349940
C226	C	1.165126	-0.216420	-0.179004
C227	C	1.498460	0.116913	0.154330
C228	C	1.831793	0.450247	0.487663
C229	C	1.165266	-0.216306	-0.089383
C230	C	1.498599	0.117027	0.243950
C231	C	1.831933	0.450361	0.577284
H232	H	1.258524	-0.387352	-0.482073
H233	H	1.591857	-0.054019	-0.148740
H234	H	1.925191	0.279315	0.184593
Br235	Br	0.992157	-0.731442	-0.215263
Br236	Br	1.325491	-0.398109	0.118071
Br237	Br	1.658824	-0.064775	0.451404
H238	H	1.258552	-0.472461	-0.482121
H239	H	1.591885	-0.139128	-0.148788
H240	H	1.925219	0.194206	0.184546
Br241	Br	1.043863	-1.057796	-0.266936
Br242	Br	1.377197	-0.724463	0.066397
Br243	Br	1.710530	-0.391129	0.399730
H244	H	1.071780	-0.959927	-0.294947
H245	H	1.405113	-0.626594	0.038386
H246	H	1.738447	-0.293260	0.371720
Br247	Br	1.338122	-0.590368	-0.561790
Br248	Br	1.671456	-0.257034	-0.228456
Br249	Br	2.004789	0.076299	0.104877
Br250	Br	1.286803	-1.057580	-0.510290
Br251	Br	1.620136	-0.724247	-0.176957
Br252	Br	1.953469	-0.390913	0.156376
H253	H	1.310184	-0.688232	-0.533796
H254	H	1.643518	-0.354899	-0.200462
H255	H	1.976851	-0.021565	0.132871
H256	H	1.020105	-0.688499	-0.243269
H257	H	1.353438	-0.355166	0.090064
H258	H	1.686772	-0.021832	0.423397
H259	H	1.258789	-0.959747	-0.482244
H260	H	1.592123	-0.626414	-0.148911
H261	H	1.925456	-0.293080	0.184423
Br262	Br	0.992077	-0.590682	-0.215231
Br263	Br	1.325410	-0.257348	0.118102
Br264	Br	1.658744	0.075985	0.451435
Br265	Br	1.043596	-0.485410	-0.266776
Br266	Br	1.376929	-0.152077	0.066557
Br267	Br	1.710263	0.181256	0.399890
H268	H	1.071527	-0.387525	-0.294779
H269	H	1.404861	-0.054192	0.038554
H270	H	1.738194	0.279141	0.371887
Br271	Br	1.338186	-0.731114	-0.561831
Br272	Br	1.671519	-0.397781	-0.228498
Br273	Br	2.004853	-0.064447	0.104835
H274	H	1.310241	-0.828991	-0.533831
H275	H	1.643574	-0.495658	-0.200498
H276	H	1.976907	-0.162325	0.132836
Br277	Br	0.992212	-0.842015	-0.215288
Br278	Br	1.325545	-0.508682	0.118045
Br279	Br	1.658879	-0.175348	0.451378
