data_functionalizedCrystal
_audit_creation_method	'MofGen! by Chris Wilmer'
_symmetry_space_group_name_H-M	'P1'
_symmetry_Int_Tables_number	1
_symmetry_cell_setting	triclinic
loop_
_symmetry_equiv_pos_as_xyz
  x,y,z
_cell_length_a	10.654545
_cell_length_b	19.188928
_cell_length_c	18.266242
_cell_angle_alpha	90.013749
_cell_angle_beta	89.991433
_cell_angle_gamma	96.186554
loop_
_atom_site_label
_atom_site_type_symbol
_atom_site_fract_x
_atom_site_fract_y
_atom_site_fract_z
O1	O	1.665776	-0.098048	-0.060887
O2	O	1.300099	-0.107394	-0.060891
O3	O	1.493492	-0.001134	-0.060870
O4	O	1.472384	-0.204308	-0.060908
O5	O	1.493459	-0.001129	0.060892
O6	O	1.300067	-0.107389	0.060871
O7	O	1.665744	-0.098043	0.060875
Zn8	Zn	1.482900	-0.102715	0.080205
Zn9	Zn	1.482943	-0.102722	-0.080221
O10	O	1.472351	-0.204302	0.060854
C11	C	1.253299	-0.106706	-0.000011
C12	C	1.113899	-0.104655	-0.000011
C13	C	1.048397	-0.103686	0.066362
C14	C	0.917419	-0.101747	0.066362
C15	C	0.917455	-0.101749	-0.066390
C16	C	1.048432	-0.103683	-0.066389
C17	C	1.492793	0.024884	0.000014
C18	C	1.490742	0.102402	0.000023
C19	C	1.604218	0.146585	0.000030
C20	C	1.602292	0.219421	0.000021
C21	C	1.486883	0.248072	0.000020
C22	C	1.373392	0.203879	0.000010
C23	C	1.375321	0.131044	0.000011
N24	N	1.398657	0.356655	0.041462
N25	N	1.396831	0.425845	0.041462
C26	C	1.481062	0.467519	0.000015
N27	N	1.567206	0.437388	-0.041424
N28	N	1.569035	0.368192	-0.041421
C29	C	1.484778	0.327048	0.000019
C30	C	1.592457	0.590680	0.000011
C31	C	1.590526	0.663517	-0.000002
C32	C	1.361623	0.647973	-0.000006
C33	C	1.363557	0.575137	-0.000000
C34	C	1.478978	0.546495	0.000012
C35	C	1.712544	-0.098731	-0.000007
C36	C	1.851944	-0.100782	-0.000011
C37	C	1.473054	0.769680	-0.000021
C38	C	1.475116	0.692162	-0.000004
N39	N	1.482880	-0.102709	0.189692
N40	N	1.482973	-0.102722	-0.189708
C41	C	1.568542	-0.055681	0.228010
C42	C	1.568550	-0.055678	0.304655
C43	C	1.482908	-0.102715	0.342979
C44	C	1.397229	-0.149747	0.304652
C45	C	1.397215	-0.149744	0.228008
N46	N	1.466583	-0.164416	0.463300
N47	N	1.466604	-0.164416	0.536108
C48	C	1.482943	-0.102725	0.573901
N49	N	1.499285	-0.041032	0.536136
N50	N	1.499270	-0.041032	0.463321
C51	C	1.482913	-0.102723	0.426086
C52	C	1.568618	-0.055689	0.695327
C53	C	1.568618	-0.055685	0.771973
C54	C	1.397303	-0.149761	0.771968
C55	C	1.397298	-0.149759	0.695323
C56	C	1.482962	-0.102724	0.657007
H57	H	0.864136	-0.100958	-0.120432
F58	F	1.118150	-0.104709	-0.137036
F59	F	0.847713	-0.100717	0.137006
F60	F	1.723074	0.266453	0.000027
H61	H	1.698203	0.123269	0.000037
H62	H	1.279425	0.227211	0.000008
F63	F	1.242778	0.528112	-0.000004
H64	H	1.638292	-0.017381	0.196815
H65	H	1.267654	0.671299	-0.000010
F66	F	1.254539	0.084019	0.000004
H67	H	1.686440	0.567358	0.000017
F68	F	1.711310	0.710540	-0.000000
H69	H	1.638309	-0.017380	0.335859
F70	F	1.659788	-0.005625	0.812755
H71	H	1.327496	-0.188044	0.335859
H72	H	1.327457	-0.188041	0.196809
H73	H	1.638368	-0.017389	0.664128
F74	F	1.306149	-0.199817	0.812752
H75	H	1.327549	-0.188056	0.664123
H76	H	1.101697	-0.104478	0.120411
