data_functionalizedCrystal
_audit_creation_method	'MofGen! by Chris Wilmer'
_symmetry_space_group_name_H-M	'P1'
_symmetry_Int_Tables_number	1
_symmetry_cell_setting	triclinic
loop_
_symmetry_equiv_pos_as_xyz
  x,y,z
_cell_length_a	14.628931
_cell_length_b	21.606444
_cell_length_c	21.606444
_cell_angle_alpha	60.001331
_cell_angle_beta	90.001677
_cell_angle_gamma	59.998844
loop_
_atom_site_label
_atom_site_type_symbol
_atom_site_fract_x
_atom_site_fract_y
_atom_site_fract_z
Zr1	Zr	0.880602	0.677449	-0.081200
O2	O	0.734632	0.806572	-0.180023
O3	O	0.925352	0.548330	-0.050908
O4	O	0.925340	0.677453	-0.180027
O5	O	0.734651	0.677444	0.050950
O6	O	1.075772	0.677453	-0.180027
O7	O	0.734644	0.677448	-0.050904
O8	O	1.075793	0.446474	0.050943
O9	O	0.734630	0.908423	-0.180019
O10	O	1.056701	0.601437	-0.037986
O11	O	0.944441	0.601434	0.038027
O12	O	0.944427	0.753461	-0.113993
O13	O	0.832167	0.753458	-0.037981
Zr14	Zr	1.120536	0.677442	0.081246
Zr15	Zr	1.120524	0.677449	-0.081200
Zr16	Zr	0.880615	0.677442	0.081246
Zr17	Zr	0.880600	0.839890	-0.081195
Zr18	Zr	1.120539	0.515002	0.081241
O19	O	1.075787	0.806562	0.050954
O20	O	1.075770	0.806572	-0.180022
O21	O	0.734649	0.806562	0.050954
O22	O	1.266507	0.548319	0.180069
O23	O	1.266490	0.548329	-0.050908
O24	O	0.925369	0.548320	0.180068
O25	O	1.266488	0.677447	-0.050904
O26	O	1.075799	0.677438	0.180073
O27	O	0.925367	0.677438	0.180072
O28	O	1.266495	0.677443	0.050950
O29	O	0.925336	0.908423	-0.180019
O30	O	1.075803	0.446469	0.180065
O31	O	1.266508	0.446468	0.180065
O32	O	1.266499	0.446474	0.050943
O33	O	0.734640	0.908417	-0.050897
O34	O	0.925346	0.908417	-0.050897
O35	O	1.056712	0.601430	0.114039
O36	O	1.168972	0.601434	0.038027
O37	O	1.056698	0.753457	-0.037981
O38	O	0.944438	0.753454	0.038032
C39	C	1.000573	0.474258	0.000016
C40	C	1.000574	0.405297	0.000014
C41	C	1.059170	0.372901	-0.039665
C42	C	1.059174	0.308101	-0.039660
C43	C	1.000574	0.275703	0.000020
C44	C	0.941976	0.308102	0.039704
C45	C	0.941980	0.372896	0.039703
C46	C	0.941963	0.046792	0.039710
C47	C	0.941962	-0.018005	0.039707
C48	C	1.059157	-0.018002	-0.039652
C49	C	1.059161	0.046792	-0.039653
C50	C	1.000568	0.079182	0.000033
C51	C	1.000566	0.149444	0.000029
C52	C	1.000569	0.205446	0.000021
C53	C	0.700464	0.677446	0.000023
C54	C	0.598611	0.677446	0.000023
C55	C	0.608897	0.602032	0.037728
C56	C	0.503628	0.602031	0.037728
C57	C	1.300675	0.677445	0.000023
C58	C	1.402528	0.677445	0.000023
C59	C	1.000554	0.677454	-0.203172
C60	C	1.000549	0.677457	-0.272134
C61	C	1.000566	0.880634	0.000030
C62	C	1.000565	0.949594	0.000032
C63	C	0.941943	0.756811	-0.344208
C64	C	0.941952	0.756809	-0.409003
C65	C	1.000562	0.677452	-0.401722
C66	C	1.059176	0.598091	-0.329641
C67	C	1.059172	0.598095	-0.264847
C68	C	1.059194	0.598076	-0.590944
C69	C	1.059190	0.598079	-0.655744
C70	C	0.941974	0.756791	-0.735099
C71	C	0.941970	0.756794	-0.670306
C72	C	1.000588	0.677434	-0.598230
C73	C	1.000579	0.677438	-0.527973
C74	C	1.000566	0.677447	-0.471978
C75	C	1.000585	0.677437	0.203218
C76	C	1.000590	0.677434	0.272180
C77	C	1.300678	0.474257	0.000017
C78	C	1.402532	0.405297	0.000015
C79	C	1.000588	0.474249	0.203211
C80	C	1.000594	0.405286	0.272171
C81	C	1.300693	0.474248	0.203211
C82	C	1.402553	0.405285	0.272172
C83	C	0.700445	0.880643	-0.203165
C84	C	0.598586	0.949606	-0.272126
C85	C	0.700461	0.880634	0.000029
C86	C	0.598606	0.949595	0.000031
C87	C	1.000551	0.880642	-0.203165
C88	C	1.000545	0.949605	-0.272125
C89	C	1.391760	0.372914	-0.039671
C90	C	1.487453	0.308127	-0.039688
C91	C	1.593919	0.275720	-0.000015
C92	C	1.604689	0.308109	0.039672
C93	C	1.508997	0.372899	0.039684
C94	C	1.059201	0.372898	0.344240
C95	C	1.059203	0.308109	0.409042
C96	C	1.000603	0.275704	0.401773
C97	C	0.941988	0.308098	0.329696
C98	C	0.941981	0.372891	0.264896
C99	C	1.508996	0.372901	0.264878
C100	C	1.604713	0.308111	0.329668
C101	C	1.593984	0.275703	0.401749
C102	C	1.487530	0.308094	0.409041
C103	C	1.391816	0.372886	0.344253
C104	C	0.492143	0.981998	-0.264832
C105	C	0.396426	1.046808	-0.329622
C106	C	0.407155	1.079220	-0.401703
C107	C	0.513609	1.046825	-0.408995
C108	C	0.609323	0.982021	-0.344207
C109	C	0.609379	0.981984	0.039710
C110	C	0.513685	1.046789	0.039710
C111	C	0.407220	1.079198	0.000034
C112	C	0.396450	1.046806	-0.039650
C113	C	0.492142	0.982007	-0.039653
C114	C	1.059156	0.981990	-0.264832
C115	C	1.059172	1.046779	-0.329621
C116	C	1.000570	1.079188	-0.401703
C117	C	0.941956	1.046797	-0.408995
C118	C	0.941948	0.982004	-0.344206
H119	H	1.106873	0.073172	-0.071967
H120	H	0.894278	0.281705	0.323789
H121	H	1.106921	0.399275	0.350173
H122	H	0.894208	0.821434	-0.350145
H123	H	0.696060	0.955601	0.072024
H124	H	1.691386	0.281714	0.071972
N125	N	1.122376	1.081720	-0.321751
H126	H	1.181362	1.070439	-0.346855
H127	H	1.159415	1.051349	-0.266243
H128	H	0.522331	1.073223	-0.467692
H129	H	0.522477	1.073151	0.072028
H130	H	1.478811	0.281697	0.467739
H131	H	0.512259	0.537466	0.070004
N132	N	0.878725	0.947080	-0.352078
H133	H	0.841605	0.977449	-0.407574
H134	H	0.819803	0.958363	-0.326930
N135	N	1.122366	0.947044	-0.187092
H136	H	1.159497	0.977395	-0.192314
H137	H	1.181280	0.881998	-0.158481
H138	H	0.483386	0.955612	-0.206146
N139	N	1.520600	0.407843	0.187143
H140	H	1.483500	0.472887	0.158491
H141	H	1.483533	0.396504	0.158547
N142	N	0.281614	1.081738	-0.321754
H143	H	0.272659	1.108604	-0.293117
H144	H	0.272731	1.032257	-0.293159
N145	N	1.000596	1.149063	-0.471579
H146	H	1.046624	1.164655	-0.456014
H147	H	0.921200	1.202793	-0.502744
H148	H	1.517784	0.399257	0.072005
N149	N	1.276939	0.407855	-0.082463
H150	H	1.234610	0.472900	-0.122386
H151	H	1.234720	0.396509	-0.046018
H152	H	1.691383	0.281745	0.323717
H153	H	0.329209	1.131987	-0.454452
N154	N	1.697224	0.205820	0.471625
H155	H	1.766280	0.190225	0.456060
H156	H	1.697181	0.152093	0.502784
N157	N	0.878752	1.081756	-0.486742
H158	H	0.887654	1.127718	-0.526672
H159	H	0.796795	1.108601	-0.492749
N160	N	1.697125	0.205841	-0.000033
H161	H	1.674135	0.190247	-0.031195
H162	H	1.743153	0.152113	0.053723
N163	N	1.122373	-0.052944	-0.082450
H164	H	1.091623	-0.003505	-0.137956
H165	H	1.113472	-0.098922	-0.076371
H166	H	0.393888	0.742013	-0.032262
N167	N	1.277007	0.407808	0.352118
H168	H	1.268041	0.434687	0.380746
H169	H	1.268139	0.358320	0.380724
N170	N	1.122376	0.407841	-0.082464
H171	H	1.113485	0.453807	-0.076448
H172	H	1.091596	0.434674	-0.137950
N173	N	1.122372	0.273160	-0.082457
H174	H	1.159487	0.303521	-0.107599
H175	H	1.068554	0.284438	-0.122342
N176	N	0.724128	0.947083	-0.352078
H177	H	0.716390	0.977452	-0.407575
H178	H	0.766385	0.882041	-0.326934
H179	H	0.329310	1.131961	0.000043
H180	H	1.106938	0.281741	0.467723
H181	H	0.894258	0.073153	0.072029
N182	N	0.878762	-0.052955	0.082510
H183	H	0.841648	-0.022608	0.107655
H184	H	0.932583	-0.118001	0.122394
H185	H	0.309753	1.073204	-0.071953
N186	N	1.122399	0.512477	-0.513217
H187	H	1.068647	0.508942	-0.484570
H188	H	1.181380	0.508976	-0.484616
N189	N	1.475822	0.273203	-0.082496
H190	H	1.393855	0.303561	-0.107618
H191	H	1.512982	0.208156	-0.046071
N192	N	0.480515	0.947075	-0.082452
H193	H	0.398547	0.977443	-0.107581
H194	H	0.517660	0.882032	-0.046022
H195	H	0.894270	0.281714	0.072017
H196	H	0.894262	0.399274	0.072011
H197	H	0.511871	0.742010	-0.032256
N198	N	0.723786	0.516505	0.080493
H199	H	0.782702	0.528629	0.074431
H200	H	0.732711	0.481832	0.059667
N201	N	0.878802	0.842398	-0.486740
H202	H	0.841686	0.892670	-0.481521
H203	H	0.819882	0.845890	-0.515390
N204	N	0.878756	0.842386	-0.678158
H205	H	0.841633	0.892658	-0.733650
H206	H	0.932570	0.845838	-0.653000
H207	H	1.106904	0.533477	-0.323717
H208	H	0.894247	0.821409	-0.793793
H209	H	1.106921	0.533452	-0.649808
H210	H	1.106895	0.533476	-0.206161
H211	H	1.000618	0.222946	0.454543
N212	N	0.878698	0.407865	0.187165
H213	H	0.841560	0.377515	0.192401
H214	H	0.932447	0.396617	0.158511
