data_functionalizedCrystal
_audit_creation_method	'MofGen! by Chris Wilmer'
_symmetry_space_group_name_H-M	'P1'
_symmetry_Int_Tables_number	1
_symmetry_cell_setting	triclinic
loop_
_symmetry_equiv_pos_as_xyz
  x,y,z
_cell_length_a	19.188933
_cell_length_b	14.971486
_cell_length_c	18.266242
_cell_angle_alpha	90.005330
_cell_angle_beta	89.992475
_cell_angle_gamma	96.620151
loop_
_atom_site_label
_atom_site_type_symbol
_atom_site_fract_x
_atom_site_fract_y
_atom_site_fract_z
O1	O	0.926508	-0.111677	-0.060857
O2	O	1.259841	0.221657	0.272476
O3	O	1.593175	0.554990	0.605810
O4	O	0.723245	-0.126707	-0.060864
O5	O	1.056578	0.206626	0.272470
O6	O	1.389912	0.539959	0.605803
O7	O	0.830324	0.011037	-0.060855
O8	O	1.163658	0.344370	0.272478
O9	O	1.496991	0.677704	0.605812
O10	O	0.819429	-0.249421	-0.060866
O11	O	1.152762	0.083913	0.272468
O12	O	1.486095	0.417246	0.605801
O13	O	0.830306	0.011041	0.060907
O14	O	1.163640	0.344374	0.394240
O15	O	1.496973	0.677707	0.727574
O16	O	0.723227	-0.126703	0.060898
O17	O	1.056560	0.206630	0.394232
O18	O	1.389894	0.539963	0.727565
O19	O	0.926490	-0.111673	0.060905
O20	O	1.259823	0.221661	0.394238
O21	O	1.593156	0.554994	0.727572
Zn22	Zn	0.824855	-0.119187	0.080234
Zn23	Zn	1.158189	0.214146	0.413567
Zn24	Zn	1.491522	0.547479	0.746901
Zn25	Zn	0.824879	-0.119193	-0.080193
Zn26	Zn	1.158213	0.214141	0.253141
Zn27	Zn	1.491546	0.547474	0.586474
O28	O	0.819410	-0.249417	0.060896
O29	O	1.152744	0.083916	0.394230
O30	O	1.486077	0.417250	0.727563
C31	C	0.697223	-0.126218	0.000016
C32	C	1.030557	0.207115	0.333350
C33	C	1.363890	0.540448	0.666683
C34	C	0.619714	-0.124756	0.000014
C35	C	0.953048	0.208577	0.333347
C36	C	1.286381	0.541910	0.666681
C37	C	0.066435	-0.114324	-0.066350
C38	C	0.399769	0.219010	0.266983
C39	C	0.733102	0.552343	0.600316
C40	C	0.139264	-0.115692	-0.066353
C41	C	0.472597	0.217641	0.266980
C42	C	0.805931	0.550975	0.600314
C43	C	0.175673	-0.116378	0.000019
C44	C	0.509007	0.216955	0.333352
C45	C	0.842340	0.550288	0.666686
C46	C	0.139250	-0.115673	0.066399
C47	C	0.472583	0.217660	0.399732
C48	C	0.805917	0.550994	0.733066
C49	C	0.066424	-0.114296	0.066400
C50	C	0.399757	0.219038	0.399733
C51	C	0.733090	0.552371	0.733067
N52	N	0.284857	-0.169437	0.049421
N53	N	0.618190	0.163896	0.382754
N54	N	0.951523	0.497230	0.716087
N55	N	0.354038	-0.170747	0.049415
N56	N	0.687372	0.162586	0.382749
N57	N	1.020705	0.495919	0.716082
C58	C	0.395095	-0.120526	0.000020
C59	C	0.728429	0.212807	0.333353
C60	C	1.061762	0.546140	0.666687
N61	N	0.364356	-0.068957	-0.049381
N62	N	0.697689	0.264377	0.283953
N63	N	1.031022	0.597710	0.617286
N64	N	0.295167	-0.067650	-0.049377
N65	N	0.628500	0.265683	0.283956
N66	N	0.961834	0.599017	0.617289
C67	C	0.254641	-0.117871	0.000025
C68	C	0.587975	0.215462	0.333359
C69	C	0.921308	0.548795	0.666692
C70	C	0.510479	-0.122709	-0.066359
C71	C	0.843813	0.210625	0.266974
C72	C	1.177146	0.543958	0.600308
C73	C	0.583310	-0.124072	-0.066359
C74	C	0.916643	0.209262	0.266974
C75	C	1.249977	0.542595	0.600308
C76	C	0.583294	-0.124062	0.066395
C77	C	0.916627	0.209272	0.399728
C78	C	1.249960	0.542605	0.733062
C79	C	0.510465	-0.122690	0.066393
C80	C	0.843799	0.210644	0.399727
C81	C	1.177132	0.543977	0.733060
C82	C	0.474062	-0.122018	0.000014
C83	C	0.807396	0.211316	0.333348
C84	C	1.140729	0.544649	0.666681
C85	C	0.829828	0.044361	0.000026
C86	C	1.163161	0.377694	0.333359
C87	C	1.496495	0.711028	0.666692
C88	C	0.828368	0.143650	0.000025
C89	C	1.161701	0.476984	0.333358
C90	C	1.495034	0.810317	0.666692
C91	C	0.952511	-0.112162	0.000023
C92	C	1.285845	0.221172	0.333357
C93	C	1.619178	0.554505	0.666690
C94	C	1.030020	-0.113624	0.000021
C95	C	1.363354	0.219710	0.333354
C96	C	1.696687	0.553043	0.666688
C97	C	0.819907	-0.282741	0.000014
C98	C	1.153240	0.050592	0.333347
C99	C	1.486573	0.383926	0.666681
C100	C	0.821367	-0.382030	0.000010
C101	C	1.154700	-0.048697	0.333343
C102	C	1.488034	0.284636	0.666676
N103	N	0.824844	-0.119183	0.189721
N104	N	1.158177	0.214150	0.523054
N105	N	1.491511	0.547483	0.856388
C106	C	0.891274	0.201207	0.000028
C107	C	1.224607	0.534541	0.333361
C108	C	1.557941	0.867874	0.666694
C109	C	0.889898	0.294500	0.000020
C110	C	1.223231	0.627833	0.333354
C111	C	1.556564	0.961166	0.666687
C112	C	0.825615	0.330233	0.000016
C113	C	1.158948	0.663566	0.333349
C114	C	1.492281	0.996900	0.666682
C115	C	0.762704	0.272668	0.000011
C116	C	1.096037	0.606002	0.333344
C117	C	1.429370	0.939335	0.666677
C118	C	0.764081	0.179378	0.000013
C119	C	1.097414	0.512711	0.333346
C120	C	1.430747	0.846045	0.666680
C121	C	0.759838	0.467116	0.000008
C122	C	1.093171	0.800449	0.333341
C123	C	1.426505	1.133783	0.666675
C124	C	0.758461	0.560413	0.000007
C125	C	1.091794	0.893746	0.333340
C126	C	1.425127	1.227079	0.666674
C127	C	0.885655	0.582237	0.000015
C128	C	1.218989	0.915571	0.333349
C129	C	1.552322	1.248904	0.666682
C130	C	0.887032	0.488947	0.000018
C131	C	1.220366	0.822280	0.333351
C132	C	1.553699	1.155614	0.666684
C133	C	0.824121	0.431389	0.000014
C134	C	1.157454	0.764722	0.333347
C135	C	1.490788	1.098056	0.666681
N136	N	0.824896	-0.119189	-0.189680
N137	N	1.158230	0.214144	0.143654
N138	N	1.491563	0.547477	0.476987
C139	C	0.867227	-0.173304	0.228023
C140	C	1.200561	0.160030	0.561356
C141	C	1.533894	0.493363	0.894689
C142	C	0.867239	-0.173301	0.304668
C143	C	1.200572	0.160032	0.638001
C144	C	1.533906	0.493366	0.971334
C145	C	0.824854	-0.119189	0.343008
C146	C	1.158187	0.214145	0.676341
C147	C	1.491521	0.547478	1.009674
C148	C	0.782468	-0.065058	0.304697
C149	C	1.115801	0.268276	0.638030
C150	C	1.449135	0.601609	0.971363
C151	C	0.782463	-0.065055	0.228053
C152	C	1.115796	0.268278	0.561387
C153	C	1.449130	0.601612	0.894720
N154	N	0.763699	-0.116985	0.463358
N155	N	1.097033	0.216349	0.796692
N156	N	1.430366	0.549682	1.130025
N157	N	0.763706	-0.116992	0.536167
N158	N	1.097039	0.216341	0.869500
N159	N	1.430373	0.549674	1.202833
C160	C	0.824868	-0.119192	0.573930
C161	C	1.158201	0.214141	0.907264
C162	C	1.491535	0.547475	1.240597
N163	N	0.886024	-0.121401	0.536135
N164	N	1.219357	0.211932	0.869469
N165	N	1.552690	0.545265	1.202802
N166	N	0.886016	-0.121398	0.463321
N167	N	1.219350	0.211935	0.796654
N168	N	1.552683	0.545268	1.129987
C169	C	0.824855	-0.119185	0.426115
C170	C	1.158189	0.214148	0.759448
C171	C	1.491522	0.547481	1.092781
C172	C	0.867268	-0.173312	0.695339
C173	C	1.200601	0.160021	1.028673
C174	C	1.533934	0.493354	1.362006
C175	C	0.867281	-0.173303	0.771986
C176	C	1.200614	0.160030	1.105319
C177	C	1.533947	0.493363	1.438652
C178	C	0.782503	-0.065065	0.772013
C179	C	1.115837	0.268268	1.105346
C180	C	1.449170	0.601601	1.438680
C181	C	0.782497	-0.065069	0.695368
C182	C	1.115830	0.268264	1.028702
C183	C	1.449164	0.601598	1.362035
C184	C	0.824878	-0.119197	0.657036
C185	C	1.158211	0.214136	0.990369
C186	C	1.491544	0.547469	1.323703
H187	H	0.036775	-0.113729	0.120449
H188	H	0.370108	0.219604	0.453783
H189	H	0.703441	0.552938	0.787116
H190	H	0.712856	0.132515	0.000011
H191	H	1.046189	0.465849	0.333344
H192	H	1.379522	0.799182	0.666677
H193	H	0.480816	-0.122123	0.120440
H194	H	0.814149	0.211210	0.453773
H195	H	1.147482	0.544544	0.787107
H196	H	0.747959	-0.020998	0.335918
H197	H	1.081292	0.312335	0.669251
H198	H	1.414626	0.645669	1.002585
H199	H	0.939377	0.459856	0.000027
H200	H	1.272710	0.793190	0.333360
H201	H	1.606044	1.126523	0.666693
H202	H	0.747948	-0.020983	0.196868
H203	H	1.081281	0.312351	0.530202
H204	H	1.414615	0.645684	0.863535
H205	H	0.612938	-0.124617	0.120437
H206	H	0.946271	0.208716	0.453770
H207	H	1.279604	0.542050	0.787103
H208	H	0.901799	-0.217372	0.803170
H209	H	1.235132	0.115961	1.136503
H210	H	1.568466	0.449295	1.469836
H211	H	0.747981	-0.021002	0.664182
H212	H	1.081314	0.312331	0.997516
H213	H	1.414647	0.645665	1.330849
H214	H	0.901777	-0.217386	0.664127
H215	H	1.235110	0.115947	0.997461
H216	H	1.568444	0.449280	1.330794
H217	H	0.901740	-0.217376	0.196817
H218	H	1.235073	0.115958	0.530151
H219	H	1.568407	0.449291	0.863484
H220	H	0.943621	0.172121	0.000036
H221	H	1.276954	0.505455	0.333370
H222	H	1.610287	0.838788	0.666703
H223	H	0.747994	-0.021005	0.803229
H224	H	1.081327	0.312328	1.136562
H225	H	1.414660	0.645662	1.469895
H226	H	0.941122	0.341360	0.000024
H227	H	1.274456	0.674693	0.333357
H228	H	1.607789	1.008026	0.666691
H229	H	0.036801	-0.113773	-0.120401
H230	H	0.370134	0.219561	0.212932
H231	H	0.703467	0.552894	0.546265
H232	H	0.706116	0.589503	0.000015
H233	H	1.039449	0.922837	0.333348
H234	H	1.372782	1.256170	0.666682
H235	H	0.936880	0.629106	0.000016
H236	H	1.270213	0.962439	0.333349
H237	H	1.603547	1.295773	0.666683
H238	H	0.901753	-0.217375	0.335859
H239	H	1.235086	0.115959	0.669193
H240	H	1.568419	0.449292	1.002526
H241	H	0.710363	0.301770	0.000002
H242	H	1.043696	0.635103	0.333335
H243	H	1.377030	0.968436	0.666669
H244	H	0.708609	0.420254	0.000003
H245	H	1.041942	0.753587	0.333337
H246	H	1.375275	1.086920	0.666670
H247	H	0.168899	-0.116230	0.120440
H248	H	0.502233	0.217103	0.453773
H249	H	0.835566	0.550436	0.787106
H250	H	0.168918	-0.116267	-0.120402
H251	H	0.502252	0.217066	0.212931
H252	H	0.835585	0.550400	0.546264
H253	H	0.480839	-0.122159	-0.120409
H254	H	0.814172	0.211175	0.212925
H255	H	1.147505	0.544508	0.546258
H256	H	0.612958	-0.124635	-0.120409
H257	H	0.946292	0.208699	0.212925
H258	H	1.279625	0.542032	0.546258
