data_functionalizedCrystal
_audit_creation_method	'MofGen! by Chris Wilmer'
_symmetry_space_group_name_H-M	'P1'
_symmetry_Int_Tables_number	1
_symmetry_cell_setting	triclinic
loop_
_symmetry_equiv_pos_as_xyz
  x,y,z
_cell_length_a	18.215407
_cell_length_b	12.759394
_cell_length_c	18.215399
_cell_angle_alpha	90.025276
_cell_angle_beta	90.019833
_cell_angle_gamma	90.015285
loop_
_atom_site_label
_atom_site_type_symbol
_atom_site_fract_x
_atom_site_fract_y
_atom_site_fract_z
Zn1	Zn	1.125123	-0.418265	0.416130
Zn2	Zn	1.125053	-0.593962	0.293069
Zn3	Zn	1.002056	-0.418299	0.293077
Zn4	Zn	1.002043	-0.593904	0.416094
O5	O	1.063569	-0.506107	0.354592
O6	O	1.228098	-0.441581	0.399817
O7	O	1.108713	-0.570699	0.190086
O8	O	1.018416	-0.271273	0.309418
O9	O	1.228047	-0.570666	0.309405
O10	O	1.108833	-0.271248	0.399825
O11	O	1.018348	-0.441640	0.190092
O12	O	0.899070	-0.441583	0.309384
O13	O	1.018394	-0.570566	0.519083
O14	O	0.899061	-0.570599	0.399764
O15	O	1.108821	-0.441525	0.519109
O16	O	1.108701	-0.740975	0.309370
O17	O	1.018326	-0.740933	0.399756
C18	C	0.872363	-0.506089	0.354571
C19	C	0.790564	-0.506107	0.354580
C20	C	0.602384	-0.573391	0.401582
C21	C	0.525526	-0.573395	0.401591
C22	C	0.525506	-0.438843	0.307619
C23	C	0.602363	-0.438835	0.307614
C24	C	0.640800	-0.506115	0.354594
C25	C	0.487084	-0.506126	0.354608
C26	C	0.403751	-0.506129	0.354618
C27	C	0.724139	-0.506111	0.354586
C28	C	1.063525	-0.779075	0.354575
C29	C	1.063573	-0.895852	0.354592
C30	C	1.157751	-0.895843	0.260543
C31	C	1.204859	-0.950699	0.213528
C32	C	1.204903	-1.060421	0.213548
C33	C	1.157834	-1.115289	0.260590
C34	C	1.110726	-1.060432	0.307605
C35	C	1.110686	-0.950708	0.307579
C36	C	1.016553	-1.060441	0.401656
C37	C	1.016505	-0.950719	0.401634
C38	C	0.969484	-1.115308	0.448698
C39	C	0.922371	-1.060452	0.495711
C40	C	0.922329	-0.950724	0.495689
C41	C	0.969397	-0.895863	0.448649
C42	C	1.255522	-0.506126	0.354614
C43	C	1.337321	-0.506134	0.354623
C44	C	1.063614	-0.506035	0.546545
C45	C	1.063633	-0.506004	0.628344
C46	C	1.063633	-0.232074	0.354626
C47	C	1.063661	-0.115297	0.354641
C48	C	1.063567	-0.506104	0.163386
C49	C	1.063690	-0.505839	0.081588
C50	C	1.110735	-0.438750	0.816553
C51	C	1.110744	-0.438719	0.893412
C52	C	1.016583	-0.573096	0.893373
C53	C	1.016571	-0.573121	0.816516
C54	C	1.063651	-0.505949	0.778108
C55	C	1.063672	-0.505894	0.931824
C56	C	1.063681	-0.505861	1.015158
C57	C	1.063641	-0.505980	0.694769
H58	H	0.633642	-0.384044	0.269352
C59	C	0.483226	-0.364845	0.255940
H60	H	0.517115	-0.324769	0.227960
H61	H	0.453225	-0.404978	0.223829
H62	H	0.453262	-0.319117	0.284153
C63	C	1.157703	-0.775153	0.260516
H64	H	1.192482	-0.750332	0.225770
H65	H	1.110208	-0.750400	0.247748
H66	H	1.170403	-0.750266	0.308014
C67	C	1.162511	-0.364851	0.774306
H68	H	1.190547	-0.324817	0.808214
H69	H	1.194566	-0.405043	0.744322
H70	H	1.134355	-0.319081	0.744329
C71	C	0.964806	-0.646988	0.935625
H72	H	0.971561	-0.637358	0.986905
H73	H	0.915360	-0.631618	0.923024
H74	H	0.975567	-0.717586	0.923018
C75	C	0.964781	-0.647051	0.774223
H76	H	0.936752	-0.687064	0.808104
H77	H	0.932720	-0.606873	0.744239
H78	H	0.992928	-0.692839	0.744242
H79	H	0.633678	-0.628173	0.439838
H80	H	1.157880	-1.204630	0.260608
H81	H	1.243184	-0.906017	0.175228
H82	H	0.494251	-0.628176	0.439853
C83	C	1.256718	-1.120770	0.161834
H84	H	1.250003	-1.193974	0.168589
H85	H	1.245967	-1.102855	0.112374
H86	H	1.306157	-1.102725	0.172646
C87	C	0.969529	-1.235999	0.448720
H88	H	1.004320	-1.260813	0.413977
H89	H	0.982241	-1.260761	0.496225
H90	H	0.922049	-1.260880	0.435955
C91	C	0.870603	-1.120806	0.547450
H92	H	0.877375	-1.194008	0.540728
H93	H	0.881338	-1.102757	0.596902
H94	H	0.821151	-1.102900	0.536627
C95	C	0.870511	-0.890390	0.547409
H96	H	0.842486	-0.938784	0.575422
H97	H	0.898631	-0.847519	0.579487
H98	H	0.838436	-0.847657	0.519220
H99	H	0.969362	-0.806522	0.448621
C100	C	1.162539	-0.364804	0.935699
H101	H	1.190578	-0.324812	0.901814
H102	H	1.134405	-0.319013	0.965682
H103	H	1.194602	-0.404995	0.965680
