data_functionalizedCrystal
_audit_creation_method	'MofGen! by Chris Wilmer'
_symmetry_space_group_name_H-M	'P1'
_symmetry_Int_Tables_number	1
_symmetry_cell_setting	triclinic
loop_
_symmetry_equiv_pos_as_xyz
  x,y,z
_cell_length_a	6.394989
_cell_length_b	10.723024
_cell_length_c	9.798715
_cell_angle_alpha	89.996609
_cell_angle_beta	90.000171
_cell_angle_gamma	94.517210
loop_
_atom_site_label
_atom_site_type_symbol
_atom_site_fract_x
_atom_site_fract_y
_atom_site_fract_z
O1	O	-0.293022	1.660297	-0.113473
O2	O	-0.321070	1.297442	-0.113476
O3	O	-0.003055	1.484020	-0.113475
O4	O	-0.611036	1.473719	-0.113474
O5	O	-0.003054	1.484006	0.113507
O6	O	-0.321069	1.297428	0.113506
O7	O	-0.293021	1.660283	0.113510
Zn8	Zn	-0.307045	1.478853	0.149546
Zn9	Zn	-0.307046	1.478872	-0.149513
O10	O	-0.611035	1.473705	0.113509
C11	C	-0.319028	1.250914	0.000014
C12	C	-0.312921	1.112295	0.000012
C13	C	-0.490865	1.039201	0.000012
C14	C	-0.484558	0.895931	0.000010
C15	C	0.074796	1.481977	0.000011
C16	C	0.311120	1.475752	0.000009
C17	C	-0.295062	1.706811	0.000016
C18	C	-0.301169	1.845430	0.000009
N19	N	-0.307043	1.478850	0.353646
N20	N	-0.307031	1.478885	-0.353612
C21	C	-0.172929	1.557182	0.421423
C22	C	-0.172922	1.557202	0.578586
H23	H	-0.148827	0.908239	0.000001
H24	H	-0.058109	1.624271	0.636871
H25	H	-0.421850	1.411796	0.411970
C26	C	-0.462162	1.388277	0.567667
C27	C	-0.379427	1.292126	0.468597
C28	C	-0.534558	1.201518	0.389865
C29	C	-0.772424	1.207061	0.410203
C30	C	-0.855171	1.303216	0.509278
C31	C	-0.700040	1.393824	0.588010
H32	H	-0.203334	1.288019	0.453538
H33	H	-0.473301	1.130337	0.316523
H34	H	-0.887260	1.139988	0.351921
H35	H	-1.031264	1.307323	0.524337
H36	H	-0.761296	1.465005	0.661351
H37	H	-0.647879	1.082689	0.000020
C38	C	-0.017810	1.647768	0.342647
C39	C	-0.017835	1.647501	0.185491
C40	C	0.137291	1.738091	0.106721
C41	C	0.292442	1.828947	0.185107
C42	C	0.292474	1.829218	0.342272
C43	C	0.137348	1.738628	0.421042
H44	H	-0.132693	1.580241	0.127457
H45	H	0.137267	1.737890	-0.009624
H46	H	0.407276	1.896007	0.126796
H47	H	0.407331	1.896478	0.400306
H48	H	0.137372	1.738829	0.537386
H49	H	-0.155907	1.068806	-0.000023
H50	H	-0.636892	0.833115	0.000004
