data_functionalizedCrystal
_audit_creation_method	'MofGen! by Chris Wilmer'
_symmetry_space_group_name_H-M	'P1'
_symmetry_Int_Tables_number	1
_symmetry_cell_setting	triclinic
loop_
_symmetry_equiv_pos_as_xyz
  x,y,z
_cell_length_a	18.101398
_cell_length_b	29.839131
_cell_length_c	29.839125
_cell_angle_alpha	89.982291
_cell_angle_beta	89.982423
_cell_angle_gamma	90.036686
loop_
_atom_site_label
_atom_site_type_symbol
_atom_site_fract_x
_atom_site_fract_y
_atom_site_fract_z
Zn1	Zn	1.132019	-0.178973	-0.254072
Zn2	Zn	1.131907	-0.254085	-0.178942
Zn3	Zn	1.008192	-0.178964	-0.178948
Zn4	Zn	1.008106	-0.254071	-0.254036
O5	O	1.070056	-0.216523	-0.216500
O6	O	1.235637	-0.188947	-0.244119
O7	O	1.115485	-0.244122	-0.116076
O8	O	1.024701	-0.116098	-0.188930
O9	O	1.235554	-0.244131	-0.188921
O10	O	1.115676	-0.116105	-0.244124
O11	O	1.024592	-0.188931	-0.116080
O12	O	0.904548	-0.188917	-0.188896
O13	O	1.024554	-0.244107	-0.316908
O14	O	0.904484	-0.244097	-0.244063
O15	O	1.115592	-0.188933	-0.316935
O16	O	1.115401	-0.316950	-0.188886
O17	O	1.024445	-0.316940	-0.244058
C18	C	0.877645	-0.216505	-0.216476
C19	C	0.795331	-0.216508	-0.216477
C20	C	0.496240	-0.216536	-0.216515
C21	C	0.527581	-0.181644	-0.181974
C22	C	0.613199	-0.181738	-0.181827
C23	C	0.644623	-0.216522	-0.216496
C24	C	0.613493	-0.263843	-0.203557
C25	C	0.527848	-0.263649	-0.203317
C26	C	0.527849	-0.204518	-0.264075
C27	C	0.613500	-0.203464	-0.263815
C28	C	0.728482	-0.216516	-0.216486
C29	C	0.412381	-0.216544	-0.216523
C30	C	1.069922	-0.333246	-0.216477
C31	C	1.069933	-0.383180	-0.216483
C32	C	1.117503	-0.692816	-0.187814
C33	C	1.117594	-0.880489	-0.187831
O34	O	1.157934	-0.904748	-0.163439
N35	N	1.070209	-0.903965	-0.216533
C36	C	1.022802	-0.880520	-0.245235
O37	O	0.982506	-0.904793	-0.269652
C38	C	1.022715	-0.692848	-0.245220
C39	C	1.070097	-0.669374	-0.216513
C40	C	1.164882	-0.669343	-0.159109
C41	C	1.164856	-0.622428	-0.159103
C42	C	1.117450	-0.598985	-0.187802
C43	C	1.070071	-0.622459	-0.216507
C44	C	0.975312	-0.669403	-0.273924
C45	C	0.975295	-0.622482	-0.273918
C46	C	1.022678	-0.599009	-0.245211
C47	C	1.022639	-0.552101	-0.245200
N48	N	1.070024	-0.528626	-0.216498
C49	C	1.117430	-0.552068	-0.187799
C50	C	1.022850	-0.979050	-0.245241
C51	C	1.022871	-1.025968	-0.245244
C52	C	1.117664	-1.025935	-0.187841
C53	C	1.117639	-0.979016	-0.187835
C54	C	1.070235	-0.955575	-0.216539
C55	C	1.117371	-0.453542	-0.187789
C56	C	1.117338	-0.406622	-0.187784
C57	C	1.022548	-0.406660	-0.245189
C58	C	1.022577	-0.453575	-0.245192
C59	C	1.069995	-0.477015	-0.216490
O60	O	0.982327	-0.527813	-0.269583
O61	O	1.157731	-0.527786	-0.163393
C62	C	1.117529	-0.739732	-0.187820
C63	C	1.070150	-0.763205	-0.216524
C64	C	1.022744	-0.739763	-0.245223
C65	C	1.070170	-0.810123	-0.216528
C66	C	1.117576	-0.833565	-0.187829
C67	C	1.164960	-0.810089	-0.159127
C68	C	1.164934	-0.763174	-0.159121
C69	C	0.975359	-0.763239	-0.273925
C70	C	0.975389	-0.810154	-0.273928
C71	C	1.022794	-0.833596	-0.245230
C72	C	1.263218	-0.216542	-0.216523
C73	C	1.345532	-0.216550	-0.216534
C74	C	1.070076	-0.216519	-0.333678
C75	C	1.070084	-0.216517	-0.383612
C76	C	1.070210	-0.099345	-0.216532
C77	C	1.070276	-0.049410	-0.216546
C78	C	1.117538	-0.187713	-0.693273
C79	C	1.117574	-0.187675	-0.880946
O80	O	1.157866	-0.163227	-0.905225
N81	N	1.070183	-0.216397	-0.904398
C82	C	1.022775	-0.245129	-0.880929
O83	O	0.982460	-0.269555	-0.905182
C84	C	1.022735	-0.245165	-0.693256
C85	C	1.070135	-0.216444	-0.669807
C86	C	1.164934	-0.158994	-0.669823
C87	C	1.164927	-0.159006	-0.622908
C88	C	1.117524	-0.187736	-0.599442
C89	C	1.070128	-0.216455	-0.622891
C90	C	0.975324	-0.273894	-0.669788
C91	C	0.975317	-0.273899	-0.622867
C92	C	1.022717	-0.245178	-0.599417
C93	C	1.022719	-0.245197	-0.552510
N94	N	1.070111	-0.216475	-0.529058
C95	C	1.117513	-0.187745	-0.552524
C96	C	1.022800	-0.245109	-0.979459
C97	C	1.022811	-0.245100	-1.026377
C98	C	1.117610	-0.187646	-1.026391
C99	C	1.117602	-0.187657	-0.979472
C100	C	1.070192	-0.216386	-0.956007
C101	C	1.117496	-0.187771	-0.453998
C102	C	1.117487	-0.187787	-0.407078
C103	C	1.022686	-0.245240	-0.407068
C104	C	1.022697	-0.245226	-0.453984
C105	C	1.070105	-0.216488	-0.477448
O106	O	0.982443	-0.269629	-0.528202
O107	O	1.157810	-0.163315	-0.528262
C108	C	1.117545	-0.187702	-0.740188
C109	C	1.070149	-0.216420	-0.763638
C110	C	1.022746	-0.245151	-0.740172
C111	C	1.070159	-0.216412	-0.810556
C112	C	1.117562	-0.187682	-0.834021
C113	C	1.164954	-0.158959	-0.810570
C114	C	1.164947	-0.158971	-0.763654
C115	C	0.975354	-0.273873	-0.763624
C116	C	0.975365	-0.273860	-0.810539
C117	C	1.022768	-0.245129	-0.834005
C118	C	1.070078	-0.216495	-0.099777
C119	C	1.070213	-0.216370	-0.049843
H120	H	0.633853	-0.168641	-0.273571
Br121	Br	0.958254	-0.485433	-0.284141
H122	H	0.984193	-0.268507	-0.960358
H123	H	0.984094	-0.268633	-0.387954
Br124	Br	0.958373	-0.284208	-0.485809
Br125	Br	1.229289	-0.119971	-0.842426
Br126	Br	1.181823	-0.148808	-0.375257
H127	H	0.506036	-0.189499	-0.146937
Br128	Br	1.229175	-0.590578	-0.120148
Br129	Br	0.910995	-0.312877	-0.701600
Br130	Br	0.910968	-0.312890	-0.591024
Br131	Br	0.958552	-1.057819	-0.284199
Br132	Br	0.958493	-0.284089	-1.058195
Br133	Br	1.229255	-0.120023	-0.591091
H134	H	1.156097	-0.164369	-0.473097
H135	H	1.155984	-0.472621	-0.164418
Br136	Br	0.647304	-0.194975	-0.123087
H137	H	0.936757	-0.744156	-0.297296
H138	H	0.507019	-0.146446	-0.189995
Br139	Br	0.494068	-0.246875	-0.306970
H140	H	1.156207	-0.164252	-1.045505
Br141	Br	1.229244	-0.731325	-0.120160
H142	H	1.203545	-0.135583	-0.744566
H143	H	1.203558	-0.829184	-0.135758
Br144	Br	0.494495	-0.280638	-0.145367
H145	H	0.507113	-0.290526	-0.227378
Br146	Br	1.181945	-0.947164	-0.148874
Br147	Br	0.649150	-0.242737	-0.309010
H148	H	1.155922	-0.387512	-0.164406
H149	H	1.203489	-0.688425	-0.135739
H150	H	1.156264	-1.045029	-0.164473
H151	H	0.984246	-0.959967	-0.268615
H152	H	0.936724	-0.688507	-0.297298
Br153	Br	0.910960	-0.590671	-0.312877
Br154	Br	0.911036	-0.312846	-0.842358
H155	H	0.983948	-0.387566	-0.268554
Br156	Br	0.649188	-0.281130	-0.146232
H157	H	0.936753	-0.297270	-0.744522
H158	H	1.203535	-0.135596	-0.688924
Br159	Br	0.648287	-0.123250	-0.195344
H160	H	0.936798	-0.829262	-0.297305
H161	H	0.633845	-0.290536	-0.227927
Br162	Br	0.491911	-0.148005	-0.283681
H163	H	1.156199	-0.164269	-0.960383
