data_functionalizedCrystal
_audit_creation_method	'MofGen! by Chris Wilmer'
_symmetry_space_group_name_H-M	'P1'
_symmetry_Int_Tables_number	1
_symmetry_cell_setting	triclinic
loop_
_symmetry_equiv_pos_as_xyz
  x,y,z
_cell_length_a	14.044190
_cell_length_b	10.654541
_cell_length_c	9.730217
_cell_angle_alpha	89.997631
_cell_angle_beta	90.009955
_cell_angle_gamma	91.162147
loop_
_atom_site_label
_atom_site_type_symbol
_atom_site_fract_x
_atom_site_fract_y
_atom_site_fract_z
O1	O	0.133222	-1.681234	0.114265
O2	O	0.145917	-1.317031	0.114278
O3	O	0.001549	-1.493662	0.114245
O4	O	0.277590	-1.504604	0.114298
O5	O	0.001543	-1.493647	-0.114335
O6	O	0.145912	-1.317017	-0.114302
O7	O	0.133216	-1.681220	-0.114315
Zn8	Zn	0.139563	-1.499116	-0.150600
Zn9	Zn	0.139570	-1.499135	0.150564
O10	O	0.277584	-1.504590	-0.114282
C11	C	-0.033800	-1.488867	-0.000049
C12	C	-0.139120	-1.474588	-0.000061
C13	C	0.144983	-1.270133	-0.000010
C14	C	0.142195	-1.130409	-0.000006
C15	C	0.134150	-1.728119	-0.000024
C16	C	0.136938	-1.867843	-0.000019
C17	C	-0.388913	-1.549754	-0.000010
C18	C	-0.331949	-1.448503	-0.000015
C19	C	-0.224649	-1.463021	-0.000041
C20	C	-0.496222	-1.535239	0.000016
C21	C	0.312933	-1.509384	0.000015
C22	C	0.418253	-1.523663	0.000036
N23	N	0.139557	-1.499113	-0.356137
C24	C	0.314827	-1.119792	0.000044
C25	C	0.399829	-1.048842	0.000075
C26	C	0.397205	-0.917560	0.000076
C27	C	0.309568	-0.857225	0.000042
C28	C	0.224565	-0.928175	0.000011
C29	C	0.227200	-1.059459	0.000015
C30	C	0.051935	-0.938792	-0.000049
C31	C	0.054558	-1.070074	-0.000040
C32	C	-0.035701	-0.878457	-0.000083
C33	C	-0.120706	-0.949407	-0.000104
C34	C	-0.118077	-1.080697	-0.000103
C35	C	-0.030444	-1.141024	-0.000071
C36	C	0.023413	-1.333793	-0.356211
C37	C	-0.034661	-1.251146	-0.428188
C38	C	-0.034661	-1.251165	-0.572067
C39	C	0.023421	-1.333836	-0.643974
C40	C	0.081495	-1.416483	-0.571997
C41	C	0.081487	-1.416458	-0.428114
C42	C	0.197643	-1.581795	-0.571923
C43	C	0.197639	-1.581784	-0.428043
C44	C	0.255725	-1.664466	-0.643829
C45	C	0.313795	-1.747121	-0.571853
C46	C	0.313792	-1.747100	-0.427964
C47	C	0.255713	-1.664431	-0.356067
N48	N	0.139569	-1.499148	0.356100
H49	H	-0.357098	-1.647332	-0.000027
H50	H	-0.363765	-1.350917	-0.000004
O51	O	-0.097311	-1.162048	-0.649713
H52	H	-0.137709	-1.104569	-0.575548
O53	O	0.255742	-1.664263	-0.200882
H54	H	0.328603	-1.641388	-0.163017
O55	O	0.494351	-1.113912	0.000107
H56	H	0.499681	-1.173466	0.093279
O57	O	-0.215221	-0.884338	-0.000153
H58	H	-0.220556	-0.824780	0.093008
H59	H	0.466421	-0.859793	0.000091
H60	H	0.316973	-1.226688	0.000074
H61	H	0.361088	-1.814395	-0.369369
H62	H	0.307438	-0.750328	0.000026
H63	H	-0.037833	-0.771560	-0.000090
H64	H	-0.187297	-1.138457	-0.000134
O65	O	-0.027612	-1.282621	-0.000081
H66	H	0.047605	-1.312650	-0.000066
H67	H	0.361086	-1.814419	-0.630410
O68	O	0.023412	-1.333779	-0.201026
H69	H	-0.026726	-1.262407	-0.163118
H70	H	-0.081949	-1.183835	-0.369626
H71	H	0.023424	-1.333833	-0.761128
H72	H	0.255725	-1.664470	-0.760984
