data_functionalizedCrystal
_audit_creation_method	'MofGen! by Chris Wilmer'
_symmetry_space_group_name_H-M	'P1'
_symmetry_Int_Tables_number	1
_symmetry_cell_setting	triclinic
loop_
_symmetry_equiv_pos_as_xyz
  x,y,z
_cell_length_a	6.817900
_cell_length_b	12.840946
_cell_length_c	11.102294
_cell_angle_alpha	82.596675
_cell_angle_beta	70.616071
_cell_angle_gamma	88.344365
loop_
_atom_site_label
_atom_site_type_symbol
_atom_site_fract_x
_atom_site_fract_y
_atom_site_fract_z
V1	V	-3.926388	0.283508	0.178853
O2	O	-3.887456	0.320307	-0.005495
O3	O	-3.905863	0.240988	0.351653
O4	O	-3.821769	0.425671	0.177462
O5	O	-3.972132	0.134345	0.169903
V6	V	-4.413689	0.270597	0.156642
O7	O	-4.179360	0.311830	0.227574
O8	O	-4.610914	0.242275	0.107921
O9	O	-4.211007	0.313118	-0.016159
O10	O	-4.570017	0.233799	0.340989
O11	O	-4.485341	0.419760	0.165592
O12	O	-4.295101	0.128435	0.158033
C13	C	-3.759464	0.226044	0.393735
C14	C	-3.823594	0.192226	0.535011
C15	C	-4.034809	0.180033	0.607884
C16	C	-4.095095	0.148273	0.740631
C17	C	-3.944164	0.128698	0.800501
C18	C	-3.732931	0.140895	0.727619
C19	C	-3.672648	0.172662	0.594876
C20	C	-3.652205	0.461625	0.171531
C21	C	-3.648058	0.579757	0.171535
C22	C	-4.111043	-0.025660	0.164012
C23	C	-4.128039	0.092475	0.163984
V24	V	-3.909365	0.769667	0.178889
O25	O	-3.944507	0.922958	0.169955
O26	O	-3.814877	0.622811	0.177483
O27	O	-3.887303	0.770775	0.351690
O28	O	-3.871579	0.773969	-0.005459
V29	V	-4.394723	0.812290	0.156689
O30	O	-4.164272	0.742779	0.227611
O31	O	-4.589222	0.861862	0.107975
O32	O	-4.266397	0.947900	0.158092
O33	O	-4.476772	0.664915	0.165626
O34	O	-4.549699	0.813903	0.341039
O35	O	-4.193971	0.799935	-0.016116
C36	C	-4.020750	0.328057	-0.058235
C37	C	-3.935856	0.361882	-0.199509
C38	C	-3.740454	0.768498	0.393764
C39	C	-3.803250	0.772545	0.535039
C40	C	-4.004752	0.785247	-0.058203
C41	C	-3.921230	0.780163	-0.199481
C42	C	-4.013821	0.778370	0.607935
C43	C	-4.072812	0.782183	0.740676
C44	C	-3.710641	0.774341	0.727613
C45	C	-3.651652	0.770536	0.594873
C46	C	-4.222919	0.782893	0.615480
C47	C	-4.281909	0.786706	0.748220
C48	C	-4.069628	0.374077	-0.272381
C49	C	-3.989883	0.405842	-0.405127
C50	C	-3.776368	0.425419	-0.464997
C51	C	-3.642587	0.413219	-0.392116
C52	C	-3.722330	0.381447	-0.259373
H53	H	-3.993278	0.102832	0.908590
H54	H	-3.587224	0.772707	0.776345
Cl55	Cl	-4.360649	0.132940	0.832226
Cl56	Cl	-4.444837	0.678287	0.830885
H57	H	-4.098845	0.415772	-0.464449
Cl58	Cl	-3.543213	0.116276	0.802903
H59	H	-3.711463	0.451289	-0.573086
Cl60	Cl	-3.554127	0.366125	-0.167777
H61	H	-3.500656	0.182581	0.535551
H62	H	-3.480189	0.765804	0.535523
Cl63	Cl	-4.307875	0.896678	0.541763
Cl64	Cl	-4.309553	0.666964	0.578794
H65	H	-3.468735	0.429163	-0.440883
Cl66	Cl	-4.395555	0.906989	0.792121
H67	H	-4.157733	0.195961	0.559154
Cl68	Cl	-4.338057	0.349470	-0.197145
