data_functionalizedCrystal
_audit_creation_method	'MofGen! by Chris Wilmer'
_symmetry_space_group_name_H-M	'P1'
_symmetry_Int_Tables_number	1
_symmetry_cell_setting	triclinic
loop_
_symmetry_equiv_pos_as_xyz
  x,y,z
_cell_length_a	19.288864
_cell_length_b	11.804365
_cell_length_c	19.288865
_cell_angle_alpha	78.216139
_cell_angle_beta	83.136245
_cell_angle_gamma	101.819883
loop_
_atom_site_label
_atom_site_type_symbol
_atom_site_fract_x
_atom_site_fract_y
_atom_site_fract_z
O1	O	0.935481	0.099426	0.072522
O2	O	1.435481	0.599426	0.572522
O3	O	0.733209	0.099346	0.084223
O4	O	1.233209	0.599346	0.584223
O5	O	0.840187	0.099365	-0.022755
O6	O	1.340187	0.599365	0.477245
O7	O	0.828504	0.099407	0.179500
O8	O	1.328504	0.599407	0.679500
O9	O	0.812024	-0.098696	0.005380
O10	O	1.312024	0.401304	0.505380
O11	O	0.705046	-0.098715	0.112357
O12	O	1.205046	0.401285	0.612357
O13	O	0.907318	-0.098635	0.100657
O14	O	1.407318	0.401365	0.600657
Cu15	Cu	0.803611	-0.116759	0.109076
Cu16	Cu	1.303611	0.383241	0.609076
Cu17	Cu	0.836917	0.117470	0.075804
Cu18	Cu	1.336917	0.617470	0.575804
O19	O	0.800341	-0.098654	0.207635
O20	O	1.300341	0.401346	0.707635
C21	C	0.693250	0.000305	0.097915
C22	C	1.193250	0.500305	0.597915
C23	C	0.616142	0.000274	0.096791
C24	C	1.116142	0.500274	0.596791
N25	N	0.780190	-0.281504	0.132478
N26	N	1.280190	0.218496	0.632478
C27	C	0.571450	0.000306	0.159554
C28	C	1.071450	0.500306	0.659554
C29	C	0.499005	0.000319	0.158492
C30	C	0.999005	0.500319	0.658492
C31	C	0.471258	0.000324	0.094659
C32	C	0.971258	0.500324	0.594659
C33	C	0.515959	0.000285	0.031888
C34	C	1.015959	0.500285	0.531888
C35	C	0.588401	0.000260	0.032954
C36	C	1.088401	0.500260	0.532954
C37	C	0.372867	0.069743	0.034619
C38	C	0.872867	0.569743	0.534619
C39	C	0.300427	0.069775	0.033554
C40	C	0.800427	0.569775	0.533554
C41	C	0.247823	0.000395	0.091369
C42	C	0.747823	0.500395	0.591369
C43	C	0.267668	-0.069002	0.150258
C44	C	0.767668	0.430998	0.650258
C45	C	0.340110	-0.069027	0.151324
C46	C	0.840110	0.430973	0.651324
C47	C	0.392708	0.000350	0.093496
C48	C	0.892708	0.500350	0.593496
C49	C	0.124577	0.000439	0.152985
C50	C	0.624577	0.500439	0.652985
C51	C	0.052129	0.000445	0.151921
C52	C	0.552129	0.500445	0.651921
C53	C	0.069087	0.000423	0.025314
C54	C	0.569087	0.500423	0.525314
C55	C	0.141530	0.000405	0.026381
C56	C	0.641530	0.500405	0.526381
C57	C	0.169272	0.000419	0.090218
C58	C	0.669272	0.500419	0.590218
C59	C	0.916584	-0.655429	-0.003813
C60	C	1.416584	-0.155429	0.496187
C61	C	0.934301	-0.530764	-0.021519
C62	C	1.434301	-0.030764	0.478481
C63	C	0.895775	-0.468443	0.016978
C64	C	1.395775	0.031557	0.516978
C65	C	0.839529	-0.530799	0.073186
C66	C	1.339529	-0.030799	0.573186
C67	C	0.821814	-0.655476	0.090897
C68	C	1.321814	-0.155476	0.590897
C69	C	0.801004	-0.468490	0.111689
C70	C	1.301004	0.031510	0.611689
C71	C	0.744759	-0.530846	0.167896
C72	C	1.244759	-0.030846	0.667896
C73	C	0.727046	-0.655510	0.185604
C74	C	1.227046	-0.155510	0.685604
C75	C	0.765573	-0.717832	0.147107
C76	C	1.265573	-0.217832	0.647107
C77	C	0.818719	-0.343813	0.093977
C78	C	1.318719	0.156187	0.593977
C79	C	0.723949	-0.343860	0.188687
C80	C	1.223949	0.156140	0.688687
C81	C	0.706232	-0.468525	0.206394
C82	C	1.206232	0.031475	0.706394
C83	C	0.947278	0.000409	0.086964
C84	C	1.447278	0.500409	0.586964
C85	C	1.024387	0.000448	0.088088
C86	C	1.524387	0.500448	0.588088
C87	C	0.825729	0.000331	-0.034563
C88	C	1.325729	0.500331	0.465437
C89	C	0.824598	0.000320	-0.111665
C90	C	1.324598	0.500320	0.388335
N91	N	0.860343	0.282215	0.052396
N92	N	1.360343	0.782215	0.552396
C93	C	0.887369	0.000339	-0.156364
C94	C	1.387369	0.500339	0.343636
C95	C	0.886311	0.000357	-0.228814
C96	C	1.386311	0.500357	0.271186
C97	C	0.822475	0.000333	-0.256558
C98	C	1.322475	0.500333	0.243442
C99	C	0.759697	0.000320	-0.211850
C100	C	1.259697	0.500320	0.288150
C101	C	0.760759	0.000314	-0.139404
C102	C	1.260759	0.500314	0.360596
C103	C	0.762428	-0.069064	-0.354988
C104	C	1.262428	0.430936	0.145012
C105	C	0.761368	-0.069064	-0.427432
C106	C	1.261368	0.430936	0.072568
C107	C	0.819199	0.000358	-0.480007
C108	C	1.319199	0.500358	0.019993
C109	C	0.878100	0.069766	-0.460129
C110	C	1.378100	0.569766	0.039871
C111	C	0.879161	0.069759	-0.387682
C112	C	1.379161	0.569759	0.112318
C113	C	0.821317	0.000340	-0.335113
C114	C	1.321317	0.500340	0.164887
C115	C	0.880827	0.000399	-0.603265
C116	C	1.380827	0.500399	-0.103265
C117	C	0.879767	0.000424	-0.675717
C118	C	1.379767	0.500424	-0.175717
C119	C	0.753150	0.000376	-0.658750
C120	C	1.253150	0.500376	-0.158750
C121	C	0.754213	0.000362	-0.586302
C122	C	1.254213	0.500362	-0.086302
C123	C	0.818053	0.000368	-0.558563
C124	C	1.318053	0.500368	-0.058563
C125	C	0.814800	0.000383	0.219443
C126	C	1.314800	0.500383	0.719443
C127	C	0.815931	0.000402	0.296544
C128	C	1.315931	0.500402	0.796544
H129	H	0.594032	0.000319	0.211535
H130	H	1.094032	0.500319	0.711535
H131	H	0.046506	0.000501	-0.026671
H132	H	0.546506	0.500501	0.473329
H133	H	0.692579	-0.293119	0.220037
H134	H	1.192579	0.206881	0.720037
Br135	Br	0.650723	-0.740140	0.261895
Br136	Br	1.150723	-0.240140	0.761895
H137	H	0.910202	-0.366935	0.002559
H138	H	1.410202	0.133065	0.502559
Br139	Br	1.010632	-0.446140	-0.097794
Br140	Br	1.510632	0.053860	0.402206
Br141	Br	0.478303	0.000279	-0.054741
Br142	Br	0.978303	0.500279	0.445259
Br143	Br	0.675564	0.000292	-0.078737
Br144	Br	1.175564	0.500292	0.421263
H145	H	0.947951	-0.706179	-0.035149
H146	H	1.447951	-0.206179	0.464851
Br147	Br	0.683935	-0.163289	-0.283641
Br148	Br	1.183935	0.336711	0.216359
H149	H	0.224837	-0.125498	0.197336
H150	H	0.724837	0.374502	0.697336
Br151	Br	0.895051	-0.259203	0.017699
Br152	Br	1.395051	0.240797	0.517699
Br153	Br	0.971506	0.000388	-0.289490
Br154	Br	1.471506	0.500388	0.210510
Br155	Br	0.162229	0.000449	0.239619
Br156	Br	0.662229	0.500449	0.739619
Br157	Br	0.741522	-0.887027	0.171134
Br158	Br	1.241522	-0.387027	0.671134
Br159	Br	0.964966	0.000463	-0.736385
Br160	Br	1.464966	0.500463	-0.236385
H161	H	0.462609	0.000341	0.209603
H162	H	0.962609	0.500341	0.709603
H163	H	0.177921	0.000386	-0.024728
H164	H	0.677921	0.500386	0.475272
Br165	Br	0.273503	0.163971	-0.046359
Br166	Br	0.773503	0.663971	0.453641
H167	H	0.660436	-0.519310	0.252159
H168	H	1.160436	-0.019310	0.752159
H169	H	0.939352	0.000347	-0.133785
H170	H	1.439352	0.500347	0.366215
Br171	Br	0.959091	0.163956	-0.360705
Br172	Br	1.459091	0.663956	0.139295
Br173	Br	0.444253	0.163906	-0.043853
Br174	Br	0.944253	0.663906	0.456147
H175	H	0.624790	0.000235	-0.018157
H176	H	1.124790	0.500235	0.481843
Br177	Br	0.956591	0.163988	-0.531473
Br178	Br	1.456591	0.663988	-0.031473
Br179	Br	0.681436	-0.163267	-0.454403
Br180	Br	1.181436	0.336733	0.045597
H181	H	0.707722	0.000303	-0.234444
H182	H	1.207722	0.500303	0.265556
Br183	Br	0.967462	0.000394	-0.565614
Br184	Br	1.467462	0.500394	-0.065614
Br185	Br	0.669020	0.000335	-0.525634
Br186	Br	1.169020	0.500335	-0.025634
Br187	Br	0.367042	-0.163206	0.231239
Br188	Br	0.867042	0.336794	0.731239
H189	H	0.015740	0.000464	0.203033
H190	H	0.515740	0.500464	0.703033
Br191	Br	0.666516	0.000355	-0.696396
Br192	Br	1.166516	0.500355	-0.196396
