data_functionalizedCrystal
_audit_creation_method	'MofGen! by Chris Wilmer'
_symmetry_space_group_name_H-M	'P1'
_symmetry_Int_Tables_number	1
_symmetry_cell_setting	triclinic
loop_
_symmetry_equiv_pos_as_xyz
  x,y,z
_cell_length_a	16.959455
_cell_length_b	19.121063
_cell_length_c	16.959447
_cell_angle_alpha	87.593376
_cell_angle_beta	90.014322
_cell_angle_gamma	92.465894
loop_
_atom_site_label
_atom_site_type_symbol
_atom_site_fract_x
_atom_site_fract_y
_atom_site_fract_z
Zn1	Zn	1.194915	-0.279656	0.460312
Zn2	Zn	1.528248	0.053677	0.793645
Zn3	Zn	1.861582	0.387010	1.126978
Zn4	Zn	1.189180	-0.397117	0.333763
Zn5	Zn	1.522514	-0.063784	0.667096
Zn6	Zn	1.855847	0.269550	1.000429
Zn7	Zn	1.062742	-0.279678	0.328150
Zn8	Zn	1.396076	0.053655	0.661484
Zn9	Zn	1.729409	0.386988	0.994817
Zn10	Zn	1.057053	-0.397064	0.465899
Zn11	Zn	1.390387	-0.063731	0.799232
Zn12	Zn	1.723720	0.269602	1.132565
O13	O	1.125973	-0.338379	0.397031
O14	O	1.459306	-0.005046	0.730364
O15	O	1.792639	0.328288	1.063698
O16	O	1.304764	-0.295250	0.443535
O17	O	1.638098	0.038083	0.776869
O18	O	1.971431	0.371416	1.110202
O19	O	1.172389	-0.381570	0.222409
O20	O	1.505722	-0.048236	0.555742
O21	O	1.839056	0.285097	0.889075
O22	O	1.085056	-0.181391	0.340995
O23	O	1.418389	0.151942	0.674328
O24	O	1.751723	0.485276	1.007661
O25	O	1.300551	-0.381548	0.350560
O26	O	1.633885	-0.048215	0.683894
O27	O	1.967218	0.285118	1.017227
O28	O	1.182163	-0.181375	0.438093
O29	O	1.515496	0.151958	0.771427
O30	O	1.848829	0.485292	1.104760
O31	O	1.079495	-0.295288	0.218285
O32	O	1.412829	0.038045	0.551619
O33	O	1.746162	0.371379	0.884952
O34	O	0.951377	-0.295237	0.346412
O35	O	1.284711	0.038096	0.679746
O36	O	1.618044	0.371430	1.013079
O37	O	1.075360	-0.381459	0.575767
O38	O	1.408694	-0.048125	0.909100
O39	O	1.742027	0.285208	1.242434
O40	O	0.947198	-0.381480	0.447615
O41	O	1.280531	-0.048147	0.780949
O42	O	1.613864	0.285187	1.114282
O43	O	1.176646	-0.295199	0.571662
O44	O	1.509980	0.038134	0.904996
O45	O	1.843313	0.371467	1.238329
O46	O	1.166873	-0.495394	0.355978
O47	O	1.500206	-0.162061	0.689311
O48	O	1.833539	0.171273	1.022644
O49	O	1.069800	-0.495356	0.453058
O50	O	1.403133	-0.162022	0.786391
O51	O	1.736466	0.171311	1.119724
C52	C	0.920608	-0.338356	0.397012
C53	C	1.253941	-0.005022	0.730345
C54	C	1.587274	0.328311	1.063678
C55	C	0.832751	-0.338363	0.397023
C56	C	1.166084	-0.005029	0.730356
C57	C	1.499417	0.328304	1.063690
C58	C	0.463428	-0.293435	0.344438
C59	C	0.796761	0.039898	0.677771
C60	C	1.130095	0.373231	1.011105
C61	C	0.459118	-0.383380	0.449672
C62	C	0.792451	-0.050047	0.783005
C63	C	1.125784	0.283286	1.116338
C64	C	0.541664	-0.383370	0.449666
C65	C	0.874997	-0.050037	0.783000
C66	C	1.208331	0.283296	1.116333
C67	C	0.585096	-0.338393	0.397045
C68	C	0.918430	-0.005059	0.730379
C69	C	1.251763	0.328274	1.063712
C70	C	0.545982	-0.293425	0.344430
C71	C	0.879315	0.039908	0.677763
C72	C	1.212649	0.373241	1.011096
C73	C	0.580784	-0.428342	0.502276
C74	C	0.914118	-0.095008	0.835609
C75	C	1.247451	0.238325	1.168942
C76	C	0.663336	-0.428334	0.502272
C77	C	0.996669	-0.095001	0.835605
C78	C	1.330002	0.238333	1.168938
C79	C	0.706770	-0.383353	0.449654
C80	C	1.040103	-0.050019	0.782987
C81	C	1.373436	0.283314	1.116321
C82	C	0.667650	-0.338383	0.397037
C83	C	1.000984	-0.005049	0.730370
C84	C	1.334317	0.328284	1.063703
C85	C	0.711082	-0.293405	0.344416
C86	C	1.044416	0.039928	0.677749
C87	C	1.377749	0.373261	1.011082
C88	C	0.671965	-0.248431	0.291802
C89	C	1.005298	0.084902	0.625135
C90	C	1.338631	0.418235	0.958468
C91	C	0.589416	-0.248444	0.291812
C92	C	0.922749	0.084890	0.625145
C93	C	1.256082	0.418223	0.958478
C94	C	0.789319	-0.383340	0.449644
C95	C	1.122652	-0.050007	0.782977
C96	C	1.455985	0.283326	1.116311
C97	C	0.793636	-0.293395	0.344407
C98	C	1.126970	0.039938	0.677741
C99	C	1.460303	0.373271	1.011074
C100	C	1.117118	-0.520859	0.405750
C101	C	1.450451	-0.187525	0.739084
C102	C	1.783785	0.145808	1.072417
C103	C	1.113402	-0.598924	0.409507
C104	C	1.446735	-0.265591	0.742840
C105	C	1.780069	0.067742	1.076174
C106	C	1.162236	-0.635597	0.360769
C107	C	1.495570	-0.302263	0.694103
C108	C	1.828903	0.031070	1.027436
C109	C	1.158746	-0.708948	0.364307
C110	C	1.492080	-0.375614	0.697640
C111	C	1.825413	-0.042281	1.030974
C112	C	1.106417	-0.745625	0.416579
C113	C	1.439751	-0.412292	0.749912
C114	C	1.773084	-0.078958	1.083246
C115	C	1.057581	-0.708948	0.465322
C116	C	1.390914	-0.375614	0.798655
C117	C	1.724248	-0.042281	1.131988
C118	C	1.061076	-0.635598	0.461787
C119	C	1.394409	-0.302265	0.795121
C120	C	1.727742	0.031069	1.128454
C121	C	1.093339	-0.967094	0.429780
C122	C	1.426673	-0.633760	0.763114
C123	C	1.760006	-0.300427	1.096447
C124	C	1.089847	-1.040449	0.433309
C125	C	1.423180	-0.707115	0.766643
C126	C	1.756513	-0.373782	1.099976
C127	C	1.191013	-1.040443	0.332295
C128	C	1.524347	-0.707110	0.665629
C129	C	1.857680	-0.373777	0.998962
C130	C	1.194500	-0.967092	0.328762
C131	C	1.527833	-0.633759	0.662096
C132	C	1.861167	-0.300426	0.995429
C133	C	1.145667	-0.930421	0.377508
C134	C	1.479000	-0.597088	0.710841
C135	C	1.812333	-0.263755	1.044175
C136	C	1.102847	-0.820602	0.420195
C137	C	1.436180	-0.487268	0.753528
C138	C	1.769514	-0.153935	1.086861
C139	C	1.149242	-0.855446	0.373896
C140	C	1.482575	-0.522113	0.707229
C141	C	1.815908	-0.188780	1.040563
C142	C	1.332140	-0.338403	0.397051
C143	C	1.665473	-0.005069	0.730384
C144	C	1.998806	0.328264	1.063717
C145	C	1.419996	-0.338413	0.397059
C146	C	1.753329	-0.005079	0.730392
C147	C	2.086663	0.328254	1.063726
C148	C	1.126008	-0.338321	0.603196
C149	C	1.459342	-0.004987	0.936530
C150	C	1.792675	0.328346	1.269863
C151	C	1.126024	-0.338296	0.691052
C152	C	1.459357	-0.004963	1.024385
C153	C	1.792690	0.328371	1.357719
C154	C	1.134884	-0.155186	0.388295
C155	C	1.468217	0.178147	0.721628
C156	C	1.801550	0.511480	1.054961
C157	C	1.138681	-0.077121	0.384572
C158	C	1.472014	0.256213	0.717905
C159	C	1.805348	0.589546	1.051239
C160	C	1.125985	-0.338386	0.191665
C161	C	1.459318	-0.005053	0.524998
C162	C	1.792652	0.328281	0.858332
C163	C	1.126133	-0.338213	0.103800
C164	C	1.459466	-0.004880	0.437134
C165	C	1.792799	0.328454	0.770467
C166	C	1.073386	-0.383133	1.064664
C167	C	1.406720	-0.049800	1.397997
C168	C	1.740053	0.283534	1.731330
C169	C	1.178857	-0.293311	1.060384
C170	C	1.512190	0.040023	1.393718
C171	C	1.845523	0.373356	1.727051
C172	C	1.178835	-0.293326	0.977839
C173	C	1.512168	0.040008	1.311173
C174	C	1.845502	0.373341	1.644506
C175	C	1.126089	-0.338246	0.938703
C176	C	1.459422	-0.004912	1.272036
C177	C	1.792756	0.328421	1.605369
C178	C	1.073365	-0.383151	0.982111
C179	C	1.406698	-0.049818	1.315444
C180	C	1.740031	0.283516	1.648778
C181	C	1.231564	-0.248426	0.934425
C182	C	1.564897	0.084907	1.267758
C183	C	1.898230	0.418240	1.601092
C184	C	1.231545	-0.248440	0.851875
C185	C	1.564878	0.084893	1.185208
C186	C	1.898211	0.418227	1.518541
C187	C	1.178794	-0.293357	0.812736
C188	C	1.512128	0.039976	1.146070
C189	C	1.845461	0.373310	1.479403
C190	C	1.126067	-0.338263	0.856150
C191	C	1.459401	-0.004930	1.189483
C192	C	1.792734	0.328403	1.522816
C193	C	1.073321	-0.383183	0.817013
C194	C	1.406654	-0.049850	1.150346
C195	C	1.739988	0.283483	1.483680
C196	C	1.020590	-0.428087	0.860425
C197	C	1.353923	-0.094754	1.193758
C198	C	1.687256	0.238580	1.527092
C199	C	1.020614	-0.428068	0.942973
C200	C	1.353947	-0.094735	1.276306
C201	C	1.687281	0.238599	1.609639
C202	C	1.178770	-0.293376	0.730189
C203	C	1.512103	0.039957	1.063522
C204	C	1.845436	0.373291	1.396855
C205	C	1.073299	-0.383201	0.734460
C206	C	1.406633	-0.049868	1.067794
C207	C	1.739966	0.283465	1.401127
H208	H	0.431575	-0.256817	0.301603
H209	H	0.764908	0.076517	0.634937
H210	H	1.098241	0.409850	0.968270
Br211	Br	0.949060	-0.489005	1.001893
Br212	Br	1.282393	-0.155672	1.335226
Br213	Br	1.615726	0.177661	1.668559
H214	H	0.707338	-0.211814	0.248954
H215	H	1.040671	0.121519	0.582288
H216	H	1.374004	0.454853	0.915621
H217	H	1.198512	-0.738803	0.324619
H218	H	1.531845	-0.405470	0.657953
H219	H	1.865179	-0.072136	0.991286
Br220	Br	0.949015	-0.489053	0.807301
Br221	Br	1.282348	-0.155720	1.140635
Br222	Br	1.615681	0.177613	1.473968
Br223	Br	1.303151	-0.187474	0.987542
Br224	Br	1.636484	0.145859	1.320875
Br225	Br	1.969818	0.479192	1.654209
H226	H	1.014977	-0.738816	0.507886
H227	H	1.348311	-0.405483	0.841219
H228	H	1.681644	-0.072150	1.174553
H229	H	0.423750	-0.420003	0.492509
H230	H	0.757084	-0.086670	0.825842
H231	H	1.090417	0.246664	1.159175
H232	H	0.821164	-0.419959	0.492479
H233	H	1.154498	-0.086626	0.825812
H234	H	1.487831	0.246707	1.159146
Br235	Br	0.536323	-0.187413	0.220415
Br236	Br	0.869657	0.145920	0.553748
Br237	Br	1.202990	0.479254	0.887081
H238	H	1.047244	-1.070309	0.475889
H239	H	1.380577	-0.736976	0.809223
H240	H	1.713910	-0.403643	1.142556
H241	H	0.545416	-0.464965	0.545111
H242	H	0.878749	-0.131632	0.878445
H243	H	1.212083	0.201702	1.211778
Br244	Br	0.716417	-0.489368	0.573675
Br245	Br	1.049750	-0.156034	0.907009
Br246	Br	1.383084	0.177299	1.240342
Br247	Br	1.220262	-0.805669	0.302963
Br248	Br	1.553595	-0.472336	0.636296
Br249	Br	1.886929	-0.139002	0.969629
H250	H	1.204845	-0.605739	0.318201
H251	H	1.538178	-0.272405	0.651534
H252	H	1.871511	0.060928	0.984867
Br253	Br	1.265531	-0.917321	0.257830
Br254	Br	1.598864	-0.583987	0.591163
Br255	Br	1.932197	-0.250654	0.924496
Br256	Br	1.257287	-1.090214	0.266148
Br257	Br	1.590621	-0.756881	0.599481
Br258	Br	1.923954	-0.423548	0.932815
H259	H	1.053576	-0.937242	0.469470
H260	H	1.386909	-0.603909	0.802803
H261	H	1.720242	-0.270575	1.136136
Br262	Br	0.994803	-0.585828	0.527939
Br263	Br	1.328136	-0.252494	0.861272
Br264	Br	1.661470	0.080839	1.194606
H265	H	1.030340	-0.419775	0.702601
H266	H	1.363673	-0.086441	1.035934
H267	H	1.697006	0.246892	1.369268
H268	H	1.060239	-0.850473	0.462753
H269	H	1.393572	-0.517139	0.796086
H270	H	1.726906	-0.183806	1.129419
H271	H	1.030452	-0.419690	1.100013
H272	H	1.363785	-0.086357	1.433347
H273	H	1.697118	0.246976	1.766680
Br274	Br	1.250445	-0.232358	1.113499
Br275	Br	1.583778	0.100975	1.446832
Br276	Br	1.917112	0.434309	1.780166
Br277	Br	1.250334	-0.232448	0.671276
Br278	Br	1.583668	0.100886	1.004609
Br279	Br	1.917001	0.434219	1.337943
Br280	Br	0.852574	-0.232345	0.272995
Br281	Br	1.185907	0.100988	0.606329
Br282	Br	1.519241	0.434322	0.939662
Br283	Br	1.303105	-0.187500	0.792965
Br284	Br	1.636439	0.145833	1.126299
Br285	Br	1.969772	0.479167	1.459632
