data_functionalizedCrystal
_audit_creation_method	'MofGen! by Chris Wilmer'
_symmetry_space_group_name_H-M	'P1'
_symmetry_Int_Tables_number	1
_symmetry_cell_setting	triclinic
loop_
_symmetry_equiv_pos_as_xyz
  x,y,z
_cell_length_a	10.654554
_cell_length_b	10.489716
_cell_length_c	9.130313
_cell_angle_alpha	90.002761
_cell_angle_beta	89.999615
_cell_angle_gamma	84.507940
loop_
_atom_site_label
_atom_site_type_symbol
_atom_site_fract_x
_atom_site_fract_y
_atom_site_fract_z
O1	O	1.667899	0.179186	-0.121790
O2	O	1.302428	0.196249	-0.121791
O3	O	1.493496	0.002114	-0.121796
O4	O	1.476831	0.373321	-0.121785
O5	O	1.493493	0.002119	0.121803
O6	O	1.302426	0.196254	0.121808
O7	O	1.667897	0.179191	0.121809
Cu8	Cu	1.485161	0.187723	0.144051
Cu9	Cu	1.485164	0.187717	-0.144033
O10	O	1.476829	0.373326	0.121814
C11	C	1.255628	0.194998	0.000009
C12	C	1.116184	0.191246	0.000008
C13	C	0.905718	0.302028	0.000008
C14	C	1.036741	0.305555	0.000008
C15	C	1.064599	0.073402	-0.000007
C16	C	0.933578	0.069877	-0.000017
C17	C	0.889635	0.436060	0.000022
C18	C	1.020658	0.439586	0.000022
C19	C	1.492242	-0.045415	-0.000001
C20	C	1.488496	-0.187045	-0.000014
C21	C	1.605665	-0.284773	-0.000001
C22	C	1.543752	-0.362108	-0.120104
C23	C	1.543722	-0.362066	0.120066
C24	C	1.426632	-0.262514	-0.120216
C25	C	1.426620	-0.262467	0.120061
C26	C	1.364620	-0.339752	-0.000072
C27	C	1.714696	0.180442	0.000006
C28	C	1.854141	0.184194	-0.000003
C29	C	1.478082	0.420855	0.000015
C30	C	1.481828	0.562484	0.000019
N31	N	1.485168	0.187727	0.346674
N32	N	1.485166	0.187703	-0.346656
C33	C	1.569795	0.101793	0.423323
C34	C	1.569791	0.101778	0.576660
C35	C	1.400531	0.273641	0.576684
C36	C	1.400529	0.273649	0.423350
C37	C	1.667520	0.002573	0.423311
C38	C	1.667517	0.002557	0.576648
H39	H	0.843999	0.476557	0.105200
H40	H	1.707582	-0.260144	-0.000122
C41	C	1.307530	0.368281	0.339041
N42	N	1.237518	0.439601	0.275539
C43	C	1.307431	0.368149	0.661042
N44	N	1.237305	0.439334	0.724579
C45	C	0.876849	-0.059749	-0.000031
N46	N	0.834122	-0.157388	-0.000035
H47	H	1.764036	0.024414	0.618265
H48	H	1.056308	0.482269	-0.105158
H49	H	1.050038	0.491987	0.101982
H50	H	0.847910	0.486567	-0.101918
C51	C	1.226833	-0.372699	-0.000158
N52	N	1.123053	-0.397517	-0.000229
C53	C	1.359851	-0.203649	0.257246
N54	N	1.309566	-0.159350	0.360587
H55	H	1.593208	-0.405560	0.221601
C56	C	1.610575	-0.420914	-0.257273
N57	N	1.660915	-0.465207	-0.360582
C58	C	1.359864	-0.203990	-0.257554
N59	N	1.309581	-0.159908	-0.360998
H60	H	1.646040	-0.095474	0.381688
H61	H	1.758716	0.033642	0.375754
H62	H	1.636968	-0.090096	0.624192
H63	H	1.129292	-0.019670	-0.000021
