data_functionalizedCrystal
_audit_creation_method	'MofGen! by Chris Wilmer'
_symmetry_space_group_name_H-M	'P1'
_symmetry_Int_Tables_number	1
_symmetry_cell_setting	triclinic
loop_
_symmetry_equiv_pos_as_xyz
  x,y,z
_cell_length_a	19.288835
_cell_length_b	15.186229
_cell_length_c	19.288865
_cell_angle_alpha	89.994486
_cell_angle_beta	83.130103
_cell_angle_gamma	89.985929
loop_
_atom_site_label
_atom_site_type_symbol
_atom_site_fract_x
_atom_site_fract_y
_atom_site_fract_z
O1	O	-0.921363	0.073411	-0.086543
O2	O	-0.671363	0.323411	0.163457
O3	O	-0.421363	0.573411	0.413457
O4	O	-0.171363	0.823411	0.663457
O5	O	-0.719100	0.073377	-0.098254
O6	O	-0.469100	0.323377	0.151746
O7	O	-0.219100	0.573377	0.401746
O8	O	0.030900	0.823377	0.651746
O9	O	-0.826076	0.073377	0.008732
O10	O	-0.576076	0.323377	0.258732
O11	O	-0.326076	0.573377	0.508732
O12	O	-0.076076	0.823377	0.758732
O13	O	-0.814387	0.073410	-0.193530
O14	O	-0.564387	0.323410	0.056470
O15	O	-0.314387	0.573410	0.306470
O16	O	-0.064387	0.823410	0.556470
O17	O	-0.826063	-0.073080	0.008726
O18	O	-0.576063	0.176920	0.258726
O19	O	-0.326063	0.426920	0.508726
O20	O	-0.076063	0.676920	0.758726
O21	O	-0.719087	-0.073081	-0.098260
O22	O	-0.469087	0.176919	0.151740
O23	O	-0.219087	0.426919	0.401740
O24	O	0.030913	0.676919	0.651740
O25	O	-0.921351	-0.073046	-0.086550
O26	O	-0.671351	0.176954	0.163450
O27	O	-0.421351	0.426954	0.413450
O28	O	-0.171351	0.676954	0.663450
Zn29	Zn	-0.820217	-0.096317	-0.092406
Zn30	Zn	-0.570217	0.153683	0.157594
Zn31	Zn	-0.320217	0.403683	0.407594
Zn32	Zn	-0.070217	0.653683	0.657594
Zn33	Zn	-0.820233	0.096647	-0.092398
Zn34	Zn	-0.570233	0.346647	0.157602
Zn35	Zn	-0.320233	0.596647	0.407602
Zn36	Zn	-0.070233	0.846647	0.657602
O37	O	-0.814374	-0.073047	-0.193536
O38	O	-0.564374	0.176953	0.056464
O39	O	-0.314374	0.426953	0.306464
O40	O	-0.064374	0.676953	0.556464
C41	C	-0.693217	0.000143	-0.097884
C42	C	-0.443217	0.250143	0.152116
C43	C	-0.193217	0.500143	0.402116
C44	C	0.056783	0.750143	0.652116
C45	C	-0.616112	0.000129	-0.096763
C46	C	-0.366112	0.250129	0.153237
C47	C	-0.116112	0.500129	0.403237
C48	C	0.133888	0.750129	0.653237
N49	N	-0.820211	-0.228009	-0.092411
N50	N	-0.570211	0.021991	0.157589
N51	N	-0.320211	0.271991	0.407589
N52	N	-0.070211	0.521991	0.657589
C53	C	-0.579915	0.079964	-0.096221
C54	C	-0.329915	0.329964	0.153779
C55	C	-0.079915	0.579964	0.403779
C56	C	0.170085	0.829964	0.653779
C57	C	-0.507468	0.079973	-0.095161
C58	C	-0.257468	0.329973	0.154839
C59	C	-0.007468	0.579973	0.404839
C60	C	0.242532	0.829973	0.654839
C61	C	-0.471222	0.000142	-0.094628
C62	C	-0.221222	0.250142	0.155372
C63	C	0.028778	0.500142	0.405372
C64	C	0.278778	0.750142	0.655372
C65	C	-0.507427	-0.079704	-0.095173
C66	C	-0.257427	0.170296	0.154827
C67	C	-0.007427	0.420296	0.404827
C68	C	0.242573	0.670296	0.654827
C69	C	-0.579872	-0.079710	-0.096241
C70	C	-0.329872	0.170290	0.153759
C71	C	-0.079872	0.420290	0.403759
C72	C	0.170128	0.670290	0.653759
C73	C	-0.361889	-0.061017	-0.052254
C74	C	-0.111889	0.188983	0.197746
C75	C	0.138111	0.438983	0.447746
C76	C	0.388111	0.688983	0.697746
C77	C	-0.289446	-0.061007	-0.051182
C78	C	-0.039446	0.188993	0.198818
C79	C	0.210554	0.438993	0.448818
C80	C	0.460554	0.688993	0.698818
C81	C	-0.247778	0.000158	-0.091338
C82	C	0.002222	0.250158	0.158662
C83	C	0.252222	0.500158	0.408662
C84	C	0.502222	0.750158	0.658662
C85	C	-0.278563	0.061328	-0.132556
C86	C	-0.028563	0.311328	0.117444
C87	C	0.221437	0.561328	0.367444
C88	C	0.471437	0.811328	0.617444
C89	C	-0.351008	0.061322	-0.133624
C90	C	-0.101008	0.311322	0.116376
C91	C	0.148992	0.561322	0.366376
C92	C	0.398992	0.811322	0.616376
C93	C	-0.392668	0.000140	-0.093470
C94	C	-0.142668	0.250140	0.156530
C95	C	0.107332	0.500140	0.406530
C96	C	0.357332	0.750140	0.656530
C97	C	-0.133026	0.080008	-0.089647
C98	C	0.116974	0.330008	0.160353
C99	C	0.366974	0.580008	0.410353
C100	C	0.616974	0.830008	0.660353
C101	C	-0.060577	0.080013	-0.088590
C102	C	0.189423	0.330013	0.161410
C103	C	0.439423	0.580013	0.411410
C104	C	0.689423	0.830013	0.661410
C105	C	-0.060539	-0.079666	-0.088596
C106	C	0.189461	0.170334	0.161404
C107	C	0.439461	0.420334	0.411404
C108	C	0.689461	0.670334	0.661404
C109	C	-0.132985	-0.079669	-0.089660
C110	C	0.117015	0.170331	0.160340
C111	C	0.367015	0.420331	0.410340
C112	C	0.617015	0.670331	0.660340
C113	C	-0.169225	0.000171	-0.090181
C114	C	0.080775	0.250171	0.159819
C115	C	0.330775	0.500171	0.409819
C116	C	0.580775	0.750171	0.659819
C117	C	-0.862217	-0.453717	-0.134416
C118	C	-0.612217	-0.203717	0.115584
C119	C	-0.362217	0.046283	0.365584
C120	C	-0.112217	0.296283	0.615584
C121	C	-0.862225	-0.545907	-0.134411
C122	C	-0.612225	-0.295907	0.115589
C123	C	-0.362225	-0.045907	0.365589
C124	C	-0.112225	0.204093	0.615589
C125	C	-0.778237	-0.545946	-0.050378
C126	C	-0.528237	-0.295946	0.199622
C127	C	-0.278237	-0.045946	0.449622
C128	C	-0.028237	0.204054	0.699622
C129	C	-0.778234	-0.453758	-0.050379
C130	C	-0.528234	-0.203758	0.199621
C131	C	-0.278234	0.046242	0.449621
C132	C	-0.028234	0.296242	0.699621
C133	C	-0.820222	-0.407646	-0.092402
C134	C	-0.570222	-0.157646	0.157598
C135	C	-0.320222	0.092354	0.407598
C136	C	-0.070222	0.342354	0.657598
C137	C	-0.820233	-0.592024	-0.092396
C138	C	-0.570233	-0.342024	0.157604
C139	C	-0.320233	-0.092024	0.407604
C140	C	-0.070233	0.157976	0.657604
C141	C	-0.820241	-0.691980	-0.092390
C142	C	-0.570241	-0.441980	0.157610
C143	C	-0.320241	-0.191980	0.407610
C144	C	-0.070241	0.058020	0.657610
C145	C	-0.820216	-0.307683	-0.092407
C146	C	-0.570216	-0.057683	0.157593
C147	C	-0.320216	0.192317	0.407593
C148	C	-0.070216	0.442317	0.657593
C149	C	0.052767	0.000182	-0.086924
C150	C	0.302767	0.250182	0.163076
C151	C	0.552767	0.500182	0.413076
C152	C	0.802767	0.750182	0.663076
C153	C	-0.024336	0.000181	-0.088059
C154	C	0.225664	0.250181	0.161941
C155	C	0.475664	0.500181	0.411941
C156	C	0.725664	0.750181	0.661941
C157	C	-0.825694	0.000146	0.034606
C158	C	-0.575694	0.250146	0.284606
C159	C	-0.325694	0.500146	0.534606
C160	C	-0.075694	0.750146	0.784606
C161	C	-0.824565	0.000138	0.111709
C162	C	-0.574565	0.250138	0.361709
C163	C	-0.324565	0.500138	0.611709
C164	C	-0.074565	0.750138	0.861709
N165	N	-0.820245	0.228340	-0.092387
N166	N	-0.570245	0.478340	0.157613
N167	N	-0.320245	0.728340	0.407613
N168	N	-0.070245	0.978340	0.657613
C169	C	-0.814757	0.000186	-0.219409
C170	C	-0.564757	0.250186	0.030591
C171	C	-0.314757	0.500186	0.280591
C172	C	-0.064757	0.750186	0.530591
C173	C	-0.815886	0.000200	-0.296513
C174	C	-0.565886	0.250200	-0.046513
C175	C	-0.315886	0.500200	0.203487
C176	C	-0.065886	0.750200	0.453487
C177	C	-0.887333	0.000145	0.156412
C178	C	-0.637333	0.250145	0.406412
C179	C	-0.387333	0.500145	0.656412
C180	C	-0.137333	0.750145	0.906412
C181	C	-0.886273	0.000158	0.228859
C182	C	-0.636273	0.250158	0.478859
C183	C	-0.386273	0.500158	0.728859
C184	C	-0.136273	0.750158	0.978859
C185	C	-0.822440	0.000148	0.256600
C186	C	-0.572440	0.250148	0.506600
C187	C	-0.322440	0.500148	0.756600
C188	C	-0.072440	0.750148	1.006600
C189	C	-0.759663	0.000146	0.211887
C190	C	-0.509663	0.250146	0.461887
C191	C	-0.259663	0.500146	0.711887
C192	C	-0.009663	0.750146	0.961887
C193	C	-0.760725	0.000142	0.139441
C194	C	-0.510725	0.250142	0.389441
C195	C	-0.260725	0.500142	0.639441
C196	C	-0.010725	0.750142	0.889441
C197	C	-0.772255	-0.051161	0.364880
C198	C	-0.522255	0.198839	0.614880
C199	C	-0.272255	0.448839	0.864880
C200	C	-0.022255	0.698839	1.114880
C201	C	-0.771195	-0.051162	0.437324
C202	C	-0.521195	0.198838	0.687324
C203	C	-0.271195	0.448838	0.937324
C204	C	-0.021195	0.698838	1.187324
C205	C	-0.819160	0.000167	0.480045
C206	C	-0.569160	0.250167	0.730045
C207	C	-0.319160	0.500167	0.980045
C208	C	-0.069160	0.750167	1.230045
C209	C	-0.868196	0.051485	0.450314
C210	C	-0.618196	0.301485	0.700314
C211	C	-0.368196	0.551485	0.950314
C212	C	-0.118196	0.801485	1.200314
C213	C	-0.869259	0.051480	0.377869
C214	C	-0.619259	0.301480	0.627869
C215	C	-0.369259	0.551480	0.877869
C216	C	-0.119259	0.801480	1.127869
C217	C	-0.821280	0.000154	0.335154
C218	C	-0.571280	0.250154	0.585154
C219	C	-0.321280	0.500154	0.835154
C220	C	-0.071280	0.750154	1.085154
C221	C	-0.880783	0.000190	0.603304
C222	C	-0.630783	0.250190	0.853304
C223	C	-0.380783	0.500190	1.103304
C224	C	-0.130783	0.750190	1.353304
C225	C	-0.879720	0.000209	0.675752
C226	C	-0.629720	0.250209	0.925752
C227	C	-0.379720	0.500209	1.175752
C228	C	-0.129720	0.750209	1.425752
C229	C	-0.753108	0.000188	0.658778
C230	C	-0.503108	0.250188	0.908778
C231	C	-0.253108	0.500188	1.158778
C232	C	-0.003108	0.750188	1.408778
C233	C	-0.754173	0.000178	0.586332
C234	C	-0.504173	0.250178	0.836332
C235	C	-0.254173	0.500178	1.086332
C236	C	-0.004173	0.750178	1.336332
C237	C	-0.818012	0.000174	0.558599
C238	C	-0.568012	0.250174	0.808599
C239	C	-0.318012	0.500174	1.058599
C240	C	-0.068012	0.750174	1.308599
H241	H	-0.609417	0.144976	-0.096647
H242	H	-0.359417	0.394976	0.153353
H243	H	-0.109417	0.644976	0.403353
H244	H	0.140583	0.894976	0.653353
F245	F	-0.171511	-0.164641	-0.090232
F246	F	0.078489	0.085359	0.159768
F247	F	0.328489	0.335359	0.409768
F248	F	0.578489	0.585359	0.659768
H249	H	-0.477991	0.144986	-0.094721
H250	H	-0.227991	0.394986	0.155279
H251	H	0.022009	0.644986	0.405279
H252	H	0.272009	0.894986	0.655279
F253	F	-0.906909	-0.404644	-0.179136
F254	F	-0.656909	-0.154644	0.070864
F255	F	-0.406909	0.095356	0.320864
F256	F	-0.156909	0.345356	0.570864
H257	H	-0.031106	0.145027	-0.088154
H258	H	0.218894	0.395027	0.161846
H259	H	0.468894	0.645027	0.411846
H260	H	0.718894	0.895027	0.661846
F261	F	-0.406229	-0.126123	-0.009514
F262	F	-0.156229	0.123877	0.240486
F263	F	0.093771	0.373877	0.490486
F264	F	0.343771	0.623877	0.740486
H265	H	-0.939316	0.000145	0.133837
H266	H	-0.689316	0.250145	0.383837
H267	H	-0.439316	0.500145	0.633837
H268	H	-0.189316	0.750145	0.883837
H269	H	-0.477911	-0.144703	-0.094741
H270	H	-0.227911	0.105297	0.155259
H271	H	0.022089	0.355297	0.405259
H272	H	0.272089	0.605297	0.655259
H273	H	-0.744051	-0.583501	-0.016165
H274	H	-0.494051	-0.333501	0.233835
H275	H	-0.244051	-0.083501	0.483835
H276	H	0.005949	0.166499	0.733835
H277	H	-0.896422	-0.583414	-0.168621
H278	H	-0.646422	-0.333414	0.081379
H279	H	-0.396422	-0.083414	0.331379
H280	H	-0.146422	0.166586	0.581379
H281	H	-0.744036	-0.416246	-0.016163
H282	H	-0.494036	-0.166246	0.233837
H283	H	-0.244036	0.083754	0.483837
H284	H	0.005964	0.333754	0.733837
F285	F	-0.719009	-0.105782	0.468959
F286	F	-0.469009	0.144218	0.718959
F287	F	-0.219009	0.394218	0.968959
F288	F	0.030991	0.644218	1.218959
F289	F	-0.953082	0.000167	0.276444
F290	F	-0.703082	0.250167	0.526444
F291	F	-0.453082	0.500167	0.776444
F292	F	-0.203082	0.750167	1.026444
H293	H	-0.031028	-0.144666	-0.088166
H294	H	0.218972	0.105334	0.161834
H295	H	0.468972	0.355334	0.411834
H296	H	0.718972	0.605334	0.661834
F297	F	-0.948725	0.000182	0.573786
F298	F	-0.698725	0.250182	0.823786
F299	F	-0.448725	0.500182	1.073786
F300	F	-0.198725	0.750182	1.323786
F301	F	-0.921442	0.106099	0.346229
F302	F	-0.671442	0.356099	0.596229
F303	F	-0.421442	0.606099	0.846229
F304	F	-0.171442	0.856099	1.096229
F305	F	-0.383768	0.126419	-0.177492
F306	F	-0.133768	0.376419	0.072508
F307	F	0.116232	0.626419	0.322508
F308	F	0.366232	0.876419	0.572508
H309	H	-0.264388	-0.110812	-0.017617
H310	H	-0.014388	0.139188	0.232383
H311	H	0.235612	0.389188	0.482383
H312	H	0.485612	0.639188	0.732383
F313	F	-0.618397	-0.164685	-0.096818
F314	F	-0.368397	0.085315	0.153182
F315	F	-0.118397	0.335315	0.403182
F316	F	0.131603	0.585315	0.653182
F317	F	-0.919248	0.106119	0.495775
F318	F	-0.669248	0.356119	0.745775
F319	F	-0.419248	0.606119	0.995775
F320	F	-0.169248	0.856119	1.245775
F321	F	-0.946531	0.000222	0.723329
F322	F	-0.696531	0.250222	0.973329
F323	F	-0.446531	0.500222	1.223329
F324	F	-0.196531	0.750222	1.473329
H325	H	-0.701133	0.000184	0.681363
H326	H	-0.451133	0.250184	0.931363
H327	H	-0.201133	0.500184	1.181363
H328	H	0.048867	0.750184	1.431363
F329	F	-0.687365	0.000167	0.538753
F330	F	-0.437365	0.250167	0.788753
F331	F	-0.187365	0.500167	1.038753
F332	F	0.062635	0.750167	1.288753
H333	H	-0.733194	-0.092965	0.330101
H334	H	-0.483194	0.157035	0.580101
H335	H	-0.233194	0.407035	0.830101
H336	H	0.016806	0.657035	1.080101
F337	F	-0.691727	0.000141	0.241411
F338	F	-0.441727	0.250141	0.491411
F339	F	-0.191727	0.500141	0.741411
F340	F	0.058273	0.750141	0.991411
H341	H	-0.709609	0.000136	0.103043
H342	H	-0.459609	0.250136	0.353043
H343	H	-0.209609	0.500136	0.603043
H344	H	0.040391	0.750136	0.853043
H345	H	-0.162533	0.145018	-0.090079
H346	H	0.087467	0.395018	0.159921
H347	H	0.337467	0.645018	0.409921
H348	H	0.587467	0.895018	0.659921
F349	F	-0.234222	0.126428	-0.175298
F350	F	0.015778	0.376428	0.074702
F351	F	0.265778	0.626428	0.324702
F352	F	0.515778	0.876428	0.574702
