data_functionalizedCrystal
_audit_creation_method	'MofGen! by Chris Wilmer'
_symmetry_space_group_name_H-M	'P1'
_symmetry_Int_Tables_number	1
_symmetry_cell_setting	triclinic
loop_
_symmetry_equiv_pos_as_xyz
  x,y,z
_cell_length_a	14.044220
_cell_length_b	11.792241
_cell_length_c	10.268362
_cell_angle_alpha	90.005428
_cell_angle_beta	89.999567
_cell_angle_gamma	88.691147
loop_
_atom_site_label
_atom_site_type_symbol
_atom_site_fract_x
_atom_site_fract_y
_atom_site_fract_z
O1	O	-1.259114	-0.273771	-0.108163
O2	O	-0.925780	0.059563	0.225170
O3	O	-0.592447	0.392896	0.558504
O4	O	-0.983094	-0.263892	-0.108196
O5	O	-0.649760	0.069442	0.225138
O6	O	-0.316427	0.402775	0.558471
O7	O	-1.127802	-0.104289	-0.108169
O8	O	-0.794469	0.229044	0.225164
O9	O	-0.461135	0.562377	0.558497
O10	O	-1.114405	-0.433373	-0.108189
O11	O	-0.781072	-0.100040	0.225144
O12	O	-0.447739	0.233294	0.558477
O13	O	-1.127789	-0.104281	0.108431
O14	O	-0.794456	0.229052	0.441765
O15	O	-0.461123	0.562386	0.775098
O16	O	-0.983081	-0.263883	0.108405
O17	O	-0.649748	0.069450	0.441738
O18	O	-0.316414	0.402783	0.775072
O19	O	-1.259101	-0.273762	0.108438
O20	O	-0.925768	0.059571	0.441771
O21	O	-0.592434	0.392904	0.775104
Cu22	Cu	-1.121090	-0.268822	0.128199
Cu23	Cu	-0.787756	0.064511	0.461532
Cu24	Cu	-0.454423	0.397845	0.794865
Cu25	Cu	-1.121105	-0.268832	-0.127957
Cu26	Cu	-0.787771	0.064501	0.205377
Cu27	Cu	-0.454438	0.397835	0.538710
O28	O	-1.114393	-0.433365	0.108411
O29	O	-0.781059	-0.100031	0.441745
O30	O	-0.447726	0.233302	0.775078
C31	C	-0.947751	-0.259563	0.000100
C32	C	-0.614417	0.073770	0.333434
C33	C	-0.281084	0.407104	0.666767
C34	C	-0.842459	-0.246664	0.000088
C35	C	-0.509125	0.086669	0.333421
C36	C	-0.175792	0.420003	0.666755
C37	C	-1.126954	-0.061915	0.000130
C38	C	-0.793621	0.271418	0.333464
C39	C	-0.460287	0.604751	0.666797
C40	C	-1.124435	0.064335	0.000129
C41	C	-0.791102	0.397668	0.333462
C42	C	-0.457769	0.731001	0.666796
C43	C	-1.294444	-0.278091	0.000139
C44	C	-0.961111	0.055242	0.333472
C45	C	-0.627777	0.388576	0.666805
C46	C	-1.399736	-0.290990	0.000143
C47	C	-1.066403	0.042343	0.333476
C48	C	-0.733069	0.375677	0.666809
C49	C	-0.649676	-0.223082	0.000115
C50	C	-0.316343	0.110251	0.333449
C51	C	0.016991	0.443585	0.666782
C52	C	-0.592513	-0.314567	0.000115
C53	C	-0.259180	0.018766	0.333449
C54	C	0.074154	0.352100	0.666782
C55	C	-0.485242	-0.301445	0.000130
C56	C	-0.151909	0.031888	0.333464
C57	C	0.181425	0.365221	0.666797
C58	C	-0.756957	-0.236202	0.000100
C59	C	-0.423624	0.097132	0.333433
C60	C	-0.090290	0.430465	0.666767
C61	C	-1.115241	-0.475739	0.000109
C62	C	-0.781907	-0.142405	0.333442
C63	C	-0.448574	0.190928	0.666775
C64	C	-1.117759	-0.601989	0.000102
C65	C	-0.784426	-0.268655	0.333435
C66	C	-0.451093	0.064678	0.666768
N67	N	-1.121086	-0.268815	0.308365
N68	N	-0.787753	0.064518	0.641698
N69	N	-0.454420	0.397852	0.975031
C70	C	-1.119804	0.295482	0.000107
C71	C	-0.786471	0.628815	0.333440
C72	C	-0.453137	0.962148	0.666773
C73	C	-1.122377	0.166855	0.000119
C74	C	-0.789044	0.500188	0.333452
C75	C	-0.455711	0.833522	0.666785
N76	N	-1.121116	-0.268831	-0.308123
N77	N	-0.787783	0.064503	0.025211
N78	N	-0.454449	0.397836	0.358544
C79	C	-1.121100	-0.268829	0.574035
C80	C	-0.787767	0.064504	0.907368
C81	C	-0.454433	0.397837	1.240702
C82	C	-1.121089	-0.268824	0.426197
C83	C	-0.787756	0.064509	0.759531
C84	C	-0.454423	0.397842	1.092864
H85	H	-0.624137	-0.402744	0.000104
H86	H	-0.290804	-0.069411	0.333437
H87	H	0.042529	0.263923	0.666770
H88	H	-0.618054	-0.134912	0.000128
H89	H	-0.284720	0.198421	0.333461
H90	H	0.048613	0.531755	0.666794
