data_functionalizedCrystal
_audit_creation_method	'MofGen! by Chris Wilmer'
_symmetry_space_group_name_H-M	'P1'
_symmetry_Int_Tables_number	1
_symmetry_cell_setting	triclinic
loop_
_symmetry_equiv_pos_as_xyz
  x,y,z
_cell_length_a	10.686220
_cell_length_b	12.645330
_cell_length_c	10.686551
_cell_angle_alpha	94.404096
_cell_angle_beta	89.691918
_cell_angle_gamma	94.399208
loop_
_atom_site_label
_atom_site_type_symbol
_atom_site_fract_x
_atom_site_fract_y
_atom_site_fract_z
Zn1	Zn	1.972274	-0.258449	0.562395
Zn2	Zn	1.956034	-0.450325	0.352642
Zn3	Zn	1.746391	-0.285568	0.368713
Zn4	Zn	1.762464	-0.448176	0.578420
O5	O	1.859291	-0.360629	0.465542
O6	O	2.145662	-0.273452	0.521138
O7	O	1.914701	-0.440718	0.179229
O8	O	1.776424	-0.133617	0.394424
O9	O	2.133731	-0.414422	0.367034
O10	O	1.942379	-0.113693	0.536721
O11	O	1.760677	-0.319671	0.191036
O12	O	1.572980	-0.317588	0.409963
O13	O	1.803819	-0.410760	0.751839
O14	O	1.584790	-0.437056	0.564034
O15	O	1.957965	-0.271369	0.740065
O16	O	1.930287	-0.598393	0.382573
O17	O	1.788072	-0.596814	0.548451
C18	C	1.533369	-0.380032	0.490482
C19	C	1.393940	-0.388356	0.501181
C20	C	1.859198	-0.636066	0.465532
C21	C	1.859276	-0.753889	0.465560
C22	C	1.770231	-0.920460	0.570182
C23	C	1.769713	-0.797951	0.569908
C24	C	1.813339	-0.809805	0.336095
C25	C	1.812795	-0.932397	0.336731
C26	C	1.994766	-0.910703	0.489286
C27	C	1.994173	-0.787944	0.492239
C28	C	2.186485	-0.341151	0.440506
C29	C	2.325916	-0.332851	0.429837
C30	C	1.884497	-0.337800	0.792742
C31	C	1.895238	-0.328071	0.932175
C32	C	1.859420	-0.084114	0.465578
C33	C	1.859475	0.033721	0.465593
C34	C	1.834255	-0.383289	0.139610
C35	C	1.823757	-0.392705	0.000159
H36	H	1.799630	-0.759649	0.666223
C37	C	1.897753	-0.771902	0.228539
N38	N	1.961333	-0.743348	0.147530
C39	C	2.040755	-0.737209	0.620862
N40	N	2.075845	-0.698976	0.717732
H41	H	1.799967	-0.941713	0.666835
H42	H	2.034687	-0.933015	0.581551
C43	C	1.328512	-0.461168	0.594760
N44	N	1.279231	-0.516007	0.665244
H45	H	1.715110	-0.786943	0.314247
H46	H	1.964663	-0.265293	0.980646
C47	C	1.391339	-0.260040	0.336267
N48	N	1.440624	-0.205195	0.265791
C49	C	2.089831	-0.746598	0.395727
N50	N	2.161877	-0.715459	0.323022
C51	C	1.635864	-0.972140	0.550375
N52	N	1.534658	-1.011064	0.535448
H53	H	2.061379	-0.940317	0.412986
H54	H	1.669620	-0.776137	0.555012
C55	C	1.678779	-0.981662	0.308029
N56	N	1.577833	-1.018763	0.286414
H57	H	1.754345	-0.455486	0.951693
C58	C	1.896039	-0.974074	0.228593
N59	N	1.958730	-1.005461	0.147138
