data_functionalizedCrystal
_audit_creation_method	'MofGen! by Chris Wilmer'
_symmetry_space_group_name_H-M	'P1'
_symmetry_Int_Tables_number	1
_symmetry_cell_setting	triclinic
loop_
_symmetry_equiv_pos_as_xyz
  x,y,z
_cell_length_a	23.532407
_cell_length_b	23.532409
_cell_length_c	22.610064
_cell_angle_alpha	90.007112
_cell_angle_beta	89.994501
_cell_angle_gamma	82.849153
loop_
_atom_site_label
_atom_site_type_symbol
_atom_site_fract_x
_atom_site_fract_y
_atom_site_fract_z
O1	O	0.755264	0.069127	-0.049144
O2	O	1.255264	0.569127	0.450856
O3	O	0.589401	0.079131	-0.049152
O4	O	1.089401	0.579131	0.450848
O5	O	0.677333	-0.008803	-0.049148
O6	O	1.177333	0.491197	0.450852
O7	O	0.667331	0.157061	-0.049147
O8	O	1.167331	0.657061	0.450853
O9	O	0.677318	-0.008790	0.049221
O10	O	1.177318	0.491210	0.549221
O11	O	0.589385	0.079143	0.049217
O12	O	1.089385	0.579143	0.549217
O13	O	0.755248	0.069140	0.049226
O14	O	1.255248	0.569140	0.549226
Zn15	Zn	0.672314	0.074144	0.064840
Zn16	Zn	1.172314	0.574144	0.564840
Zn17	Zn	0.672335	0.074127	-0.064766
Zn18	Zn	1.172335	0.574127	0.435234
O19	O	0.667316	0.157073	0.049222
O20	O	1.167316	0.657073	0.549222
C21	C	0.568177	0.078882	0.000031
C22	C	1.068177	0.578882	0.500031
C23	C	0.504960	0.078116	0.000028
C24	C	1.004960	0.578116	0.500028
C25	C	0.238792	0.022921	0.000043
C26	C	0.738792	0.522921	0.500043
C27	C	0.298192	0.023632	0.000043
C28	C	0.798192	0.523632	0.500043
O29	O	0.334936	-0.020153	0.000063
O30	O	0.834936	0.479847	0.500063
N31	N	0.320819	0.075909	0.000039
N32	N	0.820819	0.575909	0.500039
C33	C	0.284042	0.127477	0.000042
C34	C	0.784042	0.627477	0.500042
O35	O	0.308742	0.172007	0.000039
O36	O	0.808742	0.672007	0.500039
C37	C	0.224643	0.126765	0.000046
C38	C	0.724643	0.626765	0.500046
C39	C	0.202020	0.074485	0.000044
C40	C	0.702020	0.574485	0.500044
C41	C	0.216168	-0.029354	0.000042
C42	C	0.716168	0.470646	0.500042
C43	C	0.156772	-0.030066	0.000041
C44	C	0.656772	0.469934	0.500041
C45	C	0.120000	0.021499	0.000041
C46	C	0.620000	0.521499	0.500041
C47	C	0.142623	0.073774	0.000043
C48	C	0.642623	0.573774	0.500043
C49	C	0.187867	0.178332	0.000053
C50	C	0.687867	0.678332	0.500053
C51	C	0.128464	0.177616	0.000058
C52	C	0.628464	0.677616	0.500058
C53	C	0.105841	0.125336	0.000056
C54	C	0.605841	0.625336	0.500056
C55	C	0.046455	0.124627	0.000043
C56	C	0.546455	0.624627	0.500043
N57	N	0.023828	0.072351	0.000047
N58	N	0.523828	0.572351	0.500047
C59	C	0.060601	0.020787	0.000046
C60	C	0.560601	0.520787	0.500046
C61	C	0.408784	0.128968	0.000034
C62	C	0.908784	0.628968	0.500034
C63	C	0.468182	0.129681	0.000025
C64	C	0.968182	0.629681	0.500025
C65	C	0.482329	0.025836	0.000028
C66	C	0.982329	0.525836	0.500028
C67	C	0.422930	0.025124	0.000032
C68	C	0.922930	0.525124	0.500032
C69	C	0.386158	0.076692	0.000037
C70	C	0.886158	0.576692	0.500037
C71	C	-0.064136	0.019297	0.000043
C72	C	0.435864	0.519297	0.500043
C73	C	-0.123538	0.018590	0.000040
C74	C	0.376462	0.518590	0.500040
C75	C	-0.137680	0.122435	0.000041
C76	C	0.362320	0.622435	0.500041
C77	C	-0.078283	0.123142	0.000041
C78	C	0.421717	0.623142	0.500041
C79	C	-0.041512	0.071568	0.000044
C80	C	0.458488	0.571568	0.500044
O81	O	0.009676	0.168390	0.000025
O82	O	0.509676	0.668390	0.500025
O83	O	0.035892	-0.023736	0.000056
O84	O	0.535892	0.476264	0.500056
C85	C	0.677071	-0.030012	0.000035
C86	C	1.177071	0.469988	0.500035
C87	C	0.676304	-0.093229	0.000030
C88	C	1.176304	0.406771	0.500030
C89	C	0.673054	-0.366481	-0.053593
C90	C	1.173054	0.133519	0.446407
C91	C	0.673765	-0.307081	-0.053594
C92	C	1.173765	0.192919	0.446406
O93	O	0.674161	-0.276362	-0.099194
O94	O	1.174161	0.223638	0.400806
N95	N	0.674109	-0.277372	0.000028
N96	N	1.174109	0.222628	0.500028
C97	C	0.673747	-0.307067	0.053654
C98	C	1.173747	0.192933	0.553654
O99	O	0.674105	-0.276343	0.099264
O100	O	1.174105	0.223657	0.599264
C101	C	0.673040	-0.366467	0.053653
C102	C	1.173040	0.133533	0.553653
C103	C	0.672690	-0.396172	0.000028
C104	C	1.172690	0.103828	0.500028
C105	C	0.672705	-0.396187	-0.107215
C106	C	1.172705	0.103813	0.392785
C107	C	0.671992	-0.455583	-0.107214
C108	C	1.171992	0.044417	0.392786
C109	C	0.671628	-0.485273	-0.053593
C110	C	1.171628	0.014727	0.446407
C111	C	0.671977	-0.455568	0.000028
C112	C	1.171977	0.044432	0.500028
C113	C	0.672682	-0.396161	0.107278
C114	C	1.172682	0.103839	0.607278
C115	C	0.671974	-0.455565	0.107273
C116	C	1.171974	0.044435	0.607273
C117	C	0.671625	-0.485270	0.053648
C118	C	1.171625	0.014730	0.553648
C119	C	0.670901	-0.544654	0.053650
C120	C	1.170901	-0.044654	0.553650
N121	N	0.670557	-0.574363	0.000028
N122	N	1.170557	-0.074363	0.500028
C123	C	0.670921	-0.544673	-0.053593
C124	C	1.170921	-0.044673	0.446407
C125	C	0.675234	-0.182324	0.053651
C126	C	1.175234	0.317676	0.553651
C127	C	0.675937	-0.122925	0.053652
C128	C	1.175937	0.377075	0.553652
C129	C	0.675957	-0.122943	-0.053596
C130	C	1.175957	0.377057	0.446404
C131	C	0.675249	-0.182343	-0.053596
C132	C	1.175249	0.317657	0.446404
C133	C	0.674890	-0.212033	0.000029
C134	C	1.174890	0.287967	0.500029
C135	C	0.669424	-0.669409	-0.053589
C136	C	1.169424	-0.169409	0.446411
C137	C	0.668709	-0.728809	-0.053584
C138	C	1.168709	-0.228809	0.446416
C139	C	0.668692	-0.728786	0.053664
C140	C	1.168692	-0.228786	0.553664
C141	C	0.669404	-0.669390	0.053659
C142	C	1.169404	-0.169390	0.553659
C143	C	0.669772	-0.639703	0.000028
C144	C	1.169772	-0.139703	0.500028
O145	O	0.670508	-0.575411	0.099228
O146	O	1.170508	-0.075411	0.599228
O147	O	0.670570	-0.575405	-0.099195
O148	O	1.170570	-0.075405	0.400805
C149	C	0.776472	0.069389	0.000041
C150	C	1.276472	0.569389	0.500041
C151	C	0.839689	0.070154	0.000041
C152	C	1.339689	0.570154	0.500041
C153	C	0.667578	0.178283	0.000037
C154	C	1.167578	0.678283	0.500037
C155	C	0.668345	0.241500	0.000038
C156	C	1.168345	0.741500	0.500038
N157	N	0.672305	0.074155	0.153292
N158	N	1.172305	0.574155	0.653292
N159	N	0.672349	0.074111	-0.153219
N160	N	1.172349	0.574111	0.346781
C161	C	0.711273	0.035196	0.561935
C162	C	1.211273	0.535196	1.061935
C163	C	0.711276	0.035192	0.623855
C164	C	1.211276	0.535192	1.123855
O165	O	0.744384	0.002076	0.655875
O166	O	1.244384	0.502076	1.155875
N167	N	0.672334	0.074115	0.654829
N168	N	1.172334	0.574115	1.154829
C169	C	0.633383	0.113041	0.623880
C170	C	1.133383	0.613041	1.123880
O171	O	0.600261	0.146148	0.655912
O172	O	1.100261	0.646148	1.155912
C173	C	0.633378	0.113042	0.561961
C174	C	1.133378	0.613042	1.061961
C175	C	0.672326	0.074120	0.530990
C176	C	1.172326	0.574120	1.030990
C177	C	0.750217	-0.003723	0.530964
C178	C	1.250217	0.496277	1.030964
C179	C	0.750215	-0.003718	0.469049
C180	C	1.250215	0.496282	0.969049
C181	C	0.711268	0.035206	0.438104
C182	C	1.211268	0.535206	0.938104
C183	C	0.672324	0.074125	0.469075
C184	C	1.172324	0.574125	0.969075
C185	C	0.594425	0.151965	0.531013
C186	C	1.094425	0.651965	1.031013
C187	C	0.594423	0.151962	0.469090
C188	C	1.094423	0.651962	0.969090
C189	C	0.633371	0.113040	0.438120
C190	C	1.133371	0.613040	0.938120
C191	C	0.633375	0.113054	0.376214
C192	C	1.133375	0.613054	0.876214
N193	N	0.672316	0.074131	0.345240
N194	N	1.172316	0.574131	0.845240
C195	C	0.711263	0.035207	0.376185
C196	C	1.211263	0.535207	0.876185
C197	C	0.633397	0.113035	0.753914
C198	C	1.133397	0.613035	1.253914
C199	C	0.633404	0.113038	0.815831
C200	C	1.133404	0.613038	1.315831
C201	C	0.711296	0.035188	0.815802
C202	C	1.211296	0.535188	1.315802
C203	C	0.711291	0.035189	0.753883
C204	C	1.211291	0.535189	1.253883
C205	C	0.672338	0.074112	0.722940
C206	C	1.172338	0.574112	1.222940
C207	C	0.711256	0.035221	0.246158
C208	C	1.211256	0.535221	0.746158
C209	C	0.711251	0.035231	0.184237
C210	C	1.211251	0.535231	0.684237
C211	C	0.633358	0.113079	0.184271
C212	C	1.133358	0.613079	0.684271
C213	C	0.633364	0.113071	0.246187
C214	C	1.133364	0.613071	0.746187
C215	C	0.672315	0.074137	0.277129
C216	C	1.172315	0.574137	0.777129
O217	O	0.600282	0.146152	0.344155
O218	O	1.100282	0.646152	0.844155
O219	O	0.744376	0.002101	0.344146
O220	O	1.244376	0.502101	0.844146
H221	H	0.246103	-0.071347	0.000043
H222	H	0.746103	0.428653	0.500043
N223	N	0.399833	-0.028283	0.000028
N224	N	0.899833	0.471717	0.500028
N225	N	0.432679	-0.074315	0.000024
N226	N	0.932679	0.425685	0.500024
H227	H	0.416370	-0.112037	0.000023
H228	H	0.916370	0.387963	0.500023
N229	N	0.751071	-0.004579	0.722258
N230	N	1.251071	0.495421	1.222258
N231	N	0.786330	0.013285	0.687701
N232	N	1.286330	0.513285	1.187701
H233	H	0.814426	-0.014809	0.665374
H234	H	1.314426	0.485191	1.165374
N235	N	0.554628	0.191713	0.562637
N236	N	1.054628	0.691713	1.062637
N237	N	0.519378	0.173819	0.597183
N238	N	1.019378	0.673819	1.097183
H239	H	0.491267	0.201892	0.619515
H240	H	0.991267	0.701892	1.119515
H241	H	0.743008	0.003493	0.841008
H242	H	1.243008	0.503493	1.341008
N243	N	0.674893	-0.212693	-0.108367
N244	N	1.174893	0.287307	0.391633
N245	N	0.634353	-0.240375	-0.120337
N246	N	1.134353	0.259625	0.379663
H247	H	0.634103	-0.261809	-0.159020
H248	H	1.134103	0.238191	0.340980
H249	H	-0.141954	-0.023984	0.000037
H250	H	0.358046	0.476016	0.500037
N251	N	0.751024	-0.004539	0.152597
N252	N	1.251024	0.495461	0.652597
N253	N	0.733148	-0.039795	0.118044
N254	N	1.233148	0.460205	0.618044
H255	H	0.761234	-0.067883	0.095698
H256	H	1.261234	0.432117	0.595698
N257	N	0.090903	0.230293	0.000074
N258	N	0.590903	0.730293	0.500074
N259	N	0.092798	0.265139	0.041543
N260	N	0.592798	0.765139	0.541543
H261	H	0.066272	0.302342	0.041555
H262	H	0.566272	0.802342	0.541555
H263	H	0.672972	-0.371986	0.150946
H264	H	1.172972	0.128014	0.650946
N265	N	0.789995	-0.043488	0.562576
N266	N	1.289995	0.456512	1.062576
N267	N	0.790000	-0.043498	0.617860
N268	N	1.290000	0.456502	1.117860
H269	H	0.818094	-0.071586	0.640184
H270	H	1.318094	0.428414	1.140184
N271	N	0.593576	0.152821	0.277830
N272	N	1.093576	0.652821	0.777830
N273	N	0.558330	0.134920	0.312376
N274	N	1.058330	0.634920	0.812376
H275	H	0.530225	0.162989	0.334721
H276	H	1.030225	0.662989	0.834721
N277	N	0.669742	-0.639039	0.108433
N278	N	1.169742	-0.139039	0.608433
N279	N	0.629504	-0.640192	0.144332
N280	N	1.129504	-0.140192	0.644332
H281	H	0.629745	-0.618759	0.183017
H282	H	1.129745	-0.118759	0.683017
N283	N	0.210956	0.231741	0.000052
N284	N	0.710956	0.731741	0.500052
N285	N	0.178106	0.277771	0.000055
N286	N	0.678106	0.777771	0.500055
H287	H	0.194411	0.315494	0.000054
H288	H	0.694411	0.815494	0.500054
N289	N	0.671661	-0.485933	-0.161987
N290	N	1.171661	0.014067	0.338013
N291	N	0.671039	-0.538970	-0.161990
N292	N	1.171039	-0.038970	0.338010
H293	H	0.670812	-0.560404	-0.200676
H294	H	1.170812	-0.060404	0.299324
N295	N	0.371223	0.181647	0.000021
N296	N	0.871223	0.681647	0.500021
N297	N	0.336504	0.192832	-0.041444
N298	N	0.836504	0.692832	0.458556
H299	H	0.309978	0.230036	-0.041453
H300	H	0.809978	0.730036	0.458547
H301	H	0.669724	-0.645244	-0.097260
H302	H	1.169724	-0.145244	0.402740
N303	N	0.519905	-0.026832	0.000027
N304	N	1.019905	0.473168	0.500027
N305	N	0.572938	-0.026183	0.000026
N306	N	1.072938	0.473817	0.500026
H307	H	0.599479	-0.063377	0.000025
H308	H	1.099479	0.436623	0.500025
H309	H	0.668422	-0.752993	-0.097254
H310	H	1.168422	-0.252993	0.402746
H311	H	0.601695	0.144737	0.841044
H312	H	1.101695	0.644737	1.341044
H313	H	0.742972	0.003517	0.271343
H314	H	1.242972	0.503517	0.771343
N315	N	0.593603	0.152804	0.722317
N316	N	1.093603	0.652804	1.222317
N317	N	0.558839	0.187551	0.749986
N318	N	1.058839	0.687551	1.249986
H319	H	0.530734	0.215637	0.727674
H320	H	1.030734	0.715637	1.227674
N321	N	0.676346	-0.092611	-0.108371
N322	N	1.176346	0.407389	0.391629
N323	N	0.716427	-0.104717	-0.144268
N324	N	1.216427	0.395283	0.355732
H325	H	0.716703	-0.083295	-0.182951
H326	H	1.216703	0.416705	0.317049
H327	H	0.676211	-0.098742	0.097319
H328	H	1.176211	0.401258	0.597319
N329	N	-0.026590	-0.033388	0.000051
N330	N	0.473410	0.466612	0.500051
N331	N	-0.046807	-0.080055	0.000051
N332	N	0.453193	0.419945	0.500051
H333	H	-0.020291	-0.117265	0.000054
H334	H	0.479709	0.382735	0.500054
H335	H	0.562701	0.183658	0.443899
H336	H	1.062701	0.683658	0.943899
N337	N	0.491277	0.183089	0.000027
N338	N	0.991277	0.683089	0.500027
N339	N	0.479894	0.217778	0.041492
N340	N	0.979894	0.717778	0.541492
H341	H	0.496202	0.255500	0.041497
H342	H	0.996202	0.755500	0.541497
N343	N	0.133677	-0.083474	0.000039
N344	N	0.633677	0.416526	0.500039
N345	N	0.166526	-0.129505	0.000039
N346	N	0.666526	0.370495	0.500039
H347	H	0.150219	-0.167227	0.000038
H348	H	0.650219	0.332773	0.500038
N349	N	-0.055180	0.176547	0.000035
N350	N	0.444820	0.676547	0.500035
N351	N	-0.088022	0.222583	0.000034
N352	N	0.411978	0.722583	0.500034
H353	H	-0.071709	0.260302	0.000035
H354	H	0.428291	0.760302	0.500035
N355	N	-0.175256	0.175099	0.000034
N356	N	0.324744	0.675099	0.500034
N357	N	-0.228288	0.174449	0.000033
N358	N	0.271712	0.674449	0.500033
H359	H	-0.254829	0.211643	0.000030
H360	H	0.245171	0.711643	0.500030
N361	N	0.673080	-0.365874	-0.161998
N362	N	1.173080	0.134126	0.338002
N363	N	0.672770	-0.392415	-0.209865
N364	N	1.172770	0.107585	0.290135
H365	H	0.673032	-0.371011	-0.248559
H366	H	1.173032	0.128989	0.251441
N367	N	0.593583	0.152836	0.152646
N368	N	1.093583	0.652836	0.652646
N369	N	0.593589	0.152828	0.097362
N370	N	1.093589	0.652828	0.597362
H371	H	0.565496	0.180904	0.075025
H372	H	1.065496	0.680904	0.575025
H373	H	0.674937	-0.206493	0.097322
H374	H	1.174937	0.293507	0.597322
N375	N	0.671598	-0.485882	0.162057
N376	N	1.171598	0.014118	0.662057
N377	N	0.631522	-0.473767	0.197958
N378	N	1.131522	0.026233	0.697958
H379	H	0.631254	-0.495177	0.236649
H380	H	1.131254	0.004823	0.736649
N381	N	0.668316	-0.759129	0.108429
N382	N	1.168316	-0.259129	0.608429
N383	N	0.667683	-0.812164	0.108415
N384	N	1.167683	-0.312164	0.608415
H385	H	0.667420	-0.833596	0.147093
H386	H	1.167420	-0.333596	0.647093
H387	H	0.781928	-0.035413	0.443836
H388	H	1.281928	0.464587	0.943836
