data_functionalizedCrystal
_audit_creation_method	'MofGen! by Chris Wilmer'
_symmetry_space_group_name_H-M	'P1'
_symmetry_Int_Tables_number	1
_symmetry_cell_setting	triclinic
loop_
_symmetry_equiv_pos_as_xyz
  x,y,z
_cell_length_a	21.395361
_cell_length_b	21.295418
_cell_length_c	21.395356
_cell_angle_alpha	90.046899
_cell_angle_beta	89.969319
_cell_angle_gamma	89.951085
loop_
_atom_site_label
_atom_site_type_symbol
_atom_site_fract_x
_atom_site_fract_y
_atom_site_fract_z
Zn1	Zn	-0.249150	-0.962349	-0.354638
Zn2	Zn	0.250850	-0.462349	0.145362
Zn3	Zn	-0.353926	-0.962253	-0.249855
Zn4	Zn	0.146074	-0.462253	0.250145
Zn5	Zn	-0.249200	-0.857074	-0.249832
Zn6	Zn	0.250800	-0.357074	0.250168
Zn7	Zn	-0.353927	-0.857041	-0.354553
Zn8	Zn	0.146073	-0.357041	0.145447
O9	O	-0.301551	-0.909679	-0.302220
O10	O	0.198449	-0.409679	0.197780
O11	O	-0.263027	-1.050426	-0.340784
O12	O	0.236973	-0.550426	0.159216
O13	O	-0.340055	-0.948274	-0.162174
O14	O	0.159945	-0.448274	0.337826
O15	O	-0.161515	-0.871093	-0.263761
O16	O	0.338485	-0.371093	0.236239
O17	O	-0.340006	-1.050355	-0.263800
O18	O	0.159994	-0.550355	0.236200
O19	O	-0.161479	-0.948438	-0.340762
O20	O	0.338521	-0.448438	0.159238
O21	O	-0.263113	-0.871000	-0.162157
O22	O	0.236887	-0.371000	0.337843
O23	O	-0.263113	-0.768980	-0.263678
O24	O	0.236887	-0.268980	0.236322
O25	O	-0.340007	-0.871037	-0.442242
O26	O	0.159993	-0.371037	0.057758
O27	O	-0.340056	-0.768956	-0.340616
O28	O	0.159944	-0.268956	0.159384
O29	O	-0.263028	-0.948406	-0.442305
O30	O	0.236972	-0.448406	0.057695
O31	O	-0.441604	-0.948242	-0.263717
O32	O	0.058396	-0.448242	0.236283
O33	O	-0.441605	-0.870944	-0.340638
O34	O	0.058395	-0.370944	0.159362
C35	C	-0.301591	-0.746128	-0.302136
C36	C	0.198409	-0.246128	0.197864
C37	C	-0.301623	-0.676159	-0.302115
C38	C	0.198377	-0.176159	0.197885
C39	C	-0.341741	-0.643297	-0.342114
C40	C	0.158259	-0.143297	0.157886
C41	C	-0.341728	-0.577554	-0.342137
C42	C	0.158272	-0.077554	0.157863
C43	C	-0.301604	-0.544677	-0.302150
C44	C	0.198396	-0.044677	0.197850
C45	C	-0.261478	-0.577548	-0.262148
C46	C	0.238522	-0.077548	0.237852
C47	C	-0.261487	-0.643289	-0.262131
C48	C	0.238513	-0.143289	0.237869
N49	N	-0.296713	-0.441402	-0.247343
N50	N	0.203287	0.058598	0.252657
N51	N	-0.296707	-0.378951	-0.247361
N52	N	0.203293	0.121049	0.252639
C53	C	-0.301572	-0.346602	-0.302203
C54	C	0.198428	0.153398	0.197797
N55	N	-0.306455	-0.379065	-0.357026
N56	N	0.193545	0.120935	0.142974
N57	N	-0.306463	-0.441522	-0.357006
N58	N	0.193537	0.058478	0.142994
C59	C	-0.301589	-0.473392	-0.302166
C60	C	0.198411	0.026608	0.197834
C61	C	-0.341679	-0.242454	-0.342231
C62	C	0.158321	0.257546	0.157769
C63	C	-0.341662	-0.176710	-0.342255
C64	C	0.158338	0.323290	0.157745
C65	C	-0.261414	-0.176705	-0.262261
C66	C	0.238586	0.323295	0.237739
C67	C	-0.261428	-0.242447	-0.262242
C68	C	0.238572	0.257553	0.237758
C69	C	-0.301564	-0.275318	-0.302226
C70	C	0.198436	0.224682	0.197774
C71	C	-0.464338	-0.909596	-0.302185
C72	C	0.035662	-0.409596	0.197815
C73	C	-0.533980	-0.909618	-0.302191
C74	C	-0.033980	-0.409618	0.197809
C75	C	-0.566672	-0.949903	-0.262179
C76	C	-0.066672	-0.449903	0.237821
C77	C	-0.632107	-0.949933	-0.262193
C78	C	-0.132107	-0.449933	0.237807
C79	C	-0.664848	-0.909666	-0.302212
C80	C	-0.164848	-0.409666	0.197788
C81	C	-0.632148	-0.869378	-0.342232
C82	C	-0.132148	-0.369378	0.157768
C83	C	-0.566714	-0.869354	-0.342221
C84	C	-0.066714	-0.369354	0.157779
C85	C	-0.768580	-0.852986	-0.307099
C86	C	-0.268580	-0.352986	0.192901
C87	C	-0.834013	-0.853009	-0.307106
C88	C	-0.334013	-0.353009	0.192894
C89	C	-0.866669	-0.909739	-0.302249
C90	C	-0.366669	-0.409739	0.197751
C91	C	-0.833883	-0.966448	-0.297373
C92	C	-0.333883	-0.466448	0.202627
C93	C	-0.768449	-0.966425	-0.297362
C94	C	-0.268449	-0.466425	0.202638
C95	C	-0.735800	-0.909687	-0.302229
C96	C	-0.235800	-0.409687	0.197771
C97	C	-0.970313	-0.950059	-0.262250
C98	C	-0.470313	-0.450059	0.237750
C99	C	-1.035750	-0.950089	-0.262269
C100	C	-0.535750	-0.450089	0.237731
C101	C	-1.035789	-0.869529	-0.342304
C102	C	-0.535789	-0.369529	0.157696
C103	C	-0.970354	-0.869504	-0.342289
C104	C	-0.470354	-0.369504	0.157711
C105	C	-0.937620	-0.909768	-0.302259
C106	C	-0.437620	-0.409768	0.197741
C107	C	-0.138127	-0.909780	-0.302268
C108	C	0.361873	-0.409780	0.197732
C109	C	-0.068486	-0.909823	-0.302289
C110	C	0.431514	-0.409823	0.197711
C111	C	-0.301512	-0.909729	-0.465643
C112	C	0.198488	-0.409729	0.034357
C113	C	-0.301495	-0.909750	-0.535284
C114	C	0.198505	-0.409750	-0.035284
C115	C	-0.301522	-0.073870	-0.302286
C116	C	0.198478	0.426130	0.197714
C117	C	-0.301536	-0.143838	-0.302269
C118	C	0.198464	0.356162	0.197731
C119	C	-0.261427	-0.869524	-0.567979
C120	C	0.238573	-0.369524	-0.067979
C121	C	-0.261416	-0.869522	-0.633414
C122	C	0.238584	-0.369522	-0.133414
C123	C	-0.301466	-0.909757	-0.666153
C124	C	0.198534	-0.409757	-0.166153
C125	C	-0.341542	-0.949986	-0.633450
C126	C	0.158458	-0.449986	-0.133450
C127	C	-0.341557	-0.949982	-0.568016
C128	C	0.158443	-0.449982	-0.068016
C129	C	-0.306374	-0.966474	-0.769862
C130	C	0.193626	-0.466474	-0.269862
C131	C	-0.306354	-0.966478	-0.835295
C132	C	0.193646	-0.466478	-0.335295
C133	C	-0.301423	-0.909767	-0.867974
C134	C	0.198577	-0.409767	-0.367974
C135	C	-0.296498	-0.853050	-0.835211
C136	C	0.203502	-0.353050	-0.335211
C137	C	-0.296513	-0.853046	-0.769777
C138	C	0.203487	-0.353046	-0.269777
C139	C	-0.301454	-0.909765	-0.737105
C140	C	0.198546	-0.409765	-0.237105
C141	C	-0.261340	-0.869535	-0.971621
C142	C	0.238660	-0.369535	-0.471621
C143	C	-0.261333	-0.869532	-1.037057
C144	C	0.238667	-0.369532	-0.537057
C145	C	-0.341456	-0.950002	-1.037092
C146	C	0.158544	-0.450002	-0.537092
C147	C	-0.341466	-0.950000	-0.971657
C148	C	0.158534	-0.450000	-0.471657
C149	C	-0.301405	-0.909767	-0.938925
C150	C	0.198595	-0.409767	-0.438925
C151	C	-0.301544	-0.909666	-0.139432
C152	C	0.198456	-0.409666	0.360568
C153	C	-0.301384	-0.909767	-0.069791
C154	C	0.198616	-0.409767	0.430209
H155	H	-0.374330	-0.149955	-0.374831
H156	H	0.125670	0.350045	0.125169
H157	H	-0.741999	-0.806786	-0.311056
H158	H	-0.241999	-0.306786	0.188944
H159	H	-0.943734	-0.836698	-0.374868
H160	H	-0.443734	-0.336698	0.125132
O161	O	-1.067557	-0.830480	-0.381270
O162	O	-0.567557	-0.330480	0.118730
C163	C	-1.051492	-0.844190	-0.443730
C164	C	-0.551492	-0.344190	0.056270
H165	H	-1.033441	-0.894471	-0.446956
H166	H	-0.533441	-0.394471	0.053044
H167	H	-1.094507	-0.838768	-0.474687
H168	H	-0.594507	-0.338768	0.025313
H169	H	-1.013539	-0.810419	-0.460055
H170	H	-0.513539	-0.310419	0.039945
O171	O	-0.380668	-0.545689	-0.381081
O172	O	0.119332	-0.045689	0.118919
C173	C	-0.367052	-0.561819	-0.443551
C174	C	0.132948	-0.061819	0.056449
H175	H	-0.342981	-0.609580	-0.444887
H176	H	0.157019	-0.109580	0.055113
H177	H	-0.412309	-0.564045	-0.471561
H178	H	0.087691	-0.064045	0.028439
H179	H	-0.334858	-0.524876	-0.464721
H180	H	0.165142	-0.024876	0.035279
O181	O	-0.311054	-1.021622	-0.867041
O182	O	0.188946	-0.521622	-0.367041
C183	C	-0.260414	-1.060864	-0.851098
C184	C	0.239586	-0.560864	-0.351098
H185	H	-0.241145	-1.046309	-0.803585
H186	H	0.258855	-0.546309	-0.303585
H187	H	-0.276986	-1.111677	-0.848884
H188	H	0.223014	-0.611677	-0.348884
H189	H	-0.222163	-1.056337	-0.887932
H190	H	0.277837	-0.556337	-0.387932
H191	H	-0.741757	-1.012599	-0.293394
H192	H	-0.241757	-0.512599	0.206606
O193	O	-0.222456	-0.830535	-0.665251
O194	O	0.277544	-0.330535	-0.165251
C195	C	-0.181967	-0.866412	-0.703125
C196	C	0.318033	-0.366412	-0.203125
H197	H	-0.204059	-0.914101	-0.712954
H198	H	0.295941	-0.414101	-0.212954
H199	H	-0.173560	-0.840784	-0.749123
H200	H	0.326440	-0.340784	-0.249123
H201	H	-0.135541	-0.873361	-0.677925
H202	H	0.364459	-0.373361	-0.177925
O203	O	-0.380448	-0.989019	-1.068861
O204	O	0.119552	-0.489019	-0.568861
C205	C	-0.442902	-0.975237	-1.052833
C206	C	0.057098	-0.475237	-0.552833
H207	H	-0.446085	-0.924946	-1.034803
H208	H	0.053915	-0.424946	-0.534803
H209	H	-0.473843	-0.980641	-1.095862
H210	H	0.026157	-0.480641	-0.595862
H211	H	-0.459281	-1.008977	-1.014875
H212	H	0.040719	-0.508977	-0.514875
H213	H	-0.310384	-1.012659	-0.743260
H214	H	0.189616	-0.512659	-0.243260
O215	O	-0.380572	-0.274460	-0.381105
O216	O	0.119428	0.225540	0.118895
C217	C	-0.344957	-0.312559	-0.421635
C218	C	0.155043	0.187441	0.078365
H219	H	-0.297449	-0.322430	-0.399620
H220	H	0.202551	0.177570	0.100380
H221	H	-0.370497	-0.358772	-0.429969
H222	H	0.129503	0.141228	0.070031
H223	H	-0.338129	-0.287283	-0.468087
H224	H	0.161871	0.212717	0.031913
H225	H	-0.292505	-0.806865	-0.743105
H226	H	0.207495	-0.306865	-0.243105
O227	O	-0.663811	-0.989145	-0.223352
O228	O	-0.163811	-0.489145	0.276648
C229	C	-0.647764	-1.051881	-0.237118
C230	C	-0.147764	-0.551881	0.262882
H231	H	-0.600233	-1.053175	-0.261192
H232	H	-0.100233	-0.553175	0.238808
H233	H	-0.645535	-1.080119	-0.191929
H234	H	-0.145535	-0.580119	0.308071
H235	H	-0.684545	-1.073077	-0.269364
H236	H	-0.184545	-0.573077	0.230636
O237	O	-0.865761	-0.797871	-0.311872
O238	O	-0.365761	-0.297871	0.188128
C239	C	-0.822910	-0.747793	-0.316150
C240	C	-0.322910	-0.247793	0.183850
H241	H	-0.776232	-0.766120	-0.334325
H242	H	-0.276232	-0.266120	0.165675
H243	H	-0.841838	-0.710762	-0.349627
H244	H	-0.341838	-0.210762	0.150373
H245	H	-0.816008	-0.726004	-0.267959
H246	H	-0.316008	-0.226004	0.232041
H247	H	-0.292479	-0.806871	-0.861817
H248	H	0.207521	-0.306871	-0.361817
O249	O	-0.222585	-0.675187	-0.223180
O250	O	0.277415	-0.175187	0.276820
C251	C	-0.236182	-0.659026	-0.160714
C252	C	0.263818	-0.159026	0.339286
H253	H	-0.286228	-0.640896	-0.157464
H254	H	0.213772	-0.140896	0.342536
H255	H	-0.230754	-0.702231	-0.129757
H256	H	0.269246	-0.202231	0.370243
H257	H	-0.202561	-0.620884	-0.144410
H258	H	0.297439	-0.120884	0.355590
H259	H	-0.228741	-0.149937	-0.229705
H260	H	0.271259	0.350063	0.270295
H261	H	-0.228721	-0.836775	-0.944969
H262	H	0.271279	-0.336775	-0.444969
H263	H	-0.374422	-0.670056	-0.374673
H264	H	0.125578	-0.170056	0.125327
O265	O	-0.222441	-0.274277	-0.223322
O266	O	0.277559	0.225723	0.276678
C267	C	-0.187011	-0.231164	-0.188044
C268	C	0.312989	0.268836	0.311956
H269	H	-0.212664	-0.184273	-0.185840
H270	H	0.287336	0.315727	0.314160
H271	H	-0.180265	-0.250111	-0.138686
H272	H	0.319735	0.249889	0.361314
H273	H	-0.139455	-0.224245	-0.211079
H274	H	0.360545	0.275755	0.288921
H275	H	-0.374151	-0.982745	-0.660110
H276	H	0.125849	-0.482745	-0.160110
H277	H	-0.860470	-1.012644	-0.293419
H278	H	-0.360470	-0.512644	0.206581
H279	H	-0.228807	-0.550775	-0.229592
H280	H	0.271193	-0.050775	0.270408
H281	H	-0.374184	-0.982742	-0.541397
H282	H	0.125816	-0.482742	-0.041397
H283	H	-0.540022	-0.982690	-0.229586
H284	H	-0.040022	-0.482690	0.270414
H285	H	-0.658810	-0.836593	-0.374817
H286	H	-0.158810	-0.336593	0.125183
H287	H	-0.228809	-0.836761	-0.541333
H288	H	0.271191	-0.336761	-0.041333
O289	O	-0.938608	-0.989231	-0.223350
O290	O	-0.438608	-0.489231	0.276650
C291	C	-0.981498	-1.024788	-0.188028
C292	C	-0.481498	-0.524788	0.311972
H293	H	-1.028119	-1.026976	-0.213705
H294	H	-0.528119	-0.526976	0.286295
H295	H	-0.962534	-1.074380	-0.181404
H296	H	-0.462534	-0.574380	0.318596
H297	H	-0.988523	-1.001761	-0.140415
H298	H	-0.488523	-0.501761	0.359585
O299	O	-0.222350	-0.830434	-1.068722
O300	O	0.277650	-0.330434	-0.568722
C301	C	-0.187008	-0.794915	-1.025797
C302	C	0.312992	-0.294915	-0.525797
H303	H	-0.184843	-0.820700	-0.979175
H304	H	0.315157	-0.320700	-0.479175
H305	H	-0.137640	-0.788236	-1.044715
H306	H	0.362360	-0.288236	-0.544715
H307	H	-0.209960	-0.747090	-1.018792
H308	H	0.290040	-0.247090	-0.518792
H309	H	-1.062367	-0.982898	-0.229688
H310	H	-0.562367	-0.482898	0.270312
O311	O	-0.380451	-0.988991	-0.939866
O312	O	0.119549	-0.488991	-0.439866
C313	C	-0.420926	-0.953128	-0.901964
C314	C	0.079074	-0.453128	-0.401964
H315	H	-0.424805	-0.903547	-0.921643
H316	H	0.075195	-0.403547	-0.421643
H317	H	-0.469138	-0.975866	-0.901224
H318	H	0.030862	-0.475866	-0.401224
H319	H	-0.401565	-0.950969	-0.852377
H320	H	0.098435	-0.450969	-0.352377
H321	H	-0.540095	-0.836549	-0.374804
H322	H	-0.040095	-0.336549	0.125196
