data_functionalizedCrystal
_audit_creation_method	'MofGen! by Chris Wilmer'
_symmetry_space_group_name_H-M	'P1'
_symmetry_Int_Tables_number	1
_symmetry_cell_setting	triclinic
loop_
_symmetry_equiv_pos_as_xyz
  x,y,z
_cell_length_a	17.699077
_cell_length_b	10.489741
_cell_length_c	16.776229
_cell_angle_alpha	89.993659
_cell_angle_beta	89.993415
_cell_angle_gamma	83.909875
loop_
_atom_site_label
_atom_site_type_symbol
_atom_site_fract_x
_atom_site_fract_y
_atom_site_fract_z
O1	O	1.005136	0.161259	-0.066277
O2	O	1.505136	0.661259	0.433723
O3	O	0.784895	0.182252	-0.066281
O4	O	1.284895	0.682252	0.433719
O5	O	0.900027	-0.013935	-0.066274
O6	O	1.400027	0.486065	0.433726
O7	O	0.890004	0.357447	-0.066284
O8	O	1.390004	0.857447	0.433716
O9	O	0.900011	-0.013947	0.066302
O10	O	1.400011	0.486053	0.566302
O11	O	0.784879	0.182240	0.066295
O12	O	1.284879	0.682240	0.566295
O13	O	1.005121	0.161247	0.066299
O14	O	1.505121	0.661247	0.566299
Zn15	Zn	0.894997	0.171742	0.087347
Zn16	Zn	1.394997	0.671742	0.587347
Zn17	Zn	0.895018	0.171758	-0.087328
Zn18	Zn	1.395018	0.671758	0.412672
O19	O	0.889988	0.357435	0.066293
O20	O	1.389988	0.857435	0.566293
C21	C	0.756685	0.181495	0.000007
C22	C	1.256685	0.681495	0.500007
C23	C	0.672652	0.179243	0.000005
C24	C	1.172652	0.679243	0.500005
C25	C	0.633169	0.178174	0.072274
C26	C	1.133169	0.678174	0.572274
C27	C	0.554212	0.176037	0.072275
C28	C	1.054212	0.676037	0.572275
C29	C	0.514740	0.174977	0.000006
C30	C	1.014740	0.674977	0.500006
C31	C	0.554228	0.176042	-0.072268
C32	C	1.054228	0.676042	0.427732
C33	C	0.633184	0.178170	-0.072268
C34	C	1.133184	0.678170	0.427732
C35	C	0.235809	0.167458	-0.072269
C36	C	0.735809	0.667458	0.427731
C37	C	0.156847	0.165334	-0.072263
C38	C	0.656847	0.665334	0.427737
C39	C	0.156837	0.165326	0.072273
C40	C	0.656837	0.665326	0.572273
C41	C	0.235793	0.167454	0.072273
C42	C	0.735793	0.667454	0.572273
C43	C	0.275275	0.168511	-0.000000
C44	C	0.775275	0.668511	0.500000
C45	C	0.360889	0.170826	-0.000000
C46	C	0.860889	0.670826	0.500000
C47	C	0.429127	0.172672	0.000006
C48	C	0.929127	0.672672	0.500006
C49	C	0.899262	-0.061459	0.000013
C50	C	1.399262	0.438541	0.500013
C51	C	0.896997	-0.203046	0.000012
C52	C	1.396997	0.296954	0.500012
C53	C	0.823742	-0.269823	0.000005
C54	C	1.323742	0.230177	0.500005
C55	C	0.858339	-0.362595	0.065373
C56	C	1.358339	0.137405	0.565373
C57	C	0.858372	-0.362558	-0.065337
C58	C	1.358372	0.137442	0.434663
C59	C	0.931625	-0.293954	0.065434
C60	C	1.431625	0.206046	0.565434
C61	C	0.931647	-0.293907	-0.065335
C62	C	1.431647	0.206093	0.434665
C63	C	0.966298	-0.386654	0.000049
C64	C	1.466298	0.113346	0.500049
C65	C	1.033331	0.162004	0.000010
C66	C	1.533331	0.662004	0.500010
C67	C	1.117364	0.164257	0.000006
C68	C	1.617364	0.664257	0.500006
C69	C	0.890753	0.404958	0.000003
C70	C	1.390753	0.904958	0.500003
C71	C	0.893018	0.546546	-0.000001
C72	C	1.393018	1.046546	0.499999
N73	N	0.894989	0.171730	0.206558
N74	N	1.394989	0.671730	0.706558
N75	N	0.895032	0.171759	-0.206540
N76	N	1.395032	0.671759	0.293460
C77	C	0.945986	0.084894	0.248278
C78	C	1.445986	0.584894	0.748278
C79	C	0.945990	0.084893	0.331730
C80	C	1.445990	0.584893	0.831730
C81	C	0.895001	0.171735	0.373461
C82	C	1.395001	0.671735	0.873461
C83	C	0.843999	0.258576	0.331735
C84	C	1.343999	0.758576	0.831735
C85	C	0.843991	0.258570	0.248284
C86	C	1.343991	0.758570	0.748284
C87	C	0.844026	0.258601	0.668282
C88	C	1.344026	0.758601	1.168282
C89	C	0.844039	0.258603	0.751739
C90	C	1.344039	0.758603	1.251739
C91	C	0.946025	0.084924	0.751728
C92	C	1.446025	0.584924	1.251728
C93	C	0.946017	0.084918	0.668277
C94	C	1.446017	0.584918	1.168277
C95	C	0.895013	0.171753	0.626559
C96	C	1.395013	0.671753	1.126559
C97	C	0.895008	0.171752	0.536070
C98	C	1.395008	0.671752	1.036070
C99	C	0.895008	0.171744	0.463948
C100	C	1.395008	0.671744	0.963948
H101	H	0.665330	0.179042	-0.131116
H102	H	1.165330	0.679042	0.368884
H103	H	0.987540	0.014207	0.634303
H104	H	1.487540	0.514207	1.134303
O105	O	0.995494	0.000608	0.792379
O106	O	1.495494	0.500608	1.292379
C107	C	0.984581	0.019245	0.874983
C108	C	1.484581	0.519245	1.374983
H109	H	0.924670	0.067040	0.886392
H110	H	1.424670	0.567040	1.386392
H111	H	0.992484	-0.077367	0.906703
H112	H	1.492484	0.422633	1.406703
H113	H	1.027765	0.083129	0.898650
H114	H	1.527765	0.583129	1.398650
H115	H	0.962624	-0.263434	-0.120601
H116	H	1.462624	0.236566	0.379399
H117	H	0.267928	0.168323	0.131122
H118	H	0.767928	0.668323	0.631122
H119	H	0.124682	0.164459	0.131122
H120	H	0.624682	0.664459	0.631122
H121	H	0.802478	0.329280	0.365717
H122	H	1.302478	0.829280	0.865717
O123	O	0.751877	-0.209300	0.000218
O124	O	1.251877	0.290700	0.500218
C125	C	0.713524	-0.244105	0.069259
C126	C	1.213524	0.255895	0.569259
H127	H	0.756784	-0.277642	0.117191
H128	H	1.256784	0.222358	0.617191
H129	H	0.675057	-0.157754	0.092071
H130	H	1.175057	0.342246	0.592071
H131	H	0.677716	-0.325060	0.054343
H132	H	1.177716	0.174940	0.554343
O133	O	0.821285	-0.399057	0.131216
O134	O	1.321285	0.100943	0.631216
C135	C	0.757838	-0.460674	0.107750
C136	C	1.257838	0.039326	0.607750
H137	H	0.767150	-0.500014	0.044766
H138	H	1.267150	-0.000014	0.544766
H139	H	0.750330	-0.542865	0.150505
H140	H	1.250330	-0.042865	0.650505
H141	H	0.704729	-0.388971	0.109004
H142	H	1.204729	0.111029	0.609004
H143	H	0.987514	0.014184	0.365698
H144	H	1.487514	0.514184	0.865698
O145	O	0.821291	-0.398648	-0.131245
O146	O	1.321291	0.101352	0.368755
C147	C	0.746150	-0.338584	-0.130984
C148	C	1.246150	0.161416	0.369016
H149	H	0.743006	-0.248381	-0.092714
H150	H	1.243006	0.251619	0.407286
H151	H	0.728161	-0.311627	-0.194555
H152	H	1.228161	0.188373	0.305445
H153	H	0.706521	-0.407173	-0.105474
H154	H	1.206521	0.092827	0.394526
H155	H	0.124710	0.164470	-0.131116
H156	H	0.624710	0.664470	0.368884
H157	H	0.987510	0.014182	0.214306
H158	H	1.487510	0.514182	0.714306
H159	H	0.802514	0.329322	0.785714
H160	H	1.302514	0.829322	1.285714
O161	O	0.968635	-0.257741	0.131356
O162	O	1.468635	0.242259	0.631356
C163	C	1.032521	-0.197149	0.108034
C164	C	1.532521	0.302851	0.608034
H165	H	1.023636	-0.158003	0.044951
H166	H	1.523636	0.341997	0.544951
H167	H	1.040260	-0.114939	0.150684
H168	H	1.540260	0.385061	0.650684
H169	H	1.085325	-0.269505	0.109608
H170	H	1.585325	0.230495	0.609608
H171	H	1.026582	-0.437200	0.000086
H172	H	1.526582	0.062800	0.500086
O173	O	0.794459	0.343078	0.627887
O174	O	1.294459	0.843078	1.127887
C175	C	0.749448	0.419707	0.682618
C176	C	1.249448	0.919707	1.182618
H177	H	0.780495	0.421082	0.742095
H178	H	1.280495	0.921082	1.242095
H179	H	0.738450	0.521593	0.658501
H180	H	1.238450	1.021593	1.158501
H181	H	0.693004	0.378413	0.691514
H182	H	1.193004	0.878413	1.191514
O183	O	0.794531	0.343101	0.207790
O184	O	1.294531	0.843101	0.707790
C185	C	0.807506	0.469341	0.228179
C186	C	1.307506	0.969341	0.728179
H187	H	0.868104	0.469839	0.251106
H188	H	1.368104	0.969839	0.751106
H189	H	0.799141	0.533366	0.173293
H190	H	1.299141	1.033366	0.673293
H191	H	0.765764	0.506897	0.276624
H192	H	1.265764	1.006897	0.776624
O193	O	0.671397	0.179143	0.142548
O194	O	1.171397	0.679143	0.642548
C195	C	0.619611	0.177770	0.206333
C196	C	1.119611	0.677770	0.706333
H197	H	0.566246	0.135893	0.185145
H198	H	1.066246	0.635893	0.685145
H199	H	0.646888	0.116478	0.256879
H200	H	1.146888	0.616478	0.756879
H201	H	0.603825	0.279826	0.228554
H202	H	1.103825	0.779826	0.728554
O203	O	0.515766	0.175064	-0.142399
O204	O	1.015766	0.675064	0.357601
C205	C	0.437612	0.172929	-0.126904
C206	C	0.937612	0.672929	0.373096
H207	H	0.423907	0.212999	-0.064795
H208	H	0.923907	0.712999	0.435205
H209	H	0.403140	0.234024	-0.173061
H210	H	0.903140	0.734024	0.326939
H211	H	0.422592	0.070040	-0.130326
H212	H	0.922592	0.570040	0.369674
H213	H	0.267946	0.168315	-0.131118
H214	H	0.767946	0.668315	0.368882
O215	O	0.515848	0.174763	0.142459
O216	O	1.015848	0.674763	0.642459
C217	C	0.478145	0.063116	0.146780
C218	C	0.978145	0.563116	0.646780
H219	H	0.507517	-0.013407	0.105764
H220	H	1.007517	0.486593	0.605764
H221	H	0.479932	0.026015	0.210698
H222	H	0.979932	0.526015	0.710698
H223	H	0.416501	0.086459	0.127374
H224	H	0.916501	0.586459	0.627374
