data_functionalizedCrystal
_audit_creation_method	'MofGen! by Chris Wilmer'
_symmetry_space_group_name_H-M	'P1'
_symmetry_Int_Tables_number	1
_symmetry_cell_setting	triclinic
loop_
_symmetry_equiv_pos_as_xyz
  x,y,z
_cell_length_a	10.654541
_cell_length_b	11.792241
_cell_length_c	9.730217
_cell_angle_alpha	89.996588
_cell_angle_beta	89.999932
_cell_angle_gamma	84.338672
loop_
_atom_site_label
_atom_site_type_symbol
_atom_site_fract_x
_atom_site_fract_y
_atom_site_fract_z
O1	O	1.667388	0.159405	-0.114248
O2	O	1.301866	0.174596	-0.114261
O3	O	1.493497	0.001850	-0.114245
O4	O	1.475756	0.332151	-0.114264
O5	O	1.493491	0.001849	0.114336
O6	O	1.301860	0.174595	0.114320
O7	O	1.667382	0.159403	0.114332
Zn8	Zn	1.484620	0.166999	0.150618
Zn9	Zn	1.484628	0.167001	-0.150547
O10	O	1.475750	0.332149	0.114316
C11	C	1.255068	0.173481	0.000028
C12	C	1.115634	0.170145	0.000024
C13	C	1.087078	0.376710	-0.000006
C14	C	1.007297	0.478420	-0.000026
C15	C	0.876287	0.475279	-0.000027
C16	C	0.825059	0.370416	-0.000004
C17	C	0.904841	0.268706	0.000016
C18	C	1.035851	0.271858	0.000013
C19	C	0.933396	0.062144	0.000056
C20	C	1.064405	0.065282	0.000047
C21	C	0.882167	-0.042719	0.000079
C22	C	0.961949	-0.144432	0.000089
C23	C	1.092966	-0.141286	0.000089
C24	C	1.144187	-0.036428	0.000067
C25	C	1.492380	-0.040444	0.000045
C26	C	1.489044	-0.166465	0.000044
C27	C	1.482911	-0.397192	0.000020
C28	C	1.486319	-0.268799	0.000033
C29	C	1.714180	0.160519	0.000040
C30	C	1.853614	0.163854	0.000035
C31	C	1.476868	0.374443	0.000023
C32	C	1.480203	0.500465	0.000015
N33	N	1.484624	0.166997	0.356154
N34	N	1.484634	0.166994	-0.356083
C35	C	1.654383	0.014075	0.356159
C36	C	1.739271	-0.062382	0.428101
C37	C	1.739283	-0.062383	0.571981
C38	C	1.654397	0.014080	0.643922
C39	C	1.569509	0.090537	0.571979
C40	C	1.569508	0.090532	0.428096
C41	C	1.399746	0.243451	0.571975
C42	C	1.399737	0.243459	0.428095
C43	C	1.314859	0.319914	0.643916
C44	C	1.229975	0.396379	0.571973
C45	C	1.229966	0.396377	0.428085
C46	C	1.314849	0.319917	0.356153
H47	H	0.775491	-0.045269	0.000086
C48	C	1.654384	0.014076	0.197887
N49	N	1.654387	0.014074	0.078675
H50	H	1.157918	-0.224112	0.000111
H51	H	0.920227	-0.229803	0.000107
C52	C	1.314859	0.319897	0.802187
N53	N	1.314856	0.319883	0.921400
H54	H	1.250860	-0.033857	0.000051
C55	C	1.832622	-0.146505	0.348956
N56	N	1.902926	-0.209874	0.289347
C57	C	1.832663	-0.146490	0.651120
N58	N	1.902998	-0.209838	0.710727
H59	H	1.654402	0.014065	0.761076
C60	C	1.231191	0.380174	-0.000018
N61	N	1.339738	0.382787	-0.000027
C62	C	0.680944	0.366967	0.000010
N63	N	0.572396	0.364368	0.000019
C64	C	1.136600	0.480469	0.651117
N65	N	1.066268	0.543807	0.710733
C66	C	1.136601	0.480507	0.348960
N67	N	1.066286	0.543883	0.289368
H68	H	1.049022	0.563797	-0.000041
C69	C	0.788525	0.587165	-0.000049
N70	N	0.722422	0.671438	-0.000068
C71	C	1.314846	0.319906	0.197881
N72	N	1.314844	0.319891	0.078669
