data_functionalizedCrystal
_audit_creation_method	'MofGen! by Chris Wilmer'
_symmetry_space_group_name_H-M	'P1'
_symmetry_Int_Tables_number	1
_symmetry_cell_setting	triclinic
loop_
_symmetry_equiv_pos_as_xyz
  x,y,z
_cell_length_a	19.188905
_cell_length_b	10.654554
_cell_length_c	9.130313
_cell_angle_alpha	89.997363
_cell_angle_beta	89.992651
_cell_angle_gamma	83.810699
loop_
_atom_site_label
_atom_site_type_symbol
_atom_site_fract_x
_atom_site_fract_y
_atom_site_fract_z
O1	O	0.927178	0.156624	-0.122045
O2	O	1.427178	0.656624	0.377955
O3	O	0.724003	0.177762	-0.121996
O4	O	1.224003	0.677762	0.378004
O5	O	0.830260	-0.015645	-0.122007
O6	O	1.330260	0.484355	0.377993
O7	O	0.820920	0.350032	-0.122034
O8	O	1.320920	0.850032	0.377966
O9	O	0.830259	-0.015640	0.121592
O10	O	1.330259	0.484360	0.621592
O11	O	0.724001	0.177767	0.121603
O12	O	1.224001	0.677767	0.621603
O13	O	0.927176	0.156629	0.121553
O14	O	1.427176	0.656629	0.621553
Cu15	Cu	0.825589	0.167199	0.143821
Cu16	Cu	1.325589	0.667199	0.643821
Cu17	Cu	0.825590	0.167193	-0.144263
Cu18	Cu	1.325590	0.667193	0.355737
O19	O	0.820919	0.350037	0.121564
O20	O	1.320919	0.850037	0.621564
C21	C	0.829573	-0.062426	-0.000207
C22	C	1.329573	0.437574	0.499793
C23	C	0.827519	-0.201825	-0.000204
C24	C	1.327519	0.298175	0.499796
C25	C	0.697986	0.177085	-0.000190
C26	C	1.197986	0.677085	0.499810
C27	C	0.620467	0.175046	-0.000171
C28	C	1.120467	0.675046	0.499829
C29	C	0.761095	-0.382971	-0.000220
C30	C	1.261095	0.117029	0.499780
C31	C	0.763024	-0.251990	-0.000202
C32	C	1.263024	0.248010	0.499798
C33	C	0.890089	-0.282648	-0.000239
C34	C	1.390089	0.217352	0.499761
C35	C	0.888159	-0.413626	-0.000268
C36	C	1.388159	0.086374	0.499732
C37	C	0.687734	-0.365269	-0.000192
C38	C	1.187734	0.134731	0.499808
C39	C	0.689663	-0.234289	-0.000174
C40	C	1.189663	0.265711	0.499826
C41	C	0.584070	0.174064	-0.132960
C42	C	1.084070	0.674064	0.367040
C43	C	0.511234	0.172134	-0.132978
C44	C	1.011234	0.672134	0.367022
C45	C	0.474799	0.171161	-0.000199
C46	C	0.974799	0.671161	0.499801
C47	C	0.511205	0.172151	0.132608
C48	C	1.011205	0.672151	0.632608
C49	C	0.584039	0.174093	0.132622
C50	C	1.084039	0.674093	0.632622
N51	N	0.365290	0.096650	0.098621
N52	N	0.865290	0.596650	0.598621
N53	N	0.296101	0.094802	0.098598
N54	N	0.796101	0.594802	0.598598
C55	C	0.255354	0.165311	-0.000234
C56	C	0.755354	0.665311	0.499766
N57	N	0.286411	0.237722	-0.099066
N58	N	0.786411	0.737722	0.400934
N59	N	0.355607	0.239565	-0.099047
N60	N	0.855607	0.739565	0.400953
C61	C	0.395823	0.169056	-0.000200
C62	C	0.895823	0.669056	0.499800
C63	C	0.139979	0.162238	-0.133052
C64	C	0.639979	0.662238	0.366948
C65	C	0.067141	0.160316	-0.133065
C66	C	0.567141	0.660316	0.366935
C67	C	0.067115	0.160320	0.132525
C68	C	0.567115	0.660320	0.632525
C69	C	0.139951	0.162255	0.132534
C70	C	0.639951	0.662255	0.632534
C71	C	0.176379	0.163208	-0.000259
C72	C	0.676379	0.663208	0.499741
C73	C	0.953193	0.157306	-0.000256
C74	C	1.453193	0.657306	0.499744
C75	C	1.030712	0.159345	-0.000285
C76	C	1.530712	0.659345	0.499715
C77	C	0.821606	0.396817	-0.000239
C78	C	1.321606	0.896817	0.499761
C79	C	0.823660	0.536217	-0.000251
C80	C	1.323660	1.036217	0.499749
N81	N	0.825593	0.167202	0.346443
N82	N	1.325593	0.667202	0.846443
N83	N	0.825592	0.167179	-0.346886
N84	N	1.325592	0.667179	0.153114
C85	C	0.872656	0.081590	0.423090
C86	C	1.372656	0.581590	0.923090
C87	C	0.872654	0.081575	0.576427
C88	C	1.372654	0.581575	1.076427
C89	C	0.778524	0.252795	0.576456
C90	C	1.278524	0.752795	1.076456
C91	C	0.778523	0.252803	0.423122
C92	C	1.278523	0.752803	0.923122
C93	C	0.927003	-0.017259	0.423075
C94	C	1.427003	0.482741	0.923075
C95	C	0.927001	-0.017274	0.576412
C96	C	1.427001	0.482726	1.076412
H97	H	0.939106	-0.479420	-0.000310
H98	H	1.439106	0.020580	0.499690
F99	F	0.958730	-0.229255	-0.000259
F100	F	1.458730	0.270745	0.499741
F101	F	0.650234	-0.402825	-0.133433
F102	F	1.150234	0.097175	0.366567
H103	H	0.613673	0.174894	0.240759
H104	H	1.113673	0.674894	0.740759
H105	H	0.740200	0.322489	0.638905
H106	H	1.240200	0.822489	1.138905
H107	H	0.915082	-0.113537	0.381465
H108	H	1.415082	0.386463	0.881465
F109	F	0.653538	-0.178964	0.133094
F110	F	1.153538	0.321036	0.633094
H111	H	0.169640	0.163027	-0.241180
H112	H	0.669640	0.663027	0.258820
H113	H	0.980654	0.003100	0.618013
H114	H	1.480654	0.503100	1.118013
F115	F	0.993255	0.021322	0.360885
F116	F	1.493255	0.521322	0.860885
F117	F	0.660692	-0.173980	-0.137635
F118	F	1.160692	0.326020	0.362365
H119	H	0.910038	-0.108135	0.623970
H120	H	1.410038	0.391865	1.123970
H121	H	0.664367	-0.400423	0.104979
H122	H	1.164367	0.099577	0.604979
F123	F	0.728425	0.343907	0.341549
F124	F	1.228425	0.843907	0.841549
F125	F	0.622835	0.175083	-0.274291
F126	F	1.122835	0.675083	0.225709
H127	H	0.481593	0.171336	-0.241115
H128	H	0.981593	0.671336	0.258885
F129	F	0.028343	0.159295	0.273840
F130	F	0.528343	0.659295	0.773840
H131	H	0.169587	0.163046	0.240665
H132	H	0.669587	0.663046	0.740665
F133	F	0.472428	0.171122	0.273921
F134	F	0.972428	0.671122	0.773921
F135	F	0.028404	0.159280	-0.274406
F136	F	0.528404	0.659280	0.225594
