data_functionalizedCrystal
_audit_creation_method	'MofGen! by Chris Wilmer'
_symmetry_space_group_name_H-M	'P1'
_symmetry_Int_Tables_number	1
_symmetry_cell_setting	triclinic
loop_
_symmetry_equiv_pos_as_xyz
  x,y,z
_cell_length_a	6.817900
_cell_length_b	17.329402
_cell_length_c	13.212919
_cell_angle_alpha	85.945506
_cell_angle_beta	73.701710
_cell_angle_gamma	76.974027
loop_
_atom_site_label
_atom_site_type_symbol
_atom_site_fract_x
_atom_site_fract_y
_atom_site_fract_z
V1	V	4.036609	-0.086133	-0.318029
O2	O	4.031907	0.028090	-0.321775
O3	O	3.980391	-0.193823	-0.306428
O4	O	3.996001	-0.074299	-0.461032
O5	O	4.016189	-0.092261	-0.166101
V6	V	4.520240	-0.073713	-0.301002
O7	O	4.297630	-0.113379	-0.355379
O8	O	4.709416	-0.046467	-0.263652
O9	O	4.353251	0.033977	-0.312602
O10	O	4.642339	-0.187936	-0.297256
O11	O	4.658057	-0.067584	-0.452930
O12	O	4.337641	-0.085547	-0.157999
C13	C	3.823238	-0.220404	-0.298979
C14	C	3.858612	-0.308374	-0.290448
C15	C	3.919846	-0.354162	-0.381659
C16	C	3.953061	-0.436818	-0.373633
C17	C	3.925055	-0.473686	-0.274395
C18	C	3.863809	-0.427892	-0.183177
C19	C	3.830581	-0.345236	-0.191204
C20	C	4.023137	-0.723027	-0.245395
C21	C	4.056376	-0.805689	-0.237375
C22	C	4.145622	-0.814609	-0.427832
C23	C	4.112402	-0.731953	-0.435850
C24	C	4.051149	-0.686166	-0.344632
C25	C	3.959011	-0.558174	-0.266189
C26	C	4.017179	-0.601679	-0.352839
C27	C	3.843149	-0.067938	-0.496191
C28	C	3.891179	-0.058975	-0.613035
C29	C	4.053239	-0.184849	-0.850004
C30	C	4.098369	-0.176431	-0.959790
C31	C	4.026587	-0.033722	-0.942395
C32	C	3.981456	-0.042140	-0.832609
C33	C	3.994782	-0.117706	-0.786418
C34	C	3.949636	-0.126123	-0.676629
C35	C	3.877869	0.016585	-0.659237
C36	C	3.923000	0.025003	-0.769023
C37	C	4.153835	-0.091911	-0.122834
C38	C	4.085043	-0.100870	-0.005990
C39	C	4.173746	0.060554	-0.320048
C40	C	4.117610	0.148523	-0.328586
H41	H	4.195492	-0.851898	-0.502097
H42	H	3.780710	-0.307957	-0.116929
H43	H	3.912165	0.086526	-0.806647
H44	H	4.039970	-0.571657	-0.433638
H45	H	4.002921	-0.474095	-0.447907
H46	H	3.830244	0.071258	-0.607452
C47	C	4.067883	-0.267970	-0.799191
N48	N	4.078917	-0.330579	-0.760920
H49	H	3.936220	-0.588201	-0.185389
H50	H	3.840997	-0.457915	-0.102375
C51	C	3.955761	-0.672672	-0.145051
N52	N	3.905007	-0.634742	-0.069467
C53	C	3.964304	-0.209246	-0.625821
N54	N	3.975364	-0.271857	-0.587555
C55	C	4.162652	-0.250293	-1.029731
N56	N	4.211066	-0.305930	-1.082411
C57	C	4.025551	-0.846241	-0.128201
N58	N	4.002335	-0.876785	-0.045975
C59	C	4.143175	-0.691404	-0.545019
N60	N	4.166347	-0.660863	-0.627246
H61	H	4.015766	0.027800	-0.980024
H62	H	3.942683	-0.324151	-0.462470
