data_functionalizedCrystal
_audit_creation_method	'MofGen! by Chris Wilmer'
_symmetry_space_group_name_H-M	'P1'
_symmetry_Int_Tables_number	1
_symmetry_cell_setting	triclinic
loop_
_symmetry_equiv_pos_as_xyz
  x,y,z
_cell_length_a	19.121063
_cell_length_b	14.908795
_cell_length_c	14.908308
_cell_angle_alpha	89.788666
_cell_angle_beta	95.554627
_cell_angle_gamma	95.893289
loop_
_atom_site_label
_atom_site_type_symbol
_atom_site_fract_x
_atom_site_fract_y
_atom_site_fract_z
Zn1	Zn	-0.246874	1.331013	-0.600507
Zn2	Zn	-0.357738	1.333172	-0.455839
Zn3	Zn	-0.246109	1.189371	-0.441439
Zn4	Zn	-0.371252	1.173415	-0.598155
O5	O	-0.305493	1.256743	-0.523985
O6	O	-0.256245	1.457436	-0.588328
O7	O	-0.336954	1.321678	-0.327799
O8	O	-0.147441	1.213934	-0.457498
O9	O	-0.337696	1.459022	-0.482041
O10	O	-0.148002	1.317998	-0.574364
O11	O	-0.254941	1.216027	-0.317219
O12	O	-0.268045	1.061118	-0.455216
O13	O	-0.360729	1.186740	-0.724597
O14	O	-0.359987	1.049395	-0.570355
O15	O	-0.269349	1.302526	-0.726325
O16	O	-0.458301	1.306206	-0.479760
O17	O	-0.468230	1.188833	-0.584318
C18	C	-0.315400	1.022550	-0.510968
C19	C	-0.319657	0.922360	-0.505422
C20	C	-0.367984	0.781982	-0.442174
C21	C	-0.363987	0.876120	-0.447385
C22	C	-0.279318	0.874454	-0.558250
C23	C	-0.283314	0.780316	-0.553039
C24	C	-0.327649	0.734083	-0.495000
C25	C	-0.331649	0.639943	-0.489794
C26	C	-0.246976	0.638279	-0.600654
C27	C	-0.242980	0.732417	-0.605865
C28	C	-0.488875	1.246045	-0.533368
C29	C	-0.567324	1.241550	-0.537416
C30	C	-0.598988	1.300589	-0.484930
C31	C	-0.672700	1.296366	-0.488744
C32	C	-0.714747	1.233099	-0.545038
C33	C	-0.683079	1.174056	-0.597530
C34	C	-0.609368	1.178284	-0.593721
C35	C	-0.937565	1.217277	-0.559265
C36	C	-1.011281	1.213052	-0.563068
C37	C	-1.000896	1.335363	-0.454282
C38	C	-0.927185	1.339582	-0.450474
C39	C	-0.895523	1.280543	-0.502969
C40	C	-0.790093	1.228778	-0.548935
C41	C	-0.820179	1.284868	-0.499076
C42	C	-0.121395	1.267505	-0.514587
C43	C	-0.042944	1.272091	-0.510582
C44	C	-0.316632	1.242612	-0.759079
C45	C	-0.321378	1.236591	-0.859263
C46	C	-0.295548	1.491849	-0.537053
C47	C	-0.291310	1.592038	-0.542622
C48	C	-0.235127	1.345842	-1.049318
C49	C	-0.239584	1.340188	-1.143449
C50	C	-0.334746	1.219622	-1.141657
C51	C	-0.330289	1.225277	-1.047526
C52	C	-0.280478	1.288390	-1.001360
C53	C	-0.276025	1.294049	-0.907228
C54	C	-0.371183	1.173480	-0.905437
C55	C	-0.375640	1.167825	-0.999568
C56	C	-0.294345	1.270873	-0.289805
C57	C	-0.289393	1.277081	-0.189622
H58	H	-0.396831	0.915116	-0.404368
H59	H	-0.408113	1.126700	-0.866380
H60	H	-0.206882	0.770073	-0.653116
H61	H	-0.785942	1.336384	-0.453245
H62	H	-0.194572	1.397236	-1.011729
H63	H	-0.564757	1.352105	-0.439085
H64	H	-0.416193	1.116439	-1.037169
H65	H	-0.404089	0.744338	-0.394924
H66	H	-0.235467	1.345440	-0.869641
H67	H	-0.375299	1.168239	-1.179262
H68	H	-0.243218	0.912114	-0.605497
H69	H	-0.367751	0.602302	-0.442539
H70	H	-0.214134	0.599270	-0.643670
H71	H	-0.698476	1.344442	-0.446003
H72	H	-0.911792	1.169204	-0.602007
H73	H	-0.824336	1.177264	-0.594769
H74	H	-0.202652	1.386969	-1.182493
H75	H	-0.892951	1.391100	-0.404634
H76	H	-1.026683	1.383431	-0.411545
H77	H	-1.045514	1.161541	-0.608926
H78	H	-0.717320	1.122546	-0.643371
H79	H	-0.583589	1.130209	-0.636462
