data_functionalizedCrystal
_audit_creation_method	'MofGen! by Chris Wilmer'
_symmetry_space_group_name_H-M	'P1'
_symmetry_Int_Tables_number	1
_symmetry_cell_setting	triclinic
loop_
_symmetry_equiv_pos_as_xyz
  x,y,z
_cell_length_a	17.000371
_cell_length_b	17.038272
_cell_length_c	14.421503
_cell_angle_alpha	89.999401
_cell_angle_beta	89.993068
_cell_angle_gamma	83.355402
loop_
_atom_site_label
_atom_site_type_symbol
_atom_site_fract_x
_atom_site_fract_y
_atom_site_fract_z
O1	O	1.057988	0.028038	0.077116
O2	O	0.828168	0.056283	0.077117
O3	O	0.941712	-0.071562	0.077109
O4	O	0.944444	0.155882	0.077124
O5	O	0.941728	-0.071555	-0.077114
O6	O	0.828184	0.056289	-0.077106
O7	O	1.058004	0.028044	-0.077108
Cu8	Cu	0.943095	0.042167	-0.091189
Cu9	Cu	0.943077	0.042159	0.091198
O10	O	0.944460	0.155889	-0.077100
C11	C	0.798625	0.057803	0.000006
C12	C	0.710572	0.062314	0.000006
C13	C	0.673845	-0.007108	-0.000000
C14	C	0.591110	-0.002864	0.000007
C15	C	0.545102	0.070802	0.000013
C16	C	0.581834	0.140229	0.000022
C17	C	0.664568	0.135985	0.000022
C18	C	0.295066	0.087196	0.000020
C19	C	0.212327	0.091434	0.000018
C20	C	0.221608	-0.051659	0.000004
C21	C	0.304344	-0.055897	-0.000002
C22	C	0.341068	0.013530	0.000012
C23	C	0.460533	0.075141	0.000017
C24	C	0.425636	0.009190	0.000015
C25	C	0.939235	-0.100516	-0.000002
C26	C	0.931823	-0.186802	-0.000002
C27	C	0.999881	-0.241577	-0.000003
C28	C	0.992911	-0.322650	0.000005
C29	C	0.917882	-0.348946	0.000009
C30	C	0.849819	-0.294164	0.000013
C31	C	0.856789	-0.213093	0.000011
C32	C	0.893256	-0.593018	0.000022
C33	C	0.886291	-0.674096	0.000021
C34	C	1.029384	-0.702577	0.000015
C35	C	1.036348	-0.621502	0.000007
C36	C	0.968285	-0.566727	0.000016
C37	C	0.910756	-0.431816	0.000015
C38	C	0.975411	-0.483859	0.000017
C39	C	1.087547	0.026524	0.000006
C40	C	1.175600	0.022013	0.000012
C41	C	0.946936	0.184843	0.000014
C42	C	0.954349	0.271129	0.000020
N43	N	0.943113	0.042172	-0.219470
C44	C	0.995628	-0.016956	-0.469103
C45	C	0.923017	-0.027148	-0.530900
C46	C	0.943095	0.042164	-0.408631
C47	C	1.015686	0.052312	-0.530928
C48	C	0.943084	0.042154	-0.591353
C49	C	0.870446	0.031939	-0.469068
C50	C	0.963164	0.111427	-0.469090
C51	C	0.890504	0.101268	-0.530860
C52	C	0.943103	0.042168	-0.303370
C53	C	0.943068	0.042151	-0.696612
N54	N	0.943064	0.042148	0.219480
H55	H	0.324957	0.143728	0.000038
Br56	Br	0.816370	0.184604	-0.575774
H57	H	0.544368	0.200209	0.000033
Br58	Br	0.768087	0.017512	-0.423978
H59	H	0.341798	-0.115883	-0.000011
Br60	Br	0.800883	-0.518690	0.000040
H61	H	1.036500	-0.462446	0.000035
H62	H	1.060978	-0.220174	-0.000012
Br63	Br	1.118010	0.066625	-0.576226
H64	H	0.980170	0.169985	-0.441920
Br65	Br	0.747992	-0.329850	0.000033
Br66	Br	0.714412	0.230204	0.000038
H67	H	0.711300	-0.067095	-0.000009
Br68	Br	1.085281	-0.396987	0.000004
H69	H	0.561211	-0.059395	0.000002
H70	H	1.040001	-0.066974	-0.441985
Br71	Br	0.894698	-0.124781	-0.576142
H72	H	0.191698	-0.108182	0.000004
H73	H	0.423064	0.135120	0.000021
H74	H	1.097445	-0.600099	0.000004
H75	H	1.084797	-0.747183	0.000010
Br76	Br	0.784459	-0.709782	0.000016
H77	H	0.174868	0.151425	0.000019
H78	H	0.463099	-0.050788	0.000015
H79	H	0.801369	-0.168494	0.000012
H80	H	0.849667	-0.453235	0.000016
