data_functionalizedCrystal
_audit_creation_method	'MofGen! by Chris Wilmer'
_symmetry_space_group_name_H-M	'P1'
_symmetry_Int_Tables_number	1
_symmetry_cell_setting	triclinic
loop_
_symmetry_equiv_pos_as_xyz
  x,y,z
_cell_length_a	10.489741
_cell_length_b	10.489741
_cell_length_c	9.565339
_cell_angle_alpha	90.000516
_cell_angle_beta	89.999100
_cell_angle_gamma	84.539174
loop_
_atom_site_label
_atom_site_type_symbol
_atom_site_fract_x
_atom_site_fract_y
_atom_site_fract_z
O1	O	1.694053	0.179959	-0.116173
O2	O	1.322857	0.196852	-0.116194
O3	O	1.516901	0.002807	-0.116175
O4	O	1.500009	0.374003	-0.116192
O5	O	1.516886	0.002819	0.116345
O6	O	1.322842	0.196864	0.116326
O7	O	1.694038	0.179971	0.116347
Zn8	Zn	1.508437	0.188419	0.153254
Zn9	Zn	1.508458	0.188403	-0.153101
O10	O	1.499993	0.374015	0.116328
C11	C	1.275318	0.195582	0.000063
C12	C	1.133688	0.191765	0.000055
C13	C	1.065548	0.068300	0.000074
C14	C	0.973429	0.126617	-0.114571
C15	C	0.973448	0.126659	0.114676
C16	C	1.043435	0.250133	-0.114684
C17	C	1.043463	0.250157	0.114665
C18	C	0.951371	0.308564	-0.000007
C19	C	1.515618	-0.044718	0.000084
C20	C	1.511801	-0.186348	0.000082
C21	C	1.388336	-0.254488	0.000064
C22	C	1.446652	-0.346604	0.114712
C23	C	1.446696	-0.346591	-0.114534
C24	C	1.570168	-0.276599	0.114824
C25	C	1.570195	-0.276576	-0.114525
C26	C	1.628600	-0.368665	0.000150
C27	C	1.741577	0.181241	0.000087
C28	C	1.883206	0.185058	0.000086
C29	C	1.501277	0.421541	0.000066
C30	C	1.505094	0.563170	0.000059
N31	N	1.508433	0.188429	0.362334
N32	N	1.508472	0.188383	-0.362180
C33	C	1.418666	0.278138	0.453528
C34	C	1.534163	0.303949	0.546712
C35	C	1.392986	0.162629	0.546704
C36	C	1.623988	0.214298	0.453466
C37	C	1.482735	0.072928	0.453451
C38	C	1.598314	0.098690	0.546593
H39	H	1.074269	0.302328	-0.211717
O40	O	1.080721	0.312452	0.230183
C41	C	1.214712	0.316161	0.227875
H42	H	1.250708	0.305069	0.115674
H43	H	1.239879	0.411695	0.271646
H44	H	1.261897	0.234720	0.294436
H45	H	1.286824	-0.204837	0.000174
H46	H	0.901947	0.410168	-0.000074
O47	O	1.384534	-0.383694	0.230437
C48	C	1.468286	-0.467847	0.310358
H49	H	1.571585	-0.451386	0.284749
H50	H	1.449611	-0.449183	0.426314
H51	H	1.451388	-0.571019	0.284641
H52	H	1.295338	0.140828	0.587664
H53	H	1.622356	-0.245762	0.211859
H54	H	0.942463	0.074401	0.211599
O55	O	1.328034	0.368647	0.404929
C56	C	1.206639	0.342453	0.454441
H57	H	1.218677	0.281709	0.553228
H58	H	1.146951	0.436297	0.479154
H59	H	1.156125	0.288176	0.370980
O60	O	1.689158	0.008294	0.594984
C61	C	1.810662	0.035939	0.547188
H62	H	1.807988	0.142218	0.521188
H63	H	1.885011	0.010931	0.632215
H64	H	1.837240	-0.022977	0.449517
O65	O	1.456509	-0.043489	0.404594
C66	C	1.334636	-0.070307	0.452046
H67	H	1.274955	0.023179	0.478254
H68	H	1.284672	-0.122866	0.366731
H69	H	1.345730	-0.132919	0.549520
O70	O	1.749730	-0.427825	0.000126
C71	C	1.744837	-0.561679	-0.001008
H72	H	1.649015	-0.585033	-0.045649
H73	H	1.825942	-0.608105	-0.068560
H74	H	1.755600	-0.600135	0.110266
H75	H	1.622398	-0.245536	-0.211451
H76	H	0.942421	0.074372	-0.211491
O77	O	1.740516	0.240654	0.405030
C78	C	1.767582	0.362052	0.453717
H79	H	1.709279	0.387349	0.552124
H80	H	1.874002	0.359990	0.478799
H81	H	1.741353	0.436980	0.369602
O82	O	1.384195	-0.383383	-0.230129
C83	C	1.257551	-0.324718	-0.229676
H84	H	1.252256	-0.234566	-0.162557
H85	H	1.227228	-0.298107	-0.341172
H86	H	1.190763	-0.394040	-0.184938
H87	H	1.555926	0.401606	0.587676
H88	H	1.115238	-0.033196	-0.000065
