data_functionalizedCrystal
_audit_creation_method	'MofGen! by Chris Wilmer'
_symmetry_space_group_name_H-M	'P1'
_symmetry_Int_Tables_number	1
_symmetry_cell_setting	triclinic
loop_
_symmetry_equiv_pos_as_xyz
  x,y,z
_cell_length_a	11.026607
_cell_length_b	15.995362
_cell_length_c	10.066280
_cell_angle_alpha	80.166133
_cell_angle_beta	97.678523
_cell_angle_gamma	83.958302
loop_
_atom_site_label
_atom_site_type_symbol
_atom_site_fract_x
_atom_site_fract_y
_atom_site_fract_z
O1	O	1.594304	-0.337278	-0.113443
O2	O	1.240994	-0.297351	-0.113450
O3	O	1.427298	-0.196881	-0.113456
O4	O	1.408000	-0.437748	-0.113437
O5	O	1.459058	-0.223575	0.113520
O6	O	1.272754	-0.324045	0.113526
O7	O	1.626064	-0.363971	0.113533
Zn8	Zn	1.454452	-0.348247	0.149567
Zn9	Zn	1.412607	-0.313076	-0.149484
O10	O	1.439760	-0.464442	0.113539
C11	C	1.211663	-0.303333	0.000037
C12	C	1.076947	-0.281375	0.000033
C13	C	1.442377	-0.178912	0.000027
C14	C	1.439975	-0.085599	0.000010
C15	C	1.003146	-0.342003	0.000037
C16	C	0.863909	-0.319310	0.000034
C17	C	1.431352	0.253449	-0.000016
C18	C	1.298595	0.226074	-0.000523
C19	C	1.301069	0.128962	-0.000003
C20	C	1.435629	0.085244	-0.000003
C21	C	1.519209	0.101214	0.129607
C22	C	1.515883	0.198341	0.129707
C23	C	1.482507	0.228642	-0.128408
C24	C	1.482243	0.131901	-0.130113
C25	C	1.438054	-0.009820	0.000008
C26	C	1.428932	0.348511	-0.000018
C27	C	1.655395	-0.357990	0.000043
C28	C	1.790110	-0.379946	0.000038
C29	C	1.424662	0.517593	0.000031
C30	C	1.427006	0.424292	-0.000029
N31	N	1.483019	-0.372250	0.353662
N32	N	1.384049	-0.289067	-0.353579
C33	C	1.444538	-0.339897	0.578619
C34	C	1.422521	-0.321413	0.421460
H35	H	1.043043	-0.410708	0.000051
Br36	Br	1.458930	0.221847	0.291190
H37	H	1.425377	0.267274	-0.226650
H38	H	0.824014	-0.250597	-0.000007
H39	H	1.037045	-0.212667	-0.000007
Br40	Br	1.309021	-0.226072	0.324307
Br41	Br	1.685106	0.051894	0.137648
H42	H	1.236625	0.119220	-0.092913
Br43	Br	1.465950	0.046424	0.290383
H44	H	0.830000	-0.448657	0.000052
Br45	Br	1.188512	0.288502	-0.155451
Br46	Br	1.596503	-0.467601	0.450811
Br47	Br	1.380797	0.116664	-0.289951
H48	H	1.258728	0.242757	0.091903
H49	H	1.579275	0.102669	-0.137939
H50	H	1.315958	-0.231869	0.588120
H51	H	1.262302	0.097957	0.093068
H52	H	1.614121	0.215214	0.135583
H53	H	1.580213	0.245760	-0.129284
H54	H	1.512619	-0.397101	0.636921
