data_functionalizedCrystal
_audit_creation_method	'MofGen! by Chris Wilmer'
_symmetry_space_group_name_H-M	'P1'
_symmetry_Int_Tables_number	1
_symmetry_cell_setting	triclinic
loop_
_symmetry_equiv_pos_as_xyz
  x,y,z
_cell_length_a	12.827893
_cell_length_b	29.839132
_cell_length_c	12.827885
_cell_angle_alpha	90.039035
_cell_angle_beta	89.980538
_cell_angle_gamma	89.954766
loop_
_atom_site_label
_atom_site_type_symbol
_atom_site_fract_x
_atom_site_fract_y
_atom_site_fract_z
Zn1	Zn	1.597455	0.178832	-0.590781
Zn2	Zn	1.597257	0.253969	-0.416014
Zn3	Zn	1.422695	0.178854	-0.416055
Zn4	Zn	1.422590	0.253936	-0.590713
O5	O	1.509999	0.216398	-0.503391
O6	O	1.743664	0.188804	-0.567609
O7	O	1.574062	0.244028	-0.269783
O8	O	1.446004	0.115984	-0.439279
O9	O	1.743519	0.244007	-0.439208
O10	O	1.574399	0.115968	-0.567649
O11	O	1.445813	0.188841	-0.269813
O12	O	1.276445	0.188809	-0.439213
O13	O	1.445825	0.243950	-0.736959
O14	O	1.276368	0.243971	-0.567534
O15	O	1.574297	0.188771	-0.737009
O16	O	1.573960	0.316832	-0.439142
O17	O	1.445633	0.316807	-0.567493
C18	C	1.238489	0.216389	-0.503371
C19	C	1.122336	0.216396	-0.503387
C20	C	1.070541	0.243735	-0.566787
C21	C	0.950491	0.243743	-0.566805
C22	C	1.509792	0.333120	-0.503329
C23	C	1.509800	0.383055	-0.503337
C24	C	1.576866	0.692698	-0.436613
C25	C	1.576966	0.880371	-0.436637
O26	O	1.633876	0.904636	-0.379888
N27	N	1.510109	0.903840	-0.503408
C28	C	1.443227	0.880387	-0.570183
O29	O	1.386370	0.904655	-0.626984
C30	C	1.443133	0.692715	-0.570163
C31	C	1.509987	0.669249	-0.503380
C32	C	1.643716	0.669232	-0.369837
C33	C	1.643686	0.622317	-0.369827
C34	C	1.576807	0.598867	-0.436595
C35	C	1.509958	0.622333	-0.503371
C36	C	1.376257	0.669263	-0.636943
C37	C	1.376241	0.622342	-0.636934
C38	C	1.443095	0.598876	-0.570151
C39	C	1.443049	0.551969	-0.570129
N40	N	1.509906	0.528500	-0.503358
C41	C	1.576785	0.551949	-0.436591
C42	C	1.443279	0.978918	-0.570186
C43	C	1.443301	1.025835	-0.570190
C44	C	1.577042	1.025816	-0.436645
C45	C	1.577014	0.978898	-0.436637
C46	C	1.510136	0.955449	-0.503415
C47	C	1.576717	0.453424	-0.436576
C48	C	1.576679	0.406504	-0.436570
C49	C	1.442942	0.406527	-0.570118
C50	C	1.442976	0.453443	-0.570120
C51	C	1.509872	0.476890	-0.503346
O52	O	1.386177	0.527675	-0.626857
O53	O	1.633649	0.527674	-0.379815
C54	C	1.576896	0.739614	-0.436622
C55	C	1.510046	0.763080	-0.503399
C56	C	1.443167	0.739630	-0.570166
C57	C	1.510068	0.809998	-0.503403
C58	C	1.576948	0.833447	-0.436635
C59	C	1.643805	0.809978	-0.369864
C60	C	1.643775	0.763063	-0.369855
C61	C	1.376310	0.763099	-0.636937
C62	C	1.376344	0.810014	-0.636940
C63	C	1.443223	0.833464	-0.570173
C64	C	1.782569	0.216407	-0.503411
C65	C	1.898723	0.216410	-0.503420
C66	C	1.510071	0.216354	-0.775961
C67	C	1.510102	0.216336	-0.892114
C68	C	1.510196	1.099219	-0.503454
C69	C	1.510180	1.049285	-0.503423
C70	C	1.446660	0.189023	-0.943914
C71	C	1.446691	0.189003	-1.063965
C72	C	1.509988	0.216408	-0.231881
C73	C	1.510160	0.216300	-0.115728
H74	H	1.631119	0.387399	-0.382183
H75	H	1.115074	0.267133	-0.621055
O76	O	1.381743	0.161126	-1.116983
C77	C	1.277539	0.170944	-1.090391
H78	H	1.275249	0.188197	-1.011105
H79	H	1.230740	0.138519	-1.086784
H80	H	1.242367	0.194054	-1.151779
H81	H	1.392319	0.165655	-0.899385
O82	O	1.641729	0.476126	-0.371610
C83	C	1.700735	0.445346	-0.312695
H84	H	1.657905	0.411923	-0.309047
H85	H	1.711933	0.458918	-0.230366
H86	H	1.780079	0.440307	-0.351028
O87	O	0.951962	0.188548	-0.438608
C88	C	1.015005	0.214113	-0.371032
H89	H	1.031215	0.248183	-0.407752
H90	H	1.091822	0.195832	-0.357163
H91	H	0.972958	0.218995	-0.293536
H92	H	1.631453	0.959794	-0.382258
O93	O	1.378386	1.048697	-0.634959
C94	C	1.392757	1.095138	-0.620676
H95	H	1.427024	1.101561	-0.540060
H96	H	1.314484	1.112998	-0.627706
H97	H	1.448382	1.108407	-0.682712
O98	O	0.897474	0.271644	-0.631710
C99	C	0.924113	0.261878	-0.735926
H100	H	1.003415	0.244635	-0.738225
H101	H	0.927709	0.294324	-0.782650
H102	H	0.862759	0.238777	-0.771173
H103	H	1.564481	0.239684	-1.071189
O104	O	1.378134	0.383722	-0.635086
C105	C	1.437598	0.356528	-0.702597
H106	H	1.519902	0.370635	-0.709118
H107	H	1.399770	0.355979	-0.782990
H108	H	1.441207	0.320980	-0.670274
O109	O	1.069381	0.188436	-0.438612
C110	C	1.140849	0.163024	-0.379639
H111	H	1.218704	0.161455	-0.422366
H112	H	1.109279	0.127637	-0.368677
H113	H	1.152353	0.179431	-0.300190
O114	O	1.708821	0.740341	-0.304953
C115	C	1.767830	0.771107	-0.246015
H116	H	1.771432	0.804534	-0.288835
H117	H	1.850169	0.757523	-0.234936
H118	H	1.729608	0.776140	-0.166615
H119	H	1.631498	1.044917	-0.382281
H120	H	1.698257	0.829079	-0.315497
H121	H	1.698128	0.603213	-0.315450
H122	H	1.698183	0.688320	-0.315466
H123	H	1.388817	0.959829	-0.624567
O124	O	1.311284	0.691981	-0.701919
C125	C	1.252247	0.661214	-0.760825
H126	H	1.295040	0.627751	-0.764458
H127	H	1.241068	0.674742	-0.843160
H128	H	1.172895	0.656270	-0.722494
H129	H	1.321782	0.603252	-0.691316
H130	H	1.388541	0.472550	-0.624504
O131	O	1.311362	0.832737	-0.701916
C132	C	1.252315	0.801973	-0.760822
H133	H	1.295099	0.768508	-0.764457
H134	H	1.241138	0.815502	-0.843156
H135	H	1.172963	0.797033	-0.722489
O136	O	1.311484	0.740304	-0.701907
C137	C	1.370908	0.713106	-0.769444
H138	H	1.453223	0.727200	-0.775980
H139	H	1.333060	0.712571	-0.849829
H140	H	1.374493	0.677555	-0.737139
O141	O	1.575077	0.244195	-0.945110
C142	C	1.679267	0.234386	-0.918550
H143	H	1.681517	0.217159	-0.839289
H144	H	1.726065	0.266812	-0.914905
H145	H	1.714471	0.211257	-0.979977
