data_functionalizedCrystal
_audit_creation_method	'MofGen! by Chris Wilmer'
_symmetry_space_group_name_H-M	'P1'
_symmetry_Int_Tables_number	1
_symmetry_cell_setting	triclinic
loop_
_symmetry_equiv_pos_as_xyz
  x,y,z
_cell_length_a	23.532407
_cell_length_b	14.971486
_cell_length_c	22.610064
_cell_angle_alpha	89.986154
_cell_angle_beta	89.996322
_cell_angle_gamma	96.768597
loop_
_atom_site_label
_atom_site_type_symbol
_atom_site_fract_x
_atom_site_fract_y
_atom_site_fract_z
O1	O	0.755721	-0.108591	0.049111
O2	O	0.589925	-0.124301	0.049129
O3	O	0.677267	0.013801	0.049115
O4	O	0.668379	-0.246693	0.049124
O5	O	0.677266	0.013830	-0.049254
O6	O	0.589924	-0.124273	-0.049241
O7	O	0.755720	-0.108562	-0.049258
Zn8	Zn	0.672822	-0.116413	-0.064868
Zn9	Zn	0.672823	-0.116450	0.064738
O10	O	0.668378	-0.246664	-0.049245
C11	C	0.568707	-0.123887	-0.000054
C12	C	0.505485	-0.122684	-0.000047
N13	N	0.672825	-0.116387	-0.153320
C14	C	0.676869	0.047136	-0.000069
C15	C	0.675678	0.146420	-0.000069
C16	C	0.106699	-0.196866	-0.000071
C17	C	0.047294	-0.195748	-0.000075
O18	O	0.010844	-0.264516	-0.000094
N19	N	0.024317	-0.113647	-0.000077
C20	C	0.060747	-0.032657	-0.000081
O21	O	0.035748	0.037280	-0.000084
C22	C	0.120151	-0.033775	-0.000082
C23	C	0.143125	-0.115882	-0.000074
C24	C	0.129674	-0.278966	-0.000064
C25	C	0.189075	-0.280083	-0.000059
C26	C	0.225501	-0.199100	-0.000062
C27	C	0.202526	-0.116999	-0.000069
C28	C	0.156581	0.047213	-0.000091
C29	C	0.215988	0.046088	-0.000092
C30	C	0.238962	-0.036019	-0.000084
C31	C	0.298353	-0.037133	-0.000067
N32	N	0.321331	-0.119235	-0.000065
C33	C	0.284905	-0.200218	-0.000063
C34	C	-0.064005	-0.030315	-0.000081
C35	C	-0.123408	-0.029195	-0.000076
C36	C	-0.136857	-0.192287	-0.000071
C37	C	-0.077453	-0.193405	-0.000072
C38	C	-0.041028	-0.112416	-0.000079
C39	C	0.409652	-0.202558	-0.000052
C40	C	0.469059	-0.203667	-0.000045
C41	C	0.482502	-0.040576	-0.000053
C42	C	0.423101	-0.039466	-0.000057
C43	C	0.386676	-0.120464	-0.000059
O44	O	0.334838	0.031598	-0.000050
O45	O	0.309913	-0.270143	-0.000068
C46	C	0.776939	-0.108976	-0.000074
C47	C	0.840161	-0.110179	-0.000077
C48	C	0.668776	-0.279999	-0.000059
C49	C	0.669968	-0.379284	-0.000056
C50	C	0.726989	0.204188	-0.000074
C51	C	0.725866	0.297475	-0.000068
C52	C	0.673432	0.332994	-0.000061
C53	C	0.622117	0.275219	-0.000053
C54	C	0.623241	0.181933	-0.000055
C55	C	0.619780	0.469657	-0.000051
C56	C	0.618657	0.562949	-0.000050
C57	C	0.722406	0.585199	-0.000064
C58	C	0.723529	0.491913	-0.000066
C59	C	0.672214	0.434145	-0.000059
N60	N	0.672825	-0.116469	0.153190
C61	C	0.707336	-0.170518	0.438033
C62	C	0.707337	-0.170524	0.376113
O63	O	0.736691	-0.216502	0.344089
N64	N	0.672833	-0.116441	0.345143
C65	C	0.638332	-0.062343	0.376096
O66	O	0.608985	-0.016341	0.344068
C67	C	0.638335	-0.062333	0.438015
C68	C	0.672836	-0.116426	0.468981
C69	C	0.741835	-0.224606	0.468999
C70	C	0.741834	-0.224601	0.530915
C71	C	0.707334	-0.170509	0.561864
C72	C	0.672835	-0.116421	0.530897
C73	C	0.603837	-0.008230	0.468967
C74	C	0.603844	-0.008224	0.530890
C75	C	0.638345	-0.062317	0.561857
C76	C	0.638334	-0.062324	0.623762
N77	N	0.672837	-0.116407	0.654732
C78	C	0.707337	-0.170499	0.623783
C79	C	0.638329	-0.062366	0.246062
C80	C	0.638322	-0.062380	0.184145
C81	C	0.707328	-0.170560	0.184166
C82	C	0.707331	-0.170550	0.246085
C83	C	0.672832	-0.116449	0.277032
C84	C	0.707331	-0.170486	0.753810
C85	C	0.707325	-0.170479	0.815731
C86	C	0.638322	-0.062296	0.815705
C87	C	0.638326	-0.062306	0.753789
C88	C	0.672835	-0.116403	0.722843
O89	O	0.608996	-0.016367	0.655825
O90	O	0.736685	-0.216484	0.655818
H91	H	0.380002	-0.268514	-0.000055
H92	H	0.577994	0.422623	-0.000044
H93	H	0.581458	0.134899	-0.000050
H94	H	0.610232	-0.018258	0.840914
H95	H	0.404394	0.027392	-0.000055
O96	O	0.740880	-0.222964	0.276229
C97	C	0.779775	-0.168213	0.312015
H98	H	0.762095	-0.101918	0.321283
H99	H	0.786102	-0.204144	0.355562
H100	H	0.822576	-0.154307	0.288141
H101	H	0.735419	-0.214606	0.158956
H102	H	0.245644	0.112041	-0.000098
O103	O	0.774477	0.457453	0.000030
C104	C	0.805769	0.487013	0.050965
H105	H	0.775111	0.506135	0.086578
H106	H	0.830036	0.430703	0.068061
H107	H	0.837464	0.548102	0.039443
O108	O	0.570312	0.044403	0.438985
C109	C	0.539837	0.092100	0.479587
H110	H	0.563399	0.097418	0.523729
H111	H	0.536345	0.162443	0.461701
H112	H	0.495126	0.055010	0.486163
H113	H	0.579425	0.304145	-0.000043
H114	H	0.735420	-0.214532	0.840942
H115	H	0.610221	-0.018343	0.158937
H116	H	0.764188	0.632239	-0.000068
H117	H	0.735432	-0.214536	0.728621
O118	O	0.777875	0.169540	-0.000108
C119	C	0.767866	0.074816	-0.000093
H120	H	0.723439	0.052517	-0.018714
H121	H	0.801423	0.046482	-0.028656
H122	H	0.770643	0.048852	0.047099
O123	O	0.604755	-0.009795	0.276031
C124	C	0.574315	0.037948	0.235413
H125	H	0.570977	0.000883	0.191285
H126	H	0.529545	0.043274	0.253300
H127	H	0.597806	0.108292	0.228808
H128	H	-0.166526	-0.258228	-0.000072
H129	H	0.769930	-0.268645	0.556123
H130	H	0.575960	0.591865	-0.000053
H131	H	0.769932	-0.268654	0.443807
O132	O	0.570295	0.044201	0.561016
C133	C	0.531403	-0.010541	0.596833
H134	H	0.549083	-0.076834	0.606125
H135	H	0.525078	0.025399	0.640366
H136	H	0.488600	-0.024454	0.572972
H137	H	-0.142108	0.037664	-0.000074
O138	O	0.491445	-0.283372	-0.000113
C139	C	0.525403	-0.288901	-0.051061
H140	H	0.540145	-0.218266	-0.068053
H141	H	0.564327	-0.324200	-0.039594
H142	H	0.499197	-0.328706	-0.086735
O143	O	0.604793	-0.009684	0.723797
C144	C	0.574321	0.038022	0.764396
H145	H	0.597886	0.043351	0.808536
H146	H	0.570827	0.108361	0.746503
H147	H	0.529611	0.000934	0.770979
H148	H	0.207775	-0.346943	-0.000053
H149	H	-0.058752	-0.260264	-0.000069
H150	H	0.137886	0.114074	-0.000098
O151	O	0.094376	-0.357722	-0.000033
C152	C	0.127405	-0.430414	-0.000043
H153	H	0.171720	-0.407293	0.018575
H154	H	0.105545	-0.487133	0.028523
H155	H	0.131659	-0.455597	-0.047233
O156	O	0.517833	0.038147	-0.000134
C157	C	0.507428	0.088029	-0.051093
H158	H	0.462385	0.065665	-0.068077
H159	H	0.511552	0.162664	-0.039641
H160	H	0.539931	0.076097	-0.086765
O161	O	-0.028705	0.048446	-0.000053
C162	C	-0.061730	0.121142	-0.000068
H163	H	-0.106048	0.098016	0.018553
H164	H	-0.039871	0.177844	0.028492
H165	H	-0.065976	0.146352	-0.047261
O166	O	0.775763	0.353463	-0.000104
C167	C	0.822283	0.302110	-0.000102
H168	H	0.807873	0.232358	-0.018724
H169	H	0.858235	0.336856	-0.028668
H170	H	0.838358	0.295591	0.047087
