data_functionalizedCrystal
_audit_creation_method	'MofGen! by Chris Wilmer'
_symmetry_space_group_name_H-M	'P1'
_symmetry_Int_Tables_number	1
_symmetry_cell_setting	triclinic
loop_
_symmetry_equiv_pos_as_xyz
  x,y,z
_cell_length_a	16.992694
_cell_length_b	12.837942
_cell_length_c	16.053802
_cell_angle_alpha	92.838962
_cell_angle_beta	87.249047
_cell_angle_gamma	92.748582
loop_
_atom_site_label
_atom_site_type_symbol
_atom_site_fract_x
_atom_site_fract_y
_atom_site_fract_z
O1	O	1.059913	0.217066	-0.069322
O2	O	0.831447	0.214638	-0.069347
O3	O	0.940614	0.064530	-0.069330
O4	O	0.950746	0.367174	-0.069339
O5	O	0.934602	0.072756	0.069528
O6	O	0.825435	0.222864	0.069511
O7	O	1.053901	0.225292	0.069536
Zn8	Zn	0.938714	0.225384	0.091570
Zn9	Zn	0.946634	0.214546	-0.091381
O10	O	0.944734	0.375400	0.069519
C11	C	0.798996	0.215629	0.000079
C12	C	0.711256	0.206315	0.000070
C13	C	0.934185	0.029738	0.000098
C14	C	0.923977	-0.086184	0.000096
C15	C	0.667730	0.296178	0.000068
C16	C	0.585288	0.287422	0.000079
C17	C	0.546375	0.188801	0.000087
C18	C	0.589907	0.098931	0.000092
C19	C	0.672346	0.107689	0.000086
C20	C	0.300064	0.152502	0.000111
C21	C	0.217618	0.143751	0.000114
C22	C	0.213006	0.332243	0.000103
C23	C	0.295447	0.340992	0.000092
C24	C	0.338972	0.251122	0.000101
N25	N	0.462107	0.179847	0.000097
N26	N	0.423238	0.260077	0.000098
C27	C	1.046699	-0.316977	0.000092
C28	C	1.037111	-0.425897	0.000089
C29	C	0.895215	-0.412948	0.000082
C30	C	0.904802	-0.304027	0.000085
C31	C	0.980547	-0.256046	0.000091
C32	C	0.990134	-0.147123	0.000099
C33	C	0.848238	-0.134176	0.000086
C34	C	0.838650	-0.243097	0.000084
C35	C	1.086353	0.224300	0.000108
C36	C	1.174092	0.233614	0.000112
C37	C	0.951163	0.410191	0.000089
C38	C	0.961371	0.526114	0.000086
N39	N	0.933314	0.232780	0.216430
N40	N	0.952040	0.207141	-0.216241
C41	C	0.979785	0.168935	0.260131
C42	C	0.976016	0.174120	0.347537
C43	C	0.925779	0.243156	0.391240
C44	C	0.879303	0.307004	0.347533
C45	C	0.883068	0.301813	0.260129
C46	C	0.909329	0.265799	0.652647
C47	C	0.905569	0.270987	0.740058
C48	C	1.002281	0.138101	0.740056
C49	C	1.006046	0.132921	0.652650
C50	C	0.959566	0.196765	0.608950
N51	N	0.921927	0.248459	0.480584
N52	N	0.963414	0.191455	0.519608
H53	H	0.699407	0.376486	0.000061
F54	F	0.825832	0.380473	0.394046
H55	H	0.864658	0.327208	0.775638
F56	F	1.070746	-0.096059	0.000111
F57	F	0.814609	-0.464032	0.000056
F58	F	0.859865	0.333749	0.606146
F59	F	1.127310	-0.265908	0.000115
H60	H	1.090979	-0.475503	0.000087
H61	H	1.020697	0.112723	0.224553
F62	F	1.051742	0.070155	0.786569
H63	H	0.794372	-0.084554	0.000092
F64	F	0.538968	0.383067	0.000074
F65	F	0.336856	0.445957	0.000079
F66	F	1.025475	0.106167	0.394047
H67	H	0.845226	0.353801	0.224548
F68	F	0.758042	-0.294174	0.000071
H69	H	1.046952	0.076706	0.617068
H70	H	0.177559	0.405409	0.000097
F71	F	0.346376	0.056854	0.000120
F72	F	0.176205	0.038781	0.000137
H73	H	0.707785	0.034512	0.000087
F74	F	0.548490	-0.006029	0.000106
