data_functionalizedCrystal
_audit_creation_method	'MofGen! by Chris Wilmer'
_symmetry_space_group_name_H-M	'P1'
_symmetry_Int_Tables_number	1
_symmetry_cell_setting	triclinic
loop_
_symmetry_equiv_pos_as_xyz
  x,y,z
_cell_length_a	15.625020
_cell_length_b	10.489741
_cell_length_c	14.750779
_cell_angle_alpha	77.226586
_cell_angle_beta	85.134135
_cell_angle_gamma	84.378036
loop_
_atom_site_label
_atom_site_type_symbol
_atom_site_fract_x
_atom_site_fract_y
_atom_site_fract_z
O1	O	1.086112	0.325066	-0.457949
O2	O	0.844208	0.315750	-0.373734
O3	O	0.970666	0.135404	-0.417752
O4	O	0.959654	0.505411	-0.413930
O5	O	1.006414	0.084429	-0.270546
O6	O	0.879956	0.264774	-0.226527
O7	O	1.121860	0.274090	-0.310742
Zn8	Zn	1.006584	0.261339	-0.245262
Zn9	Zn	0.959484	0.328501	-0.439214
O10	O	0.995402	0.454435	-0.266724
C11	C	0.831107	0.285630	-0.289346
C12	C	0.738808	0.271813	-0.257214
C13	C	0.628202	0.224552	-0.131688
C14	C	0.714928	0.237539	-0.161891
C15	C	0.675966	0.293106	-0.322373
C16	C	0.589235	0.280117	-0.292184
C17	C	0.565361	0.245842	-0.196840
C18	C	0.526394	0.301407	-0.357336
C19	C	0.439671	0.288426	-0.327149
C20	C	0.415789	0.254155	-0.231809
C21	C	0.478638	0.232860	-0.166653
C22	C	0.550270	0.335692	-0.452679
C23	C	0.487429	0.356982	-0.517831
C24	C	0.400704	0.343992	-0.487644
C25	C	0.376822	0.309721	-0.392305
C26	C	0.337855	0.365287	-0.552800
C27	C	0.251132	0.352305	-0.522613
C28	C	0.290099	0.296740	-0.362117
C29	C	0.987708	0.062295	-0.343860
C30	C	0.985220	-0.079604	-0.342996
C31	C	0.904758	-0.156459	-0.314991
C32	C	0.960393	-0.269597	-0.255643
C33	C	0.925167	-0.219312	-0.400783
C34	C	1.040902	-0.190893	-0.283599
C35	C	1.005649	-0.140577	-0.428801
C36	C	1.061347	-0.253688	-0.369455
C37	C	1.134961	0.304210	-0.395131
C38	C	1.227258	0.318030	-0.427270
C39	C	0.978360	0.527545	-0.340618
C40	C	0.980846	0.669446	-0.341488
N41	N	1.038734	0.215502	-0.112898
N42	N	0.927341	0.374328	-0.571580
C43	C	0.837549	0.502286	0.308951
C44	C	0.860084	0.470176	0.401606
C45	C	0.972086	0.310547	0.362582
C46	C	0.949557	0.342640	0.269923
C47	C	0.882289	0.438511	0.243115
C48	C	0.994297	0.278864	0.204087
C49	C	0.971773	0.310959	0.111435
C50	C	0.904510	0.406829	0.084619
C51	C	0.859765	0.470606	0.150463
C52	C	1.061569	0.183000	0.230895
C53	C	1.106309	0.119224	0.165059
C54	C	1.083782	0.151312	0.072406
C55	C	1.016518	0.247183	0.045590
C56	C	1.128526	0.087536	0.006562
C57	C	1.106002	0.119631	-0.086090
C58	C	0.993994	0.279277	-0.047062
H59	H	0.459197	0.204965	-0.089014
H60	H	0.620886	0.346269	-0.477254
H61	H	0.506879	0.384894	-0.595460
H62	H	0.876210	-0.232715	-0.450295
H63	H	1.127570	-0.295952	-0.392466
H64	H	1.142436	0.067699	-0.139696
H65	H	0.270659	0.268845	-0.284479
C66	C	1.180301	0.013764	0.194560
N67	N	1.236029	-0.065676	0.216780
C68	C	1.202523	-0.017915	0.036063
N69	N	1.258257	-0.097344	0.058283
H70	H	0.345172	0.243593	-0.207232
H71	H	0.608762	0.196657	-0.054049
H72	H	1.079908	0.156877	0.306338
H73	H	0.766092	0.220208	-0.108828
C74	C	0.919961	0.384686	-0.076543
N75	N	0.864192	0.464060	-0.098745
H76	H	0.695416	0.321019	-0.400002
H77	H	0.357307	0.393207	-0.630429
C78	C	0.182003	0.375722	-0.594284
N79	N	0.129935	0.393364	-0.648268
H80	H	1.024763	-0.084597	-0.502008
C81	C	1.107006	-0.173005	-0.216604
N82	N	1.156791	-0.159528	-0.166140
H83	H	0.838622	-0.114000	-0.291887
H84	H	0.941249	-0.325545	-0.182429
C85	C	0.785732	0.576014	0.120982
N86	N	0.729963	0.655388	0.098780
C87	C	0.763516	0.607695	0.279470
N88	N	0.707747	0.687069	0.257268
H89	H	0.823646	0.522120	0.455208
C90	C	1.046077	0.205087	0.392083
N91	N	1.101805	0.125647	0.414303
H92	H	0.886174	0.432964	0.009174
