data_functionalizedCrystal
_audit_creation_method	'MofGen! by Chris Wilmer'
_symmetry_space_group_name_H-M	'P1'
_symmetry_Int_Tables_number	1
_symmetry_cell_setting	triclinic
loop_
_symmetry_equiv_pos_as_xyz
  x,y,z
_cell_length_a	10.654541
_cell_length_b	8.597340
_cell_length_c	7.088929
_cell_angle_alpha	103.954719
_cell_angle_beta	96.281209
_cell_angle_gamma	95.090413
loop_
_atom_site_label
_atom_site_type_symbol
_atom_site_fract_x
_atom_site_fract_y
_atom_site_fract_z
O1	O	-0.172468	2.103275	0.187498
O2	O	-0.192968	1.638819	0.110986
O3	O	0.000106	1.881728	0.151001
O4	O	-0.365542	1.860367	0.147483
O5	O	0.025967	1.914190	0.474323
O6	O	-0.167107	1.671281	0.434308
O7	O	-0.146607	2.135737	0.510821
Cu8	Cu	-0.154496	1.906473	0.502086
Cu9	Cu	-0.185079	1.868083	0.119720
O10	O	-0.339682	1.892828	0.470806
C11	C	-0.179277	1.595579	0.262850
C12	C	-0.176994	1.418372	0.233657
C13	C	-0.399398	1.878165	0.309403
C14	C	-0.538804	1.882855	0.310176
C15	C	-0.569083	1.592395	0.262350
C16	C	-0.649713	1.449375	0.238808
C17	C	-0.780696	1.453792	0.239536
C18	C	-0.831051	1.601243	0.263802
C19	C	-0.750420	1.744263	0.287344
C20	C	-0.619436	1.739831	0.286619
C21	C	-0.720142	2.034719	0.335156
C22	C	-0.589158	2.030307	0.334442
C23	C	-0.770497	2.182171	0.359422
C24	C	-0.689865	2.325195	0.382978
C25	C	-0.558875	2.320772	0.382252
C26	C	-0.508528	2.173327	0.357984
C27	C	0.059822	1.896391	0.312399
C28	C	0.199227	1.891699	0.311614
C29	C	-0.160299	2.178977	0.358952
C30	C	-0.162582	2.356183	0.388132
N31	N	-0.132984	1.933486	0.771024
N32	N	-0.206581	1.841083	-0.149216
H33	H	-0.187588	1.336037	0.079053
H34	H	-0.282848	1.745318	0.753362
H35	H	-0.462431	1.588784	0.261760
Cl36	Cl	-0.015238	2.081368	0.921445
Cl37	Cl	-0.935163	2.187722	0.360319
Cl38	Cl	-0.343863	2.167756	0.357080
Cl39	Cl	-0.146211	1.483287	0.626822
H40	H	-0.846347	1.337332	0.220359
Cl41	Cl	-0.586406	1.264015	0.208282
Cl42	Cl	-0.753176	2.510540	0.413463
Cl43	Cl	-0.995720	1.606787	0.264676
H44	H	-0.493232	2.437236	0.401408
