data_functionalizedCrystal
_audit_creation_method	'MofGen! by Chris Wilmer'
_symmetry_space_group_name_H-M	'P1'
_symmetry_Int_Tables_number	1
_symmetry_cell_setting	triclinic
loop_
_symmetry_equiv_pos_as_xyz
  x,y,z
_cell_length_a	13.033293
_cell_length_b	29.839131
_cell_length_c	13.032268
_cell_angle_alpha	97.133728
_cell_angle_beta	89.079182
_cell_angle_gamma	97.203227
loop_
_atom_site_label
_atom_site_type_symbol
_atom_site_fract_x
_atom_site_fract_y
_atom_site_fract_z
Zn1	Zn	1.498373	-0.139770	-0.781400
Zn2	Zn	1.998373	0.360230	-0.281400
Zn3	Zn	1.520074	-0.204330	-0.609388
Zn4	Zn	2.020074	0.295670	-0.109388
Zn5	Zn	1.348235	-0.137397	-0.587577
Zn6	Zn	1.848235	0.362603	-0.087577
Zn7	Zn	1.326313	-0.223058	-0.759417
Zn8	Zn	1.826313	0.276942	-0.259417
O9	O	1.423249	-0.176139	-0.684445
O10	O	1.923249	0.323861	-0.184445
O11	O	1.645175	-0.141489	-0.776910
O12	O	2.145175	0.358511	-0.276910
O13	O	1.515536	-0.186621	-0.462592
O14	O	2.015536	0.313379	0.037408
O15	O	1.368243	-0.074844	-0.613359
O16	O	1.868243	0.425156	-0.113359
O17	O	1.661119	-0.188921	-0.650534
O18	O	2.161119	0.311079	-0.150534
O19	O	1.478549	-0.076587	-0.755760
O20	O	1.978549	0.423413	-0.255760
O21	O	1.389286	-0.137445	-0.446567
O22	O	1.889286	0.362555	0.053433
O23	O	1.201403	-0.155605	-0.592044
O24	O	1.701403	0.344395	-0.092044
O25	O	1.330881	-0.220840	-0.906237
O26	O	1.830881	0.279160	-0.406237
O27	O	1.185298	-0.218540	-0.718294
O28	O	1.685298	0.281460	-0.218294
O29	O	1.457292	-0.159649	-0.922387
O30	O	1.957292	0.340351	-0.422387
O31	O	1.494279	-0.269683	-0.629219
O32	O	1.994279	0.230317	-0.129219
O33	O	1.351924	-0.283442	-0.739444
O34	O	1.851924	0.216558	-0.239444
C35	C	1.156033	-0.188848	-0.650417
C36	C	1.656033	0.311152	-0.150417
C37	C	1.041714	-0.194297	-0.635884
C38	C	1.541714	0.305703	-0.135884
C39	C	0.982845	-0.173306	-0.692030
C40	C	1.482845	0.326694	-0.192030
C41	C	0.864690	-0.178938	-0.677011
C42	C	1.364690	0.321062	-0.177011
C43	C	1.423103	-0.292864	-0.684339
C44	C	1.923103	0.207136	-0.184339
C45	C	1.423130	-0.342797	-0.684340
C46	C	1.923130	0.157203	-0.184340
C47	C	1.480659	-0.653318	-0.758686
C48	C	1.980659	-0.153318	-0.258686
C49	C	1.480762	-0.840990	-0.758761
C50	C	1.980762	-0.340990	-0.258761
O51	O	1.529530	-0.866005	-0.821889
O52	O	2.029530	-0.366005	-0.321889
N53	N	1.423409	-0.863580	-0.684582
N54	N	1.923409	-0.363580	-0.184582
C55	C	1.366020	-0.839249	-0.610382
C56	C	1.866020	-0.339249	-0.110382
O57	O	1.317231	-0.862770	-0.547296
O58	O	1.817231	-0.362770	-0.047296
C59	C	1.365911	-0.651579	-0.610311
C60	C	1.865911	-0.151579	-0.110311
C61	C	1.423277	-0.628991	-0.684490
C62	C	1.923277	-0.128991	-0.184490
C63	C	1.538019	-0.630730	-0.832858
C64	C	2.038019	-0.130730	-0.332858
C65	C	1.537997	-0.583815	-0.832835
C66	C	2.037997	-0.083815	-0.332835
C67	C	1.480615	-0.559487	-0.758639
C68	C	1.980615	-0.059487	-0.258639
C69	C	1.423254	-0.582075	-0.684466
C70	C	1.923254	-0.082075	-0.184466
C71	C	1.308517	-0.627250	-0.536117
C72	C	1.808517	-0.127250	-0.036117
C73	C	1.308492	-0.580330	-0.536108
C74	C	1.808492	-0.080330	-0.036108
C75	C	1.365858	-0.557742	-0.610286
C76	C	1.865858	-0.057742	-0.110286
C77	C	1.365850	-0.510832	-0.610247
C78	C	1.865850	-0.010832	-0.110247
N79	N	1.423204	-0.488243	-0.684427
N80	N	1.923204	0.011757	-0.184427
C81	C	1.480586	-0.512570	-0.758623
C82	C	1.980586	-0.012570	-0.258623
C83	C	1.366083	-0.937778	-0.610423
C84	C	1.866083	-0.437778	-0.110423
C85	C	1.366111	-0.984696	-0.610439
C86	C	1.866111	-0.484696	-0.110439
C87	C	1.480853	-0.986433	-0.758820
C88	C	1.980853	-0.486433	-0.258820
C89	C	1.480829	-0.939515	-0.758799
C90	C	1.980829	-0.439515	-0.258799
C91	C	1.423436	-0.915189	-0.684603
C92	C	1.923436	-0.415189	-0.184603
C93	C	1.480536	-0.414044	-0.758568
C94	C	1.980536	0.085956	-0.258568
C95	C	1.480512	-0.367124	-0.758536
C96	C	1.980512	0.132876	-0.258536
C97	C	1.365767	-0.365391	-0.610158
C98	C	1.865767	0.134609	-0.110158
C99	C	1.365795	-0.412306	-0.610187
C100	C	1.865795	0.087694	-0.110187
C101	C	1.423182	-0.436632	-0.684401
C102	C	1.923182	0.063368	-0.184401
O103	O	1.317099	-0.485790	-0.547160
O104	O	1.817099	0.014210	-0.047160
O105	O	1.529349	-0.489043	-0.821714
O106	O	2.029349	0.010957	-0.321714
C107	C	1.480681	-0.700234	-0.758709
C108	C	1.980681	-0.200234	-0.258709
C109	C	1.423321	-0.722822	-0.684536
C110	C	1.923321	-0.222822	-0.184536
C111	C	1.365938	-0.698494	-0.610340
C112	C	1.865938	-0.198494	-0.110340
C113	C	1.423349	-0.769739	-0.684552
C114	C	1.923349	-0.269739	-0.184552
C115	C	1.480731	-0.794067	-0.758748
C116	C	1.980731	-0.294067	-0.258748
C117	C	1.538085	-0.771477	-0.832928
C118	C	2.038085	-0.271477	-0.332928
C119	C	1.538063	-0.724561	-0.832905
C120	C	2.038063	-0.224561	-0.332905
C121	C	1.308585	-0.721084	-0.536160
C122	C	1.808585	-0.221084	-0.036160
C123	C	1.308613	-0.768000	-0.536189
C124	C	1.808613	-0.268000	-0.036189
C125	C	1.365995	-0.792327	-0.610385
C126	C	1.865995	-0.292327	-0.110385
C127	C	1.691508	-0.163381	-0.718607
C128	C	2.191508	0.336619	-0.218607
C129	C	1.805824	-0.157944	-0.733165
C130	C	2.305824	0.342056	-0.233165
C131	C	1.389220	-0.192598	-0.952667
C132	C	1.889220	0.307402	-0.452667
C133	C	1.374720	-0.199612	-1.066968
C134	C	1.874720	0.300388	-0.566968
C135	C	1.423420	-0.058958	-0.684579
C136	C	1.923420	0.441042	-0.184579
C137	C	1.423493	-0.009023	-0.684635
C138	C	1.923493	0.490977	-0.184635
C139	C	1.430801	-0.172463	-1.125917
C140	C	1.930801	0.327537	-0.625917
C141	C	1.415815	-0.179711	-1.244053
C142	C	1.915815	0.320289	-0.744053
C143	C	1.457204	-0.159708	-0.417275
C144	C	1.957204	0.340292	0.082725
C145	C	1.471904	-0.152558	-0.303000
C146	C	1.971904	0.347442	0.197000
H147	H	1.527230	-0.348734	-0.818941
H148	H	2.027230	0.151266	-0.318941
N149	N	1.246731	-0.792356	-0.456173
N150	N	1.746731	-0.292356	0.043827
H151	H	1.193746	-0.816659	-0.491862
H152	H	1.693746	-0.316659	0.008138
H153	H	1.294677	-0.806878	-0.413902
H154	H	1.794677	-0.306878	0.086098
H155	H	1.019920	-0.151164	-0.751214
H156	H	1.519920	0.348836	-0.251214
N157	N	1.550206	-0.114655	-1.254030
N158	N	2.050206	0.385345	-0.754030
H159	H	1.514053	-0.093108	-1.204164
H160	H	2.014053	0.406892	-0.704164
H161	H	1.603435	-0.127966	-1.215567
H162	H	2.103435	0.372034	-0.715567
H163	H	0.827621	-0.201078	-0.617817
H164	H	1.327621	0.298922	-0.117817
N165	N	0.992611	-0.223621	-0.557476
N166	N	1.492611	0.276379	-0.057476
H167	H	0.942729	-0.249137	-0.593545
H168	H	1.442729	0.250863	-0.093545
H169	H	1.048190	-0.236824	-0.522090
H170	H	1.548190	0.263176	-0.022090
H171	H	1.527577	-1.006249	-0.819233
H172	H	2.027577	-0.506249	-0.319233
H173	H	1.527258	-0.433845	-0.819006
H174	H	2.027258	0.066155	-0.319006
N175	N	0.854915	-0.128618	-0.811579
N176	N	1.354915	0.371382	-0.311579
H177	H	0.799394	-0.115384	-0.846985
H178	H	1.299394	0.384616	-0.346985
H179	H	0.904804	-0.103125	-0.775444
H180	H	1.404804	0.396875	-0.275444
H181	H	1.356697	-0.208321	-1.281037
H182	H	1.856697	0.291679	-0.781037
H183	H	1.261856	-0.701280	-0.475742
H184	H	1.761856	-0.201280	0.024258
N185	N	1.509122	-0.134573	-1.076937
N186	N	2.009122	0.365427	-0.576937
H187	H	1.508738	-0.134770	-0.999489
H188	H	2.008738	0.365230	-0.499489
H189	H	1.580195	-0.139227	-1.105018
H190	H	2.080195	0.360773	-0.605018
H191	H	1.584775	-0.706174	-0.893308
H192	H	2.084775	-0.206174	-0.393308
N193	N	1.599861	-0.559456	-0.912849
N194	N	2.099861	-0.059456	-0.412849
H195	H	1.636207	-0.581993	-0.959851
H196	H	2.136207	-0.081993	-0.459851
H197	H	1.551910	-0.544909	-0.955061
H198	H	2.051910	-0.044909	-0.455061
H199	H	1.315606	-0.228220	-1.103957
H200	H	1.815606	0.271780	-0.603957
N201	N	1.246586	-0.554093	-0.456082
N202	N	1.746586	-0.054093	0.043918
H203	H	1.210254	-0.575524	-0.409099
H204	H	1.710254	-0.075524	0.090901
H205	H	1.294509	-0.529710	-0.413849
H206	H	1.794509	-0.029710	0.086151
N207	N	1.599885	-0.656968	-0.912914
N208	N	2.099885	-0.156968	-0.412914
H209	H	1.636202	-0.635533	-0.959899
H210	H	2.136202	-0.135533	-0.459899
H211	H	1.652843	-0.671597	-0.877195
H212	H	2.152843	-0.171597	-0.377195
H213	H	1.527541	-0.921126	-0.819201
H214	H	2.027541	-0.421126	-0.319201
H215	H	1.319092	-0.430697	-0.549778
H216	H	1.819092	0.069303	-0.049778
N217	N	1.304257	-1.009054	-0.530420
N218	N	1.804257	-0.509054	-0.030420
H219	H	1.267903	-0.986519	-0.483420
H220	H	1.767903	-0.486519	0.016580
H221	H	1.251329	-1.033362	-0.566177
H222	H	1.751329	-0.533362	-0.066177
H223	H	1.319345	-0.917975	-0.550001
H224	H	1.819345	-0.417975	-0.050001
H225	H	1.319050	-0.345576	-0.549746
H226	H	1.819050	0.154424	-0.049746
N227	N	1.246645	-0.651605	-0.456108
N228	N	1.746645	-0.151605	0.043892
H229	H	1.210291	-0.629068	-0.409114
H230	H	1.710291	-0.129068	0.090886
H231	H	1.193717	-0.675911	-0.491870
H232	H	1.693717	-0.175911	0.008130
H233	H	1.584812	-0.791292	-0.893338
H234	H	2.084812	-0.291292	-0.393338
