data_functionalizedCrystal
_audit_creation_method	'MofGen! by Chris Wilmer'
_symmetry_space_group_name_H-M	'P1'
_symmetry_Int_Tables_number	1
_symmetry_cell_setting	triclinic
loop_
_symmetry_equiv_pos_as_xyz
  x,y,z
_cell_length_a	16.109301
_cell_length_b	15.944551
_cell_length_c	15.186229
_cell_angle_alpha	89.995303
_cell_angle_beta	89.999362
_cell_angle_gamma	83.480109
loop_
_atom_site_label
_atom_site_type_symbol
_atom_site_fract_x
_atom_site_fract_y
_atom_site_fract_z
O1	O	1.103166	0.107966	-0.073175
O2	O	1.436499	0.441300	0.260159
O3	O	1.769832	0.774633	0.593492
O4	O	0.861108	0.121402	-0.073189
O5	O	1.194441	0.454736	0.260144
O6	O	1.527775	0.788069	0.593478
O7	O	0.988747	-0.007593	-0.073174
O8	O	1.322080	0.325741	0.260160
O9	O	1.655414	0.659074	0.593493
O10	O	0.975527	0.236961	-0.073190
O11	O	1.308860	0.570295	0.260143
O12	O	1.642193	0.903628	0.593476
O13	O	0.988738	-0.007594	0.073284
O14	O	1.322072	0.325739	0.406617
O15	O	1.655405	0.659072	0.739950
O16	O	0.861099	0.121401	0.073268
O17	O	1.194433	0.454734	0.406602
O18	O	1.527766	0.788067	0.739935
O19	O	1.103157	0.107964	0.073282
O20	O	1.436490	0.441298	0.406616
O21	O	1.769824	0.774631	0.739949
Zn22	Zn	0.982127	0.114682	0.096529
Zn23	Zn	1.315460	0.448016	0.429862
Zn24	Zn	1.648794	0.781349	0.763195
Zn25	Zn	0.982138	0.114685	-0.096435
Zn26	Zn	1.315471	0.448018	0.236898
Zn27	Zn	1.648805	0.781351	0.570232
O28	O	0.975518	0.236960	0.073267
O29	O	1.308852	0.570293	0.406600
O30	O	1.642185	0.903626	0.739934
C31	C	0.830129	0.120857	0.000038
C32	C	1.163462	0.454191	0.333371
C33	C	1.496795	0.787524	0.666705
C34	C	0.737833	0.119226	0.000033
C35	C	1.071166	0.452559	0.333366
C36	C	1.404499	0.785892	0.666699
C37	C	0.988194	-0.038887	0.000055
C38	C	1.321527	0.294446	0.333389
C39	C	1.654860	0.627779	0.666722
C40	C	0.986548	-0.132133	0.000056
C41	C	1.319882	0.201201	0.333389
C42	C	1.653215	0.534534	0.666722
C43	C	0.515584	0.191975	0.000038
C44	C	0.848917	0.525308	0.333371
C45	C	1.182251	0.858641	0.666705
C46	C	0.428863	0.190435	0.000044
C47	C	0.762196	0.523768	0.333377
C48	C	1.095530	0.857102	0.666710
C49	C	0.448688	0.037387	0.000050
C50	C	0.782021	0.370720	0.333384
C51	C	1.115355	0.704053	0.666717
C52	C	0.535407	0.038927	0.000051
C53	C	0.868740	0.372260	0.333384
C54	C	1.202074	0.705594	0.666718
C55	C	0.568853	0.116224	0.000040
C56	C	0.902186	0.449557	0.333374
C57	C	1.235519	0.782890	0.666707
C58	C	0.395412	0.113143	0.000045
C59	C	0.728746	0.446477	0.333379
C60	C	1.062079	0.779810	0.666712
C61	C	0.301386	0.111473	0.000052
C62	C	0.634719	0.444807	0.333385
C63	C	0.968053	0.778140	0.666718
C64	C	0.662885	0.117894	0.000036
C65	C	0.996218	0.451227	0.333369
C66	C	1.329552	0.784561	0.666702
C67	C	0.903499	-0.346962	0.000039
C68	C	1.236832	-0.013629	0.333372
C69	C	1.570166	0.319705	0.666705
C70	C	0.942060	-0.407993	0.072253
C71	C	1.275394	-0.074660	0.405586
C72	C	1.608727	0.258674	0.738920
C73	C	0.983572	-0.302858	0.000049
C74	C	1.316905	0.030476	0.333382
C75	C	1.650238	0.363809	0.666715
C76	C	0.942087	-0.407975	-0.072142
C77	C	1.275421	-0.074641	0.261191
C78	C	1.608754	0.258692	0.594524
C79	C	0.980691	-0.467769	0.000038
C80	C	1.314024	-0.134436	0.333371
C81	C	1.647357	0.198897	0.666705
C82	C	1.022155	-0.362660	0.072323
C83	C	1.355488	-0.029327	0.405656
C84	C	1.688822	0.304006	0.738989
C85	C	1.022171	-0.362636	-0.072137
C86	C	1.355504	-0.029302	0.261196
C87	C	1.688838	0.304031	0.594529
C88	C	1.060790	-0.423649	0.000095
C89	C	1.394124	-0.090316	0.333428
C90	C	1.727457	0.243018	0.666761
C91	C	0.985229	-0.207856	0.000055
C92	C	1.318563	0.125477	0.333389
C93	C	1.651896	0.458811	0.666722
C94	C	0.979039	-0.562770	0.000038
C95	C	1.312373	-0.229437	0.333371
C96	C	1.645706	0.103897	0.666704
C97	C	1.134136	0.108510	0.000054
C98	C	1.467470	0.441843	0.333387
C99	C	1.800803	0.775176	0.666720
C100	C	1.226432	0.110141	0.000053
C101	C	1.559766	0.443475	0.333386
C102	C	1.893099	0.776808	0.666720
C103	C	0.976071	0.268254	0.000036
C104	C	1.309405	0.601588	0.333370
C105	C	1.642738	0.934921	0.666703
C106	C	0.977717	0.361500	0.000030
C107	C	1.311050	0.694833	0.333364
C108	C	1.644383	1.028166	0.666697
N109	N	0.982125	0.114680	0.228221
N110	N	1.315459	0.448013	0.561555
N111	N	1.648792	0.781347	0.894888
N112	N	0.982146	0.114680	-0.228128
N113	N	1.315480	0.448013	0.105206
N114	N	1.648813	0.781347	0.438539
C115	C	1.038663	0.057580	0.453951
C116	C	1.371996	0.390914	0.787284
C117	C	1.705330	0.724247	1.120618
C118	C	1.038666	0.057578	0.546141
C119	C	1.371999	0.390912	0.879474
C120	C	1.705332	0.724245	1.212807
C121	C	0.925603	0.171783	0.546136
C122	C	1.258936	0.505116	0.879469
C123	C	1.592269	0.838449	1.212803
C124	C	0.925597	0.171780	0.453948
C125	C	1.258930	0.505113	0.787281
C126	C	1.592263	0.838447	1.120615
C127	C	0.982132	0.114680	0.407858
C128	C	1.315465	0.448013	0.741191
C129	C	1.648798	0.781346	1.074525
C130	C	0.982140	0.114680	0.592236
C131	C	1.315473	0.448014	0.925569
C132	C	1.648807	0.781347	1.258902
C133	C	0.982143	0.114679	0.692192
C134	C	1.315476	0.448012	1.025525
C135	C	1.648809	0.781345	1.358858
C136	C	0.982128	0.114680	0.307895
C137	C	1.315462	0.448014	0.641229
C138	C	1.648795	0.781347	0.974562
H139	H	0.542812	0.254914	0.000036
H140	H	0.876145	0.588248	0.333369
H141	H	1.209479	0.921581	0.666703
Cl142	Cl	1.109732	-0.014206	0.396013
Cl143	Cl	1.443066	0.319127	0.729346
Cl144	Cl	1.776399	0.652461	1.062680
Cl145	Cl	0.602379	-0.056311	0.000061
Cl146	Cl	0.935712	0.277023	0.333394
Cl147	Cl	1.269045	0.610356	0.666728
Cl148	Cl	1.109735	-0.014209	0.604084
Cl149	Cl	1.443068	0.319125	0.937417
Cl150	Cl	1.776402	0.652458	1.270750
H151	H	1.127313	-0.456830	0.000139
H152	H	1.460646	-0.123496	0.333473
H153	H	1.793979	0.209837	0.666806
Cl154	Cl	0.889783	-0.438975	-0.166394
Cl155	Cl	1.223116	-0.105642	0.166939
Cl156	Cl	1.556449	0.227692	0.500272
Cl157	Cl	1.074421	-0.331568	-0.166396
Cl158	Cl	1.407755	0.001765	0.166937
Cl159	Cl	1.741088	0.335099	0.500271
H160	H	1.055990	-0.342682	0.133442
H161	H	1.389324	-0.009349	0.466775
H162	H	1.722657	0.323985	0.800108
H163	H	0.837035	-0.313632	0.000107
H164	H	1.170368	0.019701	0.333440
H165	H	1.503702	0.353034	0.666773
Cl166	Cl	0.889768	-0.439024	0.166507
Cl167	Cl	1.223102	-0.105691	0.499840
Cl168	Cl	1.556435	0.227643	0.833173
Cl169	Cl	0.854536	0.243566	0.604082
Cl170	Cl	1.187870	0.576899	0.937415
Cl171	Cl	1.521203	0.910233	1.270749
H172	H	0.879558	0.218278	0.416417
H173	H	1.212891	0.551611	0.749750
H174	H	1.546225	0.884944	1.083083
H175	H	0.385495	0.252119	0.000044
H176	H	0.718828	0.585452	0.333377
H177	H	1.052161	0.918786	0.666710
H178	H	0.421446	-0.025546	0.000064
H179	H	0.754779	0.307788	0.333398
H180	H	1.088112	0.641121	0.666731
