data_functionalizedCrystal
_audit_creation_method	'MofGen! by Chris Wilmer'
_symmetry_space_group_name_H-M	'P1'
_symmetry_Int_Tables_number	1
_symmetry_cell_setting	triclinic
loop_
_symmetry_equiv_pos_as_xyz
  x,y,z
_cell_length_a	27.732046
_cell_length_b	14.185251
_cell_length_c	15.625429
_cell_angle_alpha	87.173065
_cell_angle_beta	96.521191
_cell_angle_gamma	75.126104
loop_
_atom_site_label
_atom_site_type_symbol
_atom_site_fract_x
_atom_site_fract_y
_atom_site_fract_z
O1	O	-0.628125	-0.113336	0.082636
O2	O	-0.128125	0.386664	0.582636
O3	O	-0.486759	-0.118865	0.097746
O4	O	0.013241	0.381135	0.597746
O5	O	-0.566397	-0.071839	-0.031481
O6	O	-0.066397	0.428161	0.468519
O7	O	-0.548487	-0.160363	0.211863
O8	O	-0.048487	0.339637	0.711863
O9	O	-0.584541	0.082788	0.002112
O10	O	-0.084541	0.582788	0.502112
O11	O	-0.504903	0.035761	0.131340
O12	O	-0.004903	0.535761	0.631340
O13	O	-0.646269	0.041291	0.116229
O14	O	-0.146269	0.541291	0.616229
Cu15	Cu	-0.577243	0.052645	0.126852
Cu16	Cu	-0.077243	0.552645	0.626852
Cu17	Cu	-0.555785	-0.130220	0.087123
Cu18	Cu	-0.055785	0.369780	0.587123
O19	O	-0.566631	-0.005736	0.245457
O20	O	-0.066631	0.494264	0.745457
C21	C	-0.477835	-0.041441	0.114225
C22	C	0.022165	0.458559	0.614225
C23	C	-0.424215	-0.041105	0.113268
C24	C	0.075785	0.458895	0.613268
N25	N	-0.592338	0.181262	0.154794
N26	N	-0.092338	0.681262	0.654794
C27	C	-0.636683	0.308958	0.236830
C28	C	-0.136683	0.808958	0.736830
C29	C	-0.625248	0.211622	0.215679
C30	C	-0.125248	0.711622	0.715679
C31	C	-0.570852	0.248235	0.115033
C32	C	-0.070852	0.748235	0.615033
C33	C	-0.582285	0.345577	0.136173
C34	C	-0.082285	0.845577	0.636173
C35	C	-0.615200	0.375929	0.197072
C36	C	-0.115200	0.875929	0.697072
C37	C	-0.560802	0.412548	0.096415
C38	C	-0.060802	0.912548	0.596415
C39	C	-0.572231	0.509880	0.117556
C40	C	-0.072231	1.009880	0.617556
C41	C	-0.605144	0.540240	0.178455
C42	C	-0.105144	1.040240	0.678455
C43	C	-0.626629	0.473261	0.218214
C44	C	-0.126629	0.973261	0.718214
C45	C	-0.527884	0.382192	0.035520
C46	C	-0.027884	0.882192	0.535520
C47	C	-0.506401	0.449164	-0.004237
C48	C	-0.006401	0.949164	0.495763
C49	C	-0.517833	0.546499	0.016899
C50	C	-0.017833	1.046499	0.516899
C51	C	-0.550746	0.576859	0.077798
C52	C	-0.050746	1.076859	0.577798
C53	C	-0.496347	0.613479	-0.022859
C54	C	0.003653	1.113479	0.477141
C55	C	-0.507777	0.710810	-0.001717
C56	C	-0.007777	1.210810	0.498283
C57	C	-0.562175	0.674191	0.098940
C58	C	-0.062175	1.174191	0.598940
C59	C	-0.082754	-0.066665	0.183630
C60	C	0.417246	0.433335	0.683630
C61	C	0.118772	-0.065372	0.180088
C62	C	0.618772	0.434628	0.680088
O63	O	0.152446	-0.088734	0.244428
O64	O	0.652446	0.411266	0.744428
N65	N	0.135010	-0.037498	0.103460
N66	N	0.635010	0.462502	0.603460
C67	C	0.100862	-0.009940	0.027713
C68	C	0.600862	0.490060	0.527713
O69	O	0.119297	0.013807	-0.037543
O70	O	0.619297	0.513807	0.462457
C71	C	-0.100663	-0.011227	0.031257
C72	C	0.399337	0.488773	0.531257
C73	C	-0.116897	-0.039111	0.107888
C74	C	0.383103	0.460889	0.607888
C75	C	-0.098989	-0.094546	0.260255
C76	C	0.401011	0.405454	0.760255
C77	C	-0.149367	-0.094874	0.261138
C78	C	0.350633	0.405126	0.761138
C79	C	-0.183510	-0.067321	0.185397
C80	C	0.316490	0.432679	0.685397
C81	C	-0.167275	-0.039440	0.108772
C82	C	0.332725	0.460560	0.608772
C83	C	-0.134811	0.016338	-0.044487
C84	C	0.365189	0.516338	0.455513
C85	C	-0.185195	0.016016	-0.043594
C86	C	0.314805	0.516016	0.456406
C87	C	-0.201429	-0.011869	0.033037
C88	C	0.298571	0.488131	0.533037
C89	C	-0.251796	-0.012214	0.033914
C90	C	0.248204	0.487786	0.533914
N91	N	-0.268034	-0.040088	0.110542
N92	N	0.231966	0.459912	0.610542
C93	C	-0.233891	-0.067641	0.186283
C94	C	0.266109	0.432359	0.686283
C95	C	0.206667	-0.009268	0.025857
C96	C	0.706667	0.490732	0.525857
C97	C	0.257048	-0.008948	0.024970
C98	C	0.757048	0.491052	0.524970
C99	C	0.274954	-0.064378	0.177346
C100	C	0.774954	0.435622	0.677346
C101	C	0.224573	-0.064704	0.178231
C102	C	0.724573	0.435296	0.678231
C103	C	0.190429	-0.037142	0.102485
C104	C	0.690429	0.462858	0.602485
C105	C	-0.339689	-0.068329	0.188133
C106	C	0.160311	0.431671	0.688133
C107	C	-0.390072	-0.068658	0.189009
C108	C	0.109928	0.431342	0.689009
C109	C	-0.407974	-0.013223	0.036635
C110	C	0.092026	0.486777	0.536635
C111	C	-0.357595	-0.012899	0.035757
C112	C	0.142405	0.487101	0.535757
C113	C	-0.323453	-0.040451	0.111514
C114	C	0.176547	0.459549	0.611514
O115	O	-0.285498	0.011146	-0.030390
O116	O	0.214502	0.511146	0.469610
O117	O	-0.252338	-0.091364	0.251535
O118	O	0.247662	0.408636	0.751535
C119	C	-0.032376	-0.066337	0.182746
C120	C	0.467624	0.433663	0.682746
C121	C	-0.016141	-0.038455	0.106121
C122	C	0.483859	0.461545	0.606121
C123	C	-0.050284	-0.010902	0.030380
C124	C	0.449716	0.489098	0.530380
C125	C	0.034240	-0.038135	0.105234
C126	C	0.534240	0.461865	0.605234
C127	C	0.068383	-0.065689	0.180976
C128	C	0.568383	0.434311	0.680976
C129	C	0.052145	-0.093562	0.257604
C130	C	0.552145	0.406438	0.757604
C131	C	0.001767	-0.093890	0.258488
C132	C	0.501767	0.406110	0.758488
C133	C	-0.034046	0.016971	-0.046249
C134	C	0.465954	0.516971	0.453751
C135	C	0.016333	0.017296	-0.047126
C136	C	0.516333	0.517296	0.452874
C137	C	0.050476	-0.010257	0.028615
C138	C	0.550476	0.489743	0.528615
C139	C	0.344809	-0.036142	0.099751
C140	C	0.844809	0.463858	0.599751
C141	C	0.291192	-0.036501	0.100712
C142	C	0.791192	0.463499	0.600712
C143	C	-0.576457	0.016794	-0.045808
C144	C	-0.076457	0.516794	0.454192
C145	C	-0.579396	0.050522	-0.138545
C146	C	-0.079396	0.550522	0.361455
N147	N	-0.540692	0.741163	0.059182
N148	N	-0.040692	1.241163	0.559182
C149	C	-0.539600	-0.259950	-0.535099
C150	C	-0.039600	0.240050	-0.035099
C151	C	-0.542363	-0.228228	-0.622233
C152	C	-0.042363	0.271772	-0.122233
C153	C	-0.562143	-0.059665	-0.585598
C154	C	-0.062143	0.440335	-0.085598
C155	C	-0.559384	-0.091372	-0.498460
C156	C	-0.059384	0.408628	0.001540
C157	C	-0.548112	-0.191516	-0.473218
C158	C	-0.048112	0.308484	0.026782
C159	C	-0.567896	-0.022938	-0.436578
C160	C	-0.067896	0.477062	0.063422
C161	C	-0.565135	-0.054644	-0.349447
C162	C	-0.065135	0.445356	0.150553
C163	C	-0.553862	-0.154784	-0.324197
C164	C	-0.053862	0.345216	0.175803
C165	C	-0.545351	-0.223222	-0.386087
C166	C	-0.045351	0.276778	0.113913
C167	C	-0.579164	0.077205	-0.461821
C168	C	-0.079164	0.577205	0.038179
C169	C	-0.587676	0.145639	-0.399940
C170	C	-0.087676	0.645639	0.100060
C171	C	-0.584918	0.113934	-0.312808
C172	C	-0.084918	0.613934	0.187192
C173	C	-0.573645	0.013794	-0.287558
C174	C	-0.073645	0.513794	0.212442
C175	C	-0.593429	0.182372	-0.250918
C176	C	-0.093429	0.682372	0.249082
C177	C	-0.590668	0.150666	-0.163787
C178	C	-0.090668	0.650666	0.336213
C179	C	-0.570884	-0.017911	-0.200427
C180	C	-0.070884	0.482089	0.299573
C181	C	-0.556570	-0.094371	0.259783
C182	C	-0.056570	0.405629	0.759783
C183	C	-0.553631	-0.128105	0.352519
C184	C	-0.053631	0.371895	0.852519
H185	H	-0.588981	0.698907	0.148525
H186	H	-0.088981	1.198907	0.648525
H187	H	-0.530426	-0.341497	-0.514548
H188	H	-0.030426	0.158503	-0.014548
H189	H	-0.544051	0.223507	0.065450
H190	H	-0.044051	0.723507	0.565450
H191	H	-0.469544	0.588748	-0.072437
H192	H	0.030456	1.088748	0.427563
Cl193	Cl	-0.465022	0.410995	-0.080792
Cl194	Cl	0.034978	0.910995	0.419208
H195	H	0.178870	0.013178	-0.035827
H196	H	0.678870	0.513178	0.464173
Cl197	Cl	-0.296776	-0.102967	0.283371
Cl198	Cl	0.203224	0.397033	0.783371
H199	H	-0.121603	0.039045	-0.106888
H200	H	0.378397	0.539045	0.393112
Cl201	Cl	0.277453	0.026085	-0.071375
Cl202	Cl	0.777453	0.526085	0.428625
Cl203	Cl	-0.582634	0.117063	-0.571359
Cl204	Cl	-0.082634	0.617063	-0.071359
H205	H	-0.490282	0.765341	-0.034090
H206	H	0.009718	1.265341	0.465910
Cl207	Cl	-0.576308	0.066226	-0.617339
Cl208	Cl	-0.076308	0.566226	-0.117339
H209	H	-0.536177	-0.304768	-0.365535
H210	H	-0.036177	0.195232	0.134465
H211	H	-0.535426	-0.283963	-0.672616
H212	H	-0.035426	0.216037	-0.172616
H213	H	-0.596852	0.227176	-0.420504
H214	H	-0.096852	0.727176	0.079496
Cl215	Cl	-0.619512	0.662601	0.205038
Cl216	Cl	-0.119512	1.162601	0.705038
H217	H	0.079954	-0.116001	0.319275
H218	H	0.579954	0.383999	0.819275
H219	H	-0.602602	0.263909	-0.271483
H220	H	-0.102602	0.763909	0.228517
H221	H	-0.663489	0.333673	0.286415
H222	H	-0.163489	0.833673	0.786415
H223	H	-0.518576	0.302935	0.018314
H224	H	-0.018576	0.802935	0.518314
H225	H	-0.642743	0.157093	0.248063
H226	H	-0.142743	0.657093	0.748063
H227	H	0.029545	0.039998	-0.109535
H228	H	0.529545	0.539998	0.390465
H229	H	-0.212993	0.038462	-0.105276
H230	H	0.287007	0.538462	0.394724
Cl231	Cl	-0.410476	-0.103719	0.285352
Cl232	Cl	0.089524	0.396281	0.785352
Cl233	Cl	-0.668016	0.511430	0.294763
Cl234	Cl	-0.168016	1.011430	0.794763
Cl235	Cl	-0.601371	0.236698	-0.085989
Cl236	Cl	-0.101371	0.736698	0.414011
Cl237	Cl	-0.169767	-0.129925	0.357482
Cl238	Cl	0.330233	0.370075	0.857482
H239	H	-0.344375	0.009794	-0.026645
H240	H	0.155625	0.509794	0.473355
H241	H	-0.071193	-0.116981	0.321937
H242	H	0.428807	0.383019	0.821937
H243	H	0.211359	-0.087405	0.240631
H244	H	0.711359	0.412595	0.740631
Cl245	Cl	0.317886	-0.099013	0.272564
Cl246	Cl	0.817886	0.400987	0.772564
Cl247	Cl	-0.556721	-0.143809	-0.168689
Cl248	Cl	-0.056721	0.356191	0.331311
H249	H	-0.435782	0.009206	-0.025033
H250	H	0.064218	0.509206	0.474967
Cl251	Cl	-0.018633	-0.128946	0.354830
Cl252	Cl	0.481367	0.371054	0.854830
H253	H	-0.061842	0.039412	-0.107928
H254	H	0.438158	0.539412	0.392072
Cl255	Cl	-0.550393	-0.194645	-0.214660
Cl256	Cl	-0.050393	0.305355	0.285340
