data_functionalizedCrystal
_audit_creation_method	'MofGen! by Chris Wilmer'
_symmetry_space_group_name_H-M	'P1'
_symmetry_Int_Tables_number	1
_symmetry_cell_setting	triclinic
loop_
_symmetry_equiv_pos_as_xyz
  x,y,z
_cell_length_a	35.277628
_cell_length_b	35.288095
_cell_length_c	35.277682
_cell_angle_alpha	59.997929
_cell_angle_beta	89.998958
_cell_angle_gamma	60.000166
loop_
_atom_site_label
_atom_site_type_symbol
_atom_site_fract_x
_atom_site_fract_y
_atom_site_fract_z
O1	O	-0.323087	-0.271234	0.011271
O2	O	-0.267964	-0.193634	-0.011228
O3	O	-0.267962	-0.271233	0.066395
O4	O	-0.323089	-0.193635	-0.066351
O5	O	-0.204915	-0.334261	0.066394
O6	O	-0.204918	-0.256661	-0.011228
O7	O	-0.260040	-0.334261	0.011271
Cu8	Cu	-0.226722	-0.301216	0.000022
Cu9	Cu	-0.301282	-0.226679	0.000022
O10	O	-0.260043	-0.256662	-0.066351
C11	C	-0.163481	-0.071298	-0.023519
C12	C	-0.186872	-0.024531	-0.020298
C13	C	-0.117860	-0.093995	-0.023838
C14	C	-0.163483	-0.139918	-0.023524
C15	C	-0.186875	-0.166518	-0.020308
C16	C	-0.117862	-0.162510	-0.023843
C17	C	-0.094838	-0.139921	-0.023519
C18	C	-0.044836	-0.166525	-0.020298
C19	C	-0.186401	-0.093991	-0.023843
C20	C	-0.004439	-0.188019	-0.017694
C21	C	-0.205769	0.013252	-0.017695
C22	C	-0.205774	-0.188010	-0.017709
C23	C	0.046241	-0.214983	-0.014429
C24	C	-0.229477	0.060653	-0.014430
C25	C	-0.229483	-0.214971	-0.014450
C26	C	-0.500364	-0.466062	0.034181
C27	C	-0.477341	-0.511990	0.034503
C28	C	-0.431722	-0.466060	0.034178
C29	C	-0.408804	-0.511988	0.034500
C30	C	-0.431721	-0.534685	0.034181
C31	C	-0.477342	-0.443470	0.034500
C32	C	-0.665895	-0.342485	0.021756
C33	C	-0.712772	-0.317221	0.018243
C34	C	-0.736287	-0.338907	0.016481
C35	C	-0.787116	-0.311512	0.012664
C36	C	-0.712921	-0.385861	0.018236
C37	C	-0.666047	-0.411125	0.021755
C38	C	-0.642533	-0.389434	0.023515
C39	C	-0.389805	-0.687746	0.021758
C40	C	-0.368199	-0.731097	0.018245
C41	C	-0.322995	-0.752841	0.016478
C42	C	-0.299567	-0.799839	0.012662
C43	C	-0.299393	-0.731235	0.018230
C44	C	-0.320995	-0.687892	0.021751
C45	C	-0.366205	-0.666148	0.023512
C46	C	-0.389808	-0.342477	0.021744
C47	C	-0.368205	-0.317208	0.018222
C48	C	-0.322998	-0.338892	0.016457
C49	C	-0.299573	-0.311495	0.012637
C50	C	-0.299398	-0.385842	0.018210
C51	C	-0.321003	-0.411107	0.021730
C52	C	-0.366208	-0.389423	0.023501
C53	C	-0.591706	-0.416830	0.027326
C54	C	-0.551191	-0.438667	0.030366
C55	C	-0.408299	-0.438663	0.030360
C56	C	-0.389629	-0.416824	0.027317
C57	C	-0.408298	-0.581682	0.030365
C58	C	-0.389627	-0.619146	0.027325
C59	C	-0.432024	-0.061845	-0.438511
C60	C	-0.477645	-0.015917	-0.461431
C61	C	-0.432025	-0.061844	-0.369869
C62	C	-0.477645	-0.015916	-0.392892
C63	C	-0.500668	0.006779	-0.438513
C64	C	-0.409106	-0.084435	-0.392891
C65	C	-0.320834	-0.185425	-0.480424
C66	C	-0.299076	-0.210690	-0.502029
C67	C	-0.322531	-0.189005	-0.547237
C68	C	-0.298945	-0.216401	-0.570661
C69	C	-0.367745	-0.142051	-0.570839
C70	C	-0.389497	-0.116787	-0.549237
C71	C	-0.366040	-0.138476	-0.504027
C72	C	-0.666200	0.159838	-0.549704
C73	C	-0.713077	0.203188	-0.571462
C74	C	-0.736595	0.224934	-0.548009
C75	C	-0.787423	0.271931	-0.571594
C76	C	-0.713230	0.203329	-0.502796
C77	C	-0.666353	0.159987	-0.481041
C78	C	-0.642841	0.138241	-0.504500
C79	C	-0.320836	-0.185423	-0.204335
C80	C	-0.299080	-0.210691	-0.157455
C81	C	-0.322536	-0.189006	-0.133940
C82	C	-0.298950	-0.216402	-0.083110
C83	C	-0.367748	-0.142056	-0.157305
C84	C	-0.389502	-0.116792	-0.204182
C85	C	-0.366040	-0.138478	-0.227695
C86	C	-0.389632	-0.111079	-0.480604
C87	C	-0.408436	-0.089241	-0.461934
C88	C	-0.408437	-0.089240	-0.319041
C89	C	-0.389634	-0.111078	-0.278525
C90	C	-0.551496	0.053776	-0.462102
C91	C	-0.592011	0.091239	-0.480906
O92	O	0.196122	-0.334274	0.011291
O93	O	0.063378	-0.256674	-0.011208
O94	O	0.140994	-0.334276	0.066414
O95	O	0.118506	-0.256671	-0.066331
O96	O	0.140996	-0.271251	0.066419
O97	O	0.063380	-0.193649	-0.011203
O98	O	0.196124	-0.271249	0.011296
Cu99	Cu	0.129752	-0.226694	0.000047
Cu100	Cu	0.129750	-0.301228	0.000041
O101	O	0.118508	-0.193647	-0.066327
O102	O	-0.260036	0.184774	0.011294
O103	O	-0.204910	0.074561	-0.011204
O104	O	-0.204913	0.074554	0.066418
O105	O	-0.260033	0.184781	-0.066328
O106	O	-0.267961	0.074557	0.066413
O107	O	-0.267958	0.074564	-0.011209
O108	O	-0.323083	0.184777	0.011289
Cu109	Cu	-0.301278	0.129670	0.000040
Cu110	Cu	-0.226716	0.129668	0.000045
O111	O	-0.323081	0.184784	-0.066333
O112	O	-0.936929	0.397535	-0.602582
O113	O	-0.804185	0.287317	-0.547454
O114	O	-0.881802	0.287315	-0.547452
O115	O	-0.859312	0.397537	-0.602584
O116	O	-0.881801	0.287314	-0.610498
O117	O	-0.804183	0.287316	-0.610500
O118	O	-0.936927	0.397533	-0.665628
Cu119	Cu	-0.870555	0.342425	-0.643820
Cu120	Cu	-0.870557	0.342426	-0.569261
O121	O	-0.859310	0.397536	-0.665629
O122	O	-0.267961	-0.271234	-0.665316
O123	O	-0.323086	-0.193638	-0.610192
O124	O	-0.323085	-0.271236	-0.610189
O125	O	-0.267962	-0.193636	-0.665319
O126	O	-0.260038	-0.334264	-0.547142
O127	O	-0.260039	-0.256666	-0.547145
O128	O	-0.204914	-0.334262	-0.602269
Cu129	Cu	-0.226720	-0.301219	-0.568950
Cu130	Cu	-0.301280	-0.226681	-0.643511
O131	O	-0.204915	-0.256664	-0.602272
C132	C	-0.094840	-0.456607	0.293255
C133	C	-0.044837	-0.503376	0.316647
C134	C	-0.117862	-0.433912	0.316174
C135	C	-0.163483	-0.387984	0.224612
C136	C	-0.186875	-0.361381	0.174609
C137	C	-0.186401	-0.365393	0.247634
C138	C	-0.163483	-0.387984	0.293255
C139	C	-0.186874	-0.361382	0.316646
C140	C	-0.117862	-0.433912	0.247635
C141	C	-0.205772	-0.339889	0.335543
C142	C	-0.004440	-0.541160	0.335545
C143	C	-0.205773	-0.339888	0.134212
C144	C	-0.229480	-0.312925	0.359250
C145	C	0.046239	-0.588562	0.359254
C146	C	-0.229481	-0.312924	0.083532
C147	C	0.153295	-0.388013	0.293279
C148	C	0.150076	-0.361413	0.316673
C149	C	0.153614	-0.433940	0.316196
C150	C	0.153297	-0.388008	0.224634
C151	C	0.150079	-0.361403	0.174632
C152	C	0.153616	-0.433935	0.247655
C153	C	0.153293	-0.456633	0.293275
C154	C	0.150072	-0.503401	0.316665
C155	C	0.153617	-0.365420	0.247659
C156	C	0.147469	-0.541185	0.335561
C157	C	0.147474	-0.339922	0.335572
C158	C	0.147479	-0.339908	0.134234
C159	C	0.144204	-0.588587	0.359267
C160	C	0.144211	-0.312962	0.359282
C161	C	0.144218	-0.312942	0.083555
C162	C	-0.163482	-0.139963	0.293267
C163	C	-0.186875	-0.166567	0.316654
C164	C	-0.117861	-0.162559	0.316187
C165	C	-0.163482	-0.071333	0.224628
C166	C	-0.186873	-0.024557	0.174627
C167	C	-0.117860	-0.094033	0.247653
C168	C	-0.094838	-0.139967	0.293272
C169	C	-0.044835	-0.166574	0.316665
C170	C	-0.186401	-0.094030	0.247648
C171	C	-0.004438	-0.188070	0.335563
C172	C	-0.205773	-0.188061	0.335549
C173	C	-0.205771	0.013233	0.134231
C174	C	0.046242	-0.215038	0.359273
C175	C	-0.229482	-0.215026	0.359253
C176	C	-0.229479	0.060643	0.083553
C177	C	0.095627	0.006487	-0.438489
C178	C	0.095306	-0.016206	-0.461409
C179	C	0.095623	-0.062137	-0.369847
C180	C	0.095303	-0.084726	-0.392871
C181	C	0.095625	-0.062133	-0.438492
C182	C	0.095305	-0.016210	-0.392868
C183	C	0.108059	0.159543	-0.480399
C184	C	0.111575	0.202893	-0.502003
C185	C	0.113340	0.224640	-0.547210
C186	C	0.117161	0.271637	-0.570634
C187	C	0.111587	0.203038	-0.570814
C188	C	0.108065	0.159695	-0.549212
C189	C	0.106302	0.137948	-0.504002
C190	C	0.108054	-0.116452	-0.549685
C191	C	0.111568	-0.141562	-0.571444
C192	C	0.113332	-0.188519	-0.547992
C193	C	0.117148	-0.215753	-0.571578
C194	C	0.111577	-0.210363	-0.502779
C195	C	0.108055	-0.185249	-0.481023
C196	C	0.106297	-0.138292	-0.504481
C197	C	0.108046	-0.116473	-0.204312
C198	C	0.111564	-0.141591	-0.157432
C199	C	0.113326	-0.188548	-0.133918
C200	C	0.117142	-0.215786	-0.083088
C201	C	0.111574	-0.210388	-0.157283
C202	C	0.108058	-0.185270	-0.204161
C203	C	0.106290	-0.138308	-0.227673
C204	C	0.102487	0.090947	-0.480580
C205	C	0.099445	0.053484	-0.461911
C206	C	0.099438	-0.089371	-0.319019
C207	C	0.102477	-0.111078	-0.278503
C208	C	0.099442	-0.089362	-0.462081
C209	C	0.102482	-0.111066	-0.480886
O210	O	0.118477	-0.256700	0.452885
O211	O	0.140984	-0.334299	0.397762
O212	O	0.063360	-0.256699	0.397752
O213	O	0.196101	-0.334300	0.452895
O214	O	0.063367	-0.193672	0.334708
O215	O	0.140992	-0.271271	0.334718
O216	O	0.118484	-0.193673	0.389842
Cu217	Cu	0.129739	-0.226717	0.356523
Cu218	Cu	0.129730	-0.301254	0.431080
O219	O	0.196108	-0.271272	0.389852
C220	C	-0.500364	0.533998	-0.438484
C221	C	-0.477341	0.556591	-0.461399
C222	C	-0.431721	0.465364	-0.369840
C223	C	-0.408802	0.488061	-0.392859
C224	C	-0.431720	0.533995	-0.438478
C225	C	-0.477342	0.488064	-0.392865
C226	C	-0.665898	0.588334	-0.480407
C227	C	-0.712776	0.613450	-0.502014
C228	C	-0.736291	0.660414	-0.547220
C229	C	-0.787122	0.687654	-0.570647
C230	C	-0.712926	0.682257	-0.570819
C231	C	-0.666050	0.657138	-0.549214
C232	C	-0.642536	0.610174	-0.504006
C233	C	-0.389802	0.657585	-0.549654
C234	C	-0.368196	0.682850	-0.571408
C235	C	-0.322990	0.661164	-0.547952
C236	C	-0.299561	0.688558	-0.571532
C237	C	-0.299388	0.614205	-0.502740
C238	C	-0.320990	0.588935	-0.480990
C239	C	-0.366202	0.610633	-0.504452
C240	C	-0.389804	0.312282	-0.204314
C241	C	-0.368201	0.268929	-0.157436
C242	C	-0.322993	0.247179	-0.133918
C243	C	-0.299567	0.200174	-0.083089
C244	C	-0.299392	0.268786	-0.157278
C245	C	-0.320998	0.312139	-0.204154
C246	C	-0.366204	0.333881	-0.227670
C247	C	-0.591708	0.582942	-0.480581
C248	C	-0.551193	0.561234	-0.461909
C249	C	-0.408297	0.418359	-0.319013
C250	C	-0.389626	0.380890	-0.278499
C251	C	-0.408296	0.561393	-0.462062
C252	C	-0.389624	0.583232	-0.480862
H253	H	-0.371321	-0.530978	0.035012
O254	O	-0.231090	-0.071404	0.225547
C255	C	-0.233631	-0.071146	0.185524
H256	H	-0.198129	-0.103644	0.189720
H257	H	-0.260113	-0.079210	0.180584
H258	H	-0.244704	-0.030377	0.153907
O259	O	0.154297	-0.321374	0.225583
C260	C	0.194506	-0.333361	0.212740
H261	H	0.207475	-0.368565	0.210280
H262	H	0.185942	-0.296894	0.177606
H263	H	0.222616	-0.344315	0.239948
H264	H	-0.099380	-0.199466	-0.024359
O265	O	-0.095741	-0.456628	0.225646
C266	C	-0.050440	-0.502090	0.255751
H267	H	-0.049019	-0.517788	0.293261
H268	H	-0.040750	-0.534572	0.250239
H269	H	-0.024921	-0.490672	0.248096
O270	O	-0.095887	-0.071247	-0.024488
C271	C	-0.126017	-0.025736	-0.024737
H272	H	-0.153566	-0.029396	-0.009700
H273	H	-0.105307	-0.022790	-0.002805
H274	H	-0.143542	0.011779	-0.061906
H275	H	-0.223885	-0.074993	-0.024363
H276	H	0.154138	-0.452930	0.229170
O277	O	-0.643396	0.678427	-0.572124
C278	C	-0.665470	0.730712	-0.583676
H279	H	-0.685699	0.735110	-0.559239
H280	H	-0.638223	0.738260	-0.580145
H281	H	-0.690337	0.761043	-0.620984
H282	H	-0.301784	-0.449335	0.023157
H283	H	0.154122	-0.452930	0.353678
H284	H	-0.099377	-0.452909	0.353658
O285	O	-0.391140	-0.271549	0.016436
C286	C	-0.395354	-0.229663	-0.025481
H287	H	-0.392593	-0.239121	-0.052304
H288	H	-0.430456	-0.190560	-0.038901
H289	H	-0.366422	-0.225438	-0.019133
O290	O	-0.433710	0.678713	-0.572519
C291	C	-0.449910	0.725580	-0.617081
H292	H	-0.419064	0.724312	-0.627880
H293	H	-0.471995	0.728148	-0.643029
H294	H	-0.471770	0.762177	-0.616369
H295	H	0.113006	-0.248593	-0.483685
O296	O	-0.499459	-0.534581	0.035114
C297	C	-0.544742	-0.504695	0.035342
H298	H	-0.556096	-0.462137	0.020342
H299	H	-0.569621	-0.503430	0.013366
H300	H	-0.545126	-0.524350	0.072499
H301	H	-0.262581	0.251075	-0.138127
O302	O	-0.499453	-0.399391	0.035130
C303	C	-0.544748	-0.384212	0.035322
H304	H	-0.546171	-0.420285	0.049577
H305	H	-0.554416	-0.369056	0.058155
H306	H	-0.570283	-0.351020	-0.001611
O307	O	-0.390539	-0.121061	-0.614720
C308	C	-0.394660	-0.158846	-0.614615
H309	H	-0.391979	-0.188333	-0.578334
H310	H	-0.429700	-0.137246	-0.640366
H311	H	-0.365636	-0.181511	-0.625061
H312	H	-0.426314	-0.078564	-0.223203
H313	H	-0.386847	-0.124399	-0.138156
O314	O	-0.433732	-0.321324	0.023430
C315	C	-0.449928	-0.274472	0.021133
H316	H	-0.429799	-0.257305	0.004045
H317	H	-0.488448	-0.243633	-0.000210
H318	H	-0.444634	-0.284589	0.057707
O319	O	0.094664	0.006530	-0.370890
C320	C	0.094469	0.052006	-0.401001
H321	H	0.080226	0.067673	-0.438508
H322	H	0.071625	0.084502	-0.395516
H323	H	0.131399	0.040618	-0.393327
H324	H	-0.646754	-0.324820	0.023190
O325	O	-0.231091	-0.321246	0.225583
C326	C	-0.233621	-0.278959	0.223301
H327	H	-0.198119	-0.286148	0.226285
H328	H	-0.260110	-0.239475	0.188757
H329	H	-0.244679	-0.277058	0.253016
O330	O	0.094651	-0.128791	-0.370768
C331	C	0.094449	-0.143967	-0.325475
H332	H	0.080213	-0.107898	-0.324049
H333	H	0.071594	-0.159094	-0.315822
H334	H	0.131375	-0.177179	-0.299930
H335	H	-0.426615	-0.670047	0.023195
H336	H	-0.731792	-0.278991	0.016812
O337	O	0.106259	-0.070786	-0.572523
C338	C	0.067236	-0.030780	-0.613391
H339	H	0.040328	-0.040184	-0.609529
H340	H	0.051532	0.009805	-0.619578
H341	H	0.078291	-0.029609	-0.644112
O342	O	-0.735688	-0.407010	0.016550
C343	C	-0.705018	-0.453859	0.018842
H344	H	-0.667718	-0.471026	0.035931
H345	H	-0.712692	-0.484698	0.040183
H346	H	-0.709844	-0.443737	-0.017733
H347	H	-0.099376	-0.075038	0.229168
H348	H	-0.099381	-0.199518	0.353671
O349	O	-0.643689	0.139093	-0.437148
C350	C	-0.644611	0.179035	-0.436241
H351	H	-0.675104	0.220260	-0.466684
H352	H	-0.648657	0.173988	-0.402278
H353	H	-0.610820	0.175155	-0.439027
O354	O	-0.643276	-0.456748	0.023485
C355	C	-0.596864	-0.474386	0.026953
H356	H	-0.586535	-0.457561	0.042018
H357	H	-0.573172	-0.520042	0.050646
H358	H	-0.593356	-0.459818	-0.008998
H359	H	0.094791	0.002793	-0.498893
O360	O	0.113238	-0.120292	-0.134812
C361	C	0.110936	-0.073466	-0.165615
H362	H	0.093853	-0.056428	-0.202872
H363	H	0.089585	-0.042528	-0.158048
H364	H	0.147506	-0.083576	-0.160833
H365	H	-0.496124	0.003081	-0.498917
H366	H	0.113004	0.220477	-0.482781
H367	H	-0.495826	0.593550	-0.498882
O368	O	-0.643061	0.542764	-0.436466
C369	C	-0.626497	0.551384	-0.407245
H370	H	-0.648051	0.596099	-0.423027
H371	H	-0.629445	0.529134	-0.371653
H372	H	-0.588601	0.535890	-0.403427
H373	H	-0.371622	-0.121391	-0.374409
H374	H	-0.387419	-0.748683	0.016816
O375	O	-0.255459	-0.752449	0.016576
C376	C	-0.226242	-0.806835	0.054435
H377	H	-0.247989	-0.823038	0.067211
H378	H	-0.199787	-0.830755	0.042988
H379	H	-0.207325	-0.810691	0.083718
H380	H	-0.301775	-0.670305	0.023178
O381	O	0.106250	-0.070806	-0.227193
C382	C	0.064334	-0.029001	-0.264887
H383	H	0.037517	-0.038460	-0.258103
H384	H	0.050904	0.010172	-0.269034
H385	H	0.070687	-0.024910	-0.298005
H386	H	0.106623	0.141841	-0.443588
O387	O	-0.255452	-0.406946	0.016581
C388	C	-0.226240	-0.419595	0.054428
H389	H	-0.242032	-0.425354	0.083366
H390	H	-0.190649	-0.458129	0.067777
H391	H	-0.222418	-0.385530	0.042746
H392	H	0.113022	0.220750	-0.607622
H393	H	0.106637	0.142110	-0.568432
H394	H	0.112999	-0.123775	-0.608256
O395	O	-0.433421	-0.071194	-0.572222
C396	C	-0.449455	-0.057461	-0.616760
H397	H	-0.429245	-0.094749	-0.616717
H398	H	-0.487971	-0.040294	-0.626363
H399	H	-0.444115	-0.026237	-0.643215
H400	H	0.106623	-0.203035	-0.444212
O401	O	-0.391097	0.728508	-0.615296
C402	C	-0.395319	0.770384	-0.615253
H403	H	-0.367097	0.752765	-0.583810
H404	H	-0.391389	0.797009	-0.648374
H405	H	-0.430886	0.795238	-0.613541
H406	H	0.106630	-0.203055	-0.223182
H407	H	-0.496128	0.003076	-0.374407
H408	H	-0.495832	0.469078	-0.374381
H409	H	-0.262268	-0.248920	-0.138435
O410	O	-0.297985	-0.206568	-0.227103
C411	C	-0.253412	-0.253414	-0.196434
H412	H	-0.253330	-0.270592	-0.159133
H413	H	-0.243896	-0.284248	-0.204116
H414	H	-0.226966	-0.243286	-0.201254
H415	H	0.113009	-0.248624	-0.138135
H416	H	-0.301729	-0.203089	-0.443614
H417	H	-0.262264	-0.248919	-0.482808
O418	O	-0.364078	0.465320	-0.370747
C419	C	-0.348702	0.419841	-0.325454
H420	H	-0.370534	0.404172	-0.324035
H421	H	-0.310710	0.387348	-0.315790
H422	H	-0.352428	0.431226	-0.299914
H423	H	-0.387422	0.251343	-0.138417
H424	H	-0.647059	0.142138	-0.568809
O425	O	-0.735710	0.224088	-0.615370
C426	C	-0.704902	0.195607	-0.631410
H427	H	-0.675368	0.154017	-0.600478
H428	H	-0.724316	0.191642	-0.653480
H429	H	-0.690111	0.218130	-0.653242
H430	H	-0.426614	0.329984	-0.223458
H431	H	-0.732378	0.221040	-0.483702
O432	O	-0.735408	0.592178	-0.479017
C433	C	-0.704600	0.545336	-0.434488
H434	H	-0.675067	0.546731	-0.423812
H435	H	-0.724014	0.542673	-0.408451
H436	H	-0.689808	0.508730	-0.435194
O437	O	-0.735808	0.727929	-0.614696
C438	C	-0.773497	0.769726	-0.614586
H439	H	-0.766710	0.760250	-0.578301
H440	H	-0.777640	0.808900	-0.640330
H441	H	-0.806617	0.773825	-0.625037
H442	H	-0.262576	0.596543	-0.483644
O443	O	-0.298007	0.543340	-0.437066
C444	C	-0.253469	0.529605	-0.421029
H445	H	-0.253510	0.566892	-0.441237
H446	H	-0.243869	0.512436	-0.382512
H447	H	-0.227015	0.498381	-0.426367
O448	O	-0.297998	0.333046	-0.226782
C449	C	-0.253469	0.304562	-0.195972
H450	H	-0.242795	0.262967	-0.166445
H451	H	-0.227434	0.300610	-0.215388
H452	H	-0.254170	0.327075	-0.181170
