data_functionalizedCrystal
_audit_creation_method	'MofGen! by Chris Wilmer'
_symmetry_space_group_name_H-M	'P1'
_symmetry_Int_Tables_number	1
_symmetry_cell_setting	triclinic
loop_
_symmetry_equiv_pos_as_xyz
  x,y,z
_cell_length_a	16.974800
_cell_length_b	14.853559
_cell_length_c	16.053802
_cell_angle_alpha	92.571272
_cell_angle_beta	91.074188
_cell_angle_gamma	83.510332
loop_
_atom_site_label
_atom_site_type_symbol
_atom_site_fract_x
_atom_site_fract_y
_atom_site_fract_z
O1	O	1.049200	0.114922	0.001494
O2	O	1.549200	0.614922	0.501494
O3	O	0.819753	0.128723	-0.014017
O4	O	1.319753	0.628723	0.485983
O5	O	0.940609	-0.009402	-0.005846
O6	O	1.440609	0.490598	0.494154
O7	O	0.928344	0.253047	-0.006677
O8	O	1.428344	0.753047	0.493323
O9	O	0.933956	-0.001830	0.132563
O10	O	1.433956	0.498170	0.632563
O11	O	0.813101	0.136294	0.124393
O12	O	1.313101	0.636294	0.624393
O13	O	1.042548	0.122494	0.139903
O14	O	1.542548	0.622494	0.639903
Zn15	Zn	0.926768	0.130596	0.154123
Zn16	Zn	1.426768	0.630596	0.654123
Zn17	Zn	0.935533	0.120621	-0.028237
Zn18	Zn	1.435533	0.620621	0.471763
O19	O	0.921692	0.260618	0.131732
O20	O	1.421692	0.760618	0.631732
C21	C	0.787063	0.131845	0.053203
C22	C	1.287063	0.631845	0.553203
C23	C	0.699568	0.129857	0.047288
C24	C	1.199568	0.629857	0.547288
C25	C	0.654842	0.133048	0.119958
C26	C	1.154842	0.633048	0.619958
C27	C	0.572632	0.131166	0.114403
C28	C	1.072632	0.631166	0.614403
C29	C	0.535151	0.126099	0.036177
C30	C	1.035151	0.626099	0.536177
C31	C	0.579884	0.122905	-0.036498
C32	C	1.079884	0.622905	0.463502
C33	C	0.662092	0.124781	-0.030942
C34	C	1.162092	0.624781	0.469058
C35	C	0.289674	0.120041	0.011471
C36	C	0.789674	0.620041	0.511471
C37	C	0.207459	0.118168	0.005920
C38	C	0.707459	0.618168	0.505920
C39	C	0.200214	0.126427	0.156823
C40	C	0.700214	0.626427	0.656823
C41	C	0.282423	0.128308	0.162371
C42	C	0.782423	0.628308	0.662371
C43	C	0.327150	0.125109	0.089696
C44	C	0.827150	0.625109	0.589696
N45	N	0.451120	0.124178	0.030497
N46	N	0.951120	0.624178	0.530497
N47	N	0.411180	0.127024	0.095377
N48	N	0.911180	0.627024	0.595377
C49	C	0.936728	-0.039205	0.063319
C50	C	1.436728	0.460795	0.563319
C51	C	0.935067	-0.139291	0.063203
C52	C	1.435067	0.360709	0.563203
C53	C	0.931643	-0.566600	-0.012721
C54	C	1.431643	-0.066600	0.487279
C55	C	0.924391	-0.558341	0.138178
C56	C	1.424391	-0.058341	0.638178
C57	C	0.925958	-0.464306	0.138285
C58	C	1.425958	0.035694	0.638285
C59	C	0.930368	-0.421414	0.062887
C60	C	1.430368	0.078586	0.562887
C61	C	0.933209	-0.472557	-0.012617
C62	C	1.433209	0.027443	0.487383
C63	C	0.923109	-0.413155	0.213787
C64	C	1.423109	0.086845	0.713787
C65	C	0.924676	-0.319114	0.213897
C66	C	1.424676	0.180886	0.713897
C67	C	0.929091	-0.276221	0.138499
C68	C	1.429091	0.223779	0.638499
C69	C	0.931933	-0.327370	0.062992
C70	C	1.431933	0.172630	0.562992
C71	C	0.936342	-0.284478	-0.012406
C72	C	1.436342	0.215522	0.487594
C73	C	0.939190	-0.335626	-0.087913
C74	C	1.439190	0.164374	0.412087
C75	C	0.937624	-0.429664	-0.088015
C76	C	1.437624	0.070336	0.411985
C77	C	0.930658	-0.182183	0.138600
C78	C	1.430658	0.317817	0.638600
C79	C	0.937908	-0.190434	-0.012302
C80	C	1.437908	0.309566	0.487698
C81	C	1.075238	0.119371	0.072681
C82	C	1.575238	0.619371	0.572681
C83	C	1.162733	0.121359	0.078591
C84	C	1.662733	0.621359	0.578591
C85	C	0.925572	0.290422	0.062565
C86	C	1.425572	0.790422	0.562565
C87	C	0.927234	0.390508	0.062676
C88	C	1.427234	0.890508	0.562676
N89	N	0.920792	0.137404	0.278579
N90	N	1.420792	0.637404	0.778579
N91	N	0.941515	0.113806	-0.152693
N92	N	1.441515	0.613806	0.347307
C93	C	0.972235	0.078652	0.325751
C94	C	1.472235	0.578652	0.825751
C95	C	0.968062	0.083423	0.412876
C96	C	1.468062	0.583423	0.912876
C97	C	0.912450	0.146950	0.452827
C98	C	1.412450	0.646950	0.952827
C99	C	0.861001	0.205704	0.405649
C100	C	1.361001	0.705704	0.905649
C101	C	0.865171	0.200928	0.318526
C102	C	1.365171	0.700928	0.818526
C103	C	0.894236	0.167784	0.713006
C104	C	1.394236	0.667784	1.213006
C105	C	0.890072	0.172557	0.800135
C106	C	1.390072	0.672557	1.300135
C107	C	0.997132	0.050275	0.807356
C108	C	1.497132	0.550275	1.307356
C109	C	1.001300	0.045508	0.720231
C110	C	1.501300	0.545508	1.220231
C111	C	0.949849	0.104259	0.673060
C112	C	1.449849	0.604259	1.173060
N113	N	0.908185	0.151829	0.541883
N114	N	1.408185	0.651829	1.041883
N115	N	0.954111	0.099374	0.584006
N116	N	1.454111	0.599374	1.084006
H117	H	0.163789	0.129030	0.215991
H118	H	0.663789	0.629030	0.715991
H119	H	0.326081	0.117433	-0.047707
H120	H	0.826081	0.617433	0.452293
H121	H	1.017524	0.026926	0.293229
H122	H	1.517524	0.526926	0.793229
H123	H	0.920796	-0.593268	0.199563
H124	H	1.420796	-0.093268	0.699563
F125	F	0.694724	0.138447	0.203218
F126	F	1.194724	0.638447	0.703218
H127	H	0.852343	0.215623	0.674606
H128	H	1.352343	0.715623	1.174606
F129	F	0.539994	0.117485	-0.119752
F130	F	1.039994	0.617485	0.380248
F131	F	0.942606	-0.144794	-0.092551
F132	F	1.442606	0.355206	0.407449
H133	H	0.933965	-0.608250	-0.074197
H134	H	1.433965	-0.108250	0.425803
F135	F	0.921642	-0.264686	0.294257
F136	F	1.421642	0.235314	0.794257
F137	F	1.022813	0.020892	0.463080
F138	F	1.522813	0.520892	0.963080
H139	H	1.046585	-0.006220	0.687705
H140	H	1.546585	0.493780	1.187705
F141	F	0.801809	0.273310	0.448169
F142	F	1.301809	0.773310	0.948169
F143	F	1.051885	-0.012250	0.857564
F144	F	1.551885	0.487750	1.357564
F145	F	0.830878	0.240177	0.842649
F146	F	1.330878	0.740177	1.342649
H147	H	0.823279	0.248769	0.280119
H148	H	1.323279	0.748769	0.780119
H149	H	0.536221	0.133750	0.173579
H150	H	1.036221	0.633750	0.673579
H151	H	0.919515	-0.448084	0.275171
H152	H	1.419515	0.051916	0.775171
H153	H	0.312935	0.132430	0.226071
H154	H	0.812935	0.632430	0.726071
F155	F	0.927624	-0.127752	0.218954
F156	F	1.427624	0.372248	0.718954
H157	H	0.698508	0.122184	-0.090118
H158	H	1.198508	0.622184	0.409882
H159	H	0.176944	0.114044	-0.057784
H160	H	0.676944	0.614044	0.442216
H161	H	0.942775	-0.300690	-0.149302
H162	H	1.442775	0.199310	0.350698
H163	H	0.939942	-0.471317	-0.149489
H164	H	1.439942	0.028683	0.350511
