data_functionalizedCrystal
_audit_creation_method	'MofGen! by Chris Wilmer'
_symmetry_space_group_name_H-M	'P1'
_symmetry_Int_Tables_number	1
_symmetry_cell_setting	triclinic
loop_
_symmetry_equiv_pos_as_xyz
  x,y,z
_cell_length_a	23.532407
_cell_length_b	15.995350
_cell_length_c	15.072220
_cell_angle_alpha	89.998899
_cell_angle_beta	89.992868
_cell_angle_gamma	96.829474
loop_
_atom_site_label
_atom_site_type_symbol
_atom_site_fract_x
_atom_site_fract_y
_atom_site_fract_z
O1	O	0.755658	-0.101636	-0.073668
O2	O	0.589851	-0.116342	-0.073693
O3	O	0.677287	0.012936	-0.073679
O4	O	0.668222	-0.230914	-0.073682
O5	O	0.677265	0.012929	0.073886
O6	O	0.589829	-0.116350	0.073872
O7	O	0.755636	-0.101643	0.073897
Zn8	Zn	0.672729	-0.108997	0.097314
Zn9	Zn	0.672758	-0.108988	-0.097110
O10	O	0.668200	-0.230922	0.073883
C11	C	0.568623	-0.115971	0.000086
C12	C	0.505401	-0.114846	0.000076
C13	C	0.106565	-0.184288	0.000116
C14	C	0.047161	-0.183242	0.000121
O15	O	0.010664	-0.247615	0.000152
N16	N	0.024239	-0.106386	0.000120
C17	C	0.060725	-0.030570	0.000124
O18	O	0.035773	0.034898	0.000124
C19	C	0.120128	-0.031617	0.000124
C20	C	0.143047	-0.108478	0.000116
C21	C	0.129484	-0.261143	0.000108
C22	C	0.188885	-0.262188	0.000101
C23	C	0.225366	-0.186379	0.000101
C24	C	0.202447	-0.109524	0.000109
C25	C	0.156613	0.044197	0.000134
C26	C	0.216019	0.043143	0.000135
C27	C	0.238938	-0.033718	0.000127
C28	C	0.298328	-0.034760	0.000102
N29	N	0.321250	-0.111617	0.000103
C30	C	0.284769	-0.187426	0.000102
C31	C	-0.064026	-0.028378	0.000123
C32	C	-0.123428	-0.027330	0.000116
C33	C	-0.136988	-0.180002	0.000115
C34	C	-0.077585	-0.181049	0.000116
C35	C	-0.041104	-0.105234	0.000124
C36	C	0.409514	-0.189616	0.000087
C37	C	0.468920	-0.190655	0.000076
C38	C	0.482475	-0.037984	0.000081
C39	C	0.423074	-0.036944	0.000087
C40	C	0.386594	-0.112767	0.000093
O41	O	0.334860	0.029579	0.000074
O42	O	0.309729	-0.252883	0.000113
C43	C	0.676901	0.044124	0.000102
C44	C	0.675778	0.137065	0.000097
C45	C	0.776864	-0.102014	0.000116
C46	C	0.840086	-0.103140	0.000120
C47	C	0.668586	-0.262110	0.000100
C48	C	0.669709	-0.355051	0.000100
N49	N	0.672714	-0.109004	0.230003
C50	C	0.671743	0.474779	0.000099
C51	C	0.609473	0.426827	-0.000241
C52	C	0.610596	0.330146	0.000091
C53	C	0.673744	0.307235	0.000097
C54	C	0.704446	0.348564	0.084367
C55	C	0.702881	0.445187	0.084438
C56	C	0.704192	0.445564	-0.083371
C57	C	0.704178	0.348619	-0.084485
C58	C	0.674879	0.212547	0.000099
C59	C	0.670610	0.569468	0.000103
N60	N	0.672777	-0.108975	-0.229798
C61	C	0.672757	-0.108985	0.589204
C62	C	0.625814	-0.177930	0.551590
C63	C	0.625922	-0.178179	0.448764
C64	C	0.672735	-0.108994	0.411000
C65	C	0.732157	-0.127581	0.448300
C66	C	0.731894	-0.128071	0.551158
C67	C	0.660806	-0.021244	0.551303
C68	C	0.659443	-0.021842	0.448440
C69	C	0.672726	-0.108998	0.310287
C70	C	0.672769	-0.108983	0.689917
H71	H	0.245720	0.104882	0.000142
Cl72	Cl	0.557394	-0.161224	0.589787
Cl73	Cl	0.708807	0.061025	0.408770
Cl74	Cl	-0.048780	-0.277677	0.000108
H75	H	0.767923	-0.078681	0.423837
H76	H	0.615731	-0.007724	0.424061
Cl77	Cl	0.217687	-0.358819	0.000097
Cl78	Cl	0.776073	0.327353	0.089218
H79	H	0.680476	0.463299	0.147426
Cl80	Cl	0.637439	-0.277911	0.591462
Cl81	Cl	-0.182861	-0.275306	0.000119
Cl82	Cl	0.671497	0.304472	0.181184
H83	H	0.695039	0.030056	0.575627
Cl84	Cl	0.528347	0.057314	0.000086
H85	H	0.404413	0.025642	0.000081
Cl86	Cl	0.672768	0.477006	-0.181985
Cl87	Cl	0.363663	-0.284938	0.000093
H88	H	0.618417	-0.003248	0.577287
H89	H	0.742425	-0.192044	0.575141
Cl90	Cl	0.083632	-0.356459	0.000105
H91	H	-0.142082	0.035258	0.000109
H92	H	0.137964	0.106785	0.000141
H93	H	0.584593	0.445155	-0.060673
Cl94	Cl	0.773463	0.495566	0.090360
Cl95	Cl	0.557717	-0.161249	0.409826
Cl96	Cl	-0.018170	0.066942	0.000123
Cl97	Cl	0.573334	0.285956	-0.093174
H98	H	0.586282	0.302077	0.060595
Cl99	Cl	0.669806	0.305778	-0.180750
H100	H	0.767916	-0.079808	0.576039
H101	H	0.633553	-0.243300	0.424151
H102	H	0.584686	0.446212	0.059846
Cl103	Cl	0.748806	-0.225221	0.408520
Cl104	Cl	0.775277	0.325490	-0.092340
H105	H	0.750104	0.477707	-0.083933
H106	H	0.487576	-0.253247	0.000068
