data_functionalizedCrystal
_audit_creation_method	'MofGen! by Chris Wilmer'
_symmetry_space_group_name_H-M	'P1'
_symmetry_Int_Tables_number	1
_symmetry_cell_setting	triclinic
loop_
_symmetry_equiv_pos_as_xyz
  x,y,z
_cell_length_a	27.731994
_cell_length_b	27.732048
_cell_length_c	26.809956
_cell_angle_alpha	89.975675
_cell_angle_beta	89.985586
_cell_angle_gamma	82.631595
loop_
_atom_site_label
_atom_site_type_symbol
_atom_site_fract_x
_atom_site_fract_y
_atom_site_fract_z
O1	O	0.640954	0.057401	-0.041414
O2	O	1.140954	0.557401	0.458586
O3	O	0.500157	0.066174	-0.041431
O4	O	1.000157	0.566174	0.458569
O5	O	0.574929	-0.008610	-0.041412
O6	O	1.074929	0.491390	0.458588
O7	O	0.566183	0.132185	-0.041432
O8	O	1.066183	0.632185	0.458568
O9	O	0.574902	-0.008630	0.041547
O10	O	1.074902	0.491370	0.541547
O11	O	0.500131	0.066154	0.041528
O12	O	1.000131	0.566154	0.541528
O13	O	0.640928	0.057381	0.041545
O14	O	1.140928	0.557381	0.541545
Zn15	Zn	0.570525	0.061764	0.054708
Zn16	Zn	1.070525	0.561764	0.554708
Zn17	Zn	0.570560	0.061791	-0.054594
Zn18	Zn	1.070560	0.561791	0.445406
O19	O	0.566156	0.132165	0.041527
O20	O	1.066156	0.632165	0.541527
C21	C	0.482137	0.065984	0.000046
C22	C	0.982137	0.565984	0.500046
C23	C	0.428480	0.065442	0.000040
C24	C	0.928480	0.565442	0.500040
C25	C	0.574732	-0.026627	0.000069
C26	C	1.074732	0.473373	0.500069
C27	C	0.574179	-0.080282	0.000073
C28	C	1.074179	0.419718	0.500073
C29	C	0.095747	0.062015	0.045281
C30	C	0.595747	0.562015	0.545281
C31	C	-0.105911	0.059953	0.045287
C32	C	0.394089	0.559953	0.545287
O33	O	-0.131996	0.059657	0.083746
O34	O	0.368004	0.559657	0.583746
N35	N	-0.131111	0.059708	0.000066
N36	N	0.368889	0.559708	0.500066
C37	C	-0.105894	0.059975	-0.045160
C38	C	0.394106	0.559975	0.454840
O39	O	-0.131954	0.059715	-0.083623
O40	O	0.368046	0.559715	0.416377
C41	C	0.095764	0.062034	-0.045165
C42	C	0.595764	0.562034	0.454835
C43	C	0.120961	0.062283	0.000059
C44	C	0.620961	0.562283	0.500059
C45	C	0.120945	0.062264	0.090501
C46	C	0.620945	0.562264	0.590501
C47	C	0.171356	0.062782	0.090499
C48	C	0.671356	0.562782	0.590499
C49	C	0.196570	0.063051	0.045277
C50	C	0.696570	0.563051	0.545277
C51	C	0.171372	0.062801	0.000057
C52	C	0.671372	0.562801	0.500057
C53	C	0.120981	0.062297	-0.090390
C54	C	0.620981	0.562297	0.409610
C55	C	0.171399	0.062811	-0.090388
C56	C	0.671399	0.562811	0.409612
C57	C	0.196596	0.063060	-0.045164
C58	C	0.696596	0.563060	0.454836
C59	C	0.246997	0.063588	-0.045167
C60	C	0.746997	0.563588	0.454833
N61	N	0.272198	0.063833	0.000054
N62	N	0.772198	0.563833	0.500054
C63	C	0.246984	0.063565	0.045276
C64	C	0.746984	0.563565	0.545276
C65	C	-0.211767	0.058896	-0.045154
C66	C	0.288233	0.558896	0.454846
C67	C	-0.262181	0.058382	-0.045152
C68	C	0.237819	0.558382	0.454848
C69	C	-0.262195	0.058359	0.045294
C70	C	0.237805	0.558359	0.545294
C71	C	-0.211780	0.058876	0.045293
C72	C	0.288220	0.558876	0.545293
C73	C	-0.186566	0.059141	0.000067
C74	C	0.313434	0.559141	0.500067
C75	C	0.352851	0.064653	0.045268
C76	C	0.852851	0.564653	0.545268
C77	C	0.403266	0.065173	0.045262
C78	C	0.903266	0.565173	0.545262
C79	C	0.403276	0.065193	-0.045184
C80	C	0.903276	0.565193	0.454816
C81	C	0.352865	0.064676	-0.045179
C82	C	0.852865	0.564676	0.454821
C83	C	0.327654	0.064404	0.000052
C84	C	0.827654	0.564404	0.500052
O85	O	0.273114	0.063880	-0.083606
O86	O	0.773114	0.563880	0.416394
O87	O	0.273055	0.063815	0.083733
O88	O	0.773055	0.563815	0.583733
C89	C	0.045336	0.061497	0.045283
C90	C	0.545336	0.561497	0.545283
C91	C	0.020139	0.061247	0.000063
C92	C	0.520139	0.561247	0.500063
C93	C	0.045353	0.061516	-0.045160
C94	C	0.545353	0.561516	0.454840
C95	C	-0.030275	0.060734	0.000064
C96	C	0.469725	0.560734	0.500064
C97	C	-0.055489	0.060465	0.045286
C98	C	0.444511	0.560465	0.545286
C99	C	-0.030289	0.060710	0.090507
C100	C	0.469711	0.560710	0.590507
C101	C	0.020122	0.061228	0.090505
C102	C	0.520122	0.561228	0.590505
C103	C	0.020153	0.061271	-0.090381
C104	C	0.520153	0.561271	0.409619
C105	C	-0.030259	0.060753	-0.090375
C106	C	0.469741	0.560753	0.409625
C107	C	-0.055473	0.060485	-0.045153
C108	C	0.444527	0.560485	0.454847
C109	C	0.614884	-0.419105	0.000052
C110	C	1.114884	0.080895	0.500052
C111	C	0.612833	-0.620764	0.000045
C112	C	1.112833	-0.120764	0.500045
O113	O	0.650055	-0.652027	0.000028
O114	O	1.150055	-0.152027	0.500028
N115	N	0.568496	-0.639879	0.000040
N116	N	1.068496	-0.139879	0.500040
C117	C	0.524670	-0.608576	0.000033
C118	C	1.024670	-0.108576	0.500033
O119	O	0.486912	-0.629462	0.000024
O120	O	0.986912	-0.129462	0.500024
C121	C	0.526721	-0.406918	0.000037
C122	C	1.026721	0.093082	0.500037
C123	C	0.571060	-0.387806	0.000047
C124	C	1.071060	0.112194	0.500047
C125	C	0.659220	-0.399992	0.000061
C126	C	1.159220	0.100008	0.500061
C127	C	0.659732	-0.349580	0.000066
C128	C	1.159732	0.150420	0.500066
C129	C	0.615908	-0.318281	0.000061
C130	C	1.115908	0.181719	0.500061
C131	C	0.571573	-0.337394	0.000052
C132	C	1.071573	0.162606	0.500052
C133	C	0.482895	-0.375615	0.000027
C134	C	0.982895	0.124385	0.500027
C135	C	0.483412	-0.325198	0.000027
C136	C	0.983412	0.174802	0.500027
C137	C	0.527751	-0.306086	0.000037
C138	C	1.027751	0.193914	0.500037
C139	C	0.528262	-0.255683	0.000051
C140	C	1.028262	0.244317	0.500051
N141	N	0.572598	-0.236568	0.000056
N142	N	1.072598	0.263432	0.500056
C143	C	0.616421	-0.267867	0.000061
C144	C	1.116421	0.232133	0.500061
C145	C	0.523596	-0.714450	0.000032
C146	C	1.023596	-0.214450	0.500032
C147	C	0.523083	-0.764864	0.000032
C148	C	1.023083	-0.264864	0.500032
C149	C	0.611246	-0.777049	0.000043
C150	C	1.111246	-0.277049	0.500043
C151	C	0.611759	-0.726633	0.000047
C152	C	1.111759	-0.226633	0.500047
C153	C	0.567932	-0.695335	0.000037
C154	C	1.067932	-0.195335	0.500037
C155	C	0.617494	-0.161998	0.000071
C156	C	1.117494	0.338002	0.500071
C157	C	0.618002	-0.111581	0.000078
C158	C	1.118002	0.388419	0.500078
C159	C	0.529839	-0.099401	0.000064
C160	C	1.029839	0.400599	0.500064
C161	C	0.529331	-0.149813	0.000060
C162	C	1.029331	0.350187	0.500060
C163	C	0.573162	-0.181111	0.000062
C164	C	1.073162	0.318889	0.500062
O165	O	0.491060	-0.224391	0.000063
O166	O	0.991060	0.275609	0.500063
O167	O	0.654174	-0.246971	0.000060
O168	O	1.154174	0.253029	0.500060
C169	C	0.614372	-0.469517	0.000047
C170	C	1.114372	0.030483	0.500047
C171	C	0.570036	-0.488629	0.000038
C172	C	1.070036	0.011371	0.500038
C173	C	0.526213	-0.457330	0.000033
C174	C	1.026213	0.042670	0.500033
C175	C	0.569523	-0.539044	0.000038
C176	C	1.069523	-0.039044	0.500038
C177	C	0.613346	-0.570343	0.000043
C178	C	1.113346	-0.070343	0.500043
C179	C	0.657683	-0.551228	0.000048
C180	C	1.157683	-0.051228	0.500048
C181	C	0.658195	-0.500816	0.000052
C182	C	1.158195	-0.000816	0.500052
C183	C	0.481876	-0.476445	0.000028
C184	C	0.981876	0.023555	0.500028
C185	C	0.481367	-0.526858	0.000024
C186	C	0.981367	-0.026858	0.500024
C187	C	0.525191	-0.558157	0.000029
C188	C	1.025191	-0.058157	0.500029
C189	C	0.658949	0.057571	0.000067
C190	C	1.158949	0.557571	0.500067
C191	C	0.712605	0.058113	0.000070
C192	C	1.212605	0.558113	0.500070
C193	C	0.566353	0.150182	0.000045
C194	C	1.066353	0.650182	0.500045
C195	C	0.566906	0.203837	0.000037
C196	C	1.066906	0.703837	0.500037
N197	N	0.570505	0.061746	0.129304
N198	N	1.070505	0.561746	0.629304
N199	N	0.570584	0.061805	-0.129190
N200	N	1.070584	0.561805	0.370810
C201	C	0.541454	0.032657	0.526198
C202	C	1.041454	0.532657	1.026198
C203	C	0.541431	0.032644	0.317320
C204	C	1.041431	0.532644	0.817320
O205	O	0.516699	0.007871	0.290329
O206	O	1.016699	0.507871	0.790329
N207	N	0.570524	0.061753	0.291183
N208	N	1.070524	0.561753	0.791183
C209	C	0.599628	0.090866	0.317268
C210	C	1.099628	0.590866	0.817268
O211	O	0.624376	0.115621	0.290244
O212	O	1.124376	0.615621	0.790244
C213	C	0.599653	0.090876	0.526145
C214	C	1.099653	0.590876	1.026145
C215	C	0.570554	0.061768	0.552280
C216	C	1.070554	0.561768	1.052280
C217	C	0.512358	0.003552	0.552333
C218	C	1.012358	0.503552	1.052333
C219	C	0.512362	0.003557	0.604549
C220	C	1.012362	0.503557	1.104549
C221	C	0.541462	0.032668	0.630631
C222	C	1.041462	0.532668	1.130631
C223	C	0.570558	0.061774	0.604496
C224	C	1.070558	0.561774	1.104496
C225	C	0.628758	0.119985	0.552229
C226	C	1.128758	0.619985	1.052229
C227	C	0.628763	0.119984	0.604451
C228	C	1.128763	0.619984	1.104451
C229	C	0.599664	0.090877	0.630586
C230	C	1.099664	0.590877	1.130586
C231	C	0.599662	0.090891	0.682794
C232	C	1.099662	0.590891	1.182794
N233	N	0.570569	0.061781	0.708931
N234	N	1.070569	0.561781	1.208931
C235	C	0.541469	0.032670	0.682850
C236	C	1.041469	0.532670	1.182850
C237	C	0.599612	0.090859	0.207605
C238	C	1.099612	0.590859	0.707605
C239	C	0.599605	0.090857	0.155386
C240	C	1.099605	0.590857	0.655386
C241	C	0.541409	0.032635	0.155442
C242	C	1.041409	0.532635	0.655442
C243	C	0.541413	0.032639	0.207662
C244	C	1.041413	0.532639	0.707662
C245	C	0.570518	0.061749	0.233742
C246	C	1.070518	0.561749	0.733742
C247	C	0.541479	0.032685	0.792508
C248	C	1.041479	0.532685	1.292508
C249	C	0.541484	0.032694	0.844729
C250	C	1.041484	0.532694	1.344729
C251	C	0.599682	0.090915	0.844668
C252	C	1.099682	0.590915	1.344668
C253	C	0.599675	0.090907	0.792452
C254	C	1.099675	0.590907	1.292452
C255	C	0.570572	0.061788	0.766373
C256	C	1.070572	0.561788	1.266373
O257	O	0.624386	0.115647	0.709818
O258	O	1.124386	0.615647	1.209818
O259	O	0.516732	0.007911	0.709883
O260	O	1.016732	0.507911	1.209883
C261	C	0.541450	0.032652	0.473982
C262	C	1.041450	0.532652	0.973982
C263	C	0.570546	0.061757	0.447847
C264	C	1.070546	0.561757	0.947847
C265	C	0.599646	0.090868	0.473928
C266	C	1.099646	0.590868	0.973928
C267	C	0.570539	0.061755	0.395628
C268	C	1.070539	0.561755	0.895628
C269	C	0.541439	0.032644	0.369547
C270	C	1.041439	0.532644	0.869547
C271	C	0.512346	0.003535	0.395684
C272	C	1.012346	0.503535	0.895684
C273	C	0.512350	0.003540	0.447900
C274	C	1.012350	0.503540	0.947900
C275	C	0.628739	0.119978	0.447791
C276	C	1.128739	0.619978	0.947791
C277	C	0.628732	0.119970	0.395575
C278	C	1.128732	0.619970	0.895575
C279	C	0.599632	0.090859	0.369493
C280	C	1.099632	0.590859	0.869493
H281	H	0.423779	0.065378	0.082091
H282	H	0.923779	0.565378	0.582091
H283	H	0.040633	0.061432	0.127331
H284	H	0.540633	0.561432	0.627331
C285	C	0.325463	0.064509	-0.094261
C286	C	0.825463	0.564509	0.405739
C287	C	0.290771	0.105819	-0.096914
C288	C	0.790771	0.605819	0.403086
C289	C	0.265527	0.105681	-0.142124
C290	C	0.765527	0.605681	0.357876
H291	H	0.309656	0.036139	-0.096184
H292	H	0.809656	0.536139	0.403816
H293	H	0.347680	0.064772	-0.121210
H294	H	0.847680	0.564772	0.378790
H295	H	0.268556	0.105553	-0.069973
H296	H	0.768556	0.605553	0.430027
H297	H	0.306564	0.134196	-0.095000
H298	H	0.806564	0.634196	0.405000
H299	H	0.287745	0.105943	-0.169073
H300	H	0.787745	0.605943	0.330927
H301	H	0.249723	0.077309	-0.144043
H302	H	0.749723	0.577309	0.355957
H303	H	0.241989	0.133711	-0.143932
H304	H	0.741989	0.633711	0.356068
H305	H	-0.050770	0.060554	-0.127205
H306	H	0.449230	0.560554	0.372795
H307	H	0.694908	-0.425472	0.000064
H308	H	1.194908	0.074528	0.500064
H309	H	0.647863	-0.711076	0.000054
H310	H	1.147863	-0.211076	0.500054
H311	H	0.423814	0.065414	-0.082003
H312	H	0.923814	0.565414	0.417997
H313	H	0.646929	-0.802541	0.000047
H314	H	1.146929	-0.302541	0.500047
H315	H	0.517719	0.008937	0.228937
H316	H	1.017719	0.508937	0.728937
H317	H	0.446789	-0.391167	0.000016
H318	H	0.946789	0.108833	0.500016
C319	C	0.509826	0.001173	0.873129
C320	C	1.009826	0.501173	1.373129
C321	C	0.476864	0.030717	0.903094
C322	C	0.976864	0.530717	1.403094
C323	C	0.447691	0.001697	0.929256
C324	C	0.947691	0.501697	1.429256
H325	H	0.529747	-0.021220	0.893546
H326	H	1.029747	0.478780	1.393546
H327	H	0.492468	-0.016156	0.850130
H328	H	0.992468	0.483844	1.350130
H329	H	0.494221	0.048037	0.926090
H330	H	0.994221	0.548037	1.426090
H331	H	0.456933	0.053109	0.882690
H332	H	0.956933	0.553109	1.382690
H333	H	0.430333	-0.015631	0.906257
H334	H	0.930333	0.484369	1.406257
H335	H	0.467615	-0.020694	0.949670
H336	H	0.967615	0.479306	1.449670
H337	H	0.425320	0.021739	0.949587
H338	H	0.925320	0.521739	1.449587
H339	H	0.445258	-0.542413	0.000020
H340	H	0.945258	-0.042413	0.500020
H341	H	0.332329	0.064436	0.082099
H342	H	0.832329	0.564436	0.582099
H343	H	-0.050827	0.060494	0.127329
H344	H	0.449173	0.560494	0.627329
H345	H	0.100475	0.062093	-0.127217
H346	H	0.600475	0.562093	0.372783
H347	H	0.493226	-0.165375	0.000066
H348	H	0.993226	0.334625	0.500066
H349	H	0.652465	0.143689	0.625684
H350	H	1.152465	0.643689	1.125684
H351	H	-0.282733	0.058141	0.082116
H352	H	0.217267	0.558141	0.582116
H353	H	0.040677	0.061488	-0.127207
H354	H	0.540677	0.561488	0.372793
H355	H	0.446189	-0.450966	0.000023
H356	H	0.946189	0.049034	0.500023
C357	C	0.482246	-0.065437	0.000158
C358	C	0.982246	0.434563	0.500158
C359	C	0.455510	-0.074027	0.042837
C360	C	0.955510	0.425973	0.542837
C361	C	0.411667	-0.042744	0.042939
C362	C	0.911667	0.457256	0.542939
H363	H	0.464004	-0.071155	-0.028743
H364	H	0.964004	0.428845	0.471257
H365	H	0.488883	-0.032668	0.000186
H366	H	0.988883	0.467332	0.500186
H367	H	0.448871	-0.106788	0.042805
H368	H	0.948871	0.393212	0.542805
H369	H	0.473737	-0.068306	0.071745
H370	H	0.973737	0.431694	0.571745
H371	H	0.418305	-0.009975	0.042967
H372	H	0.918305	0.490025	0.542967
H373	H	0.393431	-0.048464	0.014036
H374	H	0.893431	0.451536	0.514036
H375	H	0.393524	-0.048564	0.071898
H376	H	0.893524	0.451436	0.571898
C377	C	0.660380	0.151590	0.367293
C378	C	1.160380	0.651590	0.867293
C379	C	0.685873	0.177073	0.401318
C380	C	1.185873	0.677073	0.901318
C381	C	0.715039	0.206197	0.375286
C382	C	1.215039	0.706197	0.875286
H383	H	0.640460	0.174019	0.346914
H384	H	1.140460	0.674019	0.846914
H385	H	0.682799	0.131628	0.346939
H386	H	1.182799	0.631628	0.846939
H387	H	0.663457	0.197034	0.421663
H388	H	1.163457	0.697034	0.921663
H389	H	0.705802	0.154657	0.421699
H390	H	1.205802	0.654657	0.921699
H391	H	0.737458	0.186234	0.354931
H392	H	1.237458	0.686234	0.854931
H393	H	0.695115	0.228622	0.354907
H394	H	1.195115	0.728622	0.854907
H395	H	0.732343	0.223487	0.398367
H396	H	1.232343	0.723487	0.898367
C397	C	0.631131	0.122502	0.235982
C398	C	1.131131	0.622502	0.735982
C399	C	0.601584	0.155441	0.265966
C400	C	1.101584	0.655441	0.765966
C401	C	0.630601	0.184594	0.292117
C402	C	1.130601	0.684594	0.792117
H403	H	0.648462	0.139882	0.212991
H404	H	1.148462	0.639882	0.712991
H405	H	0.653522	0.102551	0.256382
H406	H	1.153522	0.602551	0.756382
H407	H	0.579201	0.175389	0.245568
H408	H	1.079201	0.675389	0.745568
H409	H	0.584253	0.138074	0.288966
H410	H	1.084253	0.638074	0.788966
H411	H	0.652992	0.164644	0.312517
H412	H	1.152992	0.664644	0.812517
H413	H	0.647931	0.201972	0.269122
H414	H	1.147931	0.701972	0.769122
H415	H	0.610558	0.206944	0.312467
H416	H	1.110558	0.706944	0.812467
H417	H	0.447722	-0.299716	0.000018
H418	H	0.947722	0.200284	0.500018
H419	H	0.191925	0.063026	-0.127217
H420	H	0.691925	0.563026	0.372783
H421	H	0.488661	-0.020157	0.531103
H422	H	0.988661	0.479843	1.031103
C423	C	0.666195	-0.090926	0.000061
C424	C	1.166195	0.409074	0.500061
C425	C	0.704462	-0.129131	0.000049
C426	C	1.204462	0.370869	0.500049
C427	C	0.748862	-0.110124	0.000025
C428	C	1.248862	0.389876	0.500025
H429	H	0.668290	-0.071533	0.028984
H430	H	1.168290	0.428467	0.528984
H431	H	0.668263	-0.071514	-0.028879
H432	H	1.168263	0.428486	0.471121
H433	H	0.702395	-0.148534	0.028986
H434	H	1.202395	0.351466	0.528986
H435	H	0.702383	-0.148527	-0.028872
H436	H	1.202383	0.351473	0.471128
H437	H	0.750930	-0.090712	-0.028914
H438	H	1.250930	0.409288	0.471086
H439	H	0.750951	-0.090731	0.028949
H440	H	1.250951	0.409269	0.528949
H441	H	0.774831	-0.136042	0.000013
H442	H	1.274831	0.363958	0.500013
C443	C	0.198625	0.063022	0.139653
C444	C	0.698625	0.563022	0.639653
C445	C	0.165747	0.062662	0.179251
C446	C	0.665747	0.562662	0.679251
C447	C	0.190848	0.062875	0.224541
C448	C	0.690848	0.562875	0.724541
H449	H	0.214396	0.091414	0.141605
H450	H	0.714396	0.591414	0.641605
H451	H	0.222181	0.035011	0.141565
H452	H	0.722181	0.535011	0.641565
H453	H	0.142200	0.090671	0.177340
H454	H	0.642200	0.590671	0.677340
H455	H	0.149976	0.034273	0.177316
H456	H	0.649976	0.534273	0.677316
H457	H	0.214404	0.034864	0.226453
H458	H	0.714404	0.534864	0.726453
H459	H	0.206617	0.091266	0.226488
H460	H	0.706617	0.591266	0.726488
H461	H	0.168545	0.062626	0.251414
H462	H	0.668545	0.562626	0.751414
H463	H	0.488655	-0.020162	0.469175
H464	H	0.988655	0.479838	0.969175
H465	H	0.517713	0.008932	0.134197
H466	H	1.017713	0.508932	0.634197
H467	H	0.486977	-0.780420	0.000033
H468	H	0.986977	-0.280420	0.500033
H469	H	0.487905	-0.688970	0.000025
H470	H	0.987905	-0.188970	0.500025
H471	H	0.694301	-0.485260	0.000060
H472	H	1.194301	0.014740	0.500060
C473	C	-0.289445	0.058093	-0.094306
C474	C	0.210555	0.558093	0.405694
C475	C	-0.256565	0.058425	-0.133906
C476	C	0.243435	0.558425	0.366094
C477	C	-0.281660	0.058150	-0.179194
C478	C	0.218340	0.558150	0.320806
H479	H	-0.313011	0.086084	-0.096263
H480	H	0.186989	0.586084	0.403737
H481	H	-0.305200	0.029682	-0.096210
H482	H	0.194800	0.529682	0.403790
H483	H	-0.240818	0.086833	-0.132003
H484	H	0.259182	0.586833	0.367997
H485	H	-0.232998	0.030436	-0.131965
H486	H	0.267002	0.530436	0.368035
H487	H	-0.297414	0.029739	-0.181098
H488	H	0.202586	0.529739	0.318902
H489	H	-0.305225	0.086141	-0.181147
H490	H	0.194775	0.586141	0.318853
H491	H	-0.259354	0.058370	-0.206069
H492	H	0.240646	0.558370	0.293931
H493	H	0.693365	-0.576720	0.000054
H494	H	1.193365	-0.076720	0.500054
C495	C	0.665067	-0.195997	-0.000027
C496	C	1.165067	0.304003	0.499973
C497	C	0.667376	-0.225270	-0.042715
C498	C	1.167376	0.274730	0.457285
C499	C	0.711195	-0.256590	-0.042822
C500	C	1.211195	0.243410	0.457178
H501	H	0.666738	-0.215975	0.028868
H502	H	1.166738	0.284025	0.528868
H503	H	0.691556	-0.177404	-0.000047
H504	H	1.191556	0.322596	0.499953
H505	H	0.640894	-0.243860	-0.042691
H506	H	1.140894	0.256140	0.457309
H507	H	0.665713	-0.205305	-0.071617
H508	H	1.165713	0.294695	0.428383
H509	H	0.737684	-0.237998	-0.042842
H510	H	1.237684	0.262002	0.457158
H511	H	0.712862	-0.276565	-0.013925
H512	H	1.212862	0.223435	0.486075
H513	H	0.712769	-0.276453	-0.071787
H514	H	1.212769	0.223547	0.428213
C515	C	0.660400	0.151503	0.476128
C516	C	1.160400	0.651503	0.976128
C517	C	0.693370	0.121968	0.506102
C518	C	1.193370	0.621968	1.006102
C519	C	0.722548	0.150996	0.532206
C520	C	1.222548	0.650996	1.032206
H521	H	0.640484	0.173901	0.496534
H522	H	1.140484	0.673901	0.996534
H523	H	0.677753	0.168825	0.453094
H524	H	1.177753	0.668825	0.953094
H525	H	0.676019	0.104654	0.529134
H526	H	1.176019	0.604654	1.029134
H527	H	0.713296	0.099570	0.485710
H528	H	1.213296	0.599570	0.985710
H529	H	0.739901	0.168318	0.509171
H530	H	1.239901	0.668318	1.009171
H531	H	0.702629	0.173393	0.552608
H532	H	1.202629	0.673393	1.052608
H533	H	0.744925	0.130960	0.552543
H534	H	1.244925	0.630960	1.052543
H535	H	-0.191268	0.059080	0.082118
H536	H	0.308732	0.559080	0.582118
C537	C	0.480801	-0.028055	0.367270
C538	C	0.980801	0.471945	0.867270
C539	C	0.487038	-0.021833	0.315947
C540	C	0.987038	0.478167	0.815947
C541	C	0.457995	-0.050930	0.289755
C542	C	0.957995	0.449070	0.789755
H543	H	0.447643	-0.018868	0.375773
H544	H	0.947643	0.481132	0.875773
H545	H	0.490036	-0.061205	0.375810
H546	H	0.990036	0.438795	0.875810
H547	H	0.477801	0.011310	0.307411
H548	H	0.977801	0.511310	0.807411
H549	H	0.520190	-0.031023	0.307430
H550	H	1.020190	0.468977	0.807430
H551	H	0.467230	-0.084080	0.298295
H552	H	0.967230	0.415920	0.798295
H553	H	0.424839	-0.041740	0.298261
H554	H	0.924839	0.458260	0.798261
H555	H	0.462226	-0.046716	0.254929
H556	H	0.962226	0.453284	0.754929
C557	C	0.631246	0.122479	0.127104
C558	C	1.131246	0.622479	0.627104
C559	C	0.656740	0.147961	0.161129
C560	C	1.156740	0.647961	0.661129
C561	C	0.685900	0.177090	0.135097
C562	C	1.185900	0.677090	0.635097
H563	H	0.611322	0.144908	0.106728
H564	H	1.111322	0.644908	0.606728
H565	H	0.653665	0.102521	0.106747
H566	H	1.153665	0.602521	0.606747
H567	H	0.634323	0.167919	0.181478
H568	H	1.134323	0.667919	0.681478
H569	H	0.676672	0.125545	0.181506
H570	H	1.176672	0.625545	0.681506
H571	H	0.708319	0.157132	0.114739
H572	H	1.208319	0.657132	0.614739
H573	H	0.665973	0.199516	0.114721
H574	H	1.165973	0.699516	0.614721
H575	H	0.703204	0.194380	0.158178
H576	H	1.203204	0.694380	0.658178
C577	C	0.631315	0.122528	0.764164
C578	C	1.131315	0.622528	1.264164
C579	C	0.656807	0.148017	0.798184
C580	C	1.156807	0.648017	1.298184
C581	C	0.685966	0.177143	0.772148
C582	C	1.185966	0.677143	1.272148
H583	H	0.611391	0.144953	0.743784
H584	H	1.111391	0.644953	1.243784
H585	H	0.653735	0.102567	0.743809
H586	H	1.153735	0.602567	1.243809
H587	H	0.634389	0.167976	0.818530
H588	H	1.134389	0.667976	1.318530
H589	H	0.676739	0.125604	0.818566
H590	H	1.176739	0.625604	1.318566
H591	H	0.708387	0.157182	0.751794
H592	H	1.208387	0.657182	1.251794
H593	H	0.666039	0.199565	0.751769
H594	H	1.166039	0.699565	1.251769
H595	H	0.703269	0.194437	0.795227
H596	H	1.203269	0.694437	1.295227
H597	H	0.517781	0.008973	0.771280
H598	H	1.017781	0.508973	1.271280
H599	H	0.100421	0.062044	0.127329
H600	H	0.600421	0.562044	0.627329
H601	H	0.695837	-0.334024	0.000072
H602	H	1.195837	0.165976	0.500072
C603	C	0.480759	-0.028102	0.632832
C604	C	0.980759	0.471898	1.132832
C605	C	0.455287	-0.053607	0.598808
C606	C	0.955287	0.446393	1.098808
C607	C	0.426176	-0.082784	0.624841
C608	C	0.926176	0.417216	1.124841
H609	H	0.458325	-0.008189	0.653204
H610	H	0.958325	0.491811	1.153204
H611	H	0.500729	-0.050515	0.653194
H612	H	1.000729	0.449485	1.153194
H613	H	0.435319	-0.031197	0.578455
H614	H	0.935319	0.468803	1.078455
H615	H	0.477709	-0.073529	0.578435
H616	H	0.977709	0.426471	1.078435
H617	H	0.446145	-0.105197	0.645203
H618	H	0.946145	0.394803	1.145203
H619	H	0.403744	-0.062867	0.645213
H620	H	0.903744	0.437133	1.145213
H621	H	0.408892	-0.100095	0.601760
H622	H	0.908892	0.399905	1.101760
H623	H	-0.191243	0.059111	-0.081984
H624	H	0.308757	0.559111	0.418016
H625	H	0.652454	0.143687	0.530959
H626	H	1.152454	0.643687	1.030959
H627	H	0.623373	0.114617	0.865913
H628	H	1.123373	0.614617	1.365913
