data_functionalizedCrystal
_audit_creation_method	'MofGen! by Chris Wilmer'
_symmetry_space_group_name_H-M	'P1'
_symmetry_Int_Tables_number	1
_symmetry_cell_setting	triclinic
loop_
_symmetry_equiv_pos_as_xyz
  x,y,z
_cell_length_a	23.532407
_cell_length_b	26.809956
_cell_length_c	23.532407
_cell_angle_alpha	89.999665
_cell_angle_beta	97.151322
_cell_angle_gamma	90.003435
loop_
_atom_site_label
_atom_site_type_symbol
_atom_site_fract_x
_atom_site_fract_y
_atom_site_fract_z
O1	O	0.755264	0.041422	-0.069127
O2	O	1.255264	0.541422	0.430873
O3	O	0.589401	0.041438	-0.079130
O4	O	1.089401	0.541438	0.420870
O5	O	0.677334	0.041420	0.008803
O6	O	1.177334	0.541420	0.508803
O7	O	0.667331	0.041440	-0.157060
O8	O	1.167331	0.541440	0.342940
O9	O	0.677317	-0.041539	0.008790
O10	O	1.177317	0.458461	0.508790
O11	O	0.589384	-0.041522	-0.079143
O12	O	1.089384	0.458478	0.420857
O13	O	0.755247	-0.041537	-0.069140
O14	O	1.255247	0.458463	0.430860
Zn15	Zn	0.672313	-0.054701	-0.074144
Zn16	Zn	1.172313	0.445299	0.425856
Zn17	Zn	0.672335	0.054602	-0.074126
Zn18	Zn	1.172335	0.554602	0.425874
O19	O	0.667314	-0.041520	-0.157073
O20	O	1.167314	0.458480	0.342927
C21	C	0.568176	-0.000040	-0.078882
C22	C	1.068176	0.499960	0.421118
C23	C	0.504959	-0.000035	-0.078116
C24	C	1.004959	0.499965	0.421884
N25	N	0.672302	-0.129297	-0.074156
N26	N	1.172302	0.370703	0.425844
C27	C	0.105856	-0.000052	-0.125350
C28	C	0.605856	0.499948	0.374650
C29	C	0.046456	-0.000055	-0.124638
C30	C	0.546456	0.499945	0.375362
O31	O	0.009711	-0.000068	-0.168424
O32	O	0.509711	0.499932	0.331576
N33	N	0.023830	-0.000060	-0.072362
N34	N	0.523830	0.499940	0.427638
C35	C	0.060607	-0.000067	-0.020794
C36	C	0.560607	0.499933	0.479206
O37	O	0.035908	-0.000072	0.023737
O38	O	0.535908	0.499928	0.523737
C39	C	0.120006	-0.000068	-0.021506
C40	C	0.620006	0.499932	0.478494
C41	C	0.142629	-0.000057	-0.073785
C42	C	0.642629	0.499943	0.426215
C43	C	0.128479	-0.000042	-0.177625
C44	C	0.628479	0.499958	0.322375
C45	C	0.187876	-0.000038	-0.178336
C46	C	0.687876	0.499962	0.321664
C47	C	0.224649	-0.000044	-0.126772
C48	C	0.724649	0.499956	0.373228
C49	C	0.202025	-0.000053	-0.074497
C50	C	0.702025	0.499947	0.425503
C51	C	0.156783	-0.000078	0.030062
C52	C	0.656783	0.499922	0.530062
C53	C	0.216185	-0.000079	0.029345
C54	C	0.716185	0.499921	0.529345
C55	C	0.238808	-0.000069	-0.022934
C56	C	0.738808	0.499931	0.477066
C57	C	0.298194	-0.000055	-0.023643
C58	C	0.798194	0.499945	0.476357
N59	N	0.320820	-0.000050	-0.075920
N60	N	0.820820	0.499950	0.424080
C61	C	0.284048	-0.000044	-0.127484
C62	C	0.784048	0.499956	0.372516
C63	C	-0.064135	-0.000067	-0.019302
C64	C	0.435865	0.499933	0.480698
C65	C	-0.123533	-0.000063	-0.018589
C66	C	0.376467	0.499937	0.481411
C67	C	-0.137680	-0.000052	-0.122434
C68	C	0.362320	0.499948	0.377566
C69	C	-0.078281	-0.000052	-0.123146
C70	C	0.421719	0.499948	0.376854
C71	C	-0.041509	-0.000062	-0.071578
C72	C	0.458491	0.499938	0.428422
C73	C	0.408784	-0.000035	-0.128974
C74	C	0.908784	0.499965	0.371026
C75	C	0.468186	-0.000029	-0.129680
C76	C	0.968186	0.499971	0.370320
C77	C	0.482329	-0.000043	-0.025836
C78	C	0.982329	0.499957	0.474164
C79	C	0.422932	-0.000047	-0.025129
C80	C	0.922932	0.499953	0.474871
C81	C	0.386160	-0.000044	-0.076702
C82	C	0.886160	0.499956	0.423298
O83	O	0.334974	-0.000044	0.020119
O84	O	0.834974	0.499956	0.520119
O85	O	0.308755	-0.000045	-0.172007
O86	O	0.808755	0.499955	0.327993
C87	C	0.711267	-0.473930	-0.035199
C88	C	1.211267	0.026070	0.464801
C89	C	0.711280	-0.682808	-0.035190
C90	C	1.211280	-0.182808	0.464810
O91	O	0.744386	-0.709818	-0.002071
O92	O	1.244386	-0.209818	0.497929
N93	N	0.672338	-0.708924	-0.074114
N94	N	1.172338	-0.208924	0.425886
C95	C	0.633387	-0.682817	-0.113040
C96	C	1.133387	-0.182817	0.386960
O97	O	0.600261	-0.709823	-0.146142
O98	O	1.100261	-0.209823	0.353858
C99	C	0.633371	-0.473940	-0.113045
C100	C	1.133371	0.026060	0.386955
C101	C	0.672320	-0.447827	-0.074123
C102	C	1.172320	0.052173	0.425877
C103	C	0.750212	-0.447817	0.003720
C104	C	1.250212	0.052183	0.503720
C105	C	0.750210	-0.395601	0.003716
C106	C	1.250210	0.104399	0.503716
C107	C	0.711263	-0.369498	-0.035208
C108	C	1.211263	0.130502	0.464792
C109	C	0.672318	-0.395611	-0.074128
C110	C	1.172318	0.104389	0.425872
C111	C	0.594418	-0.447834	-0.151968
C112	C	1.094418	0.052166	0.348032
C113	C	0.594417	-0.395612	-0.151965
C114	C	1.094417	0.104388	0.348035
C115	C	0.633365	-0.369499	-0.113043
C116	C	1.133365	0.130501	0.386957
C117	C	0.633370	-0.317291	-0.113056
C118	C	1.133370	0.182709	0.386944
N119	N	0.672312	-0.291176	-0.074133
N120	N	1.172312	0.208824	0.425867
C121	C	0.711259	-0.317279	-0.035209
C122	C	1.211259	0.182721	0.464791
C123	C	0.633399	-0.792480	-0.113035
C124	C	1.133399	-0.292480	0.386965
C125	C	0.633404	-0.844699	-0.113034
C126	C	1.133404	-0.344699	0.386966
C127	C	0.711296	-0.844687	-0.035184
C128	C	1.211296	-0.344687	0.464816
C129	C	0.711294	-0.792467	-0.035188
C130	C	1.211294	-0.292467	0.464812
C131	C	0.672341	-0.766365	-0.074111
C132	C	1.172341	-0.266365	0.425889
C133	C	0.711253	-0.207621	-0.035222
C134	C	1.211253	0.292379	0.464778
C135	C	0.711249	-0.155400	-0.035232
C136	C	1.211249	0.344600	0.464768
C137	C	0.633355	-0.155417	-0.113080
C138	C	1.133355	0.344583	0.386920
C139	C	0.633360	-0.207633	-0.113072
C140	C	1.133360	0.292367	0.386928
C141	C	0.672311	-0.233734	-0.074139
C142	C	1.172311	0.266266	0.425861
O143	O	0.600277	-0.290249	-0.146154
O144	O	1.100277	0.209751	0.353846
O145	O	0.744372	-0.290264	-0.002103
O146	O	1.244372	0.209736	0.497897
C147	C	0.711269	-0.526147	-0.035194
C148	C	1.211269	-0.026147	0.464806
C149	C	0.672324	-0.552260	-0.074114
C150	C	1.172324	-0.052260	0.425886
C151	C	0.633377	-0.526157	-0.113038
C152	C	1.133377	-0.026157	0.386962
C153	C	0.672328	-0.604479	-0.074113
C154	C	1.172328	-0.104479	0.425887
C155	C	0.711275	-0.630582	-0.035189
C156	C	1.211275	-0.130582	0.464811
C157	C	0.750217	-0.604466	0.003734
C158	C	1.250217	-0.104466	0.503734
C159	C	0.750215	-0.552250	0.003730
C160	C	1.250215	-0.052250	0.503730
C161	C	0.594435	-0.552272	-0.151961
C162	C	1.094435	-0.052272	0.348039
C163	C	0.594440	-0.604489	-0.151954
C164	C	1.094440	-0.104489	0.348046
C165	C	0.633387	-0.630592	-0.113030
C166	C	1.133387	-0.130592	0.386970
C167	C	0.776472	-0.000058	-0.069388
C168	C	1.276472	0.499942	0.430612
C169	C	0.839689	-0.000060	-0.070154
C170	C	1.339689	0.499940	0.429846
C171	C	0.677071	-0.000060	0.030013
C172	C	1.177071	0.499940	0.530013
C173	C	0.676305	-0.000064	0.093230
C174	C	1.176305	0.499936	0.593230
N175	N	0.672350	0.129198	-0.074110
N176	N	1.172350	0.629198	0.425890
C177	C	0.667577	-0.000038	-0.178283
C178	C	1.167577	0.499962	0.321717
C179	C	0.668343	-0.000031	-0.241500
C180	C	1.168343	0.499969	0.258500
C181	C	0.723539	-0.000041	0.492333
C182	C	1.223539	0.499959	0.992333
C183	C	0.722827	-0.000037	0.551733
C184	C	1.222827	0.499963	1.051733
O185	O	0.766613	-0.000023	0.588478
O186	O	1.266613	0.499977	1.088478
N187	N	0.670551	-0.000033	0.574359
N188	N	1.170551	0.499967	1.074359
C189	C	0.618983	-0.000027	0.537582
C190	C	1.118983	0.499973	1.037582
O191	O	0.574452	-0.000023	0.562281
O192	O	1.074452	0.499977	1.062281
C193	C	0.619695	-0.000027	0.478182
C194	C	1.119695	0.499973	0.978182
C195	C	0.671974	-0.000037	0.455560
C196	C	1.171974	0.499963	0.955560
C197	C	0.775814	-0.000050	0.469710
C198	C	1.275814	0.499950	0.969710
C199	C	0.776525	-0.000055	0.410313
C200	C	1.276525	0.499945	0.910313
C201	C	0.724961	-0.000051	0.373540
C202	C	1.224961	0.499949	0.873540
C203	C	0.672685	-0.000042	0.396164
C204	C	1.172685	0.499958	0.896164
C205	C	0.568127	-0.000018	0.441406
C206	C	1.068127	0.499982	0.941406
C207	C	0.568844	-0.000018	0.382004
C208	C	1.068844	0.499982	0.882004
C209	C	0.621123	-0.000028	0.359381
C210	C	1.121123	0.499972	0.859381
C211	C	0.621832	-0.000042	0.299995
C212	C	1.121832	0.499958	0.799995
N213	N	0.674109	-0.000047	0.277368
N214	N	1.174109	0.499953	0.777368
C215	C	0.725673	-0.000051	0.314141
C216	C	1.225673	0.499949	0.814141
C217	C	0.617491	-0.000026	0.662324
C218	C	1.117491	0.499974	1.162324
C219	C	0.616778	-0.000029	0.721722
C220	C	1.116778	0.499971	1.221722
C221	C	0.720623	-0.000038	0.735869
C222	C	1.220623	0.499962	1.235869
C223	C	0.721335	-0.000039	0.676470
C224	C	1.221335	0.499961	1.176470
C225	C	0.669767	-0.000030	0.639698
C226	C	1.169767	0.499970	1.139698
C227	C	0.727163	-0.000062	0.189405
C228	C	1.227163	0.499938	0.689405
C229	C	0.727869	-0.000068	0.130003
C230	C	1.227869	0.499932	0.630003
C231	C	0.624025	-0.000057	0.115860
C232	C	1.124025	0.499943	0.615860
C233	C	0.623318	-0.000052	0.175257
C234	C	1.123318	0.499948	0.675257
C235	C	0.674891	-0.000053	0.212029
C236	C	1.174891	0.499947	0.712029
O237	O	0.578070	-0.000055	0.263215
O238	O	1.078070	0.499945	0.763215
O239	O	0.770196	-0.000049	0.289433
O240	O	1.270196	0.499951	0.789433
H241	H	0.378851	-0.000035	-0.170970
H242	H	0.878851	0.499965	0.329030
H243	H	0.582043	-0.000055	0.085909
H244	H	1.082043	0.499945	0.585909
N245	N	0.773302	-0.000032	0.773431
N246	N	1.273302	0.499968	1.273431
N247	N	0.819977	-0.000034	0.753230
N248	N	1.319977	0.499966	1.253230
H249	H	0.857180	-0.000029	0.779757
H250	H	1.357180	0.499971	1.279757
N251	N	0.133697	-0.000098	0.083472
N252	N	0.633697	0.499902	0.583472
N253	N	0.145079	-0.035077	0.118142
N254	N	0.645079	0.464923	0.618142
H255	H	0.128777	-0.035093	0.155867
H256	H	0.628777	0.464907	0.655867
N257	N	0.253746	-0.000077	0.082023
N258	N	0.753746	0.499923	0.582023
N259	N	0.288468	0.034894	0.093222
N260	N	0.788468	0.534894	0.593222
H261	H	0.314994	0.034897	0.130426
H262	H	0.814994	0.534897	0.630426
N263	N	0.399828	-0.000058	0.028276
N264	N	0.899828	0.499942	0.528276
N265	N	0.411205	-0.035033	0.062954
N266	N	0.911205	0.464967	0.562954
H267	H	0.394891	-0.035046	0.100673
H268	H	0.894891	0.464954	0.600673
N269	N	0.519899	-0.000063	0.026832
N270	N	1.019899	0.499937	0.526832
N271	N	0.518004	-0.035043	0.061664
N272	N	1.018004	0.464957	0.561664
H273	H	0.544540	-0.035062	0.098861
H274	H	1.044540	0.464938	0.598861
H275	H	0.743009	-0.865949	-0.003491
H276	H	1.243009	-0.365949	0.496509
H277	H	0.486602	-0.000020	-0.172255
H278	H	0.986602	0.499980	0.327745
H279	H	0.819097	-0.000061	0.391900
H280	H	1.319097	0.499939	0.891900
H281	H	0.574207	-0.000030	0.740136
H282	H	1.074207	0.499970	1.240136
N283	N	0.751034	-0.128735	0.004538
N284	N	1.251034	0.371265	0.504538
N285	N	0.785799	-0.152051	0.039294
N286	N	1.285799	0.347949	0.539294
H287	H	0.813893	-0.133221	0.067384
H288	H	1.313893	0.366779	0.567384
H289	H	0.742970	-0.228866	-0.003518
H290	H	1.242970	0.271134	0.496482
N291	N	0.514724	0.000006	0.464506
N292	N	1.014724	0.500006	0.964506
N293	N	0.502751	0.034983	0.496065
N294	N	1.002751	0.534983	0.996065
H295	H	0.465032	0.035002	0.512379
H296	H	0.965032	0.535002	1.012379
N297	N	0.593573	-0.128755	-0.152845
N298	N	1.093573	0.371245	0.347155
N299	N	0.594048	-0.134584	-0.205484
N300	N	1.094048	0.365416	0.294516
H301	H	0.565949	-0.115753	-0.233567
H302	H	1.065949	0.384247	0.266433
N303	N	0.779848	-0.000061	0.226952
N304	N	1.279848	0.499939	0.726952
N305	N	0.826515	-0.000069	0.206735
N306	N	1.326515	0.499931	0.706735
H307	H	0.863725	-0.000071	0.233252
H308	H	1.363725	0.499929	0.733252
N309	N	-0.055166	-0.000042	-0.176543
N310	N	0.444834	0.499958	0.323457
N311	N	-0.023595	0.034928	-0.188523
N312	N	0.476405	0.534928	0.311477
H313	H	-0.007271	0.034934	-0.226236
H314	H	0.492729	0.534934	0.273764
N315	N	0.828496	-0.000051	0.507259
N316	N	1.328496	0.499949	1.007259
N317	N	0.875162	-0.000057	0.487040
N318	N	1.375162	0.499943	0.987040
H319	H	0.912372	-0.000061	0.513555
H320	H	1.412372	0.499939	1.013555
N321	N	0.210970	-0.000027	-0.231744
N322	N	0.710970	0.499973	0.268256
N323	N	0.178121	-0.000022	-0.277775
N324	N	0.678121	0.499978	0.222225
H325	H	0.194427	-0.000015	-0.315498
H326	H	0.694427	0.499985	0.184502
H327	H	0.763906	-0.000046	0.658056
H328	H	1.263906	0.499954	1.158056
H329	H	0.098544	-0.000039	-0.219617
H330	H	0.598544	0.499961	0.280383
H331	H	0.562724	-0.625746	-0.183654
H332	H	1.062724	-0.125746	0.316346
H333	H	0.743009	-0.771209	-0.003494
H334	H	1.243009	-0.271209	0.496506
N335	N	0.554660	-0.525614	-0.191736
N336	N	1.054660	-0.025614	0.308264
N337	N	0.572528	-0.496482	-0.227003
N338	N	1.072528	0.003518	0.272997
H339	H	0.544438	-0.477657	-0.255100
H340	H	1.044438	0.022343	0.244900
H341	H	-0.141947	-0.000064	0.023982
H342	H	0.358053	0.499936	0.523982
N343	N	0.781274	-0.000087	0.106895
N344	N	1.281274	0.499913	0.606895
N345	N	0.815951	-0.035061	0.118271
N346	N	1.315951	0.464939	0.618271
H347	H	0.853667	-0.035075	0.101953
H348	H	1.353667	0.464925	0.601953
N349	N	0.790040	-0.368939	0.043438
N350	N	1.290040	0.131061	0.543438
N351	N	0.824834	-0.392260	0.078158
N352	N	1.324834	0.107740	0.578158
H353	H	0.852981	-0.373434	0.106200
H354	H	1.352981	0.126566	0.606200
N355	N	0.789992	-0.631134	0.043505
N356	N	1.289992	-0.131134	0.543505
N357	N	0.789505	-0.625302	0.096143
N358	N	1.289505	-0.125302	0.596143
H359	H	0.817591	-0.644138	0.124233
H360	H	1.317591	-0.144138	0.624233
H361	H	0.601694	-0.865957	-0.144734
H362	H	1.101694	-0.365957	0.355266
H363	H	0.601678	-0.771231	-0.144732
H364	H	1.101678	-0.271231	0.355268
N365	N	-0.175248	-0.000063	-0.175109
N366	N	0.324752	0.499937	0.324891
N367	N	-0.173353	-0.035033	-0.209953
N368	N	0.326647	0.464967	0.290047
H369	H	-0.199885	-0.035042	-0.247153
H370	H	0.300115	0.464958	0.252847
N371	N	-0.026567	-0.000075	0.033372
N372	N	0.473433	0.499925	0.533372
N373	N	0.008155	-0.035045	0.044559
N374	N	0.508155	0.464955	0.544559
H375	H	0.034686	-0.035051	0.081760
H376	H	0.534686	0.464949	0.581760
N377	N	0.554632	-0.474492	-0.191734
N378	N	1.054632	0.025508	0.308266
N379	N	0.519864	-0.451169	-0.226480
N380	N	1.019864	0.048831	0.273520
H381	H	0.491763	-0.469994	-0.254569
H382	H	0.991763	0.030006	0.245431
H383	H	0.781927	-0.469066	0.035420
H384	H	1.281927	0.030934	0.535420
N385	N	0.554620	-0.368958	-0.191728
N386	N	1.054620	0.131042	0.308272
N387	N	0.519851	-0.392283	-0.226472
N388	N	1.019851	0.107717	0.273528
H389	H	0.491745	-0.373460	-0.254556
H390	H	0.991745	0.126540	0.245444
N391	N	0.593575	-0.234302	-0.152835
N392	N	1.093575	0.265698	0.347165
N393	N	0.558803	-0.210987	-0.187585
N394	N	1.058803	0.289013	0.312415
H395	H	0.530699	-0.229818	-0.215664
H396	H	1.030699	0.270182	0.284336
N397	N	0.790005	-0.525588	0.043492
N398	N	1.290005	-0.025588	0.543492
N399	N	0.824772	-0.548909	0.078240
N400	N	1.324772	-0.048909	0.578240
H401	H	0.852875	-0.530083	0.106326
H402	H	1.352875	-0.030083	0.606326
N403	N	0.564807	-0.000019	0.624772
N404	N	1.064807	0.499981	1.124772
N405	N	0.518139	-0.000014	0.644987
N406	N	1.018139	0.499986	1.144987
H407	H	0.480930	-0.000008	0.618469
H408	H	0.980930	0.499992	1.118469
H409	H	0.526850	-0.000011	0.352066
H410	H	1.026850	0.499989	0.852066
N411	N	0.569912	-0.000058	0.198360
N412	N	1.069912	0.499942	0.698360
N413	N	0.523877	-0.000062	0.165517
N414	N	1.023877	0.499938	0.665517
H415	H	0.486157	-0.000065	0.181829
H416	H	0.986157	0.499935	0.681829
