data_functionalizedCrystal
_audit_creation_method	'MofGen! by Chris Wilmer'
_symmetry_space_group_name_H-M	'P1'
_symmetry_Int_Tables_number	1
_symmetry_cell_setting	triclinic
loop_
_symmetry_equiv_pos_as_xyz
  x,y,z
_cell_length_a	16.974800
_cell_length_b	14.519731
_cell_length_c	16.053802
_cell_angle_alpha	92.569546
_cell_angle_beta	91.074188
_cell_angle_gamma	83.539176
loop_
_atom_site_label
_atom_site_type_symbol
_atom_site_fract_x
_atom_site_fract_y
_atom_site_fract_z
O1	O	1.049251	0.117558	0.001491
O2	O	1.549251	0.617558	0.501491
O3	O	0.819810	0.131675	-0.014019
O4	O	1.319810	0.631675	0.485981
O5	O	0.940605	-0.009617	-0.005846
O6	O	1.440605	0.490383	0.494154
O7	O	0.928456	0.258850	-0.006682
O8	O	1.428456	0.758850	0.493318
O9	O	0.933956	-0.001872	0.132563
O10	O	1.433956	0.498128	0.632563
O11	O	0.813161	0.139420	0.124390
O12	O	1.313161	0.639420	0.624390
O13	O	1.042602	0.125303	0.139900
O14	O	1.542602	0.625303	0.639900
Zn15	Zn	0.926826	0.133591	0.154120
Zn16	Zn	1.426826	0.633591	0.654120
Zn17	Zn	0.935586	0.123387	-0.028240
Zn18	Zn	1.435586	0.623387	0.471760
O19	O	0.921807	0.266595	0.131727
O20	O	1.421807	0.766595	0.631727
C21	C	0.787121	0.134869	0.053200
C22	C	1.287121	0.634869	0.553200
C23	C	0.699626	0.132835	0.047286
C24	C	1.199626	0.632835	0.547286
C25	C	0.654901	0.136099	0.119956
C26	C	1.154901	0.636099	0.619956
C27	C	0.572691	0.134174	0.114401
C28	C	1.072691	0.634174	0.614401
C29	C	0.535207	0.128991	0.036175
C30	C	1.035207	0.628991	0.536175
C31	C	0.579938	0.125724	-0.036501
C32	C	1.079938	0.625724	0.463499
C33	C	0.662147	0.127643	-0.030945
C34	C	1.162147	0.627643	0.469055
C35	C	0.289727	0.122793	0.011468
C36	C	0.789727	0.622793	0.511468
C37	C	0.207512	0.120878	0.005918
C38	C	0.707512	0.620878	0.505918
C39	C	0.200270	0.129326	0.156820
C40	C	0.700270	0.629326	0.656820
C41	C	0.282480	0.131250	0.162369
C42	C	0.782480	0.631250	0.662369
C43	C	0.327205	0.127978	0.089693
C44	C	0.827205	0.627978	0.589693
N45	N	0.451175	0.127026	0.030495
N46	N	0.951175	0.627026	0.530495
N47	N	0.411236	0.129937	0.095374
N48	N	0.911236	0.629937	0.595374
C49	C	0.936711	-0.040105	0.063320
C50	C	1.436711	0.459895	0.563320
C51	C	0.935005	-0.142486	0.063206
C52	C	1.435005	0.357514	0.563206
C53	C	0.933619	-0.225631	0.063110
C54	C	1.433619	0.274369	0.563110
C55	C	0.931887	-0.329941	0.062986
C56	C	1.431887	0.170059	0.562986
C57	C	0.930513	-0.413081	0.062888
C58	C	1.430513	0.086919	0.562888
C59	C	0.928781	-0.517397	0.062766
C60	C	1.428781	-0.017397	0.562766
C61	C	1.075290	0.122109	0.072679
C62	C	1.575290	0.622109	0.572679
C63	C	1.162786	0.124142	0.078588
C64	C	1.662786	0.624142	0.578588
C65	C	0.925701	0.297082	0.062559
C66	C	1.425701	0.797082	0.562559
C67	C	0.927407	0.399463	0.062668
C68	C	1.427407	0.899463	0.562668
N69	N	0.920853	0.140555	0.278576
N70	N	1.420853	0.640555	0.778576
N71	N	0.941565	0.116416	-0.152695
N72	N	1.441565	0.616416	0.347305
C73	C	0.972270	0.080456	0.325750
C74	C	1.472270	0.580456	0.825750
C75	C	0.968099	0.085336	0.412874
C76	C	1.468099	0.585336	0.912874
C77	C	0.912515	0.150320	0.452824
C78	C	1.412515	0.650320	0.952824
C79	C	0.861092	0.210421	0.405645
C80	C	1.361092	0.710421	0.905645
C81	C	0.865260	0.205536	0.318522
C82	C	1.365260	0.705536	0.818522
C83	C	0.894310	0.171632	0.713002
C84	C	1.394310	0.671632	1.213002
C85	C	0.890148	0.176514	0.800132
C86	C	1.390148	0.676514	1.300132
C87	C	0.997155	0.051428	0.807355
C88	C	1.497155	0.551428	1.307355
C89	C	1.001320	0.046552	0.720230
C90	C	1.501320	0.546552	1.220230
C91	C	0.949895	0.106650	0.673058
C92	C	1.449895	0.606650	1.173058
N93	N	0.908252	0.155311	0.541880
N94	N	1.408252	0.655311	1.041880
N95	N	0.954155	0.101653	0.584004
N96	N	1.454155	0.601653	1.084004
H97	H	0.698562	0.124986	-0.090121
H98	H	1.198562	0.624986	0.409879
C99	C	0.524120	0.137517	0.193279
C100	C	1.024120	0.637517	0.693279
C101	C	0.485493	0.057374	0.195107
C102	C	0.985493	0.557374	0.695107
C103	C	0.440755	0.060409	0.267767
C104	C	0.940755	0.560409	0.767767
H105	H	0.485898	0.190609	0.193929
H106	H	0.985898	0.690609	0.693929
H107	H	0.558203	0.140831	0.240681
H108	H	1.058203	0.640831	0.740681
H109	H	0.451413	0.054070	0.147718
H110	H	0.951413	0.554070	0.647718
H111	H	0.523696	0.004270	0.194470
H112	H	1.023696	0.504270	0.694470
H113	H	0.474838	0.063723	0.315169
H114	H	0.974838	0.563723	0.815169
H115	H	0.402538	0.113505	0.268412
H116	H	0.902538	0.613505	0.768412
H117	H	0.414547	0.006031	0.269021
H118	H	0.914547	0.506031	0.769021
H119	H	0.844882	0.229436	0.832655
H120	H	1.344882	0.729436	1.332655
H121	H	0.685413	0.140328	0.183655
H122	H	1.185413	0.640328	0.683655
C123	C	1.032648	0.009806	0.282532
C124	C	1.532648	0.509806	0.782532
C125	C	1.076769	-0.041798	0.342495
C126	C	1.576769	0.458202	0.842495
C127	C	1.132389	-0.106901	0.302717
C128	C	1.632389	0.393099	0.802717
H129	H	1.067205	0.041068	0.250755
H130	H	1.567205	0.541068	0.750755
H131	H	1.005887	-0.030629	0.246658
H132	H	1.505887	0.469371	0.746658
H133	H	1.103529	-0.001370	0.378355
H134	H	1.603529	0.498630	0.878355
H135	H	1.042234	-0.073080	0.374276
H136	H	1.542234	0.426920	0.874276
H137	H	1.105628	-0.147336	0.266843
H138	H	1.605628	0.352664	0.766843
H139	H	1.166940	-0.075631	0.270941
H140	H	1.666940	0.424369	0.770941
H141	H	1.162326	-0.141928	0.343395
H142	H	1.662326	0.358072	0.843395
H143	H	1.046582	-0.006363	0.687705
H144	H	1.546582	0.493637	1.187705
H145	H	0.815830	0.263329	0.438177
H146	H	1.315830	0.763329	0.938177
H147	H	0.852439	0.220568	0.674601
H148	H	1.352439	0.720568	1.174601
H149	H	1.039022	0.002498	0.845770
H150	H	1.539022	0.502498	1.345770
C151	C	0.809526	0.270940	0.267351
C152	C	1.309526	0.770940	0.767351
C153	C	0.821436	0.362792	0.289381
C154	C	1.321436	0.862792	0.789381
C155	C	0.770112	0.423066	0.242254
C156	C	1.270112	0.923066	0.742254
H157	H	0.756198	0.261683	0.278050
H158	H	1.256198	0.761683	0.778050
H159	H	0.819971	0.258784	0.209735
H160	H	1.319971	0.758784	0.709735
H161	H	0.810985	0.374943	0.346984
H162	H	1.310985	0.874943	0.846984
H163	H	0.874753	0.372079	0.278679
H164	H	1.374753	0.872079	0.778679
H165	H	0.780557	0.410911	0.184637
H166	H	1.280557	0.910911	0.684637
H167	H	0.716787	0.413801	0.252956
H168	H	1.216787	0.913801	0.752956
H169	H	0.778191	0.485394	0.257188
H170	H	1.278191	0.985394	0.757188
C171	C	0.151844	0.132923	0.235817
C172	C	0.651844	0.632923	0.735817
C173	C	0.202265	0.137893	0.305511
C174	C	0.702265	0.637893	0.805511
C175	C	0.157684	0.141215	0.378300
C176	C	0.657684	0.641215	0.878300
H177	H	0.125549	0.078640	0.237307
H178	H	0.625549	0.578640	0.737307
H179	H	0.113701	0.186104	0.236431
H180	H	0.613701	0.686104	0.736431
H181	H	0.240394	0.084717	0.304897
H182	H	0.740394	0.584717	0.804897
H183	H	0.228562	0.192173	0.304048
H184	H	0.728562	0.692173	0.804048
H185	H	0.119541	0.194396	0.378915
H186	H	0.619541	0.694396	0.878915
H187	H	0.131390	0.086931	0.379782
H188	H	0.631390	0.586931	0.879782
H189	H	0.191887	0.144596	0.425596
H190	H	0.691887	0.644596	0.925596
H191	H	0.176995	0.116660	-0.057786
H192	H	0.676995	0.616660	0.442214
C193	C	0.338135	0.119281	-0.067531
C194	C	0.838135	0.619281	0.432469
C195	C	0.287707	0.114358	-0.137224
C196	C	0.787707	0.614358	0.362776
C197	C	0.332275	0.111131	-0.210016
C198	C	0.832275	0.611131	0.289984
H199	H	0.376294	0.066129	-0.068215
H200	H	0.876294	0.566129	0.431785
H201	H	0.364408	0.173600	-0.068957
H202	H	0.864408	0.673600	0.431043
H203	H	0.261447	0.060045	-0.135799
H204	H	0.761447	0.560045	0.364201
H205	H	0.249548	0.167504	-0.136568
H206	H	0.749548	0.667504	0.363432
H207	H	0.358547	0.165450	-0.211441
H208	H	0.858547	0.665450	0.288559
H209	H	0.370431	0.057979	-0.210690
H210	H	0.870431	0.557979	0.289310
H211	H	0.298065	0.107799	-0.257310
H212	H	0.798065	0.607799	0.242690
C213	C	1.023960	0.020246	0.464205
C214	C	1.523960	0.520246	0.964205
C215	C	1.069859	0.072336	0.517485
C216	C	1.569859	0.572336	1.017485
C217	C	1.121320	0.012406	0.564793
C218	C	1.621320	0.512406	1.064793
H219	H	1.057738	-0.019175	0.428040
H220	H	1.557738	0.480825	0.928040
H221	H	0.993948	-0.016314	0.496334
H222	H	1.493948	0.483686	0.996334
H223	H	1.099868	0.108880	0.485359
H224	H	1.599868	0.608880	0.985359
H225	H	1.036102	0.111754	0.553667
H226	H	1.536102	0.611754	1.053667
H227	H	1.091309	-0.024154	0.596922
H228	H	1.591309	0.475846	1.096922
H229	H	1.155093	-0.027012	0.528622
H230	H	1.655093	0.472988	1.028622
H231	H	1.152464	0.047740	0.600955
H232	H	1.652464	0.547740	1.100955
H233	H	0.549413	0.121497	-0.100194
H234	H	1.049413	0.621497	0.399806
H235	H	0.312994	0.135466	0.226069
H236	H	0.812994	0.635466	0.726069
