data_functionalizedCrystal
_audit_creation_method	'MofGen! by Chris Wilmer'
_symmetry_space_group_name_H-M	'P1'
_symmetry_Int_Tables_number	1
_symmetry_cell_setting	triclinic
loop_
_symmetry_equiv_pos_as_xyz
  x,y,z
_cell_length_a	19.805407
_cell_length_b	13.032868
_cell_length_c	19.805399
_cell_angle_alpha	97.153250
_cell_angle_beta	90.024201
_cell_angle_gamma	82.787795
loop_
_atom_site_label
_atom_site_type_symbol
_atom_site_fract_x
_atom_site_fract_y
_atom_site_fract_z
Zn1	Zn	1.000496	0.416088	0.417014
Zn2	Zn	0.986030	0.590848	0.318194
Zn3	Zn	0.887309	0.416115	0.303831
Zn4	Zn	0.872898	0.590790	0.431327
O5	O	0.936683	0.503460	0.367592
O6	O	1.093293	0.439283	0.403926
O7	O	0.972911	0.567704	0.221575
O8	O	0.914408	0.269872	0.306844
O9	O	1.082665	0.567678	0.331323
O10	O	0.997566	0.269852	0.389999
O11	O	0.900381	0.439329	0.211023
O12	O	0.790681	0.439273	0.320723
O13	O	0.889848	0.567580	0.524142
O14	O	0.780094	0.567606	0.414394
O15	O	0.983593	0.439227	0.513626
O16	O	0.958938	0.737079	0.345202
O17	O	0.875820	0.737037	0.428321
C18	C	0.760829	0.503436	0.367553
C19	C	0.685596	0.503452	0.367555
C20	C	0.914264	0.774976	0.389888
C21	C	0.904735	0.891132	0.399449
C22	C	0.218299	0.570409	0.416351
C23	C	0.288987	0.570407	0.416337
C24	C	0.329831	0.503485	0.367620
C25	C	0.299983	0.436568	0.318910
C26	C	0.229295	0.436576	0.318922
C27	C	0.585059	0.436536	0.318860
C28	C	0.655751	0.436532	0.318853
C29	C	0.644751	0.570367	0.416275
C30	C	0.574063	0.570375	0.416287
C31	C	0.544221	0.503463	0.367575
C32	C	0.467572	0.503467	0.367591
C33	C	0.406479	0.503475	0.367607
C34	C	0.941648	0.942905	0.362617
C35	C	0.931800	1.062958	0.372498
C36	C	1.113224	0.503484	0.367630
C37	C	1.188455	0.503495	0.367647
C38	C	0.959186	1.230883	0.345215
C39	C	0.968718	1.114727	0.335661
C40	C	0.936727	0.503394	0.544129
C41	C	0.936745	0.503366	0.619359
C42	C	0.936685	0.503450	0.191735
C43	C	0.936822	0.503184	0.116481
C44	C	0.985560	0.436530	0.649228
C45	C	0.985569	0.436499	0.719914
C46	C	0.936766	0.503312	0.760730
C47	C	0.887947	0.570151	0.730856
C48	C	0.887935	0.570175	0.660171
C49	C	0.887993	0.570054	1.015921
C50	C	0.888010	0.570026	1.086611
C51	C	0.985627	0.436378	1.075665
C52	C	0.985615	0.436402	1.004979
C53	C	0.936794	0.503237	0.975111
C54	C	0.936783	0.503268	0.898465
C55	C	0.936779	0.503287	0.837375
H56	H	0.185048	0.624898	0.456026
H57	H	0.848209	0.624547	0.764093
C58	C	0.834236	0.643702	0.627315
N59	N	0.793787	0.699084	0.602569
C60	C	0.834286	0.643571	0.983075
N61	N	0.793830	0.698946	0.958333
C62	C	0.994192	0.882718	0.310133
N63	N	1.033768	0.837388	0.270599
H64	H	0.865845	0.935687	0.438300
C65	C	0.196468	0.362963	0.265345
N66	N	0.171744	0.307517	0.224987
H67	H	0.892907	1.107508	0.411352
H68	H	1.007617	1.070178	0.296813
H69	H	0.313282	0.624897	0.455996
H70	H	1.025302	0.382127	0.616000
H71	H	1.025320	0.382077	0.744230
H72	H	0.333243	0.382084	0.279241
C73	C	1.039300	0.362899	0.960085
N74	N	1.079733	0.307531	0.926271
C75	C	1.039325	0.362844	1.108525
N76	N	1.079769	0.307460	1.133274
C77	C	0.529138	0.644003	0.469874
N78	N	0.495300	0.699467	0.510233
C79	C	0.552242	0.362916	0.265284
N80	N	0.527523	0.307457	0.224930
C81	C	0.677583	0.643983	0.469853
N82	N	0.702312	0.699429	0.510208
C83	C	0.700679	0.362915	0.265254
N84	N	0.734518	0.307471	0.224886
H85	H	0.848266	0.624435	1.119842
