data_functionalizedCrystal
_audit_creation_method	'MofGen! by Chris Wilmer'
_symmetry_space_group_name_H-M	'P1'
_symmetry_Int_Tables_number	1
_symmetry_cell_setting	triclinic
loop_
_symmetry_equiv_pos_as_xyz
  x,y,z
_cell_length_a	16.625546
_cell_length_b	21.395362
_cell_length_c	21.395355
_cell_angle_alpha	90.048039
_cell_angle_beta	89.981524
_cell_angle_gamma	89.959270
loop_
_atom_site_label
_atom_site_type_symbol
_atom_site_fract_x
_atom_site_fract_y
_atom_site_fract_z
Zn1	Zn	-0.320702	-0.957895	-0.354654
Zn2	Zn	0.012631	-0.624562	-0.021321
Zn3	Zn	0.345965	-0.291229	0.312012
Zn4	Zn	-0.455517	-0.957813	-0.249877
Zn5	Zn	-0.122184	-0.624480	0.083456
Zn6	Zn	0.211150	-0.291146	0.416790
Zn7	Zn	-0.320745	-0.853110	-0.249848
Zn8	Zn	0.012588	-0.519777	0.083485
Zn9	Zn	0.345922	-0.186444	0.416819
Zn10	Zn	-0.455539	-0.853095	-0.354574
Zn11	Zn	-0.122206	-0.519761	-0.021241
Zn12	Zn	0.211127	-0.186428	0.312093
O13	O	-0.388126	-0.905478	-0.302238
O14	O	-0.054793	-0.572145	0.031095
O15	O	0.278541	-0.238812	0.364428
O16	O	-0.338558	-1.045562	-0.340801
O17	O	-0.005225	-0.712229	-0.007468
O18	O	0.328109	-0.378896	0.325866
O19	O	-0.437648	-0.943896	-0.162195
O20	O	-0.104315	-0.610563	0.171138
O21	O	0.229019	-0.277229	0.504471
O22	O	-0.207907	-0.867051	-0.263772
O23	O	0.125426	-0.533718	0.069561
O24	O	0.458760	-0.200385	0.402894
O25	O	-0.437606	-1.045502	-0.263821
O26	O	-0.104273	-0.712168	0.069512
O27	O	0.229060	-0.378835	0.402845
O28	O	-0.207875	-0.944037	-0.340773
O29	O	0.125458	-0.610703	-0.007440
O30	O	0.458791	-0.277370	0.325894
O31	O	-0.338632	-0.866971	-0.162174
O32	O	-0.005298	-0.533638	0.171159
O33	O	0.328035	-0.200305	0.504493
O34	O	-0.338653	-0.765430	-0.263695
O35	O	-0.005320	-0.432097	0.069639
O36	O	0.328013	-0.098764	0.402972
O37	O	-0.437644	-0.867025	-0.442263
O38	O	-0.104311	-0.533691	-0.108929
O39	O	0.229023	-0.200358	0.224404
O40	O	-0.437686	-0.765419	-0.340636
O41	O	-0.104353	-0.432085	-0.007303
O42	O	0.228981	-0.098752	0.326030
O43	O	-0.338580	-0.944021	-0.442322
O44	O	-0.005246	-0.610688	-0.108988
O45	O	0.328087	-0.277355	0.224345
O46	O	-0.568352	-0.943881	-0.263744
O47	O	-0.235019	-0.610547	0.069590
O48	O	0.098314	-0.277214	0.402923
O49	O	-0.568369	-0.866945	-0.340664
O50	O	-0.235035	-0.533611	-0.007331
O51	O	0.098298	-0.200278	0.326002
C52	C	-0.388177	-0.742691	-0.302154
C53	C	-0.054844	-0.409357	0.031179
C54	C	0.278489	-0.076024	0.364513
C55	C	-0.388219	-0.673049	-0.302133
C56	C	-0.054885	-0.339716	0.031200
C57	C	0.278448	-0.006383	0.364534
C58	C	-0.439855	-0.640347	-0.342134
C59	C	-0.106522	-0.307013	-0.008801
C60	C	0.226812	0.026320	0.324533
C61	C	-0.439839	-0.574911	-0.342157
C62	C	-0.106505	-0.241578	-0.008824
C63	C	0.226828	0.091755	0.324509
C64	C	-0.388195	-0.542181	-0.302168
C65	C	-0.054861	-0.208848	0.031165
C66	C	0.278472	0.124486	0.364499
C67	C	-0.336548	-0.574892	-0.262164
C68	C	-0.003215	-0.241558	0.071169
C69	C	0.330119	0.091775	0.404503
C70	C	-0.336560	-0.640326	-0.262146
C71	C	-0.003227	-0.306993	0.071187
C72	C	0.330107	0.026341	0.404520
C73	C	-0.381705	-0.438456	-0.245755
C74	C	-0.048371	-0.105122	0.087578
C75	C	0.284962	0.228211	0.420911
C76	C	-0.381698	-0.373023	-0.245772
C77	C	-0.048365	-0.039689	0.087561
C78	C	0.284968	0.293644	0.420895
C79	C	-0.388153	-0.340360	-0.302223
C80	C	-0.054819	-0.007027	0.031110
C81	C	0.278514	0.326306	0.364444
C82	C	-0.394631	-0.373139	-0.358659
C83	C	-0.061297	-0.039806	-0.025325
C84	C	0.272036	0.293528	0.308008
C85	C	-0.394643	-0.438573	-0.358641
C86	C	-0.061309	-0.105240	-0.025308
C87	C	0.272024	0.228093	0.308025
C88	C	-0.388175	-0.471229	-0.302183
C89	C	-0.054842	-0.137895	0.031150
C90	C	0.278491	0.195438	0.364484
C91	C	-0.439774	-0.236705	-0.342253
C92	C	-0.106441	0.096628	-0.008919
C93	C	0.226892	0.429962	0.324414
C94	C	-0.439752	-0.171269	-0.342277
C95	C	-0.106419	0.162065	-0.008944
C96	C	0.226914	0.495398	0.324390
C97	C	-0.336466	-0.171250	-0.262278
C98	C	-0.003133	0.162083	0.071055
C99	C	0.330201	0.495416	0.404389
C100	C	-0.336484	-0.236686	-0.262259
C101	C	-0.003150	0.096648	0.071074
C102	C	0.330183	0.429981	0.404407
C103	C	-0.388142	-0.269409	-0.302246
C104	C	-0.054809	0.063924	0.031088
C105	C	0.278525	0.397258	0.364421
C106	C	-0.597617	-0.905419	-0.302212
C107	C	-0.264283	-0.572086	0.031121
C108	C	0.069050	-0.238752	0.364455
C109	C	-0.687238	-0.905451	-0.302222
C110	C	-0.353904	-0.572118	0.031111
C111	C	-0.020571	-0.238784	0.364445
C112	C	-1.015413	-0.905560	-0.302287
C113	C	-0.682080	-0.572227	0.031046
C114	C	-0.348747	-0.238894	0.364379
C115	C	-0.924105	-0.905528	-0.302271
C116	C	-0.590772	-0.572195	0.031063
C117	C	-0.257438	-0.238861	0.364396
C118	C	-0.851328	-0.905505	-0.302254
C119	C	-0.517995	-0.572172	0.031079
C120	C	-0.184662	-0.238838	0.364412
C121	C	-0.760014	-0.905474	-0.302238
C122	C	-0.426681	-0.572140	0.031095
C123	C	-0.093348	-0.238807	0.364428
C124	C	-0.177817	-0.905555	-0.302278
C125	C	0.155516	-0.572222	0.031055
C126	C	0.488850	-0.238888	0.364388
C127	C	-0.088196	-0.905588	-0.302296
C128	C	0.245138	-0.572254	0.031038
C129	C	0.578471	-0.238921	0.364371
C130	C	-0.388110	-0.905530	-0.465662
C131	C	-0.054776	-0.572197	-0.132328
C132	C	0.278557	-0.238864	0.201005
C133	C	-0.388103	-0.905553	-0.535303
C134	C	-0.054769	-0.572219	-0.201970
C135	C	0.278564	-0.238886	0.131364
C136	C	-0.388088	-0.068902	-0.302305
C137	C	-0.054755	0.264432	0.031028
C138	C	0.278578	0.597765	0.364361
C139	C	-0.388107	-0.138543	-0.302288
C140	C	-0.054773	0.194790	0.031045
C141	C	0.278560	0.528124	0.364379
C142	C	-0.336518	-0.945643	-0.568048
C143	C	-0.003184	-0.612310	-0.234715
C144	C	0.330149	-0.278976	0.098619
C145	C	-0.336483	-0.945642	-0.633483
C146	C	-0.003150	-0.612309	-0.300150
C147	C	0.330184	-0.278975	0.033183
C148	C	-0.388048	-0.905557	-0.666171
C149	C	-0.054714	-0.572224	-0.332838
C150	C	0.278619	-0.238891	0.000495
C151	C	-0.439636	-0.865459	-0.633419
C152	C	-0.106303	-0.532126	-0.300085
C153	C	0.227030	-0.198792	0.033248
C154	C	-0.439664	-0.865457	-0.567985
C155	C	-0.106330	-0.532123	-0.234651
C156	C	0.227003	-0.198790	0.098682
C157	C	-0.460650	-0.900590	-0.769835
C158	C	-0.127317	-0.567256	-0.436502
C159	C	0.206016	-0.233923	-0.103168
C160	C	-0.460624	-0.900596	-0.835268
C161	C	-0.127291	-0.567263	-0.501935
C162	C	0.206042	-0.233930	-0.168601
C163	C	-0.387962	-0.905561	-0.867992
C164	C	-0.054629	-0.572228	-0.534659
C165	C	0.278704	-0.238895	-0.201326
C166	C	-0.315324	-0.910532	-0.835276
C167	C	0.018009	-0.577199	-0.501942
C168	C	0.351342	-0.243866	-0.168609
C169	C	-0.315352	-0.910530	-0.769841
C170	C	0.017981	-0.577197	-0.436508
C171	C	0.351315	-0.243863	-0.103175
C172	C	-0.388023	-0.905555	-0.737124
C173	C	-0.054690	-0.572222	-0.403791
C174	C	0.278643	-0.238889	-0.070457
C175	C	-0.336335	-0.945653	-0.971690
C176	C	-0.003002	-0.612320	-0.638356
C177	C	0.330331	-0.278986	-0.305023
C178	C	-0.336299	-0.945648	-1.037126
C179	C	-0.002966	-0.612314	-0.703793
C180	C	0.330367	-0.278981	-0.370460
C181	C	-0.439460	-0.865468	-1.037061
C182	C	-0.106127	-0.532135	-0.703727
C183	C	0.227207	-0.198801	-0.370394
C184	C	-0.439489	-0.865470	-0.971625
C185	C	-0.106155	-0.532137	-0.638292
C186	C	0.227178	-0.198803	-0.304958
C187	C	-0.387928	-0.905566	-0.938944
C188	C	-0.054594	-0.572232	-0.605610
C189	C	0.278739	-0.238899	-0.272277
C190	C	-0.388084	-0.905463	-0.139451
C191	C	-0.054751	-0.572129	0.193883
C192	C	0.278583	-0.238796	0.527216
C193	C	-0.387864	-0.905562	-0.069810
C194	C	-0.054530	-0.572228	0.263523
C195	C	0.278803	-0.238895	0.596857
H196	H	-0.481918	-0.666986	-0.374695
H197	H	-0.148585	-0.333653	-0.041362
H198	H	0.184748	-0.000319	0.291972
H199	H	-0.294347	-0.978298	-0.945079
H200	H	0.038987	-0.644965	-0.611746
H201	H	0.372320	-0.311631	-0.278412
Br202	Br	-0.266368	-0.126838	-0.208012
Br203	Br	0.066965	0.206495	0.125322
Br204	Br	0.400298	0.539829	0.458655
Br205	Br	-0.509920	-0.530519	-0.396450
Br206	Br	-0.176587	-0.197186	-0.063116
Br207	Br	0.156747	0.136148	0.270217
Br208	Br	-0.403389	-0.328821	-0.435277
Br209	Br	-0.070055	0.004513	-0.101943
Br210	Br	0.263278	0.337846	0.231390
Br211	Br	-0.509877	-0.281119	-0.396521
Br212	Br	-0.176543	0.052214	-0.063188
Br213	Br	0.156790	0.385547	0.270146
H214	H	-0.294509	-0.666952	-0.229572
H215	H	0.038824	-0.333619	0.103761
H216	H	0.372158	-0.000285	0.437094
H217	H	-0.481618	-0.832820	-0.660038
H218	H	-0.148285	-0.499487	-0.326704
H219	H	0.185049	-0.166153	0.006629
Br220	Br	-0.403430	-0.483057	-0.435228
Br221	Br	-0.070097	-0.149724	-0.101895
Br222	Br	0.263236	0.183610	0.231438
H223	H	-0.481799	-0.144643	-0.374855
H224	H	-0.148466	0.188690	-0.041521
H225	H	0.184867	0.522024	0.291812
H226	H	-0.376445	-0.465044	-0.199783
H227	H	-0.043112	-0.131710	0.133550
H228	H	0.290222	0.201623	0.466883
H229	H	-0.294440	-0.263313	-0.229683
H230	H	0.038894	0.070021	0.103650
H231	H	0.372227	0.403354	0.436984
H232	H	-0.519770	-0.896552	-0.861901
H233	H	-0.186437	-0.563219	-0.528568
H234	H	0.146896	-0.229886	-0.195234
H235	H	-0.481500	-0.832828	-0.944964
H236	H	-0.148166	-0.499494	-0.611631
H237	H	0.185167	-0.166161	-0.278297
H238	H	-0.376428	-0.346339	-0.199818
H239	H	-0.043095	-0.013006	0.133515
H240	H	0.290238	0.320327	0.466848
H241	H	-0.294498	-0.548239	-0.229606
H242	H	0.038836	-0.214905	0.103728
H243	H	0.372169	0.118428	0.437061
H244	H	-0.294531	-0.978291	-0.541443
H245	H	0.038802	-0.644958	-0.208109
H246	H	0.372135	-0.311625	0.125224
H247	H	-0.294472	-0.978287	-0.660149
H248	H	0.038862	-0.644954	-0.326816
H249	H	0.372195	-0.311621	0.006517
Br250	Br	-0.216777	-0.917273	-0.725442
Br251	Br	0.116556	-0.583940	-0.392108
Br252	Br	0.449889	-0.250606	-0.058775
H253	H	-0.481437	-0.832824	-1.063675
H254	H	-0.148103	-0.499491	-0.730341
H255	H	0.185230	-0.166157	-0.397008
H256	H	-0.256156	-0.914576	-0.861918
H257	H	0.077177	-0.581243	-0.528585
H258	H	0.410510	-0.247910	-0.195252
Br259	Br	-0.266297	-1.000071	-1.081567
Br260	Br	0.067036	-0.666737	-0.748234
Br261	Br	0.400370	-0.333404	-0.414901
Br262	Br	-0.559274	-0.893870	-0.725430
Br263	Br	-0.225941	-0.560536	-0.392097
Br264	Br	0.107393	-0.227203	-0.058763
Br265	Br	-0.509676	-0.811043	-0.523542
Br266	Br	-0.176343	-0.477710	-0.190209
Br267	Br	0.156990	-0.144376	0.143125
