data_functionalizedCrystal
_audit_creation_method	'MofGen! by Chris Wilmer'
_symmetry_space_group_name_H-M	'P1'
_symmetry_Int_Tables_number	1
_symmetry_cell_setting	triclinic
loop_
_symmetry_equiv_pos_as_xyz
  x,y,z
_cell_length_a	17.699077
_cell_length_b	16.176319
_cell_length_c	19.288865
_cell_angle_alpha	89.987963
_cell_angle_beta	96.791588
_cell_angle_gamma	90.006860
loop_
_atom_site_label
_atom_site_type_symbol
_atom_site_fract_x
_atom_site_fract_y
_atom_site_fract_z
O1	O	1.003958	0.068745	-0.087818
O2	O	0.783563	0.068750	-0.099250
O3	O	0.900129	0.068731	0.007589
O4	O	0.887392	0.068764	-0.194657
O5	O	0.900113	-0.068762	0.007596
O6	O	0.783547	-0.068743	-0.099243
O7	O	1.003942	-0.068748	-0.087811
Cu8	Cu	0.893743	-0.081300	-0.093527
Cu9	Cu	0.893762	0.081302	-0.093535
O10	O	0.887376	-0.068729	-0.194650
C11	C	0.755359	0.000004	-0.098838
C12	C	0.671342	0.000006	-0.097611
N13	N	0.893735	-0.195665	-0.093521
C14	C	0.631867	-0.074943	-0.097029
C15	C	0.552926	-0.074944	-0.095866
C16	C	0.513461	0.000004	-0.095289
C17	C	0.552942	0.074959	-0.095868
C18	C	0.631882	0.074959	-0.097027
C19	C	0.234585	0.074959	-0.091194
C20	C	0.155639	0.074953	-0.090037
C21	C	0.155629	-0.074943	-0.090032
C22	C	0.234569	-0.074943	-0.091191
C23	C	0.274044	0.000011	-0.091767
C24	C	0.359641	0.000011	-0.093028
C25	C	0.427865	0.000005	-0.094033
C26	C	0.945366	-0.238938	-0.046232
C27	C	0.945370	-0.325485	-0.046231
C28	C	0.893746	-0.368757	-0.093523
C29	C	0.842110	-0.325479	-0.140814
C30	C	0.842103	-0.238933	-0.140811
C31	C	0.842136	-0.674507	-0.140827
C32	C	0.842148	-0.761059	-0.140828
C33	C	0.945403	-0.761058	-0.046247
C34	C	0.945396	-0.674513	-0.046244
C35	C	0.893757	-0.631242	-0.093532
C36	C	0.893753	-0.537398	-0.093532
C37	C	0.893754	-0.462600	-0.093528
C38	C	1.032147	-0.000000	-0.088224
C39	C	1.116163	0.000004	-0.089450
C40	C	0.899711	-0.000018	0.033469
C41	C	0.898481	-0.000025	0.110574
N42	N	0.893776	0.195667	-0.093535
C43	C	0.887794	0.000022	-0.220531
C44	C	0.889024	0.000035	-0.297636
C45	C	0.966877	-0.000031	0.155191
C46	C	0.965721	-0.000018	0.227639
C47	C	0.896166	-0.000015	0.255468
C48	C	0.827761	-0.000005	0.210841
C49	C	0.828919	-0.000010	0.138394
C50	C	0.841481	-0.048175	0.363821
C51	C	0.840327	-0.048175	0.436267
C52	C	0.892592	0.000003	0.478917
C53	C	0.946025	0.048171	0.449115
C54	C	0.947183	0.048166	0.376668
C55	C	0.894902	-0.000010	0.334023
C56	C	0.959739	0.000013	0.602092
C57	C	0.958580	0.000031	0.674541
C58	C	0.820618	0.000035	0.657741
C59	C	0.821779	0.000025	0.585294
C60	C	0.891341	0.000010	0.557473
H61	H	0.663993	-0.135975	-0.097505
Br62	Br	0.736089	0.000000	0.077839
H63	H	0.800091	-0.639282	-0.179332
Br64	Br	0.288124	-0.176662	-0.091981
H65	H	0.763985	0.000041	0.680398
H66	H	1.014279	0.000031	0.710868
Br67	Br	0.767816	-0.113551	0.476707
Br68	Br	0.728951	0.000032	0.524738
H69	H	0.123480	-0.135974	-0.089560
H70	H	0.798919	-0.087412	0.329100
Br71	Br	1.015439	-0.384215	0.017950
H72	H	0.664022	0.135990	-0.097502
H73	H	0.123509	0.135989	-0.089567
H74	H	0.520790	-0.135975	-0.095380
Br75	Br	0.772041	-0.384203	-0.204993
Br76	Br	1.015437	-0.180219	0.017949
H77	H	0.266716	0.135991	-0.091661
Br78	Br	0.499388	0.176676	-0.095055
Br79	Br	1.015463	-0.615788	0.017936
Br80	Br	1.015485	-0.819787	0.017933
Br81	Br	0.772083	-0.819786	-0.205015
H82	H	0.800059	-0.203701	-0.179318
H83	H	1.023520	-0.000040	0.132545
Br84	Br	1.058550	-0.000022	0.288202
H85	H	0.990688	0.087388	0.352406
Br86	Br	1.016963	0.113560	0.506989
H87	H	0.771129	-0.000001	0.233504
Br88	Br	1.054142	-0.000016	0.564331
