data_functionalizedCrystal
_audit_creation_method	'MofGen! by Chris Wilmer'
_symmetry_space_group_name_H-M	'P1'
_symmetry_Int_Tables_number	1
_symmetry_cell_setting	triclinic
loop_
_symmetry_equiv_pos_as_xyz
  x,y,z
_cell_length_a	12.594517
_cell_length_b	19.121063
_cell_length_c	12.594509
_cell_angle_alpha	92.405810
_cell_angle_beta	89.978673
_cell_angle_gamma	92.468805
loop_
_atom_site_label
_atom_site_type_symbol
_atom_site_fract_x
_atom_site_fract_y
_atom_site_fract_z
Zn1	Zn	1.609106	-0.279596	-0.619881
Zn2	Zn	1.942439	0.053738	-0.286547
Zn3	Zn	2.275773	0.387071	0.046786
Zn4	Zn	1.601367	-0.397059	-0.449473
Zn5	Zn	1.934701	-0.063725	-0.116140
Zn6	Zn	2.268034	0.269608	0.217194
Zn7	Zn	1.431108	-0.279626	-0.441911
Zn8	Zn	1.764441	0.053708	-0.108578
Zn9	Zn	2.097775	0.387041	0.224755
Zn10	Zn	1.423466	-0.397010	-0.627400
Zn11	Zn	1.756799	-0.063677	-0.294066
Zn12	Zn	2.090132	0.269657	0.039267
O13	O	1.516262	-0.338323	-0.534666
O14	O	1.849595	-0.004989	-0.201333
O15	O	2.182928	0.328344	0.132001
O16	O	1.757025	-0.295185	-0.597293
O17	O	2.090358	0.038148	-0.263960
O18	O	2.423691	0.371481	0.069373
O19	O	1.578742	-0.381514	-0.299526
O20	O	1.912075	-0.048181	0.033807
O21	O	2.245408	0.285153	0.367141
O22	O	1.461157	-0.181338	-0.459208
O23	O	1.794490	0.151996	-0.125875
O24	O	2.127824	0.485329	0.207459
O25	O	1.751339	-0.381485	-0.472096
O26	O	2.084672	-0.048152	-0.138762
O27	O	2.418006	0.285182	0.194571
O28	O	1.591931	-0.181315	-0.589961
O29	O	1.925265	0.152018	-0.256628
O30	O	2.258598	0.485351	0.076705
O31	O	1.453653	-0.295237	-0.293971
O32	O	1.786986	0.038097	0.039363
O33	O	2.120320	0.371430	0.372696
O34	O	1.281149	-0.295189	-0.466499
O35	O	1.614482	0.038144	-0.133166
O36	O	1.947816	0.371477	0.200168
O37	O	1.448132	-0.381402	-0.775346
O38	O	1.781465	-0.048068	-0.442013
O39	O	2.114798	0.285265	-0.108679
O40	O	1.275534	-0.381431	-0.602777
O41	O	1.608867	-0.048098	-0.269443
O42	O	1.942201	0.285236	0.063890
O43	O	1.584521	-0.295138	-0.769822
O44	O	1.917854	0.038195	-0.436488
O45	O	2.251188	0.371529	-0.103155
O46	O	1.571331	-0.495337	-0.479386
O47	O	1.904664	-0.162003	-0.146053
O48	O	2.237998	0.171330	0.187280
O49	O	1.440628	-0.495301	-0.610109
O50	O	1.773961	-0.161967	-0.276775
O51	O	2.107294	0.171366	0.056558
C52	C	1.239722	-0.338309	-0.534634
C53	C	1.573055	-0.004975	-0.201301
C54	C	1.906388	0.328358	0.132033
C55	C	1.121416	-0.338319	-0.534646
C56	C	1.454749	-0.004986	-0.201313
C57	C	1.788082	0.328347	0.132020
C58	C	1.504339	-0.520803	-0.546407
C59	C	1.837672	-0.187469	-0.213074
C60	C	2.171006	0.145864	0.120260
C61	C	1.499336	-0.598868	-0.551466
C62	C	1.832669	-0.265535	-0.218132
C63	C	2.166003	0.067798	0.115201
C64	C	1.055190	-0.291349	-0.460657
C65	C	1.388523	0.041985	-0.127323
C66	C	1.721856	0.375318	0.206010
C67	C	0.980217	-0.355414	-0.438606
C68	C	1.313551	-0.022081	-0.105272
C69	C	1.646884	0.311253	0.228061
C70	C	0.985587	-0.274285	-0.556717
C71	C	1.318920	0.059048	-0.223384
C72	C	1.652253	0.392381	0.109949
C73	C	1.047999	-0.402419	-0.512547
C74	C	1.381333	-0.069085	-0.179214
C75	C	1.714666	0.264248	0.154120
C76	C	1.053378	-0.321246	-0.630701
C77	C	1.386711	0.012087	-0.297368
C78	C	1.720044	0.345420	0.035966
C79	C	0.978435	-0.385356	-0.608690
C80	C	1.311768	-0.052023	-0.275357
C81	C	1.645101	0.281310	0.057977
C82	C	1.565089	-0.635539	-0.485838
C83	C	1.898422	-0.302206	-0.152505
C84	C	2.231755	0.031127	0.180828
C85	C	1.560390	-0.708890	-0.490602
C86	C	1.893723	-0.375557	-0.157269
C87	C	2.227056	-0.042224	0.176064
C88	C	1.489932	-0.745569	-0.560988
C89	C	1.823265	-0.412236	-0.227655
C90	C	2.156598	-0.078903	0.105678
C91	C	1.424176	-0.708893	-0.626623
C92	C	1.757509	-0.375560	-0.293289
C93	C	2.090843	-0.042227	0.040044
C94	C	1.428881	-0.635544	-0.621864
C95	C	1.762215	-0.302210	-0.288530
C96	C	2.095548	0.031123	0.044803
C97	C	1.472323	-0.967038	-0.578765
C98	C	1.805656	-0.633705	-0.245432
C99	C	2.138989	-0.300372	0.087902
C100	C	1.467620	-1.040393	-0.583517
C101	C	1.800953	-0.707060	-0.250183
C102	C	2.134287	-0.373727	0.083150
C103	C	1.603835	-1.040385	-0.447497
C104	C	1.937169	-0.707052	-0.114164
C105	C	2.270502	-0.373719	0.219170
C106	C	1.608530	-0.967034	-0.442740
C107	C	1.941863	-0.633701	-0.109406
C108	C	2.275197	-0.300367	0.223927
C109	C	1.542779	-0.930365	-0.508378
C110	C	1.876112	-0.597031	-0.175045
C111	C	2.209445	-0.263698	0.158289
C112	C	1.485124	-0.820546	-0.565857
C113	C	1.818458	-0.487213	-0.232524
C114	C	2.151791	-0.153879	0.100810
C115	C	1.547592	-0.855389	-0.503514
C116	C	1.880925	-0.522056	-0.170181
C117	C	2.214259	-0.188723	0.163153
C118	C	1.793882	-0.338337	-0.534699
C119	C	2.127215	-0.005004	-0.201366
C120	C	2.460548	0.328329	0.131967
C121	C	1.912187	-0.338343	-0.534713
C122	C	2.245520	-0.005010	-0.201380
C123	C	2.578853	0.328323	0.131953
C124	C	1.516337	-0.338261	-0.812283
C125	C	1.849670	-0.004928	-0.478950
C126	C	2.183004	0.328406	-0.145617
C127	C	1.516369	-0.338235	-0.930587
C128	C	1.849702	-0.004902	-0.597254
C129	C	2.183036	0.328432	-0.263920
C130	C	1.528260	-0.155130	-0.522903
C131	C	1.861593	0.178203	-0.189569
C132	C	2.194927	0.511537	0.143764
C133	C	1.533373	-0.077064	-0.517890
C134	C	1.866706	0.256269	-0.184556
C135	C	2.200039	0.589603	0.148777
C136	C	1.442211	-0.385127	-1.002843
C137	C	1.775544	-0.051794	-0.669510
C138	C	2.108878	0.281540	-0.336177
C139	C	1.538217	-0.402288	-1.074740
C140	C	1.871550	-0.068954	-0.741406
C141	C	2.204884	0.264379	-0.408073
C142	C	1.420442	-0.321032	-1.069487
C143	C	1.753775	0.012302	-0.736154
C144	C	2.087108	0.345635	-0.402820
C145	C	1.612424	-0.355429	-1.000927
C146	C	1.945757	-0.022096	-0.667594
C147	C	2.279090	0.311237	-0.334261
C148	C	1.494585	-0.274143	-0.995667
C149	C	1.827918	0.059190	-0.662333
C150	C	2.161251	0.392523	-0.329000
C151	C	1.590659	-0.291280	-1.067530
C152	C	1.923993	0.042054	-0.734196
C153	C	2.257326	0.375387	-0.400863
C154	C	1.516251	-0.338333	-0.258126
C155	C	1.849585	-0.005000	0.075207
C156	C	2.182918	0.328333	0.408541
C157	C	1.516438	-0.338162	-0.139810
C158	C	1.849772	-0.004828	0.193523
C159	C	2.183105	0.328505	0.526857
H160	H	1.088788	-0.251666	-0.398014
H161	H	1.422121	0.081668	-0.064681
H162	H	1.755455	0.415001	0.268652
H163	H	1.556680	-0.456457	-1.109336
H164	H	1.890013	-0.123124	-0.776003
H165	H	2.223347	0.210209	-0.442669
H166	H	1.379541	-0.424844	-0.974345
H167	H	1.712874	-0.091511	-0.641012
H168	H	2.046208	0.241823	-0.307679
H169	H	0.948119	-0.369870	-0.357403
H170	H	1.281453	-0.036536	-0.024070
H171	H	1.614786	0.296797	0.309263
H172	H	1.693597	-0.370011	-0.970908
H173	H	2.026930	-0.036677	-0.637575
H174	H	2.360264	0.296656	-0.304242
H175	H	1.366812	-0.738763	-0.683937
H176	H	1.700146	-0.405430	-0.350604
H177	H	2.033479	-0.072096	-0.017271
H178	H	1.075422	-0.456598	-0.493817
H179	H	1.408755	-0.123264	-0.160483
H180	H	1.742088	0.210069	0.172850
H181	H	1.339288	-0.306512	-1.099641
H182	H	1.672622	0.026822	-0.766308
H183	H	2.005955	0.360155	-0.432975
H184	H	1.418783	-0.937188	-0.632208
H185	H	1.752116	-0.603854	-0.298875
H186	H	2.085450	-0.270521	0.034459
H187	H	1.085502	-0.306771	-0.711878
H188	H	1.418836	0.026562	-0.378544
H189	H	1.752169	0.359895	-0.045211
H190	H	1.653471	-0.251593	-1.095834
H191	H	1.986805	0.081740	-0.762501
H192	H	2.320138	0.415073	-0.429167
H193	H	1.476092	-0.219990	-0.961048
H194	H	1.809426	0.113344	-0.627715
H195	H	2.142759	0.446677	-0.294381
H196	H	0.945025	-0.425134	-0.671292
H197	H	1.278359	-0.091801	-0.337959
H198	H	1.611692	0.241533	-0.004626
H199	H	1.622458	-0.605680	-0.428518
H200	H	1.955792	-0.272347	-0.095185
H201	H	2.289125	0.060987	0.238149
H202	H	1.613932	-0.738745	-0.437161
H203	H	1.947265	-0.405411	-0.103827
H204	H	2.280598	-0.072078	0.229506
H205	H	0.957978	-0.220129	-0.575322
H206	H	1.291311	0.113204	-0.241988
H207	H	1.624644	0.446537	0.091345
H208	H	1.665902	-0.937172	-0.385426
H209	H	1.999236	-0.603838	-0.052092
H210	H	2.332569	-0.270505	0.281241
H211	H	1.657368	-1.070249	-0.394060
H212	H	1.990701	-0.736916	-0.060726
H213	H	2.324035	-0.403583	0.272607
H214	H	1.375340	-0.605687	-0.675306
H215	H	1.708673	-0.272354	-0.341972
H216	H	2.042007	0.060980	-0.008639
H217	H	1.410257	-1.070255	-0.640852
H218	H	1.743591	-0.736922	-0.307519
H219	H	2.076924	-0.403589	0.025814
H220	H	1.604963	-0.825523	-0.446209
H221	H	1.938296	-0.492190	-0.112876
H222	H	2.271630	-0.158857	0.220457
H223	H	1.427755	-0.850418	-0.623164
H224	H	1.761088	-0.517085	-0.289830
H225	H	2.094422	-0.183751	0.043503
