data_functionalizedCrystal
_audit_creation_method	'MofGen! by Chris Wilmer'
_symmetry_space_group_name_H-M	'P1'
_symmetry_Int_Tables_number	1
_symmetry_cell_setting	triclinic
loop_
_symmetry_equiv_pos_as_xyz
  x,y,z
_cell_length_a	14.971486
_cell_length_b	14.971486
_cell_length_c	13.448316
_cell_angle_alpha	90.002892
_cell_angle_beta	89.999959
_cell_angle_gamma	83.614129
loop_
_atom_site_label
_atom_site_type_symbol
_atom_site_fract_x
_atom_site_fract_y
_atom_site_fract_z
O1	O	-1.186946	-0.116560	-0.082578
O2	O	-0.926545	-0.130519	-0.082605
O3	O	-1.063725	0.006661	-0.082584
O4	O	-1.049766	-0.253739	-0.082599
O5	O	-1.063711	0.006659	0.082800
O6	O	-0.926532	-0.130520	0.082779
O7	O	-1.186932	-0.116561	0.082806
Cu8	Cu	-1.056731	-0.123541	0.097893
Cu9	Cu	-1.056747	-0.123539	-0.097692
O10	O	-1.049753	-0.253741	0.082784
C11	C	-0.893214	-0.129895	0.000083
C12	C	-0.793917	-0.128024	0.000073
C13	C	-1.063094	0.039985	0.000108
C14	C	-1.061223	0.139282	0.000107
C15	C	-1.220263	-0.117185	0.000115
C16	C	-1.319561	-0.119056	0.000119
N17	N	-1.056726	-0.123541	0.235457
C18	C	-0.736692	-0.208614	0.000070
C19	C	-0.643392	-0.206850	0.000085
C20	C	-0.607320	-0.124497	0.000096
C21	C	-0.664552	-0.043902	0.000102
C22	C	-0.757850	-0.045666	0.000095
C23	C	-0.470090	-0.040231	0.000116
C24	C	-0.376786	-0.038466	0.000122
C25	C	-0.355632	-0.201415	0.000106
C26	C	-0.448930	-0.203179	0.000099
C27	C	-0.506156	-0.122584	0.000103
C28	C	-1.050384	-0.287065	0.000091
C29	C	-1.052254	-0.386362	0.000085
C30	C	-1.141812	0.196507	0.000116
C31	C	-1.140049	0.289807	0.000106
C32	C	-1.057696	0.325879	0.000093
C33	C	-0.977101	0.268646	0.000081
C34	C	-0.978865	0.175349	0.000084
C35	C	-0.973430	0.463109	0.000077
C36	C	-0.971665	0.556413	0.000076
C37	C	-1.134614	0.577567	0.000099
C38	C	-1.136378	0.484269	0.000102
C39	C	-1.055782	0.427043	0.000091
N40	N	-1.056759	-0.123532	-0.235257
C41	C	-1.002456	-0.069191	0.712702
C42	C	-1.002453	-0.069188	0.608599
C43	C	-1.056748	-0.123532	0.556539
C44	C	-1.111057	-0.177874	0.608587
C45	C	-1.111064	-0.177871	0.712688
C46	C	-1.111036	-0.177878	0.391607
C47	C	-1.111028	-0.177882	0.287498
C48	C	-1.002426	-0.069194	0.287518
C49	C	-1.002433	-0.069192	0.391619
C50	C	-1.056740	-0.123536	0.443660
H51	H	-0.766054	-0.275675	0.000060
H52	H	-1.155261	-0.222128	0.433975
C53	C	-0.580448	-0.295505	0.000099
N54	N	-0.533038	-0.362284	0.000117
C55	C	-1.226971	0.444592	0.000120
N56	N	-1.295207	0.414707	0.000131
H57	H	-0.913240	0.128756	0.000077
H58	H	-1.155283	-0.222121	0.755059
H59	H	-0.478296	-0.270239	0.000080
H60	H	-1.200238	0.624165	0.000104
H61	H	-0.309033	-0.267039	0.000107
C62	C	-0.942713	-0.009413	0.551359
N63	N	-0.897712	0.035611	0.508246
C64	C	-0.337109	0.052126	0.000136
N65	N	-0.307224	0.120362	0.000147
H66	H	-0.958217	-0.024945	0.434004
H67	H	-0.635175	0.023152	0.000126
C68	C	-0.881072	0.596090	0.000050
N69	N	-0.812837	0.625975	0.000027
C70	C	-0.884769	0.400162	0.000071
N71	N	-0.817992	0.352750	0.000074
C72	C	-0.942726	-0.009409	0.769959
N73	N	-0.897738	0.035624	0.813083
C74	C	-0.942616	-0.009486	0.230271
N75	N	-0.897541	0.035456	0.187148
H76	H	-1.155237	-0.222136	0.245113
H77	H	-1.155269	-0.222117	0.566191
H78	H	-1.205673	0.336396	0.000115
H79	H	-0.804443	0.019958	0.000097
C80	C	-0.533037	0.048429	0.000117
N81	N	-0.580449	0.115207	0.000112
H82	H	-1.208874	0.167145	0.000132
H83	H	-0.910047	0.298024	0.000065
