data_functionalizedCrystal
_audit_creation_method	'MofGen! by Chris Wilmer'
_symmetry_space_group_name_H-M	'P1'
_symmetry_Int_Tables_number	1
_symmetry_cell_setting	triclinic
loop_
_symmetry_equiv_pos_as_xyz
  x,y,z
_cell_length_a	8.559649
_cell_length_b	12.837942
_cell_length_c	7.088929
_cell_angle_alpha	83.116986
_cell_angle_beta	95.325015
_cell_angle_gamma	82.303802
loop_
_atom_site_label
_atom_site_type_symbol
_atom_site_fract_x
_atom_site_fract_y
_atom_site_fract_z
O1	O	2.100237	-0.022929	-0.158957
O2	O	1.643086	0.029966	-0.158967
O3	O	1.861526	-0.146578	-0.158950
O4	O	1.881797	0.153615	-0.158973
O5	O	1.890711	-0.170219	0.159027
O6	O	1.672271	0.006325	0.159010
O7	O	2.129422	-0.046570	0.159021
Cu8	Cu	1.903512	-0.022281	0.188049
Cu9	Cu	1.868997	0.005677	-0.187996
O10	O	1.910982	0.129974	0.159004
C11	C	1.598759	0.022154	0.000020
C12	C	1.423195	0.034086	0.000017
C13	C	1.869270	-0.196474	0.000037
C14	C	1.848843	-0.309925	0.000034
C15	C	2.094400	-0.570430	-0.000001
C16	C	2.075215	-0.677028	-0.000004
C17	C	1.791288	-0.629721	0.000009
C18	C	1.810473	-0.523122	0.000013
C19	C	1.962034	-0.493482	0.000011
C20	C	1.981219	-0.386882	0.000028
C21	C	1.697292	-0.339576	0.000028
C22	C	1.678107	-0.446175	0.000024
C23	C	2.173749	-0.038758	0.000029
C24	C	2.349312	-0.050689	0.000020
C25	C	1.903238	0.179870	0.000012
C26	C	1.923664	0.293322	0.000003
N27	N	1.927799	-0.041947	0.452539
N28	N	1.844721	0.025334	-0.452486
H29	H	2.104628	-0.362752	0.000033
H30	H	2.013918	-0.111668	0.534202
C31	C	1.445205	-0.450827	0.163491
C32	C	1.511513	-0.478757	0.000025
H33	H	1.342351	-0.470934	0.163484
H34	H	1.510568	-0.486272	0.274349
H35	H	1.437704	-0.376327	0.163479
H36	H	1.519025	-0.553258	0.000044
H37	H	1.446134	-0.443314	-0.110862
C38	C	1.525365	-0.160998	-0.163424
C39	C	1.445229	-0.160996	0.000031
H40	H	1.584594	-0.229097	-0.163408
H41	H	1.450639	-0.144500	-0.274289
H42	H	1.595231	-0.109407	-0.163406
H43	H	1.375354	-0.212582	0.000006
H44	H	1.519963	-0.177506	0.110925
C45	C	1.166086	0.135271	0.000003
C46	C	1.327274	0.144400	0.000006
H47	H	1.106873	0.203373	0.000008
H48	H	1.130856	0.106380	-0.110875
H49	H	1.151211	0.089882	0.110897
H50	H	1.342150	0.189783	-0.110896
H51	H	1.362515	0.173306	0.110896
H52	H	1.667891	-0.653873	-0.000010
H53	H	2.217809	-0.546298	0.000016
C54	C	2.357790	-0.713078	-0.000003
C55	C	2.220716	-0.761612	-0.000005
H56	H	2.447619	-0.765300	0.000006
H57	H	2.349186	-0.662272	-0.110882
H58	H	2.369537	-0.678760	0.110891
H59	H	2.208962	-0.795923	-0.110907
H60	H	2.229321	-0.812436	0.110885
C61	C	1.446165	-0.254279	-0.163409
C62	C	1.551776	-0.254995	0.000042
H63	H	1.356329	-0.202068	-0.163383
H64	H	1.497452	-0.238268	-0.274277
H65	H	1.413069	-0.322015	-0.163397
H66	H	1.584881	-0.187262	0.000023
H67	H	1.500479	-0.271000	0.110939
H68	H	1.758619	0.095056	0.465862
