data_functionalizedCrystal
_audit_creation_method	'MofGen! by Chris Wilmer'
_symmetry_space_group_name_H-M	'P1'
_symmetry_Int_Tables_number	1
_symmetry_cell_setting	triclinic
loop_
_symmetry_equiv_pos_as_xyz
  x,y,z
_cell_length_a	9.065215
_cell_length_b	9.616153
_cell_length_c	9.065218
_cell_angle_alpha	90.000372
_cell_angle_beta	85.015291
_cell_angle_gamma	90.006355
loop_
_atom_site_label
_atom_site_type_symbol
_atom_site_fract_x
_atom_site_fract_y
_atom_site_fract_z
O1	O	1.960410	0.115623	0.216331
O2	O	1.531124	0.115629	0.234081
O3	O	1.754640	0.115623	0.010564
O4	O	1.736894	0.115629	0.439849
O5	O	1.754609	-0.115668	0.010568
O6	O	1.531093	-0.115662	0.234086
O7	O	1.960379	-0.115668	0.216335
Zn8	Zn	1.745731	-0.152388	0.225211
Zn9	Zn	1.745772	0.152349	0.225205
O10	O	1.736863	-0.115662	0.439853
C11	C	1.476122	-0.000016	0.232379
C12	C	1.312279	-0.000014	0.227281
N13	N	1.745714	-0.360362	0.225215
C14	C	1.625779	-0.580729	0.344377
C15	C	1.626046	-0.419562	0.344827
C16	C	1.900129	-0.418813	0.260900
C17	C	1.899477	-0.580031	0.261745
C18	C	1.712768	-0.580275	0.069980
C19	C	1.709231	-0.419049	0.070970
C20	C	2.015381	-0.000020	0.218038
C21	C	2.179224	-0.000013	0.223136
C22	C	1.752919	-0.000020	-0.044421
C23	C	1.747819	-0.000014	-0.208264
N24	N	1.745800	0.360323	0.225190
C25	C	1.738584	-0.000016	0.494837
C26	C	1.743683	-0.000013	0.658680
H27	H	1.510709	-0.619539	0.323134
H28	H	1.928270	-0.617618	0.375001
O29	O	1.581340	-0.628979	0.029485
C30	C	1.605419	-0.703427	-0.104432
H31	H	1.724978	-0.741286	-0.118530
H32	H	1.583333	-0.632649	-0.200972
C33	C	1.353206	-0.782721	-0.083949
C34	C	1.500047	-0.829230	-0.101258
H35	H	1.288205	-0.860318	-0.081996
H36	H	1.336981	-0.732560	0.006271
H37	H	1.334823	-0.723738	-0.164402
H38	H	1.518434	-0.888196	-0.020796
H39	H	1.516273	-0.879404	-0.191465
H40	H	1.991650	-0.380463	0.176488
O41	O	1.934974	-0.370565	0.394553
C42	C	1.820153	-0.283923	0.456073
H43	H	1.712809	-0.311027	0.405799
H44	H	1.849741	-0.170617	0.431111
C45	C	1.931606	-0.272436	0.686654
C46	C	1.799761	-0.305733	0.624915
H47	H	1.919030	-0.285883	0.790804
H48	H	2.008967	-0.330804	0.645206
H49	H	1.956248	-0.178016	0.665837
H50	H	1.775130	-0.400156	0.645716
H51	H	1.722395	-0.247381	0.666370
H52	H	1.991686	-0.619022	0.178468
O53	O	1.651196	-0.373458	0.482227
C54	C	1.530246	-0.292094	0.539858
H55	H	1.427577	-0.321428	0.482558
H56	H	1.556433	-0.177344	0.519720
C57	C	1.627539	-0.282570	0.777791
C58	C	1.501436	-0.318607	0.707424
H59	H	1.609771	-0.298918	0.881155
H60	H	1.709029	-0.337382	0.738964
H61	H	1.649349	-0.186947	0.760995
H62	H	1.479640	-0.414232	0.724206
H63	H	1.419942	-0.263812	0.746258
O64	O	1.817227	-0.625926	-0.035695
C65	C	1.919751	-0.711076	0.030215
H66	H	1.866037	-0.755120	0.138652
H67	H	2.020925	-0.646832	0.053271
C68	C	2.033606	-0.777280	-0.208599
C69	C	1.967629	-0.831385	-0.075420
H70	H	2.063145	-0.851489	-0.273760
H71	H	1.964537	-0.719909	-0.253005
H72	H	2.117908	-0.723744	-0.189365
H73	H	1.883318	-0.884904	-0.094653
H74	H	2.036685	-0.888768	-0.031019
O75	O	1.573706	-0.373316	0.038912
C76	C	1.512045	-0.288684	0.155430
H77	H	1.604447	-0.244871	0.219382
H78	H	1.433657	-0.353290	0.233105
C79	C	1.312271	-0.221963	0.012843
C80	C	1.425762	-0.168140	0.091383
H81	H	1.259042	-0.147609	-0.026661
H82	H	1.353809	-0.278984	-0.065655
H83	H	1.246964	-0.275801	0.077585
H84	H	1.491077	-0.114319	0.026637
H85	H	1.384233	-0.111107	0.169870
H86	H	1.511333	-0.380045	0.323262
H87	H	1.646806	-0.621226	0.458863
H88	H	1.790803	-0.378756	-0.022035
