data_functionalizedCrystal
_audit_creation_method	'MofGen! by Chris Wilmer'
_symmetry_space_group_name_H-M	'P1'
_symmetry_Int_Tables_number	1
_symmetry_cell_setting	triclinic
loop_
_symmetry_equiv_pos_as_xyz
  x,y,z
_cell_length_a	12.759399
_cell_length_b	12.759401
_cell_length_c	12.759393
_cell_angle_alpha	89.979434
_cell_angle_beta	90.030906
_cell_angle_gamma	89.986676
loop_
_atom_site_label
_atom_site_type_symbol
_atom_site_fract_x
_atom_site_fract_y
_atom_site_fract_z
Zn1	Zn	-0.418266	-1.606263	0.594007
Zn2	Zn	-0.593981	-1.606153	0.418326
Zn3	Zn	-0.418311	-1.430562	0.418343
Zn4	Zn	-0.593898	-1.430553	0.593964
O5	O	-0.506114	-1.518383	0.506160
O6	O	-0.441591	-1.753270	0.570713
O7	O	-0.570732	-1.582818	0.271307
O8	O	-0.271284	-1.453919	0.441670
O9	O	-0.570688	-1.753189	0.441641
O10	O	-0.271251	-1.583006	0.570730
O11	O	-0.441669	-1.453812	0.271320
O12	O	-0.441587	-1.283540	0.441629
O13	O	-0.570546	-1.453903	0.740991
O14	O	-0.570590	-1.283533	0.570657
O15	O	-0.441510	-1.582997	0.741022
O16	O	-0.740991	-1.582809	0.441599
O17	O	-0.740930	-1.453796	0.570640
C18	C	-0.506085	-1.245415	0.506141
C19	C	-0.506098	-1.128639	0.506157
C20	C	-0.438997	-1.073820	0.573468
C21	C	-0.439003	-0.964096	0.573473
C22	C	-0.573222	-0.964020	0.438854
C23	C	-0.573210	-1.073742	0.438845
C24	C	-0.779081	-1.518318	0.506136
C25	C	-0.895858	-1.518387	0.506161
C26	C	-0.950717	-1.585641	0.439046
C27	C	-1.060441	-1.585708	0.439081
C28	C	-1.060437	-1.451259	0.573349
C29	C	-0.950715	-1.451198	0.573319
C30	C	-1.210324	-1.709717	0.401693
C31	C	-1.265186	-1.776961	0.334561
C32	C	-1.229647	-1.793124	0.232051
C33	C	-1.139246	-1.742027	0.196651
C34	C	-1.084389	-1.674775	0.263777
C35	C	-1.119927	-1.658632	0.366302
C36	C	-0.800831	-1.327188	0.610696
C37	C	-0.745972	-1.259929	0.677818
C38	C	-0.781509	-1.243756	0.780330
C39	C	-0.871913	-1.294835	0.815725
C40	C	-0.926772	-1.362093	0.748604
C41	C	-0.891227	-1.378268	0.646093
C42	C	-0.232081	-1.518476	0.506207
C43	C	-0.115304	-1.518516	0.506227
C44	C	-0.506013	-1.518461	0.780193
C45	C	-0.505970	-1.518495	0.896970
C46	C	-0.506134	-0.792416	0.506176
C47	C	-0.506117	-0.909193	0.506172
C48	C	-0.506139	-1.518365	0.233192
C49	C	-0.505886	-1.518535	0.116416
C50	C	-0.438770	-1.585719	0.951850
C51	C	-0.438725	-1.585737	1.061574
C52	C	-0.573088	-1.451303	1.061529
C53	C	-0.573128	-1.451281	0.951806
H54	H	-0.384361	-0.919467	0.628283
C55	C	-0.647029	-1.134047	0.364803
H56	H	-0.687010	-1.085639	0.324726
H57	H	-0.606779	-1.176835	0.319094
H58	H	-0.692851	-1.176860	0.404918
C59	C	-0.647049	-0.903634	0.364823
H60	H	-0.687004	-0.952000	0.324728
H61	H	-0.692879	-0.860845	0.404938
H62	H	-0.606805	-0.860816	0.319116
H63	H	-0.906055	-1.640352	0.384363
C64	C	-1.249409	-1.691949	0.514460
H65	H	-1.203784	-1.644591	0.549376
H66	H	-1.318164	-1.663431	0.512658
H67	H	-1.250374	-1.756868	0.550925
C68	C	-0.984954	-1.618577	0.224852
H69	H	-0.971640	-1.637836	0.154184
H70	H	-0.994820	-1.544903	0.229039
H71	H	-0.927044	-1.638348	0.267313
C72	C	-1.026214	-1.418286	0.787534
H73	H	-1.053799	-1.460651	0.732875
H74	H	-1.009210	-1.461148	0.846012
H75	H	-1.076992	-1.367717	0.807715
C76	C	-1.100161	-1.759802	0.083884
H77	H	-1.145774	-1.807179	0.048979
H78	H	-1.099192	-1.694893	0.047412
H79	H	-1.031402	-1.788323	0.085695
C80	C	-0.646965	-1.377384	1.121852
H81	H	-0.637326	-1.387032	1.195059
H82	H	-0.631590	-1.306794	1.103865
H83	H	-0.717566	-1.392740	1.103857
H84	H	-0.736834	-1.188985	0.834978
C85	C	-0.365170	-1.134203	0.647500
H86	H	-0.325201	-1.085836	0.687581
H87	H	-0.405406	-1.177023	0.693205
H88	H	-0.319336	-1.176991	0.607379
C89	C	-0.646529	-1.203742	0.638883
H90	H	-0.633209	-1.223017	0.568221
H91	H	-0.656398	-1.130067	0.643052
H92	H	-0.588621	-1.223500	0.681352
C93	C	-0.647058	-1.377338	0.891434
H94	H	-0.687061	-1.337323	0.939806
H95	H	-0.606881	-1.331567	0.848628
H96	H	-0.692856	-1.417515	0.848633
C97	C	-1.289991	-1.867095	0.158211
H98	H	-1.348913	-1.895214	0.193975
H99	H	-1.313038	-1.829148	0.098419
H100	H	-1.245247	-1.922578	0.136704
H101	H	-0.771881	-1.340359	0.527225
H102	H	-1.338791	-1.818565	0.363393
H103	H	-1.105116	-1.396555	0.628025
C104	C	-0.911007	-1.277051	0.928489
H105	H	-0.865382	-1.229688	0.963398
H106	H	-0.979762	-1.248532	0.926681
H107	H	-0.911975	-1.341964	0.964966
C108	C	-0.364888	-1.659637	0.891533
H109	H	-0.324852	-1.699667	0.939937
H110	H	-0.405090	-1.705394	0.848727
H111	H	-0.319119	-1.619443	0.848737
C112	C	-0.364810	-1.659688	1.121938
H113	H	-0.324828	-1.699718	1.073561
H114	H	-0.319009	-1.619529	1.164742
H115	H	-0.404999	-1.705461	1.164740
