data_functionalizedCrystal
_audit_creation_method	'MofGen! by Chris Wilmer'
_symmetry_space_group_name_H-M	'P1'
_symmetry_Int_Tables_number	1
_symmetry_cell_setting	triclinic
loop_
_symmetry_equiv_pos_as_xyz
  x,y,z
_cell_length_a	14.971482
_cell_length_b	19.188924
_cell_length_c	13.448316
_cell_angle_alpha	89.991325
_cell_angle_beta	89.993798
_cell_angle_gamma	83.377286
loop_
_atom_site_label
_atom_site_type_symbol
_atom_site_fract_x
_atom_site_fract_y
_atom_site_fract_z
O1	O	1.186466	0.090976	-0.082684
O2	O	0.926007	0.101875	-0.082689
O3	O	1.063756	-0.005207	-0.082674
O4	O	1.048717	0.198057	-0.082698
O5	O	1.063739	-0.005213	0.082709
O6	O	0.925990	0.101868	0.082695
O7	O	1.186449	0.090969	0.082700
Cu8	Cu	1.056218	0.096418	0.097798
Cu9	Cu	1.056238	0.096426	-0.097787
O10	O	1.048700	0.198051	0.082686
C11	C	0.892677	0.101384	0.000002
C12	C	0.793387	0.099925	0.000001
C13	C	0.746737	0.099234	0.090153
C14	C	0.653446	0.097852	0.090154
C15	C	0.606806	0.097166	0.000002
C16	C	0.653463	0.097855	-0.090157
C17	C	0.746753	0.099232	-0.090157
C18	C	0.459016	0.094986	-0.090150
C19	C	0.365719	0.093610	-0.090150
C20	C	0.365709	0.093606	0.090161
C21	C	0.458999	0.094983	0.090161
C22	C	0.505650	0.095673	0.000001
C23	C	1.063262	-0.031223	0.000018
C24	C	1.061803	-0.108732	0.000021
C25	C	1.061131	-0.145129	-0.090130
C26	C	1.059748	-0.217957	-0.090138
C27	C	1.059054	-0.254385	0.000011
C28	C	1.059720	-0.217979	0.090174
C29	C	1.061095	-0.145152	0.090179
N30	N	1.107789	-0.373895	0.067107
N31	N	1.106485	-0.443077	0.067096
C32	C	1.054911	-0.473808	0.000001
N33	N	1.004700	-0.432743	-0.067098
N34	N	1.006008	-0.363555	-0.067090
C35	C	1.057563	-0.333354	0.000016
C36	C	1.052738	-0.589173	-0.090164
C37	C	1.051349	-0.662001	-0.090168
C38	C	1.051330	-0.662022	0.090146
C39	C	1.052711	-0.589195	0.090147
C40	C	1.053418	-0.552775	-0.000011
C41	C	1.219780	0.091460	0.000007
C42	C	1.319069	0.092919	0.000002
C43	C	1.049195	0.224067	-0.000009
C44	C	1.050653	0.301576	-0.000019
N45	N	1.056210	0.096412	0.235363
N46	N	1.056253	0.096426	-0.235351
C47	C	1.117224	0.049016	0.287409
C48	C	1.117230	0.049016	0.391513
C49	C	1.056225	0.096415	0.443567
C50	C	0.995204	0.143813	0.391513
C51	C	0.995195	0.143810	0.287412
C52	C	0.995229	0.143818	0.608493
C53	C	0.995239	0.143822	0.712602
C54	C	1.117264	0.049024	0.712594
C55	C	1.117254	0.049020	0.608493
C56	C	1.056235	0.096420	0.556446
H57	H	0.496996	0.095548	-0.163567
F58	F	0.508634	0.095721	0.186110
F59	F	0.603799	0.097126	0.186106
H60	H	0.327721	0.093044	0.163572
H61	H	1.053265	-0.559560	0.163558
F62	F	1.061880	-0.106372	-0.186084
F63	F	0.930281	0.194264	0.553105
F64	F	0.603827	0.097103	-0.186103
H65	H	0.784735	0.099796	-0.163568
H66	H	1.053309	-0.559517	-0.163576
F67	F	1.050628	-0.700737	-0.186124
F68	F	1.058976	-0.256749	0.186116
H69	H	0.327748	0.093051	-0.163560
F70	F	0.930273	0.194257	0.446914
H71	H	1.059195	-0.247597	-0.163552
H72	H	1.061638	-0.115517	0.163593
F73	F	1.050587	-0.700787	0.186090
F74	F	0.930253	0.194254	0.232021
H75	H	1.166905	0.010421	0.245033
F76	F	0.796365	0.099969	0.186106
H77	H	1.166911	0.010422	0.433889
H78	H	1.166933	0.010428	0.566110
H79	H	1.166947	0.010429	0.754977
H80	H	0.945562	0.182419	0.754979
