data_functionalizedCrystal
_audit_creation_method	'MofGen! by Chris Wilmer'
_symmetry_space_group_name_H-M	'P1'
_symmetry_Int_Tables_number	1
_symmetry_cell_setting	triclinic
loop_
_symmetry_equiv_pos_as_xyz
  x,y,z
_cell_length_a	19.077105
_cell_length_b	19.121063
_cell_length_c	19.120915
_cell_angle_alpha	85.261346
_cell_angle_beta	89.774073
_cell_angle_gamma	90.263052
loop_
_atom_site_label
_atom_site_type_symbol
_atom_site_fract_x
_atom_site_fract_y
_atom_site_fract_z
Zn1	Zn	1.041977	-0.340790	0.453353
Zn2	Zn	1.541977	0.159210	0.953353
Zn3	Zn	1.041894	-0.453439	0.340701
Zn4	Zn	1.541894	0.046561	0.840701
Zn5	Zn	0.929935	-0.331098	0.331020
Zn6	Zn	1.429935	0.168902	0.831020
Zn7	Zn	0.919439	-0.453278	0.453199
Zn8	Zn	1.419439	0.046722	0.953199
O9	O	0.983311	-0.394651	0.394568
O10	O	1.483311	0.105349	0.894568
O11	O	1.140104	-0.359857	0.442526
O12	O	1.640104	0.140143	0.942526
O13	O	1.031400	-0.433222	0.241139
O14	O	1.531400	0.066778	0.741139
O15	O	0.949224	-0.234107	0.343261
O16	O	1.449224	0.265893	0.843261
O17	O	1.140043	-0.442620	0.359760
O18	O	1.640043	0.057380	0.859760
O19	O	1.031541	-0.241227	0.433138
O20	O	1.531541	0.258773	0.933138
O21	O	0.949144	-0.343338	0.234026
O22	O	1.449144	0.156662	0.734026
O23	O	0.830404	-0.343181	0.343111
O24	O	1.330404	0.156819	0.843111
O25	O	0.931336	-0.442345	0.551497
O26	O	1.431336	0.057655	1.051497
O27	O	0.822693	-0.432946	0.432875
O28	O	1.322693	0.067054	0.932875
O29	O	1.021364	-0.359700	0.551610
O30	O	1.521364	0.140300	1.051610
O31	O	1.021223	-0.551695	0.359611
O32	O	1.521223	-0.051695	0.859611
O33	O	0.931256	-0.551576	0.442263
O34	O	1.431256	-0.051576	0.942263
C35	C	0.801103	-0.386995	0.386926
C36	C	1.301103	0.113005	0.886926
C37	C	0.723151	-0.383737	0.383675
C38	C	1.223151	0.116263	0.883675
C39	C	0.682534	-0.429008	0.428814
C40	C	1.182534	0.070992	0.928814
C41	C	0.609290	-0.425938	0.425762
C42	C	1.109290	0.074062	0.925762
C43	C	0.576667	-0.377600	0.377566
C44	C	1.076667	0.122400	0.877566
C45	C	0.617290	-0.332325	0.332424
C46	C	1.117290	0.167675	0.832424
C47	C	0.690532	-0.335392	0.335480
C48	C	1.190532	0.164608	0.835480
C49	C	0.358046	-0.363405	0.363424
C50	C	0.858046	0.136595	0.863424
C51	C	0.284799	-0.360343	0.360370
C52	C	0.784799	0.139657	0.860370
C53	C	0.276804	-0.453955	0.453709
C54	C	0.776804	0.046045	0.953709
C55	C	0.350048	-0.457021	0.456758
C56	C	0.850048	0.042979	0.956758
C57	C	0.390665	-0.411743	0.411619
C58	C	0.890665	0.088257	0.911619
N59	N	0.501800	-0.374462	0.374443
N60	N	1.001800	0.125538	0.874443
N61	N	0.465530	-0.414878	0.414745
N62	N	0.965530	0.085122	0.914745
C63	C	0.975110	-0.577119	0.401987
C64	C	1.475110	-0.077119	0.901987
C65	C	0.971664	-0.655183	0.405186
C66	C	1.471664	-0.155183	0.905186
C67	C	1.016920	-0.691899	0.363696
C68	C	1.516920	-0.191899	0.863696
C69	C	1.013684	-0.765249	0.366710
C70	C	1.513684	-0.265249	0.866710
C71	C	0.965188	-0.801881	0.411211
C72	C	1.465188	-0.301881	0.911211
C73	C	0.919930	-0.765160	0.452706
C74	C	1.419930	-0.265160	0.952706
C75	C	0.923170	-0.691812	0.449695
C76	C	1.423170	-0.191812	0.949695
C77	C	0.953062	-1.023343	0.422455
C78	C	1.453062	-0.523343	0.922455
C79	C	0.949824	-1.096696	0.425461
C80	C	1.449824	-0.596696	0.925461
C81	C	1.043579	-1.096780	0.339465
C82	C	1.543579	-0.596780	0.839465
C83	C	1.046812	-1.023431	0.336455
C84	C	1.546812	-0.523431	0.836455
C85	C	1.001557	-0.986716	0.377953
C86	C	1.501557	-0.486716	0.877953
C87	C	0.961877	-0.876856	0.414291
C88	C	1.461877	-0.376856	0.914291
C89	C	1.004871	-0.911743	0.374876
C90	C	1.504871	-0.411743	0.874876
C91	C	1.166231	-0.402338	0.402240
C92	C	1.666231	0.097662	0.902240
C93	C	1.244181	-0.405613	0.405509
C94	C	1.744181	0.094387	0.905509
C95	C	0.975189	-0.402086	0.577748
C96	C	1.475189	0.097914	1.077748
C97	C	0.971727	-0.405254	0.655809
C98	C	1.471727	0.094746	1.155809
C99	C	0.991563	-0.211472	0.387137
C100	C	1.491563	0.288528	0.887137
C101	C	0.995079	-0.133413	0.383970
C102	C	1.495079	0.366587	0.883970
C103	C	0.991445	-0.387197	0.212100
C104	C	1.491445	0.112803	0.712100
C105	C	0.995051	-0.383836	0.134037
C106	C	1.495051	0.116164	0.634037
C107	C	0.949804	-0.425370	1.097303
C108	C	1.449804	0.074630	1.597303
C109	C	0.953054	-0.422383	1.023956
C110	C	1.453054	0.077617	1.523956
C111	C	1.001555	-0.377865	0.987346
C112	C	1.501555	0.122135	1.487346
C113	C	1.046804	-0.336326	1.024085
C114	C	1.546804	0.163674	1.524085
C115	C	1.043550	-0.339310	1.097430
C116	C	1.543550	0.160690	1.597430
C117	C	1.013722	-0.366699	0.765894
C118	C	1.513722	0.133301	1.265894
C119	C	1.016974	-0.363720	0.692544
C120	C	1.516974	0.136280	1.192544
C121	C	0.923223	-0.449776	0.692420
C122	C	1.423223	0.050224	1.192420
C123	C	0.919976	-0.452759	0.765766
C124	C	1.419976	0.047241	1.265766
C125	C	0.965222	-0.411218	0.802499
C126	C	1.465222	0.088782	1.302499
C127	C	1.004880	-0.374812	0.912374
C128	C	1.504880	0.125188	1.412374
C129	C	0.961894	-0.414267	0.877470
C130	C	1.461894	0.085733	1.377470
H131	H	0.709090	-0.468372	0.468059
H132	H	1.209090	0.031628	0.968059
C133	C	1.099381	-0.287874	0.984366
C134	C	1.599381	0.212126	1.484366
C135	C	1.086442	-0.218468	0.998736
C136	C	1.586442	0.281532	1.498736
C137	C	1.134858	-0.173815	0.962154
C138	C	1.634858	0.326185	1.462154
H139	H	1.145534	-0.300530	0.998747
H140	H	1.645534	0.199470	1.498747
H141	H	1.094836	-0.291999	0.935414
H142	H	1.594836	0.208001	1.435414
H143	H	1.090993	-0.214346	1.047677
H144	H	1.590993	0.285654	1.547677
H145	H	1.040298	-0.205790	0.984352
H146	H	1.540298	0.294210	1.484352
H147	H	1.130313	-0.177940	0.913202
H148	H	1.630313	0.322060	1.413202
H149	H	1.181008	-0.186478	0.976538
H150	H	1.681008	0.313522	1.476538
H151	H	1.126082	-0.126718	0.971894
H152	H	1.626082	0.373282	1.471894
C153	C	1.069532	-0.315344	0.652690
C154	C	1.569532	0.184656	1.152690
C155	C	1.033729	-0.266965	0.607070
C156	C	1.533729	0.233035	1.107070
C157	C	1.082123	-0.222407	0.570337
C158	C	1.582123	0.277593	1.070337
H159	H	1.096043	-0.290960	0.684983
H160	H	1.596043	0.209040	1.184983
H161	H	1.100132	-0.342323	0.626413
H162	H	1.600132	0.157677	1.126413
H163	H	1.003142	-0.239989	0.633345
H164	H	1.503142	0.260011	1.133345
H165	H	1.007221	-0.291330	0.574764
H166	H	1.507221	0.208670	1.074764
H167	H	1.112723	-0.249386	0.544060
H168	H	1.612723	0.250614	1.044060
H169	H	1.108631	-0.198027	0.602634
H170	H	1.608631	0.301973	1.102634
H171	H	1.057838	-0.189581	0.539375
H172	H	1.557838	0.310419	1.039375
H173	H	0.258239	-0.320973	0.321126
H174	H	0.758239	0.179027	0.821126
C175	C	0.402016	-0.314212	0.314334
C176	C	0.902016	0.185788	0.814334
C177	C	0.357766	-0.271239	0.271461
C178	C	0.857766	0.228761	0.771461
C179	C	0.398250	-0.225917	0.226224
C180	C	0.898250	0.274083	0.726224
H181	H	0.430777	-0.285877	0.341121
H182	H	0.930777	0.214123	0.841121
H183	H	0.430727	-0.340959	0.285931
H184	H	0.930727	0.159041	0.785931
H185	H	0.329068	-0.244495	0.299861
H186	H	0.829068	0.255505	0.799861
H187	H	0.329005	-0.299555	0.244659
H188	H	0.829005	0.200445	0.744659
H189	H	0.426961	-0.252663	0.197821
H190	H	0.926961	0.247337	0.697821
H191	H	0.427009	-0.197586	0.253017
H192	H	0.927009	0.302414	0.753017
H193	H	0.368232	-0.196758	0.197125
H194	H	0.868232	0.303242	0.697125
H195	H	0.590722	-0.292965	0.293184
H196	H	1.090722	0.207035	0.793184
H197	H	0.886385	-0.483595	0.662504
H198	H	1.386385	0.016405	1.162504
H199	H	1.056408	-0.662078	0.327455
H200	H	1.556408	-0.162078	0.827455
H201	H	1.050569	-0.332877	0.795793
H202	H	1.550569	0.167123	1.295793
C203	C	1.092563	-0.294126	1.137345
C204	C	1.592563	0.205874	1.637345
C205	C	1.053014	-0.249143	1.175948
C206	C	1.553014	0.250857	1.675948
C207	C	1.098139	-0.207499	1.212717
C208	C	1.598139	0.292501	1.712717
H209	H	1.120653	-0.323360	1.168382
H210	H	1.620653	0.176640	1.668382
H211	H	1.121904	-0.267145	1.105058
H212	H	1.621904	0.232855	1.605058
H213	H	1.023685	-0.276122	1.208232
H214	H	1.523685	0.223878	1.708232
H215	H	1.024925	-0.219895	1.144927
H216	H	1.524925	0.280105	1.644927
H217	H	1.127480	-0.180518	1.180430
H218	H	1.627480	0.319482	1.680430
H219	H	1.126227	-0.236738	1.243751
H220	H	1.626227	0.263262	1.743751
H221	H	1.071312	-0.176969	1.238908
H222	H	1.571312	0.323031	1.738908
H223	H	0.880481	-0.489011	0.795570
H224	H	1.380481	0.010989	1.295570
C225	C	1.062853	-0.804983	0.321579
C226	C	1.562853	-0.304983	0.821579
C227	C	1.106000	-0.757202	0.281945
C228	C	1.606000	-0.257202	0.781945
C229	C	1.151299	-0.793779	0.240354
C230	C	1.651299	-0.293779	0.740354
H231	H	1.091002	-0.835933	0.350844
H232	H	1.591002	-0.335933	0.850844
H233	H	1.036158	-0.831250	0.290973
H234	H	1.536158	-0.331250	0.790973
H235	H	1.132692	-0.730947	0.312547
H236	H	1.632692	-0.230947	0.812547
H237	H	1.077870	-0.726251	0.252666
H238	H	1.577870	-0.226251	0.752666
H239	H	1.124605	-0.820045	0.209749
H240	H	1.624605	-0.320045	0.709749
H241	H	1.179444	-0.824727	0.269625
H242	H	1.679444	-0.324727	0.769625
H243	H	1.180576	-0.761364	0.213453
H244	H	1.680576	-0.261364	0.713453
H245	H	0.922401	-0.450510	0.907281
H246	H	1.422401	0.049490	1.407281
H247	H	1.086301	-0.993606	0.300219
H248	H	1.586301	-0.493606	0.800219
H249	H	0.576222	-0.462802	0.462519
H250	H	1.076222	0.037198	0.962519
C251	C	1.092834	-1.136557	0.294460
C252	C	1.592834	-0.636557	0.794460
C253	C	1.162317	-1.122165	0.311976
C254	C	1.662317	-0.622165	0.811976
C255	C	1.207716	-1.158785	0.270526
C256	C	1.707716	-0.658785	0.770526
H257	H	1.084061	-1.185500	0.302583
H258	H	1.584061	-0.685500	0.802583
H259	H	1.085276	-1.122206	0.246333
H260	H	1.585276	-0.622206	0.746333
H261	H	1.169872	-1.136520	0.360092
H262	H	1.669872	-0.636520	0.860092
H263	H	1.171112	-1.073229	0.303850
H264	H	1.671112	-0.573229	0.803850
H265	H	1.200158	-1.144434	0.222399
H266	H	1.700158	-0.644434	0.722399
H267	H	1.198936	-1.207727	0.278653
H268	H	1.698936	-0.707727	0.778653
H269	H	1.254865	-1.149020	0.282401
H270	H	1.754865	-0.649020	0.782401
H271	H	0.376605	-0.496384	0.496003
H272	H	0.876605	0.003616	0.996003
C273	C	0.897148	-1.136346	0.473855
C274	C	1.397148	-0.636346	0.973855
C275	C	0.858223	-1.088496	0.509569
C276	C	1.358223	-0.588496	1.009569
C277	C	0.809702	-1.124996	0.554160
C278	C	1.309702	-0.624996	1.054160
H279	H	0.866472	-1.162627	0.446939
H280	H	1.366472	-0.662627	0.946939
H281	H	0.921320	-1.167277	0.506805
H282	H	1.421320	-0.667277	1.006805
H283	H	0.834052	-1.057577	0.476624
H284	H	1.334052	-0.557577	0.976624
H285	H	0.888880	-1.062214	0.536499
H286	H	1.388880	-0.562214	1.036499
H287	H	0.833874	-1.155928	0.587110
H288	H	1.333874	-0.655928	1.087110
H289	H	0.779030	-1.151276	0.527238
H290	H	1.279030	-0.651276	1.027238
H291	H	0.783289	-1.092536	0.578402
H292	H	1.283289	-0.592536	1.078402
H293	H	0.243726	-0.490816	0.490460
H294	H	0.743726	0.009184	0.990460
H295	H	0.922390	-0.906690	0.450522
H296	H	1.422390	-0.406690	0.950522
H297	H	0.880446	-0.794992	0.488942
H298	H	1.380446	-0.294992	0.988942
H299	H	0.886319	-0.661918	0.483482
H300	H	1.386319	-0.161918	0.983482
C301	C	0.897072	-0.473724	1.136919
C302	C	1.397072	0.026276	1.636919
C303	C	0.858130	-0.509443	1.089045
C304	C	1.358130	-0.009443	1.589045
C305	C	0.809538	-0.553985	1.125511
C306	C	1.309538	-0.053985	1.625511
H307	H	0.921167	-0.506676	1.167897
H308	H	1.421167	-0.006676	1.667897
H309	H	0.866420	-0.446750	1.163146
H310	H	1.366420	0.053250	1.663146
H311	H	0.888777	-0.536415	1.062830
H312	H	1.388777	-0.036415	1.562830
H313	H	0.834020	-0.476508	1.058066
H314	H	1.334020	0.023492	1.558066
H315	H	0.778886	-0.527011	1.151737
H316	H	1.278886	-0.027011	1.651737
H317	H	0.833639	-0.586933	1.156487
H318	H	1.333639	-0.086933	1.656487
H319	H	0.783105	-0.578221	1.093034
H320	H	1.283105	-0.078221	1.593034
H321	H	0.723602	-0.298525	0.298726
H322	H	1.223602	0.201475	0.798726
H323	H	1.044372	-0.338567	0.882557
H324	H	1.544372	0.161433	1.382557
C325	C	0.903894	-0.983387	0.467381
C326	C	1.403894	-0.483387	0.967381
C327	C	0.862614	-0.937819	0.423968
C328	C	1.362614	-0.437819	0.923968
C329	C	0.817317	-0.900988	0.465329
C330	C	1.317317	-0.400988	0.965329
H331	H	0.874480	-1.015624	0.494323
H332	H	1.374480	-0.515624	0.994323
H333	H	0.930586	-0.957065	0.497939
H334	H	1.430586	-0.457065	0.997939
H335	H	0.835924	-0.964140	0.393422
H336	H	1.335924	-0.464140	0.893422
H337	H	0.892009	-0.905568	0.397026
H338	H	1.392009	-0.405568	0.897026
H339	H	0.844009	-0.874666	0.495887
H340	H	1.344009	-0.374666	0.995887
H341	H	0.787908	-0.933231	0.492269
H342	H	1.287908	-0.433231	0.992269
H343	H	0.789308	-0.870061	0.435880
H344	H	1.289308	-0.370061	0.935880
C345	C	0.904039	-0.467522	0.983997
C346	C	1.404039	0.032478	1.483997
C347	C	0.943578	-0.512483	0.945359
C348	C	1.443578	-0.012483	1.445359
C349	C	0.898445	-0.554070	0.908537
C350	C	1.398445	-0.054070	1.408537
H351	H	0.874678	-0.494524	1.016233
H352	H	1.374678	0.005476	1.516233
H353	H	0.875970	-0.438228	0.952980
H354	H	1.375970	0.061772	1.452980
H355	H	0.971635	-0.541774	0.976373
H356	H	1.471635	-0.041774	1.476373
H357	H	0.972938	-0.485500	0.913111
H358	H	1.472938	0.014500	1.413111
H359	H	0.870376	-0.524776	0.877520
H360	H	1.370376	-0.024776	1.377520
H361	H	0.869086	-0.581068	0.940779
H362	H	1.369086	-0.081068	1.440779
H363	H	0.925265	-0.584576	0.882312
H364	H	1.425265	-0.084576	1.382312
H365	H	1.044360	-0.881915	0.338646
H366	H	1.544360	-0.381915	0.838646
