data_functionalizedCrystal
_audit_creation_method	'MofGen! by Chris Wilmer'
_symmetry_space_group_name_H-M	'P1'
_symmetry_Int_Tables_number	1
_symmetry_cell_setting	triclinic
loop_
_symmetry_equiv_pos_as_xyz
  x,y,z
_cell_length_a	12.827892
_cell_length_b	12.827893
_cell_length_c	11.169409
_cell_angle_alpha	90.023655
_cell_angle_beta	89.966972
_cell_angle_gamma	89.986588
loop_
_atom_site_label
_atom_site_type_symbol
_atom_site_fract_x
_atom_site_fract_y
_atom_site_fract_z
Zn1	Zn	-0.416004	-1.597697	-0.678635
Zn2	Zn	-0.590791	-1.597583	-0.477950
Zn3	Zn	-0.416059	-1.422930	-0.477959
Zn4	Zn	-0.590698	-1.422924	-0.678584
O5	O	-0.503388	-1.510283	-0.578282
O6	O	-0.439206	-1.743918	-0.652032
O7	O	-0.567675	-1.574370	-0.310001
O8	O	-0.269816	-1.446164	-0.504605
O9	O	-0.567622	-1.743834	-0.504589
O10	O	-0.269775	-1.574564	-0.652041
O11	O	-0.439300	-1.446053	-0.310008
O12	O	-0.439209	-1.276693	-0.504555
O13	O	-0.567462	-1.446153	-0.846540
O14	O	-0.567515	-1.276689	-0.651953
O15	O	-0.439116	-1.574558	-0.846578
O16	O	-0.737015	-1.574364	-0.504539
O17	O	-0.736946	-1.446042	-0.651944
C18	C	-0.503359	-1.238774	-0.578250
C19	C	-0.503371	-1.122620	-0.578264
C20	C	-0.566816	-1.070795	-0.505206
C21	C	-0.566830	-0.950744	-0.505220
C22	C	-0.774898	-1.510218	-0.578261
C23	C	-0.891051	-1.510286	-0.578292
C24	C	-0.942835	-1.573859	-0.505432
C25	C	-1.062886	-1.573930	-0.505463
C26	C	-0.230818	-1.510378	-0.578330
C27	C	-0.114665	-1.510418	-0.578350
C28	C	-0.503272	-1.510367	-0.891325
C29	C	-0.503223	-1.510403	-1.024725
C30	C	-0.503410	-0.782854	-0.578305
C31	C	-0.503397	-0.899007	-0.578291
C32	C	-0.503428	-1.510260	-0.266457
C33	C	-0.503183	-1.510427	-0.133058
H34	H	-0.449068	-1.078114	-0.640826
H35	H	-0.621145	-0.906175	-0.442669
C36	C	-0.883585	-1.646301	-0.422025
C37	C	-0.910179	-1.623652	-0.303235
C38	C	-0.855632	-1.690373	-0.226366
H39	H	-0.810775	-1.636681	-0.432902
H40	H	-0.901372	-1.716553	-0.439574
H41	H	-0.892386	-1.553417	-0.285693
H42	H	-0.982981	-1.633278	-0.292321
H43	H	-0.873418	-1.760625	-0.243914
H44	H	-0.782824	-1.680748	-0.237253
H45	H	-0.873675	-1.675021	-0.145759
H46	H	-1.070139	-1.455983	-0.640727
C47	C	-0.950244	-1.437740	-0.661634
C48	C	-0.879204	-1.379094	-0.728867
C49	C	-0.933690	-1.312262	-0.805668
H50	H	-0.992899	-1.392200	-0.615777
H51	H	-0.992729	-1.477734	-0.714001
H52	H	-0.836737	-1.339102	-0.676506
H53	H	-0.836547	-1.424606	-0.774748
H54	H	-0.976175	-1.352256	-0.858035
H55	H	-0.976343	-1.266729	-0.759801
H56	H	-0.885498	-1.272469	-0.851302
C57	C	-0.639293	-1.130264	-0.421983
C58	C	-0.706256	-1.192967	-0.489867
C59	C	-0.773028	-1.247773	-0.413241
H60	H	-0.679200	-1.082304	-0.376119
H61	H	-0.599250	-1.172886	-0.369829
H62	H	-0.746295	-1.150348	-0.542001
H63	H	-0.666378	-1.240947	-0.535729
H64	H	-0.732986	-1.290395	-0.361087
H65	H	-0.812928	-1.199805	-0.367381
H66	H	-0.818464	-1.290330	-0.459289
C67	C	-0.431139	-0.958474	-0.661849
C68	C	-0.490436	-1.021144	-0.738605
C69	C	-0.423909	-1.075937	-0.815605
H70	H	-0.385573	-1.001123	-0.616119
H71	H	-0.391363	-0.910474	-0.707766
H72	H	-0.530194	-1.069138	-0.692693
H73	H	-0.535999	-0.978521	-0.784361
H74	H	-0.384134	-1.027937	-0.861522
H75	H	-0.378347	-1.118580	-0.769866
H76	H	-0.464133	-1.118457	-0.867700
H77	H	-1.107419	-1.628354	-0.443082
