data_functionalizedCrystal
_audit_creation_method	'MofGen! by Chris Wilmer'
_symmetry_space_group_name_H-M	'P1'
_symmetry_Int_Tables_number	1
_symmetry_cell_setting	triclinic
loop_
_symmetry_equiv_pos_as_xyz
  x,y,z
_cell_length_a	16.109301
_cell_length_b	10.065918
_cell_length_c	16.109301
_cell_angle_alpha	99.820212
_cell_angle_beta	83.461481
_cell_angle_gamma	99.860161
loop_
_atom_site_label
_atom_site_type_symbol
_atom_site_fract_x
_atom_site_fract_y
_atom_site_fract_z
O1	O	1.114031	0.113412	0.117705
O2	O	1.614031	0.613412	0.617705
O3	O	0.871971	0.113435	0.131007
O4	O	1.371971	0.613435	0.631007
O5	O	0.999649	0.113409	0.003324
O6	O	1.499649	0.613409	0.503324
O7	O	0.986353	0.113438	0.245388
O8	O	1.486353	0.613438	0.745388
O9	O	0.977824	-0.113580	-0.018372
O10	O	1.477824	0.386420	0.481628
O11	O	0.850146	-0.113554	0.109311
O12	O	1.350146	0.386446	0.609311
O13	O	1.092206	-0.113577	0.096009
O14	O	1.592206	0.386423	0.596009
Zn15	Zn	0.967711	-0.149605	0.099215
Zn16	Zn	1.467711	0.350395	0.599215
Zn17	Zn	0.996466	0.149463	0.127801
Zn18	Zn	1.496466	0.649463	0.627801
O19	O	0.964528	-0.113551	0.223692
O20	O	1.464528	0.386449	0.723692
C21	C	0.830084	-0.000057	0.119620
C22	C	1.330084	0.499943	0.619620
C23	C	0.737789	-0.000049	0.118006
C24	C	1.237789	0.499951	0.618006
N25	N	0.948092	-0.353711	0.079706
N26	N	1.448092	0.146289	0.579706
C27	C	0.515516	-0.000056	0.190013
C28	C	1.015516	0.499944	0.690013
C29	C	0.428795	-0.000065	0.188488
C30	C	0.928795	0.499935	0.688488
C31	C	0.448668	-0.000078	0.036998
C32	C	0.948668	0.499922	0.536998
C33	C	0.535387	-0.000078	0.038523
C34	C	1.035387	0.499922	0.538523
C35	C	0.568809	-0.000061	0.115033
C36	C	1.068809	0.499939	0.615033
C37	C	0.395369	-0.000069	0.111984
C38	C	0.895369	0.499931	0.611984
C39	C	0.301342	-0.000079	0.110330
C40	C	0.801342	0.499921	0.610330
C41	C	0.662842	-0.000054	0.116688
C42	C	1.162842	0.499946	0.616688
C43	C	0.989635	-0.421489	0.121013
C44	C	1.489635	0.078511	0.621013
C45	C	0.974543	-0.578656	0.105990
C46	C	1.474543	-0.078656	0.605990
C47	C	1.134093	-0.000082	0.107396
C48	C	1.634093	0.499918	0.607396
C49	C	1.226389	-0.000081	0.109011
C50	C	1.726389	0.499919	0.609011
C51	C	0.988198	-0.000086	-0.038499
C52	C	1.488198	0.499914	0.461501
C53	C	0.986583	-0.000088	-0.130795
C54	C	1.486583	0.499912	0.369205
N55	N	1.016091	0.353569	0.147303
N56	N	1.516091	0.853569	0.647303
C57	C	1.058592	-0.000073	-0.353066
C58	C	1.558592	0.499927	0.146934
C59	C	1.057069	-0.000061	-0.439785
C60	C	1.557069	0.499939	0.060215
C61	C	0.905581	-0.000053	-0.419910
C62	C	1.405581	0.499947	0.080090
C63	C	0.907106	-0.000055	-0.333191
C64	C	1.407106	0.499945	0.166809
C65	C	0.983613	-0.000071	-0.299772
C66	C	1.483613	0.499929	0.200228
C67	C	0.980565	-0.000058	-0.473210
C68	C	1.480565	0.499942	0.026790
C69	C	0.978913	-0.000046	-0.567235
C70	C	1.478913	0.499954	-0.067235
C71	C	0.985266	-0.000081	-0.205741
C72	C	1.485266	0.499919	0.294259
C73	C	0.975979	-0.000053	0.265516
C74	C	1.475979	0.499947	0.765516
C75	C	0.977596	-0.000042	0.357812
C76	C	1.477596	0.499958	0.857812
H77	H	0.542725	-0.000052	0.252312
H78	H	1.042725	0.499948	0.752312
H79	H	0.421444	-0.000100	-0.025295
H80	H	0.921444	0.499900	0.474705
O81	O	0.371312	-0.000056	0.269358
O82	O	0.871312	0.499944	0.769358
H83	H	0.409126	-0.000036	0.322814
H84	H	0.909126	0.499964	0.822814
O85	O	0.592877	-0.000086	-0.042351
O86	O	1.092877	0.499914	0.457649
H87	H	0.555071	-0.000080	-0.095808
H88	H	1.055071	0.499920	0.404192
H89	H	0.843291	-0.000042	-0.447131
H90	H	1.343291	0.499958	0.052869
H91	H	1.036377	-0.363161	0.167496
H92	H	1.536377	0.136839	0.667496
O93	O	0.912623	-0.655893	0.044410
O94	O	1.412623	-0.155893	0.544410
H95	H	0.910480	-0.767217	0.042279
H96	H	1.410480	-0.267217	0.542279
O97	O	1.078005	-0.569198	0.208890
O98	O	1.578005	-0.069198	0.708890
H99	H	1.080139	-0.457873	0.211033
H100	H	1.580139	0.042127	0.711033
H101	H	0.901356	-0.412039	0.033218
H102	H	1.401356	0.087961	0.533218
H103	H	1.120889	-0.000084	-0.325859
H104	H	1.620889	0.499916	0.174141
H105	H	1.118125	-0.000060	-0.483173
H106	H	1.618125	0.499940	0.016827
O107	O	0.826231	-0.000068	-0.275702
O108	O	1.326231	0.499932	0.224298
H109	H	0.772772	-0.000082	-0.313510
H110	H	1.272772	0.499918	0.186490
