data_functionalizedCrystal
_audit_creation_method	'MofGen! by Chris Wilmer'
_symmetry_space_group_name_H-M	'P1'
_symmetry_Int_Tables_number	1
_symmetry_cell_setting	triclinic
loop_
_symmetry_equiv_pos_as_xyz
  x,y,z
_cell_length_a	7.088929
_cell_length_b	16.992694
_cell_length_c	16.992695
_cell_angle_alpha	90.668223
_cell_angle_beta	83.350878
_cell_angle_gamma	96.635129
loop_
_atom_site_label
_atom_site_type_symbol
_atom_site_fract_x
_atom_site_fract_y
_atom_site_fract_z
O1	O	0.158752	-1.043288	-0.174491
O2	O	0.658752	-0.543288	0.325509
O3	O	0.158809	-0.814885	-0.172663
O4	O	0.658809	-0.314885	0.327337
O5	O	0.158766	-0.928172	-0.059376
O6	O	0.658766	-0.428172	0.440624
O7	O	0.158796	-0.930001	-0.287778
O8	O	0.658796	-0.430001	0.212222
O9	O	-0.159215	-0.943309	-0.044200
O10	O	0.340785	-0.443309	0.455800
O11	O	-0.159172	-0.830023	-0.157486
O12	O	0.340828	-0.330023	0.342514
O13	O	-0.159228	-1.058425	-0.159315
O14	O	0.340772	-0.558425	0.340685
Cu15	Cu	-0.188234	-0.945606	-0.157015
Cu16	Cu	0.311766	-0.445606	0.342985
Cu17	Cu	0.187815	-0.927704	-0.174963
Cu18	Cu	0.687815	-0.427704	0.325037
O19	O	-0.159185	-0.945139	-0.272601
O20	O	0.340815	-0.445139	0.227399
C21	C	-0.000175	-0.793093	-0.162719
C22	C	0.499825	-0.293093	0.337281
C23	C	-0.000153	-0.705608	-0.155691
C24	C	0.499847	-0.205608	0.344309
N25	N	-0.452727	-0.958203	-0.144392
N26	N	0.047273	-0.458203	0.355608
C27	C	-0.000224	-0.933385	-0.022428
C28	C	0.499776	-0.433385	0.477572
C29	C	-0.000222	-0.926356	0.065057
C30	C	0.499778	-0.426356	0.565057
N31	N	0.452308	-0.915114	-0.187580
N32	N	0.952308	-0.415114	0.312420
C33	C	-0.000241	-1.080217	-0.169259
C34	C	0.499759	-0.580217	0.330741
C35	C	-0.000249	-1.167702	-0.176287
C36	C	0.499751	-0.667702	0.323713
C37	C	-0.000146	-0.659617	-0.223510
C38	C	0.499854	-0.159617	0.276490
C39	C	-0.000173	-0.577417	-0.216899
C40	C	0.499827	-0.077417	0.283101
C41	C	-0.000194	-0.541210	-0.142471
C42	C	0.499806	-0.041210	0.357529
C43	C	-0.000207	-0.587207	-0.074647
C44	C	0.499793	-0.087207	0.425353
C45	C	-0.000194	-0.669406	-0.081257
C46	C	0.499806	-0.169406	0.418743
C47	C	-0.000249	-0.295898	-0.115074
C48	C	0.499751	0.204102	0.384926
C49	C	-0.000257	-0.213693	-0.108469
C50	C	0.499743	0.286307	0.391531
C51	C	-0.000226	-0.203909	-0.250722
C52	C	0.499774	0.296091	0.249278
C53	C	-0.000201	-0.286109	-0.257326
C54	C	0.499799	0.213891	0.242674
C55	C	-0.000224	-0.332100	-0.189502
C56	C	0.499776	0.167900	0.310498
N57	N	-0.000216	-0.457189	-0.135713
N58	N	0.499784	0.042811	0.364287
N59	N	-0.000216	-0.416120	-0.196260
N60	N	0.499784	0.083880	0.303740
C61	C	-0.000191	-0.939926	-0.309550
C62	C	0.499809	-0.439926	0.190450
C63	C	-0.000181	-0.946954	-0.397035
C64	C	0.499819	-0.446954	0.102965
C65	C	-0.000240	-0.994175	0.111048
C66	C	0.499760	-0.494175	0.611048
C67	C	-0.000221	-0.987565	0.193248
C68	C	0.499779	-0.487565	0.693248
C69	C	-0.000196	-0.913136	0.229455
C70	C	0.499804	-0.413136	0.729455
C71	C	-0.000171	-0.845312	0.183457
C72	C	0.499829	-0.345312	0.683457
C73	C	-0.000177	-0.851922	0.101258
C74	C	0.499823	-0.351922	0.601258
C75	C	-0.000163	-0.885740	0.474768
C76	C	0.499837	-0.385740	0.974768
C77	C	-0.000162	-0.879135	0.556973
C78	C	0.499838	-0.379135	1.056973
C79	C	-0.000208	-1.021389	0.566759
C80	C	0.499792	-0.521389	1.066759
C81	C	-0.000226	-1.027993	0.484558
C82	C	0.499774	-0.527993	0.984558
C83	C	-0.000191	-0.960168	0.438567
C84	C	0.499809	-0.460168	0.938567
N85	N	-0.000182	-0.906378	0.313477
N86	N	0.499818	-0.406378	0.813477
N87	N	-0.000192	-0.966926	0.354546
N88	N	0.499808	-0.466926	0.854546
H89	H	-0.466029	-0.870456	-0.232336
H90	H	0.033971	-0.370456	0.267664
Br91	Br	-0.588841	-1.032652	-0.069802
Br92	Br	-0.088841	-0.532652	0.430198
Br93	Br	-0.000149	-0.778119	0.606112
Br94	Br	0.499851	-0.278119	1.106112
H95	H	-0.000233	-1.076607	0.604213
H96	H	0.499767	-0.576607	1.104213
Br97	Br	-0.000098	-0.708746	-0.324526
Br98	Br	0.499902	-0.208746	0.175474
Br99	Br	-0.000104	-0.793690	0.412361
Br100	Br	0.499896	-0.293690	0.912361
H101	H	-0.000165	-0.539974	-0.272125
H102	H	0.499835	-0.039974	0.227875
Br103	Br	-0.000151	-0.335240	-0.358341
Br104	Br	0.499849	0.164760	0.141659
H105	H	-0.000269	-0.333334	-0.059846
H106	H	0.499731	0.166666	0.440154
Br107	Br	-0.000197	-0.141489	-0.342763
Br108	Br	0.499803	0.358511	0.157237
Br109	Br	-0.000198	-1.129004	0.435423
Br110	Br	0.499802	-0.629004	0.935423
Br111	Br	-0.000326	-0.164557	-0.007450
Br112	Br	0.499674	0.335443	0.492550
Br113	Br	-0.000255	-0.538071	0.026366
Br114	Br	0.499745	-0.038071	0.526366
Br115	Br	-0.000221	-0.731825	0.010786
Br116	Br	0.499779	-0.231825	0.510786
Br117	Br	-0.000246	-1.079609	0.255663
Br118	Br	0.499754	-0.579609	0.755663
H119	H	-0.000272	-1.054783	0.081576
H120	H	0.499728	-0.554783	0.581576
H121	H	-0.000139	-0.784709	0.212943
H122	H	0.499861	-0.284709	0.712943
H123	H	-0.000162	-0.796696	0.063812
H124	H	0.499838	-0.296696	0.563812
