data_functionalizedCrystal
_audit_creation_method	'MofGen! by Chris Wilmer'
_symmetry_space_group_name_H-M	'P1'
_symmetry_Int_Tables_number	1
_symmetry_cell_setting	triclinic
loop_
_symmetry_equiv_pos_as_xyz
  x,y,z
_cell_length_a	17.038272
_cell_length_b	15.500227
_cell_length_c	10.540539
_cell_angle_alpha	92.858895
_cell_angle_beta	92.181476
_cell_angle_gamma	93.043705
loop_
_atom_site_label
_atom_site_type_symbol
_atom_site_fract_x
_atom_site_fract_y
_atom_site_fract_z
O1	O	1.042552	0.071829	-0.270318
O2	O	0.814897	0.071854	-0.265936
O3	O	0.933918	0.071840	-0.083905
O4	O	0.923531	0.071843	-0.452349
O5	O	0.926695	-0.072048	-0.094905
O6	O	0.807674	-0.072033	-0.276936
O7	O	1.035329	-0.072059	-0.281318
Cu8	Cu	0.920842	-0.085184	-0.280131
Cu9	Cu	0.929384	0.084980	-0.267123
O10	O	0.916308	-0.072045	-0.463349
C11	C	0.782135	-0.000086	-0.267453
C12	C	0.695274	-0.000076	-0.255568
C13	C	0.645787	-0.000076	-0.364678
C14	C	0.564171	-0.000088	-0.353505
C15	C	0.532045	-0.000094	-0.233220
C16	C	0.581539	-0.000097	-0.124102
C17	C	0.663152	-0.000091	-0.135277
C18	C	0.286059	-0.000118	-0.193742
C19	C	0.204440	-0.000121	-0.182575
C20	C	0.187078	-0.000114	-0.411980
C21	C	0.268694	-0.000102	-0.423144
C22	C	0.318180	-0.000110	-0.314026
C23	C	0.448622	-0.000104	-0.221796
C24	C	0.401602	-0.000107	-0.325451
N25	N	0.914840	-0.204868	-0.289280
C26	C	0.965291	-0.250151	-0.212180
C27	C	0.960759	-0.340724	-0.219112
C28	C	0.905779	-0.386011	-0.303152
C29	C	0.855323	-0.340722	-0.380255
C30	C	0.859852	-0.250152	-0.373316
C31	C	0.889464	-0.659476	-0.328129
C32	C	0.884941	-0.750053	-0.335065
C33	C	0.990377	-0.750048	-0.173919
C34	C	0.994904	-0.659476	-0.166992
C35	C	0.944445	-0.614195	-0.244091
C36	C	0.901147	-0.478591	-0.310242
C37	C	0.949074	-0.521617	-0.236993
C38	C	1.068091	-0.000116	-0.279801
C39	C	1.154952	-0.000121	-0.291686
C40	C	0.929528	-0.000102	-0.042029
C41	C	0.927198	-0.000097	0.099137
N42	N	0.935392	0.204664	-0.257964
C43	C	0.920698	-0.000100	-0.505224
C44	C	0.923029	-0.000100	-0.646390
C45	C	0.837907	0.000236	0.290919
C46	C	0.840253	-0.000089	0.144056
C47	C	0.964914	-0.082269	0.150610
C48	C	0.961944	-0.082338	0.297426
C49	C	0.971926	0.081289	0.310288
C50	C	0.972781	0.082375	0.163314
H51	H	0.326342	-0.000124	-0.104890
N52	N	0.828781	-0.796324	-0.420912
N53	N	0.851508	-0.846851	-0.506333
H54	H	0.811848	-0.879529	-0.566961
N55	N	0.844998	-0.524850	-0.396106
N56	N	0.847227	-0.514732	-0.512849
H57	H	0.807569	-0.547403	-0.573490
N58	N	1.012270	-0.387001	-0.140345
N59	N	1.058515	-0.437560	-0.189764
H60	H	1.094883	-0.470252	-0.134121
N61	N	0.136518	-0.000105	-0.523421
N62	N	0.063650	-0.000109	-0.513434
H63	H	0.027941	-0.000105	-0.592144
H64	H	0.555375	-0.000114	-0.026164
H65	H	0.294845	-0.000087	-0.521091
N66	N	0.791322	-0.073288	0.327149
N67	N	0.762468	-0.127414	0.244075
H68	H	0.729574	-0.179348	0.269656
N69	N	0.713693	-0.000101	-0.023811
N70	N	0.685002	-0.000111	0.083580
H71	H	0.720695	-0.000123	0.162307
N72	N	1.041900	-0.796316	-0.095159
N73	N	1.014111	-0.846865	-0.017489
H74	H	1.050498	-0.879543	0.038143
N75	N	0.940553	0.159431	0.359104
N76	N	0.971916	0.231065	0.334427
H77	H	0.949752	0.286250	0.368901
H78	H	0.427762	-0.000106	-0.423387
H79	H	0.178286	-0.000125	-0.084620
N80	N	0.415802	-0.000119	-0.098932
N81	N	0.369163	-0.060777	-0.071747
H82	H	0.345981	-0.060791	0.015025
H83	H	0.671937	-0.000070	-0.462627
N84	N	0.938295	0.158650	0.121333
N85	N	0.966105	0.231596	0.161519
H86	H	0.941757	0.285466	0.131849
H87	H	0.848380	-0.622616	-0.390908
H88	H	1.039673	-0.622604	-0.098560
N89	N	1.021416	-0.203908	-0.126255
N90	N	1.066424	-0.244355	-0.057366
H91	H	1.106045	-0.211699	0.003354
H92	H	0.932780	-0.143412	0.106047
H93	H	1.034753	0.081835	0.351697
N94	N	0.802654	0.073792	0.100078
N95	N	0.797953	0.086189	-0.016172
H96	H	0.771394	0.138368	-0.047228
H97	H	0.806520	0.059163	0.327228
H98	H	1.036419	0.087330	0.133559
N99	N	0.799160	-0.386993	-0.466084
N100	N	0.795123	-0.467859	-0.472270
H101	H	0.755458	-0.500538	-0.532890
N102	N	0.808308	-0.203907	-0.452076
N103	N	0.759221	-0.244350	-0.527106
H104	H	0.722813	-0.211691	-0.582730
H105	H	1.028610	-0.085331	0.122066
N106	N	1.005199	-0.475330	-0.151127
N107	N	0.982425	-0.424803	-0.065745
H108	H	1.022057	-0.392095	-0.005100
H109	H	0.804138	-0.059084	0.100883
N110	N	0.919283	-0.159388	0.330519
N111	N	0.891905	-0.212736	0.245234
H112	H	0.861774	-0.267154	0.268599
N113	N	1.040151	-0.087035	0.349915
N114	N	1.096749	-0.090257	0.278096
H115	H	1.151983	-0.093581	0.315160
H116	H	0.523882	-0.000087	-0.442354
