data_functionalizedCrystal
_audit_creation_method	'MofGen! by Chris Wilmer'
_symmetry_space_group_name_H-M	'P1'
_symmetry_Int_Tables_number	1
_symmetry_cell_setting	triclinic
loop_
_symmetry_equiv_pos_as_xyz
  x,y,z
_cell_length_a	16.625546
_cell_length_b	12.827893
_cell_length_c	12.827885
_cell_angle_alpha	89.978811
_cell_angle_beta	90.035124
_cell_angle_gamma	89.979513
loop_
_atom_site_label
_atom_site_type_symbol
_atom_site_fract_x
_atom_site_fract_y
_atom_site_fract_z
Zn1	Zn	-0.321005	-1.597618	0.590863
Zn2	Zn	-0.455859	-1.597491	0.416107
Zn3	Zn	-0.321040	-1.422860	0.416131
Zn4	Zn	-0.455795	-1.422823	0.590801
O5	O	-0.388425	-1.510198	0.503476
O6	O	-0.338906	-1.743837	0.567697
O7	O	-0.438017	-1.574287	0.269874
O8	O	-0.208203	-1.446110	0.439346
O9	O	-0.437983	-1.743744	0.439305
O10	O	-0.208177	-1.574505	0.567721
O11	O	-0.338965	-1.445987	0.269892
O12	O	-0.338903	-1.276619	0.439286
O13	O	-0.437873	-1.446048	0.737046
O14	O	-0.437907	-1.276592	0.567615
O15	O	-0.338844	-1.574469	0.737091
O16	O	-0.568683	-1.574252	0.439245
O17	O	-0.568636	-1.445925	0.567592
C18	C	-0.388402	-1.238688	0.503447
C19	C	-0.388412	-1.122535	0.503459
C20	C	-0.339366	-0.950692	0.440083
C21	C	-0.339355	-1.070742	0.440069
C22	C	-0.597916	-1.510099	0.503432
C23	C	-0.687537	-1.510152	0.503448
C24	C	-1.015712	-1.510335	0.503557
C25	C	-0.924404	-1.510281	0.503530
C26	C	-0.851627	-1.510243	0.503502
C27	C	-0.760313	-1.510190	0.503476
C28	C	-0.178116	-1.510326	0.503543
C29	C	-0.088495	-1.510380	0.503571
C30	C	-0.388347	-1.510269	0.776046
C31	C	-0.388314	-1.510299	0.892199
C32	C	-0.388442	-0.782768	0.503497
C33	C	-0.388432	-0.898921	0.503485
C34	C	-0.388444	-1.510187	0.231966
C35	C	-0.388250	-1.510359	0.115813
C36	C	-0.339302	-1.573853	0.944007
C37	C	-0.339267	-1.573886	1.064057
H38	H	-0.430423	-1.078020	0.557740
H39	H	-0.297308	-1.628300	1.108610
C40	C	-0.282645	-1.647331	0.883873
C41	C	-0.289220	-1.766143	0.898790
C42	C	-0.232561	-1.839624	0.838661
C43	C	-0.169327	-1.794294	0.763614
C44	C	-0.162750	-1.675476	0.748694
C45	C	-0.219409	-1.601995	0.808823
H46	H	-0.336032	-1.799705	0.954347
H47	H	-0.237430	-1.927581	0.849706
H48	H	-0.127385	-1.848689	0.719103
H49	H	-0.115938	-1.641914	0.693137
H50	H	-0.214540	-1.514038	0.797778
H51	H	-0.430244	-1.455906	0.936722
C52	C	-0.282603	-1.130878	0.366734
C53	C	-0.289065	-1.115912	0.247908
C54	C	-0.232310	-1.176050	0.174571
C55	C	-0.169094	-1.251153	0.220059
C56	C	-0.162629	-1.266122	0.338890
C57	C	-0.219384	-1.205984	0.412228
H58	H	-0.335864	-1.060313	0.214230
H59	H	-0.237096	-1.164969	0.086604
H60	H	-0.127081	-1.295671	0.165770
H61	H	-0.115830	-1.321721	0.372569
H62	H	-0.214598	-1.217066	0.500195
H63	H	-0.297365	-0.906137	0.385817
C64	C	-0.445173	-0.959099	0.576805
C65	C	-0.508375	-1.034120	0.531299
C66	C	-0.565118	-1.094295	0.604622
C67	C	-0.558659	-1.079450	0.723451
C68	C	-0.495454	-1.004426	0.768963
C69	C	-0.438711	-0.944251	0.695640
H70	H	-0.513159	-1.045112	0.443330
H71	H	-0.611907	-1.149832	0.570931
H72	H	-0.600664	-1.123995	0.777730
H73	H	-0.490670	-0.993434	0.856933
H74	H	-0.391923	-0.888713	0.729332
H75	H	-0.430216	-1.455950	1.071267
