data_functionalizedCrystal
_audit_creation_method	'MofGen! by Chris Wilmer'
_symmetry_space_group_name_H-M	'P1'
_symmetry_Int_Tables_number	1
_symmetry_cell_setting	triclinic
loop_
_symmetry_equiv_pos_as_xyz
  x,y,z
_cell_length_a	25.639239
_cell_length_b	25.639243
_cell_length_c	25.639233
_cell_angle_alpha	90.016007
_cell_angle_beta	89.981253
_cell_angle_gamma	89.958634
loop_
_atom_site_label
_atom_site_type_symbol
_atom_site_fract_x
_atom_site_fract_y
_atom_site_fract_z
Zn1	Zn	-0.208177	-0.799225	-0.295656
Zn2	Zn	0.291823	-0.299225	0.204344
Zn3	Zn	-0.295596	-0.799149	-0.208221
Zn4	Zn	0.204404	-0.299149	0.291779
Zn5	Zn	-0.208180	-0.711801	-0.208230
Zn6	Zn	0.291820	-0.211801	0.291770
Zn7	Zn	-0.295587	-0.711746	-0.295620
Zn8	Zn	0.204413	-0.211746	0.204380
O9	O	-0.251885	-0.755480	-0.251932
O10	O	0.248115	-0.255480	0.248068
O11	O	-0.219775	-0.872380	-0.284069
O12	O	0.280225	-0.372380	0.215931
O13	O	-0.284005	-0.787553	-0.135057
O14	O	0.215995	-0.287553	0.364943
O15	O	-0.135015	-0.723453	-0.219846
O16	O	0.364985	-0.223453	0.280154
O17	O	-0.284002	-0.872324	-0.219831
O18	O	0.215998	-0.372324	0.280169
O19	O	-0.135012	-0.787683	-0.284078
O20	O	0.364988	-0.287683	0.215922
O21	O	-0.219781	-0.723379	-0.135063
O22	O	0.280219	-0.223379	0.364937
O23	O	-0.219773	-0.638629	-0.219811
O24	O	0.280227	-0.138629	0.280189
O25	O	-0.283987	-0.723360	-0.368790
O26	O	0.216013	-0.223360	0.131210
O27	O	-0.283990	-0.638589	-0.284016
O28	O	0.216010	-0.138589	0.215984
O29	O	-0.219767	-0.787630	-0.368817
O30	O	0.280233	-0.287630	0.131183
O31	O	-0.368760	-0.787499	-0.219795
O32	O	0.131240	-0.287499	0.280205
O33	O	-0.368754	-0.723286	-0.284007
O34	O	0.131246	-0.223286	0.215993
C35	C	-0.251881	-0.619638	-0.251911
C36	C	0.248119	-0.119638	0.248089
C37	C	-0.251892	-0.561524	-0.251914
C38	C	0.248108	-0.061524	0.248086
C39	C	-0.218495	-0.201184	-0.285436
C40	C	0.281505	0.298816	0.214564
C41	C	-0.218494	-0.146580	-0.285439
C42	C	0.281506	0.353420	0.214561
O43	O	-0.190089	-0.118363	-0.313915
O44	O	0.309911	0.381637	0.186085
N45	N	-0.251883	-0.119241	-0.251946
N46	N	0.248117	0.380759	0.248054
C47	C	-0.285271	-0.146510	-0.218443
C48	C	0.214729	0.353490	0.281557
O49	O	-0.313670	-0.118242	-0.189954
O50	O	0.186330	0.381758	0.310046
C51	C	-0.285268	-0.201113	-0.218437
C52	C	0.214732	0.298887	0.281563
C53	C	-0.251881	-0.228449	-0.251937
C54	C	0.248119	0.271551	0.248063
C55	C	-0.185110	-0.228520	-0.318933
C56	C	0.314890	0.271480	0.181067
C57	C	-0.185111	-0.283121	-0.318930
C58	C	0.314889	0.216879	0.181070
C59	C	-0.218497	-0.310385	-0.285431
C60	C	0.281503	0.189615	0.214569
C61	C	-0.251882	-0.283049	-0.251934
C62	C	0.248118	0.216951	0.248066
C63	C	-0.318653	-0.228380	-0.184932
C64	C	0.181347	0.271620	0.315068
C65	C	-0.318648	-0.282987	-0.184929
C66	C	0.181352	0.217013	0.315071
C67	C	-0.285260	-0.310323	-0.218429
C68	C	0.214740	0.189677	0.281571
C69	C	-0.285270	-0.364915	-0.218433
C70	C	0.214730	0.135085	0.281567
N71	N	-0.251881	-0.392253	-0.251926
N72	N	0.248119	0.107747	0.248074
C73	C	-0.218495	-0.364989	-0.285425
C74	C	0.281505	0.135011	0.214575
C75	C	-0.285273	-0.031839	-0.218456
C76	C	0.214727	0.468161	0.281544
C77	C	-0.285279	0.022763	-0.218464
C78	C	0.214721	0.522763	0.281536
C79	C	-0.218501	0.022689	-0.285460
C80	C	0.281499	0.522689	0.214540
C81	C	-0.218499	-0.031914	-0.285454
C82	C	0.281501	0.468086	0.214546
C83	C	-0.251884	-0.059178	-0.251950
C84	C	0.248116	0.440822	0.248050
C85	C	-0.218500	-0.479654	-0.285418
C86	C	0.281500	0.020346	0.214582
C87	C	-0.218506	-0.534259	-0.285413
C88	C	0.281494	-0.034259	0.214587
C89	C	-0.285282	-0.534180	-0.218416
C90	C	0.214718	-0.034180	0.281584
C91	C	-0.285278	-0.479580	-0.218422
C92	C	0.214722	0.020420	0.281578
C93	C	-0.251883	-0.452318	-0.251924
C94	C	0.248117	0.047682	0.248076
O95	O	-0.313660	-0.393166	-0.189970
O96	O	0.186340	0.106834	0.310030
O97	O	-0.190095	-0.393263	-0.313905
O98	O	0.309905	0.106737	0.186095
C99	C	-0.387728	-0.755392	-0.251908
C100	C	0.112272	-0.255392	0.248092
C101	C	-0.445842	-0.755403	-0.251915
C102	C	0.054158	-0.255403	0.248085
C103	C	-0.806195	-0.789004	-0.218554
C104	C	-0.306195	-0.289004	0.281446
C105	C	-0.860800	-0.789024	-0.218561
C106	C	-0.360800	-0.289024	0.281439
O107	O	-0.889029	-0.817502	-0.190169
O108	O	-0.389029	-0.317502	0.309831
N109	N	-0.888124	-0.755572	-0.251966
N110	N	-0.388124	-0.255572	0.248034
C111	C	-0.860841	-0.722102	-0.285371
C112	C	-0.360841	-0.222102	0.214629
O113	O	-0.889097	-0.693651	-0.313786
O114	O	-0.389097	-0.193651	0.186214
C115	C	-0.806238	-0.722085	-0.285366
C116	C	-0.306238	-0.222085	0.214634
C117	C	-0.778917	-0.755535	-0.251955
C118	C	-0.278917	-0.255535	0.248045
C119	C	-0.778874	-0.822452	-0.185145
C120	C	-0.278874	-0.322452	0.314855
C121	C	-0.724273	-0.822431	-0.185137
C122	C	-0.224273	-0.322431	0.314863
C123	C	-0.696994	-0.788962	-0.218538
C124	C	-0.196994	-0.288962	0.281462
C125	C	-0.724316	-0.755514	-0.251947
C126	C	-0.224316	-0.255514	0.248053
C127	C	-0.778956	-0.688617	-0.318773
C128	C	-0.278956	-0.188617	0.181227
C129	C	-0.724349	-0.688603	-0.318766
C130	C	-0.224349	-0.188603	0.181234
C131	C	-0.697028	-0.722053	-0.285354
C132	C	-0.197028	-0.222053	0.214646
C133	C	-0.642437	-0.722024	-0.285341
C134	C	-0.142437	-0.222024	0.214659
N135	N	-0.615112	-0.755475	-0.251935
N136	N	-0.115112	-0.255475	0.248065
C137	C	-0.642391	-0.788944	-0.218534
C138	C	-0.142391	-0.288944	0.281466
C139	C	-0.975512	-0.722141	-0.285379
C140	C	-0.475512	-0.222141	0.214621
C141	C	-1.030114	-0.722155	-0.285382
C142	C	-0.530114	-0.222155	0.214618
C143	C	-1.030069	-0.789078	-0.218572
C144	C	-0.530069	-0.289078	0.281428
C145	C	-0.975466	-0.789061	-0.218567
C146	C	-0.475466	-0.289061	0.281433
C147	C	-0.948188	-0.755593	-0.251973
C148	C	-0.448188	-0.255593	0.248027
C149	C	-0.527726	-0.788897	-0.218520
C150	C	-0.027726	-0.288897	0.281480
C151	C	-0.473121	-0.788872	-0.218514
C152	C	0.026879	-0.288872	0.281486
C153	C	-0.473171	-0.721951	-0.285326
C154	C	0.026829	-0.221951	0.214674
C155	C	-0.527771	-0.721974	-0.285330
C156	C	-0.027771	-0.221974	0.214670
C157	C	-0.555048	-0.755452	-0.251926
C158	C	-0.055048	-0.255452	0.248074
O159	O	-0.614173	-0.693562	-0.313719
O160	O	-0.114173	-0.193562	0.186281
O161	O	-0.614129	-0.817396	-0.190128
O162	O	-0.114129	-0.317396	0.309872
C163	C	-0.115512	-0.755583	-0.251967
C164	C	0.384488	-0.255583	0.248033
C165	C	-0.057398	-0.755627	-0.251982
C166	C	0.442602	-0.255627	0.248018
C167	C	-0.251876	-0.755497	-0.388305
C168	C	0.248124	-0.255497	0.111695
C169	C	-0.251872	-0.755504	-0.446419
C170	C	0.248128	-0.255504	0.053581
C171	C	-0.251889	0.108147	-0.251953
C172	C	0.248111	0.608147	0.248047
C173	C	-0.251890	0.050033	-0.251961
C174	C	0.248110	0.550033	0.248039
C175	C	-0.218333	-0.789012	-0.806802
C176	C	0.281667	-0.289012	-0.306802
C177	C	-0.218319	-0.789019	-0.861406
C178	C	0.281681	-0.289019	-0.361406
O179	O	-0.189865	-0.817466	-0.889659
O180	O	0.310135	-0.317466	-0.389659
N181	N	-0.251749	-0.755562	-0.888702
N182	N	0.248251	-0.255562	-0.388702
C183	C	-0.285193	-0.722093	-0.861390
C184	C	0.214807	-0.222093	-0.361390
O185	O	-0.313627	-0.693636	-0.889621
O186	O	0.186373	-0.193636	-0.389621
C187	C	-0.285204	-0.722084	-0.806787
C188	C	0.214796	-0.222084	-0.306787
C189	C	-0.251775	-0.755547	-0.779494
C190	C	0.248225	-0.255547	-0.279494
C191	C	-0.184907	-0.822472	-0.779509
C192	C	0.315093	-0.322472	-0.279509
C193	C	-0.184922	-0.822466	-0.724908
C194	C	0.315078	-0.322466	-0.224908
C195	C	-0.218364	-0.789001	-0.697600
C196	C	0.281636	-0.289001	-0.197600
C197	C	-0.251791	-0.755541	-0.724893
C198	C	0.248209	-0.255541	-0.224893
C199	C	-0.318645	-0.688613	-0.779476
C200	C	0.181355	-0.188613	-0.279476
C201	C	-0.318653	-0.688607	-0.724869
C202	C	0.181347	-0.188607	-0.224869
C203	C	-0.285224	-0.722069	-0.697576
C204	C	0.214776	-0.222069	-0.197576
C205	C	-0.285248	-0.722070	-0.642985
C206	C	0.214752	-0.222070	-0.142985
N207	N	-0.251817	-0.755526	-0.615689
N208	N	0.248183	-0.255526	-0.115689
C209	C	-0.218375	-0.788992	-0.642997
C210	C	0.281625	-0.288992	-0.142997
C211	C	-0.285166	-0.722113	-0.976061
C212	C	0.214834	-0.222113	-0.476061
C213	C	-0.285157	-0.722124	-1.030663
C214	C	0.214843	-0.222124	-0.530663
C215	C	-0.218282	-0.789049	-1.030675
C216	C	0.281718	-0.289049	-0.530675
C217	C	-0.218294	-0.789041	-0.976072
C218	C	0.281706	-0.289041	-0.476072
C219	C	-0.251735	-0.755570	-0.948765
C220	C	0.248265	-0.255570	-0.448765
C221	C	-0.218410	-0.788977	-0.528332
C222	C	0.281590	-0.288977	-0.028332
C223	C	-0.218430	-0.788970	-0.473727
C224	C	0.281570	-0.288970	0.026273
C225	C	-0.285303	-0.722043	-0.473719
C226	C	0.214697	-0.222043	0.026281
C227	C	-0.285285	-0.722052	-0.528320
C228	C	0.214715	-0.222052	-0.028320
C229	C	-0.251835	-0.755521	-0.555625
C230	C	0.248165	-0.255521	-0.055625
O231	O	-0.313686	-0.693635	-0.614697
O232	O	0.186314	-0.193635	-0.114697
O233	O	-0.189942	-0.817439	-0.614759
O234	O	0.310058	-0.317439	-0.114759
C235	C	-0.251857	-0.755494	-0.116089
C236	C	0.248143	-0.255494	0.383911
C237	C	-0.251713	-0.755588	-0.057975
C238	C	0.248287	-0.255588	0.442025
H239	H	-0.312465	-0.556389	-0.191143
H240	H	0.187535	-0.056389	0.308857
N241	N	-0.696495	-0.654415	-0.352898
N242	N	-0.196495	-0.154415	0.147102
N243	N	-0.720900	-0.624555	-0.382725
N244	N	-0.220900	-0.124555	0.117275
H245	H	-0.701229	-0.600409	-0.406830
H246	H	-0.201229	-0.100409	0.093170
N247	N	-0.352744	-0.310836	-0.150697
N248	N	0.147256	0.189164	0.349303
N249	N	-0.349199	-0.304723	-0.102460
N250	N	0.150801	0.195277	0.397540
H251	H	-0.373279	-0.324391	-0.078283
H252	H	0.126721	0.175609	0.421717
H253	H	-0.191310	-0.054168	-0.312732
H254	H	0.308690	0.445832	0.187268
H255	H	-0.312532	-0.694798	-0.451475
H256	H	0.187468	-0.194798	0.048525
N257	N	-0.445221	-0.823042	-0.184377
N258	N	0.054779	-0.323042	0.315623
N259	N	-0.469588	-0.852922	-0.154558
N260	N	0.030412	-0.352922	0.345442
H261	H	-0.449886	-0.877055	-0.130449
H262	H	0.050114	-0.377055	0.369551
N263	N	-0.184401	0.050553	-0.319677
N264	N	0.315599	0.550553	0.180323
N265	N	-0.184411	0.099306	-0.319672
N266	N	0.315589	0.599306	0.180328
H267	H	-0.160330	0.118987	-0.343837
H268	H	0.339670	0.618987	0.156163
H269	H	-0.345840	-0.206133	-0.157653
H270	H	0.154160	0.293867	0.342347
H271	H	-0.191318	-0.556514	-0.312695
H272	H	0.308682	-0.056514	0.187305
N273	N	-0.319395	0.050675	-0.184250
N274	N	0.180605	0.550675	0.315750
N275	N	-0.349202	0.026318	-0.154346
N276	N	0.150798	0.526318	0.345654
H277	H	-0.373296	0.046029	-0.130179
H278	H	0.126704	0.546029	0.369821
H279	H	-0.312400	-0.694857	-0.953831
H280	H	0.187600	-0.194857	-0.453831
N281	N	-0.184273	-0.823151	-0.445857
N282	N	0.315727	-0.323151	0.054143
N283	N	-0.136026	-0.819718	-0.451962
N284	N	0.363974	-0.319718	0.048038
H285	H	-0.111902	-0.843857	-0.432282
H286	H	0.388098	-0.343857	0.067718
N287	N	-0.319383	-0.059678	-0.184228
N288	N	0.180617	0.440322	0.315772
N289	N	-0.349189	-0.035257	-0.154327
N290	N	0.150811	0.464743	0.345673
H291	H	-0.373279	-0.054915	-0.130152
H292	H	0.126721	0.445085	0.369848
N293	N	-0.184402	-0.451809	-0.319650
N294	N	0.315598	0.048191	0.180350
N295	N	-0.202852	-0.421342	-0.352936
N296	N	0.297148	0.078658	0.147064
H297	H	-0.178774	-0.401676	-0.377116
H298	H	0.321226	0.098324	0.122884
H299	H	-0.312511	-0.694809	-0.550543
H300	H	0.187489	-0.194809	-0.050543
N301	N	-0.445291	-0.687772	-0.319442
N302	N	0.054709	-0.187772	0.180558
N303	N	-0.414785	-0.706142	-0.352768
N304	N	0.085215	-0.206142	0.147232
H305	H	-0.395092	-0.682006	-0.376865
H306	H	0.104908	-0.182006	0.123135
H307	H	-0.702031	-0.849670	-0.157932
H308	H	-0.202031	-0.349670	0.342068
H309	H	-0.157923	-0.305373	-0.346208
H310	H	0.342077	0.194627	0.153792
N311	N	-0.319390	-0.451662	-0.184206
N312	N	0.180610	0.048338	0.315794
N313	N	-0.349199	-0.476014	-0.154301
N314	N	0.150801	0.023986	0.345699
H315	H	-0.373289	-0.456301	-0.130132
H316	H	0.126711	0.043699	0.369868
N317	N	-0.555584	-0.823082	-0.184388
N318	N	-0.055584	-0.323082	0.315612
N319	N	-0.586083	-0.804717	-0.151055
N320	N	-0.086083	-0.304717	0.348945
H321	H	-0.605758	-0.828856	-0.126946
H322	H	-0.105758	-0.328856	0.373054
H323	H	-0.550018	-0.694738	-0.312538
H324	H	-0.050018	-0.194738	0.187462
N325	N	-0.806725	-0.856649	-0.151023
N326	N	-0.306725	-0.356649	0.348977
N327	N	-0.782314	-0.886509	-0.121201
N328	N	-0.282314	-0.386509	0.378799
H329	H	-0.801980	-0.910661	-0.097097
H330	H	-0.301980	-0.410661	0.402903
N331	N	-0.947568	-0.823232	-0.184433
N332	N	-0.447568	-0.323232	0.315567
N333	N	-0.971937	-0.853108	-0.154613
N334	N	-0.471937	-0.353108	0.345387
H335	H	-0.952237	-0.877243	-0.130504
H336	H	-0.452237	-0.377243	0.369496
N337	N	-0.150997	-0.200684	-0.353155
N338	N	0.349003	0.299316	0.146845
N339	N	-0.121193	-0.225108	-0.383055
N340	N	0.378807	0.274892	0.116945
H341	H	-0.097100	-0.205452	-0.407229
H342	H	0.402900	0.294548	0.092771
N343	N	-0.319307	-0.687939	-1.058530
N344	N	0.180693	-0.187939	-0.558530
N345	N	-0.315838	-0.639697	-1.052418
N346	N	0.184162	-0.139697	-0.552418
H347	H	-0.339956	-0.615550	-1.072097
H348	H	0.160044	-0.115550	-0.572097
N349	N	-1.057948	-0.823263	-0.184454
N350	N	-0.557948	-0.323263	0.315546
N351	N	-1.106700	-0.823271	-0.184468
N352	N	-0.606700	-0.323271	0.315532
H353	H	-1.126391	-0.847411	-0.160374
H354	H	-0.626391	-0.347411	0.339626
H355	H	-1.052355	-0.694912	-0.312584
H356	H	-0.552355	-0.194912	0.187416
H357	H	-0.157671	-0.849724	-0.801737
H358	H	0.342329	-0.349724	-0.301737
N359	N	-0.184144	-0.823225	-0.948204
N360	N	0.315856	-0.323225	-0.448204
N361	N	-0.154292	-0.853103	-0.972599
N362	N	0.345708	-0.353103	-0.472599
H363	H	-0.130171	-0.877247	-0.952919
H364	H	0.369829	-0.377247	-0.452919
H365	H	-0.953305	-0.694883	-0.312581
H366	H	-0.453305	-0.194883	0.187419
H367	H	-0.801192	-0.661376	-0.345978
H368	H	-0.301192	-0.161376	0.154022
N369	N	-0.184236	-0.823165	-0.556210
N370	N	0.315764	-0.323165	-0.056210
N371	N	-0.154395	-0.853033	-0.531826
N372	N	0.345605	-0.353033	-0.031826
H373	H	-0.130260	-0.877180	-0.551514
H374	H	0.369740	-0.377180	-0.051514
N375	N	-0.150772	-0.856651	-0.697042
N376	N	0.349228	-0.356651	-0.197042
N377	N	-0.120918	-0.886526	-0.721439
N378	N	0.379082	-0.386526	-0.221439
H379	H	-0.096797	-0.910671	-0.701762
H380	H	0.403203	-0.410671	-0.201762
H381	H	-0.191051	-0.816298	-1.052919
H382	H	0.308949	-0.316298	-0.552919
H383	H	-0.345866	-0.661364	-0.801688
H384	H	0.154134	-0.161364	-0.301688
N385	N	-0.352816	-0.654425	-0.696969
N386	N	0.147184	-0.154425	-0.196969
N387	N	-0.352828	-0.654422	-0.648216
N388	N	0.147172	-0.154422	-0.148216
H389	H	-0.376956	-0.630282	-0.628511
H390	H	0.123044	-0.130282	-0.128511
