data_functionalizedCrystal
_audit_creation_method	'MofGen! by Chris Wilmer'
_symmetry_space_group_name_H-M	'P1'
_symmetry_Int_Tables_number	1
_symmetry_cell_setting	triclinic
loop_
_symmetry_equiv_pos_as_xyz
  x,y,z
_cell_length_a	10.654562
_cell_length_b	19.188924
_cell_length_c	9.730223
_cell_angle_alpha	89.996615
_cell_angle_beta	89.996961
_cell_angle_gamma	83.816034
loop_
_atom_site_label
_atom_site_type_symbol
_atom_site_fract_x
_atom_site_fract_y
_atom_site_fract_z
O1	O	1.665745	0.098101	-0.114387
O2	O	1.300070	0.107435	-0.114371
O3	O	1.493464	0.001181	-0.114363
O4	O	1.472350	0.204355	-0.114395
O5	O	1.493462	0.001184	0.114217
O6	O	1.300068	0.107437	0.114209
O7	O	1.665742	0.098104	0.114193
Zn8	Zn	1.482905	0.102771	0.150493
Zn9	Zn	1.482908	0.102768	-0.150671
O10	O	1.472348	0.204357	0.114185
C11	C	1.253286	0.106749	-0.000079
C12	C	1.113887	0.104693	-0.000072
C13	C	1.048375	0.103736	0.124517
C14	C	0.917394	0.101809	0.124494
C15	C	0.917447	0.101801	-0.124716
C16	C	1.048427	0.103722	-0.124692
C17	C	1.048343	0.103743	0.268397
C18	C	0.917362	0.101817	0.268374
C19	C	1.492781	-0.024833	-0.000072
C20	C	1.490733	-0.102351	-0.000068
C21	C	1.489778	-0.138758	-0.124667
C22	C	1.487836	-0.211593	-0.124678
C23	C	1.486873	-0.248021	-0.000082
C24	C	1.487821	-0.211605	0.124534
C25	C	1.489751	-0.138770	0.124541
N26	N	1.555305	-0.367234	0.092649
N27	N	1.553475	-0.436424	0.092634
C28	C	1.481057	-0.467468	-0.000095
N29	N	1.410554	-0.426709	-0.092829
N30	N	1.412390	-0.357513	-0.092818
C31	C	1.484780	-0.326998	-0.000075
C32	C	1.477994	-0.582851	-0.124714
C33	C	1.476044	-0.655688	-0.124719
C34	C	1.476042	-0.655699	0.124496
C35	C	1.477980	-0.582863	0.124498
C36	C	1.478961	-0.546444	-0.000111
C37	C	1.712527	0.098790	-0.000103
C38	C	1.851925	0.100846	-0.000118
C39	C	1.473031	0.230372	-0.000109
C40	C	1.475080	0.307890	-0.000122
N41	N	1.482912	0.102773	0.356029
N42	N	1.482911	0.102760	-0.356207
C43	C	1.568568	0.055740	0.427959
C44	C	1.568565	0.055732	0.571842
C45	C	1.397245	0.149795	0.571853
C46	C	1.397243	0.149800	0.427973
C47	C	1.667483	0.001435	0.427953
C48	C	1.667480	0.001427	0.571836
H49	H	1.076838	0.154663	0.313032
H50	H	1.095626	0.055494	0.323657
H51	H	0.888853	0.050899	0.313028
H52	H	1.475260	-0.685328	-0.226187
C53	C	1.372228	-0.493641	0.269091
C54	C	1.479045	-0.542843	0.261466
H55	H	1.372882	-0.468939	0.353659
H56	H	1.373088	-0.461527	0.194898
H57	H	1.298269	-0.517093	0.263910
H58	H	1.553004	-0.519391	0.266636
H59	H	1.478196	-0.574962	0.335679
C60	C	1.481039	-0.471199	-0.235361
C61	C	1.479107	-0.542815	-0.261678
H62	H	1.481748	-0.446487	-0.319919
H63	H	1.408134	-0.454287	-0.184202
H64	H	1.554561	-0.464254	-0.184133
H65	H	1.405580	-0.549761	-0.312898
H66	H	1.552020	-0.559732	-0.312859
H67	H	0.864133	0.101011	-0.226178
C68	C	0.945745	0.208394	0.388130
C69	C	0.853482	0.166957	0.342908
H70	H	0.906305	0.248609	0.434132
H71	H	1.001626	0.182027	0.449499
H72	H	0.991862	0.222658	0.311418
H73	H	0.807371	0.152689	0.419622
H74	H	0.797579	0.193329	0.281535
H75	H	1.490574	-0.109110	-0.226134
C76	C	1.487981	-0.204270	-0.371016
C77	C	1.486738	-0.251619	-0.261647
H78	H	1.487295	-0.228980	-0.455572
H79	H	1.415540	-0.170886	-0.365801
H80	H	1.561967	-0.180841	-0.365856
H81	H	1.412747	-0.275045	-0.266800
H82	H	1.559187	-0.285016	-0.266863
H83	H	1.763737	0.013392	0.610880
C84	C	1.484873	-0.323263	0.235176
C85	C	1.486763	-0.251644	0.261493
H86	H	1.484221	-0.347979	0.319733
H87	H	1.411352	-0.330224	0.183985
H88	H	1.557780	-0.340158	0.183978
H89	H	1.413851	-0.234747	0.312682
H90	H	1.560292	-0.244678	0.312705
H91	H	1.327495	0.188083	0.630445
C92	C	1.473035	-0.767347	0.235142
C93	C	1.474948	-0.695729	0.261457
H94	H	1.472352	-0.792061	0.319700
H95	H	1.399521	-0.774300	0.183931
H96	H	1.545948	-0.784253	0.183966
H97	H	1.402029	-0.678823	0.312625
H98	H	1.548470	-0.688772	0.312690
H99	H	1.490523	-0.109128	0.226007
C100	C	1.227894	0.242771	0.442443
C101	C	1.303079	0.201496	0.348907
H102	H	1.169764	0.274689	0.393627
H103	H	1.182900	0.213468	0.498561
H104	H	1.280030	0.268158	0.498560
H105	H	1.250944	0.176105	0.292796
H106	H	1.348076	0.230802	0.292765
C107	C	1.623423	-0.114944	0.487164
C108	C	1.640061	-0.071004	0.375230
H109	H	1.606486	-0.159662	0.454612
H110	H	1.697980	-0.119873	0.541385
H111	H	1.554503	-0.095101	0.541396
H112	H	1.708987	-0.090845	0.321004
H113	H	1.565496	-0.066077	0.320987
C114	C	1.870613	0.039458	0.474855
C115	C	1.790090	0.024388	0.367685
H116	H	1.946306	0.053624	0.437644
H117	H	1.830176	0.076165	0.529792
H118	H	1.889983	-0.001202	0.529797
H119	H	1.770712	0.065049	0.312749
H120	H	1.830534	-0.012323	0.312725
H121	H	1.638042	-0.049286	0.616461
H122	H	1.101764	0.104491	-0.226144
