data_functionalizedCrystal
_audit_creation_method	'MofGen! by Chris Wilmer'
_symmetry_space_group_name_H-M	'P1'
_symmetry_Int_Tables_number	1
_symmetry_cell_setting	triclinic
loop_
_symmetry_equiv_pos_as_xyz
  x,y,z
_cell_length_a	14.853577
_cell_length_b	16.992695
_cell_length_c	16.053802
_cell_angle_alpha	87.258926
_cell_angle_beta	87.415252
_cell_angle_gamma	92.846400
loop_
_atom_site_label
_atom_site_type_symbol
_atom_site_fract_x
_atom_site_fract_y
_atom_site_fract_z
O1	O	1.207156	-0.099119	-0.069426
O2	O	1.707156	0.400881	0.430574
O3	O	0.945559	-0.111307	-0.069429
O4	O	1.445559	0.388693	0.430571
O5	O	1.075308	0.008930	-0.069421
O6	O	1.575308	0.508930	0.430579
O7	O	1.077406	-0.219357	-0.069434
O8	O	1.577406	0.280643	0.430566
O9	O	1.068165	0.002340	0.069438
O10	O	1.568165	0.502340	0.569438
O11	O	0.938415	-0.117898	0.069430
O12	O	1.438415	0.382102	0.569430
O13	O	1.200012	-0.105710	0.069432
O14	O	1.700012	0.394290	0.569432
Zn15	Zn	1.068079	-0.112850	0.091478
Zn16	Zn	1.568079	0.387150	0.591478
Zn17	Zn	1.077492	-0.104167	-0.091474
Zn18	Zn	1.577492	0.395833	0.408526
O19	O	1.070263	-0.225947	0.069424
O20	O	1.570263	0.274053	0.569424
C21	C	0.908359	-0.114049	0.000000
C22	C	1.408359	0.385951	0.500000
C23	C	0.808159	-0.112390	-0.000001
C24	C	1.308159	0.387610	0.499999
C25	C	1.069038	0.034851	0.000008
C26	C	1.569038	0.534851	0.500008
C27	C	1.060988	0.121904	0.000008
C28	C	1.560988	0.621904	0.500008
C29	C	1.237212	-0.102968	0.000001
C30	C	1.737212	0.397032	0.500001
C31	C	1.337413	-0.104627	-0.000003
C32	C	1.837413	0.395373	0.499997
C33	C	1.764979	-0.108020	-0.075696
C34	C	2.264979	0.391980	0.424304
C35	C	1.757186	-0.115206	0.075693
C36	C	2.257186	0.384794	0.575693
C37	C	1.663042	-0.113655	0.075694
C38	C	2.163042	0.386345	0.575694
C39	C	1.619862	-0.109285	-0.000001
C40	C	2.119862	0.390715	0.499999
C41	C	1.670827	-0.106467	-0.075697
C42	C	2.170827	0.393533	0.424303
C43	C	1.612071	-0.116465	0.151389
C44	C	2.112071	0.383535	0.651389
C45	C	1.517921	-0.114913	0.151393
C46	C	2.017921	0.385087	0.651393
C47	C	1.474739	-0.110549	0.075696
C48	C	1.974739	0.389451	0.575696
C49	C	1.525709	-0.107732	-0.000003
C50	C	2.025709	0.392268	0.499997
C51	C	1.482530	-0.103362	-0.075698
C52	C	1.982530	0.396638	0.424302
C53	C	1.533498	-0.100550	-0.151398
C54	C	2.033498	0.399450	0.348602
C55	C	1.627645	-0.102103	-0.151393
C56	C	2.127645	0.397897	0.348607
C57	C	1.380592	-0.108997	0.075692
C58	C	1.880592	0.391003	0.575692
C59	C	1.388377	-0.101809	-0.075699
C60	C	1.888377	0.398191	0.424301
C61	C	1.076533	-0.251868	-0.000007
C62	C	1.576533	0.248132	0.499993
C63	C	1.084583	-0.338920	-0.000012
C64	C	1.584583	0.161080	0.499988
N65	N	1.061662	-0.118776	0.216338
N66	N	1.561662	0.381224	0.716338
C67	C	1.138663	0.172057	0.000010
C68	C	1.638663	0.672057	0.500010
C69	C	1.131094	0.253853	0.000002
C70	C	1.631094	0.753853	0.500002
C71	C	1.045849	0.285493	-0.000002
C72	C	1.545849	0.785493	0.499998
C73	C	0.968168	0.235333	-0.000006
C74	C	1.468168	0.735333	0.499994
C75	C	0.975738	0.153540	-0.000004
C76	C	1.475738	0.653540	0.499996
C77	C	1.014473	0.529126	-0.000014
C78	C	1.514473	1.029126	0.499986
C79	C	1.006908	0.610926	-0.000013
C80	C	1.506908	1.110926	0.499987
C81	C	1.169835	0.629440	-0.000007
C82	C	1.669835	1.129440	0.499993
C83	C	1.177398	0.547644	-0.000000
C84	C	1.677398	1.047644	0.500000
C85	C	1.099717	0.497492	-0.000009
C86	C	1.599717	0.997492	0.499991
N87	N	1.038110	0.369101	-0.000008
N88	N	1.538110	0.869101	0.499992
N89	N	1.107458	0.413886	-0.000009
N90	N	1.607458	0.913886	0.499991
N91	N	1.083915	-0.098234	-0.216334
N92	N	1.583915	0.401766	0.283666
C93	C	1.116894	-0.067633	0.260035
C94	C	1.616894	0.432367	0.760035
C95	C	1.112414	-0.071786	0.347441
C96	C	1.612414	0.428214	0.847441
C97	C	1.052707	-0.127086	0.391149
C98	C	1.552707	0.372914	0.891149
C99	C	0.997469	-0.178231	0.347446
C100	C	1.497469	0.321769	0.847446
C101	C	1.001945	-0.174074	0.260041
C102	C	1.501945	0.325926	0.760041
C103	C	1.033154	-0.145223	0.652557
C104	C	1.533154	0.354777	1.152557
C105	C	1.028684	-0.149377	0.739968
C106	C	1.528684	0.350623	1.239968
C107	C	1.143628	-0.042931	0.739958
C108	C	1.643628	0.457069	1.239958
C109	C	1.148103	-0.038782	0.652552
C110	C	1.648103	0.461218	1.152552
C111	C	1.092862	-0.089924	0.608856
C112	C	1.592862	0.410076	1.108856
N113	N	1.048128	-0.131334	0.480493
N114	N	1.548128	0.368666	0.980493
N115	N	1.097436	-0.085672	0.519514
N116	N	1.597436	0.414328	1.019514
H117	H	1.353227	-0.098255	-0.137340
H118	H	1.853227	0.401745	0.362660
H119	H	1.669152	-0.099812	-0.213024
H120	H	2.169152	0.400188	0.286976
H121	H	1.792349	-0.118757	0.137321
H122	H	2.292349	0.381243	0.637321
N123	N	0.933074	-0.237876	0.394591
N124	N	1.433074	0.262124	0.894591
H125	H	0.948242	-0.292824	0.379365
H126	H	1.448242	0.207176	0.879365
H127	H	0.869237	-0.227948	0.379380
H128	H	1.369237	0.272052	0.879380
N129	N	0.973578	-0.200394	0.605447
N130	N	1.473578	0.299606	1.105447
H131	H	1.012385	-0.233447	0.569168
H132	H	1.512385	0.266553	1.069168
H133	H	0.933359	-0.168591	0.569246
H134	H	1.433359	0.331409	1.069246
N135	N	0.942370	-0.229231	0.212906
N136	N	1.442370	0.270769	0.712906
H137	H	0.903866	-0.264895	0.253855
H138	H	1.403866	0.235105	0.753855
H139	H	0.981235	-0.262230	0.176624
H140	H	1.481235	0.237770	0.676624
H141	H	1.196721	0.006248	0.616967
H142	H	1.696721	0.506248	1.116967
N143	N	0.876223	0.269455	-0.000016
N144	N	1.376223	0.769455	0.499984
H145	H	0.883212	0.328881	-0.000014
H146	H	1.383212	0.828881	0.499986
H147	H	0.839325	0.248672	0.051460
H148	H	1.339325	0.748672	0.551460
N149	N	1.203203	0.012226	0.787090
N150	N	1.703203	0.512226	1.287090
H151	H	1.164395	0.045280	0.823368
H152	H	1.664395	0.545280	1.323368
H153	H	1.241697	0.047838	0.746086
H154	H	1.741697	0.547838	1.246086
N155	N	1.269348	0.513532	0.000002
N156	N	1.769348	1.013532	0.500002
H157	H	1.306290	0.534258	-0.051474
H158	H	1.806290	1.034258	0.448526
H159	H	1.262291	0.454110	0.000036
H160	H	1.762291	0.954110	0.500036
H161	H	1.806481	-0.105734	-0.137329
H162	H	2.306481	0.394266	0.362671
N163	N	1.181277	-0.007973	0.212899
N164	N	1.681277	0.492027	0.712899
H165	H	1.175731	-0.013095	0.150897
H166	H	1.675731	0.486905	0.650897
H167	H	1.245112	-0.017849	0.228157
H168	H	1.745112	0.482151	0.728157
N169	N	0.914959	0.645051	-0.000019
N170	N	1.414959	1.145051	0.499981
H171	H	0.883315	0.629215	-0.051498
H172	H	1.383315	1.129215	0.448502
H173	H	0.922029	0.704470	0.000017
H174	H	1.422029	1.204470	0.500017
H175	H	1.194346	0.294685	0.000005
H176	H	1.694346	0.794685	0.500005
H177	H	1.647235	-0.120015	0.213015
H178	H	2.147235	0.379985	0.713015
H179	H	1.498329	-0.096988	-0.213029
H180	H	1.998329	0.403012	0.286971
N181	N	0.964292	-0.209032	0.787113
N182	N	1.464292	0.290968	1.287113
H183	H	0.929977	-0.240802	0.746170
H184	H	1.429977	0.259198	1.246170
H185	H	0.920418	-0.180676	0.823400
H186	H	1.420418	0.319324	1.323400
H187	H	1.339098	-0.111294	0.137326
H188	H	1.839098	0.388706	0.637326
N189	N	1.253610	0.683538	0.000001
N190	N	1.753610	1.183538	0.500001
H191	H	1.256751	0.720326	-0.051475
H192	H	1.756751	1.220326	0.448525
H193	H	1.308714	0.651028	0.000035
H194	H	1.808714	1.151028	0.500035
H195	H	0.951219	0.488301	-0.000021
H196	H	1.451219	0.988301	0.499979
H197	H	1.208079	0.146302	0.000018
H198	H	1.708079	0.646302	0.500018
N199	N	1.462951	-0.117947	0.233035
N200	N	1.962951	0.382053	0.733035
H201	H	1.504633	-0.120403	0.280985
H202	H	2.004633	0.379597	0.780985
H203	H	1.420353	-0.166325	0.236580
H204	H	1.920353	0.333675	0.736580
H205	H	0.912486	0.112705	-0.000006
H206	H	1.412486	0.612705	0.499994
N207	N	1.172018	-0.016652	0.394573
N208	N	1.672018	0.483348	0.894573
H209	H	1.210536	0.018998	0.353622
H210	H	1.710536	0.518998	0.853622
H211	H	1.212165	-0.048495	0.430808
H212	H	1.712165	0.451505	0.930808
