data_functionalizedCrystal
_audit_creation_method	'MofGen! by Chris Wilmer'
_symmetry_space_group_name_H-M	'P1'
_symmetry_Int_Tables_number	1
_symmetry_cell_setting	triclinic
loop_
_symmetry_equiv_pos_as_xyz
  x,y,z
_cell_length_a	29.839131
_cell_length_b	19.805407
_cell_length_c	19.805399
_cell_angle_alpha	89.989546
_cell_angle_beta	89.969027
_cell_angle_gamma	90.047642
loop_
_atom_site_label
_atom_site_type_symbol
_atom_site_fract_x
_atom_site_fract_y
_atom_site_fract_z
Zn1	Zn	-0.178783	1.034647	-0.382594
Zn2	Zn	-0.253912	1.034538	-0.269402
Zn3	Zn	-0.178805	0.921467	-0.269431
Zn4	Zn	-0.253895	0.921396	-0.382561
O5	O	-0.216349	0.978012	-0.325997
O6	O	-0.188747	1.129349	-0.367580
O7	O	-0.243966	1.019523	-0.174689
O8	O	-0.115935	0.936556	-0.284469
O9	O	-0.243944	1.129269	-0.284419
O10	O	-0.115919	1.019709	-0.367609
O11	O	-0.188785	0.936450	-0.174711
O12	O	-0.188768	0.826741	-0.284437
O13	O	-0.243914	0.936435	-0.477282
O14	O	-0.243936	0.826689	-0.367553
O15	O	-0.188730	1.019640	-0.477306
O16	O	-0.316777	1.019453	-0.284387
O17	O	-0.316764	0.936329	-0.367525
C18	C	-0.333072	0.977890	-0.325964
C19	C	-0.383006	0.977899	-0.325972
C20	C	-0.216353	0.802156	-0.325995
C21	C	-0.216366	0.726924	-0.326010
C22	C	-0.216318	0.978042	-0.502540
C23	C	-0.216304	0.978054	-0.577772
C24	C	-0.692643	1.021374	-0.282771
C25	C	-0.880316	1.021457	-0.282797
O26	O	-0.904576	1.058324	-0.246040
N27	N	-0.903791	0.978152	-0.326048
C28	C	-0.880344	0.934826	-0.369299
O29	O	-0.904617	0.898000	-0.406093
C30	C	-0.692672	0.934747	-0.369276
C31	C	-0.669200	0.978050	-0.326017
C32	C	-0.669171	1.064674	-0.239516
C33	C	-0.622256	1.064650	-0.239507
C34	C	-0.598812	1.021326	-0.282753
C35	C	-0.622285	0.978026	-0.326008
C36	C	-0.669226	0.891425	-0.412530
C37	C	-0.622305	0.891410	-0.412521
C38	C	-0.598833	0.934713	-0.369262
C39	C	-0.551926	0.934678	-0.369246
N40	N	-0.528451	0.977983	-0.325994
C41	C	-0.551895	1.021307	-0.282748
C42	C	-0.978875	0.934870	-0.369308
C43	C	-1.025793	0.934889	-0.369313
C44	C	-1.025762	1.021521	-0.282811
C45	C	-0.978843	1.021498	-0.282803
C46	C	-0.955400	0.978175	-0.326056
C47	C	-0.453369	1.021253	-0.282733
C48	C	-0.406449	1.021223	-0.282726
C49	C	-0.406485	0.934594	-0.369230
C50	C	-0.453400	0.934621	-0.369234
C51	C	-0.476841	0.977956	-0.325984
O52	O	-0.527637	0.897836	-0.405989
O53	O	-0.527614	1.058139	-0.245971
C54	C	-0.739559	1.021398	-0.282779
C55	C	-0.763031	0.978098	-0.326034
C56	C	-0.739588	0.934774	-0.369281
C57	C	-0.809949	0.978117	-0.326040
C58	C	-0.833392	1.021441	-0.282793
C59	C	-0.809918	1.064746	-0.239542
C60	C	-0.763002	1.064722	-0.239533
C61	C	-0.763062	0.891469	-0.412532
C62	C	-0.809978	0.891496	-0.412537
C63	C	-0.833421	0.934820	-0.369290
C64	C	-0.099171	0.978153	-0.326046
C65	C	-0.049236	0.978213	-0.326066
C66	C	-0.216345	1.154555	-0.326000
C67	C	-0.216344	1.229787	-0.326001
C68	C	-0.187606	1.265174	-0.369298
C69	C	-0.187611	1.335862	-0.369302
C70	C	-0.216350	1.371162	-0.326005
C71	C	-0.245091	1.335770	-0.282707
C72	C	-0.245088	1.265083	-0.282706
C73	C	-0.245102	1.620843	-0.282707
C74	C	-0.245101	1.691535	-0.282710
C75	C	-0.187624	1.691623	-0.369303
C76	C	-0.187621	1.620935	-0.369303
C77	C	-0.216363	1.585550	-0.326007
C78	C	-0.216359	1.508901	-0.326004
C79	C	-0.216353	1.447809	-0.326005
C80	C	-0.187569	0.934811	-0.613127
C81	C	-0.187560	0.934820	-0.683815
C82	C	-0.216285	0.978077	-0.719148
C83	C	-0.245024	1.021322	-0.683788
C84	C	-0.245034	1.021309	-0.613101
C85	C	-0.244982	1.021376	-0.968861
C86	C	-0.244968	1.021387	-1.039553
C87	C	-0.187508	0.934887	-1.039576
C88	C	-0.187518	0.934874	-0.968889
C89	C	-0.216258	0.978116	-0.933535
C90	C	-0.216268	0.978105	-0.856887
C91	C	-0.216273	0.978092	-0.795795
C92	C	-0.216348	0.978021	-0.150141
C93	C	-0.216234	0.978140	-0.074910
H94	H	-0.387340	1.056486	-0.247497
H95	H	-0.603221	0.856132	-0.447746
O96	O	-0.273053	1.369954	-0.240628
C97	C	-0.298410	1.323559	-0.202403
H98	H	-0.299958	1.273174	-0.230126
H99	H	-0.333809	1.343935	-0.195171
H100	H	-0.281969	1.316054	-0.151003
H101	H	-0.387390	0.899318	-0.404438
H102	H	-0.164176	0.899590	-0.584365
H103	H	-0.829013	1.100020	-0.204327
O104	O	-0.159672	1.370314	-0.411264
C105	C	-0.130660	1.411224	-0.372737
H106	H	-0.146517	1.421782	-0.321438
H107	H	-0.124637	1.460945	-0.400309
H108	H	-0.097367	1.384028	-0.365311
H109	H	-0.164126	0.899652	-0.940125
O110	O	-0.740243	0.849346	-0.454447
C111	C	-0.713165	0.805628	-0.415868
H112	H	-0.706136	0.829533	-0.364596
H113	H	-0.680169	0.796514	-0.443427
H114	H	-0.731293	0.755487	-0.408387
H115	H	-0.959735	1.056760	-0.247578
O116	O	-0.159630	0.892904	-0.718239
C117	C	-0.130601	0.931475	-0.759139
H118	H	-0.146440	0.982755	-0.769717
H119	H	-0.124584	0.903920	-0.808850
H120	H	-0.097308	0.938940	-0.731923
O121	O	-0.272810	1.063481	-1.073905
C122	C	-0.247225	1.107227	-1.114814
H123	H	-0.211846	1.111449	-1.093524
H124	H	-0.263474	1.159296	-1.115609
H125	H	-0.245666	1.086313	-1.168388
O126	O	-0.273051	1.230675	-0.240744
C127	C	-0.302051	1.189744	-0.279269
H128	H	-0.304816	1.211054	-0.332576
H129	H	-0.336629	1.188891	-0.254776
H130	H	-0.288159	1.136190	-0.281607
H131	H	-0.164217	1.592198	-0.404557
O132	O	-0.159657	0.892801	-1.073950
C133	C	-0.185227	0.849068	-1.114836
H134	H	-0.220614	0.844841	-1.093517
H135	H	-0.168979	0.796999	-1.115641
H136	H	-0.186766	0.869999	-1.168409
O137	O	-0.599509	1.106689	-0.197397
C138	C	-0.611007	1.091939	-0.129926
H139	H	-0.645089	1.065926	-0.128508
H140	H	-0.612597	1.140812	-0.099623
H141	H	-0.584634	1.057155	-0.107087
O142	O	-0.159749	1.726102	-0.411346
C143	C	-0.165904	1.796062	-0.402056
H144	H	-0.200579	1.805669	-0.379877
H145	H	-0.162847	1.822937	-0.452758
H146	H	-0.139265	1.816153	-0.366022
H147	H	-0.164200	1.236438	-0.404551
H148	H	-0.268506	1.720275	-0.247451
H149	H	-0.268504	1.592041	-0.247451
H150	H	-0.268430	1.056527	-0.584316
O151	O	-0.272907	1.063452	-0.934629
C152	C	-0.298261	1.101626	-0.980975
H153	H	-0.279851	1.103992	-1.031372
H154	H	-0.303050	1.154947	-0.960554
H155	H	-0.332382	1.076807	-0.988476
O156	O	-0.272886	1.063319	-0.718212
C157	C	-0.266723	1.054048	-0.788184
H158	H	-0.232051	1.031926	-0.797855
H159	H	-0.269766	1.104749	-0.815047
H160	H	-0.293367	1.017974	-0.808232
H161	H	-1.044900	0.899621	-0.404532
O162	O	-0.476254	0.892648	-0.411283
C163	C	-0.503333	0.931172	-0.455050
H164	H	-0.510331	0.982486	-0.431222
H165	H	-0.536344	0.903617	-0.464106
H166	H	-0.485221	0.938566	-0.505210
H167	H	-0.688254	1.099957	-0.204299
O168	O	-0.476066	1.063367	-0.240653
C169	C	-0.445280	1.101586	-0.202490
H170	H	-0.411859	1.073842	-0.200127
H171	H	-0.458848	1.108845	-0.149166
H172	H	-0.440239	1.152974	-0.227315
H173	H	-0.959791	0.899590	-0.404530
O174	O	-1.048545	1.063719	-0.240921
C175	C	-1.075624	1.107399	-0.279540
H176	H	-1.061456	1.111474	-0.332853
H177	H	-1.076108	1.159528	-0.255154
H178	H	-1.111205	1.086516	-0.281843
O179	O	-0.691950	0.849340	-0.454619
C180	C	-0.661189	0.811095	-0.492773
H181	H	-0.627724	0.838809	-0.495122
H182	H	-0.674721	0.803851	-0.546102
H183	H	-0.656247	0.759701	-0.467948
H184	H	-0.829085	0.856227	-0.447763
O185	O	-0.740274	1.106853	-0.197493
C186	C	-0.771035	1.145080	-0.159318
H187	H	-0.804464	1.147414	-0.187054
H188	H	-0.757447	1.198410	-0.152138
H189	H	-0.776066	1.120329	-0.107893
