data_functionalizedCrystal
_audit_creation_method	'MofGen! by Chris Wilmer'
_symmetry_space_group_name_H-M	'P1'
_symmetry_Int_Tables_number	1
_symmetry_cell_setting	triclinic
loop_
_symmetry_equiv_pos_as_xyz
  x,y,z
_cell_length_a	6.394989
_cell_length_b	17.699083
_cell_length_c	16.176319
_cell_angle_alpha	90.001389
_cell_angle_beta	90.003737
_cell_angle_gamma	84.890363
loop_
_atom_site_label
_atom_site_type_symbol
_atom_site_fract_x
_atom_site_fract_y
_atom_site_fract_z
O1	O	-0.264132	-1.006774	-0.068625
O2	O	0.235868	-0.506774	0.431375
O3	O	-0.298496	-0.786747	-0.068651
O4	O	0.201504	-0.286747	0.431349
O5	O	0.022766	-0.899883	-0.068638
O6	O	0.522766	-0.399883	0.431362
O7	O	-0.585394	-0.893637	-0.068638
O8	O	-0.085394	-0.393637	0.431362
O9	O	0.022787	-0.899867	0.068855
O10	O	0.522787	-0.399867	0.568855
O11	O	-0.298475	-0.786730	0.068842
O12	O	0.201525	-0.286730	0.568842
O13	O	-0.264111	-1.006758	0.068868
O14	O	0.235889	-0.506758	0.568868
Cu15	Cu	-0.281291	-0.896743	0.081409
Cu16	Cu	0.218709	-0.396743	0.581409
Cu17	Cu	-0.281315	-0.896762	-0.081193
Cu18	Cu	0.218685	-0.396762	0.418807
O19	O	-0.585373	-0.893621	0.068855
O20	O	-0.085373	-0.393621	0.568855
C21	C	-0.297254	-0.758529	0.000092
C22	C	0.202746	-0.258529	0.500092
C23	C	-0.293560	-0.674473	0.000081
C24	C	0.206440	-0.174473	0.500081
C25	C	-0.265353	-1.034976	0.000123
C26	C	0.234647	-0.534976	0.500123
C27	C	-0.269047	-1.119031	0.000128
C28	C	0.230953	-0.619031	0.500128
N29	N	-0.281273	-0.896735	0.195774
N30	N	0.218727	-0.396735	0.695774
C31	C	0.100592	-0.898640	0.000105
C32	C	0.600592	-0.398640	0.500105
C33	C	0.336808	-0.894866	0.000104
C34	C	0.836808	-0.394866	0.500104
N35	N	-0.281317	-0.896776	-0.195558
N36	N	0.218683	-0.396776	0.304442
C37	C	-0.482134	-0.627777	0.000082
C38	C	0.017866	-0.127777	0.500082
C39	C	-0.478651	-0.548798	0.000092
C40	C	0.021349	-0.048798	0.500092
C41	C	-0.286591	-0.516517	0.000097
C42	C	0.213409	-0.016517	0.500097
C43	C	-0.098003	-0.563220	0.000099
C44	C	0.401997	-0.063220	0.500099
C45	C	-0.101488	-0.642197	0.000094
C46	C	0.398512	-0.142197	0.500094
C47	C	-0.083942	-0.244713	0.000119
C48	C	0.416058	0.255287	0.500119
C49	C	-0.080470	-0.165730	0.000122
C50	C	0.419530	0.334270	0.500122
C51	C	-0.461104	-0.151314	0.000118
C52	C	0.038896	0.348686	0.500118
C53	C	-0.464590	-0.230291	0.000113
C54	C	0.035410	0.269709	0.500113
C55	C	-0.276002	-0.276987	0.000119
C56	C	0.223998	0.223013	0.500119
C57	C	-0.279782	-0.362625	0.000109
C58	C	0.220218	0.137375	0.500109
C59	C	-0.282810	-0.430881	0.000101
C60	C	0.217190	0.069119	0.500101
C61	C	-0.139076	-0.946848	0.239044
C62	C	0.360924	-0.446848	0.739044
C63	C	-0.139074	-0.946852	0.325591
C64	C	0.360926	-0.446852	0.825591
C65	C	-0.281280	-0.896746	0.368867
C66	C	0.218720	-0.396746	0.868867
C67	C	-0.423484	-0.846627	0.325591
C68	C	0.076516	-0.346627	0.825591
C69	C	-0.423474	-0.846620	0.239045
C70	C	0.076526	-0.346620	0.739045
C71	C	-0.423523	-0.846653	0.674619
C72	C	0.076477	-0.346653	1.174619
C73	C	-0.423526	-0.846666	0.761171
C74	C	0.076474	-0.346666	1.261171
C75	C	-0.139123	-0.946885	0.761165
C76	C	0.360877	-0.446885	1.261165
C77	C	-0.139113	-0.946878	0.674620
C78	C	0.360887	-0.446878	1.174620
C79	C	-0.281308	-0.896757	0.631351
C80	C	0.218692	-0.396757	1.131351
C81	C	-0.281306	-0.896753	0.537507
C82	C	0.218694	-0.396753	1.037507
C83	C	-0.281294	-0.896753	0.462710
C84	C	0.218706	-0.396753	0.962710
H85	H	-0.632207	-0.510780	0.000092
H86	H	-0.132207	-0.010780	0.500092
O87	O	0.101910	-0.692563	0.000099
O88	O	0.601910	-0.192563	0.500099
H89	H	0.067223	-0.752903	0.000105
H90	H	0.567223	-0.252903	0.500105
O91	O	-0.671737	-0.265111	0.000120
O92	O	-0.171737	0.234889	0.500120
H93	H	-0.802284	-0.219370	0.000134
H94	H	-0.302284	0.280630	0.500134
O95	O	0.126694	-0.130912	0.000142
O96	O	0.626694	0.369088	0.500142
H97	H	0.217316	-0.149530	-0.055888
H98	H	0.717316	0.350470	0.444112
O99	O	-0.689285	-0.662593	0.000085
O100	O	-0.189285	-0.162593	0.500085
H101	H	-0.819826	-0.616850	0.000098
H102	H	-0.319826	-0.116850	0.500098
O103	O	-0.576950	-0.792627	0.807842
O104	O	-0.076950	-0.292627	1.307842
H105	H	-0.550548	-0.733372	0.791255
H106	H	-0.050548	-0.233372	1.291255
H107	H	-0.539263	-0.805812	0.203816
H108	H	-0.039263	-0.305812	0.703816
H109	H	-0.614661	-0.113284	0.000117
H110	H	-0.114661	0.386716	0.500117
H111	H	0.069618	-0.282724	0.000125
H112	H	0.569618	0.217276	0.500125
O113	O	-0.576913	-0.792604	0.627960
O114	O	-0.076913	-0.292604	1.127960
H115	H	-0.489125	-0.754973	0.588545
H116	H	0.010875	-0.254973	1.088545
O117	O	0.109151	-0.528404	0.000112
O118	O	0.609151	-0.028404	0.500112
H119	H	0.199753	-0.547024	-0.055923
H120	H	0.699753	-0.047024	0.444077
O121	O	0.014249	-1.000944	0.807838
O122	O	0.514249	-0.500944	1.307838
H123	H	0.113110	-1.035792	0.763205
H124	H	0.613110	-0.535792	1.263205
H125	H	-0.539264	-0.805826	0.360831
H126	H	-0.039264	-0.305826	0.860831
O127	O	0.014312	-1.000888	0.192369
O128	O	0.514312	-0.500888	0.692369
H129	H	0.113206	-1.035729	0.237001
H130	H	0.613206	-0.535729	0.737001
H131	H	-0.023285	-0.987657	0.360821
H132	H	0.476715	-0.487657	0.860821
H133	H	-0.023323	-0.987682	0.639387
H134	H	0.476677	-0.487682	1.139387
