data_functionalizedCrystal
_audit_creation_method	'MofGen! by Chris Wilmer'
_symmetry_space_group_name_H-M	'P1'
_symmetry_Int_Tables_number	1
_symmetry_cell_setting	triclinic
loop_
_symmetry_equiv_pos_as_xyz
  x,y,z
_cell_length_a	10.654543
_cell_length_b	16.176319
_cell_length_c	10.654551
_cell_angle_alpha	90.005006
_cell_angle_beta	95.516199
_cell_angle_gamma	89.997267
loop_
_atom_site_label
_atom_site_type_symbol
_atom_site_fract_x
_atom_site_fract_y
_atom_site_fract_z
O1	O	-1.667852	0.068654	0.176362
O2	O	-1.302372	0.068675	0.193177
O3	O	-1.493514	0.068662	0.002030
O4	O	-1.476710	0.068667	0.367509
O5	O	-1.493488	-0.068831	0.002017
O6	O	-1.302346	-0.068818	0.193164
O7	O	-1.667825	-0.068839	0.176349
Cu8	Cu	-1.485083	-0.081383	0.184756
Cu9	Cu	-1.485115	0.081219	0.184770
O10	O	-1.476683	-0.068826	0.367496
C11	C	-1.255561	-0.000069	0.191938
C12	C	-1.116117	-0.000061	0.188249
C13	C	-1.036632	-0.000061	0.300792
C14	C	-0.905611	-0.000073	0.297319
C15	C	-0.933573	-0.000082	0.068749
C16	C	-1.064592	-0.000076	0.072224
N17	N	-1.485070	-0.195748	0.184744
C18	C	-1.569734	-0.239018	0.100140
C19	C	-1.569740	-0.325565	0.100139
C20	C	-1.485088	-0.368841	0.184749
C21	C	-1.400415	-0.325565	0.269358
C22	C	-1.400404	-0.239019	0.269352
C23	C	-1.400458	-0.674593	0.269382
C24	C	-1.400479	-0.761145	0.269383
C25	C	-1.569795	-0.761139	0.100168
C26	C	-1.569783	-0.674593	0.100163
C27	C	-1.485107	-0.631325	0.184766
C28	C	-1.485099	-0.537481	0.184765
C29	C	-1.485100	-0.462683	0.184757
C30	C	-0.714636	-0.000089	0.177594
C31	C	-0.854077	-0.000080	0.181301
C32	C	-1.492267	-0.000083	-0.044774
C33	C	-1.488574	-0.000079	-0.184217
N34	N	-1.485137	0.195584	0.184772
C35	C	-1.486856	0.074870	-0.249714
C36	C	-1.483376	0.074870	-0.380735
C37	C	-1.483338	-0.075032	-0.380750
C38	C	-1.486809	-0.075032	-0.249731
C39	C	-1.477931	-0.000079	0.414300
C40	C	-1.481623	-0.000078	0.553743
H41	H	-1.078579	-0.000055	0.395268
F42	F	-1.488627	-0.154807	-0.180019
H43	H	-0.840898	-0.000074	0.388964
F44	F	-0.878724	-0.000095	-0.054727
H45	H	-1.331483	-0.360805	0.338245
F46	F	-1.488729	0.154641	-0.179993
F47	F	-1.149192	-0.000082	-0.047567
F48	F	-1.659840	-0.192969	0.010090
F49	F	-1.659847	-0.371616	0.010092
F50	F	-1.659885	-0.628539	0.010114
H51	H	-1.638740	-0.796377	0.031275
H52	H	-1.331540	-0.796378	0.338286
F53	F	-1.310344	-0.628550	0.359425
H54	H	-1.331460	-0.203790	0.338244
H55	H	-1.481904	-0.136056	-0.434108
F56	F	-1.481544	0.154641	-0.450435
