data_functionalizedCrystal
_audit_creation_method	'MofGen! by Chris Wilmer'
_symmetry_space_group_name_H-M	'P1'
_symmetry_Int_Tables_number	1
_symmetry_cell_setting	triclinic
loop_
_symmetry_equiv_pos_as_xyz
  x,y,z
_cell_length_a	12.759400
_cell_length_b	25.639242
_cell_length_c	12.759393
_cell_angle_alpha	90.032630
_cell_angle_beta	89.970195
_cell_angle_gamma	89.990696
loop_
_atom_site_label
_atom_site_type_symbol
_atom_site_fract_x
_atom_site_fract_y
_atom_site_fract_z
Zn1	Zn	-0.418365	-0.799361	-0.594353
Zn2	Zn	0.081635	-0.299361	-0.094353
Zn3	Zn	-0.594081	-0.799307	-0.418675
Zn4	Zn	-0.094081	-0.299307	0.081325
Zn5	Zn	-0.418400	-0.711923	-0.418652
Zn6	Zn	0.081600	-0.211923	0.081348
Zn7	Zn	-0.593986	-0.711919	-0.594276
Zn8	Zn	-0.093986	-0.211919	-0.094276
O9	O	-0.506208	-0.755627	-0.506489
O10	O	-0.006208	-0.255627	-0.006489
O11	O	-0.441699	-0.872519	-0.571090
O12	O	0.058301	-0.372519	-0.071090
O13	O	-0.570830	-0.787694	-0.271651
O14	O	-0.070830	-0.287694	0.228349
O15	O	-0.271374	-0.723546	-0.441982
O16	O	0.228626	-0.223546	0.058018
O17	O	-0.570796	-0.872479	-0.442021
O18	O	-0.070796	-0.372479	0.057979
O19	O	-0.271349	-0.787786	-0.571068
O20	O	0.228651	-0.287786	-0.071068
O21	O	-0.441758	-0.723493	-0.271634
O22	O	0.058242	-0.223493	0.228366
O23	O	-0.441667	-0.638757	-0.441908
O24	O	0.058333	-0.138757	0.058092
O25	O	-0.570636	-0.723539	-0.741308
O26	O	-0.070636	-0.223539	-0.241308
O27	O	-0.570669	-0.638754	-0.570938
O28	O	-0.070669	-0.138754	-0.070938
O29	O	-0.441607	-0.787782	-0.741364
O30	O	0.058393	-0.287782	-0.241364
O31	O	-0.741089	-0.787690	-0.441947
O32	O	-0.241089	-0.287690	0.058053
O33	O	-0.741020	-0.723487	-0.570960
O34	O	-0.241020	-0.223487	-0.070960
C35	C	-0.506162	-0.619785	-0.506413
C36	C	-0.006162	-0.119785	-0.006413
C37	C	-0.506168	-0.561671	-0.506405
C38	C	-0.006168	-0.061671	-0.006405
C39	C	-0.438920	-0.310470	-0.439393
C40	C	0.061080	0.189530	0.060607
C41	C	-0.438911	-0.365074	-0.439383
C42	C	0.061089	0.134926	0.060617
O43	O	-0.381675	-0.393305	-0.382362
O44	O	0.118325	0.106695	0.117638
N45	N	-0.506180	-0.392397	-0.506448
N46	N	-0.006180	0.107603	-0.006448
C47	C	-0.573455	-0.365112	-0.573535
C48	C	-0.073455	0.134888	-0.073535
O49	O	-0.630670	-0.393366	-0.630578
O50	O	-0.130670	0.106634	-0.130578
C51	C	-0.573458	-0.310509	-0.573549
C52	C	-0.073458	0.189491	-0.073549
C53	C	-0.506192	-0.283189	-0.506472
C54	C	-0.006192	0.216811	-0.006472
C55	C	-0.371659	-0.283150	-0.372322
C56	C	0.128341	0.216850	0.127678
C57	C	-0.371670	-0.228550	-0.372331
C58	C	0.128330	0.271450	0.127669
C59	C	-0.438942	-0.201269	-0.439411
C60	C	0.061058	0.298731	0.060589
C61	C	-0.506203	-0.228589	-0.506481
C62	C	-0.006203	0.271411	-0.006481
C63	C	-0.640726	-0.283225	-0.640641
C64	C	-0.140726	0.216775	-0.140641
C65	C	-0.640723	-0.228618	-0.640650
C66	C	-0.140723	0.271382	-0.140650
C67	C	-0.573458	-0.201298	-0.573573
C68	C	-0.073458	0.298702	-0.073573
C69	C	-0.573486	-0.146707	-0.573570
C70	C	-0.073486	0.353293	-0.073570
N71	N	-0.506217	-0.119385	-0.506505
N72	N	-0.006217	0.380615	-0.006505
C73	C	-0.438945	-0.146665	-0.439425
C74	C	0.061055	0.353335	0.060575
C75	C	-0.573441	-0.479783	-0.573500
C76	C	-0.073441	0.020217	-0.073500
C77	C	-0.573444	-0.534385	-0.573481
C78	C	-0.073444	-0.034385	-0.073481
C79	C	-0.438899	-0.534343	-0.439330
C80	C	0.061101	-0.034343	0.060670
C81	C	-0.438902	-0.479740	-0.439345
C82	C	0.061098	0.020260	0.060655
C83	C	-0.506173	-0.452460	-0.506435
C84	C	-0.006173	0.047540	-0.006435
C85	C	-0.438974	-0.032000	-0.439448
C86	C	0.061026	0.468000	0.060552
C87	C	-0.438994	0.022605	-0.439460
C88	C	0.061006	0.522605	0.060540
C89	C	-0.573535	0.022559	-0.573615
C90	C	-0.073535	0.522559	-0.073615
C91	C	-0.573519	-0.032042	-0.573599
C92	C	-0.073519	0.467958	-0.073599
C93	C	-0.506230	-0.059320	-0.506513
C94	C	-0.006230	0.440680	-0.006513
O95	O	-0.630690	-0.118442	-0.630565
O96	O	-0.130690	0.381558	-0.130565
O97	O	-0.381730	-0.118405	-0.382401
O98	O	0.118270	0.381595	0.117599
C99	C	-0.779175	-0.755596	-0.506470
C100	C	-0.279175	-0.255596	-0.006470
C101	C	-0.895952	-0.755631	-0.506498
C102	C	-0.395952	-0.255631	-0.006498
C103	C	-0.950711	-0.789066	-0.573770
C104	C	-0.450711	-0.289066	-0.073770
C105	C	-1.060435	-0.789096	-0.573799
C106	C	-0.560435	-0.289096	-0.073799
C107	C	-1.060632	-0.722253	-0.439273
C108	C	-0.560632	-0.222253	0.060727
C109	C	-0.950909	-0.722221	-0.439251
C110	C	-0.450909	-0.222221	0.060749
C111	C	-1.210267	-0.807788	-0.697775
C112	C	-0.710267	-0.307788	-0.197775
C113	C	-1.265030	-0.841232	-0.765039
C114	C	-0.765030	-0.341232	-0.265039
C115	C	-1.229331	-0.892234	-0.781273
C116	C	-0.729331	-0.392234	-0.281273
C117	C	-1.138872	-0.909803	-0.730228
C118	C	-0.638872	-0.409803	-0.230228
C119	C	-1.084115	-0.876362	-0.662957
C120	C	-0.584115	-0.376362	-0.162957
C121	C	-1.119812	-0.825353	-0.646743
C122	C	-0.619812	-0.325353	-0.146743
C123	C	-0.801075	-0.703534	-0.315272
C124	C	-0.301075	-0.203534	0.184728
C125	C	-0.746316	-0.670096	-0.247995
C126	C	-0.246316	-0.170096	0.252005
C127	C	-0.782013	-0.619093	-0.231751
C128	C	-0.282013	-0.119093	0.268249
C129	C	-0.872475	-0.601526	-0.282777
C130	C	-0.372475	-0.101526	0.217223
C131	C	-0.927234	-0.634964	-0.350054
C132	C	-0.427234	-0.134964	0.149946
C133	C	-0.891530	-0.685966	-0.366301
C134	C	-0.391530	-0.185966	0.133699
C135	C	-0.232175	-0.755673	-0.506531
C136	C	0.267825	-0.255673	-0.006531
C137	C	-0.115398	-0.755692	-0.506549
C138	C	0.384602	-0.255692	-0.006549
C139	C	-0.506107	-0.755666	-0.780523
C140	C	-0.006107	-0.255666	-0.280523
C141	C	-0.506064	-0.755683	-0.897299
C142	C	-0.006064	-0.255683	-0.397299
C143	C	-0.506252	0.108000	-0.506552
C144	C	-0.006252	0.608000	-0.006552
C145	C	-0.506266	0.049886	-0.506540
C146	C	-0.006266	0.549886	-0.006540
C147	C	-0.438868	-0.789137	-0.952192
C148	C	0.061132	-0.289137	-0.452192
C149	C	-0.438823	-0.789146	-1.061916
C150	C	0.061177	-0.289146	-0.561916
C151	C	-0.573178	-0.722245	-1.061845
C152	C	-0.073178	-0.222245	-0.561845
C153	C	-0.573217	-0.722234	-0.952123
C154	C	-0.073217	-0.222234	-0.452123
C155	C	-0.314871	-0.807863	-1.211901
C156	C	0.185129	-0.307863	-0.711901
C157	C	-0.247685	-0.841326	-1.266797
C158	C	0.252315	-0.341326	-0.766797
C159	C	-0.231586	-0.892341	-1.231227
C160	C	0.268414	-0.392341	-0.731227
C161	C	-0.282690	-0.909905	-1.140761
C162	C	0.217310	-0.409905	-0.640761
C163	C	-0.349884	-0.876446	-1.085870
C164	C	0.150116	-0.376446	-0.585870
C165	C	-0.365962	-0.825423	-1.121439
C166	C	0.134038	-0.325423	-0.621439
C167	C	-0.697171	-0.703522	-0.802137
C168	C	-0.197171	-0.203522	-0.302137
C169	C	-0.764371	-0.670065	-0.747244
C170	C	-0.264371	-0.170065	-0.247244
C171	C	-0.780480	-0.619048	-0.782812
C172	C	-0.280480	-0.119048	-0.282812
C173	C	-0.729395	-0.601486	-0.873281
C174	C	-0.229395	-0.101486	-0.373281
C175	C	-0.662195	-0.634943	-0.928174
C176	C	-0.162195	-0.134943	-0.428174
C177	C	-0.646084	-0.685959	-0.892598
C178	C	-0.146084	-0.185959	-0.392598
C179	C	-0.506233	-0.755618	-0.233522
C180	C	-0.006233	-0.255618	0.266478
C181	C	-0.505980	-0.755703	-0.116746
C182	C	-0.005980	-0.255703	0.383254
H183	H	-0.695501	-0.206410	-0.695288
H184	H	-0.195501	0.293590	-0.195288
H185	H	-0.384176	-0.054204	-0.384825
H186	H	0.115824	0.445796	0.115175
H187	H	-0.269584	-0.951449	-1.111812
H188	H	0.230416	-0.451449	-0.611812
H189	H	-0.628300	-0.054287	-0.628211
H190	H	-0.128300	0.445713	-0.128211
H191	H	-0.627854	-0.695014	-1.106496
H192	H	-0.127854	-0.195014	-0.606496
H193	H	-0.384185	-0.816372	-0.907558
H194	H	0.115815	-0.316372	-0.407558
H195	H	-1.273927	-0.919464	-0.836041
H196	H	-0.773927	-0.419464	-0.336041
H197	H	-1.239335	-0.766257	-0.684574
H198	H	-0.739335	-0.266257	-0.184574
H199	H	-0.684052	-0.745063	-0.773162
H200	H	-0.184052	-0.245063	-0.273162
H201	H	-0.737419	-0.591868	-0.176965
H202	H	-0.237419	-0.091868	0.323035
H203	H	-0.628230	-0.457575	-0.628131
H204	H	-0.128230	0.042425	-0.128131
H205	H	-1.109820	-0.951336	-0.743442
H206	H	-0.609820	-0.451336	-0.243442
H207	H	-1.338682	-0.826922	-0.806600
H208	H	-0.838682	-0.326922	-0.306600
H209	H	-0.835210	-0.591810	-0.738114
H210	H	-0.335210	-0.091810	-0.238114
H211	H	-0.176881	-0.919586	-1.275931
H212	H	0.323119	-0.419586	-0.775931
H213	H	-1.105391	-0.695053	-0.384521
H214	H	-0.605391	-0.195053	0.115479
H215	H	-1.000894	-0.620657	-0.391603
H216	H	-0.500894	-0.120657	0.108397
H217	H	-0.695502	-0.305460	-0.695262
H218	H	-0.195502	0.194540	-0.195262
H219	H	-0.672660	-0.684404	-0.206442
H220	H	-0.172660	-0.184404	0.293558
H221	H	-1.010467	-0.890667	-0.621395
H222	H	-0.510467	-0.390667	-0.121395
H223	H	-0.901542	-0.559995	-0.269548
H224	H	-0.401542	-0.059995	0.230452
H225	H	-0.905967	-0.816270	-0.628528
H226	H	-0.405967	-0.316270	-0.128528
H227	H	-0.771991	-0.745062	-0.328508
H228	H	-0.271991	-0.245062	0.171492
H229	H	-0.628309	0.044780	-0.628226
H230	H	-0.128309	0.544780	-0.128226
H231	H	-0.391495	-0.890747	-1.012218
H232	H	0.108505	-0.390747	-0.512218
H233	H	-0.384216	0.044846	-0.384835
H234	H	0.115784	0.544846	0.115165
H235	H	-0.316896	-0.206311	-0.317710
H236	H	0.183104	0.293689	0.182290
H237	H	-0.316873	-0.305356	-0.317698
H238	H	0.183127	0.194644	0.182302
H239	H	-0.206076	-0.827020	-1.340455
H240	H	0.293924	-0.327020	-0.840455
H241	H	-0.327964	-0.766321	-1.240866
H242	H	0.172036	-0.266321	-0.740866
H243	H	-0.620599	-0.620640	-1.001839
H244	H	-0.120599	-0.120640	-0.501839
H245	H	-0.742515	-0.559945	-0.902245
H246	H	-0.242515	-0.059945	-0.402245
H247	H	-0.805977	-0.684370	-0.673586
H248	H	-0.305977	-0.184370	-0.173586
H249	H	-0.384121	-0.556565	-0.384712
H250	H	0.115879	-0.056565	0.115288
H251	H	-0.384125	-0.457500	-0.384728
H252	H	0.115875	0.042500	0.115272
H253	H	-0.628230	-0.556624	-0.628091
H254	H	-0.128230	-0.056624	-0.128091
