data_functionalizedCrystal
_audit_creation_method	'MofGen! by Chris Wilmer'
_symmetry_space_group_name_H-M	'P1'
_symmetry_Int_Tables_number	1
_symmetry_cell_setting	triclinic
loop_
_symmetry_equiv_pos_as_xyz
  x,y,z
_cell_length_a	15.995292
_cell_length_b	15.995292
_cell_length_c	12.503552
_cell_angle_alpha	93.523602
_cell_angle_beta	86.477929
_cell_angle_gamma	83.468616
loop_
_atom_site_label
_atom_site_type_symbol
_atom_site_fract_x
_atom_site_fract_y
_atom_site_fract_z
O1	O	0.102855	1.115830	0.089343
O2	O	0.116234	0.872045	0.089338
O3	O	-0.012348	1.000627	0.089342
O4	O	0.231437	0.987248	0.089338
O5	O	-0.002669	0.990945	-0.089301
O6	O	0.125913	0.862363	-0.089305
O7	O	0.112534	1.106148	-0.089300
Cu8	Cu	0.120107	0.983372	-0.105614
Cu9	Cu	0.108661	0.994821	0.105652
O10	O	0.241116	0.977566	-0.089304
C11	C	0.120529	0.836009	0.000016
C12	C	0.118897	0.743056	0.000014
C13	C	0.112895	0.405319	0.000026
C14	C	0.205680	0.428634	0.000424
C15	C	0.207466	0.525287	0.000016
C16	C	0.115873	0.572874	0.000021
C17	C	0.075001	0.538254	-0.101989
C18	C	0.073888	0.441459	-0.102070
C19	C	0.060986	0.452614	0.101081
C20	C	0.064353	0.549178	0.102424
C21	C	0.117551	0.667570	0.000014
C22	C	0.111214	0.310624	0.000026
C23	C	-0.038704	0.995242	0.000023
C24	C	-0.131657	0.993610	0.000031
C25	C	-0.469394	0.987608	0.000021
C26	C	-0.446079	1.080393	-0.000376
C27	C	-0.349426	1.082179	0.000031
C28	C	-0.301839	0.990586	0.000026
C29	C	-0.336457	0.949715	0.102035
C30	C	-0.433251	0.948602	0.102117
C31	C	-0.422102	0.935698	-0.101034
C32	C	-0.325537	0.939064	-0.102378
C33	C	-0.207143	0.992264	0.000032
C34	C	-0.564089	0.985927	0.000022
C35	C	0.267472	0.982952	0.000017
C36	C	0.360425	0.984584	0.000016
C37	C	0.108239	1.142185	0.000024
C38	C	0.109871	1.235138	0.000033
N39	N	0.128157	0.975325	-0.254207
C40	C	0.088760	1.014707	-0.526639
C41	C	0.139999	0.963495	-0.473317
C42	C	0.133408	0.970079	-0.351393
C43	C	0.095349	1.008124	-0.648574
N44	N	0.100604	1.002874	0.254245
H45	H	0.085805	0.428471	0.178398
N46	N	-0.316472	0.995312	0.197268
N47	N	-0.343286	1.071757	0.214489
H48	H	-0.329175	1.103965	0.281746
H49	H	0.245195	0.395665	-0.072322
N50	N	-0.297128	0.976288	-0.197072
N51	N	-0.349005	1.002835	-0.261527
H52	H	-0.328934	1.029120	-0.328407
H53	H	0.188816	0.914708	-0.519234
H54	H	-0.446007	0.960734	-0.178357
N55	N	0.027461	1.075881	-0.469105
N56	N	0.029168	1.152627	-0.481543
H57	H	-0.014151	1.195816	-0.440921
N58	N	-0.283691	0.854797	-0.110144
N59	N	-0.235513	0.831233	-0.040012
H60	H	-0.205942	0.771723	-0.045503
H61	H	0.006092	0.426672	-0.106701
N62	N	0.248107	0.554088	0.091742
N63	N	0.322752	0.525860	0.104183
H64	H	0.351464	0.546188	0.168965
N65	N	0.245578	0.398473	0.092200
N66	N	0.206100	0.359439	0.158386
H67	H	0.234278	0.338132	0.223206
H68	H	-0.448038	0.880806	0.106735
H69	H	0.247992	0.539713	-0.073234
H70	H	0.110153	0.410503	-0.178327
N71	N	-0.009295	0.577993	-0.106734
N72	N	-0.040260	0.632405	-0.034815
H73	H	-0.099795	0.660472	-0.038163
H74	H	0.111335	0.554192	-0.177907
H75	H	0.094047	0.571830	0.177890
N76	N	-0.439590	0.849955	-0.101889
N77	N	-0.486659	0.827075	-0.028475
H78	H	-0.499014	0.766521	-0.029070
H79	H	-0.002835	0.582496	0.108589
H80	H	-0.007363	0.438672	0.101773
H81	H	-0.326447	1.114555	-0.073092
H82	H	-0.470120	1.112201	-0.073531
N83	N	-0.296703	0.865426	0.106789
N84	N	-0.218517	0.851963	0.111290
H85	H	-0.190437	0.792434	0.114645
H86	H	-0.334998	1.122702	0.073284
N87	N	-0.487438	1.129959	0.090886
N88	N	-0.534009	1.097247	0.156218
H89	H	-0.563220	1.132250	0.220674
H90	H	-0.464206	0.984869	0.178374
