data_functionalizedCrystal
_audit_creation_method	'MofGen! by Chris Wilmer'
_symmetry_space_group_name_H-M	'P1'
_symmetry_Int_Tables_number	1
_symmetry_cell_setting	triclinic
loop_
_symmetry_equiv_pos_as_xyz
  x,y,z
_cell_length_a	12.759401
_cell_length_b	21.295417
_cell_length_c	12.759393
_cell_angle_alpha	90.038095
_cell_angle_beta	90.019802
_cell_angle_gamma	90.029593
loop_
_atom_site_label
_atom_site_type_symbol
_atom_site_fract_x
_atom_site_fract_y
_atom_site_fract_z
Zn1	Zn	1.606151	-0.250594	0.593933
Zn2	Zn	2.106151	0.249406	1.093933
Zn3	Zn	1.605994	-0.355876	0.418230
Zn4	Zn	2.105994	0.144124	0.918230
Zn5	Zn	1.430450	-0.250623	0.418271
Zn6	Zn	1.930450	0.249377	0.918271
Zn7	Zn	1.430393	-0.355828	0.593870
Zn8	Zn	1.930393	0.144172	1.093870
O9	O	1.518247	-0.303230	0.506076
O10	O	2.018247	0.196770	1.006076
O11	O	1.753151	-0.264568	0.570634
O12	O	2.253151	0.235432	1.070634
O13	O	1.582665	-0.341947	0.271214
O14	O	2.082665	0.158053	0.771214
O15	O	1.453846	-0.162530	0.441617
O16	O	1.953846	0.337470	0.941617
O17	O	1.753035	-0.341918	0.441546
O18	O	2.253035	0.158082	0.941546
O19	O	1.582933	-0.162509	0.570675
O20	O	2.082933	0.337491	1.070675
O21	O	1.453694	-0.264618	0.271245
O22	O	1.953694	0.235382	0.771245
O23	O	1.283421	-0.264571	0.441556
O24	O	1.783421	0.235429	0.941556
O25	O	1.453750	-0.341836	0.740900
O26	O	1.953750	0.158164	1.240900
O27	O	1.283380	-0.341864	0.570568
O28	O	1.783380	0.158136	1.070568
O29	O	1.582878	-0.264521	0.740946
O30	O	2.082878	0.235479	1.240946
O31	O	1.582610	-0.443959	0.441485
O32	O	2.082610	0.056041	0.941485
O33	O	1.453597	-0.443924	0.570527
O34	O	1.953597	0.056076	1.070527
C35	C	1.245279	-0.303216	0.506061
C36	C	1.745279	0.196784	1.006061
C37	C	1.128503	-0.303225	0.506079
C38	C	1.628503	0.196775	1.006079
C39	C	0.963965	-0.263036	0.573406
C40	C	1.463965	0.236964	1.073406
C41	C	1.073689	-0.263023	0.573399
C42	C	1.573689	0.236977	1.073399
C43	C	1.073587	-0.343445	0.438769
C44	C	1.573587	0.156555	0.938769
C45	C	0.963865	-0.343460	0.438782
C46	C	1.463865	0.156540	0.938782
C47	C	1.518109	-0.466782	0.506018
C48	C	2.018109	0.033218	1.006018
C49	C	1.518146	-0.536750	0.506028
C50	C	2.018146	-0.036750	1.006028
C51	C	1.585383	-0.569614	0.438904
C52	C	2.085383	-0.069614	0.938904
C53	C	1.585432	-0.635357	0.438928
C54	C	2.085432	-0.135357	0.938928
C55	C	1.518226	-0.668233	0.506064
C56	C	2.018226	-0.168233	1.006064
C57	C	1.450985	-0.635360	0.573201
C58	C	1.950985	-0.135360	1.073201
C59	C	1.450945	-0.569619	0.573183
C60	C	1.950945	-0.069619	1.073183
N61	N	1.426319	-0.771497	0.514068
N62	N	1.926319	-0.271497	1.014068
N63	N	1.426360	-0.833948	0.514080
N64	N	1.926360	-0.333948	1.014080
C65	C	1.518344	-0.866307	0.506124
C66	C	2.018344	-0.366307	1.006124
N67	N	1.610287	-0.833855	0.498137
N68	N	2.110287	-0.333855	0.998137
N69	N	1.610245	-0.771398	0.498121
N70	N	2.110245	-0.271398	0.998121
C71	C	1.518262	-0.739518	0.506092
C72	C	2.018262	-0.239518	1.006092
C73	C	1.585639	-0.970457	0.439023
C74	C	2.085639	-0.470457	0.939023
C75	C	1.585690	-1.036201	0.439054
C76	C	2.085690	-0.536201	0.939054
C77	C	1.451233	-1.036203	0.573321
C78	C	1.951233	-0.536203	1.073321
C79	C	1.451192	-0.970460	0.573296
C80	C	1.951192	-0.470460	1.073296
C81	C	1.518393	-0.937591	0.506141
C82	C	2.018393	-0.437591	1.006141
C83	C	1.792280	-0.303245	0.506092
C84	C	2.292280	0.196755	1.006092
C85	C	1.909057	-0.303252	0.506099
C86	C	2.409057	0.196748	1.006099
C87	C	1.518325	-0.303170	0.780109
C88	C	2.018325	0.196830	1.280109
C89	C	1.518359	-0.303144	0.896886
C90	C	2.018359	0.196856	1.396886
C91	C	1.518414	-0.139040	0.506157
C92	C	2.018414	0.360960	1.006157
C93	C	1.518485	-0.069072	0.506192
C94	C	2.018485	0.430928	1.006192
C95	C	1.518229	-0.303245	0.233109
C96	C	2.018229	0.196755	0.733109
C97	C	1.518399	-0.303093	0.116332
C98	C	2.018399	0.196907	0.616332
C99	C	1.585601	-0.262880	0.951774
C100	C	2.085601	0.237120	1.451774
C101	C	1.585619	-0.262853	1.061498
C102	C	2.085619	0.237147	1.561498
C103	C	1.451149	-0.343359	1.061437
C104	C	1.951149	0.156641	1.561437
C105	C	1.451127	-0.343383	0.951715
C106	C	1.951127	0.156617	1.451715
H107	H	0.919158	-0.376213	0.383971
H108	H	1.419158	0.123787	0.883971
Br109	Br	1.359914	-0.397969	1.135854
Br110	Br	1.859914	0.102031	1.635854
H111	H	1.640373	-0.230065	1.106183
H112	H	2.140373	0.269935	1.606183
Br113	Br	1.359854	-0.398026	0.877218
Br114	Br	1.859854	0.101974	1.377218
Br115	Br	1.359689	-0.525014	0.664288
Br116	Br	1.859689	-0.025014	1.164288
Br117	Br	1.676689	-0.679968	0.347826
Br118	Br	2.176689	-0.179968	0.847826
Br119	Br	1.359934	-0.925856	0.664395
Br120	Br	1.859934	-0.425856	1.164395
Br121	Br	0.889584	-0.208468	0.664766
Br122	Br	1.389584	0.291532	1.164766
Br123	Br	1.676835	-0.925845	0.347884
Br124	Br	2.176835	-0.425845	0.847884
Br125	Br	1.148203	-0.208445	0.664755
Br126	Br	1.648203	0.291555	1.164755
H127	H	1.118226	-0.376180	0.383959
H128	H	1.618226	0.123820	0.883959
Br129	Br	1.676599	-0.525009	0.347781
Br130	Br	2.176599	-0.025009	0.847781
Br131	Br	1.676960	-1.080804	0.347960
Br132	Br	2.176960	-0.580804	0.847960
Br133	Br	1.360034	-1.080813	0.664447
Br134	Br	1.860034	-0.580813	1.164447
H135	H	1.396267	-0.662132	0.627865
H136	H	1.896267	-0.162132	1.127865
H137	H	1.640343	-0.230113	0.907135
H138	H	2.140343	0.269887	1.407135
