data_functionalizedCrystal
_audit_creation_method	'MofGen! by Chris Wilmer'
_symmetry_space_group_name_H-M	'P1'
_symmetry_Int_Tables_number	1
_symmetry_cell_setting	triclinic
loop_
_symmetry_equiv_pos_as_xyz
  x,y,z
_cell_length_a	18.050591
_cell_length_b	25.639240
_cell_length_c	18.050582
_cell_angle_alpha	89.968180
_cell_angle_beta	89.979078
_cell_angle_gamma	90.028762
loop_
_atom_site_label
_atom_site_type_symbol
_atom_site_fract_x
_atom_site_fract_y
_atom_site_fract_z
Zn1	Zn	1.135269	-0.208240	-0.419984
Zn2	Zn	1.135170	-0.295667	-0.295774
Zn3	Zn	1.011088	-0.208242	-0.295795
Zn4	Zn	1.011026	-0.295640	-0.419909
O5	O	1.073138	-0.251947	-0.357865
O6	O	1.239181	-0.219848	-0.403529
O7	O	1.118695	-0.284083	-0.191852
O8	O	1.027629	-0.135076	-0.312309
O9	O	1.239108	-0.284081	-0.312273
O10	O	1.118864	-0.135075	-0.403550
O11	O	1.027532	-0.219851	-0.191867
O12	O	0.907156	-0.219825	-0.312236
O13	O	1.027523	-0.284034	-0.523844
O14	O	0.907110	-0.284036	-0.403423
O15	O	1.118804	-0.219821	-0.523898
O16	O	1.118635	-0.368829	-0.312200
O17	O	1.027427	-0.368809	-0.403402
C18	C	0.880186	-0.251928	-0.357824
C19	C	0.797641	-0.251932	-0.357824
C20	C	0.598193	-0.216974	-0.308351
C21	C	0.548768	-0.264661	-0.290064
C22	C	0.646510	-0.251948	-0.357858
C23	C	0.548854	-0.204277	-0.376143
C24	C	0.500525	-0.251959	-0.357889
C25	C	0.598172	-0.299660	-0.339535
C26	C	0.598262	-0.239244	-0.425646
C27	C	0.548859	-0.286965	-0.407384
C28	C	0.730608	-0.251941	-0.357838
C29	C	0.416429	-0.251971	-0.357909
C30	C	1.073034	-0.387790	-0.357807
C31	C	1.073057	-0.445904	-0.357807
C32	C	1.120668	-0.806228	-0.405460
C33	C	1.120690	-0.860832	-0.405475
O34	O	1.161046	-0.889035	-0.445932
N35	N	1.073241	-0.888186	-0.357937
C36	C	1.025763	-0.860933	-0.310386
O37	O	0.985405	-0.889214	-0.269953
C38	C	1.025738	-0.806330	-0.310375
C39	C	1.073195	-0.778979	-0.357911
C40	C	1.168121	-0.778876	-0.452993
C41	C	1.168100	-0.724275	-0.452977
C42	C	1.120626	-0.697027	-0.405428
C43	C	1.073173	-0.724378	-0.357895
C44	C	0.978255	-0.779078	-0.262828
C45	C	0.978234	-0.724471	-0.262822
C46	C	1.025691	-0.697120	-0.310358
C47	C	1.025679	-0.642529	-0.310330
N48	N	1.073127	-0.615174	-0.357868
C49	C	1.120601	-0.642423	-0.405417
C50	C	1.025818	-0.975604	-0.310413
C51	C	1.025846	-1.030206	-0.310420
C52	C	1.120773	-1.030101	-0.405510
C53	C	1.120748	-0.975498	-0.405499
C54	C	1.073267	-0.948250	-0.357951
C55	C	1.120553	-0.527758	-0.405379
C56	C	1.120530	-0.473153	-0.405356
C57	C	1.025601	-0.473263	-0.310269
C58	C	1.025627	-0.527863	-0.310288
C59	C	1.073105	-0.555110	-0.357849
O60	O	0.985341	-0.614291	-0.269896
O61	O	1.160944	-0.614136	-0.445850
C62	C	1.266844	-0.251967	-0.357907
C63	C	1.349390	-0.251976	-0.357925
C64	C	1.073168	-0.251924	-0.551571
C65	C	1.073180	-0.251914	-0.634117
C66	C	1.073264	-0.115574	-0.357940
C67	C	1.073318	-0.057460	-0.357972
C68	C	1.023580	-0.286785	-0.833538
C69	C	1.091333	-0.299569	-0.882933
C70	C	1.073217	-0.251874	-0.785247
C71	C	1.005500	-0.239076	-0.882934
C72	C	1.073246	-0.251837	-0.931232
C73	C	1.141006	-0.264683	-0.833556
C74	C	1.055127	-0.204168	-0.833551
C75	C	1.122927	-0.216933	-0.882925
C76	C	1.073199	-0.251897	-0.701149
C77	C	1.073272	-0.251814	-1.015329
C78	C	1.073152	-0.251933	-0.164913
C79	C	1.073284	-0.251795	-0.082368
H80	H	0.527150	-0.163963	-0.391570
N81	N	0.933642	-0.225522	-0.910143
N82	N	0.878916	-0.253267	-0.894307
H83	H	0.828165	-0.243699	-0.913522
N84	N	0.625576	-0.225744	-0.497519
N85	N	0.665192	-0.257198	-0.532553
H86	H	0.684486	-0.247659	-0.583313
N87	N	1.169261	-1.057933	-0.454098
N88	N	1.211624	-1.033510	-0.496545
H89	H	1.245867	-1.053167	-0.530859
N90	N	0.977108	-0.445433	-0.261691
N91	N	0.982075	-0.451562	-0.193169
H92	H	0.947822	-0.431908	-0.158862
N93	N	1.212889	-0.278292	-0.806470
N94	N	1.247894	-0.247069	-0.766448
H95	H	1.298661	-0.256680	-0.747318
H96	H	0.939567	-0.702289	-0.224104
N97	N	0.521478	-0.278145	-0.218171
N98	N	0.453254	-0.280682	-0.206828
H99	H	0.433981	-0.290201	-0.156051
H100	H	0.981643	-0.316347	-0.811854
H101	H	0.619854	-0.187429	-0.266440
H102	H	1.159178	-0.450885	-0.444065
N103	N	1.110559	-0.350153	-0.910163
N104	N	1.166786	-0.355846	-0.949777
H105	H	1.180361	-0.391572	-0.969007
H106	H	1.206741	-0.702009	-0.491687
H107	H	0.619746	-0.339992	-0.324019
N108	N	1.169054	-0.555576	-0.453966
N109	N	1.211415	-0.531140	-0.496399
H110	H	1.245672	-0.550786	-0.530712
H111	H	0.527335	-0.316580	-0.449263
H112	H	0.986989	-0.550134	-0.271575
N113	N	0.977308	-0.947775	-0.261844
N114	N	0.908781	-0.953917	-0.266702
H115	H	0.874519	-0.934265	-0.232402
N116	N	1.216619	-0.806696	-0.501576
N117	N	1.258978	-0.782258	-0.544009
H118	H	1.293237	-0.801903	-0.578322
H119	H	1.159391	-0.953231	-0.444208
N120	N	1.175648	-0.179873	-0.909972
N121	N	1.154702	-0.142694	-0.949574
H122	H	1.191937	-0.116521	-0.968677
H123	H	0.939611	-0.801339	-0.224119
N124	N	0.977379	-1.058134	-0.261845
N125	N	0.935001	-1.033791	-0.219393
H126	H	0.900767	-1.053513	-0.185086
N127	N	1.035880	-0.153590	-0.806325
N128	N	0.974411	-0.134111	-0.822117
H129	H	0.960810	-0.098389	-0.802888
