data_functionalizedCrystal
_audit_creation_method	'MofGen! by Chris Wilmer'
_symmetry_space_group_name_H-M	'P1'
_symmetry_Int_Tables_number	1
_symmetry_cell_setting	triclinic
loop_
_symmetry_equiv_pos_as_xyz
  x,y,z
_cell_length_a	25.639239
_cell_length_b	17.640112
_cell_length_c	17.640968
_cell_angle_alpha	87.860920
_cell_angle_beta	78.768889
_cell_angle_gamma	78.736162
loop_
_atom_site_label
_atom_site_type_symbol
_atom_site_fract_x
_atom_site_fract_y
_atom_site_fract_z
Zn1	Zn	-0.015023	-1.247772	-0.195080
Zn2	Zn	0.484977	-0.747772	0.304920
Zn3	Zn	-0.122899	-1.221957	-0.068099
Zn4	Zn	0.377101	-0.721957	0.431901
Zn5	Zn	-0.049036	-1.095090	-0.093726
Zn6	Zn	0.450964	-0.595090	0.406274
Zn7	Zn	-0.116017	-1.120701	-0.220680
Zn8	Zn	0.383983	-0.620701	0.279320
O9	O	-0.075744	-1.171380	-0.144396
O10	O	0.424256	-0.671380	0.355604
O11	O	-0.017980	-1.350622	-0.156797
O12	O	0.482020	-0.850622	0.343203
O13	O	-0.130216	-1.183606	0.034775
O14	O	0.369784	-0.683606	0.534775
O15	O	0.028654	-1.115429	-0.107183
O16	O	0.528654	-0.615429	0.392817
O17	O	-0.097236	-1.331655	-0.063504
O18	O	0.402764	-0.831655	0.436496
O19	O	0.053643	-1.227604	-0.181647
O20	O	0.553643	-0.727604	0.318353
O21	O	-0.075949	-1.090397	0.015946
O22	O	0.424051	-0.590397	0.515946
O23	O	-0.069275	-0.992213	-0.132006
O24	O	0.430725	-0.492213	0.367994
O25	O	-0.085505	-1.159079	-0.323557
O26	O	0.414495	-0.659079	0.176443
O27	O	-0.118485	-1.011029	-0.225279
O28	O	0.381515	-0.511029	0.274721
O29	O	-0.011306	-1.252438	-0.304749
O30	O	0.488694	-0.752438	0.195251
O31	O	-0.195165	-1.208439	-0.088327
O32	O	0.304835	-0.708439	0.411673
O33	O	-0.190108	-1.134047	-0.200429
O34	O	0.309892	-0.634047	0.299571
C35	C	-0.096824	-0.974065	-0.184202
C36	C	0.403176	-0.474065	0.315798
C37	C	-0.105852	-0.889657	-0.201249
C38	C	0.394148	-0.389657	0.298751
C39	C	-0.211606	-1.171245	-0.144387
C40	C	0.288394	-0.671245	0.355613
C41	C	-0.269716	-1.171262	-0.144395
C42	C	0.230284	-0.671262	0.355605
C43	C	-0.043844	-1.211495	-0.342479
C44	C	0.456156	-0.711495	0.157521
C45	C	-0.030250	-1.228589	-0.426890
C46	C	0.469750	-0.728589	0.073110
C47	C	-0.632657	-1.210259	-0.086082
C48	C	-0.132657	-0.710259	0.413918
C49	C	-0.687257	-1.210291	-0.086087
C50	C	-0.187257	-0.710291	0.413913
O51	O	-0.717705	-1.243308	-0.036496
O52	O	-0.217705	-0.743308	0.463504
N53	N	-0.711960	-1.171523	-0.144420
N54	N	-0.211960	-0.671523	0.355580
C55	C	-0.682060	-1.132728	-0.202757
C56	C	-0.182060	-0.632728	0.297243
O57	O	-0.708086	-1.099757	-0.252374
O58	O	-0.208086	-0.599757	0.247626
C59	C	-0.627461	-1.132702	-0.202755
C60	C	-0.127461	-0.632702	0.297245
C61	C	-0.602761	-1.171465	-0.144414
C62	C	-0.102761	-0.671465	0.355586
C63	C	-0.607957	-1.249020	-0.027746
C64	C	-0.107957	-0.749020	0.472254
C65	C	-0.553362	-1.248988	-0.027742
C66	C	-0.053362	-0.748988	0.472258
C67	C	-0.523466	-1.210194	-0.086073
C68	C	-0.023466	-0.710194	0.413927
C69	C	-0.548166	-1.171433	-0.144409
C70	C	-0.048166	-0.671433	0.355591
C71	C	-0.597561	-1.093912	-0.261094
C72	C	-0.097561	-0.593912	0.238906
C73	C	-0.542958	-1.093890	-0.261088
C74	C	-0.042958	-0.593890	0.238912
C75	C	-0.518258	-1.132653	-0.202747
C76	C	-0.018258	-0.632653	0.297253
C77	C	-0.463675	-1.132606	-0.202735
C78	C	0.036325	-0.632606	0.297265
N79	N	-0.438971	-1.171373	-0.144402
N80	N	0.061029	-0.671373	0.355598
C81	C	-0.468867	-1.210167	-0.086071
C82	C	0.031133	-0.710167	0.413929
C83	C	-0.796723	-1.132788	-0.202757
C84	C	-0.296723	-0.632788	0.297243
C85	C	-0.851323	-1.132809	-0.202756
C86	C	-0.351323	-0.632809	0.297244
C87	C	-0.856515	-1.210373	-0.086087
C88	C	-0.356515	-0.710373	0.413913
C89	C	-0.801915	-1.210347	-0.086085
C90	C	-0.301915	-0.710347	0.413915
C91	C	-0.772019	-1.171556	-0.144424
C92	C	-0.272019	-0.671556	0.355576
C93	C	-0.354212	-1.210095	-0.086065
C94	C	0.145788	-0.710095	0.413935
C95	C	-0.299612	-1.210056	-0.086064
C96	C	0.200388	-0.710056	0.413936
C97	C	-0.294424	-1.132496	-0.202735
C98	C	0.205576	-0.632496	0.297265
C99	C	-0.349020	-1.132531	-0.202735
C100	C	0.150980	-0.632531	0.297265
C101	C	-0.378912	-1.171336	-0.144396
C102	C	0.121088	-0.671336	0.355604
O103	O	-0.433192	-1.099609	-0.252303
O104	O	0.066808	-0.599609	0.247697
O105	O	-0.442832	-1.243141	-0.036467
O106	O	0.057168	-0.743141	0.463533
C107	C	0.060653	-1.171539	-0.144418
C108	C	0.560653	-0.671539	0.355582
C109	C	0.118778	-1.171607	-0.144427
C110	C	0.618778	-0.671607	0.355573
C111	C	-0.054581	-1.369465	-0.104436
C112	C	0.445419	-0.869465	0.395564
C113	C	-0.045563	-1.453877	-0.087407
C114	C	0.454437	-0.953877	0.412593
C115	C	-0.007149	-0.563036	-0.014898
C116	C	0.492851	-0.063036	0.485102
C117	C	-0.015641	-0.483724	-0.030927
C118	C	0.484359	0.016276	0.469073
C119	C	-0.067003	-0.503337	-0.127884
C120	C	0.432997	-0.003337	0.372116
C121	C	-0.058513	-0.582654	-0.111866
C122	C	0.441487	-0.082654	0.388134
C123	C	-0.028586	-0.612496	-0.055372
C124	C	0.471414	-0.112496	0.444628
C125	C	-0.079950	-0.632114	-0.152340
C126	C	0.420050	-0.132114	0.347660
C127	C	-0.071463	-0.711422	-0.136320
C128	C	0.428537	-0.211422	0.363680
C129	C	-0.041538	-0.741271	-0.079827
C130	C	0.458462	-0.241271	0.420173
C131	C	-0.020099	-0.691805	-0.039352
C132	C	0.479901	-0.191805	0.460648
C133	C	-0.109880	-0.602269	-0.208830
C134	C	0.390120	-0.102269	0.291170
C135	C	-0.131317	-0.651729	-0.249304
C136	C	0.368683	-0.151729	0.250696
C137	C	-0.122827	-0.731040	-0.233288
C138	C	0.377173	-0.231040	0.266712
C139	C	-0.092902	-0.760888	-0.176795
C140	C	0.407098	-0.260888	0.323205
C141	C	-0.144266	-0.780506	-0.273763
C142	C	0.355734	-0.280506	0.226237
C143	C	-0.135779	-0.859815	-0.257743
C144	C	0.364221	-0.359815	0.242257
C145	C	-0.084415	-0.840197	-0.160775
C146	C	0.415585	-0.340197	0.339225
C147	C	-0.178700	-1.041806	-0.753464
C148	C	0.321300	-0.541806	-0.253464
C149	C	-0.165918	-1.057885	-0.832778
C150	C	0.334082	-0.557885	-0.332778
C151	C	-0.088661	-1.155091	-0.813184
C152	C	0.411339	-0.655091	-0.313184
C153	C	-0.101435	-1.139017	-0.733867
C154	C	0.398565	-0.639017	-0.233867
C155	C	-0.146456	-1.082375	-0.704014
C156	C	0.353544	-0.582375	-0.204014
C157	C	-0.069190	-1.179586	-0.684417
C158	C	0.430810	-0.679586	-0.184417
C159	C	-0.081965	-1.163517	-0.605107
C160	C	0.418035	-0.663517	-0.105107
C161	C	-0.126985	-1.106878	-0.575247
C162	C	0.373015	-0.606878	-0.075247
C163	C	-0.159230	-1.066305	-0.624704
C164	C	0.340770	-0.566305	-0.124704
C165	C	-0.024172	-1.236233	-0.714271
C166	C	0.475828	-0.736233	-0.214271
C167	C	0.008072	-1.276802	-0.664821
C168	C	0.508072	-0.776802	-0.164821
C169	C	-0.004700	-1.260728	-0.585510
C170	C	0.495300	-0.760728	-0.085510
C171	C	-0.049719	-1.204090	-0.555650
C172	C	0.450281	-0.704090	-0.055650
C173	C	0.027546	-1.301302	-0.536054
C174	C	0.527546	-0.801302	-0.036054
C175	C	0.014771	-1.285232	-0.456743
C176	C	0.514771	-0.785232	0.043257
C177	C	-0.062494	-1.188020	-0.476340
C178	C	0.437506	-0.688020	0.023660
C179	C	-0.107478	-1.131465	0.052925
C180	C	0.392522	-0.631465	0.552925
C181	C	-0.120908	-1.114517	0.137365
C182	C	0.379092	-0.614517	0.637365
H183	H	-0.279504	-1.241621	-0.038553
H184	H	0.220496	-0.741621	0.461447
H185	H	-0.034630	-0.805849	-0.066783
H186	H	0.465370	-0.305849	0.433217
Br187	Br	-0.006837	-1.258047	-0.821907
Br188	Br	0.493163	-0.758047	-0.321907
Br189	Br	-0.144327	-1.085073	-0.467610
Br190	Br	0.355673	-0.585073	0.032390
H191	H	0.004281	-0.716106	0.006640
H192	H	0.504281	-0.216106	0.506640
Br193	Br	0.058529	-1.340295	-0.389626
Br194	Br	0.558529	-0.840295	0.110374
H195	H	-0.781808	-1.241912	-0.038579
H196	H	-0.281808	-0.741912	0.461421
Br197	Br	-0.502387	-1.041245	-0.340269
Br198	Br	-0.002387	-0.541245	0.159731
Br199	Br	0.013449	-0.416598	0.024017
Br200	Br	0.513449	0.083402	0.524017
Br201	Br	-0.394772	-1.262759	-0.006890
Br202	Br	0.105228	-0.762759	0.493110
H203	H	-0.369130	-1.100970	-0.250243
H204	H	0.130870	-0.600970	0.249757
Br205	Br	0.033473	-0.603546	0.061766
Br206	Br	0.533473	-0.103546	0.561766
H207	H	-0.099144	-1.141878	-0.452036
H208	H	0.400856	-0.641878	0.047964
H209	H	-0.091371	-0.479028	-0.173879
H210	H	0.408629	0.020972	0.326121
H211	H	-0.215350	-0.995663	-0.729160
H212	H	0.284650	-0.495663	-0.229160
H213	H	-0.116789	-0.537690	-0.221871
H214	H	0.383211	-0.037690	0.278129
H215	H	-0.880865	-1.241964	-0.038592
H216	H	-0.380865	-0.741964	0.461408
Br217	Br	-0.253840	-1.079853	-0.281898
Br218	Br	0.246160	-0.579853	0.218102
Br219	Br	-0.184895	-0.739992	-0.350413
Br220	Br	0.315105	-0.239992	0.149587
Br221	Br	-0.519847	-1.301611	0.051431
Br222	Br	-0.019847	-0.801611	0.551431
Br223	Br	-0.631065	-1.041311	-0.340284
Br224	Br	-0.131065	-0.541311	0.159716
H225	H	-0.155685	-0.627419	-0.295299
H226	H	0.344315	-0.127419	0.204701
H227	H	-0.632292	-1.280615	0.019755
H228	H	-0.132292	-0.780615	0.519755
Br229	Br	-0.164876	-0.926944	-0.312668
Br230	Br	0.335124	-0.426944	0.187332
H231	H	-0.192179	-1.024844	-0.873039
H232	H	0.307821	-0.524844	-0.373039
H233	H	-0.195880	-1.020163	-0.600400
H234	H	0.304120	-0.520163	-0.100400
H235	H	-0.052007	-1.201211	-0.837501
H236	H	0.447993	-0.701211	-0.337501
Br237	Br	0.069167	-1.353675	-0.705343
Br238	Br	0.569167	-0.853675	-0.205343
H239	H	-0.060036	-0.864498	-0.114783
H240	H	0.439964	-0.364498	0.385217
H241	H	-0.871430	-1.101236	-0.250258
H242	H	-0.371430	-0.601236	0.249742
Br243	Br	-0.756156	-1.080132	-0.281935
Br244	Br	-0.256156	-0.580132	0.218065
Br245	Br	0.088636	-1.378182	-0.576577
Br246	Br	0.588636	-0.878182	-0.076577
