data_functionalizedCrystal
_audit_creation_method	'MofGen! by Chris Wilmer'
_symmetry_space_group_name_H-M	'P1'
_symmetry_Int_Tables_number	1
_symmetry_cell_setting	triclinic
loop_
_symmetry_equiv_pos_as_xyz
  x,y,z
_cell_length_a	19.188930
_cell_length_b	11.792241
_cell_length_c	10.868271
_cell_angle_alpha	89.994719
_cell_angle_beta	90.018197
_cell_angle_gamma	96.330902
loop_
_atom_site_label
_atom_site_type_symbol
_atom_site_fract_x
_atom_site_fract_y
_atom_site_fract_z
O1	O	0.926947	-0.141694	0.102719
O2	O	1.260280	0.191639	0.436052
O3	O	1.593614	0.524972	0.769385
O4	O	0.723744	-0.160769	0.102634
O5	O	1.057077	0.172565	0.435968
O6	O	1.390411	0.505898	0.769301
O7	O	0.830277	0.014013	0.102670
O8	O	1.163610	0.347346	0.436003
O9	O	1.496943	0.680680	0.769337
O10	O	0.820414	-0.316476	0.102683
O11	O	1.153748	0.016858	0.436016
O12	O	1.487081	0.350191	0.769350
O13	O	0.830268	0.014020	-0.101975
O14	O	1.163601	0.347353	0.231359
O15	O	1.496935	0.680686	0.564692
O16	O	0.723735	-0.160762	-0.102010
O17	O	1.057068	0.172571	0.231323
O18	O	1.390402	0.505905	0.564656
O19	O	0.926938	-0.141688	-0.101926
O20	O	1.260272	0.191646	0.231407
O21	O	1.593605	0.524979	0.564741
Zn22	Zn	0.825335	-0.151224	-0.134460
Zn23	Zn	1.158669	0.182110	0.198873
Zn24	Zn	1.492002	0.515443	0.532207
Zn25	Zn	0.825347	-0.151233	0.135168
Zn26	Zn	1.158680	0.182101	0.468502
Zn27	Zn	1.492014	0.515434	0.801835
O28	O	0.820406	-0.316469	-0.101962
O29	O	1.153739	0.016864	0.231372
O30	O	1.487072	0.350198	0.564705
C31	C	0.697725	-0.160148	0.000301
C32	C	1.031058	0.173186	0.333635
C33	C	1.364392	0.506519	0.666968
C34	C	0.620210	-0.158293	0.000269
C35	C	0.953543	0.175040	0.333602
C36	C	1.286877	0.508373	0.666935
C37	C	0.575867	-0.260849	0.000292
C38	C	0.909200	0.072484	0.333626
C39	C	1.242534	0.405817	0.666959
C40	C	0.503033	-0.259107	0.000306
C41	C	0.836367	0.074226	0.333639
C42	C	1.169700	0.407559	0.666972
C43	C	0.474546	-0.154803	0.000320
C44	C	0.807879	0.178530	0.333654
C45	C	1.141213	0.511863	0.666987
C46	C	0.518899	-0.052234	0.000290
C47	C	0.852232	0.281099	0.333623
C48	C	1.185565	0.614433	0.666957
C49	C	0.591731	-0.053979	0.000264
C50	C	0.925064	0.279354	0.333598
C51	C	1.258397	0.612688	0.666931
N52	N	0.366117	-0.075078	0.070016
N53	N	0.699450	0.258255	0.403350
N54	N	1.032784	0.591588	0.736683
N55	N	0.296929	-0.073428	0.070043
N56	N	0.630262	0.259905	0.403377
N57	N	0.963596	0.593239	0.736710
C58	C	0.255107	-0.149540	0.000395
C59	C	0.588441	0.183794	0.333729
C60	C	0.921774	0.517127	0.667062
N61	N	0.285086	-0.227382	-0.069265
N62	N	0.618419	0.105951	0.264068
N63	N	0.951753	0.439285	0.597401
N64	N	0.354280	-0.229036	-0.069287
N65	N	0.687613	0.104297	0.264047
N66	N	1.020947	0.437631	0.597380
C67	C	0.395573	-0.152900	0.000348
C68	C	0.728906	0.180433	0.333681
C69	C	1.062239	0.513767	0.667014
C70	C	0.131789	-0.250214	0.000432
C71	C	0.465123	0.083119	0.333765
C72	C	0.798456	0.416453	0.667098
C73	C	0.058955	-0.248468	0.000438
C74	C	0.392288	0.084866	0.333771
C75	C	0.725621	0.418199	0.667104
C76	C	0.074822	-0.041591	0.000434
C77	C	0.408155	0.291742	0.333768
C78	C	0.741488	0.625075	0.667101
C79	C	0.147655	-0.043341	0.000416
C80	C	0.480988	0.289993	0.333749
C81	C	0.814321	0.623326	0.667083
C82	C	0.176134	-0.147655	0.000421
C83	C	0.509467	0.185678	0.333754
C84	C	0.842801	0.519012	0.667087
C85	C	0.829653	0.056298	0.000348
C86	C	1.162986	0.389631	0.333681
C87	C	1.496319	0.722965	0.667014
C88	C	0.827799	0.182284	0.000348
C89	C	1.161132	0.515617	0.333681
C90	C	1.494465	0.848951	0.667015
C91	C	0.952957	-0.142309	0.000410
C92	C	1.286291	0.191025	0.333743
C93	C	1.619624	0.524358	0.667077
C94	C	1.030472	-0.144163	0.000450
C95	C	1.363806	0.189170	0.333784
C96	C	1.697139	0.522504	0.667117
C97	C	0.821029	-0.358754	0.000363
C98	C	1.154363	-0.025421	0.333697
C99	C	1.487696	0.307913	0.667030
C100	C	0.822884	-0.484740	0.000371
C101	C	1.156217	-0.151407	0.333704
C102	C	1.489550	0.181927	0.667038
N103	N	0.825332	-0.151217	-0.318474
N104	N	1.158666	0.182116	0.014859
N105	N	1.491999	0.515450	0.348193
C106	C	0.824389	0.412945	0.000367
C107	C	1.157722	0.746278	0.333701
C108	C	1.491056	1.079612	0.667034
C109	C	0.826283	0.284588	0.000357
C110	C	1.159617	0.617922	0.333690
C111	C	1.492950	0.951255	0.667024
C112	C	0.825343	-0.151230	-0.569480
C113	C	1.158677	0.182103	-0.236147
C114	C	1.492010	0.515436	0.097187
C115	C	0.825335	-0.151226	-0.429803
C116	C	1.158668	0.182107	-0.096469
C117	C	1.492002	0.515440	0.236864
N118	N	0.825355	-0.151230	0.319182
N119	N	1.158689	0.182103	0.652516
N120	N	1.492022	0.515436	0.985849
H121	H	0.466922	-0.342624	0.000321
H122	H	0.800256	-0.009290	0.333655
H123	H	1.133589	0.324043	0.666988
H124	H	0.183760	0.040172	0.000404
H125	H	0.517093	0.373505	0.333737
H126	H	0.850427	0.706839	0.667070
H127	H	0.495700	0.032691	0.000319
H128	H	0.829033	0.366024	0.333652
H129	H	1.162366	0.699358	0.666986
H130	H	0.627836	0.029537	0.000246
H131	H	0.961169	0.362871	0.333579
H132	H	1.294502	0.696204	0.666913
H133	H	0.154978	-0.335153	0.000417
H134	H	0.488311	-0.001820	0.333751
H135	H	0.821645	0.331514	0.667084
H136	H	0.599050	-0.345790	0.000298
H137	H	0.932383	-0.012457	0.333632
H138	H	1.265716	0.320876	0.666965
H139	H	0.022850	-0.331985	0.000450
H140	H	0.356184	0.001348	0.333783
H141	H	0.689517	0.334682	0.667116
H142	H	0.051628	0.043335	0.000523
H143	H	0.384961	0.376668	0.333856
H144	H	0.718295	0.710002	0.667189
