data_functionalizedCrystal
_audit_creation_method	'MofGen! by Chris Wilmer'
_symmetry_space_group_name_H-M	'P1'
_symmetry_Int_Tables_number	1
_symmetry_cell_setting	triclinic
loop_
_symmetry_equiv_pos_as_xyz
  x,y,z
_cell_length_a	15.995350
_cell_length_b	16.053810
_cell_length_c	16.992695
_cell_angle_alpha	92.759297
_cell_angle_beta	87.080298
_cell_angle_gamma	87.435524
loop_
_atom_site_label
_atom_site_type_symbol
_atom_site_fract_x
_atom_site_fract_y
_atom_site_fract_z
O1	O	1.121041	-0.069347	0.097759
O2	O	0.878101	-0.069363	0.110239
O3	O	0.998597	-0.069362	-0.010144
O4	O	1.000544	-0.069347	0.218142
O5	O	0.991994	0.069497	-0.003520
O6	O	0.871498	0.069496	0.116863
O7	O	1.114437	0.069512	0.104383
Zn8	Zn	0.991919	0.091551	0.111675
Zn9	Zn	1.000619	-0.091401	0.102947
O10	O	0.993941	0.069511	0.224766
C11	C	0.843570	0.000065	0.113035
C12	C	0.750517	0.000058	0.111487
C13	C	0.992790	0.000064	-0.036045
C14	C	0.985314	0.000052	-0.123090
N15	N	0.985987	0.216411	0.117630
C16	C	0.412397	0.000075	0.105933
C17	C	0.454079	0.000379	0.020213
C18	C	0.550888	0.000061	0.021745
C19	C	0.580142	0.000067	0.108688
C20	C	0.545655	-0.079222	0.147193
C21	C	0.448878	-0.079283	0.145036
C22	C	0.441148	0.078626	0.154341
C23	C	0.538043	0.079668	0.154370
C24	C	0.674944	0.000060	0.110250
C25	C	0.317594	0.000077	0.104374
C26	C	1.148968	0.000083	0.101587
C27	C	1.242022	0.000084	0.103134
N28	N	1.006557	-0.216262	0.096985
C29	C	0.955272	0.740043	0.148196
C30	C	0.959441	0.652636	0.144044
C31	C	1.014900	0.608927	0.088686
C32	C	1.066187	0.652628	0.037469
C33	C	1.062013	0.740033	0.041618
C34	C	1.033101	0.347518	0.070562
C35	C	1.037272	0.260106	0.066420
C36	C	0.930525	0.260121	0.172994
C37	C	0.926360	0.347527	0.177140
C38	C	0.977644	0.391221	0.125922
N39	N	1.019164	0.519583	0.084443
N40	N	0.973375	0.480563	0.130161
C41	C	0.999748	0.000084	0.250666
C42	C	1.007224	0.000090	0.337711
C43	C	0.935089	0.000085	0.387951
C44	C	0.942119	0.000075	0.469737
C45	C	1.021285	0.000076	0.501282
C46	C	1.093426	0.000078	0.451035
C47	C	1.086395	0.000082	0.369250
C48	C	1.050424	0.000059	0.744879
C49	C	1.057449	0.000057	0.826670
C50	C	0.906142	0.000052	0.845367
C51	C	0.899118	0.000061	0.763580
C52	C	0.971259	0.000059	0.713340
N53	N	1.028473	0.000068	0.584880
N54	N	0.964071	0.000061	0.629743
H55	H	0.430560	0.057240	-0.011345
N56	N	0.563706	0.086020	0.238658
H57	H	0.512319	0.085321	0.275668
H58	H	0.592849	0.139821	0.248237
H59	H	1.103774	0.775609	-0.000085
H60	H	1.111340	0.617035	-0.007609
N61	N	0.875202	0.212992	0.228222
H62	H	0.839435	0.253945	0.263919
H63	H	0.911298	0.176746	0.261189
N64	N	1.088425	0.394635	0.015331
H65	H	1.077369	0.456639	0.026353
H66	H	1.075771	0.379331	-0.041027
H67	H	1.082437	0.224522	0.021337
H68	H	0.413591	0.079167	0.217578
N69	N	1.142839	0.000061	0.860696
H70	H	1.187474	0.000059	0.816460
H71	H	1.151493	-0.051414	0.891765
H72	H	0.847410	0.000053	0.886280
N73	N	0.407694	0.158240	0.121010
H74	H	0.371101	0.191188	0.162785
H75	H	0.373592	0.144125	0.074182
H76	H	1.145135	0.000083	0.328345
N77	N	0.849702	0.000094	0.353931
H78	H	0.805073	0.000089	0.398172
H79	H	0.845933	-0.051379	0.317943
H80	H	0.579215	-0.056880	-0.014436
H81	H	0.834654	0.000051	0.737902
N82	N	0.567789	0.157372	0.117192
H83	H	0.608366	0.141089	0.070951
H84	H	0.596702	0.192544	0.157490
N85	N	1.128228	0.000069	0.690698
H86	H	1.164977	-0.051401	0.698385
H87	H	1.160005	0.051583	0.703336
H88	H	0.434893	-0.056173	-0.016597
N89	N	0.895457	0.787184	0.207906
H90	H	0.863599	0.746237	0.239716
H91	H	0.854708	0.823427	0.179582
H92	H	1.157884	0.000081	0.476725
H93	H	0.574390	0.056898	-0.008784
H94	H	0.574871	-0.138235	0.115007
H95	H	0.431325	-0.138558	0.111371
H96	H	0.883379	0.000068	0.510640
H97	H	0.421012	-0.082877	0.207810
H98	H	0.917680	0.617060	0.185744
N99	N	0.570218	-0.083137	0.231613
H100	H	0.604018	-0.033431	0.245743
H101	H	0.604975	-0.136283	0.237767
N102	N	0.866525	0.394670	0.236833
H103	H	0.834661	0.353725	0.268640
H104	H	0.825783	0.430903	0.208491
