data_functionalizedCrystal
_audit_creation_method	'MofGen! by Chris Wilmer'
_symmetry_space_group_name_H-M	'P1'
_symmetry_Int_Tables_number	1
_symmetry_cell_setting	triclinic
loop_
_symmetry_equiv_pos_as_xyz
  x,y,z
_cell_length_a	12.645331
_cell_length_b	12.594516
_cell_length_c	12.594509
_cell_angle_alpha	89.973672
_cell_angle_beta	89.978500
_cell_angle_gamma	90.010795
loop_
_atom_site_label
_atom_site_type_symbol
_atom_site_fract_x
_atom_site_fract_y
_atom_site_fract_z
Zn1	Zn	1.620762	-0.423755	-0.601859
Zn2	Zn	1.620666	-0.601761	-0.423882
Zn3	Zn	1.443480	-0.423793	-0.423888
Zn4	Zn	1.443477	-0.601689	-0.601812
O5	O	1.532096	-0.512750	-0.512860
O6	O	1.769097	-0.447382	-0.578267
O7	O	1.597123	-0.578199	-0.274937
O8	O	1.467039	-0.274843	-0.447519
O9	O	1.769026	-0.578162	-0.447508
O10	O	1.597287	-0.274815	-0.578274
O11	O	1.466946	-0.447447	-0.274942
O12	O	1.295133	-0.447378	-0.447474
O13	O	1.467033	-0.578040	-0.750764
O14	O	1.295130	-0.578077	-0.578193
O15	O	1.597284	-0.447313	-0.750799
O16	O	1.597119	-0.750697	-0.447462
O17	O	1.466939	-0.750644	-0.578187
C18	C	1.256667	-0.512724	-0.512830
C19	C	1.138837	-0.512739	-0.512842
C20	C	0.971239	-0.430138	-0.431060
C21	C	1.093799	-0.430352	-0.430699
C22	C	1.094328	-0.624864	-0.482202
C23	C	0.971730	-0.624413	-0.481644
C24	C	0.971682	-0.484282	-0.625579
C25	C	1.094287	-0.481778	-0.624953
C26	C	1.532047	-0.789291	-0.512842
C27	C	1.532123	-0.907596	-0.512870
C28	C	1.603010	-0.976839	-0.441844
C29	C	1.628917	-1.047539	-0.538994
C30	C	1.506349	-1.047695	-0.415782
C31	C	1.558079	-0.976737	-0.610070
C32	C	1.435467	-0.976888	-0.486793
C33	C	1.461336	-1.047555	-0.584009
C34	C	1.808602	-0.512776	-0.512892
C35	C	1.926432	-0.512787	-0.512905
C36	C	1.532169	-0.512664	-0.790481
C37	C	1.532200	-0.512627	-0.908787
C38	C	1.532174	-0.235129	-0.512902
C39	C	1.532208	-0.116823	-0.512920
C40	C	1.461401	-0.583641	-1.048785
C41	C	1.435475	-0.486575	-0.977983
C42	C	1.558077	-0.609683	-0.978018
C43	C	1.506284	-0.415377	-1.048770
C44	C	1.628932	-0.538550	-1.048812
C45	C	1.603043	-0.441418	-0.978041
C46	C	1.532085	-0.512758	-0.236319
C47	C	1.532260	-0.512495	-0.118015
H48	H	1.123890	-0.347207	-0.449904
O49	O	1.337987	-0.939647	-0.460482
C50	C	1.228575	-0.785671	-0.431816
C51	C	1.339012	-0.827705	-0.461667
H52	H	1.229373	-0.695162	-0.432743
H53	H	1.167934	-0.815912	-0.491553
H54	H	1.206674	-0.814834	-0.348972
H55	H	1.361012	-0.798559	-0.544487
H56	H	1.399589	-0.797473	-0.401862
H57	H	1.124950	-0.537584	-0.689196
O58	O	1.480476	-1.084929	-0.317779
C59	C	1.534290	-1.190249	-0.167444
C60	C	1.563722	-1.148139	-0.278413
H61	H	1.601568	-1.241381	-0.135592
H62	H	1.520252	-1.120561	-0.111450
H63	H	1.459213	-1.240042	-0.173171
H64	H	1.638812	-1.098363	-0.272788
H65	H	1.577691	-1.217875	-0.334363
O66	O	1.128920	-0.452780	-0.331145
C67	C	1.280048	-0.478618	-0.217556
C68	C	1.240419	-0.453176	-0.330347
H69	H	1.370198	-0.478969	-0.216879
H70	H	1.249790	-0.415811	-0.159908
H71	H	1.249482	-0.559992	-0.192393
H72	H	1.270969	-0.371831	-0.355609
H73	H	1.270666	-0.516048	-0.387928
H74	H	0.940776	-0.403948	-0.653444
H75	H	1.710688	-0.560567	-1.079946
O76	O	1.389751	-0.655140	-1.085803
C77	C	1.206844	-0.708516	-1.091656
C78	C	1.287872	-0.627462	-1.049681
H79	H	1.124460	-0.686180	-1.062450
H80	H	1.207982	-0.708326	-1.182168
H81	H	1.228123	-0.791101	-1.061363
H82	H	1.266649	-0.544837	-1.079896
H83	H	1.286718	-0.627745	-0.959171
H84	H	1.579940	-0.691819	-0.946940
O85	O	1.337908	-0.460197	-0.940986
C86	C	1.199556	-0.328734	-0.936473
C87	C	1.310049	-0.358471	-0.978459
H88	H	1.177007	-0.246477	-0.966734
H89	H	1.139199	-0.389343	-0.965562
H90	H	1.200695	-0.328342	-0.845964
H91	H	1.309014	-0.358850	-1.068965
H92	H	1.370359	-0.297854	-0.949288
O93	O	1.674618	-0.369777	-0.941154
C94	C	1.832368	-0.341272	-0.837743
C95	C	1.751409	-0.422522	-0.879472
H96	H	1.894461	-0.383881	-0.787846
H97	H	1.872446	-0.300083	-0.907624
H98	H	1.790081	-0.279679	-0.786805
H99	H	1.793616	-0.484179	-0.930394
H100	H	1.711334	-0.463630	-0.809544
H101	H	1.484330	-0.333218	-1.079719
O102	O	0.937731	-0.653216	-0.383308
C103	C	0.987012	-0.705823	-0.206131
C104	C	1.025652	-0.673196	-0.317446
H105	H	1.058075	-0.722008	-0.152857
H106	H	0.937575	-0.638983	-0.170632
H107	H	0.936767	-0.780711	-0.212523
H108	H	1.075939	-0.598333	-0.311147
H109	H	1.075032	-0.740099	-0.352904
H110	H	0.940394	-0.448769	-0.348055
O111	O	0.935912	-0.330695	-0.453671
C112	C	0.784647	-0.216295	-0.474792
C113	C	0.824514	-0.328957	-0.449124
H114	H	0.694577	-0.214858	-0.471146
H115	H	0.818074	-0.157813	-0.414434
H116	H	0.811785	-0.192824	-0.557881
H117	H	0.797389	-0.352527	-0.366063
H118	H	0.791095	-0.387373	-0.509548
O119	O	0.936540	-0.700436	-0.549668
C120	C	0.983664	-0.838394	-0.673446
C121	C	1.023654	-0.752357	-0.596427
H122	H	1.054075	-0.880382	-0.711289
H123	H	0.933727	-0.898600	-0.628055
H124	H	0.933574	-0.799837	-0.738072
H125	H	1.073787	-0.790821	-0.531785
H126	H	1.073534	-0.692161	-0.641892
H127	H	1.124988	-0.649452	-0.400716
O128	O	1.128810	-0.383265	-0.652478
C129	C	1.080538	-0.204179	-0.699254
C130	C	1.041293	-0.315691	-0.668079
H131	H	1.009800	-0.149520	-0.711898
H132	H	1.132540	-0.171024	-0.633191
H133	H	1.128338	-0.209467	-0.775833
H134	H	0.993448	-0.310495	-0.591526
H135	H	0.989346	-0.348805	-0.734205
H136	H	1.401426	-1.078410	-0.644164
O137	O	0.937245	-0.556022	-0.698466
C138	C	0.939070	-0.611027	-0.881682
C139	C	0.978175	-0.529721	-0.799256
H140	H	0.972126	-0.589779	-0.963194
H141	H	0.967083	-0.693817	-0.858256
H142	H	0.848976	-0.609636	-0.884623
H143	H	1.068265	-0.531017	-0.796274
H144	H	0.950081	-0.446969	-0.822714
H145	H	1.662967	-0.945788	-0.381835
O146	O	1.726537	-1.084525	-0.565167
C147	C	1.911581	-1.090405	-0.519927
C148	C	1.801082	-1.048474	-0.490161
H149	H	1.971885	-1.061256	-0.459314
H150	H	1.910544	-1.180916	-0.520406
H151	H	1.934129	-1.060022	-0.602157
H152	H	1.778467	-1.078778	-0.407925
H153	H	1.802179	-0.957963	-0.489755
O154	O	1.584277	-0.939543	-0.708000
C155	C	1.613557	-0.785618	-0.817857
C156	C	1.583895	-0.827598	-0.706900
H157	H	1.613236	-0.695106	-0.817010
H158	H	1.695759	-0.815271	-0.840270
H159	H	1.553556	-0.815410	-0.878461
H160	H	1.643824	-0.797823	-0.646222
H161	H	1.501666	-0.797953	-0.684577
H162	H	1.123503	-0.688089	-0.539944
