data_functionalizedCrystal
_audit_creation_method	'MofGen! by Chris Wilmer'
_symmetry_space_group_name_H-M	'P1'
_symmetry_Int_Tables_number	1
_symmetry_cell_setting	triclinic
loop_
_symmetry_equiv_pos_as_xyz
  x,y,z
_cell_length_a	10.540510
_cell_length_b	15.021413
_cell_length_c	10.540539
_cell_angle_alpha	89.993806
_cell_angle_beta	84.519401
_cell_angle_gamma	90.007637
loop_
_atom_site_label
_atom_site_type_symbol
_atom_site_fract_x
_atom_site_fract_y
_atom_site_fract_z
O1	O	1.685916	0.074033	0.178704
O2	O	1.316498	0.074033	0.195599
O3	O	1.509635	0.074032	0.002444
O4	O	1.492779	0.074034	0.371859
O5	O	1.509605	-0.074032	0.002471
O6	O	1.316468	-0.074031	0.195626
O7	O	1.685885	-0.074031	0.178731
Zn8	Zn	1.501172	-0.097539	0.187183
Zn9	Zn	1.501212	0.097542	0.187147
O10	O	1.492748	-0.074030	0.371886
C11	C	1.269179	0.000001	0.194354
C12	C	1.128229	0.000001	0.190587
C13	C	0.910774	0.000342	0.324771
C14	C	1.057370	0.000003	0.328789
C15	C	1.083452	-0.084549	0.119856
C16	C	0.936691	-0.084614	0.116817
C17	C	0.936920	0.083762	0.113908
C18	C	1.083261	0.084874	0.120463
N19	N	1.501153	-0.230677	0.187207
C20	C	1.411832	-0.470360	0.276480
C21	C	1.526766	-0.529694	0.302146
C22	C	1.501185	-0.412284	0.187176
C23	C	1.386283	-0.529691	0.161538
C24	C	1.501206	-0.587708	0.187148
C25	C	1.616178	-0.470312	0.212900
C26	C	1.475618	-0.470304	0.072241
C27	C	1.590635	-0.529611	0.097860
C28	C	1.501172	-0.311227	0.187195
C29	C	1.501233	-0.688763	0.187128
C30	C	1.733204	0.000003	0.179976
C31	C	1.874154	0.000009	0.183743
C32	C	1.508356	0.000002	-0.044845
C33	C	1.504574	0.000006	-0.185793
N34	N	1.501241	0.230679	0.187113
C35	C	1.359655	0.000339	-0.369204
C36	C	1.363489	0.000005	-0.222587
C37	C	1.572453	-0.084546	-0.247442
C38	C	1.567638	-0.084617	-0.393986
C39	C	1.570542	0.083760	-0.394536
C40	C	1.571842	0.084878	-0.247554
C41	C	1.494028	0.000002	0.419175
C42	C	1.497810	0.000004	0.560123
H43	H	0.867254	-0.059949	0.378314
H44	H	1.111892	0.147424	0.171925
H45	H	1.336347	-0.444344	0.352063
N46	N	1.702423	-0.088523	-0.219403
N47	N	1.771843	-0.151589	-0.260785
H48	H	1.863634	-0.154400	-0.240977
H49	H	0.914766	0.084333	0.010146
N50	N	0.886238	-0.163895	0.177511
N51	N	0.902703	-0.178896	0.291428
H52	H	0.867079	-0.234889	0.334300
H53	H	1.132330	0.089980	0.019564
N54	N	1.698392	0.084473	-0.453761
N55	N	1.771708	0.021192	-0.436213
H56	H	1.862001	0.021689	-0.478039
H57	H	1.666290	-0.555464	0.022323
N58	N	1.290041	-0.075317	-0.407070
N59	N	1.329722	-0.152114	-0.387969
H60	H	1.280568	-0.205551	-0.414714
H61	H	1.548410	-0.555781	0.399332
N62	N	1.296473	0.076026	-0.169115
N63	N	1.287839	0.088781	-0.051422
H64	H	1.240503	0.142472	-0.013660
H65	H	1.525275	-0.147466	-0.204826
H66	H	1.713380	-0.444339	0.234689
N67	N	1.448413	-0.437560	-0.049641
N68	N	1.345040	-0.456551	-0.092136
H69	H	1.325812	-0.433426	-0.178216
N70	N	1.289717	0.076385	-0.405091
N71	N	1.177432	0.087998	-0.358374
H72	H	1.128033	0.141706	-0.383728
N73	N	1.295982	-0.076159	-0.170191
N74	N	1.245895	-0.129239	-0.241925
H75	H	1.198217	-0.183035	-0.204924
N76	N	0.858178	0.076407	0.392323
N77	N	0.930160	0.131360	0.438329
H78	H	0.893010	0.185086	0.486038
H79	H	1.517446	-0.147821	-0.422168
N80	N	1.264370	-0.562417	0.134367
N81	N	1.167118	-0.543436	0.206574
H82	H	1.081014	-0.566548	0.187398
N83	N	1.122150	-0.163479	0.181511
N84	N	1.182692	-0.157681	0.277526
H85	H	1.210022	-0.213424	0.321077
N86	N	1.694926	-0.089441	-0.454165
N87	N	1.787031	-0.092751	-0.387895
H88	H	1.876928	-0.096164	-0.430390
H89	H	1.524893	0.147845	-0.426096
N90	N	1.509607	0.163342	-0.196207
N91	N	1.416060	0.156851	-0.114426
H92	H	1.372103	0.212265	-0.078155
N93	N	1.700881	0.091268	-0.217176
N94	N	1.778323	0.030543	-0.249654
H95	H	1.869461	0.035049	-0.228194
N96	N	1.094222	0.075997	0.398282
N97	N	1.209050	0.088731	0.413183
H98	H	1.235070	0.142393	0.462291
N99	N	0.907849	-0.089453	-0.012852
N100	N	0.945155	-0.154490	-0.080376
H101	H	0.924790	-0.157915	-0.171954
N102	N	1.092966	-0.076119	0.398750
N103	N	1.009490	-0.129166	0.444746
H104	H	1.034623	-0.182916	0.494195
H105	H	1.130841	-0.087694	0.018115
H106	H	0.894385	0.147847	0.157479
