data_functionalizedCrystal
_audit_creation_method	'MofGen! by Chris Wilmer'
_symmetry_space_group_name_H-M	'P1'
_symmetry_Int_Tables_number	1
_symmetry_cell_setting	triclinic
loop_
_symmetry_equiv_pos_as_xyz
  x,y,z
_cell_length_a	17.038278
_cell_length_b	10.066323
_cell_length_c	11.026607
_cell_angle_alpha	100.716828
_cell_angle_beta	99.848259
_cell_angle_gamma	80.599741
loop_
_atom_site_label
_atom_site_type_symbol
_atom_site_fract_x
_atom_site_fract_y
_atom_site_fract_z
O1	O	1.065954	0.113492	0.284248
O2	O	1.565954	0.613492	0.784248
O3	O	0.837726	0.113492	0.280005
O4	O	1.337726	0.613492	0.780005
O5	O	0.932925	0.113487	0.103520
O6	O	1.432925	0.613487	0.603520
O7	O	0.970755	0.113497	0.460733
O8	O	1.470755	0.613497	0.960733
O9	O	0.951094	-0.113488	0.069796
O10	O	1.451094	0.386512	0.569796
O11	O	0.855895	-0.113482	0.246281
O12	O	1.355895	0.386518	0.746281
O13	O	1.084124	-0.113483	0.250523
O14	O	1.584124	0.386517	0.750523
Zn15	Zn	0.972894	-0.149520	0.243048
Zn16	Zn	1.472894	0.350480	0.743048
Zn17	Zn	0.948955	0.149529	0.287481
Zn18	Zn	1.448955	0.649529	0.787481
O19	O	0.988924	-0.113478	0.427008
O20	O	1.488924	0.386522	0.927008
C21	C	0.817138	0.000005	0.259282
C22	C	1.317138	0.500005	0.759282
C23	C	0.728722	0.000005	0.247761
C24	C	1.228722	0.500005	0.747761
N25	N	0.989237	-0.353613	0.212723
N26	N	1.489237	0.146387	0.712723
C27	C	0.228337	0.000009	0.176985
C28	C	0.728337	0.500009	0.676985
C29	C	0.311414	0.000001	0.187818
C30	C	0.811414	0.500001	0.687818
C31	C	0.359280	0.000010	0.304438
C32	C	0.859280	0.500010	0.804438
C33	C	0.324065	0.000013	0.410230
C34	C	0.824065	0.500013	0.910230
C35	C	0.240990	0.000012	0.399394
C36	C	0.740990	0.500012	0.899394
C37	C	0.610431	0.000007	0.342717
C38	C	1.110431	0.500007	0.842717
C39	C	0.693512	0.000013	0.353545
C40	C	1.193512	0.500013	0.853545
C41	C	0.680855	-0.000003	0.131132
C42	C	1.180855	0.499997	0.631132
C43	C	0.597778	0.000004	0.120308
C44	C	1.097778	0.500004	0.620308
C45	C	0.562571	0.000000	0.226099
C46	C	1.062571	0.500000	0.726099
C47	C	0.444198	0.000006	0.315515
C48	C	0.944198	0.500006	0.815515
C49	C	0.477655	-0.000006	0.215019
C50	C	0.977655	0.499994	0.715019
C51	C	0.967223	-0.578572	0.253590
C52	C	1.467223	-0.078572	0.753590
C53	C	0.954626	-0.421415	0.276939
C54	C	1.454626	0.078585	0.776939
C55	C	1.104711	0.000007	0.271248
C56	C	1.604711	0.500007	0.771248
C57	C	1.193127	0.000016	0.282769
C58	C	1.693127	0.500016	0.782769
C59	C	0.935030	0.000001	0.040727
C60	C	1.435030	0.500001	0.540727
C61	C	0.914225	0.000006	-0.096134
C62	C	1.414225	0.500006	0.403866
N63	N	0.932617	0.353622	0.317797
N64	N	1.432617	0.853622	0.817797
C65	C	0.971671	0.000008	-0.164009
C66	C	1.471671	0.500008	0.335991
C67	C	0.950169	0.000013	-0.305462
C68	C	1.450169	0.500013	0.194538
C69	C	0.986819	0.000011	0.489802
C70	C	1.486819	0.500011	0.989802
C71	C	1.007623	0.000015	0.626664
C72	C	1.507623	0.500015	1.126664
H73	H	0.189369	0.000009	0.082022
H74	H	0.689369	0.500009	0.582022
H75	H	0.581776	0.000011	0.428861
H76	H	1.081776	0.500011	0.928861
Cl77	Cl	0.813712	0.000020	-0.168085
Cl78	Cl	1.313712	0.500020	0.331915
Cl79	Cl	1.108140	0.000021	-0.301390
Cl80	Cl	1.608140	0.500021	0.198610
H81	H	1.036771	-0.000000	-0.117399
H82	H	1.536771	0.500000	0.382601
Cl83	Cl	1.049387	-0.443602	0.101163
Cl84	Cl	1.549387	0.056398	0.601163
H85	H	0.483180	0.000018	0.410468
H86	H	0.983180	0.500018	0.910468
Cl87	Cl	0.849651	0.000027	-0.377408
Cl88	Cl	1.349651	0.500027	0.122592
H89	H	0.340078	-0.000011	0.101676
H90	H	0.840078	0.499989	0.601676
H91	H	0.438678	0.000002	0.120070
H92	H	0.938678	0.500002	0.620070
Cl93	Cl	0.537606	0.000041	-0.026299
Cl94	Cl	1.037606	0.500041	0.473701
H95	H	0.709530	-0.000001	0.045004
H96	H	1.209530	0.499999	0.545004
Cl97	Cl	0.894486	-0.331425	0.388513
Cl98	Cl	1.394486	0.168575	0.888513
H99	H	0.212324	0.000013	0.485535
H100	H	0.712324	0.500013	0.985535
H101	H	0.893667	-0.588082	0.390058
H102	H	1.393667	-0.088082	0.890058
H103	H	0.732484	0.000001	0.448513
H104	H	1.232484	0.500001	0.948513
H105	H	1.006180	-0.636866	0.181337
H106	H	1.506180	-0.136866	0.681337
Cl107	Cl	0.384239	0.000023	0.556839
Cl108	Cl	0.884239	0.500023	1.056839
