data_functionalizedCrystal
_audit_creation_method	'MofGen! by Chris Wilmer'
_symmetry_space_group_name_H-M	'P1'
_symmetry_Int_Tables_number	1
_symmetry_cell_setting	triclinic
loop_
_symmetry_equiv_pos_as_xyz
  x,y,z
_cell_length_a	8.559649
_cell_length_b	17.038272
_cell_length_c	7.681481
_cell_angle_alpha	83.842174
_cell_angle_beta	94.913240
_cell_angle_gamma	80.445110
loop_
_atom_site_label
_atom_site_type_symbol
_atom_site_fract_x
_atom_site_fract_y
_atom_site_fract_z
O1	O	2.102567	-0.018069	-0.146400
O2	O	1.642806	0.021983	-0.146410
O3	O	1.869955	-0.111695	-0.146391
O4	O	1.875418	0.115610	-0.146419
O5	O	1.897909	-0.128182	0.146469
O6	O	1.670760	0.005496	0.146450
O7	O	2.130521	-0.034556	0.146460
Zn8	Zn	1.905079	-0.017147	0.192953
Zn9	Zn	1.868248	0.004575	-0.192903
O10	O	1.903372	0.099123	0.146441
C11	C	1.597666	0.016775	0.000018
C12	C	1.421513	0.025810	0.000015
C13	C	1.878962	-0.148769	0.000039
C14	C	1.864132	-0.234673	0.000038
C15	C	2.000285	-0.292946	0.000043
C16	C	1.986340	-0.373660	0.000026
C17	C	1.836242	-0.396101	0.000016
C18	C	1.700079	-0.337821	0.000006
C19	C	1.714024	-0.257108	0.000010
C20	C	1.786975	-0.638906	-0.000009
C21	C	1.773041	-0.719626	-0.000008
C22	C	2.059303	-0.755459	0.000008
C23	C	2.073236	-0.674743	0.000023
C24	C	1.937072	-0.616470	0.000004
C25	C	1.821985	-0.478604	0.000004
C26	C	1.951329	-0.533968	0.000003
C27	C	2.175661	-0.029347	0.000028
C28	C	2.351812	-0.038381	0.000020
C29	C	1.894365	0.136197	0.000008
C30	C	1.909193	0.222102	-0.000003
N31	N	1.930226	-0.031973	0.456289
N32	N	1.843113	0.019394	-0.456239
H33	H	1.346417	0.087683	-0.000002
H34	H	1.754187	0.071824	0.468556
H35	H	2.019169	-0.084402	0.531503
H36	H	1.676100	-0.591469	-0.000025
H37	H	1.426899	-0.100250	0.000019
H38	H	2.122512	-0.274682	0.000061
H39	H	2.097211	-0.421103	0.000034
O40	O	1.554400	-0.359759	0.000074
C41	C	1.406038	-0.468213	-0.000032
C42	C	1.571121	-0.443484	-0.000076
H43	H	1.419497	-0.535903	-0.000191
H44	H	1.349868	-0.450466	0.122555
H45	H	1.326513	-0.436561	-0.122568
H46	H	1.650770	-0.475124	0.122376
H47	H	1.627163	-0.461216	-0.122745
H48	H	2.195461	-0.656479	0.000031
O49	O	2.191655	-0.811978	-0.000226
C50	C	2.417512	-0.858778	-0.152012
C51	C	2.267683	-0.794708	-0.151935
H52	H	2.479005	-0.844847	-0.274674
H53	H	2.502641	-0.858643	-0.029535
H54	H	2.381738	-0.920317	-0.151934
H55	H	2.303309	-0.733137	-0.152075
H56	H	2.182592	-0.794913	-0.274402
O57	O	1.581611	-0.200606	0.000084
C58	C	1.296196	-0.173572	-0.000052
C59	C	1.446032	-0.237644	-0.000080
H60	H	1.186540	-0.203490	-0.000222
H61	H	1.307149	-0.141797	0.122535
H62	H	1.283971	-0.127979	-0.122588
H63	H	1.458348	-0.283287	0.122373
H64	H	1.435013	-0.269357	-0.122748
H65	H	1.650810	-0.737894	0.000013
O66	O	1.676250	-0.500492	-0.000224
C67	C	1.479870	-0.562246	-0.152000
C68	C	1.644954	-0.537512	-0.151936
H69	H	1.454501	-0.592166	-0.274665
H70	H	1.477862	-0.606090	-0.029525
H71	H	1.384975	-0.506731	-0.151906
H72	H	1.739942	-0.592980	-0.152093
H73	H	1.646826	-0.493640	-0.274400
H74	H	2.073534	-0.515691	-0.000028
