data_functionalizedCrystal
_audit_creation_method	'MofGen! by Chris Wilmer'
_symmetry_space_group_name_H-M	'P1'
_symmetry_Int_Tables_number	1
_symmetry_cell_setting	triclinic
loop_
_symmetry_equiv_pos_as_xyz
  x,y,z
_cell_length_a	10.654563
_cell_length_b	14.421503
_cell_length_c	15.944545
_cell_angle_alpha	89.999459
_cell_angle_beta	96.006659
_cell_angle_gamma	89.990641
loop_
_atom_site_label
_atom_site_type_symbol
_atom_site_fract_x
_atom_site_fract_y
_atom_site_fract_z
O1	O	1.666280	0.077067	-0.118025
O2	O	1.300658	0.077080	-0.129253
O3	O	1.493458	0.077062	-0.001422
O4	O	1.473481	0.077085	-0.245856
O5	O	1.493481	-0.077161	-0.001431
O6	O	1.300682	-0.077143	-0.129262
O7	O	1.666303	-0.077156	-0.118034
Cu8	Cu	1.483495	-0.091231	-0.123649
Cu9	Cu	1.483467	0.091156	-0.123638
O10	O	1.473504	-0.077138	-0.245865
C11	C	1.253883	-0.000030	-0.128431
C12	C	1.114473	-0.000025	-0.125957
N13	N	1.483523	-0.219513	-0.123655
C14	C	1.048954	0.084038	-0.124792
C15	C	0.917961	0.084030	-0.122482
C16	C	0.918016	-0.084113	-0.122497
C17	C	1.049006	-0.084103	-0.124814
C18	C	0.729300	0.185024	-0.168433
C19	C	0.663780	0.269093	-0.167253
C20	C	0.715882	0.343315	-0.118866
C21	C	0.833506	0.333473	-0.071637
C22	C	0.899021	0.249404	-0.072809
C23	C	0.846917	0.175184	-0.121216
C24	C	1.237671	-0.185092	-0.078856
C25	C	1.303189	-0.269162	-0.080022
C26	C	1.251090	-0.343393	-0.128404
C27	C	1.133464	-0.333560	-0.175620
C28	C	1.067946	-0.249490	-0.174454
C29	C	1.120054	-0.175259	-0.126074
C30	C	1.572693	-0.469150	-0.064533
C31	C	1.459218	-0.530945	-0.047555
C32	C	1.483495	-0.408674	-0.123645
C33	C	1.596944	-0.530973	-0.140573
C34	C	1.483478	-0.591396	-0.123633
C35	C	1.369963	-0.469108	-0.106629
C36	C	1.507764	-0.469131	-0.199681
C37	C	1.394206	-0.530898	-0.182735
C38	C	1.483507	-0.303413	-0.123649
C39	C	1.483454	-0.696654	-0.123629
C40	C	1.713079	-0.000044	-0.118856
C41	C	1.852489	-0.000043	-0.121330
C42	C	1.492641	-0.000050	0.029872
C43	C	1.490159	-0.000053	0.123133
N44	N	1.483448	0.219437	-0.123625
C45	C	1.474320	-0.000024	-0.277159
C46	C	1.476802	-0.000015	-0.370420
C47	C	1.363236	-0.000029	0.394505
C48	C	1.424417	0.076009	0.343567
C49	C	1.481307	-0.000026	0.458829
C50	C	1.424471	-0.076043	0.343586
C51	C	1.485650	-0.000041	0.293890
C52	C	1.542456	0.076075	0.409119
C53	C	1.542494	-0.076045	0.409142
C54	C	1.603761	0.000012	0.358236
C55	C	1.478802	-0.000017	0.553845
C56	C	1.488164	-0.000043	0.198876
H57	H	0.994790	0.241391	-0.034358
H58	H	1.592274	0.140431	0.437639
O59	O	1.358359	0.161160	0.305612
H60	H	1.322809	0.203249	0.356408
O61	O	1.242848	-0.433259	-0.087546
H62	H	1.168835	-0.458559	-0.136340
H63	H	0.875915	0.393913	-0.032231
O64	O	1.724037	-0.566966	-0.159551
H65	H	1.712305	-0.609305	-0.217978
H66	H	1.592324	-0.140337	0.437798
O67	O	1.228542	0.000054	0.416017
H68	H	1.179800	0.063270	0.389628
H69	H	1.705524	0.000051	0.342153
H70	H	1.374596	-0.140326	0.314958
O71	O	1.293867	-0.105030	-0.026663
H72	H	1.228553	-0.044917	-0.033791
H73	H	1.398972	-0.277162	-0.041577
H74	H	0.662530	0.411768	-0.117912
O75	O	1.119568	0.174717	-0.126037
H76	H	1.051995	0.233170	-0.124848
O77	O	1.077260	-0.413616	-0.227813
H78	H	1.142586	-0.473723	-0.220699
O79	O	1.294180	-0.566612	-0.248941
H80	H	1.200152	-0.541705	-0.234677
H81	H	1.304444	-0.411849	-0.129343
H82	H	0.568006	0.277098	-0.205709
O83	O	0.673182	0.105006	-0.220713
H84	H	0.580406	0.125986	-0.253372
H85	H	1.648045	-0.442036	-0.014516
O86	O	1.432006	-0.566931	0.037619
H87	H	1.506182	-0.542213	0.086575
O88	O	0.941063	-0.238891	-0.225367
H89	H	0.904250	-0.167967	-0.216416
O90	O	1.535013	-0.433127	-0.284835
H91	H	1.629291	-0.457859	-0.298749
H92	H	0.864698	-0.152566	-0.121564
