data_functionalizedCrystal
_audit_creation_method	'MofGen! by Chris Wilmer'
_symmetry_space_group_name_H-M	'P1'
_symmetry_Int_Tables_number	1
_symmetry_cell_setting	triclinic
loop_
_symmetry_equiv_pos_as_xyz
  x,y,z
_cell_length_a	11.169417
_cell_length_b	11.169416
_cell_length_c	11.169409
_cell_angle_alpha	90.029517
_cell_angle_beta	89.980176
_cell_angle_gamma	89.994884
loop_
_atom_site_label
_atom_site_type_symbol
_atom_site_fract_x
_atom_site_fract_y
_atom_site_fract_z
Zn1	Zn	-1.835013	-0.477682	0.678566
Zn2	Zn	-1.834924	-0.678422	0.477893
Zn3	Zn	-1.634299	-0.477755	0.477901
Zn4	Zn	-1.634328	-0.678325	0.678538
O5	O	-1.734641	-0.578046	0.578224
O6	O	-2.002951	-0.504321	0.651955
O7	O	-1.808261	-0.651875	0.309944
O8	O	-1.660950	-0.309796	0.504534
O9	O	-2.002885	-0.651804	0.504522
O10	O	-1.808413	-0.309742	0.651963
O11	O	-1.660863	-0.504445	0.309950
O12	O	-1.466353	-0.504351	0.504507
O13	O	-1.660999	-0.651637	0.846492
O14	O	-1.466374	-0.651708	0.651914
O15	O	-1.808441	-0.504226	0.846512
O16	O	-1.808289	-0.846359	0.504494
O17	O	-1.660912	-0.846287	0.651907
C18	C	-1.422816	-0.578028	0.578209
C19	C	-1.289416	-0.578049	0.578231
C20	C	-1.734627	-0.889871	0.578223
C21	C	-1.734730	-1.023271	0.578262
C22	C	-1.734733	-0.577913	0.891267
C23	C	-1.734772	-0.577856	1.024667
C24	C	-2.047683	-0.578065	0.578241
C25	C	-2.181083	-0.578073	0.578248
C26	C	-1.734688	-0.265004	0.578252
C27	C	-1.734708	-0.131604	0.578264
C28	C	-1.734618	-0.578092	0.266400
C29	C	-1.734811	-0.577811	0.133000
