data_functionalizedCrystal
_audit_creation_method	'MofGen! by Chris Wilmer'
_symmetry_space_group_name_H-M	'P1'
_symmetry_Int_Tables_number	1
_symmetry_cell_setting	triclinic
loop_
_symmetry_equiv_pos_as_xyz
  x,y,z
_cell_length_a	17.077402
_cell_length_b	17.077404
_cell_length_c	17.077396
_cell_angle_alpha	90.021444
_cell_angle_beta	90.029784
_cell_angle_gamma	90.021130
loop_
_atom_site_label
_atom_site_type_symbol
_atom_site_fract_x
_atom_site_fract_y
_atom_site_fract_z
Zn1	Zn	-0.312545	1.200055	0.443876
Zn2	Zn	0.187455	1.700055	0.943876
Zn3	Zn	-0.443820	1.199962	0.312607
Zn4	Zn	0.056180	1.699962	0.812607
Zn5	Zn	-0.312568	1.068786	0.312620
Zn6	Zn	0.187432	1.568786	0.812620
Zn7	Zn	-0.443769	1.068754	0.443826
Zn8	Zn	0.056231	1.568754	0.943826
O9	O	-0.378175	1.134389	0.378232
O10	O	0.121825	1.634389	0.878232
O11	O	-0.329970	1.309889	0.426479
O12	O	0.170030	1.809889	0.926479
O13	O	-0.426440	1.182536	0.202762
O14	O	0.073560	1.682536	0.702762
O15	O	-0.202718	1.086252	0.330057
O16	O	0.297282	1.586252	0.830057
O17	O	-0.426418	1.309821	0.330036
O18	O	0.073582	1.809821	0.830036
O19	O	-0.202701	1.182694	0.426491
O20	O	0.297299	1.682694	0.926491
O21	O	-0.330010	1.086162	0.202771
O22	O	0.169990	1.586162	0.702771
O23	O	-0.329960	0.958935	0.330009
O24	O	0.170040	1.458935	0.830009
O25	O	-0.426330	1.086197	0.553680
O26	O	0.073670	1.586197	1.053680
O27	O	-0.426353	0.958912	0.426406
O28	O	0.073647	1.458912	0.926406
O29	O	-0.329921	1.182663	0.553717
O30	O	0.170079	1.682663	1.053717
O31	O	-0.553660	1.182505	0.329988
O32	O	-0.053660	1.682505	0.829988
O33	O	-0.553622	1.086107	0.426394
O34	O	-0.053622	1.586107	0.926394
C35	C	-0.378154	0.930441	0.378204
C36	C	0.121846	1.430441	0.878204
C37	C	-0.378164	0.843192	0.378210
C38	C	0.121836	1.343192	0.878210
C39	C	-0.582123	1.134314	0.378201
C40	C	-0.082123	1.634314	0.878201
C41	C	-0.669373	1.134353	0.378214
C42	C	-0.169373	1.634353	0.878214
C43	C	-0.328067	0.467410	0.428559
C44	C	0.171933	0.967410	0.928559
C45	C	-0.328061	0.549390	0.428550
C46	C	0.171939	1.049390	0.928550
C47	C	-0.378192	0.590343	0.378252
C48	C	0.121808	1.090343	0.878252
C49	C	-0.428337	0.549310	0.327965
C50	C	0.071663	1.049310	0.827965
C51	C	-0.428346	0.467332	0.327978
C52	C	0.071654	0.967332	0.827978
C53	C	-0.428313	0.720181	0.327940
C54	C	0.071687	1.220181	0.827940
C55	C	-0.428303	0.802165	0.327925
C56	C	0.071697	1.302165	0.827925
C57	C	-0.328029	0.802239	0.428512
C58	C	0.171971	1.302239	0.928512
C59	C	-0.328038	0.720260	0.428525
C60	C	0.171962	1.220260	0.928525
C61	C	-0.378182	0.679234	0.378237
C62	C	0.121818	1.179234	0.878237
C63	C	-0.710357	1.184598	0.328069
C64	C	-0.210357	1.684598	0.828069
C65	C	-0.792337	1.184637	0.328089
C66	C	-0.292337	1.684637	0.828089
C67	C	-0.833332	1.134425	0.378251
C68	C	-0.333332	1.634425	0.878251
C69	C	-0.792343	1.084178	0.428401
C70	C	-0.292343	1.584178	0.928401
C71	C	-0.710364	1.084144	0.428384
C72	C	-0.210364	1.584144	0.928384
C73	C	-0.963213	1.084250	0.428431
C74	C	-0.463213	1.584250	0.928431
C75	C	-1.045197	1.084283	0.428447
C76	C	-0.545197	1.584283	0.928447
C77	C	-1.045186	1.184743	0.328136
C78	C	-0.545186	1.684743	0.828136
C79	C	-0.963207	1.184709	0.328119
C80	C	-0.463207	1.684709	0.828119
C81	C	-0.922223	1.134461	0.378269
C82	C	-0.422223	1.634461	0.878269
C83	C	-0.173431	1.134487	0.378281
C84	C	0.326569	1.634487	0.878281
C85	C	-0.086181	1.134528	0.378302
C86	C	0.413819	1.634528	0.878302
C87	C	-0.378117	1.134437	0.582977
C88	C	0.121883	1.634437	1.082977
C89	C	-0.378093	1.134457	0.670227
C90	C	0.121907	1.634457	1.170227
C91	C	-0.378197	1.339134	0.378262
C92	C	0.121803	1.839134	0.878262
C93	C	-0.378206	1.426383	0.378274
C94	C	0.121794	1.926383	0.878274
C95	C	-0.378176	1.134387	0.174285
C96	C	0.121824	1.634387	0.674285
C97	C	-0.377980	1.134519	0.087035
C98	C	0.122020	1.634519	0.587035
C99	C	-0.327888	1.184689	0.711237
C100	C	0.172112	1.684689	1.211237
C101	C	-0.327862	1.184698	0.793218
C102	C	0.172138	1.684698	1.293218
C103	C	-0.378045	1.134479	0.834186
C104	C	0.121955	1.634479	1.334186
C105	C	-0.428252	1.084242	0.793170
C106	C	0.071748	1.584242	1.293170
C107	C	-0.428273	1.084229	0.711191
C108	C	0.071727	1.584229	1.211191
C109	C	-0.428205	1.084274	0.964040
C110	C	0.071795	1.584274	1.464040
C111	C	-0.428184	1.084288	1.046025
C112	C	0.071816	1.584288	1.546025
C113	C	-0.327793	1.184742	1.046067
C114	C	0.172207	1.684742	1.546067
C115	C	-0.327815	1.184730	0.964088
C116	C	0.172185	1.684730	1.464088
C117	C	-0.378023	1.134493	0.923077
C118	C	0.121977	1.634493	1.423077
H119	H	-0.287240	0.434072	0.469513
H120	H	0.212760	0.934072	0.969513
Cl121	Cl	-0.265030	0.600963	0.491773
Cl122	Cl	0.234970	1.100963	0.991773
Cl123	Cl	-0.491264	1.021146	1.097527
Cl124	Cl	0.008736	1.521146	1.597527
Cl125	Cl	-0.491362	0.668605	0.264728
Cl126	Cl	0.008638	1.168605	0.764728
Cl127	Cl	-0.491387	0.415755	0.264767
Cl128	Cl	0.008613	0.915755	0.764767
H129	H	-0.286982	1.225603	0.826605
H130	H	0.213018	1.725603	1.326605
H131	H	-0.469147	1.043318	0.677801
H132	H	0.030853	1.543318	1.177801
H133	H	-0.469077	1.043354	0.930652
H134	H	0.030923	1.543354	1.430652
Cl135	Cl	-0.264986	0.853815	0.491727
Cl136	Cl	0.235014	1.353815	0.991727
H137	H	-0.825702	1.225551	0.287256
H138	H	-0.325702	1.725551	0.787256
H139	H	-0.287214	0.686919	0.469479
H140	H	0.212786	1.186919	0.969479
H141	H	-0.469126	0.835506	0.286970
H142	H	0.030874	1.335506	0.786970
Cl143	Cl	-0.491362	0.600794	0.264736
Cl144	Cl	0.008638	1.100794	0.764736
H145	H	-0.469109	1.043350	0.826533
H146	H	0.030891	1.543350	1.326533
Cl147	Cl	-0.264675	1.247897	1.097622
Cl148	Cl	0.235325	1.747897	1.597622
H149	H	-0.676984	1.225483	0.287219
H150	H	-0.176984	1.725483	0.787219
H151	H	-0.929829	1.225591	0.287270
H152	H	-0.429829	1.725591	0.787270
H153	H	-1.078559	1.225660	0.287305
H154	H	-0.578559	1.725660	0.787305
H155	H	-0.676996	1.043230	0.469218
H156	H	-0.176996	1.543230	0.969218
Cl157	Cl	-0.264731	1.247867	0.912585
Cl158	Cl	0.235269	1.747867	1.412585
H159	H	-0.287026	1.225585	0.677886
H160	H	0.212974	1.725585	1.177886
Cl161	Cl	-1.096734	1.021150	0.491499
Cl162	Cl	-0.596734	1.521150	0.991499
Cl163	Cl	-0.911692	1.021081	0.491478
Cl164	Cl	-0.411692	1.521081	0.991478
Cl165	Cl	-0.843880	1.021058	0.491466
Cl166	Cl	-0.343880	1.521058	0.991466
