data_functionalizedCrystal
_audit_creation_method	'MofGen! by Chris Wilmer'
_symmetry_space_group_name_H-M	'P1'
_symmetry_Int_Tables_number	1
_symmetry_cell_setting	triclinic
loop_
_symmetry_equiv_pos_as_xyz
  x,y,z
_cell_length_a	19.902436
_cell_length_b	21.606444
_cell_length_c	21.606444
_cell_angle_alpha	90.000308
_cell_angle_beta	60.003578
_cell_angle_gamma	59.996934
loop_
_atom_site_label
_atom_site_type_symbol
_atom_site_fract_x
_atom_site_fract_y
_atom_site_fract_z
Zr1	Zr	0.735509	-0.081306	0.596235
O2	O	0.875680	-0.180138	0.497416
O3	O	0.595332	-0.051001	0.626527
O4	O	0.735506	-0.180130	0.626530
O5	O	0.735511	0.050841	0.497413
O6	O	0.735511	-0.180134	0.728380
O7	O	0.735506	-0.051008	0.497413
O8	O	0.484765	0.050855	0.728375
O9	O	0.986257	-0.180148	0.497418
O10	O	0.652995	-0.038089	0.715458
O11	O	0.652995	0.037923	0.639448
O12	O	0.818032	-0.114110	0.639452
O13	O	0.818032	-0.038098	0.563442
Zr14	Zr	0.735524	0.081126	0.758674
Zr15	Zr	0.735517	-0.081312	0.758674
Zr16	Zr	0.735517	0.081132	0.596235
Zr17	Zr	0.911866	-0.081322	0.596239
Zr18	Zr	0.559168	0.081142	0.758670
O19	O	0.875702	0.050820	0.728382
O20	O	0.875691	-0.180146	0.728382
O21	O	0.875691	0.050829	0.497415
O22	O	0.595354	0.179958	0.857494
O23	O	0.595343	-0.051009	0.857494
O24	O	0.595343	0.179966	0.626527
O25	O	0.735523	-0.051022	0.857497
O26	O	0.735528	0.179950	0.728379
O27	O	0.735523	0.179954	0.626530
O28	O	0.735528	0.050828	0.857496
O29	O	0.986263	-0.180153	0.626535
O30	O	0.484771	0.179972	0.728374
O31	O	0.484777	0.179968	0.857491
O32	O	0.484771	0.050851	0.857492
O33	O	0.986263	-0.051031	0.497418
O34	O	0.986269	-0.051036	0.626535
O35	O	0.653002	0.113930	0.715458
O36	O	0.653002	0.037918	0.791467
O37	O	0.818039	-0.038104	0.715461
O38	O	0.818039	0.037909	0.639452
C39	C	0.514922	-0.000070	0.677450
C40	C	0.440053	-0.000064	0.677449
C41	C	0.735507	-0.000083	0.474269
C42	C	0.735504	-0.000080	0.405309
C43	C	0.735526	0.203096	0.677454
C44	C	0.735530	0.272055	0.677454
C45	C	0.168043	-0.000099	0.677456
C46	C	0.196282	0.048083	0.629740
C47	C	0.274401	0.047884	0.629482
C48	C	0.302990	-0.000081	0.677453
C49	C	0.338549	-0.082679	0.642484
C50	C	0.260711	-0.082425	0.642125
C51	C	0.133534	0.033655	0.760165
C52	C	0.210586	0.035336	0.760044
C53	C	0.379259	-0.000075	0.677451
C54	C	0.091779	-0.000111	0.677455
C55	C	0.956112	-0.000110	0.677459
C56	C	1.030980	-0.000117	0.677460
C57	C	0.735507	-0.203276	0.677455
C58	C	0.735504	-0.272235	0.677455
C59	C	0.821676	0.264772	0.637781
C60	C	0.821674	0.329569	0.637778
C61	C	0.735523	0.401649	0.677452
C62	C	0.649370	0.408931	0.717127
C63	C	0.649373	0.344134	0.717125
C64	C	0.649353	0.670249	0.717133
C65	C	0.649356	0.735047	0.717133
C66	C	0.821654	0.655684	0.637785
C67	C	0.821657	0.590888	0.637784
C68	C	0.735504	0.598175	0.677455
C69	C	0.735508	0.527913	0.677457
C70	C	0.735518	0.471909	0.677455
C71	C	0.649357	0.039599	0.412584
C72	C	0.649360	0.039600	0.347787
C73	C	0.735510	-0.000084	0.275715
C74	C	0.821664	-0.039765	0.268442
C75	C	0.821660	-0.039760	0.333238
C76	C	0.821681	-0.039782	0.007124
C77	C	0.821677	-0.039785	-0.057674
C78	C	0.649380	0.039579	0.021672
C79	C	0.649376	0.039583	0.086469
C80	C	0.735529	-0.000094	0.079190
C81	C	0.735525	-0.000093	0.149451
C82	C	0.735515	-0.000090	0.205455
C83	C	0.735526	-0.000098	0.880641
C84	C	0.735530	-0.000100	0.949600
C85	C	0.514931	-0.000078	0.880636
C86	C	0.440066	-0.000074	0.949594
C87	C	0.514931	0.203115	0.677450
C88	C	0.440066	0.272082	0.677449
C89	C	0.514940	0.203108	0.880636
C90	C	0.440079	0.272072	0.949594
C91	C	0.956093	-0.203288	0.474273
C92	C	1.030955	-0.272252	0.405315
C93	C	0.956103	-0.000102	0.474273
C94	C	1.030968	-0.000107	0.405315
C95	C	0.956103	-0.203296	0.677459
C96	C	1.030968	-0.272262	0.677461
C97	C	0.404905	-0.039753	0.942302
C98	C	0.334571	-0.039764	1.007089
C99	C	0.299395	-0.000091	1.079168
C100	C	0.334563	0.039589	1.086459
C101	C	0.404900	0.039596	1.021673
C102	C	0.404913	0.344150	0.717124
C103	C	0.334579	0.408957	0.717119
C104	C	0.299395	0.401694	0.677444
C105	C	0.334556	0.329618	0.637764
C106	C	0.404893	0.264812	0.637764
C107	C	0.404923	0.264780	1.021660
C108	C	0.334592	0.329573	1.086460
C109	C	0.299414	0.401656	1.079191
C110	C	0.334577	0.408946	1.007117
C111	C	0.404911	0.344154	0.942319
C112	C	1.066119	-0.264960	0.333249
C113	C	1.136472	-0.329753	0.268450
C114	C	1.171654	-0.401836	0.275718
C115	C	1.136487	-0.409126	0.347792
C116	C	1.066140	-0.344334	0.412590
C117	C	1.066136	0.039566	0.412608
C118	C	1.136489	0.039559	0.347821
C119	C	1.171668	-0.000116	0.275741
C120	C	1.136497	-0.039794	0.268450
C121	C	1.066149	-0.039791	0.333237
C122	C	1.066129	-0.264974	0.717144
C123	C	1.136463	-0.329769	0.717160
C124	C	1.171639	-0.401851	0.677488
C125	C	1.136471	-0.409137	0.637804
C126	C	1.066134	-0.344343	0.637792
H127	H	0.247759	0.108706	0.652938
O128	O	1.028184	-0.187220	0.325393
H129	H	0.973351	-0.143383	0.382553
O130	O	0.914574	0.513143	0.594995
H131	H	0.955880	0.506548	0.534014
O132	O	0.556454	0.082377	0.029524
H133	H	0.515135	0.143360	0.060992
O134	O	1.174449	-0.082584	0.190703
H135	H	1.115405	-0.059652	0.184103
O136	O	0.442854	0.351993	0.759920
H137	H	0.474915	0.383442	0.736980
H138	H	1.037499	0.071880	0.471292
H139	H	0.433555	0.206092	1.027593
H140	H	0.242122	0.454469	0.677450
H141	H	0.433520	0.071912	1.027621
O142	O	0.442847	-0.082559	0.864565
H143	H	0.429342	-0.042508	0.833140
O144	O	0.556433	0.082398	0.490316
H145	H	0.570899	0.075729	0.534153
O146	O	0.914577	0.647828	0.594986
H147	H	0.955886	0.616372	0.617921
H148	H	0.242143	0.454407	1.131960
H149	H	0.305899	0.323715	0.605461
H150	H	0.305946	-0.072077	1.001137
O151	O	1.174404	0.082366	0.355698
H152	H	1.160913	0.126216	0.328068
H153	H	1.037517	-0.072095	0.327288
O154	O	0.223524	-0.000094	1.149043
H155	H	0.204982	-0.034346	1.131855
O156	O	1.028221	-0.352191	0.490324
H157	H	0.950624	-0.324565	0.521752
H158	H	1.165093	-0.323802	0.209770
O159	O	0.556445	0.082385	0.355631
H160	H	0.496540	0.109969	0.416632
O161	O	1.028193	-0.187237	0.759946
H162	H	1.041701	-0.155814	0.719896
H163	H	0.891836	-0.072101	-0.116360
O164	O	0.239602	-0.132576	0.685172
H165	H	0.254706	-0.179113	0.646981
H166	H	1.228934	-0.454587	0.222949
H167	H	1.228913	-0.454604	0.677504
O168	O	0.296648	0.486691	0.759933
H169	H	0.332918	0.480848	0.787534
H170	H	0.305970	0.323623	1.145139
O171	O	1.174440	-0.486878	0.355621
H172	H	1.138180	-0.481072	0.416619
H173	H	0.131780	0.109058	0.653072
H174	H	1.165089	-0.323822	0.749475
H175	H	0.579224	0.071895	0.145151
H176	H	1.228949	-0.000112	0.222994
O177	O	0.442675	0.187081	0.595091
H178	H	0.406335	0.192926	0.567554
O179	O	0.108546	-0.012600	0.807488
H180	H	0.120618	-0.059397	0.772319
H181	H	1.165123	-0.467834	0.605504
H182	H	1.037513	-0.350287	0.605474
O183	O	0.296618	0.486694	0.999281
H184	H	0.241794	0.530516	1.056451
H185	H	0.222238	0.024878	0.569092
H186	H	0.226193	0.003891	0.798592
H187	H	0.338855	0.024482	0.568474
O188	O	0.299824	-0.118213	0.561509
H189	H	0.374044	-0.135533	0.523147
O190	O	0.296612	0.082386	1.164203
H191	H	0.241787	0.075719	1.208021
O192	O	0.442808	0.352022	0.864590
H193	H	0.406513	0.413033	0.870430
H194	H	0.359441	-0.120133	0.675570
O195	O	0.914588	-0.082566	0.190710
H196	H	0.955897	-0.143547	0.184132
H197	H	0.065491	0.093543	0.789381
O198	O	0.426989	-0.118574	0.562484
H199	H	0.445812	-0.077758	0.547505
H200	H	0.181846	0.096187	0.786168
H201	H	0.891823	0.323633	0.605473
O202	O	0.914597	0.187029	0.594987
H203	H	0.974499	0.192854	0.567393
H204	H	0.579224	0.350069	0.749429
H205	H	0.891832	-0.072103	0.001187
H206	H	0.579202	0.676192	0.749438
O207	O	0.556433	0.812796	0.759918
H208	H	0.496525	0.806978	0.787496
H209	H	0.891810	-0.072062	0.327310
O210	O	0.556446	0.486671	0.759970
H211	H	0.570914	0.530506	0.753332
