data_functionalizedCrystal
_audit_creation_method	'MofGen! by Chris Wilmer'
_symmetry_space_group_name_H-M	'P1'
_symmetry_Int_Tables_number	1
_symmetry_cell_setting	triclinic
loop_
_symmetry_equiv_pos_as_xyz
  x,y,z
_cell_length_a	10.654550
_cell_length_b	10.654548
_cell_length_c	9.730223
_cell_angle_alpha	90.000208
_cell_angle_beta	89.999957
_cell_angle_gamma	95.515348
loop_
_atom_site_label
_atom_site_type_symbol
_atom_site_fract_x
_atom_site_fract_y
_atom_site_fract_z
O1	O	1.667838	-0.176399	-0.114173
O2	O	1.302360	-0.193205	-0.114197
O3	O	1.493503	-0.002062	-0.114190
O4	O	1.476695	-0.367541	-0.114180
O5	O	1.493490	-0.002057	0.114390
O6	O	1.302347	-0.193200	0.114383
O7	O	1.667826	-0.176393	0.114407
Zn8	Zn	1.485085	-0.184796	0.150687
Zn9	Zn	1.485101	-0.184803	-0.150477
O10	O	1.476683	-0.367536	0.114400
C11	C	1.255555	-0.191968	0.000090
C12	C	1.116112	-0.188276	0.000080
C13	C	1.036626	-0.300818	0.000087
C14	C	0.905605	-0.297341	0.000111
C15	C	0.933570	-0.068772	0.000115
C16	C	1.064588	-0.072250	0.000101
C17	C	1.492263	0.044738	0.000095
C18	C	1.488572	0.184182	0.000082
C19	C	1.714630	-0.177630	0.000117
C20	C	1.854073	-0.181322	0.000118
C21	C	1.483363	0.380719	-0.124511
C22	C	1.486844	0.249699	-0.124516
C23	C	1.486831	0.249693	0.124694
C24	C	1.483359	0.380712	0.124698
N25	N	1.485083	-0.184790	0.356223
C26	C	1.477924	0.585664	0.000105
C27	C	1.481619	0.446221	0.000091
N28	N	1.485113	-0.184798	-0.356014
C29	C	1.569750	-0.100188	0.428152
C30	C	1.569762	-0.100189	0.572035
C31	C	1.400436	-0.269404	0.572047
C32	C	1.400419	-0.269396	0.428167
H33	H	1.129309	0.019401	0.000099
H34	H	1.638705	-0.031297	0.630596
N35	N	0.819877	-0.418728	0.000100
H36	H	0.729057	-0.398924	0.000115
H37	H	0.836683	-0.469247	0.084830
N38	N	1.309124	-0.360655	0.649644
H39	H	1.321983	-0.347826	0.751707
H40	H	1.324395	-0.449886	0.624483
H41	H	1.481944	0.434053	-0.225974
H42	H	1.638687	-0.031295	0.369579
H43	H	1.078572	-0.395294	0.000080
H44	H	0.891602	0.025693	0.000140
H45	H	1.488266	0.196374	-0.225980
H46	H	1.331466	-0.338290	0.369598
H47	H	1.481943	0.434045	0.226170
N48	N	1.488711	0.179037	0.259086
H49	H	1.491174	0.086097	0.240179
H50	H	1.410384	0.192432	0.313497
