data_functionalizedCrystal
_audit_creation_method	'MofGen! by Chris Wilmer'
_symmetry_space_group_name_H-M	'P1'
_symmetry_Int_Tables_number	1
_symmetry_cell_setting	triclinic
loop_
_symmetry_equiv_pos_as_xyz
  x,y,z
_cell_length_a	15.712078
_cell_length_b	14.971486
_cell_length_c	14.048226
_cell_angle_alpha	90.006640
_cell_angle_beta	89.985465
_cell_angle_gamma	78.402362
loop_
_atom_site_label
_atom_site_type_symbol
_atom_site_fract_x
_atom_site_fract_y
_atom_site_fract_z
O1	O	1.147409	-0.490664	-0.079390
O2	O	1.480742	-0.157331	0.253943
O3	O	1.814075	0.176002	0.587276
O4	O	0.895683	-0.422551	-0.079342
O5	O	1.229016	-0.089217	0.253991
O6	O	1.562349	0.244116	0.587325
O7	O	1.028293	-0.328607	-0.079361
O8	O	1.361626	0.004726	0.253973
O9	O	1.694959	0.338059	0.587306
O10	O	1.014799	-0.584608	-0.079372
O11	O	1.348132	-0.251274	0.253962
O12	O	1.681465	0.082059	0.587295
O13	O	1.028277	-0.328594	0.078961
O14	O	1.361610	0.004739	0.412294
O15	O	1.694943	0.338073	0.745627
O16	O	0.895667	-0.422537	0.078979
O17	O	1.229000	-0.089204	0.412313
O18	O	1.562333	0.244129	0.745646
O19	O	1.147393	-0.490651	0.078931
O20	O	1.480726	-0.157318	0.412264
O21	O	1.814059	0.176016	0.745598
Zn22	Zn	1.021527	-0.456592	0.104092
Zn23	Zn	1.354860	-0.123259	0.437426
Zn24	Zn	1.688194	0.210075	0.770759
Zn25	Zn	1.021548	-0.456610	-0.104503
Zn26	Zn	1.354882	-0.123276	0.228830
Zn27	Zn	1.688215	0.210057	0.562164
O28	O	1.014783	-0.584595	0.078950
O29	O	1.348116	-0.251261	0.412283
O30	O	1.681449	0.082072	0.745616
C31	C	0.863460	-0.411417	-0.000175
C32	C	1.196793	-0.078083	0.333158
C33	C	1.530127	0.255250	0.666492
C34	C	0.767471	-0.378250	-0.000156
C35	C	1.100804	-0.044916	0.333177
C36	C	1.434137	0.288417	0.666510
C37	C	0.400665	-0.659845	-0.000234
C38	C	0.733999	-0.326512	0.333099
C39	C	1.067332	0.006821	0.666433
C40	C	0.310471	-0.628659	-0.000256
C41	C	0.643805	-0.295326	0.333077
C42	C	0.977138	0.038007	0.666410
C43	C	0.330926	-0.472394	-0.000252
C44	C	0.664259	-0.139061	0.333082
C45	C	0.997593	0.194273	0.666415
C46	C	0.421123	-0.503567	-0.000234
C47	C	0.754457	-0.170234	0.333099
C48	C	1.087790	0.163100	0.666433
C49	C	0.455986	-0.597294	-0.000224
C50	C	0.789319	-0.263960	0.333109
C51	C	1.122652	0.069373	0.666442
C52	C	0.476444	-0.441015	-0.000224
C53	C	0.809777	-0.107682	0.333109
C54	C	1.143110	0.225651	0.666442
C55	C	0.566633	-0.472186	-0.000202
C56	C	0.899967	-0.138853	0.333132
C57	C	1.233300	0.194481	0.666465
C58	C	0.601503	-0.565909	-0.000189
C59	C	0.934836	-0.232576	0.333145
C60	C	1.268169	0.100758	0.666478
C61	C	0.546175	-0.628465	-0.000202
C62	C	0.879509	-0.295131	0.333132
C63	C	1.212842	0.038202	0.666465
C64	C	0.441580	-0.347289	-0.000227
C65	C	0.774913	-0.013956	0.333106
C66	C	1.108246	0.319378	0.666439
C67	C	0.496900	-0.284737	-0.000218
C68	C	0.830233	0.048596	0.333116
C69	C	1.163567	0.381930	0.666449
C70	C	0.587091	-0.315908	-0.000202
C71	C	0.920425	0.017426	0.333132
C72	C	1.253758	0.350759	0.666465
C73	C	0.621961	-0.409630	-0.000189
C74	C	0.955294	-0.076297	0.333144
C75	C	1.288627	0.257036	0.666478
C76	C	0.642419	-0.253352	-0.000189
C77	C	0.975752	0.079981	0.333144
C78	C	1.309086	0.413315	0.666478
C79	C	0.732608	-0.284523	-0.000166
C80	C	1.065942	0.048810	0.333167
C81	C	1.399275	0.382144	0.666500
C82	C	0.712150	-0.440801	-0.000166
C83	C	1.045484	-0.107468	0.333167
C84	C	1.378817	0.225865	0.666500
C85	C	1.027681	-0.295079	-0.000200
C86	C	1.361014	0.038254	0.333133
C87	C	1.694348	0.371588	0.666467
C88	C	1.025873	-0.195192	-0.000201
C89	C	1.359206	0.138141	0.333133
C90	C	1.692539	0.471474	0.666466
C91	C	1.179615	-0.501785	-0.000238
C92	C	1.512949	-0.168452	0.333095
C93	C	1.846282	0.164882	0.666429
C94	C	1.275605	-0.534952	-0.000263
C95	C	1.608938	-0.201619	0.333071
C96	C	1.942271	0.131715	0.666404
C97	C	1.015394	-0.618123	-0.000213
C98	C	1.348728	-0.284789	0.333121
C99	C	1.682061	0.048544	0.666454
C100	C	1.017203	-0.718009	-0.000219
C101	C	1.350536	-0.384676	0.333115
C102	C	1.683869	-0.051343	0.666448
N103	N	1.021519	-0.456582	0.246453
N104	N	1.354852	-0.123248	0.579786
N105	N	1.688186	0.210085	0.913120
C106	C	1.103777	-0.163367	-0.000215
C107	C	1.437111	0.169966	0.333118
C108	C	1.770444	0.503300	0.666452
C109	C	1.102073	-0.069512	-0.000224
C110	C	1.435406	0.263821	0.333109
C111	C	1.768740	0.597155	0.666443
C112	C	1.022463	-0.007484	-0.000212
C113	C	1.355796	0.325850	0.333121
C114	C	1.689130	0.659183	0.666454
C115	C	0.944552	-0.039314	-0.000201
C116	C	1.277886	0.294019	0.333132
C117	C	1.611219	0.627352	0.666466
C118	C	0.946258	-0.133168	-0.000198
C119	C	1.279591	0.200165	0.333135
C120	C	1.612924	0.533499	0.666468
C121	C	0.941004	0.156305	-0.000204
C122	C	1.274337	0.489638	0.333130
C123	C	1.607670	0.822972	0.666463
C124	C	0.939298	0.250165	-0.000204
C125	C	1.272631	0.583499	0.333129
C126	C	1.605965	0.916832	0.666462
C127	C	1.096819	0.219961	-0.000229
C128	C	1.430152	0.553295	0.333104
C129	C	1.763486	0.886628	0.666437
C130	C	1.098524	0.126108	-0.000227
C131	C	1.431858	0.459441	0.333106
C132	C	1.765191	0.792774	0.666440
C133	C	1.020613	0.094283	-0.000214
C134	C	1.353947	0.427617	0.333120
C135	C	1.687280	0.760950	0.666453
N136	N	1.021563	-0.456615	-0.246864
N137	N	1.354896	-0.123282	0.086470
N138	N	1.688230	0.210051	0.419803
C139	C	1.080257	-0.415015	0.296263
C140	C	1.413591	-0.081681	0.629596
C141	C	1.746924	0.251652	0.962929
C142	C	1.080263	-0.415016	0.395920
C143	C	1.413596	-0.081683	0.729254
C144	C	1.746930	0.251651	1.062587
C145	C	1.021534	-0.456591	0.445766
C146	C	1.354868	-0.123257	0.779100
C147	C	1.688201	0.210076	1.112433
C148	C	0.962790	-0.498158	0.395950
C149	C	1.296123	-0.164825	0.729283
C150	C	1.629457	0.168508	1.062616
C151	C	0.962781	-0.498151	0.296294
C152	C	1.296114	-0.164818	0.629627
C153	C	1.629447	0.168516	0.962960
C154	C	0.962815	-0.498173	0.603664
C155	C	1.296148	-0.164840	0.936997
C156	C	1.629481	0.168494	1.270331
C157	C	0.962825	-0.498182	0.703327
C158	C	1.296158	-0.164849	1.036660
C159	C	1.629492	0.168484	1.369993
C160	C	1.080297	-0.415038	0.703290
C161	C	1.413631	-0.081705	1.036624
C162	C	1.746964	0.251629	1.369957
C163	C	1.080288	-0.415031	0.603635
C164	C	1.413621	-0.081697	0.936968
C165	C	1.746955	0.251636	1.270301
C166	C	1.021544	-0.456600	0.553825
C167	C	1.354878	-0.123267	0.887158
C168	C	1.688211	0.210066	1.220491
H169	H	0.740537	-0.517123	-0.000157
H170	H	1.073870	-0.183790	0.333177
H171	H	1.407203	0.149544	0.666510
H172	H	1.128085	-0.381165	0.255685
H173	H	1.461418	-0.047831	0.589018
H174	H	1.794751	0.285502	0.922351
F175	F	0.697492	-0.599084	-0.000130
F176	F	1.030825	-0.265751	0.333204
F177	F	1.364158	0.067582	0.666537
H178	H	0.777652	-0.233587	-0.000161
H179	H	1.110985	0.099747	0.333172
H180	H	1.444319	0.433080	0.666506
H181	H	1.163350	0.075605	-0.000230
H182	H	1.496683	0.408939	0.333104
H183	H	1.830016	0.742272	0.666437
F184	F	1.179738	0.253831	-0.000248
F185	F	1.513072	0.587165	0.333086
F186	F	1.846405	0.920498	0.666419
H187	H	0.879732	0.011197	-0.000197
H188	H	1.213066	0.344530	0.333136
H189	H	1.546399	0.677863	0.666469
H190	H	0.914949	-0.531998	0.255740
H191	H	1.248282	-0.198664	0.589073
H192	H	1.581616	0.134669	0.922406
F193	F	0.858081	0.122438	-0.000192
F194	F	1.191415	0.455772	0.333142
F195	F	1.524748	0.789105	0.666475
F196	F	0.251597	-0.695244	-0.000260
F197	F	0.584930	-0.361910	0.333074
F198	F	0.918264	-0.028577	0.666407
H199	H	0.302528	-0.396081	-0.000249
H200	H	0.635862	-0.062748	0.333084
H201	H	0.969195	0.270586	0.666418
H202	H	0.914967	-0.532005	0.436540
H203	H	1.248301	-0.198672	0.769873
H204	H	1.581634	0.134662	1.103207
H205	H	0.574562	-0.704786	-0.000192
H206	H	0.907895	-0.371453	0.333141
H207	H	1.241228	-0.038119	0.666475
F208	F	1.188511	-0.229375	-0.000218
F209	F	1.521844	0.103958	0.333115
F210	F	1.855177	0.437292	0.666448
F211	F	0.863341	-0.167037	-0.000186
F212	F	1.196674	0.166296	0.333147
F213	F	1.530007	0.499629	0.666481
F214	F	0.605304	-0.153604	-0.000187
F215	F	0.938637	0.179729	0.333146
F216	F	1.271971	0.513062	0.666479
H217	H	0.915001	-0.532035	0.743906
H218	H	1.248334	-0.198702	1.077240
H219	H	1.581668	0.134631	1.410573
H220	H	1.128091	-0.381168	0.436475
H221	H	1.461425	-0.047835	0.769808
H222	H	1.794758	0.285498	1.103142
F223	F	0.854568	0.316179	-0.000191
F224	F	1.187902	0.649513	0.333143
F225	F	1.521235	0.982846	0.666476
F226	F	1.184990	-0.035646	-0.000238
F227	F	1.518324	0.297687	0.333096
F228	F	1.851657	0.631021	0.666429
H229	H	1.128113	-0.381183	0.563050
H230	H	1.461447	-0.047850	0.896383
H231	H	1.794780	0.285483	1.229717
H232	H	0.368141	-0.321912	-0.000234
H233	H	0.701474	0.011421	0.333099
H234	H	1.034808	0.344754	0.666432
H235	H	0.429052	-0.736167	-0.000224
H236	H	0.762385	-0.402834	0.333109
H237	H	1.095718	-0.069500	0.666442
F238	F	0.459787	-0.184989	-0.000225
F239	F	0.793121	0.148344	0.333108
F240	F	1.126454	0.481678	0.666442
F241	F	1.142817	-0.370799	0.756306
F242	F	1.476150	-0.037465	1.089639
F243	F	1.809483	0.295868	1.422972
H244	H	0.914977	-0.532020	0.563112
H245	H	1.248310	-0.198686	0.896445
H246	H	1.581643	0.134647	1.229779
