data_functionalizedCrystal
_audit_creation_method	'MofGen! by Chris Wilmer'
_symmetry_space_group_name_H-M	'P1'
_symmetry_Int_Tables_number	1
_symmetry_cell_setting	triclinic
loop_
_symmetry_equiv_pos_as_xyz
  x,y,z
_cell_length_a	17.640112
_cell_length_b	17.639999
_cell_length_c	17.640968
_cell_angle_alpha	114.317495
_cell_angle_beta	87.860920
_cell_angle_gamma	92.189491
loop_
_atom_site_label
_atom_site_type_symbol
_atom_site_fract_x
_atom_site_fract_y
_atom_site_fract_z
Zn1	Zn	-1.251356	0.023074	-0.189698
Zn2	Zn	-0.751356	0.523074	0.310302
Zn3	Zn	-1.251280	0.188756	-0.024070
Zn4	Zn	-0.751280	0.688756	0.475930
Zn5	Zn	-1.106789	0.075312	-0.076159
Zn6	Zn	-0.606789	0.575312	0.423841
Zn7	Zn	-1.148382	0.178185	-0.179117
Zn8	Zn	-0.648382	0.678185	0.320883
O9	O	-1.189452	0.116332	-0.117261
O10	O	-0.689452	0.616332	0.382739
O11	O	-1.354911	0.027614	-0.150355
O12	O	-0.854911	0.527614	0.349645
O13	O	-1.214675	0.199993	0.081425
O14	O	-0.714675	0.699993	0.581425
O15	O	-1.108592	-0.044009	-0.117448
O16	O	-0.608592	0.455991	0.382552
O17	O	-1.354855	0.149340	-0.028669
O18	O	-0.854855	0.649340	0.471331
O19	O	-1.214805	-0.082388	-0.200865
O20	O	-0.714805	0.417612	0.299135
O21	O	-1.108518	0.116646	0.043155
O22	O	-0.608518	0.616646	0.543155
O23	O	-1.008742	0.106396	-0.107188
O24	O	-0.508742	0.606396	0.392812
O25	O	-1.179480	0.131323	-0.292925
O26	O	-0.679480	0.631323	0.207075
O27	O	-1.039299	0.181977	-0.182831
O28	O	-0.539299	0.681977	0.317169
O29	O	-1.255135	0.017364	-0.300699
O30	O	-0.755135	0.517364	0.199301
O31	O	-1.255005	0.299745	-0.018409
O32	O	-0.755005	0.799745	0.481591
O33	O	-1.179406	0.291978	-0.132322
O34	O	-0.679406	0.791978	0.367678
C35	C	-1.221733	0.324996	-0.068579
C36	C	-0.721733	0.824996	0.431421
C37	C	-1.235615	0.414246	-0.047768
C38	C	-0.735615	0.914246	0.452232
C39	C	-0.997167	0.148708	-0.149514
C40	C	-0.497167	0.648708	0.350486
C41	C	-0.914913	0.162574	-0.163327
C42	C	-0.414913	0.662574	0.336673
C43	C	-1.221956	0.067337	-0.326772
C44	C	-0.721956	0.567337	0.173228
C45	C	-1.235807	0.046459	-0.416053
C46	C	-0.735807	0.546459	0.083947
C47	C	-1.382488	0.083829	-0.084882
C48	C	-0.882488	0.583829	0.415118
C49	C	-1.464748	0.069978	-0.071084
C50	C	-0.964748	0.569978	0.428916
C51	C	-0.564742	0.010979	-0.012337
C52	C	-0.064742	0.510979	0.487663
C53	C	-0.487456	0.024022	-0.025323
C54	C	0.012544	0.524022	0.474677
C55	C	-0.519324	0.102907	-0.103880
C56	C	-0.019324	0.602907	0.396120
C57	C	-0.596615	0.089867	-0.090904
C58	C	-0.096615	0.589867	0.409096
C59	C	-0.619317	0.043904	-0.045131
C60	C	-0.119317	0.543904	0.454869
C61	C	-0.651189	0.122791	-0.123698
C62	C	-0.151189	0.622791	0.376302
C63	C	-0.728473	0.109756	-0.110719
C64	C	-0.228473	0.609756	0.389281
C65	C	-0.751182	0.063797	-0.064946
C66	C	-0.251182	0.563797	0.435054
C67	C	-0.696600	0.030869	-0.032152
C68	C	-0.196600	0.530869	0.467848
C69	C	-0.628486	0.168760	-0.169465
C70	C	-0.128486	0.668760	0.330535
C71	C	-0.683061	0.201684	-0.202259
C72	C	-0.183061	0.701684	0.297741
C73	C	-0.760346	0.188644	-0.189285
C74	C	-0.260346	0.688644	0.310715
C75	C	-0.783055	0.142685	-0.143512
C76	C	-0.283055	0.642685	0.356488
C77	C	-0.814928	0.221573	-0.222079
C78	C	-0.314928	0.721573	0.277921
C79	C	-0.892211	0.208538	-0.209100
C80	C	-0.392211	0.708538	0.290900
C81	C	-0.860338	0.129650	-0.130533
C82	C	-0.360338	0.629650	0.369467
C83	C	-1.084222	0.687800	-0.275601
C84	C	-0.584222	1.187800	0.224399
C85	C	-1.097264	0.771670	-0.256020
C86	C	-0.597264	1.271670	0.243980
C87	C	-1.176060	0.779657	-0.137497
C88	C	-0.676060	1.279657	0.362503
C89	C	-1.163028	0.695786	-0.157070
C90	C	-0.663028	1.195786	0.342930
C91	C	-1.117108	0.649864	-0.226123
C92	C	-0.617108	1.149864	0.273877
C93	C	-1.195913	0.657849	-0.107592
C94	C	-0.695913	1.157849	0.392408
C95	C	-1.182879	0.573986	-0.127161
C96	C	-0.682879	1.073986	0.372839
C97	C	-1.136959	0.528060	-0.196209
C98	C	-0.636959	1.028060	0.303791
C99	C	-1.104073	0.566001	-0.245692
C100	C	-0.604073	1.066001	0.254308
C101	C	-1.241829	0.703774	-0.038536
C102	C	-0.741829	1.203774	0.461464
C103	C	-1.274714	0.665838	0.010943
C104	C	-0.774714	1.165838	0.510943
C105	C	-1.261685	0.581972	-0.008630
C106	C	-0.761685	1.081972	0.491370
C107	C	-1.215765	0.536045	-0.077678
C108	C	-0.715765	1.036045	0.422322
C109	C	-1.294570	0.544031	0.040853
C110	C	-0.794570	1.044031	0.540853
C111	C	-1.281536	0.460167	0.021284
C112	C	-0.781536	0.960167	0.521284
C113	C	-1.202730	0.452182	-0.097247
C114	C	-0.702730	0.952182	0.402753
C115	C	-1.157044	0.906850	-0.166147
C116	C	-0.657044	1.406850	0.333853
C117	C	-1.143172	0.817593	-0.186981
C118	C	-0.643172	1.317593	0.313019
C119	C	-1.084443	0.274458	-0.689445
C120	C	-0.584443	0.774458	-0.189445
C121	C	-1.097472	0.254827	-0.773338
C122	C	-0.597472	0.754827	-0.273338
C123	C	-1.176245	0.136171	-0.781421
C124	C	-0.676245	0.636171	-0.281421
C125	C	-1.163219	0.155790	-0.697528
C126	C	-0.663219	0.655790	-0.197528
C127	C	-1.117318	0.224935	-0.651546
C128	C	-0.617318	0.724935	-0.151546
C129	C	-1.196095	0.106267	-0.659630
C130	C	-0.696095	0.606267	-0.159630
C131	C	-1.183073	0.125887	-0.575743
C132	C	-0.683073	0.625887	-0.075743
C133	C	-1.137176	0.195030	-0.529755
C134	C	-0.637176	0.695030	-0.029755
C135	C	-1.104297	0.244555	-0.567659
C136	C	-0.604297	0.744555	-0.067659
C137	C	-1.242000	0.037125	-0.705612
C138	C	-0.742000	0.537125	-0.205612
C139	C	-1.274876	-0.012398	-0.667713
C140	C	-0.774876	0.487602	-0.167713
C141	C	-1.261850	0.007219	-0.583827
C142	C	-0.761850	0.507219	-0.083827
C143	C	-1.215953	0.076362	-0.537838
C144	C	-0.715953	0.576362	-0.037838
C145	C	-1.294729	-0.042306	-0.545922
C146	C	-0.794729	0.457694	-0.045922
C147	C	-1.281708	-0.022686	-0.462035
C148	C	-0.781708	0.477314	0.037965
C149	C	-1.202931	0.095982	-0.453952
C150	C	-0.702931	0.595982	0.046048
C151	C	-1.157108	0.165070	0.091429
C152	C	-0.657108	0.665070	0.591429
C153	C	-1.143366	0.185698	0.180681
C154	C	-0.643366	0.685698	0.680681
H155	H	-0.878823	0.092207	-0.093275
H156	H	-0.378823	0.592207	0.406725
H157	H	-1.165533	0.152271	-0.416518
H158	H	-0.665533	0.652271	0.083482
C159	C	-0.836197	0.049456	-0.050671
C160	C	-0.336197	0.549456	0.449329
N161	N	-0.900230	0.038652	-0.039921
N162	N	-0.400230	0.538652	0.460079
C163	C	-1.325222	0.716362	0.086901
C164	C	-0.825222	1.216362	0.586901
N165	N	-1.363266	0.754417	0.144114
N166	N	-0.863266	1.254417	0.644114
C167	C	-1.122621	0.435807	-0.217736
C168	C	-0.622621	0.935807	0.282264
N169	N	-1.111823	0.366322	-0.233951
N170	N	-0.611823	0.866322	0.266049
H171	H	-0.936648	0.235347	-0.235805
H172	H	-0.436648	0.735347	0.264195
C173	C	-0.589718	-0.039587	0.038012
C174	C	-0.089718	0.460413	0.538012
N175	N	-0.608530	-0.077670	0.075935
N176	N	-0.108530	0.422330	0.575935
C177	C	-1.061088	0.813395	-0.310460
C178	C	-0.561088	1.313395	0.189540
N179	N	-1.033841	0.844822	-0.351463
N180	N	-0.533841	1.344822	0.148537
H181	H	-1.126578	0.211006	-0.461448
H182	H	-0.626578	0.711006	0.038552
H183	H	-0.443021	-0.002799	0.001378
H184	H	0.056979	0.497201	0.501378
C185	C	-0.494342	0.153463	-0.154231
C186	C	0.005658	0.653463	0.345769
N187	N	-0.475526	0.191540	-0.192159
N188	N	0.024474	0.691540	0.307841
C189	C	-1.317871	-0.077165	-0.420345
C190	C	-0.817871	0.422835	0.079655
N191	N	-1.345112	-0.118199	-0.388943
N192	N	-0.845112	0.381801	0.111057
H193	H	-1.331952	0.581435	0.097080
H194	H	-0.831952	1.081435	0.597080
C195	C	-1.053547	0.515486	-0.321644
C196	C	-0.553547	1.015486	0.178356
N197	N	-1.015485	0.477441	-0.378844
N198	N	-0.515485	0.977441	0.121156
C199	C	-0.721576	-0.019698	0.018197
C200	C	-0.221576	0.480302	0.518197
N201	N	-0.740389	-0.057781	0.056120
N202	N	-0.240389	0.442219	0.556120
C203	C	-1.325358	-0.088461	-0.718305
C204	C	-0.825358	0.411539	-0.218305
N205	N	-1.363377	-0.145757	-0.756412
N206	N	-0.863377	0.354243	-0.256412
H207	H	-1.308314	0.429280	0.061576
H208	H	-0.808314	0.929280	0.561576
H209	H	-1.332108	-0.098599	-0.583371
H210	H	-0.832108	0.401401	-0.083371
C211	C	-0.658079	0.252241	-0.252610
C212	C	-0.158079	0.752241	0.247390
N213	N	-0.639263	0.290318	-0.290538
N214	N	-0.139263	0.790318	0.209462
C215	C	-0.789943	0.272136	-0.272423
C216	C	-0.289943	0.772136	0.227577
N217	N	-0.771126	0.310220	-0.310343
N218	N	-0.271126	0.810220	0.189657
H219	H	-0.565555	0.179371	-0.180031
H220	H	-0.065555	0.679371	0.319969
C221	C	-1.033948	0.350521	-0.638860
C222	C	-0.533948	0.850521	-0.138860
N223	N	-0.995920	0.407810	-0.600758
N224	N	-0.495920	0.907810	-0.100758
C225	C	-1.053802	0.320618	-0.517074
C226	C	-0.553802	0.820618	-0.017074
N227	N	-1.015774	0.377908	-0.478973
N228	N	-0.515774	0.877908	0.021027
C229	C	-1.033696	0.637286	-0.351554
C230	C	-0.533696	1.137286	0.148446
N231	N	-0.995634	0.599241	-0.408753
N232	N	-0.495634	1.099241	0.091247
H233	H	-1.213446	0.817059	-0.081272
H234	H	-0.713446	1.317059	0.418728
H235	H	-1.070698	0.295160	-0.804191
H236	H	-0.570698	0.795160	-0.304191
C237	C	-1.256169	0.796026	-0.017013
C238	C	-0.756169	1.296026	0.482987
N239	N	-1.266972	0.865509	-0.000805
N240	N	-0.766972	1.365509	0.499195
H241	H	-1.165343	0.414788	-0.153482
H242	H	-0.665343	0.914788	0.346518
H243	H	-1.213620	0.079875	-0.818870
H244	H	-0.713620	0.579875	-0.318870
H245	H	-1.252603	0.021154	-0.773917
H246	H	-0.752603	0.521154	-0.273917
