data_functionalizedCrystal
_audit_creation_method	'MofGen! by Chris Wilmer'
_symmetry_space_group_name_H-M	'P1'
_symmetry_Int_Tables_number	1
_symmetry_cell_setting	triclinic
loop_
_symmetry_equiv_pos_as_xyz
  x,y,z
_cell_length_a	23.532361
_cell_length_b	23.532407
_cell_length_c	16.053802
_cell_angle_alpha	92.544672
_cell_angle_beta	87.439726
_cell_angle_gamma	82.839173
loop_
_atom_site_label
_atom_site_type_symbol
_atom_site_fract_x
_atom_site_fract_y
_atom_site_fract_z
O1	O	0.757690	0.066599	-0.069353
O2	O	1.091024	0.399933	0.263980
O3	O	1.424357	0.733266	0.597313
O4	O	0.591824	0.076630	-0.069375
O5	O	0.925157	0.409963	0.263959
O6	O	1.258491	0.743296	0.597292
O7	O	0.679758	-0.011318	-0.069348
O8	O	1.013092	0.322016	0.263985
O9	O	1.346425	0.655349	0.597319
O10	O	0.669756	0.154546	-0.069380
O11	O	1.003089	0.487880	0.263953
O12	O	1.336423	0.821213	0.597287
O13	O	0.674918	-0.006497	0.069509
O14	O	1.008252	0.326837	0.402843
O15	O	1.341585	0.660170	0.736176
O16	O	0.586984	0.081451	0.069483
O17	O	0.920317	0.414784	0.402816
O18	O	1.253651	0.748117	0.736150
O19	O	0.752850	0.071420	0.069504
O20	O	1.086184	0.404754	0.402837
O21	O	1.419517	0.738087	0.736171
Zn22	Zn	0.669149	0.077201	0.091540
Zn23	Zn	1.002482	0.410534	0.424873
Zn24	Zn	1.335815	0.743868	0.758207
Zn25	Zn	0.675526	0.070849	-0.091411
Zn26	Zn	1.008859	0.404182	0.241923
Zn27	Zn	1.342192	0.737516	0.575256
O28	O	0.664916	0.159367	0.069478
O29	O	0.998249	0.492701	0.402811
O30	O	1.331583	0.826034	0.736144
C31	C	0.568187	0.078789	0.000052
C32	C	0.901521	0.412122	0.333385
C33	C	1.234854	0.745455	0.666718
C34	C	0.504969	0.078033	0.000044
C35	C	0.838303	0.411367	0.333378
C36	C	1.171636	0.744700	0.666711
C37	C	0.234364	0.072102	-0.075641
C38	C	0.567697	0.405435	0.257692
C39	C	0.901030	0.738769	0.591025
C40	C	0.293763	0.072817	-0.075644
C41	C	0.627097	0.406150	0.257690
C42	C	0.960430	0.739484	0.591023
O43	O	0.326733	0.070932	-0.140015
O44	O	0.660066	0.404265	0.193319
O45	O	0.993400	0.737599	0.526652
N46	N	0.320831	0.075806	0.000048
N47	N	0.654164	0.409139	0.333381
N48	N	0.987497	0.742473	0.666715
C49	C	0.288496	0.078075	0.075747
C50	C	0.621829	0.411408	0.409080
C51	C	0.955163	0.744741	0.742413
O52	O	0.316973	0.080682	0.140128
O53	O	0.650306	0.414015	0.473461
O54	O	0.983640	0.747349	0.806794
C55	C	0.229098	0.077356	0.075748
C56	C	0.562431	0.410689	0.409081
C57	C	0.895764	0.744022	0.742414
C58	C	0.202033	0.074372	0.000051
C59	C	0.535366	0.407705	0.333385
C60	C	0.868699	0.741039	0.666718
C61	C	0.207299	0.069118	-0.151332
C62	C	0.540632	0.402452	0.182002
C63	C	0.873965	0.735785	0.515335
C64	C	0.147903	0.068404	-0.151329
C65	C	0.481236	0.401738	0.182004
C66	C	0.814569	0.735071	0.515338
C67	C	0.115572	0.070675	-0.075636
C68	C	0.448905	0.404008	0.257697
C69	C	0.782239	0.737341	0.591030
C70	C	0.142637	0.073658	0.000054
C71	C	0.475970	0.406992	0.333387
C72	C	0.809304	0.740325	0.666721
C73	C	0.196764	0.079620	0.151446
C74	C	0.530098	0.412953	0.484779
C75	C	0.863431	0.746287	0.818112
C76	C	0.137363	0.078900	0.151440
C77	C	0.470696	0.412234	0.484774
C78	C	0.804029	0.745567	0.818107
C79	C	0.110298	0.075917	0.075744
C80	C	0.443631	0.409250	0.409077
C81	C	0.776964	0.742584	0.742411
C82	C	0.050910	0.075215	0.075749
C83	C	0.384244	0.408548	0.409083
C84	C	0.717577	0.741881	0.742416
N85	N	0.023843	0.072226	0.000058
N86	N	0.357176	0.405559	0.333391
N87	N	0.690510	0.738892	0.666724
C88	C	0.056174	0.069956	-0.075635
C89	C	0.389507	0.403289	0.257698
C90	C	0.722840	0.736622	0.591032
C91	C	0.413236	0.079583	0.075738
C92	C	0.746570	0.412917	0.409071
C93	C	1.079903	0.746250	0.742405
C94	C	0.472633	0.080306	0.075738
C95	C	0.805966	0.413640	0.409071
C96	C	1.139299	0.746973	0.742404
C97	C	0.477896	0.075048	-0.075653
C98	C	0.811230	0.408381	0.257681
C99	C	1.144563	0.741714	0.591014
C100	C	0.418498	0.074329	-0.075652
C101	C	0.751832	0.407662	0.257682
C102	C	1.085165	0.740995	0.591015
C103	C	0.386169	0.076594	0.000047
C104	C	0.719502	0.409927	0.333380
C105	C	1.052836	0.743261	0.666713
C106	C	-0.068562	0.068457	-0.075624
C107	C	0.264771	0.401791	0.257709
C108	C	0.598104	0.735124	0.591043
C109	C	-0.127964	0.067746	-0.075615
C110	C	0.205369	0.401080	0.257719
C111	C	0.538703	0.734413	0.591052
C112	C	-0.133222	0.073002	0.075775
C113	C	0.200111	0.406335	0.409108
C114	C	0.533445	0.739669	0.742442
C115	C	-0.073826	0.073716	0.075766
C116	C	0.259507	0.407050	0.409100
C117	C	0.592841	0.740383	0.742433
C118	C	-0.041497	0.071442	0.000060
C119	C	0.291836	0.404775	0.333393
C120	C	0.625170	0.738108	0.666727
O121	O	0.017904	0.077096	0.140087
O122	O	0.351238	0.410429	0.473421
O123	O	0.684571	0.743762	0.806754
O124	O	0.027690	0.067341	-0.140005
O125	O	0.361023	0.400674	0.193328
O126	O	0.694356	0.734007	0.526661
C127	C	0.677083	-0.030123	0.000083
C128	C	1.010417	0.303210	0.333416
C129	C	1.343750	0.636544	0.666749
C130	C	0.676317	-0.093340	0.000089
C131	C	1.009651	0.239994	0.333422
C132	C	1.342984	0.573327	0.666756
C133	C	0.723553	-0.492452	0.000049
C134	C	1.056887	-0.159119	0.333383
C135	C	1.390220	0.174215	0.666716
C136	C	0.722842	-0.551852	0.000043
C137	C	1.056175	-0.218519	0.333376
C138	C	1.389509	0.114814	0.666710
O139	O	0.766630	-0.588605	0.000018
O140	O	1.099963	-0.255272	0.333351
O141	O	1.433296	0.078062	0.666684
N142	N	0.670565	-0.574470	0.000037
N143	N	1.003898	-0.241137	0.333370
N144	N	1.337231	0.092197	0.666704
C145	C	0.618996	-0.537684	0.000029
C146	C	0.952329	-0.204351	0.333362
C147	C	1.285662	0.128983	0.666695
O148	O	0.574464	-0.562376	0.000022
O149	O	0.907798	-0.229043	0.333356
O150	O	1.241131	0.104290	0.666689
C151	C	0.619708	-0.478285	0.000029
C152	C	0.953041	-0.144952	0.333363
C153	C	1.286374	0.188382	0.666696
C154	C	0.671988	-0.455671	0.000044
C155	C	1.005321	-0.122337	0.333377
C156	C	1.338655	0.210996	0.666710
C157	C	0.775829	-0.469837	0.000063
C158	C	1.109163	-0.136504	0.333396
C159	C	1.442496	0.196830	0.666730
C160	C	0.776540	-0.410441	0.000071
C161	C	1.109874	-0.077107	0.333404
C162	C	1.443207	0.256226	0.666738
C163	C	0.724975	-0.373659	0.000065
C164	C	1.058309	-0.040326	0.333399
C165	C	1.391642	0.293007	0.666732
C166	C	0.672699	-0.396274	0.000052
C167	C	1.006032	-0.062941	0.333385
C168	C	1.339366	0.270392	0.666718
C169	C	0.568139	-0.441501	0.000015
C170	C	0.901473	-0.108167	0.333348
C171	C	1.234806	0.225166	0.666682
C172	C	0.568856	-0.382098	0.000015
C173	C	0.902189	-0.048765	0.333348
C174	C	1.235523	0.284569	0.666682
C175	C	0.621136	-0.359484	0.000029
C176	C	0.954470	-0.026150	0.333363
C177	C	1.287803	0.307183	0.666696
C178	C	0.621845	-0.300097	0.000054
C179	C	0.955178	0.033237	0.333387
C180	C	1.288511	0.366570	0.666721
N181	N	0.674122	-0.277479	0.000060
N182	N	1.007455	0.055854	0.333394
N183	N	1.340789	0.389188	0.666727
C184	C	0.725687	-0.314260	0.000066
C185	C	1.059021	0.019073	0.333399
C186	C	1.392354	0.352406	0.666732
C187	C	0.617504	-0.662426	0.000026
C188	C	0.950838	-0.329093	0.333360
C189	C	1.284171	0.004240	0.666693
C190	C	0.616791	-0.721824	0.000032
C191	C	0.950125	-0.388491	0.333365
C192	C	1.283458	-0.055157	0.666699
C193	C	0.720638	-0.735988	0.000044
C194	C	1.053971	-0.402655	0.333378
C195	C	1.387305	-0.069322	0.666711
C196	C	0.721350	-0.676589	0.000045
C197	C	1.054684	-0.343256	0.333378
C198	C	1.388017	-0.009923	0.666712
C199	C	0.669782	-0.639809	0.000032
C200	C	1.003115	-0.306475	0.333366
C201	C	1.336448	0.026858	0.666699
C202	C	0.727176	-0.189523	0.000083
C203	C	1.060510	0.143810	0.333417
C204	C	1.393843	0.477143	0.666750
C205	C	0.727883	-0.130121	0.000095
C206	C	1.061216	0.203212	0.333428
C207	C	1.394549	0.536546	0.666761
C208	C	0.624036	-0.115962	0.000078
C209	C	0.957370	0.217371	0.333411
C210	C	1.290703	0.550705	0.666744
C211	C	0.623330	-0.175359	0.000071
C212	C	0.956663	0.157974	0.333404
C213	C	1.289996	0.491308	0.666737
C214	C	0.674904	-0.212139	0.000071
C215	C	1.008238	0.121194	0.333404
C216	C	1.341571	0.454528	0.666737
O217	O	0.578080	-0.263309	0.000076
O218	O	0.911413	0.070024	0.333409
O219	O	1.244747	0.403357	0.666743
O220	O	0.770212	-0.289560	0.000061
O221	O	1.103545	0.043773	0.333395
O222	O	1.436878	0.377107	0.666728
C223	C	0.776487	0.069261	0.000076
C224	C	1.109820	0.402594	0.333409
C225	C	1.443153	0.735928	0.666743
C226	C	0.839705	0.070016	0.000078
C227	C	1.173039	0.403350	0.333411
C228	C	1.506372	0.736683	0.666745
C229	C	0.667591	0.178173	0.000045
C230	C	1.000924	0.511506	0.333378
C231	C	1.334257	0.844839	0.666712
C232	C	0.668357	0.241389	0.000033
C233	C	1.001690	0.574723	0.333366
C234	C	1.335024	0.908056	0.666700
N235	N	0.664801	0.081535	0.216399
N236	N	0.998134	0.414869	0.549732
N237	N	1.331467	0.748202	0.883066
N238	N	0.679878	0.066510	-0.216270
N239	N	1.013211	0.399843	0.117064
N240	N	1.346545	0.733176	0.450397
C241	C	0.702230	0.044127	0.260104
C242	C	1.035564	0.377460	0.593438
C243	C	1.368897	0.710794	0.926771
C244	C	0.699194	0.047165	0.347510
C245	C	1.032528	0.380498	0.680843
C246	C	1.365861	0.713831	1.014177
C247	C	0.658731	0.087614	0.391209
C248	C	0.992064	0.420947	0.724543
C249	C	1.325397	0.754280	1.057876
C250	C	0.621297	0.125024	0.347498
C251	C	0.954630	0.458357	0.680831
C252	C	1.287964	0.791690	1.014165
C253	C	0.624331	0.121983	0.260094
C254	C	0.957664	0.455316	0.593427
C255	C	1.290998	0.788650	0.926760
C256	C	0.645478	0.100879	0.652615
C257	C	0.978812	0.434213	0.985948
C258	C	1.312145	0.767546	1.319281
C259	C	0.642448	0.103918	0.740025
C260	C	0.975782	0.437252	1.073359
C261	C	1.309115	0.770585	1.406692
C262	C	0.720345	0.026058	0.740031
C263	C	1.053679	0.359391	1.073365
C264	C	1.387012	0.692725	1.406698
C265	C	0.723378	0.023023	0.652626
C266	C	1.056711	0.356357	0.985959
C267	C	1.390045	0.689690	1.319292
C268	C	0.685942	0.060431	0.608922
C269	C	1.019276	0.393765	0.942255
C270	C	1.352609	0.727098	1.275588
N271	N	0.655627	0.090721	0.480552
N272	N	0.988961	0.424054	0.813885
N273	N	1.322294	0.757387	1.147219
N274	N	0.689043	0.057321	0.519581
N275	N	1.022376	0.390655	0.852914
N276	N	1.355710	0.723988	1.186247
H277	H	0.386916	0.081436	0.137384
H278	H	0.720249	0.414769	0.470718
H279	H	1.053583	0.748102	0.804051
O280	O	0.566944	-0.199756	0.000058
O281	O	0.900277	0.133577	0.333391
O282	O	1.233611	0.466910	0.666724
H283	H	0.531207	-0.164198	0.000051
H284	H	0.864541	0.169135	0.333385
H285	H	1.197874	0.502468	0.666718
H286	H	0.575508	-0.632482	0.000023
H287	H	0.908841	-0.299149	0.333357
H288	H	1.242175	0.034185	0.666690
H289	H	0.770457	-0.111712	0.000109
H290	H	1.103791	0.221621	0.333442
H291	H	1.437124	0.554955	0.666775
O292	O	0.782801	-0.229189	0.000096
O293	O	1.116134	0.104144	0.333429
O294	O	1.449468	0.437478	0.666762
H295	H	0.819266	-0.203475	0.000116
H296	H	1.152600	0.129858	0.333450
H297	H	1.485933	0.463191	0.666783
O298	O	0.605106	0.141232	0.605488
O299	O	0.938440	0.474565	0.938822
O300	O	1.271773	0.807898	1.272155
H301	H	0.614006	0.132322	0.537368
H302	H	0.947340	0.465655	0.870702
H303	H	1.280673	0.798988	1.204035
H304	H	0.504231	0.073199	-0.137286
H305	H	0.837565	0.406532	0.196047
H306	H	1.170898	0.739865	0.529381
O307	O	0.767027	-0.020605	0.605507
O308	O	1.100361	0.312728	0.938841
O309	O	1.433694	0.646062	1.272174
H310	H	0.795955	0.001844	0.565684
H311	H	1.129288	0.335177	0.899017
H312	H	1.462621	0.668511	1.232350
H313	H	-0.159557	0.074853	0.137402
H314	H	0.173777	0.408186	0.470735
H315	H	0.507110	0.741519	0.804069
O316	O	0.777740	-0.652203	0.000044
O317	O	1.111073	-0.318869	0.333377
O318	O	1.444406	0.014464	0.666710
H319	H	0.800531	-0.665045	0.056638
H320	H	1.133865	-0.331712	0.389972
H321	H	1.467198	0.001622	0.723305
H322	H	0.218790	0.082048	0.213086
H323	H	0.552124	0.415381	0.546419
H324	H	0.885457	0.748714	0.879752
H325	H	-0.149997	0.065318	-0.137259
H326	H	0.183336	0.398652	0.196075
H327	H	0.516669	0.731985	0.529408
O328	O	0.831452	-0.509502	0.000083
O329	O	1.164785	-0.176168	0.333416
O330	O	1.498119	0.157165	0.666749
H331	H	0.858465	-0.503452	-0.056501
H332	H	1.191798	-0.170119	0.276832
H333	H	1.525132	0.163215	0.610165
O334	O	0.501820	0.083543	0.157380
O335	O	0.835153	0.416876	0.490714
O336	O	1.168487	0.750210	0.824047
H337	H	0.469353	0.085002	0.210010
H338	H	0.802687	0.418336	0.543343
H339	H	1.136020	0.751669	0.876677
H340	H	0.593851	0.152444	0.224510
H341	H	0.927184	0.485778	0.557843
H342	H	1.260518	0.819111	0.891176
H343	H	0.111042	0.080750	0.213084
H344	H	0.444375	0.414084	0.546418
H345	H	0.777709	0.747417	0.879751
H346	H	0.233617	0.067268	-0.212973
H347	H	0.566950	0.400601	0.120360
H348	H	0.900283	0.733934	0.453694
O349	O	-0.044629	0.076936	0.157407
O350	O	0.288705	0.410269	0.490740
O351	O	0.622038	0.743602	0.824073
H352	H	-0.077092	0.078392	0.210040
H353	H	0.256242	0.411725	0.543374
H354	H	0.589575	0.745059	0.876707
O355	O	0.598798	0.147547	0.787152
O356	O	0.932131	0.480881	1.120485
O357	O	1.265465	0.814214	1.453819
H358	H	0.621230	0.176493	0.826949
H359	H	0.954564	0.509827	1.160282
H360	H	1.287897	0.843160	1.493616
O361	O	0.568420	-0.076286	0.000071
O362	O	0.901754	0.257047	0.333404
O363	O	1.235087	0.590380	0.666737
H364	H	0.577703	-0.031185	0.000069
H365	H	0.911037	0.302148	0.333402
H366	H	1.244370	0.635482	0.666735
O367	O	0.577656	0.168653	0.394631
O368	O	0.910990	0.501986	0.727964
O369	O	1.244323	0.835320	1.061297
H370	H	0.585243	0.212427	0.377828
H371	H	0.918576	0.545760	0.711161
H372	H	1.251910	0.879094	1.044494
H373	H	0.762625	-0.765947	0.000046
H374	H	1.095959	-0.432614	0.333379
H375	H	1.429292	-0.099280	0.666713
O376	O	-0.033698	0.066010	-0.157276
O377	O	0.299636	0.399344	0.176058
O378	O	0.632969	0.732677	0.509391
H379	H	-0.062506	0.063822	-0.209901
H380	H	0.270828	0.397155	0.123433
H381	H	0.604161	0.730488	0.456766
H382	H	0.735182	0.011191	0.224530
H383	H	1.068516	0.344525	0.557864
H384	H	1.401849	0.677858	0.891197
H385	H	0.729672	0.016703	0.383095
H386	H	1.063005	0.350037	0.716428
H387	H	1.396339	0.683370	1.049761
H388	H	0.819113	-0.392034	0.000079
H389	H	1.152446	-0.058701	0.333413
H390	H	1.485779	0.274632	0.666746
H391	H	0.750823	-0.004399	0.775623
H392	H	1.084156	0.328935	1.108956
H393	H	1.417490	0.662268	1.442290
H394	H	0.574219	-0.740230	0.000034
H395	H	0.907552	-0.406897	0.333368
H396	H	1.240886	-0.073564	0.666701
H397	H	0.525567	-0.459902	-0.000002
H398	H	0.858901	-0.126569	0.333332
H399	H	1.192234	0.206764	0.666665
O400	O	0.513233	-0.342428	0.000013
O401	O	0.846566	-0.009095	0.333347
O402	O	1.179899	0.324238	0.666680
H403	H	0.490169	-0.352393	-0.056584
H404	H	0.823502	-0.019060	0.276750
H405	H	1.156836	0.314274	0.610083
O406	O	0.118729	0.065159	-0.232982
O407	O	0.452062	0.398492	0.100351
O408	O	0.785396	0.731825	0.433684
H409	H	0.126099	0.102847	-0.269308
H410	H	0.459432	0.436180	0.064025
H411	H	0.792766	0.769513	0.397358
O412	O	0.389310	0.071093	-0.157294
O413	O	0.722643	0.404426	0.176040
O414	O	1.055976	0.737760	0.509373
H415	H	0.421777	0.069628	-0.209923
H416	H	0.755111	0.402961	0.123410
H417	H	1.088444	0.736295	0.456744
