data_functionalizedCrystal
_audit_creation_method	'MofGen! by Chris Wilmer'
_symmetry_space_group_name_H-M	'P1'
_symmetry_Int_Tables_number	1
_symmetry_cell_setting	triclinic
loop_
_symmetry_equiv_pos_as_xyz
  x,y,z
_cell_length_a	15.944493
_cell_length_b	27.731996
_cell_length_c	26.809956
_cell_angle_alpha	89.989805
_cell_angle_beta	89.984219
_cell_angle_gamma	83.048216
loop_
_atom_site_label
_atom_site_type_symbol
_atom_site_fract_x
_atom_site_fract_y
_atom_site_fract_z
O1	O	1.113735	0.062207	-0.041480
O2	O	1.363735	0.312207	0.208520
O3	O	1.613735	0.562207	0.458520
O4	O	1.863735	0.812207	0.708520
O5	O	0.869076	0.069923	-0.041483
O6	O	1.119076	0.319923	0.208517
O7	O	1.369076	0.569923	0.458517
O8	O	1.619076	0.819923	0.708517
O9	O	0.999027	-0.004302	-0.041470
O10	O	1.249027	0.245698	0.208530
O11	O	1.499027	0.495698	0.458530
O12	O	1.749027	0.745698	0.708530
O13	O	0.983784	0.136431	-0.041492
O14	O	1.233784	0.386431	0.208508
O15	O	1.483784	0.636431	0.458508
O16	O	1.733784	0.886431	0.708508
O17	O	0.998986	-0.004301	0.041489
O18	O	1.248986	0.245699	0.291489
O19	O	1.498986	0.495699	0.541489
O20	O	1.748986	0.745699	0.791489
O21	O	0.869035	0.069923	0.041476
O22	O	1.119035	0.319923	0.291476
O23	O	1.369035	0.569923	0.541476
O24	O	1.619035	0.819923	0.791476
O25	O	1.113695	0.062208	0.041480
O26	O	1.363695	0.312208	0.291480
O27	O	1.613695	0.562208	0.541480
O28	O	1.863695	0.812208	0.791480
Zn29	Zn	0.991359	0.066065	0.054650
Zn30	Zn	1.241359	0.316065	0.304650
Zn31	Zn	1.491359	0.566065	0.554650
Zn32	Zn	1.741359	0.816065	0.804650
Zn33	Zn	0.991412	0.066065	-0.054653
Zn34	Zn	1.241412	0.316065	0.195347
Zn35	Zn	1.491412	0.566065	0.445347
Zn36	Zn	1.741412	0.816065	0.695347
O37	O	0.983744	0.136432	0.041467
O38	O	1.233744	0.386432	0.291467
O39	O	1.483744	0.636432	0.541467
O40	O	1.733744	0.886432	0.791467
C41	C	0.837765	0.069607	-0.000004
C42	C	1.087765	0.319607	0.249996
C43	C	1.337765	0.569607	0.499996
C44	C	1.587765	0.819607	0.749996
C45	C	0.744529	0.068662	-0.000004
C46	C	0.994529	0.318662	0.249996
C47	C	1.244529	0.568662	0.499996
C48	C	1.494529	0.818662	0.749996
C49	C	0.508184	0.112352	-0.000011
C50	C	0.758184	0.362352	0.249989
C51	C	1.008184	0.612352	0.499989
C52	C	1.258184	0.862352	0.749989
C53	C	0.457921	0.088792	0.040898
C54	C	0.707921	0.338792	0.290898
C55	C	0.957921	0.588792	0.540898
C56	C	1.207921	0.838792	0.790898
C57	C	0.573831	0.066910	-0.000003
C58	C	0.823831	0.316910	0.249997
C59	C	1.073831	0.566910	0.499997
C60	C	1.323831	0.816910	0.749997
C61	C	0.457966	0.088781	-0.040894
C62	C	0.707966	0.338781	0.209106
C63	C	0.957966	0.588781	0.459106
C64	C	1.207966	0.838781	0.709106
C65	C	0.408944	0.065222	-0.000004
C66	C	0.658944	0.315222	0.249996
C67	C	0.908944	0.565222	0.499996
C68	C	1.158944	0.815222	0.749996
C69	C	0.524797	0.043362	0.040940
C70	C	0.774797	0.293362	0.290940
C71	C	1.024797	0.543362	0.540940
C72	C	1.274797	0.793362	0.790940
C73	C	0.524845	0.043358	-0.040888
C74	C	0.774845	0.293358	0.209112
C75	C	1.024845	0.543358	0.459112
C76	C	1.274845	0.793358	0.709112
C77	C	0.474616	0.019764	0.000031
C78	C	0.724616	0.269764	0.250031
C79	C	0.974616	0.519764	0.500031
C80	C	1.224616	0.769764	0.750031
C81	C	0.668818	0.067884	-0.000002
C82	C	0.918818	0.317884	0.249998
C83	C	1.168818	0.567884	0.499998
C84	C	1.418818	0.817884	0.749998
C85	C	0.313960	0.064244	-0.000001
C86	C	0.563960	0.314244	0.249999
C87	C	0.813960	0.564244	0.499999
C88	C	1.063960	0.814244	0.749999
C89	C	0.998694	-0.022310	0.000011
C90	C	1.248694	0.227690	0.250011
C91	C	1.498694	0.477690	0.500011
C92	C	1.748694	0.727690	0.750011
C93	C	0.997750	-0.075970	0.000016
C94	C	1.247750	0.174030	0.250016
C95	C	1.497750	0.424030	0.500016
C96	C	1.747750	0.674030	0.750016
C97	C	0.991839	-0.408712	-0.045230
C98	C	1.241839	-0.158712	0.204770
C99	C	1.491839	0.091288	0.454770
C100	C	1.741839	0.341288	0.704770
C101	C	0.988257	-0.610385	-0.045238
C102	C	1.238257	-0.360385	0.204762
C103	C	1.488257	-0.110385	0.454762
C104	C	1.738257	0.139615	0.704762
O105	O	0.987777	-0.636458	-0.083697
O106	O	1.237777	-0.386458	0.166303
O107	O	1.487777	-0.136458	0.416303
O108	O	1.737777	0.113542	0.666303
N109	N	0.987790	-0.635604	-0.000018
N110	N	1.237790	-0.385604	0.249982
N111	N	1.487790	-0.135604	0.499982
N112	N	1.737790	0.114396	0.749982
C113	C	0.988213	-0.610401	0.045208
C114	C	1.238213	-0.360401	0.295208
C115	C	1.488213	-0.110401	0.545208
C116	C	1.738213	0.139599	0.795208
O117	O	0.987725	-0.636478	0.083671
O118	O	1.237725	-0.386478	0.333671
O119	O	1.487725	-0.136478	0.583671
O120	O	1.737725	0.113522	0.833671
C121	C	0.991789	-0.408728	0.045217
C122	C	1.241789	-0.158728	0.295217
C123	C	1.491789	0.091272	0.545217
C124	C	1.741789	0.341272	0.795217
C125	C	0.992264	-0.383512	-0.000007
C126	C	1.242264	-0.133512	0.249993
C127	C	1.492264	0.116488	0.499993
C128	C	1.742264	0.366488	0.749993
C129	C	0.992313	-0.383496	-0.090449
C130	C	1.242313	-0.133496	0.159551
C131	C	1.492313	0.116504	0.409551
C132	C	1.742313	0.366504	0.659551
C133	C	0.993213	-0.333081	-0.090447
C134	C	1.243213	-0.083081	0.159553
C135	C	1.493213	0.166919	0.409553
C136	C	1.743213	0.416919	0.659553
C137	C	0.993639	-0.307882	-0.045224
C138	C	1.243639	-0.057882	0.204776
C139	C	1.493639	0.192118	0.454776
C140	C	1.743639	0.442118	0.704776
C141	C	0.993164	-0.333098	-0.000004
C142	C	1.243164	-0.083098	0.249996
C143	C	1.493164	0.166902	0.499996
C144	C	1.743164	0.416902	0.749996
C145	C	0.992206	-0.383525	0.090442
C146	C	1.242206	-0.133525	0.340442
C147	C	1.492206	0.116475	0.590442
C148	C	1.742206	0.366475	0.840442
C149	C	0.993097	-0.333104	0.090440
C150	C	1.243097	-0.083104	0.340440
C151	C	1.493097	0.166896	0.590440
C152	C	1.743097	0.416896	0.840440
C153	C	0.993573	-0.307888	0.045217
C154	C	1.243573	-0.057888	0.295217
C155	C	1.493573	0.192112	0.545217
C156	C	1.743573	0.442112	0.795217
C157	C	0.994489	-0.257483	0.045221
C158	C	1.244489	-0.007483	0.295221
C159	C	1.494489	0.242517	0.545221
C160	C	1.744489	0.492517	0.795221
N161	N	0.994956	-0.232264	0.000000
N162	N	1.244956	0.017736	0.250000
N163	N	1.494956	0.267736	0.500000
N164	N	1.744956	0.517736	0.750000
C165	C	0.994531	-0.257464	-0.045222
C166	C	1.244531	-0.007464	0.204778
C167	C	1.494531	0.242536	0.454778
C168	C	1.744531	0.492536	0.704778
C169	C	0.986338	-0.716282	0.045201
C170	C	1.236338	-0.466282	0.295201
C171	C	1.486338	-0.216282	0.545201
C172	C	1.736338	0.033718	0.795201
C173	C	0.985446	-0.766700	0.045199
C174	C	1.235446	-0.516700	0.295199
C175	C	1.485446	-0.266700	0.545199
C176	C	1.735446	-0.016700	0.795199
C177	C	0.985488	-0.766681	-0.045248
C178	C	1.235488	-0.516681	0.204752
C179	C	1.485488	-0.266681	0.454752
C180	C	1.735488	-0.016681	0.704752
C181	C	0.986386	-0.716262	-0.045246
C182	C	1.236386	-0.466262	0.204754
C183	C	1.486386	-0.216262	0.454754
C184	C	1.736386	0.033738	0.704754
C185	C	0.986805	-0.691063	-0.000020
C186	C	1.236805	-0.441063	0.249980
C187	C	1.486805	-0.191063	0.499980
C188	C	1.736805	0.058937	0.749980
C189	C	0.996422	-0.151589	-0.045213
C190	C	1.246422	0.098411	0.204787
C191	C	1.496422	0.348411	0.454787
C192	C	1.746422	0.598411	0.704787
C193	C	0.997325	-0.101170	-0.045207
C194	C	1.247325	0.148830	0.204793
C195	C	1.497325	0.398830	0.454793
C196	C	1.747325	0.648830	0.704793
C197	C	0.997278	-0.101193	0.045240
C198	C	1.247278	0.148807	0.295240
C199	C	1.497278	0.398807	0.545240
C200	C	1.747278	0.648807	0.795240
C201	C	0.996379	-0.151608	0.045234
C202	C	1.246379	0.098392	0.295234
C203	C	1.496379	0.348392	0.545234
C204	C	1.746379	0.598392	0.795234
C205	C	0.995948	-0.176805	0.000003
C206	C	1.245948	0.073195	0.250003
C207	C	1.495948	0.323195	0.500003
C208	C	1.745948	0.573195	0.750003
O209	O	0.994961	-0.231378	0.083660
O210	O	1.244961	0.018622	0.333660
O211	O	1.494961	0.268622	0.583660
O212	O	1.744961	0.518622	0.833660
O213	O	0.995000	-0.231377	-0.083679
O214	O	1.245000	0.018623	0.166321
O215	O	1.495000	0.268623	0.416321
O216	O	1.745000	0.518623	0.666321
C217	C	0.990939	-0.459127	-0.045232
C218	C	1.240939	-0.209127	0.204768
C219	C	1.490939	0.040873	0.454768
C220	C	1.740939	0.290873	0.704768
C221	C	0.990464	-0.484342	-0.000012
C222	C	1.240464	-0.234342	0.249988
C223	C	1.490464	0.015658	0.499988
C224	C	1.740464	0.265658	0.749988
C225	C	0.990890	-0.459143	0.045210
C226	C	1.240890	-0.209143	0.295210
C227	C	1.490890	0.040857	0.545210
C228	C	1.740890	0.290857	0.795210
C229	C	0.989572	-0.534761	-0.000014
C230	C	1.239572	-0.284761	0.249986
C231	C	1.489572	-0.034761	0.499986
C232	C	1.739572	0.215239	0.749986
C233	C	0.989147	-0.559960	-0.045237
C234	C	1.239147	-0.309960	0.204763
C235	C	1.489147	-0.059960	0.454763
C236	C	1.739147	0.190040	0.704763
C237	C	0.989614	-0.534741	-0.090457
C238	C	1.239614	-0.284741	0.159543
C239	C	1.489614	-0.034741	0.409543
C240	C	1.739614	0.215259	0.659543
C241	C	0.990513	-0.484326	-0.090455
C242	C	1.240513	-0.234326	0.159545
C243	C	1.490513	0.015674	0.409545
C244	C	1.740513	0.265674	0.659545
C245	C	0.990423	-0.484362	0.090431
C246	C	1.240423	-0.234362	0.340431
C247	C	1.490423	0.015638	0.590431
C248	C	1.740423	0.265638	0.840431
C249	C	0.989524	-0.534777	0.090425
C250	C	1.239524	-0.284777	0.340425
C251	C	1.489524	-0.034777	0.590425
C252	C	1.739524	0.215223	0.840425
C253	C	0.989099	-0.559976	0.045202
C254	C	1.239099	-0.309976	0.295202
C255	C	1.489099	-0.059976	0.545202
C256	C	1.739099	0.190024	0.795202
C257	C	1.145006	0.062523	-0.000001
C258	C	1.395006	0.312523	0.249999
C259	C	1.645006	0.562523	0.499999
C260	C	1.895006	0.812523	0.749999
C261	C	1.238242	0.063468	-0.000003
C262	C	1.488242	0.313468	0.249997
C263	C	1.738242	0.563468	0.499997
C264	C	1.988242	0.813468	0.749997
C265	C	0.984077	0.154440	-0.000015
C266	C	1.234077	0.404440	0.249985
C267	C	1.484077	0.654440	0.499985
C268	C	1.734077	0.904440	0.749985
C269	C	0.985020	0.208100	-0.000024
C270	C	1.235020	0.458100	0.249976
C271	C	1.485020	0.708100	0.499976
C272	C	1.735020	0.958100	0.749976
N273	N	0.991328	0.066066	0.129246
N274	N	1.241328	0.316066	0.379246
N275	N	1.491328	0.566066	0.629246
N276	N	1.741328	0.816066	0.879246
C277	C	1.041948	0.095393	0.473868
C278	C	1.291948	0.345393	0.723868
C279	C	1.541948	0.595393	0.973868
C280	C	1.791948	0.845393	1.223868
C281	C	1.041973	0.095394	0.682745
C282	C	1.291973	0.345394	0.932745
C283	C	1.541973	0.595394	1.182745
C284	C	1.791973	0.845394	1.432745
O285	O	1.084992	0.120322	0.709746
O286	O	1.334992	0.370322	0.959746
O287	O	1.584992	0.620322	1.209746
O288	O	1.834992	0.870322	1.459746
N289	N	0.991425	0.066066	0.708873
N290	N	1.241425	0.316066	0.958873
N291	N	1.491425	0.566066	1.208873
N292	N	1.741425	0.816066	1.458873
C293	C	0.940870	0.036732	0.682777
C294	C	1.190870	0.286732	0.932777
C295	C	1.440870	0.536732	1.182777
C296	C	1.690870	0.786732	1.432777
O297	O	0.897883	0.011783	0.709793
O298	O	1.147883	0.261783	0.959793
O299	O	1.397883	0.511783	1.209793
O300	O	1.647883	0.761783	1.459793
C301	C	0.940850	0.036729	0.473901
C302	C	1.190850	0.286729	0.723901
C303	C	1.440850	0.536729	0.973901
C304	C	1.690850	0.786729	1.223901
C305	C	0.991396	0.066063	0.447776
C306	C	1.241396	0.316063	0.697776
C307	C	1.491396	0.566063	0.947776
C308	C	1.741396	0.816063	1.197776
C309	C	1.092490	0.124725	0.447743
C310	C	1.342490	0.374725	0.697743
C311	C	1.592490	0.624725	0.947743
C312	C	1.842490	0.874725	1.197743
C313	C	1.092480	0.124726	0.395527
C314	C	1.342480	0.374726	0.645527
C315	C	1.592480	0.624726	0.895527
C316	C	1.842480	0.874726	1.145527
C317	C	1.041927	0.095396	0.369435
C318	C	1.291927	0.345396	0.619435
C319	C	1.541927	0.595396	0.869435
C320	C	1.791927	0.845396	1.119435
C321	C	0.991386	0.066064	0.395560
C322	C	1.241386	0.316064	0.645560
C323	C	1.491386	0.566064	0.895560
C324	C	1.741386	0.816064	1.145560
C325	C	0.890301	0.007393	0.447806
C326	C	1.140301	0.257393	0.697806
C327	C	1.390301	0.507393	0.947806
C328	C	1.640301	0.757393	1.197806
C329	C	0.890302	0.007394	0.395584
C330	C	1.140302	0.257394	0.645584
C331	C	1.390302	0.507394	0.895584
C332	C	1.640302	0.757394	1.145584
C333	C	0.940848	0.036728	0.369459
C334	C	1.190848	0.286728	0.619459
C335	C	1.440848	0.536728	0.869459
C336	C	1.690848	0.786728	1.119459
C337	C	0.940823	0.036736	0.317252
C338	C	1.190823	0.286736	0.567252
C339	C	1.440823	0.536736	0.817252
C340	C	1.690823	0.786736	1.067252
N341	N	0.991372	0.066064	0.291124
N342	N	1.241372	0.316064	0.541124
N343	N	1.491372	0.566064	0.791124
N344	N	1.741372	0.816064	1.041124
C345	C	1.041924	0.095394	0.317216
C346	C	1.291924	0.345394	0.567216
C347	C	1.541924	0.595394	0.817216
C348	C	1.791924	0.845394	1.067216
C349	C	0.940883	0.036737	0.792441
C350	C	1.190883	0.286737	1.042441
C351	C	1.440883	0.536737	1.292441
C352	C	1.690883	0.786737	1.542441
C353	C	0.940887	0.036738	0.844660
C354	C	1.190887	0.286738	1.094660
C355	C	1.440887	0.536738	1.344660
C356	C	1.690887	0.786738	1.594660
C357	C	1.041991	0.095400	0.844624
C358	C	1.291991	0.345400	1.094624
C359	C	1.541991	0.595400	1.344624
C360	C	1.791991	0.845400	1.594624
C361	C	1.041982	0.095401	0.792404
C362	C	1.291982	0.345401	1.042404
C363	C	1.541982	0.595401	1.292404
C364	C	1.791982	0.845401	1.542404
C365	C	0.991432	0.066065	0.766313
C366	C	1.241432	0.316065	1.016313
C367	C	1.491432	0.566065	1.266313
C368	C	1.741432	0.816065	1.516313
C369	C	1.041898	0.095395	0.207558
C370	C	1.291898	0.345395	0.457558
C371	C	1.541898	0.595395	0.707558
C372	C	1.791898	0.845395	0.957558
C373	C	1.041881	0.095396	0.155337
C374	C	1.291881	0.345396	0.405337
C375	C	1.541881	0.595396	0.655337
C376	C	1.791881	0.845396	0.905337
C377	C	0.940780	0.036732	0.155377
C378	C	1.190780	0.286732	0.405377
C379	C	1.440780	0.536732	0.655377
C380	C	1.690780	0.786732	0.905377
C381	C	0.940794	0.036734	0.207594
C382	C	1.190794	0.286734	0.457594
C383	C	1.440794	0.536734	0.707594
C384	C	1.690794	0.786734	0.957594
C385	C	0.991359	0.066067	0.233683
C386	C	1.241359	0.316067	0.483683
C387	C	1.491359	0.566067	0.733683
C388	C	1.741359	0.816067	0.983683
O389	O	0.897834	0.011817	0.290219
O390	O	1.147834	0.261817	0.540219
O391	O	1.397834	0.511817	0.790219
O392	O	1.647834	0.761817	1.040219
O393	O	1.084919	0.120332	0.290191
O394	O	1.334919	0.370332	0.540191
O395	O	1.584919	0.620332	0.790191
O396	O	1.834919	0.870332	1.040191
C397	C	1.041958	0.095392	0.526084
C398	C	1.291958	0.345392	0.776084
C399	C	1.541958	0.595392	1.026084
C400	C	1.791958	0.845392	1.276084
C401	C	0.991416	0.066060	0.552209
C402	C	1.241416	0.316060	0.802209
C403	C	1.491416	0.566060	1.052209
C404	C	1.741416	0.816060	1.302209
C405	C	0.940864	0.036730	0.526117
C406	C	1.190864	0.286730	0.776117
C407	C	1.440864	0.536730	1.026117
C408	C	1.690864	0.786730	1.276117
C409	C	0.991420	0.066062	0.604427
C410	C	1.241420	0.316062	0.854427
C411	C	1.491420	0.566062	1.104427
C412	C	1.741420	0.816062	1.354427
C413	C	1.041972	0.095392	0.630519
C414	C	1.291972	0.345392	0.880519
C415	C	1.541972	0.595392	1.130519
C416	C	1.791972	0.845392	1.380519
C417	C	1.092521	0.124720	0.604392
C418	C	1.342521	0.374720	0.854392
C419	C	1.592521	0.624720	1.104392
C420	C	1.842521	0.874720	1.354392
C421	C	1.092510	0.124722	0.552175
C422	C	1.342510	0.374722	0.802175
C423	C	1.592510	0.624722	1.052175
C424	C	1.842510	0.874722	1.302175
C425	C	0.890316	0.007401	0.552244
C426	C	1.140316	0.257401	0.802244
C427	C	1.390316	0.507401	1.052244
C428	C	1.640316	0.757401	1.302244
C429	C	0.890329	0.007403	0.604461
C430	C	1.140329	0.257403	0.854461
C431	C	1.390329	0.507403	1.104461
C432	C	1.640329	0.757403	1.354461
C433	C	0.940881	0.036733	0.630552
C434	C	1.190881	0.286733	0.880552
C435	C	1.440881	0.536733	1.130552
C436	C	1.690881	0.786733	1.380552
N437	N	0.991439	0.066068	0.870751
N438	N	1.241439	0.316068	1.120751
N439	N	1.491439	0.566068	1.370751
N440	N	1.741439	0.816068	1.620751
H441	H	0.523283	0.151495	0.000021
H442	H	0.773283	0.401495	0.250021
H443	H	1.023283	0.651495	0.500021
H444	H	1.273283	0.901495	0.750021
H445	H	0.993597	-0.312555	-0.127273
H446	H	1.243597	-0.062555	0.122727
H447	H	1.493597	0.187445	0.372727
H448	H	1.743597	0.437445	0.622727
H449	H	0.428709	0.107983	0.075476
H450	H	0.678709	0.357983	0.325476
H451	H	0.928709	0.607983	0.575476
H452	H	1.178709	0.857983	0.825476
Br453	Br	0.821698	-0.032420	0.483248
Br454	Br	1.071698	0.217580	0.733248
Br455	Br	1.321698	0.467580	0.983248
Br456	Br	1.571698	0.717580	1.233248
H457	H	0.428787	0.107981	-0.075474
H458	H	0.678787	0.357981	0.174526
H459	H	0.928787	0.607981	0.424526
H460	H	1.178787	0.857981	0.674526
Br461	Br	0.872174	-0.003069	0.119957
Br462	Br	1.122174	0.246931	0.369957
Br463	Br	1.372174	0.496931	0.619957
Br464	Br	1.622174	0.746931	0.869957
Br465	Br	0.821719	-0.032408	0.639909
Br466	Br	1.071719	0.217592	0.889909
Br467	Br	1.321719	0.467592	1.139909
Br468	Br	1.571719	0.717592	1.389909
H469	H	0.899718	0.012857	0.865926
H470	H	1.149718	0.262857	1.115926
H471	H	1.399718	0.512857	1.365926
H472	H	1.649718	0.762857	1.615926
Br473	Br	0.997975	-0.066952	-0.106586
Br474	Br	1.247975	0.183048	0.143414
Br475	Br	1.497975	0.433048	0.393414
Br476	Br	1.747975	0.683048	0.643414
H477	H	0.989271	-0.555268	-0.127279
H478	H	1.239271	-0.305268	0.122721
H479	H	1.489271	-0.055268	0.372721
H480	H	1.739271	0.194732	0.622721
H481	H	0.899625	0.012853	0.228866
H482	H	1.149625	0.262853	0.478866
H483	H	1.399625	0.512853	0.728866
H484	H	1.649625	0.762853	0.978866
H485	H	0.459675	-0.019408	0.000060
H486	H	0.709675	0.230592	0.250060
H487	H	0.959675	0.480592	0.500060
H488	H	1.209675	0.730592	0.750060
Br489	Br	0.573563	0.011400	-0.098525
Br490	Br	0.823563	0.261400	0.151475
Br491	Br	1.073563	0.511400	0.401475
Br492	Br	1.323563	0.761400	0.651475
Br493	Br	0.872255	-0.003070	0.757039
Br494	Br	1.122255	0.246930	1.007039
Br495	Br	1.372255	0.496930	1.257039
Br496	Br	1.622255	0.746930	1.507039
Br497	Br	0.821704	-0.032426	0.360178
Br498	Br	1.071704	0.217574	0.610178
Br499	Br	1.321704	0.467574	0.860178
Br500	Br	1.571704	0.717574	1.110178
H501	H	0.985071	-0.787227	0.082025
H502	H	1.235071	-0.537227	0.332025
H503	H	1.485071	-0.287227	0.582025
H504	H	1.735071	-0.037227	0.832025
H505	H	0.849150	-0.016484	0.531006
H506	H	1.099150	0.233516	0.781006
H507	H	1.349150	0.483516	1.031006
H508	H	1.599150	0.733516	1.281006
Br509	Br	1.161122	0.164528	0.639812
Br510	Br	1.411122	0.414528	0.889812
Br511	Br	1.661122	0.664528	1.139812
Br512	Br	1.911122	0.914528	1.389812
Br513	Br	1.110524	0.135204	0.242956
Br514	Br	1.360524	0.385204	0.492956
Br515	Br	1.610524	0.635204	0.742956
Br516	Br	1.860524	0.885204	0.992956
H517	H	1.083140	0.119288	0.771137
H518	H	1.333140	0.369288	1.021137
H519	H	1.583140	0.619288	1.271137
H520	H	1.833140	0.869288	1.521137
Br521	Br	1.110599	0.135204	0.880044
Br522	Br	1.360599	0.385204	1.130044
Br523	Br	1.610599	0.635204	1.380044
Br524	Br	1.860599	0.885204	1.630044
H525	H	1.133670	0.148609	0.530909
H526	H	1.383670	0.398609	0.780909
H527	H	1.633670	0.648609	1.030909
H528	H	1.883670	0.898609	1.280909
Br529	Br	0.573239	0.011396	0.098642
Br530	Br	0.823239	0.261396	0.348642
Br531	Br	1.073239	0.511396	0.598642
Br532	Br	1.323239	0.761396	0.848642
H533	H	0.996066	-0.172098	-0.082044
H534	H	1.246066	0.077902	0.167956
H535	H	1.496066	0.327902	0.417956
H536	H	1.746066	0.577902	0.667956
H537	H	0.991964	-0.404008	-0.127277
H538	H	1.241964	-0.154008	0.122723
H539	H	1.491964	0.095992	0.372723
H540	H	1.741964	0.345992	0.622723
Br541	Br	0.986898	-0.682090	0.106585
Br542	Br	1.236898	-0.432090	0.356585
Br543	Br	1.486898	-0.182090	0.606585
Br544	Br	1.736898	0.067910	0.856585
H545	H	1.083040	0.119285	0.134069
H546	H	1.333040	0.369285	0.384069
H547	H	1.583040	0.619285	0.634069
H548	H	1.833040	0.869285	0.884069
H549	H	0.985142	-0.787207	-0.082070
H550	H	1.235142	-0.537207	0.167930
H551	H	1.485142	-0.287207	0.417930
H552	H	1.735142	-0.037207	0.667930
Br553	Br	0.987031	-0.682047	-0.106622
Br554	Br	1.237031	-0.432047	0.143378
Br555	Br	1.487031	-0.182047	0.393378
Br556	Br	1.737031	0.067953	0.643378
H557	H	0.991820	-0.404047	0.127268
H558	H	1.241820	-0.154047	0.377268
H559	H	1.491820	0.095953	0.627268
H560	H	1.741820	0.345953	0.877268
H561	H	0.996000	-0.172140	0.082058
H562	H	1.246000	0.077860	0.332058
H563	H	1.496000	0.327860	0.582058
H564	H	1.746000	0.577860	0.832058
H565	H	0.990900	-0.463800	-0.127281
H566	H	1.240900	-0.213800	0.122719
H567	H	1.490900	0.036200	0.372719
H568	H	1.740900	0.286200	0.622719
H569	H	0.993426	-0.312588	0.127269
H570	H	1.243426	-0.062588	0.377269
H571	H	1.493426	0.187412	0.627269
H572	H	1.743426	0.437412	0.877269
Br573	Br	0.997858	-0.066984	0.106611
Br574	Br	1.247858	0.183016	0.356611
Br575	Br	1.497858	0.433016	0.606611
Br576	Br	1.747858	0.683016	0.856611
H577	H	0.989143	-0.555304	0.127254
H578	H	1.239143	-0.305304	0.377254
H579	H	1.489143	-0.055304	0.627254
H580	H	1.739143	0.194696	0.877254
Br581	Br	1.161064	0.164548	0.360080
Br582	Br	1.411064	0.414548	0.610080
Br583	Br	1.661064	0.664548	0.860080
Br584	Br	1.911064	0.914548	1.110080
H585	H	0.990771	-0.463850	0.127257
H586	H	1.240771	-0.213850	0.377257
H587	H	1.490771	0.036150	0.627257
H588	H	1.740771	0.286150	0.877257
H589	H	1.133660	0.148609	0.468981
H590	H	1.383660	0.398609	0.718981
H591	H	1.633660	0.648609	0.968981
H592	H	1.883660	0.898609	1.218981
