data_functionalizedCrystal
_audit_creation_method	'MofGen! by Chris Wilmer'
_symmetry_space_group_name_H-M	'P1'
_symmetry_Int_Tables_number	1
_symmetry_cell_setting	triclinic
loop_
_symmetry_equiv_pos_as_xyz
  x,y,z
_cell_length_a	11.169417
_cell_length_b	11.169409
_cell_length_c	11.169416
_cell_angle_alpha	89.969184
_cell_angle_beta	89.988781
_cell_angle_gamma	90.020564
loop_
_atom_site_label
_atom_site_type_symbol
_atom_site_fract_x
_atom_site_fract_y
_atom_site_fract_z
Zn1	Zn	-1.834971	-0.678555	-0.477682
Zn2	Zn	-1.834858	-0.477877	-0.678423
Zn3	Zn	-1.634254	-0.477889	-0.477755
Zn4	Zn	-1.634264	-0.678522	-0.678325
O5	O	-1.734587	-0.578211	-0.578047
O6	O	-2.002906	-0.651943	-0.504321
O7	O	-1.808196	-0.309929	-0.651875
O8	O	-1.660923	-0.504527	-0.309796
O9	O	-2.002823	-0.504506	-0.651804
O10	O	-1.808389	-0.651955	-0.309742
O11	O	-1.660813	-0.309938	-0.504446
O12	O	-1.466306	-0.504495	-0.504351
O13	O	-1.660940	-0.846476	-0.651638
O14	O	-1.466313	-0.651899	-0.651709
O15	O	-1.808399	-0.846500	-0.504227
O16	O	-1.808206	-0.504474	-0.846360
O17	O	-1.660830	-0.651887	-0.846288
C18	C	-1.422762	-0.578195	-0.578028
C19	C	-1.289362	-0.578217	-0.578049
C20	C	-1.734539	-0.578202	-0.889871
C21	C	-1.734629	-0.578238	-1.023271
C22	C	-1.734683	-0.891253	-0.577914
C23	C	-1.734724	-1.024653	-0.577857
C24	C	-2.047629	-0.578227	-0.578066
C25	C	-2.181029	-0.578234	-0.578074
C26	C	-1.734560	-0.266386	-0.578092
C27	C	-1.734752	-0.132987	-0.577811
C28	C	-1.734667	-0.578246	-0.265004
C29	C	-1.734702	-0.578261	-0.131604
