data_functionalizedCrystal
_audit_creation_method	'MofGen! by Chris Wilmer'
_symmetry_space_group_name_H-M	'P1'
_symmetry_Int_Tables_number	1
_symmetry_cell_setting	triclinic
loop_
_symmetry_equiv_pos_as_xyz
  x,y,z
_cell_length_a	8.597213
_cell_length_b	8.559649
_cell_length_c	15.186229
_cell_angle_alpha	90.003657
_cell_angle_beta	97.702128
_cell_angle_gamma	77.624681
loop_
_atom_site_label
_atom_site_type_symbol
_atom_site_fract_x
_atom_site_fract_y
_atom_site_fract_z
O1	O	2.053749	0.238056	0.229039
O2	O	1.594611	0.256314	0.194206
O3	O	1.864631	0.015215	0.214691
O4	O	1.783730	0.479155	0.208555
O5	O	1.864630	0.015200	0.068233
O6	O	1.594611	0.256300	0.047749
O7	O	2.053749	0.238041	0.082582
Zn8	Zn	1.824180	0.247168	0.041912
Zn9	Zn	1.824180	0.247187	0.234876
O10	O	1.783730	0.479140	0.062097
C11	C	1.536376	0.254345	0.116560
C12	C	1.362855	0.248482	0.103395
C13	C	1.870761	-0.044226	0.141929
C14	C	1.889011	-0.221321	0.143318
C15	C	2.111984	0.240010	0.160230
C16	C	2.285506	0.245873	0.173400
C17	C	1.777599	0.538581	0.134861
C18	C	1.759349	0.715676	0.133478
N19	N	1.824183	0.247189	0.366569
N20	N	1.824192	0.247154	-0.089780
C21	C	1.943927	0.140643	0.601376
C22	C	1.943932	0.140639	0.693566
C23	C	1.704440	0.353711	0.675406
C24	C	1.704443	0.353722	0.583219
C25	C	1.824186	0.247179	0.546206
C26	C	1.824188	0.247164	0.730583
C27	C	1.824193	0.247160	0.830540
C28	C	1.824184	0.247184	0.446243
H29	H	1.634379	-0.202780	0.123994
O30	O	1.274584	0.246139	0.010648
H31	H	1.147493	0.242070	0.014509
H32	H	2.041431	0.053891	0.571243
H33	H	2.013989	-0.302874	0.152793
H34	H	1.352029	0.248139	0.243402
O35	O	2.073071	0.025723	0.753074
H36	H	2.156322	-0.048366	0.711844
H37	H	1.606946	0.440454	0.705552
O38	O	1.575323	0.468674	0.523705
H39	H	1.492057	0.542758	0.564929
