data_functionalizedCrystal
_audit_creation_method	'MofGen! by Chris Wilmer'
_symmetry_space_group_name_H-M	'P1'
_symmetry_Int_Tables_number	1
_symmetry_cell_setting	triclinic
loop_
_symmetry_equiv_pos_as_xyz
  x,y,z
_cell_length_a	14.519709
_cell_length_b	18.266242
_cell_length_c	14.519709
_cell_angle_alpha	90.007285
_cell_angle_beta	83.680145
_cell_angle_gamma	90.003418
loop_
_atom_site_label
_atom_site_type_symbol
_atom_site_fract_x
_atom_site_fract_y
_atom_site_fract_z
O1	O	1.223873	0.060787	0.120893
O2	O	1.723873	0.560787	0.620893
O3	O	0.955396	0.060810	0.135129
O4	O	1.455396	0.560810	0.635129
O5	O	1.096753	0.060791	-0.006228
O6	O	1.596753	0.560791	0.493772
O7	O	1.082517	0.060806	0.262249
O8	O	1.582517	0.560806	0.762249
O9	O	1.096729	-0.060971	-0.006235
O10	O	1.596729	0.439029	0.493765
O11	O	0.955372	-0.060952	0.135122
O12	O	1.455372	0.439048	0.635122
O13	O	1.223849	-0.060975	0.120885
O14	O	1.723849	0.439025	0.620885
Zn15	Zn	1.089607	-0.080296	0.128002
Zn16	Zn	1.589607	0.419704	0.628002
Zn17	Zn	1.089639	0.080131	0.128012
Zn18	Zn	1.589639	0.580131	0.628012
O19	O	1.082493	-0.060956	0.262242
O20	O	1.582493	0.439044	0.762242
C21	C	0.921025	-0.000068	0.134462
C22	C	1.421025	0.499932	0.634462
C23	C	0.818643	-0.000060	0.132474
C24	C	1.318643	0.499940	0.632474
N25	N	1.089592	-0.189783	0.127995
N26	N	1.589592	0.310217	0.627995
C27	C	0.443748	-0.000094	0.125154
C28	C	0.943748	0.499906	0.625154
C29	C	0.548056	-0.000084	0.127187
C30	C	1.048056	0.499916	0.627187
C31	C	0.631192	-0.000076	0.128814
C32	C	1.131192	0.499924	0.628814
C33	C	0.735507	-0.000068	0.130847
C34	C	1.235507	0.499932	0.630847
C35	C	1.152206	-0.228100	0.065433
C36	C	1.652206	0.271900	0.565433
C37	C	1.152211	-0.304745	0.065429
C38	C	1.652211	0.195255	0.565429
C39	C	1.089613	-0.343070	0.128003
C40	C	1.589613	0.156930	0.628003
C41	C	1.026988	-0.304743	0.190569
C42	C	1.526988	0.195257	0.690569
C43	C	1.026977	-0.228100	0.190566
C44	C	1.526977	0.271900	0.690566
N45	N	1.078009	-0.463397	0.209587
N46	N	1.578009	0.036603	0.709587
N47	N	1.078024	-0.536205	0.209587
N48	N	1.578024	-0.036205	0.709587
C49	C	1.089639	-0.573992	0.128016
C50	C	1.589639	-0.073992	0.628016
N51	N	1.101255	-0.536220	0.046442
N52	N	1.601255	-0.036220	0.546442
N53	N	1.101245	-0.463406	0.046442
N54	N	1.601245	0.036594	0.546442
C55	C	1.089617	-0.426177	0.128013
C56	C	1.589617	0.073823	0.628013
C57	C	1.152262	-0.695416	0.065444
C58	C	1.652262	-0.195416	0.565444
C59	C	1.152261	-0.772063	0.065439
C60	C	1.652261	-0.272063	0.565439
C61	C	1.027042	-0.772060	0.190587
C62	C	1.527042	-0.272060	0.690587
C63	C	1.027038	-0.695415	0.190585
C64	C	1.527038	-0.195415	0.690585
C65	C	1.089653	-0.657098	0.128014
C66	C	1.589653	-0.157098	0.628014
C67	C	1.258221	-0.000095	0.121553
C68	C	1.758221	0.499905	0.621553
C69	C	1.360602	-0.000099	0.123541
C70	C	1.860602	0.499901	0.623541
C71	C	1.096078	-0.000090	-0.040591
C72	C	1.596078	0.499910	0.459409
C73	C	1.094090	-0.000090	-0.142972
C74	C	1.594090	0.499910	0.357028
N75	N	1.089661	0.189618	0.128012
N76	N	1.589661	0.689618	0.628012
C77	C	1.086770	-0.000070	-0.517868
C78	C	1.586770	0.499930	-0.017868
C79	C	1.088803	-0.000076	-0.413560
C80	C	1.588803	0.499924	0.086440
C81	C	1.090430	-0.000081	-0.330423
C82	C	1.590430	0.499919	0.169577
C83	C	1.092463	-0.000085	-0.226109
C84	C	1.592463	0.499915	0.273891
C85	C	1.083168	-0.000074	0.296605
C86	C	1.583168	0.499926	0.796605
C87	C	1.085156	-0.000069	0.398987
C88	C	1.585156	0.499931	0.898987
H89	H	1.203188	-0.196904	0.014483
H90	H	1.703188	0.303096	0.514483
Cl91	Cl	0.948325	-0.647240	0.269243
Cl92	Cl	1.448325	-0.147240	0.769243
Cl93	Cl	1.230972	-0.647245	-0.013220
Cl94	Cl	1.730972	-0.147245	0.486780
H95	H	0.976017	-0.335951	0.241516
H96	H	1.476017	0.164049	0.741516
H97	H	0.976069	-0.803263	0.241532
H98	H	1.476069	-0.303263	0.741532
H99	H	1.203200	-0.335948	0.014482
H100	H	1.703200	0.164052	0.514482
Cl101	Cl	0.948258	-0.179927	0.269222
Cl102	Cl	1.448258	0.320073	0.769222
H103	H	1.203246	-0.803261	0.014488
H104	H	1.703246	-0.303261	0.514488
