data_functionalizedCrystal
_audit_creation_method	'MofGen! by Chris Wilmer'
_symmetry_space_group_name_H-M	'P1'
_symmetry_Int_Tables_number	1
_symmetry_cell_setting	triclinic
loop_
_symmetry_equiv_pos_as_xyz
  x,y,z
_cell_length_a	19.188929
_cell_length_b	8.559649
_cell_length_c	7.681481
_cell_angle_alpha	94.913240
_cell_angle_beta	95.744282
_cell_angle_gamma	103.538276
loop_
_atom_site_label
_atom_site_type_symbol
_atom_site_fract_x
_atom_site_fract_y
_atom_site_fract_z
O1	O	0.016274	2.105138	-0.146384
O2	O	-0.019799	1.639678	-0.146429
O3	O	0.100601	1.885852	-0.146297
O4	O	-0.104126	1.858965	-0.146517
O5	O	0.115450	1.916152	0.146577
O6	O	-0.004950	1.669978	0.146445
O7	O	0.031123	2.135439	0.146490
Zn8	Zn	0.015444	1.907519	0.192967
Zn9	Zn	-0.004120	1.867597	-0.192907
O10	O	-0.089277	1.889265	0.146357
C11	C	-0.015109	1.595278	0.000004
C12	C	-0.023246	1.417840	-0.000007
C13	C	-0.122669	1.874982	-0.000108
C14	C	-0.200041	1.877585	-0.000191
C15	C	-0.252516	1.733148	-0.000170
C16	C	-0.325209	1.735606	-0.000130
C17	C	-0.345422	1.882512	-0.000076
C18	C	-0.292937	2.026966	-0.000108
C19	C	-0.220246	2.024502	-0.000165
N20	N	-0.442460	2.005123	0.099717
N21	N	-0.511514	2.007453	0.099776
C22	C	-0.564435	1.889943	0.000094
N23	N	-0.545694	1.769991	-0.099627
N24	N	-0.476634	1.767656	-0.099677
C25	C	-0.424242	1.885199	-0.000015
C26	C	-0.695734	1.748161	0.000157
C27	C	-0.768428	1.750623	0.000186
C28	C	-0.736153	2.041989	0.000226
C29	C	-0.663461	2.039521	0.000179
C30	C	-0.643256	1.892603	0.000153
C31	C	0.133992	1.900134	0.000165
C32	C	0.211364	1.897530	0.000236
C33	C	0.026432	2.179837	0.000053
C34	C	0.034569	2.357274	0.000052
N35	N	0.028797	1.934776	0.456316
N36	N	-0.017467	1.840353	-0.456256
H37	H	0.090292	1.441166	0.000104
H38	H	-0.752616	2.161590	0.000141
H39	H	-0.064690	1.743966	0.468495
H40	H	-0.177519	2.142124	-0.000185
H41	H	-0.078974	1.333938	-0.000077
H42	H	-0.620733	2.157138	0.000172
H43	H	0.076019	2.031181	0.531574
H44	H	-0.309401	2.146575	-0.000096
H45	H	-0.236071	1.613515	-0.000207
H46	H	-0.367942	1.617985	-0.000108
H47	H	-0.679281	1.628532	0.000145
H48	H	-0.811155	1.632999	0.000191
