data_functionalizedCrystal
_audit_creation_method	'MofGen! by Chris Wilmer'
_symmetry_space_group_name_H-M	'P1'
_symmetry_Int_Tables_number	1
_symmetry_cell_setting	triclinic
loop_
_symmetry_equiv_pos_as_xyz
  x,y,z
_cell_length_a	19.805407
_cell_length_b	10.686285
_cell_length_c	10.685986
_cell_angle_alpha	81.587410
_cell_angle_beta	94.346971
_cell_angle_gamma	85.631507
loop_
_atom_site_label
_atom_site_type_symbol
_atom_site_fract_x
_atom_site_fract_y
_atom_site_fract_z
Zn1	Zn	1.025459	-0.450151	-0.679078
Zn2	Zn	1.044203	-0.678734	-0.450578
Zn3	Zn	0.921664	-0.466508	-0.466833
Zn4	Zn	0.921677	-0.662349	-0.662771
O5	O	0.978251	-0.564436	-0.564815
O6	O	1.122661	-0.480485	-0.648788
O7	O	1.035788	-0.664285	-0.275106
O8	O	0.927582	-0.286716	-0.508615
O9	O	1.136433	-0.648424	-0.480911
O10	O	1.003840	-0.274698	-0.664550
O11	O	0.945759	-0.508363	-0.287049
O12	O	0.826950	-0.492475	-0.492804
O13	O	0.927604	-0.620498	-0.842563
O14	O	0.826959	-0.636358	-0.636758
O15	O	1.003852	-0.464597	-0.854543
O16	O	1.035800	-0.854183	-0.465099
O17	O	0.945780	-0.842145	-0.620997
C18	C	0.802395	-0.564414	-0.564776
C19	C	0.727164	-0.564434	-0.564787
C20	C	0.691853	-0.639486	-0.639604
C21	C	0.621164	-0.639487	-0.639621
C22	C	0.585787	-0.564441	-0.564815
C23	C	0.621102	-0.489380	-0.489995
C24	C	0.691790	-0.489374	-0.489985
C25	C	0.336028	-0.489405	-0.490035
C26	C	0.265336	-0.489421	-0.490048
C27	C	0.265403	-0.639519	-0.639671
C28	C	0.336090	-0.639512	-0.639661
C29	C	0.371399	-0.564446	-0.564847
C30	C	0.448048	-0.564444	-0.564831
C31	C	0.509140	-0.564449	-0.564824
C32	C	0.992843	-0.894218	-0.539542
C33	C	0.999146	-1.035297	-0.528773
C34	C	1.154793	-0.564458	-0.564855
C35	C	1.230024	-0.564467	-0.564872
C36	C	0.963639	-0.538895	-0.895898
C37	C	0.957412	-0.528011	-1.036986
C38	C	0.963619	-0.233364	-0.590215
C39	C	0.957383	-0.092280	-0.601039
C40	C	0.992841	-0.589785	-0.235028
C41	C	0.999183	-0.600312	-0.093968
H42	H	0.592418	-0.700603	-0.700543
H43	H	1.039709	-0.670527	-1.034818
H44	H	1.039719	-1.094448	-0.458649
H45	H	0.916888	-0.457781	-1.096144
H46	H	0.364891	-0.700626	-0.700572
H47	H	0.720538	-0.428251	-0.429069
H48	H	0.916808	-1.033138	-0.671150
H49	H	0.364769	-0.428293	-0.429107
H50	H	0.720653	-0.700601	-0.700515
H51	H	0.236646	-0.700635	-0.700593
O52	O	0.231071	-0.416394	-0.417352
C53	C	0.277393	-0.350158	-0.351295
H54	H	0.325302	-0.341825	-0.403615
H55	H	0.253125	-0.251165	-0.345598
H56	H	0.291209	-0.403921	-0.251258
H57	H	0.592292	-0.428271	-0.429093
