data_functionalizedCrystal
_audit_creation_method	'MofGen! by Chris Wilmer'
_symmetry_space_group_name_H-M	'P1'
_symmetry_Int_Tables_number	1
_symmetry_cell_setting	triclinic
loop_
_symmetry_equiv_pos_as_xyz
  x,y,z
_cell_length_a	16.625548
_cell_length_b	18.101395
_cell_length_c	16.625539
_cell_angle_alpha	89.974216
_cell_angle_beta	89.982945
_cell_angle_gamma	90.032172
loop_
_atom_site_label
_atom_site_type_symbol
_atom_site_fract_x
_atom_site_fract_y
_atom_site_fract_z
Zn1	Zn	1.232604	-0.294821	-0.455913
Zn2	Zn	1.732604	0.205179	0.044087
Zn3	Zn	1.232495	-0.418666	-0.321082
Zn4	Zn	1.732495	0.081334	0.178918
Zn5	Zn	1.097774	-0.294845	-0.321094
Zn6	Zn	1.597774	0.205155	0.178906
Zn7	Zn	1.097716	-0.418627	-0.455872
Zn8	Zn	1.597716	0.081373	0.044128
O9	O	1.165147	-0.356740	-0.388490
O10	O	1.665147	0.143260	0.111510
O11	O	1.345422	-0.311255	-0.438040
O12	O	1.845422	0.188745	0.061960
O13	O	1.214603	-0.402267	-0.208251
O14	O	1.714603	0.097733	0.291749
O15	O	1.115730	-0.191209	-0.339000
O16	O	1.615730	0.308791	0.161000
O17	O	1.345342	-0.402244	-0.338980
O18	O	1.845342	0.097756	0.161020
O19	O	1.214789	-0.191191	-0.438051
O20	O	1.714789	0.308809	0.061949
O21	O	1.115624	-0.311296	-0.208260
O22	O	1.615624	0.188704	0.291740
O23	O	0.984934	-0.311259	-0.338960
O24	O	1.484934	0.188741	0.161040
O25	O	1.115630	-0.402178	-0.568710
O26	O	1.615630	0.097822	-0.068710
O27	O	0.984891	-0.402201	-0.437981
O28	O	1.484891	0.097799	0.062019
O29	O	1.214732	-0.311218	-0.568740
O30	O	1.714732	0.188782	-0.068740
O31	O	1.214547	-0.522294	-0.338940
O32	O	1.714547	-0.022294	0.161060
O33	O	1.115525	-0.522265	-0.437969
O34	O	1.615525	-0.022265	0.062031
C35	C	0.955657	-0.356729	-0.388467
C36	C	1.455657	0.143271	0.111533
C37	C	0.866035	-0.356742	-0.388477
C38	C	1.366035	0.143258	0.111523
C39	C	0.537860	-0.356747	-0.388511
C40	C	1.037860	0.143253	0.111489
C41	C	0.629168	-0.356744	-0.388499
C42	C	1.129168	0.143256	0.111501
C43	C	0.701945	-0.356745	-0.388494
C44	C	1.201945	0.143255	0.111506
C45	C	0.793259	-0.356741	-0.388483
C46	C	1.293259	0.143259	0.111517
C47	C	1.165040	-0.549150	-0.388466
C48	C	1.665040	-0.049150	0.111534
C49	C	1.165067	-0.631464	-0.388483
C50	C	1.665067	-0.131464	0.111517
C51	C	1.165244	-0.930555	-0.388527
C52	C	1.665244	-0.430555	0.111473
C53	C	1.103087	-0.899243	-0.450988
C54	C	1.603087	-0.399243	0.049012
C55	C	1.102791	-0.813625	-0.450793
C56	C	1.602791	-0.313625	0.049207
C57	C	1.165156	-0.782173	-0.388506
C58	C	1.665156	-0.282173	0.111494
C59	C	1.142154	-0.813322	-0.303528
C60	C	1.642154	-0.313322	0.196472
C61	C	1.141754	-0.898968	-0.303901
C62	C	1.641754	-0.398968	0.196099
C63	C	1.250539	-0.898898	-0.410295
C64	C	1.750539	-0.398898	0.089705
C65	C	1.250038	-0.813247	-0.412159
C66	C	1.750038	-0.313247	0.087841
C67	C	1.165108	-0.698313	-0.388489
C68	C	1.665108	-0.198313	0.111511
C69	C	1.165290	-1.014415	-0.388538
C70	C	1.665290	-0.514415	0.111462
C71	C	1.375456	-0.356751	-0.388513
C72	C	1.875456	0.143249	0.111487
C73	C	1.465077	-0.356756	-0.388523
C74	C	1.965077	0.143244	0.111477
C75	C	1.165187	-0.356691	-0.598799
C76	C	1.665187	0.143309	-0.098799
C77	C	1.165204	-0.356670	-0.688420
C78	C	1.665204	0.143330	-0.188420
C79	C	1.165278	-0.163578	-0.388531
C80	C	1.665278	0.336422	0.111469
C81	C	1.165333	-0.081264	-0.388549
C82	C	1.665333	0.418736	0.111451
C83	C	1.165217	-0.356654	-0.761203
C84	C	1.665217	0.143346	-0.261203
C85	C	1.165236	-0.356626	-0.852511
C86	C	1.665236	0.143374	-0.352511
C87	C	1.165255	-0.356600	-0.925288
C88	C	1.665255	0.143400	-0.425288
C89	C	1.165275	-0.356573	-1.016602
C90	C	1.665275	0.143427	-0.516602
C91	C	1.165154	-0.356735	-0.178999
C92	C	1.665154	0.143265	0.321001
C93	C	1.165294	-0.356547	-0.089378
C94	C	1.665294	0.143453	0.410622
H95	H	1.117335	-0.919792	-0.514202
H96	H	1.617335	-0.419792	-0.014202
O97	O	1.068491	-0.787906	-0.281229
O98	O	1.568491	-0.287906	0.218771
C99	C	1.010552	-0.810898	-0.337858
C100	C	1.510552	-0.310898	0.162142
H101	H	1.033445	-0.861859	-0.370969
H102	H	1.533445	-0.361859	0.129031
H103	H	0.999329	-0.764532	-0.382901
H104	H	1.499329	-0.264532	0.117099
C105	C	0.903382	-0.767214	-0.253476
C106	C	1.403382	-0.267214	0.246524
C107	C	0.931497	-0.829809	-0.294139
C108	C	1.431497	-0.329809	0.205861
H109	H	0.854616	-0.778876	-0.226509
H110	H	1.354616	-0.278876	0.273491
H111	H	0.942417	-0.751721	-0.215325
H112	H	1.442417	-0.251721	0.284675
H113	H	0.894035	-0.728582	-0.291019
H114	H	1.394035	-0.228582	0.208981
H115	H	0.940853	-0.868436	-0.256595
H116	H	1.440853	-0.368436	0.243405
H117	H	0.892463	-0.845308	-0.332282
H118	H	1.392463	-0.345308	0.167718
H119	H	1.186003	-0.792950	-0.255720
H120	H	1.686003	-0.292950	0.244280
O121	O	1.275424	-0.924643	-0.482990
O122	O	1.775424	-0.424643	0.017010
C123	C	1.216095	-0.971740	-0.515292
C124	C	1.716095	-0.471740	-0.015292
H125	H	1.155285	-0.958033	-0.487353
H126	H	1.655285	-0.458033	0.012647
H127	H	1.232187	-1.031619	-0.501427
H128	H	1.732187	-0.531619	-0.001427
C129	C	1.286384	-0.977649	-0.641364
C130	C	1.786384	-0.477649	-0.141364
C131	C	1.211694	-0.960809	-0.607053
C132	C	1.711694	-0.460809	-0.107053
H133	H	1.283670	-0.970910	-0.697967
H134	H	1.783670	-0.470910	-0.197967
H135	H	1.326357	-0.945921	-0.619601
H136	H	1.826357	-0.445921	-0.119601
H137	H	1.299785	-1.027548	-0.629802
H138	H	1.799785	-0.527548	-0.129802
H139	H	1.198299	-0.910909	-0.618607
H140	H	1.698299	-0.410909	-0.118607
H141	H	1.171718	-0.992529	-0.628820
H142	H	1.671718	-0.492529	-0.128820
H143	H	1.079403	-0.919011	-0.285461
H144	H	1.579403	-0.419011	0.214539
O145	O	1.270633	-0.788859	-0.486757
O146	O	1.770633	-0.288859	0.013243
C147	C	1.208572	-0.743928	-0.517482
C148	C	1.708572	-0.243928	-0.017482
H149	H	1.171577	-0.720741	-0.465573
H150	H	1.671577	-0.220741	0.034427
H151	H	1.168099	-0.778246	-0.558315
H152	H	1.668099	-0.278246	-0.058315
C153	C	1.290863	-0.708288	-0.629765
C154	C	1.790863	-0.208288	-0.129765
C155	C	1.245430	-0.679805	-0.566008
C156	C	1.745430	-0.179805	-0.066008
H157	H	1.313597	-0.668736	-0.659701
H158	H	1.813597	-0.168736	-0.159701
H159	H	1.332674	-0.738561	-0.609067
H160	H	1.832674	-0.238561	-0.109067
H161	H	1.257128	-0.736886	-0.663783
H162	H	1.757128	-0.236886	-0.163783
H163	H	1.279166	-0.651215	-0.531986
H164	H	1.779166	-0.151215	-0.031986
H165	H	1.203625	-0.649525	-0.586701
H166	H	1.703625	-0.149525	-0.086701
H167	H	1.298798	-0.791833	-0.369981
H168	H	1.798798	-0.291833	0.130019
O169	O	1.305695	-0.923151	-0.355982
O170	O	1.805695	-0.423151	0.144018
C171	C	1.267440	-0.968476	-0.298544
C172	C	1.767440	-0.468476	0.201456
H173	H	1.209626	-0.991900	-0.325169
H174	H	1.709626	-0.491900	0.174831
H175	H	1.252524	-0.934415	-0.242845
H176	H	1.752524	-0.434415	0.257155
C177	C	1.394907	-1.003586	-0.242375
C178	C	1.894907	-0.503586	0.257625
C179	C	1.323902	-1.032361	-0.275078
C180	C	1.823902	-0.532361	0.224922
H181	H	1.429735	-1.042992	-0.227896
H182	H	1.929735	-0.542992	0.272104
H183	H	1.420680	-0.973048	-0.281070
H184	H	1.920680	-0.473048	0.218930
H185	H	1.382466	-0.975203	-0.195963
H186	H	1.882466	-0.475203	0.304037
H187	H	1.336343	-1.060736	-0.321494
H188	H	1.836343	-0.560736	0.178506
H189	H	1.298132	-1.062906	-0.236390
H190	H	1.798132	-0.562906	0.263610
H191	H	1.117182	-0.792562	-0.513803
H192	H	1.617182	-0.292562	-0.013803
O193	O	1.193317	-0.923665	-0.246388
O194	O	1.693317	-0.423665	0.253612
C195	C	1.168418	-0.897479	-0.170509
C196	C	1.668418	-0.397479	0.329491
H197	H	1.101493	-0.883929	-0.172475
H198	H	1.601493	-0.383929	0.327525
H199	H	1.203852	-0.845567	-0.154604
H200	H	1.703852	-0.345567	0.345396
C201	C	1.265957	-0.973948	-0.104038
C202	C	1.765957	-0.473948	0.395962
C203	C	1.183757	-0.957312	-0.106451
C204	C	1.683757	-0.457312	0.393549
H205	H	1.275422	-1.010853	-0.064523
H206	H	1.775422	-0.510853	0.435477
H207	H	1.282734	-0.991588	-0.155159
H208	H	1.782734	-0.491588	0.344841
H209	H	1.295476	-0.930682	-0.090787
H210	H	1.795476	-0.430682	0.409213
H211	H	1.154241	-1.000575	-0.119712
H212	H	1.654241	-0.500575	0.380288
H213	H	1.166975	-0.939680	-0.055330
H214	H	1.666975	-0.439680	0.444670
H215	H	1.040248	-0.920830	-0.436750
H216	H	1.540248	-0.420830	0.063250
H217	H	1.039568	-0.793203	-0.436373
H218	H	1.539568	-0.293203	0.063627
