data_functionalizedCrystal
_audit_creation_method	'MofGen! by Chris Wilmer'
_symmetry_space_group_name_H-M	'P1'
_symmetry_Int_Tables_number	1
_symmetry_cell_setting	triclinic
loop_
_symmetry_equiv_pos_as_xyz
  x,y,z
_cell_length_a	17.038272
_cell_length_b	17.019294
_cell_length_c	15.500227
_cell_angle_alpha	88.951630
_cell_angle_beta	86.956295
_cell_angle_gamma	87.244363
loop_
_atom_site_label
_atom_site_type_symbol
_atom_site_fract_x
_atom_site_fract_y
_atom_site_fract_z
O1	O	1.041486	0.167282	-0.084296
O2	O	1.541486	0.667282	0.415704
O3	O	0.813849	0.164571	-0.084119
O4	O	1.313849	0.664571	0.415881
O5	O	0.933587	0.051923	-0.075710
O6	O	1.433587	0.551923	0.424290
O7	O	0.921748	0.279929	-0.092705
O8	O	1.421748	0.779929	0.407295
O9	O	0.926321	0.058730	0.067671
O10	O	1.426321	0.558730	0.567671
O11	O	0.806583	0.171378	0.059261
O12	O	1.306583	0.671378	0.559261
O13	O	1.034220	0.174089	0.059085
O14	O	1.534220	0.674089	0.559085
Cu15	Cu	0.919738	0.173355	0.072265
Cu16	Cu	1.419738	0.673355	0.572265
Cu17	Cu	0.928331	0.165305	-0.097299
Cu18	Cu	1.428331	0.665305	0.402701
O19	O	0.914481	0.286736	0.050675
O20	O	1.414481	0.786736	0.550675
C21	C	0.781081	0.165509	-0.012249
C22	C	1.281081	0.665509	0.487751
C23	C	0.694267	0.158154	-0.011710
C24	C	1.194267	0.658154	0.488290
C25	C	0.929362	0.026009	-0.001836
C26	C	1.429362	0.526009	0.498164
C27	C	0.927588	-0.061349	0.004669
C28	C	1.427588	0.438651	0.504669
C29	C	0.644349	0.225676	-0.016743
C30	C	1.144349	0.725676	0.483257
C31	C	0.562778	0.218761	-0.016215
C32	C	1.062778	0.718761	0.483785
C33	C	0.531126	0.144325	-0.010662
C34	C	1.031126	0.644325	0.489338
C35	C	0.581050	0.076799	-0.005626
C36	C	1.081050	0.576799	0.494374
C37	C	0.662619	0.083714	-0.006148
C38	C	1.162619	0.583714	0.493852
C39	C	0.285296	0.119894	-0.008818
C40	C	0.785296	0.619894	0.491182
C41	C	0.203720	0.112984	-0.008299
C42	C	0.703720	0.612984	0.491701
C43	C	0.185454	0.254947	-0.018887
C44	C	0.685454	0.754947	0.481113
C45	C	0.267026	0.261856	-0.019413
C46	C	0.767026	0.761856	0.480587
C47	C	0.316942	0.194330	-0.014373
C48	C	0.816942	0.694330	0.485627
C49	C	0.447747	0.137255	-0.010125
C50	C	0.947747	0.637255	0.489875
C51	C	0.400319	0.201400	-0.014903
C52	C	0.900319	0.701400	0.485097
C53	C	0.930718	-0.106096	-0.070430
C54	C	1.430718	0.393904	0.429570
C55	C	0.929046	-0.188178	-0.064315
C56	C	1.429046	0.311822	0.435685
C57	C	0.924250	-0.225512	0.016901
C58	C	1.424250	0.274488	0.516901
C59	C	0.921118	-0.180759	0.092006
C60	C	1.421118	0.319241	0.592006
C61	C	0.922785	-0.098678	0.085890
C62	C	1.422785	0.401322	0.585890
C63	C	0.919016	-0.473157	0.039278
C64	C	1.419016	0.026843	0.539278
C65	C	0.917352	-0.555244	0.045388
C66	C	1.417352	-0.055244	0.545388
C67	C	0.925278	-0.562658	-0.110934
C68	C	1.425278	-0.062658	0.389066
C69	C	0.926948	-0.480576	-0.117043
C70	C	1.426948	0.019424	0.382957
C71	C	0.923812	-0.435829	-0.041937
C72	C	1.423812	0.064171	0.458063
C73	C	0.922544	-0.309413	0.023154
C74	C	1.422544	0.190587	0.523154
C75	C	0.925513	-0.351929	-0.048191
C76	C	1.425513	0.148071	0.451809
C77	C	1.066988	0.173151	-0.012788
C78	C	1.566988	0.673151	0.487212
C79	C	1.153803	0.180505	-0.013332
C80	C	1.653803	0.680505	0.486668
C81	C	0.918707	0.312651	-0.023200
C82	C	1.418707	0.812651	0.476800
C83	C	0.920481	0.400009	-0.029711
C84	C	1.420481	0.900009	0.470289
N85	N	0.913700	0.179017	0.191527
N86	N	1.413700	0.679017	0.691527
N87	N	0.934375	0.159637	-0.216561
N88	N	1.434375	0.659637	0.283439
C89	C	0.964455	0.131304	0.240366
C90	C	1.464455	0.631304	0.740366
C91	C	0.959896	0.135594	0.330618
C92	C	1.459896	0.635594	0.830618
C93	C	0.904584	0.187601	0.372030
C94	C	1.404584	0.687601	0.872030
C95	C	0.853824	0.235315	0.323185
C96	C	1.353824	0.735315	0.823185
C97	C	0.858380	0.231021	0.232935
C98	C	1.358380	0.731021	0.732935
C99	C	0.888171	0.203057	0.644343
C100	C	1.388171	0.703057	1.144343
C101	C	0.883620	0.207350	0.734600
C102	C	1.383620	0.707350	1.234600
C103	C	0.989692	0.107627	0.742027
C104	C	1.489692	0.607627	1.242027
C105	C	0.994246	0.103341	0.651774
C106	C	1.494246	0.603341	1.151774
C107	C	0.943483	0.151052	0.602937
C108	C	1.443483	0.651052	1.102937
C109	C	0.899924	0.191989	0.464283
C110	C	1.399924	0.691989	0.964283
C111	C	0.948140	0.146660	0.510687
C112	C	1.448140	0.646660	1.010687
H113	H	0.670113	0.286290	-0.021266
H114	H	1.170113	0.786290	0.478734
N115	N	0.932278	-0.233880	-0.141034
N116	N	1.432278	0.266120	0.358966
N117	N	0.987312	-0.284059	-0.154779
N118	N	1.487312	0.215941	0.345221
H119	H	0.989603	-0.316334	-0.208968
H120	H	1.489603	0.183666	0.291032
H121	H	0.927829	-0.599099	-0.172080
H122	H	1.427829	-0.099099	0.327920
H123	H	0.522138	0.273744	-0.020314
H124	H	1.022138	0.773744	0.479686
H125	H	0.426093	0.262007	-0.019420
H126	H	0.926093	0.762007	0.480580
N127	N	0.915834	-0.427456	0.115992
N128	N	1.415834	0.072544	0.615992
N129	N	0.970948	-0.384388	0.130290
N130	N	1.470948	0.115612	0.630290
H131	H	0.968703	-0.352107	0.184473
H132	H	1.468703	0.147893	0.684473
H133	H	0.930854	-0.450184	-0.183177
H134	H	1.430854	0.049816	0.316823
N135	N	0.912448	-0.593368	0.128360
N136	N	1.412448	-0.093368	0.628360
N137	N	0.909644	-0.553408	0.195411
N138	N	1.409644	-0.053408	0.695411
H139	H	0.906179	-0.580333	0.254008
H140	H	1.406179	-0.080333	0.754008
H141	H	0.555272	0.016191	-0.001092
H142	H	1.055272	0.516191	0.498908
H143	H	0.817049	0.269873	0.193171
H144	H	1.317049	0.769873	0.693171
N145	N	0.299342	0.337897	-0.025097
N146	N	0.799342	0.837897	0.474903
N147	N	0.254764	0.398179	-0.029595
N148	N	0.754764	0.898179	0.470405
H149	H	0.277587	0.451885	-0.033616
H150	H	0.777587	0.951885	0.466384
N151	N	0.916223	-0.218879	0.174974
N152	N	1.416223	0.281121	0.674974
N153	N	0.913428	-0.178914	0.242021
N154	N	1.413428	0.321086	0.742021
H155	H	0.909971	-0.205834	0.300620
H156	H	1.409971	0.294166	0.800620
H157	H	1.001224	0.096742	0.370383
H158	H	1.501224	0.596742	0.870383
N159	N	1.004598	0.093487	0.468407
N160	N	1.504598	0.593487	0.968407
N161	N	1.049886	0.050856	0.512020
N162	N	1.549886	0.550856	1.012020
H163	H	1.089744	0.013283	0.482156
H164	H	1.589744	0.513283	0.982156
H165	H	0.920226	-0.062245	0.147045
H166	H	1.420226	0.437755	0.647045
H167	H	0.846839	0.241908	0.604587
H168	H	1.346839	0.741908	1.104587
H169	H	0.703262	0.028731	-0.002050
H170	H	1.203262	0.528731	0.497950
H171	H	0.929412	-0.321528	-0.114317
H172	H	1.429412	0.178472	0.385683
N173	N	0.336266	0.050912	-0.003673
N174	N	0.836266	0.550912	0.496327
N175	N	0.307992	-0.015542	0.001280
N176	N	0.807992	0.484458	0.501280
H177	H	0.343992	-0.064265	0.004912
H178	H	0.843992	0.435735	0.504912
N179	N	0.415412	0.061223	-0.004444
N180	N	0.915412	0.561223	0.495556
N181	N	0.368880	0.044400	0.057468
N182	N	0.868880	0.544400	0.557468
H183	H	0.346041	-0.009298	0.061484
H184	H	0.846041	0.490702	0.561484
N185	N	0.843420	0.245102	0.506590
N186	N	1.343420	0.745102	1.006590
N187	N	0.792278	0.219278	0.559063
N188	N	1.292278	0.719278	1.059063
H189	H	0.752369	0.256787	0.588947
H190	H	1.252369	0.756787	1.088947
N191	N	0.134454	0.323911	-0.024035
N192	N	0.634454	0.823911	0.475965
N193	N	0.061626	0.317731	-0.023570
N194	N	0.561626	0.817731	0.476430
H195	H	0.025606	0.366439	-0.027204
H196	H	0.525606	0.866439	0.472796
N197	N	1.041536	0.058899	0.791926
N198	N	1.541536	0.558899	1.291926
N199	N	1.037464	0.062738	0.872506
N200	N	1.537464	0.562738	1.372506
H201	H	1.074079	0.028321	0.907749
H202	H	1.574079	0.528321	1.407749
H203	H	0.934627	-0.075706	-0.136565
H204	H	1.434627	0.424294	0.363435
H205	H	0.918642	-0.339820	0.089280
H206	H	1.418642	0.160180	0.589280
N207	N	1.020918	0.078131	0.198086
N208	N	1.520918	0.578131	0.698086
N209	N	1.066198	0.035500	0.241709
N210	N	1.566198	0.535500	0.741709
H211	H	1.106058	-0.002076	0.211853
H212	H	1.606058	0.497924	0.711853
N213	N	1.050884	0.050356	0.609479
N214	N	1.550884	0.550356	1.109479
N215	N	1.096286	0.007853	0.653089
N216	N	1.596286	0.507853	1.153089
H217	H	1.136339	-0.029514	0.623215
H218	H	1.636339	0.470486	1.123215
H219	H	0.838577	0.249703	0.768313
H220	H	1.338577	0.749703	1.268313
N221	N	0.797323	0.288429	0.365498
N222	N	1.297323	0.788429	0.865498
N223	N	0.793261	0.292257	0.446078
N224	N	1.293261	0.792257	0.946078
H225	H	0.753357	0.329771	0.475961
H226	H	1.253357	0.829771	0.975961
H227	H	0.177953	0.052366	-0.003778
H228	H	0.677953	0.552366	0.496222
