data_functionalizedCrystal
_audit_creation_method	'MofGen! by Chris Wilmer'
_symmetry_space_group_name_H-M	'P1'
_symmetry_Int_Tables_number	1
_symmetry_cell_setting	triclinic
loop_
_symmetry_equiv_pos_as_xyz
  x,y,z
_cell_length_a	25.639240
_cell_length_b	15.297621
_cell_length_c	15.299447
_cell_angle_alpha	110.794051
_cell_angle_beta	80.300682
_cell_angle_gamma	99.666635
loop_
_atom_site_label
_atom_site_type_symbol
_atom_site_fract_x
_atom_site_fract_y
_atom_site_fract_z
Zn1	Zn	-0.282723	-1.512744	-0.771539
Zn2	Zn	-0.383046	-1.485677	-0.616001
Zn3	Zn	-0.282709	-1.330297	-0.589161
Zn4	Zn	-0.357200	-1.357157	-0.744611
O5	O	-0.326419	-1.421469	-0.680328
O6	O	-0.306854	-1.639294	-0.773409
O7	O	-0.380547	-1.442497	-0.482292
O8	O	-0.209551	-1.354586	-0.613390
O9	O	-0.380561	-1.619408	-0.659136
O10	O	-0.209561	-1.488629	-0.747383
O11	O	-0.306830	-1.328340	-0.462572
O12	O	-0.281768	-1.203720	-0.587279
O13	O	-0.336510	-1.400365	-0.878332
O14	O	-0.336496	-1.223454	-0.701487
O15	O	-0.281792	-1.514674	-0.898116
O16	O	-0.452778	-1.468542	-0.633025
O17	O	-0.433789	-1.374119	-0.727513
C18	C	-0.306326	-1.179843	-0.638549
C19	C	-0.297741	-1.076478	-0.620698
C20	C	-0.462253	-1.421337	-0.680284
C21	C	-0.520368	-1.421371	-0.680311
C22	C	-0.387765	-0.826245	-0.807872
C23	C	-0.395836	-0.923361	-0.824642
C24	C	-0.371313	-0.961645	-0.773658
C25	C	-0.338718	-0.902803	-0.705901
C26	C	-0.330650	-0.805677	-0.689125
C27	C	-0.314197	-0.941077	-0.654910
C28	C	-0.281602	-0.882235	-0.587153
C29	C	-0.273535	-0.785119	-0.570380
C30	C	-0.298059	-0.746834	-0.621364
C31	C	-0.322265	-1.038203	-0.671686
C32	C	-0.265149	-1.017635	-0.552938
C33	C	-0.257079	-0.920519	-0.536169
C34	C	-0.771518	-1.491270	-0.750157
C35	C	-0.716912	-1.491241	-0.750146
O36	O	-0.688633	-1.550560	-0.809482
N37	N	-0.689649	-1.421475	-0.680341
C38	C	-0.716996	-1.351738	-0.610537
O39	O	-0.688793	-1.292394	-0.551161
C40	C	-0.771602	-1.351772	-0.610546
C41	C	-0.798861	-1.421538	-0.680361
C42	C	-0.798777	-1.561031	-0.819966
C43	C	-0.853379	-1.561059	-0.819979
C44	C	-0.880722	-1.491326	-0.750183
C45	C	-0.853463	-1.421565	-0.680374
C46	C	-0.798949	-1.282040	-0.540740
C47	C	-0.853559	-1.282080	-0.540754
C48	C	-0.880818	-1.351846	-0.610569
C49	C	-0.935408	-1.351861	-0.610590
N50	N	-0.962671	-1.421627	-0.680395
C51	C	-0.935328	-1.491360	-0.750191
C52	C	-0.602321	-1.351673	-0.610523
C53	C	-0.547715	-1.351635	-0.610517
C54	C	-0.547635	-1.491139	-0.750125
C55	C	-0.602241	-1.491173	-0.750134
C56	C	-0.629583	-1.421440	-0.680328
C57	C	-1.049996	-1.491413	-0.750213
C58	C	-1.104603	-1.491432	-0.750222
C59	C	-1.104679	-1.351931	-0.610612
C60	C	-1.050077	-1.351908	-0.610606
C61	C	-1.022737	-1.421657	-0.680411
O62	O	-0.963723	-1.292574	-0.551282
O63	O	-0.963539	-1.550701	-0.809551
C64	C	-0.190056	-1.421631	-0.680396
C65	C	-0.131946	-1.421699	-0.680426
C66	C	-0.306269	-1.463535	-0.922914
C67	C	-0.297682	-1.481461	-1.026289
C68	C	-0.346588	-0.664038	-0.722262
C69	C	-0.355174	-0.767402	-0.740112
C70	C	-0.387434	-1.293934	-1.276486
C71	C	-0.395498	-1.277083	-1.179358
C72	C	-0.371045	-1.328176	-1.141086
C73	C	-0.338526	-1.396123	-1.199952
C74	C	-0.330458	-1.412971	-1.297089
C75	C	-0.314069	-1.447213	-1.161688
C76	C	-0.281550	-1.515160	-1.220554
C77	C	-0.273483	-1.532005	-1.317681
C78	C	-0.297936	-1.480912	-1.355953
C79	C	-0.322137	-1.430365	-1.064552
C80	C	-0.265161	-1.549402	-1.085154
C81	C	-0.257097	-1.566253	-1.182282
C82	C	-0.346458	-1.379621	-0.438695
C83	C	-0.354912	-1.361875	-0.335351
H84	H	-0.348804	-1.086104	-0.726855
H85	H	-0.230619	-1.621576	-1.230224
H86	H	-0.245181	-1.048805	-0.511421
H87	H	-0.377885	-1.040722	-0.787316
H88	H	-0.624431	-1.547979	-0.806987
H89	H	-1.126794	-1.548243	-0.807079
H90	H	-0.776762	-1.225231	-0.483890
C91	C	-0.632391	-1.274946	-0.533736
N92	N	-0.655037	-1.217155	-0.475901
C93	C	-1.019930	-1.568137	-0.827005
N94	N	-0.997284	-1.625922	-0.884849
H95	H	-0.422376	-0.971263	-0.879807
H96	H	-0.245247	-1.591003	-1.053993
C97	C	-0.414739	-0.784124	-0.863943
N98	N	-0.435058	-0.752398	-0.906179
C99	C	-0.289174	-0.640003	-0.602936
N100	N	-0.282480	-0.559538	-0.589061
H101	H	-0.525523	-1.294817	-0.553676
H102	H	-0.875818	-1.225295	-0.483908
C103	C	-0.414319	-1.237726	-1.318591
N104	N	-0.434569	-1.195383	-1.350304
H105	H	-0.247001	-0.737210	-0.515199
C106	C	-1.020092	-1.275168	-0.533801
N107	N	-0.997512	-1.217374	-0.475942
H108	H	-0.291374	-1.494632	-1.435043
H109	H	-0.875570	-1.617875	-0.876824
H110	H	-0.776520	-1.617820	-0.876803
H111	H	-0.230540	-0.872597	-0.481000
H112	H	-0.377614	-1.314452	-1.062000
H113	H	-0.525362	-1.547921	-0.806956
C114	C	-1.134777	-1.275284	-0.533785
N115	N	-1.157454	-1.217577	-0.475894
C116	C	-0.357910	-1.355628	-0.999811
N117	N	-0.384857	-1.299333	-0.951049
H118	H	-0.421980	-1.221767	-1.131438
C119	C	-0.237707	-1.606742	-1.382430
N120	N	-0.210761	-1.663036	-1.431198
