data_functionalizedCrystal
_audit_creation_method	'MofGen! by Chris Wilmer'
_symmetry_space_group_name_H-M	'P1'
_symmetry_Int_Tables_number	1
_symmetry_cell_setting	triclinic
loop_
_symmetry_equiv_pos_as_xyz
  x,y,z
_cell_length_a	6.817900
_cell_length_b	17.982959
_cell_length_c	12.200875
_cell_angle_alpha	94.640534
_cell_angle_beta	107.143593
_cell_angle_gamma	102.451857
loop_
_atom_site_label
_atom_site_type_symbol
_atom_site_fract_x
_atom_site_fract_y
_atom_site_fract_z
V1	V	-4.063264	-0.105586	-0.358141
V2	V	-3.563264	0.394414	0.141859
O3	O	-4.055274	0.004896	-0.350830
O4	O	-3.555274	0.504896	0.149170
O5	O	-4.009540	-0.209188	-0.356165
O6	O	-3.509540	0.290812	0.143835
O7	O	-4.033062	-0.104040	-0.514122
O8	O	-3.533062	0.395960	-0.014122
O9	O	-4.031589	-0.100980	-0.191780
O10	O	-3.531589	0.399020	0.308220
V11	V	-4.545224	-0.092362	-0.338185
V12	V	-4.045224	0.407638	0.161815
O13	O	-4.327951	-0.134594	-0.401915
O14	O	-3.827951	0.365406	0.098085
O15	O	-4.730735	-0.063354	-0.294411
O16	O	-4.230735	0.436646	0.205589
O17	O	-4.375743	0.011240	-0.340160
O18	O	-3.875743	0.511240	0.159840
O19	O	-4.670612	-0.202843	-0.345496
O20	O	-4.170612	0.297157	0.154504
O21	O	-4.694297	-0.096968	-0.504546
O22	O	-4.194297	0.403032	-0.004546
O23	O	-4.352221	-0.093908	-0.182204
O24	O	-3.852221	0.406092	0.317796
C25	C	-3.852656	-0.234441	-0.350638
C26	C	-3.352656	0.265559	0.149362
C27	C	-3.890138	-0.319137	-0.350063
C28	C	-3.390138	0.180863	0.149937
C29	C	-4.090333	-0.362811	-0.355532
C30	C	-3.590333	0.137189	0.144468
C31	C	-4.125543	-0.442393	-0.354998
C32	C	-3.625543	0.057607	0.145002
C33	C	-3.960550	-0.478299	-0.348987
C34	C	-3.460550	0.021701	0.151013
C35	C	-3.760340	-0.434619	-0.343520
C36	C	-3.260340	0.065381	0.156480
C37	C	-3.725137	-0.355040	-0.344063
C38	C	-3.225137	0.144960	0.155937
C39	C	-3.902305	-0.755554	-0.341335
C40	C	-3.402305	-0.255554	0.158665
C41	C	-3.937523	-0.835139	-0.340790
C42	C	-3.437523	-0.335139	0.159210
C43	C	-4.302711	-0.842907	-0.352271
C44	C	-3.802711	-0.342907	0.147729
C45	C	-4.267508	-0.763328	-0.352813
C46	C	-3.767508	-0.263328	0.147187
C47	C	-4.067305	-0.719656	-0.347353
C48	C	-3.567305	-0.219656	0.152647
C49	C	-4.029130	-0.633365	-0.347934
C50	C	-3.529130	-0.133365	0.152066
C51	C	-3.998718	-0.564587	-0.348397
C52	C	-3.498718	-0.064587	0.151603
C53	C	-3.882660	-0.100314	-0.552126
C54	C	-3.382660	0.399686	-0.052126
C55	C	-3.939214	-0.099735	-0.679644
C56	C	-3.439214	0.400265	-0.179644
C57	C	-4.042716	-0.098677	-0.913114
C58	C	-3.542716	0.401323	-0.413114
C59	C	-3.985112	-0.099265	-0.783195
C60	C	-3.485112	0.400735	-0.283195
C61	C	-4.195968	0.036490	-0.345685
C62	C	-3.695968	0.536490	0.154315
C63	C	-4.137725	0.121185	-0.346268
C64	C	-3.637725	0.621185	0.153732
C65	C	-4.165964	-0.097636	-0.144194
C66	C	-3.665964	0.402364	0.355806
C67	C	-4.088648	-0.098211	-0.016674
C68	C	-3.588648	0.401789	0.483326
H69	H	-3.803158	-0.864371	-0.335903
H70	H	-3.303158	-0.364371	0.164097
C71	C	-3.504918	-0.306998	-0.338036
C72	C	-3.004918	0.193002	0.161964
H73	H	-3.411688	-0.339776	-0.334366
H74	H	-2.911688	0.160224	0.165634
H75	H	-3.516807	-0.282783	-0.405243
H76	H	-3.016807	0.217217	0.094757
H77	H	-3.450376	-0.268800	-0.270763
H78	H	-2.950376	0.231200	0.229237
C79	C	-4.522945	-0.890946	-0.358289
C80	C	-4.022945	-0.390946	0.141711
H81	H	-4.616155	-0.858161	-0.361934
H82	H	-4.116155	-0.358161	0.138066
H83	H	-4.577503	-0.929144	-0.425553
H84	H	-4.077503	-0.429144	0.074447
H85	H	-4.511038	-0.915156	-0.291072
H86	H	-4.011038	-0.415156	0.208928
C87	C	-4.345751	-0.490430	-0.361003
C88	C	-3.845751	0.009570	0.138997
H89	H	-4.438963	-0.457647	-0.364644
H90	H	-3.938963	0.042353	0.135356
H91	H	-4.400314	-0.528629	-0.428266
H92	H	-3.900314	-0.028629	0.071734
H93	H	-4.333833	-0.514640	-0.293784
H94	H	-3.833833	-0.014640	0.206216
C95	C	-4.449003	-0.723836	-0.359430
C96	C	-3.949003	-0.223836	0.140570
H97	H	-4.573284	-0.761246	-0.362622
H98	H	-4.073284	-0.261246	0.137378
H99	H	-4.409647	-0.685958	-0.292646
H100	H	-3.909647	-0.185958	0.207354
H101	H	-4.476077	-0.699951	-0.427127
H102	H	-3.976077	-0.199951	0.072873
H103	H	-4.224689	-0.333582	-0.360416
H104	H	-3.724689	0.166418	0.139584
H105	H	-3.739290	-0.720005	-0.336883
H106	H	-3.239290	-0.220005	0.163117
H107	H	-3.626006	-0.463861	-0.338633
H108	H	-3.126006	0.036139	0.161367
