data_functionalizedCrystal
_audit_creation_method	'MofGen! by Chris Wilmer'
_symmetry_space_group_name_H-M	'P1'
_symmetry_Int_Tables_number	1
_symmetry_cell_setting	triclinic
loop_
_symmetry_equiv_pos_as_xyz
  x,y,z
_cell_length_a	23.532407
_cell_length_b	9.198806
_cell_length_c	10.723024
_cell_angle_alpha	90.002012
_cell_angle_beta	96.341727
_cell_angle_gamma	90.001405
loop_
_atom_site_label
_atom_site_type_symbol
_atom_site_fract_x
_atom_site_fract_y
_atom_site_fract_z
O1	O	0.756242	-0.120708	-0.151465
O2	O	0.590521	-0.120750	-0.173381
O3	O	0.677204	-0.120722	0.019272
O4	O	0.669559	-0.120735	-0.344118
O5	O	0.677197	0.121063	0.019273
O6	O	0.590514	0.121035	-0.173381
O7	O	0.756235	0.121077	-0.151465
Cu8	Cu	0.673374	0.143133	-0.162423
Cu9	Cu	0.673382	-0.142806	-0.162423
O10	O	0.669552	0.121050	-0.344118
C11	C	0.569298	0.000137	-0.172823
C12	C	0.506070	0.000121	-0.171145
N13	N	0.673372	0.344247	-0.162421
N14	N	0.673388	-0.343920	-0.162414
C15	C	0.107638	0.000183	-0.274629
C16	C	0.048228	0.000192	-0.273070
O17	O	0.012106	0.000242	-0.369001
N18	N	0.024859	0.000194	-0.158538
C19	C	0.060903	0.000201	-0.045557
O20	O	0.035570	0.000205	0.052005
C21	C	0.120312	0.000203	-0.047117
C22	C	0.143678	0.000187	-0.161656
C23	C	0.131005	0.000169	-0.389159
C24	C	0.190411	0.000157	-0.390717
C25	C	0.226451	0.000160	-0.277745
C26	C	0.203084	0.000175	-0.163215
C27	C	0.156356	0.000221	0.065863
C28	C	0.215768	0.000223	0.064293
C29	C	0.239134	0.000207	-0.050247
C30	C	0.298530	0.000166	-0.051801
N31	N	0.321900	0.000165	-0.166333
C32	C	0.285860	0.000162	-0.279305
C33	C	-0.063861	0.000201	-0.042289
C34	C	-0.123269	0.000189	-0.040728
C35	C	-0.135940	0.000183	-0.268242
C36	C	-0.076531	0.000184	-0.269802
C37	C	-0.040491	0.000199	-0.156821
C38	C	0.410618	0.000136	-0.282569
C39	C	0.470030	0.000118	-0.284117
C40	C	0.482696	0.000132	-0.056604
C41	C	0.423289	0.000142	-0.055055
C42	C	0.387251	0.000149	-0.168048
O43	O	0.334687	0.000123	0.044080
O44	O	0.311201	0.000177	-0.376851
C45	C	0.777458	0.000187	-0.152023
C46	C	0.840686	0.000194	-0.153701
C47	C	0.676644	0.000168	0.065755
C48	C	0.674980	0.000163	0.204257
C49	C	0.709768	0.416456	-0.081180
C50	C	0.709777	0.583868	-0.081176
C51	C	0.670112	0.000156	-0.390600
C52	C	0.671776	0.000152	-0.529103
C53	C	0.723483	0.000173	0.280751
C54	C	0.721764	0.000167	0.423901
H55	H	0.489051	0.000104	-0.377393
H56	H	0.632181	0.000142	0.244746
C57	C	0.615676	0.000139	0.382115
N58	N	0.573422	0.000125	0.315234
H59	H	-0.034520	0.000200	0.049719
H60	H	0.642229	0.593994	-0.231976
C61	C	0.130667	0.000267	0.191868
N62	N	0.111320	0.000314	0.286782
C63	C	0.370984	0.000135	-0.406867
N64	N	0.341133	0.000124	-0.500488
H65	H	0.209430	0.000143	-0.483987
H66	H	0.763286	0.000183	0.489627
C67	C	0.751847	0.332542	0.012804
N68	N	0.783538	0.269340	0.083601
H69	H	0.740939	0.645964	-0.011626
H70	H	0.642217	0.406365	-0.231968
C71	C	0.781304	0.000199	0.226059
N72	N	0.824856	0.000223	0.184867
H73	H	0.404264	0.000134	0.038213
C74	C	0.091369	0.000171	-0.513449
N75	N	0.061519	0.000164	-0.607073
H76	H	-0.165295	0.000187	-0.360230
C77	C	-0.050834	0.000182	-0.395803
N78	N	-0.031483	0.000187	-0.490712
H79	H	0.245109	0.000237	0.156298
H80	H	-0.142288	0.000180	0.052542
C81	C	0.522351	0.000152	0.067659
N82	N	0.552221	0.000184	0.161255
