data_functionalizedCrystal
_audit_creation_method	'MofGen! by Chris Wilmer'
_symmetry_space_group_name_H-M	'P1'
_symmetry_Int_Tables_number	1
_symmetry_cell_setting	triclinic
loop_
_symmetry_equiv_pos_as_xyz
  x,y,z
_cell_length_a	10.654556
_cell_length_b	10.540510
_cell_length_c	9.130313
_cell_angle_alpha	89.997956
_cell_angle_beta	89.998135
_cell_angle_gamma	84.500424
loop_
_atom_site_label
_atom_site_type_symbol
_atom_site_fract_x
_atom_site_fract_y
_atom_site_fract_z
O1	O	1.667879	0.178342	-0.121735
O2	O	1.302405	0.195321	-0.121749
O3	O	1.493500	0.002119	-0.121741
O4	O	1.476785	0.371543	-0.121743
O5	O	1.493486	0.002114	0.121857
O6	O	1.302392	0.195315	0.121849
O7	O	1.667865	0.178336	0.121864
Cu8	Cu	1.485128	0.186825	0.144099
Cu9	Cu	1.485143	0.186832	-0.143985
O10	O	1.476771	0.371537	0.121856
C11	C	1.255601	0.194069	0.000048
C12	C	1.116157	0.190334	0.000042
C13	C	0.919617	0.185079	-0.132732
C14	C	1.050641	0.188580	-0.132741
C15	C	1.050645	0.188574	0.132844
C16	C	0.919625	0.185063	0.132851
C17	C	1.492247	-0.045187	0.000055
C18	C	1.488521	-0.186135	0.000046
C19	C	1.621273	-0.403636	0.000609
C20	C	1.625248	-0.257041	0.000053
C21	C	1.418537	-0.230867	-0.139061
C22	C	1.415530	-0.377627	-0.139170
C23	C	1.412668	-0.377441	0.137848
C24	C	1.419153	-0.231102	0.139679
C25	C	1.714670	0.179587	0.000063
C26	C	1.854114	0.183322	0.000059
C27	C	1.478024	0.418843	0.000056
C28	C	1.481750	0.559792	0.000055
N29	N	1.485126	0.186819	0.346722
N30	N	1.485155	0.186827	-0.346607
C31	C	1.569771	0.101306	0.423377
C32	C	1.569783	0.101306	0.576714
C33	C	1.400500	0.272344	0.576726
C34	C	1.400483	0.272337	0.423392
H35	H	1.680006	-0.227718	0.099768
H36	H	1.103968	0.190009	-0.240873
H37	H	1.104000	0.189994	0.240958
H38	H	1.467149	-0.200025	-0.242580
H39	H	1.680335	-0.228652	-0.099832
H40	H	1.638708	0.031672	0.639122
H41	H	1.317881	-0.183444	-0.144237
H42	H	1.638690	0.031671	0.360955
H43	H	0.866291	0.183632	0.240992
H44	H	1.331549	0.341973	0.360975
H45	H	1.331588	0.341973	0.639167
H46	H	1.463368	-0.417856	-0.243150
H47	H	1.674535	-0.445611	0.100370
H48	H	0.866282	0.183659	-0.240860
H49	H	1.313266	-0.400588	-0.145476
H50	H	1.456113	-0.419640	0.243291
H51	H	1.319331	-0.182002	0.148075
H52	H	1.674239	-0.447157	-0.098583
H53	H	1.470076	-0.202510	0.242589
H54	H	1.310012	-0.399557	0.138781
