data_functionalizedCrystal
_audit_creation_method	'MofGen! by Chris Wilmer'
_symmetry_space_group_name_H-M	'P1'
_symmetry_Int_Tables_number	1
_symmetry_cell_setting	triclinic
loop_
_symmetry_equiv_pos_as_xyz
  x,y,z
_cell_length_a	10.723024
_cell_length_b	9.065218
_cell_length_c	8.140239
_cell_angle_alpha	89.998314
_cell_angle_beta	89.997577
_cell_angle_gamma	84.741877
loop_
_atom_site_label
_atom_site_type_symbol
_atom_site_fract_x
_atom_site_fract_y
_atom_site_fract_z
O1	O	1.658026	0.206940	-0.136596
O2	O	2.158026	0.706940	0.363404
O3	O	1.294954	0.226748	-0.136601
O4	O	1.794954	0.726748	0.363399
O5	O	1.483995	0.002159	-0.136595
O6	O	1.983995	0.502159	0.363405
O7	O	1.468985	0.431529	-0.136602
O8	O	1.968985	0.931529	0.363398
O9	O	1.483984	0.002156	0.136632
O10	O	1.983984	0.502156	0.636632
O11	O	1.294944	0.226745	0.136627
O12	O	1.794944	0.726745	0.636627
O13	O	1.658015	0.206937	0.136631
O14	O	2.158015	0.706937	0.636631
Zn15	Zn	1.476478	0.216841	0.180010
Zn16	Zn	1.976478	0.716841	0.680010
Zn17	Zn	1.476492	0.216844	-0.179979
Zn18	Zn	1.976492	0.716844	0.320021
O19	O	1.468975	0.431526	0.136626
O20	O	1.968975	0.931526	0.636626
C21	C	1.482547	-0.052821	0.000016
C22	C	1.982547	0.447179	0.500016
C23	C	1.478234	-0.216639	0.000008
C24	C	1.978234	0.283361	0.500008
C25	C	1.248443	0.225305	0.000012
C26	C	1.748443	0.725305	0.500012
C27	C	1.109872	0.220992	0.000010
C28	C	1.609872	0.720992	0.500010
C29	C	1.035399	0.346660	0.000007
C30	C	1.535399	0.846660	0.500007
C31	C	0.892178	0.342206	0.000005
C32	C	1.392178	0.842206	0.500005
C33	C	1.704526	0.208380	0.000015
C34	C	2.204526	0.708380	0.500015
C35	C	1.843098	0.212693	0.000006
C36	C	2.343098	0.712693	0.500006
C37	C	1.470423	0.486506	0.000011
C38	C	1.970423	0.986506	0.500011
C39	C	1.474736	0.650324	0.000008
C40	C	1.974736	1.150324	0.500008
N41	N	1.476477	0.216837	0.425692
N42	N	1.976477	0.716837	0.925692
N43	N	1.476502	0.216836	-0.425661
N44	N	1.976502	0.716836	0.074339
H45	H	1.077672	0.457547	0.000015
H46	H	1.577672	0.957547	0.500015
H47	H	0.828182	0.449788	-0.000004
H48	H	1.328182	0.949788	0.499996
H49	H	1.067599	0.110105	-0.000030
H50	H	1.567599	0.610105	0.499970
H51	H	0.907086	0.105105	-0.000002
H52	H	1.407086	0.605105	0.499998
