data_functionalizedCrystal
_audit_creation_method	'MofGen! by Chris Wilmer'
_symmetry_space_group_name_H-M	'P1'
_symmetry_Int_Tables_number	1
_symmetry_cell_setting	triclinic
loop_
_symmetry_equiv_pos_as_xyz
  x,y,z
_cell_length_a	13.032831
_cell_length_b	18.101390
_cell_length_c	13.032721
_cell_angle_alpha	97.149826
_cell_angle_beta	90.902885
_cell_angle_gamma	82.808907
loop_
_atom_site_label
_atom_site_type_symbol
_atom_site_fract_x
_atom_site_fract_y
_atom_site_fract_z
Zn1	Zn	1.520256	-0.610143	-0.609348
Zn2	Zn	1.498296	-0.499805	-0.781331
Zn3	Zn	1.348271	-0.468901	-0.587522
Zn4	Zn	1.326404	-0.606189	-0.759395
O5	O	1.423307	-0.546259	-0.684399
O6	O	1.661257	-0.610095	-0.650477
O7	O	1.478356	-0.392073	-0.755668
O8	O	1.389427	-0.476358	-0.446513
O9	O	1.645122	-0.529030	-0.776832
O10	O	1.515784	-0.580128	-0.462548
O11	O	1.368133	-0.369368	-0.613278
O12	O	1.201457	-0.472524	-0.592007
O13	O	1.352158	-0.710346	-0.739445
O14	O	1.185392	-0.573389	-0.718282
O15	O	1.494581	-0.713251	-0.629206
O16	O	1.457152	-0.525196	-0.922327
O17	O	1.330864	-0.603356	-0.906210
C18	C	1.156109	-0.519175	-0.650396
C19	C	1.041797	-0.507607	-0.635875
C20	C	1.423380	-0.739420	-0.684313
C21	C	1.423411	-0.821734	-0.684277
C22	C	0.982900	-0.552297	-0.691979
C23	C	0.864752	-0.540342	-0.676971
C24	C	1.423475	-1.120826	-0.684219
C25	C	1.513309	-1.091377	-0.615173
C26	C	1.513098	-1.005710	-0.614847
C27	C	1.423444	-0.972443	-0.684248
C28	C	1.318837	-0.990229	-0.641023
C29	C	1.319390	-1.075876	-0.640491
C30	C	1.437267	-1.100587	-0.796573
C31	C	1.439716	-1.015135	-0.796320
C32	C	1.423420	-0.888583	-0.684265
C33	C	1.423492	-1.204685	-0.684199
C34	C	1.691548	-0.573450	-0.718536
C35	C	1.805856	-0.585038	-0.733083
C36	C	1.389280	-0.567219	-0.951585
C37	C	1.374818	-0.576220	-1.065900
C38	C	1.423303	-0.353850	-0.684418
C39	C	1.423508	-0.271535	-0.684191
C40	C	1.430910	-0.541601	-1.124812
C41	C	1.415963	-0.550903	-1.242962
C42	C	1.457494	-0.525237	-0.416174
C43	C	1.472063	-0.516278	-0.301872
H44	H	0.827714	-0.493231	-0.617819
C45	C	1.551895	-0.466932	-1.251865
H46	H	1.585153	-0.446423	-1.304150
H47	H	1.517840	-0.427386	-1.205019
H48	H	1.601959	-0.496552	-1.215589
C49	C	1.502679	-1.109477	-0.503749
H50	H	1.443729	-1.134901	-0.499124
H51	H	1.562834	-1.140525	-0.485732
H52	H	1.494891	-1.064162	-0.457648
H53	H	1.250683	-0.968060	-0.689163
H54	H	1.004755	-0.460499	-0.576727
C55	C	1.348659	-1.126255	-0.866306
H56	H	1.303468	-1.149199	-0.827195
H57	H	1.311352	-1.084068	-0.892461
H58	H	1.376496	-1.161352	-0.922270
H59	H	1.019943	-0.599409	-0.751118
C60	C	1.294994	-0.625565	-1.115919
H61	H	1.295416	-0.625340	-1.188768
H62	H	1.312214	-0.675476	-1.100208
H63	H	1.228095	-0.606310	-1.089648
C64	C	0.855879	-0.648671	-0.813008
H65	H	0.928723	-0.648351	-0.812625
H66	H	0.840265	-0.695520	-0.795854
H67	H	0.829518	-0.641385	-0.879866
H68	H	1.304994	-0.960195	-0.559314
C69	C	1.537577	-1.143235	-0.846094
H70	H	1.571986	-1.173785	-0.798705
H71	H	1.521272	-1.173930	-0.907211
H72	H	1.581371	-1.108294	-0.862892
C73	C	1.618483	-0.990268	-0.653505
H74	H	1.618498	-0.937771	-0.653349
H75	H	1.671684	-1.008665	-0.609208
H76	H	1.630280	-1.014836	-0.721810
C77	C	1.619075	-1.132177	-0.653605
H78	H	1.609399	-1.167541	-0.712101
H79	H	1.660983	-1.096654	-0.672313
H80	H	1.652090	-1.157526	-0.600110
H81	H	1.306085	-1.087244	-0.557951
C82	C	1.502234	-0.966987	-0.502784
H83	H	1.497922	-1.003611	-0.457281
H84	H	1.560739	-0.941534	-0.485194
H85	H	1.441320	-0.931933	-0.496734
C86	C	1.510735	-0.492257	-1.074793
H87	H	1.510304	-0.492475	-1.001943
H88	H	1.577629	-0.511504	-1.101066
H89	H	1.493505	-0.442342	-1.090499
C90	C	1.543612	-1.000965	-0.840027
H91	H	1.553010	-1.026939	-0.907834
H92	H	1.543536	-0.948717	-0.842377
H93	H	1.598394	-1.018508	-0.796836
C94	C	1.226894	-1.101301	-0.704452
H95	H	1.189141	-1.059288	-0.730639
H96	H	1.251358	-1.137687	-0.760402
H97	H	1.183102	-1.122601	-0.661756
H98	H	1.377940	-0.993146	-0.851642
H99	H	1.356875	-0.587434	-1.279992
