data_functionalizedCrystal
_audit_creation_method	'MofGen! by Chris Wilmer'
_symmetry_space_group_name_H-M	'P1'
_symmetry_Int_Tables_number	1
_symmetry_cell_setting	triclinic
loop_
_symmetry_equiv_pos_as_xyz
  x,y,z
_cell_length_a	19.121241
_cell_length_b	25.639240
_cell_length_c	19.120904
_cell_angle_alpha	87.584599
_cell_angle_beta	90.124528
_cell_angle_gamma	92.466443
loop_
_atom_site_label
_atom_site_type_symbol
_atom_site_fract_x
_atom_site_fract_y
_atom_site_fract_z
Zn1	Zn	1.054837	-0.188777	0.442205
Zn2	Zn	1.059743	-0.272333	0.324973
Zn3	Zn	0.942604	-0.188466	0.319974
Zn4	Zn	0.937550	-0.279740	0.437160
O5	O	0.998684	-0.232329	0.381078
O6	O	1.153596	-0.196891	0.430857
O7	O	1.048372	-0.257978	0.226205
O8	O	0.957553	-0.115341	0.336208
O9	O	1.157200	-0.258279	0.344727
O10	O	1.040011	-0.115569	0.426010
O11	O	0.962310	-0.196362	0.222533
O12	O	0.843825	-0.203544	0.331316
O13	O	0.948941	-0.270903	0.535934
O14	O	0.840113	-0.270602	0.417412
O15	O	1.035111	-0.204073	0.539640
O16	O	1.043472	-0.346482	0.339835
O17	O	0.953698	-0.351924	0.422258
C18	C	0.816531	-0.237844	0.373275
C19	C	0.738604	-0.240216	0.369953
C20	C	0.700115	-0.209424	0.413304
C21	C	0.626895	-0.211651	0.410177
C22	C	0.592165	-0.244672	0.363702
C23	C	0.630660	-0.275465	0.320346
C24	C	0.703878	-0.273235	0.323470
C25	C	0.371186	-0.252997	0.352019
C26	C	0.297962	-0.255226	0.348899
C27	C	0.294203	-0.191411	0.438730
C28	C	0.367423	-0.189186	0.441853
C29	C	0.405911	-0.219977	0.398495
C30	C	0.517323	-0.246950	0.360506
C31	C	0.480752	-0.217696	0.401688
C32	C	0.998587	-0.368174	0.381058
C33	C	0.998609	-0.426288	0.381075
C34	C	1.041613	-0.677548	0.427884
C35	C	1.041592	-0.622944	0.427877
O36	O	1.078076	-0.594766	0.467649
N37	N	0.998686	-0.595560	0.381087
C38	C	0.955802	-0.622781	0.334295
O39	O	0.919306	-0.594475	0.294496
C40	C	0.955827	-0.677384	0.334299
C41	C	0.998732	-0.704766	0.381097
C42	C	1.084514	-0.704930	0.474677
C43	C	1.084534	-0.759530	0.474684
C44	C	1.041653	-0.786748	0.427897
C45	C	0.998751	-0.759366	0.381104
C46	C	0.912948	-0.704605	0.287504
C47	C	0.912977	-0.759211	0.287511
C48	C	0.955882	-0.786593	0.334309
C49	C	0.955889	-0.841184	0.334324
N50	N	0.998796	-0.868569	0.381114
C51	C	1.041678	-0.841351	0.427901
C52	C	0.955754	-0.508112	0.334291
C53	C	0.955725	-0.453511	0.334291
C54	C	1.041516	-0.453677	0.427872
C55	C	1.041541	-0.508280	0.427875
C56	C	0.998661	-0.535497	0.381081
C57	C	1.041715	-0.956015	0.427912
C58	C	1.041729	-1.010620	0.427917
C59	C	0.955941	-1.010449	0.334333
C60	C	0.955924	-0.955849	0.334331
C61	C	0.998817	-0.928633	0.381123
O62	O	0.919427	-0.869397	0.294571
O63	O	1.078175	-0.869664	0.467687
C64	C	1.181548	-0.226793	0.388912
C65	C	1.259473	-0.224434	0.392251
C66	C	0.990915	-0.238349	0.563935
C67	C	0.987605	-0.240914	0.641858
C68	C	0.998798	-0.095953	0.381114
C69	C	0.998847	-0.037838	0.381130
C70	C	1.006462	-0.226293	0.198933
C71	C	1.009909	-0.223577	0.121017
C72	C	1.030911	-0.207326	0.680398
C73	C	1.027792	-0.209735	0.753614
C74	C	0.981369	-0.245735	0.788290
C75	C	0.938058	-0.279324	0.749746
C76	C	0.941174	-0.276912	0.676530
C77	C	0.969713	-0.254754	1.009257
C78	C	0.966602	-0.257165	1.082477
C79	C	1.056335	-0.187575	1.086341
C80	C	1.059450	-0.185168	1.013124
C81	C	1.016136	-0.218756	0.974586
C82	C	0.978182	-0.248199	0.863130
C83	C	1.019321	-0.216289	0.899748
H84	H	0.489038	-0.273835	0.322665
H85	H	1.076643	-0.933862	0.466014
O86	O	0.894462	-0.313140	0.634963
H87	H	0.904421	-0.305411	0.578226
H88	H	0.920780	-0.431220	0.296191
H89	H	1.057115	-0.186976	0.871511
H90	H	1.097254	-0.155855	0.984896
O91	O	1.130815	-0.789061	0.525153
H92	H	1.160631	-0.760953	0.557677
O93	O	0.404883	-0.153563	0.491969
H94	H	0.365818	-0.132519	0.521582
O95	O	0.518205	-0.182079	0.451812
H96	H	0.550041	-0.205681	0.488849
O97	O	0.909492	-0.537461	0.283820
H98	H	0.942421	-0.560192	0.249515
H99	H	1.119437	-0.682774	0.512777
O100	O	0.585380	-0.178440	0.456933
H101	H	0.621830	-0.155108	0.489780
O102	O	1.087820	-0.537813	0.478344
H103	H	1.117634	-0.509707	0.510872
O104	O	0.887985	-0.318150	0.787147
H105	H	0.858389	-0.341097	0.748045
H106	H	0.920980	-0.933554	0.296231
O107	O	0.916522	-0.295988	1.119884
H108	H	0.929096	-0.336200	1.106335
O109	O	0.737567	-0.173804	0.463430
H110	H	0.769402	-0.197401	0.500474
H111	H	0.402514	-0.278070	0.316714
H112	H	0.262858	-0.166342	0.474029
H113	H	1.076665	-1.032912	0.466030
O114	O	1.087777	-0.424316	0.478331
H115	H	1.080555	-0.381747	0.470456
H116	H	0.269687	-0.282118	0.311053
H117	H	0.878012	-0.682318	0.249397
H118	H	0.878059	-0.781368	0.249404
H119	H	0.921026	-1.032620	0.296242
O120	O	0.593207	-0.311080	0.270215
H121	H	0.535826	-0.307461	0.275329
O122	O	0.922963	-0.290953	0.967692
H123	H	0.890152	-0.316384	1.004107
O124	O	0.745397	-0.306446	0.276714
H125	H	0.708948	-0.329786	0.243876
H126	H	1.068716	-0.178013	0.652170
O127	O	1.074505	-0.173511	0.795185
H128	H	1.107316	-0.148079	0.758772
H129	H	0.940387	-0.277512	0.891371
O130	O	1.103030	-0.151334	1.127904
H131	H	1.093057	-0.159050	1.184641
