data_functionalizedCrystal
_audit_creation_method	'MofGen! by Chris Wilmer'
_symmetry_space_group_name_H-M	'P1'
_symmetry_Int_Tables_number	1
_symmetry_cell_setting	triclinic
loop_
_symmetry_equiv_pos_as_xyz
  x,y,z
_cell_length_a	16.959455
_cell_length_b	29.839131
_cell_length_c	16.959447
_cell_angle_alpha	89.967359
_cell_angle_beta	89.975979
_cell_angle_gamma	90.038440
loop_
_atom_site_label
_atom_site_type_symbol
_atom_site_fract_x
_atom_site_fract_y
_atom_site_fract_z
Zn1	Zn	1.208295	-0.178886	-0.447017
Zn2	Zn	1.208160	-0.254017	-0.314830
Zn3	Zn	1.076115	-0.178898	-0.314840
Zn4	Zn	1.076039	-0.253986	-0.446954
O5	O	1.142152	-0.216447	-0.380910
O6	O	1.318888	-0.188860	-0.429503
O7	O	1.190619	-0.244071	-0.204220
O8	O	1.093737	-0.116030	-0.332404
O9	O	1.318789	-0.244059	-0.332386
O10	O	1.190849	-0.116020	-0.429513
O11	O	1.093606	-0.188882	-0.204228
O12	O	0.965494	-0.188851	-0.332344
O13	O	1.093608	-0.244005	-0.557574
O14	O	0.965438	-0.244017	-0.429407
O15	O	1.190776	-0.188829	-0.557619
O16	O	1.190545	-0.316880	-0.332326
O17	O	1.093477	-0.316857	-0.429397
C18	C	0.936786	-0.216432	-0.380870
C19	C	0.848929	-0.216437	-0.380872
C20	C	0.477391	-0.245160	-0.330315
C21	C	0.477516	-0.187771	-0.431601
C22	C	0.560062	-0.187763	-0.431582
C23	C	0.601276	-0.216455	-0.380929
C24	C	0.559945	-0.245155	-0.330296
C25	C	0.601400	-0.159067	-0.482220
C26	C	0.683951	-0.159059	-0.482203
C27	C	0.725166	-0.187749	-0.431546
C28	C	0.683830	-0.216450	-0.380910
C29	C	0.725044	-0.245142	-0.330258
C30	C	0.683709	-0.273840	-0.279618
C31	C	0.601161	-0.273845	-0.279639
C32	C	0.807715	-0.187745	-0.431524
C33	C	0.807598	-0.245136	-0.330239
C34	C	1.142009	-0.333169	-0.380871
C35	C	1.142021	-0.383104	-0.380881
C36	C	1.192788	-0.692747	-0.330439
C37	C	1.192885	-0.880420	-0.330470
O38	O	1.235936	-0.904684	-0.287552
N39	N	1.142316	-0.903889	-0.380970
C40	C	1.091723	-0.880437	-0.431470
O41	O	1.048718	-0.904705	-0.474429
C42	C	1.091630	-0.692765	-0.431442
C43	C	1.142196	-0.669298	-0.380933
C44	C	1.243351	-0.669280	-0.279935
C45	C	1.243323	-0.622365	-0.279924
C46	C	1.192732	-0.598916	-0.330419
C47	C	1.142168	-0.622382	-0.380923
C48	C	1.041041	-0.669313	-0.481945
C49	C	1.041023	-0.622392	-0.481935
C50	C	1.091590	-0.598926	-0.431426
C51	C	1.091549	-0.552018	-0.431407
N52	N	1.142118	-0.528549	-0.380907
C53	C	1.192710	-0.551998	-0.330413
C54	C	1.091774	-0.978967	-0.431479
C55	C	1.091796	-1.025885	-0.431485
C56	C	1.192960	-1.025865	-0.330486
C57	C	1.192933	-0.978946	-0.330477
C58	C	1.142343	-0.955498	-0.380979
C59	C	1.192647	-0.453472	-0.330394
C60	C	1.192612	-0.406553	-0.330386
C61	C	1.091451	-0.406577	-0.431388
C62	C	1.091483	-0.453492	-0.431394
C63	C	1.142087	-0.476939	-0.380894
O64	O	1.048527	-0.527725	-0.474308
O65	O	1.235720	-0.527722	-0.287471
C66	C	1.192816	-0.739662	-0.330449
C67	C	1.142252	-0.763129	-0.380954
C68	C	1.091661	-0.739680	-0.431448
C69	C	1.142274	-0.810047	-0.380959
C70	C	1.192866	-0.833495	-0.330465
C71	C	1.243435	-0.810026	-0.279965
C72	C	1.243407	-0.763111	-0.279955
C73	C	1.041092	-0.763149	-0.481948
C74	C	1.041123	-0.810065	-0.481953
C75	C	1.091715	-0.833513	-0.431459
C76	C	1.348320	-0.216462	-0.380951
C77	C	1.436177	-0.216468	-0.380968
C78	C	1.142198	-0.216412	-0.587078
C79	C	1.142218	-0.216397	-0.674935
C80	C	1.142317	-0.099268	-0.380967
C81	C	1.142387	-0.049334	-0.380991
C82	C	1.192738	-0.245125	-0.716207
C83	C	1.091711	-0.187659	-0.716217
C84	C	1.091725	-0.187646	-0.798763
C85	C	1.142245	-0.216373	-0.840035
C86	C	1.192751	-0.245113	-0.798760
C87	C	1.041214	-0.158909	-0.840043
C88	C	1.041224	-0.158895	-0.922594
C89	C	1.091749	-0.187620	-0.963868
C90	C	1.142258	-0.216362	-0.922588
C91	C	1.192779	-0.245089	-0.963860
C92	C	1.243292	-0.273828	-0.922582
C93	C	1.243276	-0.273839	-0.840033
C94	C	1.091765	-0.187610	-1.046416
C95	C	1.192792	-0.245077	-1.046413
C96	C	1.142152	-0.216449	-0.175544
C97	C	1.142285	-0.216337	-0.087688
H98	H	1.233790	-0.387447	-0.289253
C99	C	1.297975	-0.305098	-0.795172
C100	C	1.253163	-0.333902	-0.747773
C101	C	1.303519	-0.362709	-0.706440
H102	H	1.332445	-0.287971	-0.762919
H103	H	1.328054	-0.322233	-0.831545
H104	H	1.223097	-0.316769	-0.711405
H105	H	1.218695	-0.351039	-0.780007
H106	H	1.333599	-0.379844	-0.742812
H107	H	1.337987	-0.345579	-0.674191
H108	H	1.273122	-0.382259	-0.674280
H109	H	0.443733	-0.268525	-0.289083
C110	C	0.728967	-0.127949	-0.537147
C111	C	0.810082	-0.134090	-0.526302
C112	C	0.851576	-0.105442	-0.576908
H113	H	0.715552	-0.097739	-0.525729
H114	H	0.715515	-0.134567	-0.590255
H115	H	0.823529	-0.127468	-0.473206
H116	H	0.823520	-0.164294	-0.537726
H117	H	0.838124	-0.112060	-0.630017
H118	H	0.838155	-0.075234	-0.565486
H119	H	0.906617	-0.109608	-0.569562
H120	H	1.284553	-0.688367	-0.238816
C121	C	1.036897	-0.156363	-1.091089
C122	C	0.992661	-0.131202	-1.037277
C123	C	0.942113	-0.102406	-1.078400
H124	H	1.002374	-0.173493	-1.123278
H125	H	1.067145	-0.136759	-1.123292
H126	H	0.962415	-0.150804	-1.005088
H127	H	1.027163	-0.114062	-1.005087
H128	H	0.972361	-0.082802	-1.110603
H129	H	0.907595	-0.119541	-1.110587
H130	H	0.912098	-0.085329	-1.041895
H131	H	1.000078	-0.135524	-0.806434
H132	H	0.717277	-0.297204	-0.238381
H133	H	1.000093	-0.135494	-0.956196
H134	H	0.443954	-0.164413	-0.472844
H135	H	0.841149	-0.268500	-0.288988
C136	C	0.556758	-0.127846	-0.537170
C137	C	0.576888	-0.083383	-0.520118
C138	C	0.535786	-0.054609	-0.570733
H139	H	0.501663	-0.131897	-0.529980
H140	H	0.570331	-0.134434	-0.590267
H141	H	0.563309	-0.076797	-0.467034
H142	H	0.631976	-0.079318	-0.527314
H143	H	0.549359	-0.061197	-0.623829
H144	H	0.480693	-0.058663	-0.563538
H145	H	0.549443	-0.024437	-0.559175
H146	H	0.841366	-0.164380	-0.472757
H147	H	1.233855	-0.472557	-0.289275
C148	C	1.247519	-0.276292	-1.091323
C149	C	1.202738	-0.305073	-1.138700
C150	C	1.253126	-0.333829	-1.180090
H151	H	1.277618	-0.293450	-1.055008
H152	H	1.281970	-0.259113	-1.123591
H153	H	1.168301	-0.322250	-1.106435
H154	H	1.172641	-0.287927	-1.175030
H155	H	1.287578	-0.316650	-1.212358
H156	H	1.283223	-0.350984	-1.143769
H157	H	1.222751	-0.353357	-1.212246
H158	H	1.050575	-0.959879	-0.472605
H159	H	1.284501	-0.603261	-0.238798
C160	C	1.036949	-0.156488	-0.671268
C161	C	1.047760	-0.162643	-0.590141
C162	C	0.997333	-0.133930	-0.548707
H163	H	0.983801	-0.163029	-0.684685
H164	H	1.048569	-0.126292	-0.684769
H165	H	1.036134	-0.192832	-0.576646
H166	H	1.100897	-0.156099	-0.576701
H167	H	1.008953	-0.103733	-0.562207
H168	H	0.944188	-0.140473	-0.562130
H169	H	1.004666	-0.138099	-0.493658
C170	C	1.247916	-1.051410	-0.275806
C171	C	1.237144	-1.097520	-0.286668
C172	C	1.287789	-1.121068	-0.236350
H173	H	1.236488	-1.043820	-0.222631
H174	H	1.301012	-1.043699	-0.287493
H175	H	1.184061	-1.105228	-0.274975
H176	H	1.248579	-1.105123	-0.339833
H177	H	1.340885	-1.113357	-0.248037
H178	H	1.276356	-1.113475	-0.183177
H179	H	1.280493	-1.152356	-0.243718
C180	C	0.986249	-0.835621	-0.536712
C181	C	0.997082	-0.881730	-0.525912
C182	C	0.946547	-0.905284	-0.576339
H183	H	0.997739	-0.827954	-0.589860
H184	H	0.933124	-0.827992	-0.525087
H185	H	1.050195	-0.889355	-0.537543
H186	H	0.985587	-0.889410	-0.472775
H187	H	0.893422	-0.897655	-0.564713
H188	H	0.958041	-0.897613	-0.629483
H189	H	0.953885	-0.936571	-0.569012
C190	C	0.556140	-0.304986	-0.224754
C191	C	0.475027	-0.298859	-0.235631
C192	C	0.433527	-0.327544	-0.185094
H193	H	0.569541	-0.298402	-0.171629
H194	H	0.569602	-0.335188	-0.236230
H195	H	0.461570	-0.268664	-0.224149
H196	H	0.461603	-0.305447	-0.288745
H197	H	0.446989	-0.357746	-0.196570
H198	H	0.446933	-0.320957	-0.131973
H199	H	0.378487	-0.323393	-0.192473
H200	H	1.050612	-1.044988	-0.472607
C201	C	1.247924	-0.953551	-0.275611
C202	C	1.292242	-0.984135	-0.231407
C203	C	1.342918	-0.960760	-0.180863
H204	H	1.217790	-0.935275	-0.241067
H205	H	1.282385	-0.935230	-0.305860
H206	H	1.257786	-1.002448	-0.201161
H207	H	1.322393	-1.002412	-0.265930
H208	H	1.377379	-0.942439	-0.211112
H209	H	1.312777	-0.942485	-0.146325
H210	H	1.372999	-0.981507	-0.150870
H211	H	0.999860	-0.688412	-0.523072
H212	H	1.284423	-0.297219	-0.956196
C213	C	1.298485	-0.835507	-0.225287
C214	C	1.349141	-0.862380	-0.270126
C215	C	1.399880	-0.885854	-0.219797
H216	H	1.268391	-0.853883	-0.190796
H217	H	1.328647	-0.814824	-0.195230
H218	H	1.318981	-0.883061	-0.300170
H219	H	1.379251	-0.844015	-0.304615
H220	H	1.430042	-0.865170	-0.189739
H221	H	1.369780	-0.904226	-0.185308
H222	H	1.434260	-0.904086	-0.250213
C223	C	0.986010	-0.597016	-0.536801
C224	C	0.941724	-0.627614	-0.581019
C225	C	0.891032	-0.604255	-0.631561
H226	H	1.016131	-0.578683	-0.571337
H227	H	0.951530	-0.578754	-0.506550
H228	H	0.976200	-0.645869	-0.611267
H229	H	0.911587	-0.645948	-0.546504
H230	H	0.856552	-0.585992	-0.601310
H231	H	0.921159	-0.585922	-0.666091
H232	H	0.860973	-0.625012	-0.661563
H233	H	1.233867	-0.268522	-0.682595
H234	H	1.050310	-0.472600	-0.472525
H235	H	1.050258	-0.387478	-0.472498
C236	C	1.298182	-0.737613	-0.225021
C237	C	1.253449	-0.710731	-0.174288
C238	C	1.303884	-0.687244	-0.123663
H239	H	1.332614	-0.719244	-0.255193
H240	H	1.328298	-0.758290	-0.194908
H241	H	1.223346	-0.690057	-0.204397
H242	H	1.219019	-0.729089	-0.144098
H243	H	1.334000	-0.707921	-0.093551
H244	H	1.338313	-0.668878	-0.153842
H245	H	1.273540	-0.669005	-0.089230
C246	C	0.986068	-0.737776	-0.536798
C247	C	0.941778	-0.768376	-0.581006
C248	C	0.891067	-0.745021	-0.631533
H249	H	1.016175	-0.719439	-0.571341
H250	H	0.951591	-0.719517	-0.506538
H251	H	0.976251	-0.786628	-0.611264
H252	H	0.911655	-0.786714	-0.546484
H253	H	0.856590	-0.726762	-0.601273
H254	H	0.921181	-0.726685	-0.666071
H255	H	0.861006	-0.765780	-0.661529
