data_functionalizedCrystal
_audit_creation_method	'MofGen! by Chris Wilmer'
_symmetry_space_group_name_H-M	'P1'
_symmetry_Int_Tables_number	1
_symmetry_cell_setting	triclinic
loop_
_symmetry_equiv_pos_as_xyz
  x,y,z
_cell_length_a	10.654562
_cell_length_b	14.853559
_cell_length_c	9.130313
_cell_angle_alpha	90.000938
_cell_angle_beta	89.996930
_cell_angle_gamma	84.060779
loop_
_atom_site_label
_atom_site_type_symbol
_atom_site_fract_x
_atom_site_fract_y
_atom_site_fract_z
O1	O	1.666503	0.126677	-0.121888
O2	O	1.300901	0.138729	-0.121869
O3	O	1.493474	0.001525	-0.121877
O4	O	1.473931	0.263881	-0.121879
O5	O	1.493471	0.001529	0.121721
O6	O	1.300899	0.138733	0.121730
O7	O	1.666501	0.126681	0.121711
Cu8	Cu	1.483700	0.132707	0.143963
Cu9	Cu	1.483702	0.132703	-0.144121
O10	O	1.473929	0.263884	0.121719
C11	C	1.254112	0.137844	-0.000067
C12	C	1.114697	0.135189	-0.000060
C13	C	1.049178	0.133953	0.132714
C14	C	0.918181	0.131465	0.132690
C15	C	0.918234	0.131455	-0.132895
C16	C	1.049229	0.133935	-0.132869
C17	C	1.114645	0.135206	0.265523
C18	C	1.049126	0.133971	0.398308
C19	C	0.918130	0.131484	0.398284
C20	C	0.852653	0.130232	0.265474
C21	C	1.492589	-0.032066	-0.000081
C22	C	1.489941	-0.132165	-0.000089
C23	C	1.478710	-0.555402	-0.132874
C24	C	1.478707	-0.555393	0.132707
C25	C	1.481205	-0.461346	0.132708
C26	C	1.482454	-0.414323	-0.000084
C27	C	1.481204	-0.461347	-0.132877
C28	C	1.482442	-0.414315	0.265499
C29	C	1.484939	-0.320262	0.265505
C30	C	1.486197	-0.273238	0.132711
C31	C	1.484948	-0.320267	-0.000087
C32	C	1.486197	-0.273244	-0.132879
C33	C	1.484958	-0.320273	-0.265679
C34	C	1.482462	-0.414322	-0.265671
C35	C	1.488692	-0.179188	0.132703
C36	C	1.488692	-0.179188	-0.132882
C37	C	1.713291	0.127566	-0.000094
C38	C	1.852705	0.130221	-0.000111
C39	C	1.474813	0.297476	-0.000081
C40	C	1.477461	0.397574	-0.000082
N41	N	1.483707	0.132710	0.346586
N42	N	1.483705	0.132693	-0.346744
C43	C	1.569000	0.071977	0.423234
C44	C	1.568996	0.071966	0.576571
C45	C	1.398403	0.193429	0.576598
C46	C	1.398402	0.193435	0.423263
C47	C	1.654305	0.011252	0.346556
C48	C	1.739605	-0.049486	0.423204
C49	C	1.739602	-0.049496	0.576541
C50	C	1.654298	0.011230	0.653230
H51	H	1.489714	-0.140909	-0.241019
C52	C	1.121145	0.135346	0.544386
H53	H	1.208543	0.137013	0.525388
H54	H	1.109148	0.082461	0.598949
H55	H	1.090182	0.187428	0.598934
C56	C	1.833417	-0.116306	0.660858
H57	H	1.821194	-0.107622	0.763161
H58	H	1.917241	-0.105950	0.635729
H59	H	1.819675	-0.176569	0.635714
H60	H	1.489673	-0.140899	0.240827
C61	C	1.486306	-0.268535	0.411572
H62	H	1.487963	-0.205786	0.392556
H63	H	1.559068	-0.290366	0.466135
H64	H	1.412708	-0.277528	0.466129
H65	H	0.745987	0.128204	0.265465
C66	C	1.833437	-0.116275	0.338854
H67	H	1.821235	-0.107565	0.236556
H68	H	1.819714	-0.176542	0.363966
H69	H	1.917261	-0.105909	0.363990
H70	H	1.654318	0.011257	0.221701
C71	C	1.481080	-0.466040	0.411555
H72	H	1.479436	-0.528790	0.392534
H73	H	1.408315	-0.444218	0.466130
H74	H	1.554675	-0.457039	0.466102
H75	H	1.654294	0.011210	0.778087
H76	H	0.864912	0.130437	-0.241022
H77	H	1.328947	0.242888	0.360856
H78	H	1.477706	-0.593698	-0.240996
C79	C	1.258737	0.137937	0.265556
H80	H	1.288347	0.138500	0.363665
H81	H	1.278903	0.190975	0.216508
H82	H	1.297857	0.086007	0.216530
C83	C	0.846061	0.130123	0.544337
H84	H	0.903816	0.131232	0.623431
H85	H	0.804436	0.076675	0.549860
H86	H	0.785483	0.181643	0.549838
C87	C	1.304560	0.260211	0.660944
H88	H	1.253747	0.296373	0.593333
H89	H	1.349769	0.298048	0.720777
H90	H	1.252241	0.227402	0.720743
C91	C	1.477338	-0.607116	0.278765
H92	H	1.475681	-0.669865	0.259747
H93	H	1.404577	-0.585285	0.333340
H94	H	1.550937	-0.598122	0.333311
H95	H	1.102575	0.134946	-0.240986
H96	H	1.481452	-0.452621	-0.373789
H97	H	1.485965	-0.281973	-0.373798
