data_functionalizedCrystal
_audit_creation_method	'MofGen! by Chris Wilmer'
_symmetry_space_group_name_H-M	'P1'
_symmetry_Int_Tables_number	1
_symmetry_cell_setting	triclinic
loop_
_symmetry_equiv_pos_as_xyz
  x,y,z
_cell_length_a	6.394989
_cell_length_b	17.699083
_cell_length_c	16.776229
_cell_angle_alpha	90.007545
_cell_angle_beta	90.006554
_cell_angle_gamma	84.890363
loop_
_atom_site_label
_atom_site_type_symbol
_atom_site_fract_x
_atom_site_fract_y
_atom_site_fract_z
O1	O	-2.770873	-0.123990	-0.066282
O2	O	-2.270873	0.376010	0.433718
O3	O	-2.162713	-0.130236	-0.066286
O4	O	-1.662713	0.369764	0.433714
O5	O	-2.483975	-0.017099	-0.066277
O6	O	-1.983975	0.482901	0.433723
O7	O	-2.449611	-0.237127	-0.066291
O8	O	-1.949611	0.262873	0.433709
O9	O	-2.483932	-0.017091	0.066300
O10	O	-1.983932	0.482909	0.566300
O11	O	-2.162670	-0.130228	0.066291
O12	O	-1.662670	0.369772	0.566291
O13	O	-2.770830	-0.123982	0.066294
O14	O	-2.270830	0.376018	0.566294
Zn15	Zn	-2.466744	-0.127104	0.087342
Zn16	Zn	-1.966744	0.372896	0.587342
Zn17	Zn	-2.466800	-0.127114	-0.087333
Zn18	Zn	-1.966800	0.372886	0.412667
O19	O	-2.449568	-0.237119	0.066285
O20	O	-1.949568	0.262881	0.566285
C21	C	-2.482722	0.011114	0.000012
C22	C	-1.982722	0.511114	0.500012
C23	C	-2.479028	0.095170	0.000012
C24	C	-1.979028	0.595170	0.500012
C25	C	-2.450821	-0.265332	-0.000005
C26	C	-1.950821	0.234668	0.499995
C27	C	-2.454515	-0.349388	-0.000010
C28	C	-1.954515	0.150612	0.499990
N29	N	-2.466721	-0.127097	0.206553
N30	N	-1.966721	0.372903	0.706553
C31	C	-2.084876	-0.128997	0.000007
C32	C	-1.584876	0.371003	0.500007
C33	C	-1.848661	-0.125223	0.000010
C34	C	-1.348661	0.374777	0.500010
N35	N	-2.466839	-0.127115	-0.206545
N36	N	-1.966839	0.372885	0.293455
C37	C	-2.667602	0.141867	0.000014
C38	C	-2.167602	0.641867	0.500014
C39	C	-2.664119	0.220846	0.000007
C40	C	-2.164119	0.720846	0.500007
C41	C	-2.472059	0.253126	0.000003
C42	C	-1.972059	0.753126	0.500003
C43	C	-2.283471	0.206424	-0.000001
C44	C	-1.783471	0.706424	0.499999
C45	C	-2.286956	0.127446	0.000000
C46	C	-1.786956	0.627446	0.500000
C47	C	-2.269410	0.524930	-0.000008
C48	C	-1.769410	1.024930	0.499992
C49	C	-2.265939	0.603914	-0.000007
C50	C	-1.765939	1.103914	0.499993
C51	C	-2.646572	0.618330	-0.000001
C52	C	-2.146572	1.118330	0.499999
C53	C	-2.650058	0.539352	0.000000
C54	C	-2.150058	1.039352	0.500000
C55	C	-2.461471	0.492657	-0.000008
C56	C	-1.961471	0.992657	0.499992
C57	C	-2.465250	0.407019	-0.000002
C58	C	-1.965250	0.907019	0.499998
C59	C	-2.468278	0.338763	0.000003
C60	C	-1.968278	0.838763	0.500003
C61	C	-2.609019	-0.077021	0.248274
C62	C	-2.109019	0.422979	0.748274
C63	C	-2.609030	-0.077021	0.331726
C64	C	-2.109030	0.422979	0.831726
C65	C	-2.466752	-0.127100	0.373456
C66	C	-1.966752	0.372900	0.873456
C67	C	-2.324439	-0.177178	0.331729
C68	C	-1.824439	0.322822	0.831729
C69	C	-2.324419	-0.177174	0.248279
C70	C	-1.824419	0.322826	0.748279
C71	C	-2.324514	-0.177194	0.668276
C72	C	-1.824514	0.322806	1.168276
C73	C	-2.324550	-0.177195	0.751733
C74	C	-1.824550	0.322805	1.251733
C75	C	-2.609126	-0.077040	0.751724
C76	C	-2.109126	0.422960	1.251724
C77	C	-2.609106	-0.077036	0.668274
C78	C	-2.109106	0.422964	1.168274
C79	C	-2.466786	-0.127111	0.626554
C80	C	-1.966786	0.372889	1.126554
C81	C	-2.466773	-0.127110	0.536066
C82	C	-1.966773	0.372890	1.036066
C83	C	-2.466774	-0.127105	0.463943
C84	C	-1.966774	0.372895	0.963943
H85	H	-2.824000	0.115590	0.000022
H86	H	-2.324000	0.615590	0.500022
Br87	Br	-2.031024	0.064071	-0.000009
Br88	Br	-1.531024	0.564071	0.499991
H89	H	-2.115850	0.486920	-0.000015
H90	H	-1.615850	0.986920	0.499985
Br91	Br	-2.802213	-0.009074	0.611643
Br92	Br	-2.302213	0.490926	1.111643
Br93	Br	-2.131377	-0.245151	0.611661
Br94	Br	-1.631377	0.254849	1.111661
H95	H	-2.817675	0.258863	0.000011
H96	H	-2.317675	0.758863	0.500011
Br97	Br	-2.022814	0.250232	-0.000019
Br98	Br	-1.522814	0.750232	0.499981
Br99	Br	-2.910719	0.495547	0.000005
Br100	Br	-2.410719	0.995547	0.500005
H101	H	-2.724886	-0.036244	0.214303
H102	H	-2.224886	0.463756	0.714303
H103	H	-2.208543	-0.217950	0.214310
H104	H	-1.708543	0.282050	0.714310
H105	H	-2.724899	-0.036245	0.365695
H106	H	-2.224899	0.463755	0.865695
Br107	Br	-2.902519	0.681707	0.000011
Br108	Br	-2.402519	1.181707	0.500011
H109	H	-2.725004	-0.036264	0.785701
H110	H	-2.225004	0.463736	1.285701
Br111	Br	-2.131447	-0.245165	0.808366
Br112	Br	-1.631447	0.254835	1.308366
Br113	Br	-2.131327	-0.245139	0.388359
Br114	Br	-1.631327	0.254861	0.888359
H115	H	-2.109532	0.630193	-0.000008
H116	H	-1.609532	1.130193	0.499992
