data_functionalizedCrystal
_audit_creation_method	'MofGen! by Chris Wilmer'
_symmetry_space_group_name_H-M	'P1'
_symmetry_Int_Tables_number	1
_symmetry_cell_setting	triclinic
loop_
_symmetry_equiv_pos_as_xyz
  x,y,z
_cell_length_a	16.959455
_cell_length_b	19.121063
_cell_length_c	16.959447
_cell_angle_alpha	87.593376
_cell_angle_beta	90.014322
_cell_angle_gamma	92.465894
loop_
_atom_site_label
_atom_site_type_symbol
_atom_site_fract_x
_atom_site_fract_y
_atom_site_fract_z
Zn1	Zn	1.194915	-0.279656	0.460312
Zn2	Zn	1.694915	0.220344	0.960312
Zn3	Zn	1.189180	-0.397117	0.333763
Zn4	Zn	1.689180	0.102883	0.833763
Zn5	Zn	1.062742	-0.279678	0.328150
Zn6	Zn	1.562742	0.220322	0.828150
Zn7	Zn	1.057053	-0.397064	0.465899
Zn8	Zn	1.557053	0.102936	0.965899
O9	O	1.125973	-0.338379	0.397031
O10	O	1.625973	0.161621	0.897031
O11	O	1.304764	-0.295250	0.443535
O12	O	1.804764	0.204750	0.943535
O13	O	1.172389	-0.381570	0.222409
O14	O	1.672389	0.118430	0.722409
O15	O	1.085056	-0.181391	0.340995
O16	O	1.585056	0.318609	0.840995
O17	O	1.300551	-0.381548	0.350560
O18	O	1.800551	0.118452	0.850560
O19	O	1.182163	-0.181375	0.438093
O20	O	1.682163	0.318625	0.938093
O21	O	1.079495	-0.295288	0.218285
O22	O	1.579495	0.204712	0.718285
O23	O	0.951377	-0.295237	0.346412
O24	O	1.451377	0.204763	0.846412
O25	O	1.075360	-0.381459	0.575767
O26	O	1.575360	0.118541	1.075767
O27	O	0.947198	-0.381480	0.447615
O28	O	1.447198	0.118520	0.947615
O29	O	1.176646	-0.295199	0.571662
O30	O	1.676646	0.204801	1.071662
O31	O	1.166873	-0.495394	0.355978
O32	O	1.666873	0.004606	0.855978
O33	O	1.069800	-0.495356	0.453058
O34	O	1.569800	0.004644	0.953058
C35	C	0.920608	-0.338356	0.397012
C36	C	1.420608	0.161644	0.897012
C37	C	0.832751	-0.338363	0.397023
C38	C	1.332751	0.161637	0.897023
C39	C	0.463428	-0.293435	0.344438
C40	C	0.963428	0.206565	0.844438
C41	C	0.459118	-0.383380	0.449672
C42	C	0.959118	0.116620	0.949672
C43	C	0.541664	-0.383370	0.449666
C44	C	1.041664	0.116630	0.949666
C45	C	0.585096	-0.338393	0.397045
C46	C	1.085096	0.161607	0.897045
C47	C	0.545982	-0.293425	0.344430
C48	C	1.045982	0.206575	0.844430
C49	C	0.580784	-0.428342	0.502276
C50	C	1.080784	0.071658	1.002276
C51	C	0.663336	-0.428334	0.502272
C52	C	1.163336	0.071666	1.002272
C53	C	0.706770	-0.383353	0.449654
C54	C	1.206770	0.116647	0.949654
C55	C	0.667650	-0.338383	0.397037
C56	C	1.167650	0.161617	0.897037
C57	C	0.711082	-0.293405	0.344416
C58	C	1.211082	0.206595	0.844416
C59	C	0.671965	-0.248431	0.291802
C60	C	1.171965	0.251569	0.791802
C61	C	0.589416	-0.248444	0.291812
C62	C	1.089416	0.251556	0.791812
C63	C	0.789319	-0.383340	0.449644
C64	C	1.289319	0.116660	0.949644
C65	C	0.793636	-0.293395	0.344407
C66	C	1.293636	0.206605	0.844407
C67	C	1.117118	-0.520859	0.405750
C68	C	1.617118	-0.020859	0.905750
C69	C	1.113402	-0.598924	0.409507
C70	C	1.613402	-0.098924	0.909507
C71	C	1.162236	-0.635597	0.360769
C72	C	1.662236	-0.135597	0.860769
C73	C	1.158746	-0.708948	0.364307
C74	C	1.658746	-0.208948	0.864307
C75	C	1.106417	-0.745625	0.416579
C76	C	1.606417	-0.245625	0.916579
C77	C	1.057581	-0.708948	0.465322
C78	C	1.557581	-0.208948	0.965322
C79	C	1.061076	-0.635598	0.461787
C80	C	1.561076	-0.135598	0.961787
C81	C	1.093339	-0.967094	0.429780
C82	C	1.593339	-0.467094	0.929780
C83	C	1.089847	-1.040449	0.433309
C84	C	1.589847	-0.540449	0.933309
C85	C	1.191013	-1.040443	0.332295
C86	C	1.691013	-0.540443	0.832295
C87	C	1.194500	-0.967092	0.328762
C88	C	1.694500	-0.467092	0.828762
C89	C	1.145667	-0.930421	0.377508
C90	C	1.645667	-0.430421	0.877508
C91	C	1.102847	-0.820602	0.420195
C92	C	1.602847	-0.320602	0.920195
C93	C	1.149242	-0.855446	0.373896
C94	C	1.649242	-0.355446	0.873896
C95	C	1.332140	-0.338403	0.397051
C96	C	1.832140	0.161597	0.897051
C97	C	1.419996	-0.338413	0.397059
C98	C	1.919996	0.161587	0.897059
C99	C	1.126008	-0.338321	0.603196
C100	C	1.626008	0.161679	1.103196
C101	C	1.126024	-0.338296	0.691052
C102	C	1.626024	0.161704	1.191052
C103	C	1.134884	-0.155186	0.388295
C104	C	1.634884	0.344814	0.888295
C105	C	1.138681	-0.077121	0.384572
C106	C	1.638681	0.422879	0.884572
C107	C	1.125985	-0.338386	0.191665
C108	C	1.625985	0.161614	0.691665
C109	C	1.126133	-0.338213	0.103800
C110	C	1.626133	0.161787	0.603800
C111	C	1.073386	-0.383133	1.064664
C112	C	1.573386	0.116867	1.564664
C113	C	1.178857	-0.293311	1.060384
C114	C	1.678857	0.206689	1.560384
C115	C	1.178835	-0.293326	0.977839
C116	C	1.678835	0.206674	1.477839
C117	C	1.126089	-0.338246	0.938703
C118	C	1.626089	0.161754	1.438703
C119	C	1.073365	-0.383151	0.982111
C120	C	1.573365	0.116849	1.482111
C121	C	1.231564	-0.248426	0.934425
C122	C	1.731564	0.251574	1.434425
C123	C	1.231545	-0.248440	0.851875
C124	C	1.731545	0.251560	1.351875
C125	C	1.178794	-0.293357	0.812736
C126	C	1.678794	0.206643	1.312736
C127	C	1.126067	-0.338263	0.856150
C128	C	1.626067	0.161737	1.356150
C129	C	1.073321	-0.383183	0.817013
C130	C	1.573321	0.116817	1.317013
C131	C	1.020590	-0.428087	0.860425
C132	C	1.520590	0.071913	1.360425
C133	C	1.020614	-0.428068	0.942973
C134	C	1.520614	0.071932	1.442973
C135	C	1.178770	-0.293376	0.730189
C136	C	1.678770	0.206624	1.230189
C137	C	1.073299	-0.383201	0.734460
C138	C	1.573299	0.116799	1.234460
H139	H	0.431575	-0.256817	0.301603
H140	H	0.931575	0.243183	0.801603
H141	H	0.423750	-0.420003	0.492509
H142	H	0.923750	0.079997	0.992509
C143	C	1.206800	-0.815099	0.316397
C144	C	1.706800	-0.315099	0.816397
N145	N	1.250150	-0.784703	0.273085
N146	N	1.750150	-0.284703	0.773085
H147	H	0.695178	-0.464954	0.545114
H148	H	1.195178	0.035046	1.045114
C149	C	0.962571	-0.477497	0.817364
C150	C	1.462571	0.022503	1.317364
N151	N	0.918871	-0.514711	0.784927
N152	N	1.418871	-0.014711	1.284927
C153	C	0.962611	-0.477454	0.990731
C154	C	1.462611	0.022546	1.490731
N155	N	0.918923	-0.514650	1.026707
N156	N	1.418923	-0.014650	1.526707
H157	H	0.828993	-0.256764	0.301561
H158	H	1.328993	0.243236	0.801561
C159	C	0.533005	-0.477816	0.560152
C160	C	1.033005	0.022184	1.060152
N161	N	0.497013	-0.515080	0.603748
N162	N	0.997013	-0.015080	1.103748
H163	H	0.821164	-0.419959	0.492479
H164	H	1.321164	0.080041	0.992479
H165	H	1.230772	-1.070309	0.292611
H166	H	1.730772	-0.570309	0.792611
C167	C	1.015379	-0.432520	1.112416
C168	C	1.515379	0.067480	1.612416
N169	N	0.971686	-0.469717	1.148385
N170	N	1.471686	0.030283	1.648385
H171	H	0.707338	-0.211814	0.248954
H172	H	1.207338	0.288186	0.748954
H173	H	1.221804	-0.256743	1.092255
H174	H	1.721804	0.243257	1.592255
H175	H	1.060239	-0.850473	0.462753
H176	H	1.560239	-0.350473	0.962753
C177	C	1.007354	-0.595259	0.515403
C178	C	1.507354	-0.095259	1.015403
N179	N	0.966892	-0.564877	0.555790
N180	N	1.466892	-0.064877	1.055790
H181	H	1.030340	-0.419775	0.702601
H182	H	1.530340	0.080225	1.202601
C183	C	1.000016	-0.749296	0.522819
C184	C	1.500016	-0.249296	1.022819
N185	N	0.956653	-0.779685	0.566123
N186	N	1.456653	-0.279685	1.066123
H187	H	1.204845	-0.605739	0.318201
H188	H	1.704845	-0.105739	0.818201
H189	H	1.047244	-1.070309	0.475889
H190	H	1.547244	-0.570309	0.975889
C191	C	1.289572	-0.199010	0.977480
C192	C	1.789572	0.300990	1.477480
N193	N	1.333261	-0.161784	1.009912
N194	N	1.833261	0.338216	1.509912
H195	H	1.198512	-0.738803	0.324619
H196	H	1.698512	-0.238803	0.824619
C197	C	1.252045	-0.926753	0.271239
C198	C	1.752045	-0.426753	0.771239
N199	N	1.295380	-0.896369	0.227902
N200	N	1.795380	-0.396369	0.727902
C201	C	1.039661	-0.926765	0.483443
C202	C	1.539661	-0.426765	0.983443
N203	N	0.999243	-0.896387	0.523880
N204	N	1.499243	-0.396387	1.023880
H205	H	1.274481	-0.211876	0.816535
H206	H	1.774481	0.288124	1.316535
H207	H	0.557559	-0.211829	0.248975
H208	H	1.057559	0.288171	0.748975
H209	H	1.221705	-0.256818	0.694846
H210	H	1.721705	0.243182	1.194846
