data_functionalizedCrystal
_audit_creation_method	'MofGen! by Chris Wilmer'
_symmetry_space_group_name_H-M	'P1'
_symmetry_Int_Tables_number	1
_symmetry_cell_setting	triclinic
loop_
_symmetry_equiv_pos_as_xyz
  x,y,z
_cell_length_a	14.971486
_cell_length_b	17.038272
_cell_length_c	13.448316
_cell_angle_alpha	89.993314
_cell_angle_beta	89.998199
_cell_angle_gamma	87.362843
loop_
_atom_site_label
_atom_site_type_symbol
_atom_site_fract_x
_atom_site_fract_y
_atom_site_fract_z
O1	O	1.194577	0.101898	-0.082578
O2	O	1.694577	0.601898	0.417422
O3	O	0.935090	0.114100	-0.082605
O4	O	1.435090	0.614100	0.417395
O5	O	1.063291	-0.005818	-0.082584
O6	O	1.563291	0.494182	0.417416
O7	O	1.066375	0.221816	-0.082599
O8	O	1.566375	0.721816	0.417401
O9	O	1.063273	-0.005826	0.082800
O10	O	1.563273	0.494174	0.582800
O11	O	0.935072	0.114093	0.082779
O12	O	1.435072	0.614093	0.582779
O13	O	1.194559	0.101890	0.082806
O14	O	1.694559	0.601890	0.582806
Cu15	Cu	1.064814	0.107991	0.097893
Cu16	Cu	1.564814	0.607991	0.597893
Cu17	Cu	1.064835	0.107999	-0.097692
Cu18	Cu	1.564835	0.607999	0.402308
O19	O	1.066358	0.221809	0.082785
O20	O	1.566358	0.721809	0.582785
C21	C	0.901716	0.113551	0.000083
C22	C	1.401716	0.613551	0.500083
C23	C	0.802296	0.111915	0.000073
C24	C	1.302296	0.611915	0.500073
C25	C	0.750345	0.182364	0.000070
C26	C	1.250345	0.682364	0.500070
C27	C	0.656930	0.180823	0.000085
C28	C	1.156930	0.680823	0.500085
C29	C	0.615468	0.108832	0.000096
C30	C	1.115468	0.608832	0.500096
C31	C	0.667426	0.038378	0.000102
C32	C	1.167426	0.538378	0.500102
C33	C	0.760839	0.039920	0.000095
C34	C	1.260839	0.539920	0.500095
C35	C	0.472723	0.035169	0.000116
C36	C	0.972723	0.535169	0.500116
C37	C	0.379303	0.033626	0.000122
C38	C	0.879303	0.533626	0.500122
C39	C	0.368815	0.176072	0.000107
C40	C	0.868815	0.676072	0.500107
C41	C	0.462228	0.177614	0.000099
C42	C	0.962228	0.677614	0.500099
C43	C	0.514179	0.107159	0.000103
C44	C	1.014179	0.607159	0.500103
C45	C	1.060477	-0.034954	0.000108
C46	C	1.560477	0.465046	0.500108
C47	C	1.052107	-0.121756	0.000107
C48	C	1.552107	0.378244	0.500107
C49	C	1.128951	-0.171781	0.000116
C50	C	1.628951	0.328219	0.500116
C51	C	1.121081	-0.253341	0.000105
C52	C	1.621081	0.246659	0.500105
C53	C	1.036367	-0.284874	0.000093
C54	C	1.536367	0.215126	0.500093
C55	C	0.959518	-0.234843	0.000081
C56	C	1.459518	0.265157	0.500081
C57	C	0.967388	-0.153285	0.000084
C58	C	1.467388	0.346715	0.500084
C59	C	1.008563	-0.530664	0.000077
C60	C	1.508563	-0.030664	0.500077
C61	C	1.000698	-0.612229	0.000077
C62	C	1.500698	-0.112229	0.500077
C63	C	1.162262	-0.630721	0.000099
C64	C	1.662262	-0.130721	0.500099
C65	C	1.170125	-0.549161	0.000108
C66	C	1.670125	-0.049161	0.500108
C67	C	1.093276	-0.499137	0.000091
C68	C	1.593276	0.000863	0.500091
C69	C	1.028321	-0.368241	0.000086
C70	C	1.528321	0.131759	0.500086
C71	C	1.101323	-0.415771	0.000091
C72	C	1.601323	0.084229	0.500091
C73	C	1.227933	0.102440	0.000115
C74	C	1.727933	0.602440	0.500115
C75	C	1.327353	0.104075	0.000119
C76	C	1.827353	0.604075	0.500119
C77	C	1.069172	0.250944	0.000091
C78	C	1.569172	0.750944	0.500091
C79	C	1.077542	0.337746	0.000086
C80	C	1.577542	0.837746	0.500086
N81	N	1.064806	0.107984	0.235458
N82	N	1.564806	0.607984	0.735458
N83	N	1.064850	0.108000	-0.235257
N84	N	1.564850	0.608000	0.264743
C85	C	1.121593	0.054906	0.287507
C86	C	1.621593	0.554906	0.787507
C87	C	1.121599	0.054905	0.391611
C88	C	1.621599	0.554905	0.891611
C89	C	1.064821	0.107987	0.443662
C90	C	1.564821	0.607987	0.943662
C91	C	1.008026	0.161068	0.391605
C92	C	1.508026	0.661068	0.891605
C93	C	1.008017	0.161064	0.287504
C94	C	1.508017	0.661064	0.787504
C95	C	1.008052	0.161073	0.608585
C96	C	1.508052	0.661073	1.108585
C97	C	1.008062	0.161078	0.712694
C98	C	1.508062	0.661078	1.212694
C99	C	1.121634	0.054914	0.712692
C100	C	1.621634	0.554914	1.212692
C101	C	1.121624	0.054911	0.608591
C102	C	1.621624	0.554911	1.108591
C103	C	1.064831	0.107992	0.556541
C104	C	1.564831	0.607992	1.056541
H105	H	0.495983	0.236235	0.000080
H106	H	0.995983	0.736235	0.500080
H107	H	0.326511	0.233438	0.000107
H108	H	0.826511	0.733438	0.500107
H109	H	0.614636	0.238189	0.000081
H110	H	1.114636	0.738189	0.500081
H111	H	0.961773	0.204284	0.245126
H112	H	1.461773	0.704284	0.745126
F113	F	0.885600	-0.100045	0.000072
F114	F	1.385600	0.399955	0.500072
F115	F	0.947593	0.217558	0.447003
F116	F	1.447593	0.717558	0.947003
F117	F	1.182038	-0.001587	0.447006
F118	F	1.682038	0.498413	0.947006
H119	H	1.183656	-0.294068	0.000115
H120	H	1.683656	0.205932	0.500115
H121	H	0.345548	-0.024995	0.000133
H122	H	0.845548	0.475005	0.500133
F123	F	1.182059	-0.001579	0.553193
F124	F	1.682059	0.498421	1.053193
F125	F	0.794464	0.258988	0.000051
F126	F	1.294464	0.758988	0.500051
F127	F	1.191479	-0.382209	0.000098
F128	F	1.691479	0.117791	0.500098
F129	F	1.182078	-0.001578	0.768091
F130	F	1.682078	0.498422	1.268091
H131	H	0.961826	0.204302	0.755069
H132	H	1.461826	0.704302	1.255069
H133	H	0.633660	-0.020239	0.000126
H134	H	1.133660	0.479761	0.500126
F135	F	0.947602	0.217567	0.553194
F136	F	1.447602	0.717567	1.053194
H137	H	0.515019	-0.022203	0.000121
H138	H	1.015019	0.477797	0.500121
F139	F	1.260290	-0.515607	0.000096
F140	F	1.760290	-0.015607	0.500096
H141	H	0.959346	-0.393925	0.000078
H142	H	1.459346	0.106075	0.500078
F143	F	0.816129	-0.035062	0.000102
F144	F	1.316129	0.464938	0.500102
F145	F	1.244045	-0.683965	0.000116
F146	F	1.744045	-0.183965	0.500116
H147	H	1.197934	-0.146113	0.000132
H148	H	1.697934	0.353887	0.500132
H149	H	0.931710	-0.637900	0.000083
H150	H	1.431710	-0.137900	0.500083
F151	F	0.926771	-0.477435	0.000056
F152	F	1.426771	0.022565	0.500056
F153	F	0.869358	-0.268405	0.000057
F154	F	1.369358	0.231595	0.500057
F155	F	1.182031	-0.001588	0.232120
F156	F	1.682031	0.498412	0.732120
