data_functionalizedCrystal
_audit_creation_method	'MofGen! by Chris Wilmer'
_symmetry_space_group_name_H-M	'P1'
_symmetry_Int_Tables_number	1
_symmetry_cell_setting	triclinic
loop_
_symmetry_equiv_pos_as_xyz
  x,y,z
_cell_length_a	16.992694
_cell_length_b	16.956995
_cell_length_c	13.930277
_cell_angle_alpha	89.998787
_cell_angle_beta	90.001555
_cell_angle_gamma	96.638653
loop_
_atom_site_label
_atom_site_type_symbol
_atom_site_fract_x
_atom_site_fract_y
_atom_site_fract_z
O1	O	-1.029481	0.168385	-0.079699
O2	O	-0.529481	0.668385	0.420301
O3	O	-0.801316	0.166538	-0.079727
O4	O	-0.301316	0.666538	0.420273
O5	O	-0.929105	0.052256	-0.079714
O6	O	-0.429105	0.552256	0.420286
O7	O	-0.901692	0.282667	-0.079712
O8	O	-0.401692	0.782667	0.420288
O9	O	-0.929089	0.052253	0.079948
O10	O	-0.429089	0.552253	0.579948
O11	O	-0.801299	0.166534	0.079935
O12	O	-0.301299	0.666534	0.579935
O13	O	-1.029465	0.168382	0.079963
O14	O	-0.529465	0.668382	0.579963
Zn15	Zn	-0.915380	0.167457	0.105299
Zn16	Zn	-0.415380	0.667457	0.605299
Zn17	Zn	-0.915401	0.167462	-0.105063
Zn18	Zn	-0.415401	0.667462	0.394937
O19	O	-0.901675	0.282663	0.079950
O20	O	-0.401675	0.782663	0.579950
C21	C	-0.772249	0.164160	0.000100
C22	C	-0.272249	0.664160	0.500100
C23	C	-0.685664	0.157069	0.000089
C24	C	-0.185664	0.657069	0.500089
C25	C	-0.930501	0.022636	0.000114
C26	C	-0.430501	0.522636	0.500114
C27	C	-0.934674	-0.065618	0.000106
C28	C	-0.434674	0.434382	0.500106
C29	C	-1.058532	0.170760	0.000134
C30	C	-0.558532	0.670760	0.500134
C31	C	-1.145116	0.177851	0.000139
C32	C	-0.645116	0.677851	0.500139
C33	C	-0.900280	0.312283	0.000120
C34	C	-0.400280	0.812283	0.500120
C35	C	-0.896107	0.400538	0.000121
C36	C	-0.396107	0.900538	0.500121
C37	C	-0.630990	0.225484	0.000091
C38	C	-0.130990	0.725484	0.500091
C39	C	-0.549635	0.218817	0.000104
C40	C	-0.049635	0.718817	0.500104
C41	C	-0.522957	0.143734	0.000108
C42	C	-0.022957	0.643734	0.500108
C43	C	-0.577638	0.075314	0.000110
C44	C	-0.077638	0.575314	0.500110
C45	C	-0.658991	0.081982	0.000104
C46	C	-0.158991	0.581982	0.500104
C47	C	-0.281150	0.116098	0.000134
C48	C	0.218850	0.616098	0.500134
C49	C	-0.199791	0.109436	0.000137
C50	C	0.300209	0.609436	0.500137
C51	C	-0.171794	0.252939	0.000133
C52	C	0.328206	0.752939	0.500133
C53	C	-0.253149	0.259600	0.000121
C54	C	0.246851	0.759600	0.500121
C55	C	-0.307823	0.191180	0.000127
C56	C	0.192177	0.691180	0.500127
N57	N	-0.439800	0.136917	0.000119
N58	N	0.060200	0.636917	0.500119
N59	N	-0.390979	0.197998	0.000124
N60	N	0.109021	0.697998	0.500124
N61	N	-0.915370	0.167454	0.248865
N62	N	-0.415370	0.667454	0.748865
C63	C	-0.864889	0.897849	0.000102
C64	C	-0.364889	1.397849	0.500102
C65	C	-0.868816	0.814924	0.000110
C66	C	-0.368816	1.314924	0.500110
C67	C	-0.942529	0.768533	0.000116
C68	C	-0.442529	1.268533	0.500116
C69	C	-1.012319	0.805071	0.000123
C70	C	-0.512319	1.305071	0.500123
C71	C	-1.008391	0.887995	0.000122
C72	C	-0.508391	1.387995	0.500122
C73	C	-0.961969	0.519999	0.000127
C74	C	-0.461969	1.019999	0.500127
C75	C	-0.965892	0.437071	0.000126
C76	C	-0.465892	0.937071	0.500126
C77	C	-0.822388	0.446929	0.000115
C78	C	-0.322388	0.946929	0.500115
C79	C	-0.818467	0.529854	0.000107
C80	C	-0.318467	1.029854	0.500107
C81	C	-0.888257	0.566385	0.000120
C82	C	-0.388257	1.066385	0.500120
N83	N	-0.946544	0.683770	0.000122
N84	N	-0.446544	1.183770	0.500122
N85	N	-0.884241	0.651146	0.000121
N86	N	-0.384241	1.151146	0.500121
N87	N	-0.915417	0.167460	-0.248629
N88	N	-0.415417	0.667460	0.251371
C89	C	-0.858815	0.218045	0.701128
C90	C	-0.358815	0.718045	1.201128
C91	C	-0.972009	0.116875	0.701109
C92	C	-0.472009	0.616875	1.201109
C93	C	-0.972000	0.116872	0.600614
C94	C	-0.472000	0.616872	1.100614
C95	C	-0.915398	0.167457	0.550371
C96	C	-0.415398	0.667457	1.050371
C97	C	-0.858806	0.218045	0.600623
C98	C	-0.358806	0.718045	1.100623
C99	C	-1.028596	0.066290	0.550353
C100	C	-0.528596	0.566290	1.050353
C101	C	-1.028590	0.066286	0.449851
C102	C	-0.528590	0.566286	0.949851
C103	C	-0.971984	0.116867	0.399607
C104	C	-0.471984	0.616867	0.899607
C105	C	-0.915389	0.167457	0.449866
C106	C	-0.415389	0.667457	0.949866
C107	C	-0.858787	0.218042	0.399623
C108	C	-0.358787	0.718042	0.899623
C109	C	-0.802188	0.268628	0.449880
C110	C	-0.302188	0.768628	0.949880
C111	C	-0.802200	0.268626	0.550379
C112	C	-0.302200	0.768626	1.050379
C113	C	-0.971972	0.116869	0.299108
C114	C	-0.471972	0.616869	0.799108
C115	C	-0.858778	0.218042	0.299118
C116	C	-0.358778	0.718042	0.799118
H117	H	-0.652704	0.286624	0.000086
H118	H	-0.152704	0.786624	0.500086
H119	H	-1.018797	0.549733	0.000135
H120	H	-0.518797	1.049733	0.500135
H121	H	-0.765569	0.417177	0.000106
H122	H	-0.265569	0.917177	0.500106
H123	H	-1.025921	0.399300	0.000124
H124	H	-0.525921	0.899300	0.500124
H125	H	-0.756106	0.309818	0.408960
H126	H	-0.256106	0.809818	0.908960
C127	C	-1.090856	0.010661	0.394573
C128	C	-0.590856	0.510661	0.894573
H129	H	-1.082752	0.017912	0.327523
H130	H	-0.582752	0.517912	0.827523
H131	H	-1.085835	-0.042890	0.411038
H132	H	-0.585835	0.457110	0.911038
H133	H	-1.142403	0.022661	0.411043
H134	H	-0.642403	0.522661	0.911043
H135	H	-0.811990	0.785183	0.000100
H136	H	-0.311990	1.285183	0.500100
C137	C	-0.111652	0.328194	0.000138
C138	C	0.388348	0.828194	0.500138
H139	H	-0.059380	0.313472	0.000151
H140	H	0.440620	0.813472	0.500151
H141	H	-0.119230	0.358771	-0.055538
H142	H	0.380770	0.858771	0.444462
H143	H	-0.119237	0.358762	0.055824
H144	H	0.380763	0.858762	0.555824
H145	H	-1.065217	0.917738	0.000127
H146	H	-0.565217	1.417738	0.500127
C147	C	-0.341281	0.040839	0.000134
C148	C	0.158719	0.540839	0.500134
H149	H	-0.313738	-0.004830	0.000128
H150	H	0.186262	0.495170	0.500128
H151	H	-0.373600	0.040454	0.055810
H152	H	0.126400	0.540454	0.555810
H153	H	-0.373598	0.040456	-0.055552
H154	H	0.126402	0.540456	0.444448
H155	H	-0.812683	0.259232	0.258216
H156	H	-0.312683	0.759232	0.758216
C157	C	-0.548294	-0.007275	0.000113
C158	C	-0.048294	0.492725	0.500113
H159	H	-0.492012	-0.001449	0.000107
H160	H	0.007988	0.498551	0.500107
H161	H	-0.567379	-0.035666	0.055789
H162	H	-0.067379	0.464334	0.555789
H163	H	-0.567379	-0.035659	-0.055573
H164	H	-0.067379	0.464341	0.444427
C165	C	-0.796541	0.273665	0.756400
C166	C	-0.296541	0.773665	1.256400
H167	H	-0.762823	0.303780	0.712081
H168	H	-0.262823	0.803780	1.212081
H169	H	-0.822462	0.308537	0.795618
H170	H	-0.322462	0.808537	1.295618
H171	H	-0.765900	0.242981	0.795592
H172	H	-0.265900	0.742981	1.295592
H173	H	-1.018058	0.075686	0.258193
H174	H	-0.518058	0.575686	0.758193
C175	C	-1.034266	0.061237	0.756373
C176	C	-0.534266	0.561237	1.256373
H177	H	-1.026163	0.068479	0.823425
H178	H	-0.526163	0.568479	1.323425
H179	H	-1.085816	0.073209	0.739893
H180	H	-0.585816	0.573209	1.239893
H181	H	-1.029214	0.007688	0.739910
H182	H	-0.529214	0.507688	1.239910
C183	C	-0.489494	0.294071	0.000096
C184	C	0.010506	0.794071	0.500096
H185	H	-0.437222	0.279349	0.000110
H186	H	0.062778	0.779349	0.500110
H187	H	-0.497073	0.324640	-0.055587
H188	H	0.002927	0.824640	0.444413
H189	H	-0.497075	0.324648	0.055775
H190	H	0.002925	0.824648	0.555775
H191	H	-1.072337	0.767293	0.000134
H192	H	-0.572337	1.267293	0.500134
H193	H	-0.756120	0.309813	0.591304
H194	H	-0.256120	0.809813	1.091304
C195	C	-0.282490	0.342191	0.000129
C196	C	0.217510	0.842191	0.500129
H197	H	-0.238275	0.381983	0.000143
H198	H	0.261725	0.881983	0.500143
H199	H	-0.313645	0.347780	-0.055547
H200	H	0.186355	0.847780	0.444453
H201	H	-0.313643	0.347768	0.055815
H202	H	0.186357	0.847768	0.555815
H203	H	-0.178074	0.048291	0.000140
H204	H	0.321926	0.548291	0.500140
H205	H	-0.758442	0.567620	0.000100
H206	H	-0.258442	1.067620	0.500100
H207	H	-1.074683	0.025109	0.591264
H208	H	-0.574683	0.525109	1.091264
H209	H	-0.804864	0.935615	0.000093
H210	H	-0.304864	1.435615	0.500093
C211	C	-0.719133	0.006726	0.000092
C212	C	-0.219133	0.506726	0.500092
H213	H	-0.691594	-0.038946	0.000086
H214	H	-0.191594	0.461054	0.500086
H215	H	-0.751455	0.006341	0.055766
H216	H	-0.251455	0.506341	0.555766
H217	H	-0.751446	0.006348	-0.055597
H218	H	-0.251446	0.506348	0.444403
