data_functionalizedCrystal
_audit_creation_method	'MofGen! by Chris Wilmer'
_symmetry_space_group_name_H-M	'P1'
_symmetry_Int_Tables_number	1
_symmetry_cell_setting	triclinic
loop_
_symmetry_equiv_pos_as_xyz
  x,y,z
_cell_length_a	19.288840
_cell_length_b	23.532357
_cell_length_c	17.766277
_cell_angle_alpha	89.988084
_cell_angle_beta	89.983415
_cell_angle_gamma	82.977153
loop_
_atom_site_label
_atom_site_type_symbol
_atom_site_fract_x
_atom_site_fract_y
_atom_site_fract_z
O1	O	0.921130	0.070979	-0.062729
O2	O	1.421130	0.570979	0.437271
O3	O	0.718835	0.080578	-0.062704
O4	O	1.218835	0.580578	0.437296
O5	O	0.826101	-0.007143	-0.062702
O6	O	1.326101	0.492857	0.437298
O7	O	0.813864	0.158700	-0.062731
O8	O	1.313864	0.658700	0.437269
O9	O	0.826082	-0.007147	0.062487
O10	O	1.326082	0.492853	0.562487
O11	O	0.718816	0.080574	0.062484
O12	O	1.218816	0.580574	0.562484
O13	O	0.921111	0.070975	0.062460
O14	O	1.421111	0.570975	0.562460
Cu15	Cu	0.819962	0.075774	0.073903
Cu16	Cu	1.319962	0.575774	0.573903
Cu17	Cu	0.819984	0.075779	-0.074147
Cu18	Cu	1.319984	0.575779	0.425853
O19	O	0.813845	0.158696	0.062457
O20	O	1.313845	0.658696	0.562457
C21	C	0.692950	0.080269	-0.000106
C22	C	1.192950	0.580269	0.499894
C23	C	0.615848	0.079349	-0.000096
C24	C	1.115848	0.579349	0.499904
C25	C	0.579657	0.078910	-0.068338
C26	C	1.079657	0.578910	0.431662
C27	C	0.507212	0.078039	-0.068347
C28	C	1.007212	0.578039	0.431653
C29	C	0.470965	0.077596	-0.000110
C30	C	0.970965	0.577596	0.499890
C31	C	0.507165	0.078039	0.068141
C32	C	1.007165	0.578039	0.568141
C33	C	0.579607	0.078916	0.068148
C34	C	1.079607	0.578916	0.568148
C35	C	0.361744	0.042847	0.052164
C36	C	0.861744	0.542847	0.552164
C37	C	0.289304	0.041967	0.052154
C38	C	0.789304	0.541967	0.552154
C39	C	0.247530	0.074895	-0.000130
C40	C	0.747530	0.574895	0.499870
C41	C	0.278206	0.108696	-0.052416
C42	C	0.778206	0.608696	0.447584
C43	C	0.350648	0.109573	-0.052409
C44	C	0.850648	0.609573	0.447591
C45	C	0.392414	0.076646	-0.000111
C46	C	0.892414	0.576646	0.499889
C47	C	0.132786	0.073512	-0.068386
C48	C	0.632786	0.573512	0.431614
C49	C	0.060340	0.072645	-0.068392
C50	C	0.560340	0.572645	0.431608
C51	C	0.060295	0.072639	0.068098
C52	C	0.560295	0.572639	0.568098
C53	C	0.132739	0.073513	0.068102
C54	C	0.632739	0.573513	0.568102
C55	C	0.168980	0.073946	-0.000142
C56	C	0.668980	0.573946	0.499858
C57	C	0.825785	-0.028362	-0.000105
C58	C	1.325785	0.471638	0.499895
C59	C	0.824865	-0.091583	-0.000098
C60	C	1.324865	0.408417	0.499902
C61	C	0.819098	-0.483603	-0.068378
C62	C	1.319098	0.016397	0.431622
C63	C	0.818223	-0.543004	-0.068382
C64	C	1.318223	-0.043004	0.431618
O65	O	0.817756	-0.573720	-0.126418
O66	O	1.317756	-0.073720	0.373582
N67	N	0.817779	-0.572719	-0.000143
N68	N	1.317779	-0.072719	0.499857
C69	C	0.818203	-0.543028	0.068105
C70	C	1.318203	-0.043028	0.568105
O71	O	0.817744	-0.573757	0.126148
O72	O	1.317744	-0.073757	0.626148
C73	C	0.819073	-0.483628	0.068108
C74	C	1.319073	0.016372	0.568108
C75	C	0.819524	-0.453917	-0.000135
C76	C	1.319524	0.046083	0.499865
C77	C	0.819548	-0.453892	-0.136616
C78	C	1.319548	0.046108	0.363384
C79	C	0.820424	-0.394495	-0.136612
C80	C	1.320424	0.105505	0.363388
C81	C	0.820850	-0.364809	-0.068369
C82	C	1.320850	0.135191	0.431631
C83	C	0.820400	-0.394520	-0.000131
C84	C	1.320400	0.105480	0.499869
C85	C	0.819492	-0.453938	0.136356
C86	C	1.319492	0.046062	0.636356
C87	C	0.820361	-0.394533	0.136353
C88	C	1.320361	0.105467	0.636353
C89	C	0.820812	-0.364822	0.068109
C90	C	1.320812	0.135178	0.568109
C91	C	0.821702	-0.305437	0.068116
C92	C	1.321702	0.194563	0.568116
N93	N	0.822146	-0.275722	-0.000123
N94	N	1.322146	0.224278	0.499877
C95	C	0.821720	-0.305409	-0.068366
C96	C	1.321720	0.194591	0.431634
C97	C	0.816375	-0.667773	0.068093
C98	C	1.316375	-0.167773	0.568093
C99	C	0.815511	-0.727174	0.068090
C100	C	1.315511	-0.227174	0.568090
C101	C	0.815530	-0.727145	-0.068398
C102	C	1.315530	-0.227145	0.431602
C103	C	0.816399	-0.667745	-0.068394
C104	C	1.316399	-0.167745	0.431606
C105	C	0.816819	-0.638059	-0.000147
C106	C	1.316819	-0.138059	0.499853
C107	C	0.823560	-0.180671	-0.068351
C108	C	1.323560	0.319329	0.431649
C109	C	0.824439	-0.121269	-0.068341
C110	C	1.324439	0.378731	0.431659
C111	C	0.824416	-0.121302	0.068146
C112	C	1.324416	0.378698	0.568146
C113	C	0.823541	-0.180699	0.068136
C114	C	1.323541	0.319301	0.568136
C115	C	0.823111	-0.210382	-0.000119
C116	C	1.323111	0.289618	0.499881
O117	O	0.822167	-0.274684	0.126122
O118	O	1.322167	0.225316	0.626122
O119	O	0.822169	-0.274672	-0.126399
O120	O	1.322169	0.225328	0.373601
C121	C	0.946996	0.071283	-0.000140
C122	C	1.446996	0.571283	0.499860
C123	C	1.024098	0.072203	-0.000155
C124	C	1.524098	0.572203	0.499845
C125	C	0.814161	0.179915	-0.000141
C126	C	1.314161	0.679915	0.499859
C127	C	0.815081	0.243135	-0.000153
C128	C	1.315081	0.743135	0.499847
N129	N	0.819951	0.075770	0.178033
N130	N	1.319951	0.575770	0.678033
N131	N	0.820000	0.075778	-0.178278
N132	N	1.320000	0.575778	0.321722
C133	C	0.867464	0.036946	0.217421
C134	C	1.367464	0.536946	0.717421
C135	C	0.867468	0.036943	0.296223
C136	C	1.367468	0.536943	0.796223
C137	C	0.819966	0.075774	0.335634
C138	C	1.319966	0.575774	0.835634
C139	C	0.772445	0.114601	0.296236
C140	C	1.272445	0.614601	0.796236
C141	C	0.772437	0.114599	0.217436
C142	C	1.272437	0.614599	0.717436
C143	C	0.810496	0.127667	0.460463
C144	C	1.310496	0.627667	0.960463
C145	C	0.810508	0.127670	0.539262
C146	C	1.310508	0.627670	1.039262
C147	C	0.819985	0.075781	0.578680
C148	C	1.319985	0.575781	1.078680
C149	C	0.829464	0.023887	0.539289
C150	C	1.329464	0.523887	1.039289
C151	C	0.829457	0.023884	0.460489
C152	C	1.329457	0.523884	0.960489
C153	C	0.819968	0.075781	0.421079
C154	C	1.319968	0.575781	0.921079
C155	C	0.867504	0.036951	0.703514
C156	C	1.367504	0.536951	1.203514
C157	C	0.867503	0.036948	0.782317
C158	C	1.367503	0.536948	1.282317
C159	C	0.772483	0.114611	0.782329
C160	C	1.272483	0.614611	1.282329
C161	C	0.772481	0.114609	0.703527
C162	C	1.272481	0.614609	1.203527
C163	C	0.819995	0.075780	0.664124
C164	C	1.319995	0.575780	1.164124
H165	H	0.162295	0.073871	-0.123955
H166	H	0.662295	0.573871	0.376045
H167	H	0.824808	-0.097081	-0.123915
H168	H	1.324808	0.402919	0.376085
C169	C	0.818988	-0.486606	0.211425
C170	C	1.318988	0.013394	0.711425
H171	H	0.819357	-0.460409	0.252062
H172	H	1.319357	0.039591	0.752062
H173	H	0.859155	-0.514233	0.214271
H174	H	1.359155	-0.014233	0.714271
H175	H	0.778128	-0.505320	0.214263
H176	H	1.278128	-0.005320	0.714263
H177	H	0.395752	0.016031	0.094744
H178	H	0.895752	0.516031	0.594744
C179	C	0.467289	0.077595	0.143199
C180	C	0.967289	0.577595	0.643199
H181	H	0.418960	0.077018	0.133422
H182	H	0.918960	0.577018	0.633422
H183	H	0.473626	0.110956	0.171197
H184	H	0.973626	0.610956	0.671197
H185	H	0.484672	0.044542	0.171282
H186	H	0.984672	0.544542	0.671282
C187	C	0.720180	0.157305	0.339581
C188	C	1.220180	0.657305	0.839581
H189	H	0.691874	0.180421	0.304834
H190	H	1.191874	0.680421	0.804834
H191	H	0.744983	0.180965	0.370310
H192	H	1.244983	0.680965	0.870310
H193	H	0.691422	0.136865	0.370332
H194	H	1.191422	0.636865	0.870332
C195	C	0.720176	0.157311	0.174107
C196	C	1.220176	0.657311	0.674107
H197	H	0.691888	0.180440	0.208862
H198	H	1.191888	0.680440	0.708862
H199	H	0.691410	0.136887	0.143382
H200	H	1.191410	0.636887	0.643382
H201	H	0.744996	0.180967	0.143354
H202	H	1.244996	0.680967	0.643354
C203	C	0.800066	0.184747	0.417107
C204	C	1.300066	0.684747	0.917107
H205	H	0.801411	0.177314	0.364536
H206	H	1.301411	0.677314	0.864536
H207	H	0.836230	0.206988	0.429996
H208	H	1.336230	0.706988	0.929996
H209	H	0.756110	0.205148	0.430035
H210	H	1.256110	0.705148	0.930035
H211	H	0.030873	0.072291	-0.123966
H212	H	0.530873	0.572291	0.376034
H213	H	0.609074	0.079274	0.123720
H214	H	1.109074	0.579274	0.623720
C215	C	0.823106	-0.213316	-0.143430
C216	C	1.323106	0.286684	0.356570
H217	H	0.823510	-0.187108	-0.184064
H218	H	1.323510	0.312892	0.315936
H219	H	0.782260	-0.232039	-0.146283
H220	H	1.282260	0.267961	0.353717
H221	H	0.863287	-0.240936	-0.146264
H222	H	1.363287	0.259064	0.353736
H223	H	0.609160	0.079263	-0.123908
H224	H	1.109160	0.579263	0.376092
C225	C	0.255566	0.004778	0.109652
C226	C	0.755566	0.504778	0.609652
H227	H	0.206442	0.008962	0.102150
H228	H	0.706442	0.508962	0.602150
H229	H	0.265457	0.016642	0.159196
H230	H	0.765457	0.516642	0.659196
H231	H	0.273981	-0.034224	0.103066
H232	H	0.773981	0.465776	0.603066
C233	C	0.820917	-0.361818	-0.211679
C234	C	1.320917	0.138182	0.288321
H235	H	0.821503	-0.322189	-0.201913
H236	H	1.321503	0.177811	0.298087
H237	H	0.780268	-0.367098	-0.239714
H238	H	1.280268	0.132902	0.260286
H239	H	0.861295	-0.376006	-0.239719
H240	H	1.361295	0.123994	0.260281
C241	C	0.467392	0.077561	-0.143416
C242	C	0.967392	0.577561	0.356584
H243	H	0.499352	0.077944	-0.184058
H244	H	0.999352	0.577944	0.315942
H245	H	0.433594	0.110425	-0.146258
H246	H	0.933594	0.610425	0.353742
H247	H	0.444674	0.044011	-0.146250
H248	H	0.944674	0.544011	0.353750
H249	H	0.816719	-0.643607	0.123671
H250	H	1.316719	-0.143607	0.623671
C251	C	0.720232	0.157324	0.825671
C252	C	1.220232	0.657324	1.325671
H253	H	0.727043	0.151767	0.878244
H254	H	1.227043	0.651767	1.378244
H255	H	0.673920	0.151240	0.812778
H256	H	1.173920	0.651240	1.312778
H257	H	0.727506	0.195320	0.812742
H258	H	1.227506	0.695320	1.312742
H259	H	0.819199	-0.478056	-0.192191
H260	H	1.319199	0.021944	0.307809
C261	C	0.720231	0.157325	0.660195
C262	C	1.220231	0.657325	1.160195
H263	H	0.727028	0.151762	0.607620
H264	H	1.227028	0.651762	1.107620
H265	H	0.727508	0.195318	0.673097
H266	H	1.227508	0.695318	1.173097
H267	H	0.673916	0.151242	0.673126
H268	H	1.173916	0.651242	1.173126
C269	C	0.816889	-0.635068	-0.143461
C270	C	1.316889	-0.135068	0.356539
H271	H	0.816507	-0.661260	-0.184101
H272	H	1.316507	-0.161260	0.315899
H273	H	0.857737	-0.616345	-0.146306
H274	H	1.357737	-0.116345	0.353694
H275	H	0.776710	-0.607445	-0.146295
H276	H	1.276710	-0.107445	0.353705
H277	H	0.815180	-0.751326	-0.123965
H278	H	1.315180	-0.251326	0.376035
H279	H	0.802794	0.169926	0.571328
H280	H	1.302794	0.669926	1.071328
C281	C	0.823047	-0.213382	0.143202
C282	C	1.323047	0.286618	0.643202
H283	H	0.823423	-0.187192	0.183845
H284	H	1.323423	0.312808	0.683845
H285	H	0.863211	-0.241014	0.146038
H286	H	1.363211	0.258986	0.646038
H287	H	0.782184	-0.232093	0.146039
H288	H	1.282184	0.267907	0.646039
H289	H	0.815154	-0.751360	0.123661
H290	H	1.315154	-0.251360	0.623661
C291	C	0.824881	-0.088639	0.143208
C292	C	1.324881	0.411361	0.643208
H293	H	0.825458	-0.049007	0.133430
H294	H	1.325458	0.450993	0.633430
H295	H	0.865241	-0.102828	0.171251
H296	H	1.365241	0.397172	0.671251
H297	H	0.784214	-0.093923	0.171245
H298	H	1.284214	0.406077	0.671245
C299	C	0.919720	-0.005770	0.174082
C300	C	1.419720	0.494230	0.674082
H301	H	0.948013	-0.028897	0.208831
H302	H	1.448013	0.471103	0.708831
H303	H	0.948483	0.014651	0.143319
H304	H	1.448483	0.514651	0.643319
H305	H	0.894896	-0.029429	0.143365
H306	H	1.394896	0.470571	0.643365
H307	H	0.030783	0.072283	0.123657
H308	H	0.530783	0.572283	0.623657
H309	H	0.375620	0.137096	-0.094981
H310	H	0.875620	0.637096	0.405019
H311	H	0.906191	0.005332	0.671431
H312	H	1.406191	0.505332	1.171431
C313	C	0.232266	0.144929	-0.109924
C314	C	0.732266	0.644929	0.390076
H315	H	0.260910	0.165182	-0.141062
H316	H	0.760910	0.665182	0.358938
H317	H	0.199528	0.171410	-0.084037
H318	H	0.699528	0.671410	0.415963
H319	H	0.208024	0.120541	-0.140163
H320	H	0.708024	0.620541	0.359837
C321	C	0.172553	0.073989	0.143169
C322	C	0.672553	0.573989	0.643169
H323	H	0.140593	0.073596	0.183808
H324	H	0.640593	0.573596	0.683808
H325	H	0.195272	0.107534	0.146004
H326	H	0.695272	0.607534	0.646004
H327	H	0.206351	0.041121	0.146013
H328	H	0.706351	0.541121	0.646013
C329	C	0.919765	-0.005762	0.825648
C330	C	1.419765	0.494238	1.325648
H331	H	0.912960	-0.000206	0.878222
H332	H	1.412960	0.499794	1.378222
H333	H	0.966075	0.000324	0.812716
H334	H	1.466075	0.500324	1.312716
H335	H	0.912492	-0.043759	0.812745
H336	H	1.412492	0.456241	1.312745
C337	C	0.820823	-0.361879	0.211425
C338	C	1.320823	0.138121	0.711425
H339	H	0.821403	-0.322246	0.201660
H340	H	1.321403	0.177754	0.701660
H341	H	0.861184	-0.376074	0.239464
H342	H	1.361184	0.123926	0.739464
H343	H	0.780157	-0.367166	0.239463
H344	H	1.280157	0.132834	0.739463
C345	C	0.919735	-0.005764	0.339559
C346	C	1.419735	0.494236	0.839559
H347	H	0.948033	-0.028887	0.304806
H348	H	1.448033	0.471113	0.804806
H349	H	0.894925	-0.029417	0.370319
H350	H	1.394925	0.470583	0.870319
H351	H	0.948502	0.014670	0.370277
H352	H	1.448502	0.514670	0.870277
H353	H	0.837173	-0.018370	0.428421
H354	H	1.337173	0.481630	0.928421
C355	C	0.839883	-0.033195	0.582638
C356	C	1.339883	0.466805	1.082638
H357	H	0.838521	-0.025763	0.635210
H358	H	1.338521	0.474237	1.135210
H359	H	0.883833	-0.053601	0.569716
H360	H	1.383833	0.446399	1.069716
H361	H	0.803711	-0.055430	0.569741
H362	H	1.303711	0.444570	1.069741
