data_functionalizedCrystal
_audit_creation_method	'MofGen! by Chris Wilmer'
_symmetry_space_group_name_H-M	'P1'
_symmetry_Int_Tables_number	1
_symmetry_cell_setting	triclinic
loop_
_symmetry_equiv_pos_as_xyz
  x,y,z
_cell_length_a	15.538191
_cell_length_b	17.699091
_cell_length_c	16.776229
_cell_angle_alpha	89.994477
_cell_angle_beta	90.009041
_cell_angle_gamma	114.720915
loop_
_atom_site_label
_atom_site_type_symbol
_atom_site_fract_x
_atom_site_fract_y
_atom_site_fract_z
O1	O	1.250470	0.245970	0.066302
O2	O	0.976014	0.158524	0.066300
O3	O	1.120992	0.314553	0.066298
O4	O	1.105492	0.089940	0.066304
O5	O	1.120973	0.314555	-0.066279
O6	O	0.975995	0.158526	-0.066277
O7	O	1.250451	0.245971	-0.066275
Zn8	Zn	1.113220	0.202249	-0.087325
Zn9	Zn	1.113245	0.202247	0.087350
O10	O	1.105472	0.089942	-0.066273
C11	C	0.940888	0.149376	0.000011
C12	C	0.836253	0.122124	0.000010
C13	C	1.120426	0.342599	0.000011
C14	C	1.118756	0.426161	0.000013
C15	C	0.549073	0.392867	0.000016
C16	C	0.450750	0.367240	0.000017
C17	C	0.427982	0.223096	0.000021
C18	C	0.526305	0.248711	0.000016
C19	C	0.586844	0.333597	0.000014
C20	C	0.564076	0.189441	0.000014
C21	C	0.662391	0.215054	0.000013
C22	C	0.722935	0.299937	0.000014
C23	C	0.685159	0.359210	0.000013
C24	C	0.503535	0.104555	0.000021
C25	C	0.541306	0.045285	0.000019
C26	C	0.639623	0.070898	0.000012
C27	C	0.700167	0.155780	0.000013
C28	C	0.677399	0.011624	0.000013
C29	C	0.775715	0.037237	0.000012
C30	C	0.798483	0.181393	0.000012
C31	C	1.117984	0.465413	0.072281
C32	C	1.116409	0.543926	0.072282
C33	C	1.115613	0.583187	0.000013
C34	C	1.116382	0.543928	-0.072261
C35	C	1.117950	0.465414	-0.072260
C36	C	1.110056	0.860564	-0.072265
C37	C	1.108490	0.939085	-0.072260
C38	C	1.108515	0.939076	0.072276
C39	C	1.110083	0.860562	0.072277
C40	C	1.110847	0.821308	0.000004
C41	C	1.112553	0.736175	0.000005
C42	C	1.113914	0.668321	0.000011
C43	C	1.285577	0.255120	0.000016
C44	C	1.390212	0.282372	0.000022
N45	N	1.113209	0.202253	-0.206536
C46	C	1.106039	1.061897	0.000014
C47	C	1.107712	0.978336	0.000009
C48	C	1.177425	0.271327	-0.248254
C49	C	1.177431	0.271329	-0.331706
C50	C	1.113224	0.202254	-0.373439
C51	C	1.049001	0.133176	-0.331715
C52	C	1.048992	0.133177	-0.248265
C53	C	1.049035	0.133170	-0.668263
C54	C	1.049051	0.133173	-0.751719
C55	C	1.177474	0.271322	-0.751704
C56	C	1.177465	0.271324	-0.668254
C57	C	1.113239	0.202247	-0.626537
C58	C	1.113233	0.202247	-0.536049
C59	C	1.113234	0.202252	-0.463926
N60	N	1.113263	0.202251	0.206561
H61	H	0.847777	0.250516	0.000006
C62	C	0.610805	-0.081745	0.000025
H63	H	0.647382	-0.113377	0.000031
H64	H	0.571962	-0.094739	-0.046201
H65	H	0.571998	-0.094725	0.046269
H66	H	0.734453	0.428333	0.000007
C67	C	1.118799	0.422232	-0.151752
H68	H	1.119837	0.369846	-0.141402
H69	H	1.173481	0.455963	-0.181451
H70	H	1.063583	0.414233	-0.181442
H71	H	1.229714	0.327574	-0.214281
C72	C	1.248065	0.347309	-0.377596
H73	H	1.238868	0.337422	-0.433274
H74	H	1.310950	0.356336	-0.363909
H75	H	1.237939	0.395048	-0.363926
C76	C	0.831081	0.328118	0.000014
H77	H	0.861724	0.387160	0.000020
H78	H	0.849115	0.307295	-0.046217
H79	H	0.849125	0.307293	0.046254
H80	H	1.115728	0.575898	-0.131103
H81	H	1.229751	0.327569	-0.634277
H82	H	0.420002	0.415511	0.000020
H83	H	1.229767	0.327570	-0.785679
H84	H	0.598368	0.461990	0.000010
H85	H	1.110697	0.828620	-0.131114
C86	C	0.978403	0.057196	-0.797624
H87	H	0.940141	0.016062	-0.760828
H88	H	1.012224	0.034958	-0.830171
H89	H	0.939244	0.073702	-0.830185
H90	H	0.423482	0.083704	0.000024
H91	H	0.378678	0.153982	0.000025
C92	C	0.474714	-0.048084	0.000024
H93	H	0.511293	-0.079714	0.000028
H94	H	0.435875	-0.061074	-0.046206
H95	H	0.435902	-0.061071	0.046265
H96	H	0.806467	-0.011026	0.000003
C97	C	1.110955	0.817378	0.151772
H98	H	1.110260	0.851997	0.194814
H99	H	1.166510	0.807611	0.154780
H100	H	1.056613	0.765883	0.154772
C101	C	0.978398	0.057186	-0.622385
H102	H	0.940170	0.016045	-0.659194
H103	H	0.939219	0.073665	-0.589843
H104	H	1.012232	0.034956	-0.589820
H105	H	0.996718	0.076935	-0.365699
C106	C	0.978358	0.057194	-0.202375
H107	H	0.940126	0.016051	-0.239180
H108	H	0.939183	0.073677	-0.169832
H109	H	1.012193	0.034965	-0.169810
H110	H	1.118638	0.433454	0.131131
C111	C	1.115544	0.587094	0.151776
H112	H	1.116248	0.552469	0.194816
H113	H	1.059980	0.596847	0.154774
H114	H	1.169877	0.638594	0.154789
H115	H	1.107888	0.971045	0.131125
C116	C	1.107603	0.982266	-0.151759
H117	H	1.108272	0.947640	-0.194803
H118	H	1.161935	1.033760	-0.154769
H119	H	1.052038	0.992026	-0.154754
