data_functionalizedCrystal
_audit_creation_method	'MofGen! by Chris Wilmer'
_symmetry_space_group_name_H-M	'P1'
_symmetry_Int_Tables_number	1
_symmetry_cell_setting	triclinic
loop_
_symmetry_equiv_pos_as_xyz
  x,y,z
_cell_length_a	17.699077
_cell_length_b	27.731996
_cell_length_c	16.776229
_cell_angle_alpha	89.987372
_cell_angle_beta	89.993415
_cell_angle_gamma	82.950982
loop_
_atom_site_label
_atom_site_type_symbol
_atom_site_fract_x
_atom_site_fract_y
_atom_site_fract_z
O1	O	1.003525	0.061115	-0.066288
O2	O	0.783073	0.069071	-0.066293
O3	O	0.900166	-0.005281	-0.066273
O4	O	0.886432	0.135467	-0.066308
O5	O	0.900151	-0.005286	0.066303
O6	O	0.783058	0.069066	0.066283
O7	O	1.003509	0.061110	0.066288
Zn8	Zn	0.893281	0.065087	0.087335
Zn9	Zn	0.893301	0.065093	-0.087340
O10	O	0.886416	0.135462	0.066268
C11	C	0.754871	0.068784	-0.000006
C12	C	0.670860	0.067930	-0.000007
C13	C	0.631388	0.067525	0.072262
C14	C	0.552453	0.066715	0.072263
C15	C	0.512991	0.066314	-0.000006
C16	C	0.552469	0.066717	-0.072280
C17	C	0.631403	0.067523	-0.072280
C18	C	0.234135	0.063464	-0.072280
C19	C	0.155195	0.062659	-0.072274
C20	C	0.155185	0.062656	0.072262
C21	C	0.234120	0.063462	0.072262
C22	C	0.273591	0.063863	-0.000011
C23	C	0.359182	0.064740	-0.000012
C24	C	0.427401	0.065440	-0.000006
C25	C	0.899876	-0.023292	0.000018
C26	C	0.899027	-0.076951	0.000026
C27	C	0.893688	-0.409684	-0.072281
C28	C	0.890461	-0.611354	-0.072295
O29	O	0.890019	-0.637424	-0.133756
N30	N	0.890052	-0.636575	-0.000028
C31	C	0.890445	-0.611375	0.072247
O32	O	0.890015	-0.637454	0.133714
C33	C	0.893666	-0.409706	0.072261
C34	C	0.894083	-0.384488	-0.000011
C35	C	0.894104	-0.384466	-0.144546
C36	C	0.894915	-0.334052	-0.144542
C37	C	0.895310	-0.308856	-0.072272
C38	C	0.894894	-0.334074	-0.000007
C39	C	0.894053	-0.384506	0.144535
C40	C	0.894857	-0.334086	0.144532
C41	C	0.895274	-0.308868	0.072261
C42	C	0.896100	-0.258464	0.072267
N43	N	0.896509	-0.233243	0.000001
C44	C	0.896114	-0.258439	-0.072269
C45	C	0.888755	-0.717255	0.072235
C46	C	0.887951	-0.767672	0.072232
C47	C	0.887966	-0.767647	-0.072310
C48	C	0.888775	-0.717229	-0.072306
C49	C	0.889164	-0.692034	-0.000032
C50	C	0.897818	-0.152566	-0.072255
C51	C	0.898632	-0.102147	-0.072244
C52	C	0.898612	-0.102176	0.072298
C53	C	0.897802	-0.152590	0.072288
C54	C	0.897402	-0.177784	0.000005
O55	O	0.896534	-0.232362	0.133696
O56	O	0.896527	-0.232350	-0.133727
C57	C	0.892877	-0.460098	-0.072285
C58	C	0.892461	-0.485316	-0.000019
C59	C	0.892856	-0.460120	0.072250
C60	C	0.891657	-0.535733	-0.000023
C61	C	0.891262	-0.560930	-0.072292
C62	C	0.891672	-0.535709	-0.144559
C63	C	0.892483	-0.485294	-0.144555
C64	C	0.892447	-0.485341	0.144517
C65	C	0.891637	-0.535755	0.144507
C66	C	0.891242	-0.560951	0.072237
C67	C	1.031711	0.061397	-0.000001
C68	C	1.115722	0.062251	-0.000005
C69	C	0.886706	0.153473	-0.000024
C70	C	0.887556	0.207132	-0.000038
N71	N	0.893273	0.065083	0.206546
N72	N	0.893316	0.065094	-0.206551
C73	C	0.945137	0.032173	0.248272
C74	C	0.945141	0.032173	0.331725
C75	C	0.893284	0.065085	0.373449
C76	C	0.841414	0.097996	0.331717
C77	C	0.841407	0.097994	0.248267
C78	C	0.841442	0.098005	0.668265
C79	C	0.841454	0.098006	0.751721
C80	C	0.945176	0.032185	0.751722
C81	C	0.945169	0.032183	0.668272
C82	C	0.893296	0.065092	0.626547
C83	C	0.893292	0.065091	0.536059
C84	C	0.893292	0.065088	0.463936
H85	H	0.898973	-0.081618	-0.131099
C86	C	0.729162	0.026894	0.156122
C87	C	0.674764	0.067966	0.151701
H88	H	0.755942	0.027167	0.205164
H89	H	0.704480	-0.001593	0.153127
H90	H	0.763965	0.027257	0.113077
H91	H	0.639959	0.067601	0.194742
H92	H	0.699447	0.096460	0.154703
H93	H	0.892822	-0.464767	-0.203406
H94	H	0.799173	0.124791	0.214294
C95	C	0.431473	0.065487	-0.136460
C96	C	0.509093	0.066277	-0.151719
H97	H	0.404696	0.065219	-0.185505
H98	H	0.424648	0.037178	-0.106765
H99	H	0.412430	0.093533	-0.106771
H100	H	0.528137	0.038228	-0.181403
H101	H	0.515922	0.094588	-0.181427
C102	C	0.331911	0.022835	-0.156128
C103	C	0.277517	0.063910	-0.151720
H104	H	0.358693	0.023110	-0.205176
H105	H	0.366706	0.023192	-0.113094
H106	H	0.307221	-0.005653	-0.153118
H107	H	0.302209	0.092398	-0.154725
H108	H	0.242718	0.063558	-0.194766
C109	C	0.897897	-0.147462	-0.215129
C110	C	0.897366	-0.180252	-0.151708
H111	H	0.897621	-0.164555	-0.264179
H112	H	0.854067	-0.124054	-0.212109
H113	H	0.942374	-0.131544	-0.212117
H114	H	0.852886	-0.196168	-0.154717
H115	H	0.941200	-0.203668	-0.154730
H116	H	0.891354	-0.556232	-0.203404
C117	C	0.472711	0.024259	0.156134
C118	C	0.509074	0.066265	0.151707
H119	H	0.445938	0.023978	0.205186
H120	H	0.437910	0.023908	0.113105
H121	H	0.509630	-0.003597	0.153127
H122	H	0.472154	0.094121	0.154708
H123	H	0.543878	0.066620	0.194748
H124	H	0.892770	-0.464832	0.203369
C125	C	0.034181	0.061410	0.136454
C126	C	0.111797	0.062207	0.151709
H127	H	0.007399	0.061130	0.185501
H128	H	0.015136	0.089454	0.106759
H129	H	0.027370	0.033099	0.106767
H130	H	0.118608	0.090520	0.181391
H131	H	0.130848	0.034160	0.181417
C132	C	0.331894	0.022828	0.156118
C133	C	0.277497	0.063902	0.151700
H134	H	0.358675	0.023101	0.205159
H135	H	0.307210	-0.005657	0.153122
H136	H	0.366695	0.023192	0.113072
H137	H	0.242693	0.063537	0.194743
H138	H	0.302182	0.092395	0.154703
H139	H	0.663540	0.067854	-0.131128
C140	C	0.894094	-0.379443	0.287404
C141	C	0.893586	-0.412216	0.223980
H142	H	0.893799	-0.396550	0.336452
H143	H	0.938562	-0.363523	0.284402
H144	H	0.850255	-0.356034	0.284376
H145	H	0.937428	-0.435623	0.227004
H146	H	0.849113	-0.428144	0.226983
H147	H	0.895252	-0.313524	-0.203393
C148	C	0.894214	-0.379365	-0.287413
C149	C	0.893677	-0.412157	-0.223995
H150	H	0.893959	-0.396460	-0.336464
H151	H	0.850374	-0.355965	-0.284406
H152	H	0.938681	-0.363439	-0.284385
H153	H	0.849206	-0.428080	-0.227020
H154	H	0.937521	-0.435566	-0.227004
C155	C	0.891689	-0.530702	0.287385
C156	C	0.891177	-0.563471	0.223956
H157	H	0.891395	-0.547811	0.336430
H158	H	0.936159	-0.514783	0.284384
H159	H	0.847853	-0.507291	0.284362
H160	H	0.935017	-0.586879	0.226975
H161	H	0.846702	-0.579397	0.226958
H162	H	0.987373	0.005375	0.365697
H163	H	0.898937	-0.081653	0.131138
H164	H	0.987368	0.005375	0.214306
C165	C	0.738923	0.163072	0.676658
C166	C	0.784431	0.134183	0.622408
H167	H	0.703729	0.185409	0.648343
H168	H	0.711947	0.142973	0.709220
H169	H	0.770231	0.180433	0.709192
H170	H	0.753123	0.116819	0.589878
H171	H	0.811408	0.154284	0.589832
C172	C	1.076543	0.003689	0.777399
C173	C	1.002189	-0.003996	0.797587
H174	H	1.111738	-0.018645	0.805717
H175	H	1.083954	-0.001020	0.721734
H176	H	1.084364	0.035945	0.791070
H177	H	0.994365	-0.036251	0.783911
H178	H	0.994775	0.000709	0.853265
H179	H	0.799188	0.124792	0.365695
C180	C	0.888708	-0.722281	-0.215177
C181	C	0.889224	-0.689512	-0.151749
H182	H	0.888979	-0.705169	-0.264223
H183	H	0.932547	-0.745683	-0.212168
H184	H	0.844240	-0.738208	-0.212163
H185	H	0.933696	-0.673587	-0.154760
H186	H	0.845382	-0.666101	-0.154759
H187	H	0.987398	0.005384	0.634302
H188	H	0.895162	-0.313573	0.203388
C189	C	0.824231	0.163811	0.845542
C190	C	0.784444	0.134183	0.797586
H191	H	0.789036	0.186146	0.873852
H192	H	0.855118	0.144213	0.882331
H193	H	0.855513	0.181175	0.812961
H194	H	0.753166	0.116817	0.830167
H195	H	0.753544	0.153784	0.760793
C196	C	0.822594	-0.777685	0.195424
C197	C	0.887496	-0.795386	0.151678
H198	H	0.822308	-0.794794	0.244470
H199	H	0.823137	-0.744055	0.205755
H200	H	0.778320	-0.782208	0.165717
H201	H	0.931771	-0.790859	0.181382
H202	H	0.886959	-0.829023	0.141349
C203	C	0.824564	-0.655065	0.156121
C204	C	0.889189	-0.689566	0.151689
H205	H	0.824834	-0.637977	0.205176
H206	H	0.824927	-0.632826	0.113097
H207	H	0.780102	-0.670997	0.153110
H208	H	0.933652	-0.673634	0.154695
H209	H	0.888833	-0.711808	0.194726
C210	C	0.897868	-0.147548	0.215162
C211	C	0.897348	-0.180313	0.151728
H212	H	0.897577	-0.164660	0.264205
H213	H	0.942338	-0.131630	0.212160
H214	H	0.854031	-0.124137	0.212146
H215	H	0.941187	-0.203722	0.154741
H216	H	0.852873	-0.196239	0.154732
H217	H	0.123067	0.062332	-0.131127
H218	H	0.887645	-0.788170	-0.131155
