data_functionalizedCrystal
_audit_creation_method	'MofGen! by Chris Wilmer'
_symmetry_space_group_name_H-M	'P1'
_symmetry_Int_Tables_number	1
_symmetry_cell_setting	triclinic
loop_
_symmetry_equiv_pos_as_xyz
  x,y,z
_cell_length_a	16.959455
_cell_length_b	16.625545
_cell_length_c	16.959447
_cell_angle_alpha	89.969991
_cell_angle_beta	89.977004
_cell_angle_gamma	90.022578
loop_
_atom_site_label
_atom_site_type_symbol
_atom_site_fract_x
_atom_site_fract_y
_atom_site_fract_z
Zn1	Zn	1.208374	-0.321049	-0.447038
Zn2	Zn	1.208278	-0.455897	-0.314861
Zn3	Zn	1.076197	-0.321075	-0.314862
Zn4	Zn	1.076155	-0.455836	-0.446985
O5	O	1.142251	-0.388464	-0.380937
O6	O	1.318972	-0.338951	-0.429527
O7	O	1.190734	-0.438048	-0.204250
O8	O	1.093788	-0.208239	-0.332418
O9	O	1.318902	-0.438023	-0.332416
O10	O	1.190898	-0.208220	-0.429528
O11	O	1.093695	-0.338995	-0.204251
O12	O	0.965580	-0.338937	-0.332367
O13	O	1.093717	-0.437921	-0.557603
O14	O	0.965549	-0.437946	-0.429437
O15	O	1.190858	-0.338893	-0.557642
O16	O	1.190694	-0.568721	-0.332365
O17	O	1.093623	-0.568677	-0.429436
C18	C	0.936885	-0.388438	-0.380897
C19	C	0.849028	-0.388446	-0.380899
C20	C	0.477505	-0.440000	-0.330346
C21	C	0.477600	-0.336996	-0.431624
C22	C	0.560146	-0.336982	-0.431605
C23	C	0.601375	-0.388479	-0.380956
C24	C	0.560058	-0.439990	-0.330326
C25	C	0.601468	-0.285479	-0.482239
C26	C	0.684019	-0.285464	-0.482223
C27	C	0.725250	-0.336958	-0.431569
C28	C	0.683929	-0.388469	-0.380937
C29	C	0.725158	-0.439967	-0.330288
C30	C	0.683838	-0.491475	-0.279651
C31	C	0.601289	-0.491484	-0.279673
C32	C	0.807799	-0.336949	-0.431547
C33	C	0.807711	-0.439957	-0.330269
C34	C	1.142165	-0.597955	-0.380912
C35	C	1.142201	-0.687576	-0.380928
C36	C	1.142231	-0.760359	-0.380943
C37	C	1.142277	-0.851667	-0.380961
C38	C	1.142318	-0.924444	-0.380971
C39	C	1.142363	-1.015758	-0.380987
C40	C	1.348419	-0.388491	-0.380977
C41	C	1.436276	-0.388503	-0.380994
C42	C	1.142293	-0.388397	-0.587105
C43	C	1.142311	-0.388369	-0.674962
C44	C	1.142359	-0.178155	-0.380979
C45	C	1.142404	-0.088534	-0.380997
C46	C	1.091857	-0.336711	-1.046444
C47	C	1.192905	-0.439856	-1.046431
C48	C	1.192891	-0.439875	-0.963885
C49	C	1.142359	-0.388312	-0.922615
C50	C	1.091840	-0.336730	-0.963891
C51	C	1.243403	-0.491462	-0.922603
C52	C	1.243391	-0.491483	-0.840052
C53	C	1.192862	-0.439915	-0.798780
C54	C	1.142342	-0.388331	-0.840061
C55	C	1.091809	-0.336768	-0.798791
C56	C	1.041292	-0.285179	-0.840071
C57	C	1.041311	-0.285163	-0.922619
C58	C	1.192844	-0.439932	-0.716232
C59	C	1.091792	-0.336787	-0.716238
C60	C	1.142254	-0.388473	-0.175570
C61	C	1.142389	-0.388274	-0.087714
H62	H	0.567639	-0.533419	-0.238447
H63	H	1.284524	-0.533491	-0.806449
H64	H	1.000182	-0.243162	-0.956236
H65	H	1.000146	-0.243200	-0.806458
H66	H	1.050646	-0.294794	-0.682641
Br67	Br	1.023306	-0.266695	-1.102462
H68	H	0.567894	-0.243557	-0.523480
Br69	Br	1.261388	-0.509948	-0.660213
H70	H	0.841274	-0.481890	-0.289021
H71	H	0.717417	-0.533408	-0.238417
H72	H	0.443858	-0.481935	-0.289116
H73	H	0.444026	-0.295073	-0.472864
H74	H	1.234040	-0.481843	-1.080038
H75	H	0.717655	-0.243522	-0.523454
Br76	Br	0.863873	-0.267057	-0.500269
Br77	Br	1.311968	-0.561447	-0.978615
