data_functionalizedCrystal
_audit_creation_method	'MofGen! by Chris Wilmer'
_symmetry_space_group_name_H-M	'P1'
_symmetry_Int_Tables_number	1
_symmetry_cell_setting	triclinic
loop_
_symmetry_equiv_pos_as_xyz
  x,y,z
_cell_length_a	14.853567
_cell_length_b	19.288864
_cell_length_c	18.366186
_cell_angle_alpha	90.022894
_cell_angle_beta	89.997562
_cell_angle_gamma	96.614411
loop_
_atom_site_label
_atom_site_type_symbol
_atom_site_fract_x
_atom_site_fract_y
_atom_site_fract_z
O1	O	0.112464	-0.921732	-0.060777
O2	O	0.127635	-0.719523	-0.060727
O3	O	-0.011211	-0.826029	-0.060755
O4	O	0.251310	-0.815226	-0.060748
O5	O	-0.011217	-0.826011	0.060344
O6	O	0.127629	-0.719505	0.060373
O7	O	0.112457	-0.921714	0.060322
Zn8	Zn	0.120042	-0.820607	0.079575
Zn9	Zn	0.120051	-0.820631	-0.079979
O10	O	0.251304	-0.815208	0.060351
C11	C	-0.044800	-0.825530	-0.000208
C12	C	-0.144875	-0.824064	-0.000214
C13	C	0.127144	-0.693636	-0.000171
C14	C	0.125679	-0.616527	-0.000152
C15	C	0.112949	-0.947601	-0.000236
C16	C	0.114414	-1.024710	-0.000259
C17	C	-0.557014	-0.754596	-0.000182
C18	C	-0.579015	-0.881128	-0.000214
C19	C	-0.484989	-0.882507	-0.000219
C20	C	-0.426971	-0.819930	-0.000204
C21	C	-0.462979	-0.755974	-0.000185
C22	C	-0.448973	-0.946462	-0.000231
C23	C	-0.354942	-0.947844	-0.000235
C24	C	-0.296923	-0.885266	-0.000225
C25	C	-0.332936	-0.821307	-0.000207
C26	C	-0.274918	-0.758730	-0.000192
C27	C	-0.310930	-0.694770	-0.000179
C28	C	-0.404960	-0.693396	-0.000176
C29	C	-0.202893	-0.886641	-0.000228
C30	C	-0.180883	-0.760107	-0.000194
C31	C	0.284893	-0.815707	-0.000198
C32	C	0.384968	-0.817174	-0.000197
N33	N	0.120035	-0.820595	0.188466
C34	C	0.207147	-0.572106	-0.000161
C35	C	0.205770	-0.499654	-0.000169
C36	C	0.122920	-0.471627	-0.000182
C37	C	0.041441	-0.516058	-0.000169
C38	C	0.042820	-0.588508	-0.000154
C39	C	0.057794	-0.363152	-0.042635
C40	C	0.056418	-0.290702	-0.042655
C41	C	0.118664	-0.248167	-0.000227
C42	C	0.182300	-0.278088	0.042212
C43	C	0.183679	-0.350538	0.042228
C44	C	0.121416	-0.393068	-0.000199
C45	C	0.198645	-0.125185	-0.000243
C46	C	0.197265	-0.052732	-0.000247
C47	C	0.032933	-0.069138	-0.000254
C48	C	0.034316	-0.141589	-0.000244
C49	C	0.117174	-0.169608	-0.000242
N50	N	0.120050	-0.820647	-0.188870
C51	C	0.058584	-0.867772	0.226553
C52	C	0.058580	-0.867776	0.302781
C53	C	0.120043	-0.820611	0.340918
C54	C	0.181498	-0.773426	0.302822
C55	C	0.181495	-0.773418	0.226595
C56	C	0.202186	-0.811590	0.461682
C57	C	0.202191	-0.811602	0.537907
C58	C	0.120054	-0.820631	0.576026
C59	C	0.037908	-0.829661	0.537910
C60	C	0.037905	-0.829653	0.461684
C61	C	0.120053	-0.820614	0.423573
C62	C	0.058594	-0.867814	0.696769
C63	C	0.058588	-0.867814	0.772998
C64	C	0.181514	-0.773467	0.773037
C65	C	0.181512	-0.773464	0.696809
C66	C	0.120052	-0.820641	0.658679
H67	H	-0.133651	-0.709148	-0.000186
Br68	Br	0.319597	-0.610129	-0.000157
Br69	Br	-0.024817	-0.931838	0.645019
H70	H	-0.263680	-0.643820	-0.000162
H71	H	0.231536	-0.735000	0.195584
H72	H	-0.325630	-0.999924	-0.000246
H73	H	0.008538	-0.906194	0.333798
Br74	Br	-0.067753	-0.648799	-0.000139
H75	H	0.232986	-0.243457	0.076762
H76	H	-0.626258	-0.932075	-0.000220
H77	H	-0.032025	-0.177758	-0.000240
Br78	Br	0.313671	-0.799406	0.409958
H79	H	0.231554	-0.735051	0.665796
Br80	Br	-0.527713	-1.031383	-0.000231
H81	H	0.008543	-0.906229	0.804009
H82	H	0.269079	-0.804254	0.568935
H83	H	-0.028981	-0.837004	0.430653
Br84	Br	-0.154022	-0.973435	-0.000229
H85	H	0.231555	-0.735061	0.804088
Br86	Br	-0.029933	-0.250101	-0.100260
H87	H	0.231541	-0.735022	0.333877
Br88	Br	-0.026693	-0.420872	-0.100220
Br89	Br	-0.605883	-0.667798	-0.000175
Br90	Br	0.316343	-0.439356	-0.000177
Br91	Br	-0.453839	-0.606601	-0.000162
H92	H	-0.028975	-0.837012	0.568945
H93	H	0.266113	-0.147999	-0.000231
Br94	Br	0.270036	-0.391145	0.099822
H95	H	0.263609	-0.016564	-0.000250
Br96	Br	-0.070999	-0.478023	-0.000180
Br97	Br	-0.079508	-0.031109	-0.000261
Br98	Br	-0.024825	-0.931794	0.174805
