data_functionalizedCrystal
_audit_creation_method	'MofGen! by Chris Wilmer'
_symmetry_space_group_name_H-M	'P1'
_symmetry_Int_Tables_number	1
_symmetry_cell_setting	triclinic
loop_
_symmetry_equiv_pos_as_xyz
  x,y,z
_cell_length_a	29.839134
_cell_length_b	29.839131
_cell_length_c	12.759393
_cell_angle_alpha	89.963184
_cell_angle_beta	89.967527
_cell_angle_gamma	90.036281
loop_
_atom_site_label
_atom_site_type_symbol
_atom_site_fract_x
_atom_site_fract_y
_atom_site_fract_z
Zn1	Zn	0.686766	-0.178893	-0.594297
Zn2	Zn	0.686685	-0.254030	-0.418598
Zn3	Zn	0.611635	-0.178908	-0.418597
Zn4	Zn	0.611597	-0.253990	-0.594200
O5	O	0.649171	-0.216455	-0.506423
O6	O	0.749622	-0.188871	-0.571031
O7	O	0.676711	-0.244088	-0.271577
O8	O	0.621652	-0.116039	-0.441944
O9	O	0.749563	-0.244074	-0.441946
O10	O	0.676850	-0.116028	-0.571031
O11	O	0.621573	-0.188897	-0.271576
O12	O	0.548763	-0.188858	-0.441850
O13	O	0.621586	-0.244005	-0.741234
O14	O	0.548735	-0.244020	-0.570864
O15	O	0.676813	-0.188832	-0.741305
O16	O	0.676674	-0.316892	-0.441851
O17	O	0.621507	-0.316863	-0.570865
C18	C	0.532448	-0.216436	-0.506347
C19	C	0.482514	-0.216439	-0.506340
C20	C	0.172865	-0.245221	-0.573518
C21	C	-0.014808	-0.245234	-0.573565
O22	O	-0.039077	-0.269684	-0.630638
N23	N	-0.038271	-0.216472	-0.506502
C24	C	-0.014814	-0.187703	-0.439427
O25	O	-0.039077	-0.163236	-0.382395
C26	C	0.172859	-0.187688	-0.439387
C27	C	0.196319	-0.216455	-0.506447
C28	C	0.196326	-0.273985	-0.640574
C29	C	0.243241	-0.273983	-0.640557
C30	C	0.266696	-0.245217	-0.573486
C31	C	0.243235	-0.216453	-0.506430
C32	C	0.196315	-0.158917	-0.372318
C33	C	0.243236	-0.158916	-0.372316
C34	C	0.266697	-0.187682	-0.439376
C35	C	0.313605	-0.187686	-0.439342
N36	N	0.337068	-0.216448	-0.506405
C37	C	0.313614	-0.245213	-0.573477
C38	C	-0.113344	-0.187713	-0.439452
C39	C	-0.160262	-0.187717	-0.439460
C40	C	-0.160253	-0.245248	-0.573600
C41	C	-0.113335	-0.245245	-0.573585
C42	C	-0.089881	-0.216475	-0.506515
C43	C	0.412140	-0.245208	-0.573437
C44	C	0.459059	-0.245205	-0.573411
C45	C	0.459046	-0.187673	-0.439276
C46	C	0.412131	-0.187678	-0.439297
C47	C	0.388679	-0.216446	-0.506386
O48	O	0.337903	-0.163245	-0.382307
O49	O	0.337885	-0.269669	-0.630518
C50	C	0.125950	-0.245223	-0.573535
C51	C	0.102489	-0.216459	-0.506479
C52	C	0.125943	-0.187693	-0.439408
C53	C	0.055571	-0.216463	-0.506488
C54	C	0.032116	-0.245229	-0.573560
C55	C	0.055580	-0.273990	-0.640623
C56	C	0.102495	-0.273988	-0.640607
C57	C	0.102480	-0.158931	-0.372345
C58	C	0.055564	-0.158936	-0.372366
C59	C	0.032110	-0.187701	-0.439437
C60	C	0.649090	-0.333178	-0.506371
C61	C	0.649096	-0.383112	-0.506384
C62	C	0.677948	-0.692758	-0.439344
C63	C	0.678004	-0.880432	-0.439384
O64	O	0.702471	-0.904699	-0.382344
N65	N	0.649264	-0.903897	-0.506502
C66	C	0.620510	-0.880442	-0.573619
O67	O	0.596070	-0.904708	-0.630716
C68	C	0.620457	-0.692770	-0.573583
C69	C	0.649196	-0.669307	-0.506453
C70	C	0.706685	-0.669295	-0.372220
C71	C	0.706669	-0.622380	-0.372207
C72	C	0.677916	-0.598928	-0.439316
C73	C	0.649180	-0.622391	-0.506440
C74	C	0.591706	-0.669316	-0.640705
C75	C	0.591696	-0.622395	-0.640692
C76	C	0.620435	-0.598931	-0.573562
C77	C	0.620412	-0.552024	-0.573536
N78	N	0.649151	-0.528558	-0.506418
C79	C	0.677904	-0.552010	-0.439308
C80	C	0.620539	-0.978973	-0.573632
C81	C	0.620552	-1.025891	-0.573640
C82	C	0.678046	-1.025877	-0.439406
C83	C	0.678031	-0.978958	-0.439394
C84	C	0.649279	-0.955507	-0.506514
C85	C	0.677868	-0.453484	-0.439284
C86	C	0.677848	-0.406564	-0.439274
C87	C	0.620356	-0.406582	-0.573511
C88	C	0.620374	-0.453498	-0.573518
C89	C	0.649134	-0.476948	-0.506402
O90	O	0.595961	-0.527728	-0.630555
O91	O	0.702348	-0.527736	-0.382237
C92	C	0.677964	-0.739674	-0.439357
C93	C	0.649228	-0.763137	-0.506481
C94	C	0.620475	-0.739686	-0.573590
C95	C	0.649240	-0.810055	-0.506488
C96	C	0.677993	-0.833507	-0.439379
C97	C	0.706732	-0.810041	-0.372261
C98	C	0.706717	-0.763126	-0.372247
C99	C	0.591735	-0.763151	-0.640708
C100	C	0.591753	-0.810067	-0.640716
C101	C	0.620506	-0.833519	-0.573606
C102	C	0.766349	-0.216475	-0.506500
C103	C	0.816283	-0.216483	-0.506532
C104	C	0.649204	-0.216412	-0.780456
C105	C	0.649219	-0.216394	-0.897233
C106	C	0.649264	-0.099277	-0.506498
C107	C	0.649304	-0.049343	-0.506530
C108	C	0.677977	-0.187661	-0.952134
C109	C	0.677985	-0.187641	-1.061858
C110	C	0.620474	-0.245092	-1.061771
C111	C	0.620464	-0.245109	-0.952049
C112	C	0.649163	-0.216466	-0.233456
C113	C	0.649236	-0.216358	-0.116679
H114	H	0.262339	-0.297407	-0.695167
Cl115	Cl	0.584214	-0.377091	-0.657879
H116	H	0.597042	-0.268507	-0.907347
Cl117	Cl	0.714124	-0.151560	-0.883227
H118	H	0.701402	-0.164243	-1.106554
Cl119	Cl	0.714161	-0.949466	-0.355001
Cl120	Cl	0.584389	-0.949498	-0.658019
H121	H	0.730071	-0.603278	-0.317547
H122	H	0.597064	-0.268472	-1.106415
Cl123	Cl	0.272718	-0.122744	-0.287994
H124	H	0.393050	-0.268633	-0.628069
H125	H	0.036466	-0.135511	-0.317748
Cl126	Cl	0.742877	-0.839533	-0.287893
H127	H	-0.094236	-0.268669	-0.628193
Cl128	Cl	0.166849	-0.310153	-0.724904
Cl129	Cl	-0.189747	-0.281407	-0.657926
Cl130	Cl	0.488550	-0.281372	-0.657720
H131	H	0.121572	-0.135506	-0.317726
H132	H	0.730101	-0.688385	-0.317571
Cl133	Cl	0.713980	-0.377070	-0.354876
H134	H	0.701288	-0.472571	-0.384634
Cl135	Cl	-0.083866	-0.151541	-0.355125
Cl136	Cl	-0.189750	-0.151558	-0.355139
H137	H	0.393028	-0.164254	-0.384689
Cl138	Cl	0.166833	-0.122748	-0.288016
H139	H	0.478151	-0.164254	-0.384665
H140	H	0.568322	-0.744061	-0.695359
H141	H	0.036475	-0.297414	-0.695232
Cl142	Cl	0.131982	-0.310154	-0.724917
H143	H	0.568302	-0.688412	-0.695364
Cl144	Cl	0.714191	-1.055368	-0.355039
H145	H	0.597146	-1.044991	-0.628294
H146	H	0.568347	-0.829167	-0.695380
H147	H	0.568284	-0.603303	-0.695353
Cl148	Cl	0.742849	-0.733636	-0.287855
Cl149	Cl	0.584236	-0.482996	-0.657889
