data_functionalizedCrystal
_audit_creation_method	'MofGen! by Chris Wilmer'
_symmetry_space_group_name_H-M	'P1'
_symmetry_Int_Tables_number	1
_symmetry_cell_setting	triclinic
loop_
_symmetry_equiv_pos_as_xyz
  x,y,z
_cell_length_a	19.288867
_cell_length_b	16.053789
_cell_length_c	19.288865
_cell_angle_alpha	92.901325
_cell_angle_beta	83.136658
_cell_angle_gamma	92.894766
loop_
_atom_site_label
_atom_site_type_symbol
_atom_site_fract_x
_atom_site_fract_y
_atom_site_fract_z
O1	O	0.923951	0.069410	0.089257
O2	O	0.721691	0.069420	0.100945
O3	O	0.828664	0.069398	-0.006030
O4	O	0.816977	0.069432	0.196232
O5	O	0.823447	-0.069462	-0.011240
O6	O	0.716473	-0.069440	0.095734
O7	O	0.918733	-0.069450	0.084047
Zn8	Zn	0.816775	-0.091492	0.089063
Zn9	Zn	0.823649	0.091462	0.095928
O10	O	0.811760	-0.069428	0.191021
C11	C	0.693206	-0.000009	0.097963
C12	C	0.616102	-0.000007	0.096834
C13	C	0.063380	0.075675	0.091537
C14	C	0.135828	0.075678	0.092595
C15	C	0.169213	-0.000014	0.090286
C16	C	0.130146	-0.075715	0.086902
C17	C	0.057700	-0.075716	0.085838
C18	C	0.276361	-0.057997	0.130478
C19	C	0.348805	-0.057993	0.131547
C20	C	0.392658	-0.000014	0.093565
C21	C	0.364059	0.057975	0.054525
C22	C	0.291613	0.057974	0.053461
C23	C	0.247767	-0.000021	0.091440
C24	C	0.510273	0.075686	0.098091
C25	C	0.582722	0.075686	0.099144
C26	C	0.577038	-0.075709	0.093458
C27	C	0.504591	-0.075707	0.092398
C28	C	0.471212	-0.000007	0.094718
N29	N	0.812089	-0.216353	0.084377
C30	C	0.852442	-0.260039	0.124761
C31	C	0.849173	-0.347446	0.121478
C32	C	0.805547	-0.391167	0.077816
C33	C	0.765192	-0.347475	0.037428
C34	C	0.768465	-0.260069	0.040707
C35	C	0.791259	-0.652579	0.063500
C36	C	0.787987	-0.739991	0.060225
C37	C	0.871970	-0.739956	0.144275
C38	C	0.875236	-0.652549	0.147553
C39	C	0.834884	-0.608865	0.107163
N40	N	0.802203	-0.480511	0.074462
N41	N	0.838232	-0.519522	0.110514
C42	C	0.947218	-0.000019	0.087028
C43	C	1.024322	-0.000016	0.088158
C44	C	0.825679	-0.000034	-0.034512
C45	C	0.824550	-0.000042	-0.111616
N46	N	0.828341	0.216323	0.100608
C47	C	0.887318	-0.000049	-0.156312
C48	C	0.886258	-0.000035	-0.228758
C49	C	0.822426	-0.000032	-0.256506
C50	C	0.759650	-0.000020	-0.211800
C51	C	0.760712	-0.000025	-0.139355
C52	C	0.770419	-0.048669	-0.366619
C53	C	0.769359	-0.048670	-0.439063
C54	C	0.819147	-0.000013	-0.479951
C55	C	0.870006	0.048633	-0.448387
C56	C	0.871068	0.048628	-0.375942
C57	C	0.821267	-0.000026	-0.335060
C58	C	0.880769	-0.000004	-0.603203
C59	C	0.879706	0.000014	-0.675650
C60	C	0.753097	0.000021	-0.658690
C61	C	0.754161	0.000011	-0.586244
C62	C	0.817999	-0.000006	-0.558505
C63	C	0.814744	0.000006	0.219503
C64	C	0.815874	0.000019	0.296607
H65	H	0.036209	0.137316	0.093423
C66	C	0.228126	-0.121781	0.172255
H67	H	0.180886	-0.113484	0.166024
H68	H	0.233875	-0.114480	0.220445
H69	H	0.239856	-0.176735	0.156054
C70	C	0.613752	-0.158970	0.090918
H71	H	0.662492	-0.148130	0.092040
H72	H	0.606135	-0.190078	0.049081
H73	H	0.595288	-0.190064	0.130078
C74	C	0.924780	0.102156	-0.493351
H75	H	0.955223	0.131119	-0.464178
H76	H	0.901826	0.141281	-0.516922
H77	H	0.951093	0.067075	-0.526689
H78	H	0.614524	0.137326	0.101890
H79	H	0.904823	-0.775533	0.177158
C80	C	0.893559	-0.395497	0.165903
H81	H	0.920003	-0.356940	0.192382
H82	H	0.924341	-0.429594	0.136082
H83	H	0.863713	-0.429591	0.196664
H84	H	0.157332	-0.137344	0.085022
C85	C	0.178800	0.158942	0.096321
H86	H	0.148544	0.204025	0.097555
H87	H	0.212607	0.162092	0.056362
H88	H	0.201748	0.162081	0.137358
C89	C	0.689435	-0.000013	-0.242316
H90	H	0.652204	-0.000002	-0.205317
H91	H	0.684565	-0.048434	-0.272050
H92	H	0.688213	0.048420	-0.268399
H93	H	0.932750	-0.000014	-0.580616
C94	C	0.955302	-0.000049	-0.277936
H95	H	0.945525	-0.000039	-0.325054
H96	H	0.979663	-0.048477	-0.271371
H97	H	0.983310	0.048376	-0.267726
H98	H	0.268331	0.105189	0.021671
H99	H	0.025899	-0.137355	0.083089
H100	H	0.887963	-0.224448	0.160319
H101	H	0.729873	-0.088296	-0.333334
H102	H	0.912478	0.088239	-0.350246
H103	H	0.910763	-0.616957	0.183105
H104	H	0.727944	-0.088275	-0.464756
H105	H	0.399763	0.105190	0.023599
C106	C	0.746866	-0.604538	0.019079
H107	H	0.720410	-0.643097	-0.007386
H108	H	0.776703	-0.570443	-0.011684
H109	H	0.716084	-0.570442	0.048908
C110	C	0.724073	-0.212012	-0.003709
H111	H	0.732275	-0.153695	0.004493
H112	H	0.675974	-0.226341	0.008780
H113	H	0.736597	-0.226343	-0.051808
H114	H	0.752458	-0.775586	0.024670
C115	C	0.682881	0.000028	-0.689201
H116	H	0.645650	0.000034	-0.652202
H117	H	0.678013	-0.048391	-0.718936
H118	H	0.681657	0.048462	-0.715281
C119	C	0.473553	0.158951	0.100645
H120	H	0.507195	0.204032	0.102802
H121	H	0.439991	0.162095	0.140849
H122	H	0.450830	0.162099	0.059852
C123	C	0.461623	-0.158969	0.088692
H124	H	0.491879	-0.204049	0.087475
H125	H	0.438666	-0.162124	0.047664
H126	H	0.427822	-0.162107	0.128662
C127	C	0.948754	0.000005	-0.724816
H128	H	0.986923	-0.000014	-0.697917
H129	H	0.952797	0.048430	-0.751605
H130	H	0.949146	-0.048423	-0.755254
C131	C	0.691665	-0.000025	-0.090187
H132	H	0.653495	-0.000025	-0.117086
H133	H	0.691267	0.048393	-0.059745
H134	H	0.687630	-0.048460	-0.063404
C135	C	0.717202	-0.395566	-0.010598
H136	H	0.721026	-0.453878	-0.006762
H137	H	0.730793	-0.381251	-0.057620
H138	H	0.670173	-0.381243	0.002972
C139	C	0.957535	-0.000064	-0.125798
H140	H	0.949180	-0.000073	-0.076251
H141	H	0.985195	0.048355	-0.139331
H142	H	0.981544	-0.048498	-0.142981
C143	C	0.380262	-0.121773	0.174490
H144	H	0.429687	-0.113462	0.169692
H145	H	0.368245	-0.176726	0.157944
H146	H	0.362265	-0.114467	0.222333
C147	C	0.685116	0.000004	-0.537077
H148	H	0.646947	0.000001	-0.563977
H149	H	0.684715	0.048424	-0.506636
H150	H	0.681082	-0.048429	-0.510292
