data_functionalizedCrystal
_audit_creation_method	'MofGen! by Chris Wilmer'
_symmetry_space_group_name_H-M	'P1'
_symmetry_Int_Tables_number	1
_symmetry_cell_setting	triclinic
loop_
_symmetry_equiv_pos_as_xyz
  x,y,z
_cell_length_a	10.489711
_cell_length_b	10.489741
_cell_length_c	17.766277
_cell_angle_alpha	89.999051
_cell_angle_beta	89.991726
_cell_angle_gamma	84.533091
loop_
_atom_site_label
_atom_site_type_symbol
_atom_site_fract_x
_atom_site_fract_y
_atom_site_fract_z
O1	O	1.694081	0.179780	-0.062621
O2	O	1.322880	0.196713	-0.062617
O3	O	1.516927	0.002648	-0.062614
O4	O	1.500034	0.373845	-0.062623
O5	O	1.516900	0.002655	0.062574
O6	O	1.322853	0.196720	0.062572
O7	O	1.694054	0.179788	0.062567
Cu8	Cu	1.508451	0.188255	0.074000
Cu9	Cu	1.508483	0.188246	-0.074049
O10	O	1.500007	0.373853	0.062565
C11	C	1.275334	0.195446	-0.000022
C12	C	1.133703	0.191644	-0.000020
C13	C	1.515638	-0.044880	-0.000021
C14	C	1.511820	-0.186509	-0.000022
C15	C	0.951317	0.308348	-0.000031
C16	C	1.043475	0.250049	-0.061753
C17	C	1.043422	0.250025	0.061673
C18	C	0.973524	0.126506	-0.061809
C19	C	0.973461	0.126500	0.061673
C20	C	1.065593	0.068111	-0.000064
C21	C	1.388354	-0.254636	-0.000026
C22	C	1.446665	-0.346761	0.061698
C23	C	1.446721	-0.346743	-0.061728
C24	C	1.570182	-0.276769	0.061753
C25	C	1.570221	-0.276741	-0.061729
C26	C	1.628622	-0.368839	0.000010
C27	C	1.741600	0.181055	-0.000029
C28	C	1.883231	0.184857	-0.000036
C29	C	1.501296	0.421381	-0.000030
C30	C	1.505114	0.563010	-0.000034
N31	N	1.508438	0.188261	0.178131
C32	C	1.586574	0.266339	0.782416
C33	C	1.586562	0.266351	0.703614
C34	C	1.508492	0.188238	0.664220
C35	C	1.430403	0.110131	0.703633
C36	C	1.430408	0.110132	0.782434
C37	C	1.503905	0.073186	0.539378
C38	C	1.503909	0.073183	0.460580
C39	C	1.508469	0.188238	0.421173
C40	C	1.513051	0.303299	0.460576
C41	C	1.513056	0.303299	0.539376
C42	C	1.508477	0.188229	0.578774
C43	C	1.586533	0.266359	0.296323
C44	C	1.586511	0.266373	0.217520
C45	C	1.430360	0.110142	0.217541
C46	C	1.430374	0.110139	0.296342
C47	C	1.508467	0.188246	0.335729
N48	N	1.508502	0.188238	0.821820
H49	H	0.901626	0.409850	-0.000095
H50	H	1.622367	-0.245939	0.113994
N51	N	1.666268	0.346138	0.177255
N52	N	1.666252	0.346131	0.106898
H53	H	1.722583	0.402464	0.078459
N54	N	1.261004	-0.192346	0.000055
N55	N	1.186477	-0.211020	0.052975
H56	H	1.096537	-0.167028	0.053035
H57	H	1.074481	0.302302	-0.113935
N58	N	1.499233	-0.044359	0.579615
N59	N	1.495151	-0.147079	0.544429
H60	H	1.491848	-0.230092	0.572844
H61	H	0.942727	0.074300	-0.114051
H62	H	1.115050	-0.033484	-0.000093
N63	N	0.934538	0.061014	0.127145
N64	N	0.956568	0.103095	0.191189
H65	H	0.929077	0.056855	0.237436
H66	H	1.074367	0.302302	0.113855
N67	N	1.756086	-0.430844	0.000055
N68	N	1.830412	-0.412383	0.053098
H69	H	1.920435	-0.456173	0.053133
N70	N	1.381106	-0.385647	0.127159
N71	N	1.266838	-0.344519	0.138159
H72	H	1.220528	-0.371978	0.184389
H73	H	1.622429	-0.245705	-0.113916
H74	H	1.394475	-0.377705	-0.113916
N75	N	1.666350	0.346128	0.822635
N76	N	1.736053	0.415858	0.787437
H77	H	1.792396	0.472211	0.815842
H78	H	1.650137	0.329956	0.671525
H79	H	1.516784	0.396985	0.571454
N80	N	1.517720	0.420823	0.420323
N81	N	1.517711	0.420813	0.349966
H82	H	1.521014	0.503810	0.321533
N83	N	1.666304	0.346148	0.336549
N84	N	1.736000	0.415888	0.301353
H85	H	1.792341	0.472240	0.329760
H86	H	1.366786	0.046548	0.185467
N87	N	1.350618	0.030349	0.336586
N88	N	1.280911	-0.039386	0.301407
H89	H	1.224576	-0.095739	0.329828
H90	H	1.500187	-0.020507	0.428504
H91	H	1.366835	0.046534	0.671554
H92	H	1.366829	0.046531	0.814516
