data_functionalizedCrystal
_audit_creation_method	'MofGen! by Chris Wilmer'
_symmetry_space_group_name_H-M	'P1'
_symmetry_Int_Tables_number	1
_symmetry_cell_setting	triclinic
loop_
_symmetry_equiv_pos_as_xyz
  x,y,z
_cell_length_a	12.827893
_cell_length_b	17.640280
_cell_length_c	12.827879
_cell_angle_alpha	78.732823
_cell_angle_beta	89.958408
_cell_angle_gamma	78.800662
loop_
_atom_site_label
_atom_site_type_symbol
_atom_site_fract_x
_atom_site_fract_y
_atom_site_fract_z
Zn1	Zn	1.681926	-0.314413	-0.506886
Zn2	Zn	1.717104	-0.446698	-0.296820
Zn3	Zn	1.507129	-0.314527	-0.332129
Zn4	Zn	1.542469	-0.446564	-0.471556
O5	O	1.612157	-0.380550	-0.401847
O6	O	1.832830	-0.331969	-0.479029
O7	O	1.689183	-0.429269	-0.155239
O8	O	1.500804	-0.203892	-0.384874
O9	O	1.858676	-0.429158	-0.324694
O10	O	1.629226	-0.203809	-0.513267
O11	O	1.534916	-0.332163	-0.181181
O12	O	1.365579	-0.332033	-0.350615
O13	O	1.561036	-0.428930	-0.622506
O14	O	1.391543	-0.429040	-0.453052
O15	O	1.663494	-0.331839	-0.648463
O16	O	1.723451	-0.557299	-0.290436
O17	O	1.595147	-0.557201	-0.418814
C18	C	1.340643	-0.380535	-0.401832
C19	C	1.224493	-0.380548	-0.401845
C20	C	1.666979	-0.585932	-0.346982
C21	C	1.690528	-0.673796	-0.323545
C22	C	1.185604	-0.428625	-0.452415
C23	C	1.065557	-0.428639	-0.452430
C24	C	1.433688	-0.962648	-0.580273
C25	C	1.455818	-1.045209	-0.558218
C26	C	1.589504	-1.045246	-0.424673
C27	C	1.567389	-0.962683	-0.446721
C28	C	1.489479	-0.921391	-0.524522
C29	C	1.623180	-0.921426	-0.390969
C30	C	1.601062	-0.838871	-0.413012
C31	C	1.523154	-0.797573	-0.490807
C32	C	1.467362	-0.838835	-0.546564
C33	C	1.701084	-0.962720	-0.313164
C34	C	1.756874	-0.921463	-0.257412
C35	C	1.734763	-0.838906	-0.279460
C36	C	1.656855	-0.797608	-0.357255
C37	C	1.790555	-0.797643	-0.223702
C38	C	1.768438	-0.715088	-0.245745
C39	C	1.634737	-0.715053	-0.379297
C40	C	1.884731	-0.380566	-0.401864
C41	C	2.000886	-0.380573	-0.401871
C42	C	1.612283	-0.380357	-0.674470
C43	C	1.612336	-0.380274	-0.790645
C44	C	1.557149	-0.174366	-0.456950
C45	C	1.533708	-0.086503	-0.480431
C46	C	1.612077	-0.380686	-0.130301
C47	C	1.612166	-0.380546	-0.014186
C48	C	1.535511	-0.332787	0.024792
C49	C	1.535602	-0.332641	0.144803
H50	H	1.241183	-0.469772	-0.495704
H51	H	1.813868	-0.681496	-0.200345
O52	O	1.866230	-0.837637	-0.148061
C53	C	1.910752	-0.783519	-0.103599
H54	H	1.852197	-0.724696	-0.115652
H55	H	1.928317	-0.807433	-0.014886
H56	H	1.987742	-0.774667	-0.144302
O57	O	1.457056	-0.284248	-0.041400
C58	C	1.402139	-0.329737	-0.092128
H59	H	1.412887	-0.391967	-0.042320
H60	H	1.313935	-0.301585	-0.100950
H61	H	1.435187	-0.332441	-0.174133
O62	O	1.025429	-0.477671	-0.504071
C63	C	0.914505	-0.466779	-0.492573
H64	H	0.883372	-0.405751	-0.474771
H65	H	0.874453	-0.472154	-0.569370
H66	H	0.895994	-0.513625	-0.424285
O67	O	1.040804	-0.331549	-0.350040
C68	C	1.018690	-0.348749	-0.241237
H69	H	1.005471	-0.411880	-0.218939
H70	H	1.088658	-0.341960	-0.191490
H71	H	0.944061	-0.306318	-0.225300
O72	O	1.832432	-0.961537	-0.181697
C73	C	1.804246	-0.941441	-0.082894
H74	H	1.714697	-0.918803	-0.083589
H75	H	1.827817	-0.995765	-0.016759
H76	H	1.847433	-0.893506	-0.068437
H77	H	1.168913	-0.339394	-0.358565
O78	O	1.559142	-0.675017	-0.455006
C79	C	1.587367	-0.695069	-0.553824
H80	H	1.643579	-0.754990	-0.540027
H81	H	1.512703	-0.697885	-0.599878
H82	H	1.628642	-0.648550	-0.601476
H83	H	1.505140	-0.730351	-0.508745
H84	H	1.677863	-0.421322	0.041291
H85	H	1.403927	-0.805213	-0.609925
O86	O	1.357955	-0.922651	-0.655865
C87	C	1.313480	-0.976766	-0.700382
H88	H	1.325624	-1.035653	-0.641853
H89	H	1.224767	-0.952944	-0.717837
H90	H	1.354082	-0.985460	-0.777453
O91	O	1.690773	-0.429018	0.169431
C92	C	1.790042	-0.411147	0.190983
H93	H	1.783950	-0.380703	0.262014
H94	H	1.852608	-0.467938	0.209892
H95	H	1.813841	-0.370349	0.118472
H96	H	1.469973	-0.291756	0.178373
H97	H	1.652935	-1.078878	-0.361325
O98	O	1.401790	-1.085375	-0.612409
C99	C	1.474039	-1.133022	-0.667254
H100	H	1.556551	-1.145373	-0.627174
H101	H	1.447029	-1.191089	-0.665712
H102	H	1.476960	-1.101135	-0.753223
H103	H	1.719091	-1.029942	-0.295222
