data_functionalizedCrystal
_audit_creation_method	'MofGen! by Chris Wilmer'
_symmetry_space_group_name_H-M	'P1'
_symmetry_Int_Tables_number	1
_symmetry_cell_setting	triclinic
loop_
_symmetry_equiv_pos_as_xyz
  x,y,z
_cell_length_a	12.827893
_cell_length_b	25.639239
_cell_length_c	12.827885
_cell_angle_alpha	89.963828
_cell_angle_beta	89.980538
_cell_angle_gamma	90.038847
loop_
_atom_site_label
_atom_site_type_symbol
_atom_site_fract_x
_atom_site_fract_y
_atom_site_fract_z
Zn1	Zn	1.597502	-0.208122	-0.590804
Zn2	Zn	1.597325	-0.295568	-0.416045
Zn3	Zn	1.422743	-0.208148	-0.416077
Zn4	Zn	1.422658	-0.295529	-0.590745
O5	O	1.510057	-0.251842	-0.503418
O6	O	1.743715	-0.219727	-0.567633
O7	O	1.574128	-0.283998	-0.269813
O8	O	1.446035	-0.134980	-0.439293
O9	O	1.743584	-0.283973	-0.439238
O10	O	1.574430	-0.134960	-0.567664
O11	O	1.445863	-0.219772	-0.269837
O12	O	1.276496	-0.219734	-0.439236
O13	O	1.445890	-0.283907	-0.736989
O14	O	1.276433	-0.283932	-0.567564
O15	O	1.574348	-0.219690	-0.737032
O16	O	1.574045	-0.368728	-0.439181
O17	O	1.445718	-0.368699	-0.567533
C18	C	1.238547	-0.251832	-0.503398
C19	C	1.122394	-0.251841	-0.503414
C20	C	1.070674	-0.220106	-0.567047
C21	C	0.950623	-0.220114	-0.567065
C22	C	1.509881	-0.387684	-0.503370
C23	C	1.509902	-0.445798	-0.503384
C24	C	1.577051	-0.806164	-0.436699
C25	C	1.577092	-0.860768	-0.436713
O26	O	1.634003	-0.889007	-0.379962
N27	N	1.510241	-0.888081	-0.503487
C28	C	1.443352	-0.860786	-0.570259
O29	O	1.386495	-0.889032	-0.627057
C30	C	1.443318	-0.806183	-0.570249
C31	C	1.510166	-0.778873	-0.503463
C32	C	1.643895	-0.778854	-0.369920
C33	C	1.643853	-0.724253	-0.369904
C34	C	1.576967	-0.696963	-0.436669
C35	C	1.510124	-0.724273	-0.503448
C36	C	1.376436	-0.778890	-0.637026
C37	C	1.376407	-0.724283	-0.637011
C38	C	1.443255	-0.696973	-0.570225
C39	C	1.443196	-0.642382	-0.570198
N40	N	1.510047	-0.615069	-0.503424
C41	C	1.576933	-0.642359	-0.436659
C42	C	1.443431	-0.975457	-0.570275
C43	C	1.443460	-1.030059	-0.570280
C44	C	1.577201	-1.030037	-0.436735
C45	C	1.577166	-0.975434	-0.436726
C46	C	1.510282	-0.948144	-0.503501
C47	C	1.576838	-0.527694	-0.436632
C48	C	1.576787	-0.473089	-0.436620
C49	C	1.443051	-0.473116	-0.570168
C50	C	1.443097	-0.527716	-0.570177
C51	C	1.510000	-0.555004	-0.503405
O52	O	1.386318	-0.614108	-0.626923
O53	O	1.633790	-0.614107	-0.379880
C54	C	1.782627	-0.251852	-0.503438
C55	C	1.898780	-0.251856	-0.503447
C56	C	1.510129	-0.251791	-0.775988
C57	C	1.510160	-0.251769	-0.892141
C58	C	1.510262	-0.115469	-0.503489
C59	C	1.510349	-0.057355	-0.503519
C60	C	1.573762	-0.219965	-1.063992
C61	C	1.573732	-0.219987	-0.943941
C62	C	1.510046	-0.251854	-0.231908
C63	C	1.510217	-0.251729	-0.115755
H64	H	1.115271	-0.192929	-0.621508
N65	N	1.304255	-0.694855	-0.709032
H66	H	1.255831	-0.672242	-0.666517
H67	H	1.346749	-0.672189	-0.757482
H68	H	1.698367	-0.801068	-0.315552
N69	N	0.891718	-0.184126	-0.639239
H70	H	0.814309	-0.189234	-0.629023
H71	H	0.910773	-0.146766	-0.623124
N72	N	1.370996	-0.557177	-0.642202
H73	H	1.322610	-0.579875	-0.599700
H74	H	1.328685	-0.531568	-0.684477
H75	H	1.628191	-0.192757	-1.108552
H76	H	1.455747	-0.278962	-0.936650
H77	H	0.943252	-0.279029	-0.448972
H78	H	1.455796	-0.278941	-1.071195
N79	N	1.063326	-0.287834	-0.431261
H80	H	1.018032	-0.312071	-0.473688
H81	H	1.114397	-0.308977	-0.388805
H82	H	1.631223	-0.450855	-0.382231
H83	H	1.388590	-0.450887	-0.624524
N84	N	1.649355	-1.059479	-0.364736
H85	H	1.691704	-1.033896	-0.322427
H86	H	1.606860	-1.082176	-0.316345
H87	H	1.698289	-0.702021	-0.315525
N88	N	1.648996	-0.557121	-0.364617
H89	H	1.691328	-0.531529	-0.322315
H90	H	1.606503	-0.579817	-0.316221
N91	N	1.649269	-0.945980	-0.364697
H92	H	1.691641	-0.971559	-0.322407
H93	H	1.697596	-0.923287	-0.407274
N94	N	1.371342	-1.059512	-0.642294
H95	H	1.328966	-1.033933	-0.684581
H96	H	1.413861	-1.082128	-0.690705
N97	N	1.371279	-0.946025	-0.642292
H98	H	1.328938	-0.971617	-0.684588
H99	H	1.322925	-0.923411	-0.599707
H100	H	1.321996	-0.801116	-0.691405
N101	N	1.645808	-0.183966	-0.884988
H102	H	1.635575	-0.189090	-0.807585
H103	H	1.720446	-0.192102	-0.904020
