data_functionalizedCrystal
_audit_creation_method	'MofGen! by Chris Wilmer'
_symmetry_space_group_name_H-M	'P1'
_symmetry_Int_Tables_number	1
_symmetry_cell_setting	triclinic
loop_
_symmetry_equiv_pos_as_xyz
  x,y,z
_cell_length_a	11.169417
_cell_length_b	12.759399
_cell_length_c	12.759401
_cell_angle_alpha	89.991679
_cell_angle_beta	90.005398
_cell_angle_gamma	89.984005
loop_
_atom_site_label
_atom_site_type_symbol
_atom_site_fract_x
_atom_site_fract_y
_atom_site_fract_z
Zn1	Zn	1.834752	0.418425	0.593973
Zn2	Zn	1.834675	0.594071	0.418292
Zn3	Zn	1.634088	0.418410	0.418313
Zn4	Zn	1.634028	0.594065	0.593934
O5	O	1.734386	0.506243	0.506128
O6	O	2.002691	0.441734	0.570677
O7	O	1.808059	0.570766	0.271274
O8	O	1.660764	0.271391	0.441640
O9	O	2.002635	0.570780	0.441605
O10	O	1.808190	0.271402	0.570697
O11	O	1.660689	0.441708	0.271290
O12	O	1.466130	0.441702	0.441602
O13	O	1.660662	0.570770	0.740960
O14	O	1.466086	0.570755	0.570630
O15	O	1.808132	0.441728	0.740989
O16	O	1.808001	0.741092	0.441566
O17	O	1.660587	0.741087	0.570610
C18	C	1.734312	0.779210	0.506105
C19	C	1.734390	0.895987	0.506129
C20	C	1.422561	0.506227	0.506115
C21	C	1.289161	0.506245	0.506134
C22	C	1.734399	0.506250	0.780162
C23	C	1.734405	0.506253	0.896938
C24	C	2.047428	0.506260	0.506143
C25	C	2.180828	0.506267	0.506149
C26	C	1.734492	0.232210	0.506175
C27	C	1.734538	0.115433	0.506195
C28	C	1.811236	0.950816	0.439013
C29	C	1.811314	1.060540	0.439048
C30	C	1.657688	1.060596	0.573319
C31	C	1.657618	0.950874	0.573289
C32	C	1.811183	0.439072	0.951817
C33	C	1.811173	0.439070	1.061541
C34	C	1.657602	0.573439	1.061498
C35	C	1.657607	0.573435	0.951776
C36	C	1.734371	0.506259	1.233161
C37	C	1.734389	0.506255	1.116384
H38	H	1.873891	1.105177	0.384397
H39	H	1.595077	0.628142	0.907093
C40	C	1.454440	1.094496	0.624364
C41	C	1.573293	1.120926	0.647134
H42	H	1.402338	1.131735	0.669940
H43	H	1.436954	1.112527	0.553776
H44	H	1.443420	1.021300	0.633953
H45	H	1.584316	1.194122	0.637538
H46	H	1.590785	1.102902	0.717740
H47	H	1.595079	0.628139	1.106160
C48	C	1.827896	0.297740	1.184939
C49	C	1.895568	0.365216	1.121859
H50	H	1.880001	0.252138	1.222170
H51	H	1.782180	0.337749	1.233303
H52	H	1.775627	0.257558	1.142120
H53	H	1.947832	0.405405	1.164679
H54	H	1.941305	0.325203	1.073489
C55	C	1.598972	0.917058	0.751141
C56	C	1.573140	0.890599	0.647069
H57	H	1.546819	0.879851	0.796688
H58	H	1.679578	0.899009	0.766562
H59	H	1.588019	0.990261	0.760757
H60	H	1.584102	0.817396	0.637451
H61	H	1.492515	0.908642	0.631643
C62	C	1.869707	0.261171	0.918076
C63	C	1.895584	0.365215	0.891538
H64	H	1.921809	0.215573	0.880859
H65	H	1.880694	0.251568	0.991268
H66	H	1.789072	0.245806	0.900080
H67	H	1.976217	0.380582	0.909541
H68	H	1.884607	0.374822	0.818329
H69	H	1.873751	0.906130	0.384329
