data_functionalizedCrystal
_audit_creation_method	'MofGen! by Chris Wilmer'
_symmetry_space_group_name_H-M	'P1'
_symmetry_Int_Tables_number	1
_symmetry_cell_setting	triclinic
loop_
_symmetry_equiv_pos_as_xyz
  x,y,z
_cell_length_a	19.188930
_cell_length_b	10.654550
_cell_length_c	9.130313
_cell_angle_alpha	90.004369
_cell_angle_beta	89.982598
_cell_angle_gamma	96.185145
loop_
_atom_site_label
_atom_site_type_symbol
_atom_site_fract_x
_atom_site_fract_y
_atom_site_fract_z
O1	O	0.927169	-0.156780	-0.122270
O2	O	0.723996	-0.177885	-0.122170
O3	O	0.830254	0.015506	-0.122213
O4	O	0.820911	-0.350170	-0.122227
O5	O	0.830247	0.015511	0.121386
O6	O	0.723989	-0.177879	0.121429
O7	O	0.927162	-0.156774	0.121329
Cu8	Cu	0.825575	-0.167326	0.143621
Cu9	Cu	0.825583	-0.167333	-0.144463
O10	O	0.820904	-0.350165	0.121372
C11	C	0.697977	-0.177199	-0.000358
C12	C	0.620459	-0.175147	-0.000319
C13	C	0.576277	-0.288622	-0.000346
C14	C	0.503441	-0.286695	-0.000362
C15	C	0.474789	-0.171286	-0.000381
C16	C	0.518981	-0.057795	-0.000345
C17	C	0.591816	-0.059726	-0.000314
N18	N	0.366235	-0.083071	-0.083343
N19	N	0.297044	-0.081245	-0.083376
C20	C	0.255343	-0.165461	-0.000470
N21	N	0.285444	-0.251592	0.082451
N22	N	0.354641	-0.253423	0.082477
C23	C	0.395813	-0.169179	-0.000413
C24	C	0.132183	-0.276855	-0.000512
C25	C	0.059345	-0.274922	-0.000519
C26	C	0.074887	-0.046020	-0.000517
C27	C	0.147723	-0.047955	-0.000495
C28	C	0.176366	-0.163376	-0.000500
C29	C	0.829564	0.062292	-0.000414
C30	C	0.827512	0.201692	-0.000415
C31	C	0.953181	-0.157460	-0.000487
C32	C	1.030699	-0.159512	-0.000535
C33	C	0.821594	-0.396951	-0.000430
C34	C	0.823646	-0.536351	-0.000439
N35	N	0.825574	-0.167321	0.346244
C36	C	0.890075	0.282501	-0.000447
C37	C	0.888142	0.413481	-0.000464
C38	C	0.761078	0.382829	-0.000412
C39	C	0.763011	0.251852	-0.000405
N40	N	0.825590	-0.167328	-0.347085
C41	C	0.872641	-0.081723	0.422877
C42	C	0.872647	-0.081723	0.576213
C43	C	0.778518	-0.252930	0.576271
C44	C	0.778508	-0.252923	0.422937
H45	H	0.495648	0.036172	-0.000380
H46	H	0.942595	0.241666	-0.000458
O47	O	0.918437	0.001472	0.650427
C48	C	1.011773	0.171333	0.634177
C49	C	0.959964	0.077157	0.549950
H50	H	1.045351	0.232567	0.552979
H51	H	1.046961	0.117330	0.705887
H52	H	0.981322	0.233882	0.706038
H53	H	0.990358	0.014585	0.478010
H54	H	0.924776	0.131239	0.478332
H55	H	0.599593	-0.382607	-0.000353
H56	H	0.939088	0.479272	-0.000493
H57	H	0.467461	-0.379103	-0.000380
H58	H	0.627789	0.032682	-0.000293
O59	O	0.047180	0.066201	-0.000468
C60	C	0.070281	0.293033	-0.000546
C61	C	0.101757	0.166029	-0.000576
H62	H	0.114392	0.373777	-0.000664
H63	H	0.036573	0.299748	0.101412
H64	H	0.036569	0.299589	-0.102479
H65	H	0.135501	0.159387	0.101289
H66	H	0.135425	0.159368	-0.102601
O67	O	0.732707	-0.335958	0.650713
C68	C	0.611670	-0.410123	0.697670
C69	C	0.663472	-0.316002	0.613303
H70	H	0.555683	-0.394038	0.667432
H71	H	0.619702	-0.395426	0.820443
H72	H	0.621282	-0.510656	0.667515
H73	H	0.653892	-0.215431	0.643335
H74	H	0.655428	-0.330809	0.490551
H75	H	0.183697	0.044449	-0.000481
O76	O	0.698366	0.431349	-0.000457
C77	C	0.572540	0.387121	-0.000319
C78	C	0.643514	0.332009	-0.000305
H79	H	0.528174	0.306832	-0.000164
H80	H	0.568416	0.447620	-0.102290
H81	H	0.568491	0.447728	0.101602
H82	H	0.647611	0.271346	-0.102156
H83	H	0.647608	0.271582	0.101733
H84	H	0.155505	-0.370837	-0.000495
H85	H	0.023373	-0.367332	-0.000533
O86	O	0.732855	-0.336254	0.348555
C87	C	0.692962	-0.554792	0.301697
C88	C	0.744713	-0.460568	0.385999
H89	H	0.702521	-0.655320	0.331963
H90	H	0.701037	-0.540189	0.178914
H91	H	0.636974	-0.538608	0.331882
H92	H	0.800722	-0.476694	0.355936
H93	H	0.736576	-0.475194	0.508761
H94	H	0.712062	0.186053	-0.000384
H95	H	0.910963	-0.012019	0.360436
