data_functionalizedCrystal
_audit_creation_method	'MofGen! by Chris Wilmer'
_symmetry_space_group_name_H-M	'P1'
_symmetry_Int_Tables_number	1
_symmetry_cell_setting	triclinic
loop_
_symmetry_equiv_pos_as_xyz
  x,y,z
_cell_length_a	12.594516
_cell_length_b	11.169417
_cell_length_c	12.594509
_cell_angle_alpha	90.017667
_cell_angle_beta	89.972932
_cell_angle_gamma	89.980949
loop_
_atom_site_label
_atom_site_type_symbol
_atom_site_fract_x
_atom_site_fract_y
_atom_site_fract_z
Zn1	Zn	-0.423685	-1.834871	-0.601765
Zn2	Zn	-0.601695	-1.834741	-0.423790
Zn3	Zn	-0.423734	-1.634165	-0.423805
Zn4	Zn	-0.601625	-1.634137	-0.601731
O5	O	-0.512685	-1.734479	-0.512773
O6	O	-0.447308	-2.002804	-0.578164
O7	O	-0.578138	-1.808091	-0.274846
O8	O	-0.274782	-1.660855	-0.447432
O9	O	-0.578091	-2.002708	-0.447406
O10	O	-0.274746	-1.808313	-0.578178
O11	O	-0.447391	-1.660729	-0.274857
O12	O	-0.447322	-1.466212	-0.447400
O13	O	-0.577971	-1.660808	-0.750682
O14	O	-0.578018	-1.466191	-0.578121
O15	O	-0.447239	-1.808287	-0.750706
O16	O	-0.750632	-1.808064	-0.447374
O17	O	-0.750580	-1.660682	-0.578107
C18	C	-0.789226	-1.734388	-0.512758
C19	C	-0.907531	-1.734460	-0.512787
C20	C	-0.512669	-1.422654	-0.512759
C21	C	-0.512687	-1.289254	-0.512778
C22	C	-1.047558	-1.654364	-0.583857
C23	C	-0.976646	-1.763779	-0.609965
C24	C	-0.976872	-1.625055	-0.486727
C25	C	-1.047404	-1.844129	-0.538986
C26	C	-1.047637	-1.705331	-0.415702
C27	C	-0.976756	-1.814822	-0.441773
C28	C	-0.512592	-1.734559	-0.790394
C29	C	-0.512552	-1.734593	-0.908699
C30	C	-0.235064	-1.734602	-0.512811
C31	C	-0.116758	-1.734654	-0.512827
C32	C	-0.512702	-2.047521	-0.512787
C33	C	-0.512709	-2.180921	-0.512793
C34	C	-0.583616	-1.654405	-0.977939
C35	C	-0.609621	-1.763916	-1.048724
C36	C	-0.486483	-1.625168	-1.048714
C37	C	-0.538608	-1.844162	-0.977926
C38	C	-0.415424	-1.705339	-0.977909
C39	C	-0.441392	-1.814926	-1.048662
C40	C	-0.512701	-1.734468	-0.236232
C41	C	-0.512441	-1.734666	-0.117927
H42	H	-0.945466	-1.788506	-0.692085
O43	O	-0.306732	-1.672447	-0.936647
H44	H	-0.252698	-1.655223	-1.004589
H45	H	-1.078259	-1.936761	-0.561139
H46	H	-0.945866	-1.882717	-0.381688
O47	O	-1.088978	-1.672536	-0.306958
H48	H	-1.059374	-1.738209	-0.247834
H49	H	-0.691712	-1.788699	-1.079829
O50	O	-1.088749	-1.564642	-0.663495
H51	H	-1.060312	-1.589195	-0.744041
O52	O	-0.935889	-1.502380	-0.457450
H53	H	-0.964282	-1.435981	-0.516529
O54	O	-0.663337	-1.564660	-0.936775
H55	H	-0.743856	-1.589271	-0.965132
O56	O	-0.567343	-1.966982	-0.936927
H57	H	-0.567002	-1.966035	-0.848802
H58	H	-0.381248	-1.882848	-1.079519
H59	H	-0.464480	-1.532598	-1.079808
