data_functionalizedCrystal
_audit_creation_method	'MofGen! by Chris Wilmer'
_symmetry_space_group_name_H-M	'P1'
_symmetry_Int_Tables_number	1
_symmetry_cell_setting	triclinic
loop_
_symmetry_equiv_pos_as_xyz
  x,y,z
_cell_length_a	19.121241
_cell_length_b	19.120786
_cell_length_c	12.759393
_cell_angle_alpha	92.476000
_cell_angle_beta	92.466075
_cell_angle_gamma	94.790376
loop_
_atom_site_label
_atom_site_type_symbol
_atom_site_fract_x
_atom_site_fract_y
_atom_site_fract_z
Zn1	Zn	1.063782	-0.234303	0.647081
Zn2	Zn	1.563782	0.265697	1.147081
Zn3	Zn	1.058666	-0.351995	0.463546
Zn4	Zn	1.558666	0.148005	0.963546
Zn5	Zn	0.946106	-0.239347	0.463566
Zn6	Zn	1.446106	0.260653	0.963566
Zn7	Zn	0.941061	-0.356950	0.631343
Zn8	Zn	1.441061	0.143050	1.131343
O9	O	1.002404	-0.295649	0.551384
O10	O	1.502404	0.204351	1.051384
O11	O	1.161569	-0.245730	0.629313
O12	O	1.661569	0.254270	1.129313
O13	O	1.043705	-0.337090	0.316523
O14	O	1.543705	0.162910	0.816523
O15	O	0.965968	-0.140206	0.494505
O16	O	1.465968	0.359794	0.994505
O17	O	1.157810	-0.332198	0.494470
O18	O	1.657810	0.167802	0.994470
O19	O	1.052424	-0.136500	0.629333
O20	O	1.552424	0.363500	1.129333
O21	O	0.961007	-0.254328	0.316538
O22	O	1.461007	0.245672	0.816538
O23	O	0.846971	-0.259133	0.479244
O24	O	1.346971	0.240867	0.979244
O25	O	0.957370	-0.340643	0.780456
O26	O	1.457370	0.159357	1.280456
O27	O	0.843264	-0.345535	0.602509
O28	O	1.343264	0.154465	1.102509
O29	O	1.047532	-0.250535	0.792019
O30	O	1.547532	0.249465	1.292019
O31	O	1.038813	-0.451124	0.479209
O32	O	1.538813	0.048876	0.979209
O33	O	0.952409	-0.454765	0.602489
O34	O	1.452409	0.045235	1.102489
C35	C	0.819586	-0.303420	0.539172
C36	C	1.319586	0.196580	1.039172
C37	C	0.741376	-0.306761	0.533971
C38	C	1.241376	0.193239	1.033971
C39	C	0.706587	-0.263383	0.601831
C40	C	1.206587	0.236617	1.101831
C41	C	0.633100	-0.266519	0.596935
C42	C	1.133100	0.233481	1.096935
C43	C	0.594403	-0.313037	0.524184
C44	C	1.094403	0.186963	1.024184
C45	C	0.629197	-0.356417	0.456317
C46	C	1.129197	0.143583	0.956317
C47	C	0.702683	-0.353277	0.461208
C48	C	1.202683	0.146723	0.961208
C49	C	0.372425	-0.324764	0.505894
C50	C	0.872425	0.175236	1.005894
C51	C	0.298934	-0.327902	0.501010
C52	C	0.798934	0.172098	1.001010
C53	C	0.302842	-0.238003	0.641627
C54	C	0.802842	0.261997	1.141627
C55	C	0.376329	-0.234870	0.646516
C56	C	0.876329	0.265130	1.146516
C57	C	0.411117	-0.278247	0.578646
C58	C	0.911117	0.221753	1.078646
C59	C	0.519287	-0.316245	0.519181
C60	C	1.019287	0.183755	1.019181
C61	C	0.486231	-0.275035	0.583645
C62	C	0.986231	0.224965	1.083645
C63	C	0.994528	-0.478476	0.539164
C64	C	1.494528	0.021524	1.039164
C65	C	0.991223	-0.556688	0.533975
C66	C	1.491223	-0.056688	1.033975
C67	C	1.034650	-0.591443	0.601787
C68	C	1.534650	-0.091443	1.101787
C69	C	1.031541	-0.664931	0.596914
C70	C	1.531541	-0.164931	1.096914
C71	C	0.985010	-0.703663	0.524222
C72	C	1.485010	-0.203663	1.024222
C73	C	0.941578	-0.668903	0.456407
C74	C	1.441578	-0.168903	0.956407
C75	C	0.944683	-0.595416	0.461286
C76	C	1.444683	-0.095416	0.961286
C77	C	0.973381	-0.925645	0.505979
C78	C	1.473381	-0.425645	1.005979
C79	C	0.970280	-0.999137	0.501103
C80	C	1.470280	-0.499137	1.001103
C81	C	1.060243	-0.995160	0.641612
C82	C	1.560243	-0.495160	1.141612
C83	C	1.063347	-0.921672	0.646481
C84	C	1.563347	-0.421672	1.146481
C85	C	1.019913	-0.886919	0.578669
C86	C	1.519913	-0.386919	1.078669
C87	C	0.981833	-0.778780	0.519236
C88	C	1.481833	-0.278780	1.019236
C89	C	1.023087	-0.811803	0.583660
C90	C	1.523087	-0.311803	1.083660
C91	C	1.185935	-0.287848	0.563645
C92	C	1.685935	0.212152	1.063645
C93	C	1.264145	-0.284524	0.568870
C94	C	1.764145	0.215476	1.068870
C95	C	1.002459	-0.295579	0.825426
C96	C	1.502459	0.204421	1.325426
C97	C	1.002483	-0.295549	0.942206
C98	C	1.502483	0.204451	1.442206
C99	C	1.010329	-0.112107	0.563677
C100	C	1.510329	0.387893	1.063677
C101	C	1.013707	-0.033892	0.568915
C102	C	1.513707	0.466108	1.068915
C103	C	1.002391	-0.295666	0.278415
C104	C	1.502391	0.204334	0.778415
C105	C	1.002512	-0.295492	0.161658
C106	C	1.502512	0.204508	0.661658
C107	C	1.049434	-0.248622	1.003091
C108	C	1.549434	0.251378	1.503091
C109	C	1.049447	-0.248592	1.112818
C110	C	1.549447	0.251408	1.612818
C111	C	0.955556	-0.342421	1.100764
C112	C	1.455556	0.157579	1.600764
C113	C	0.955540	-0.342448	0.991039
C114	C	1.455540	0.157552	1.491039
C115	C	1.078195	-0.164497	1.270014
C116	C	1.578195	0.335503	1.770014
C117	C	1.125157	-0.117576	1.330903
C118	C	1.625157	0.382424	1.830903
C119	C	1.194277	-0.103864	1.300611
C120	C	1.694277	0.396136	1.800611
C121	C	1.216448	-0.137083	1.209431
C122	C	1.716448	0.362917	1.709431
C123	C	1.169489	-0.184009	1.148547
C124	C	1.669489	0.315991	1.648547
C125	C	1.100361	-0.197708	1.178838
C126	C	1.600361	0.302292	1.678838
C127	C	0.926799	-0.426543	0.833842
C128	C	1.426799	0.073457	1.333842
C129	C	0.879844	-0.473473	0.772956
C130	C	1.379844	0.026527	1.272956
C131	C	0.810723	-0.487192	0.803246
C132	C	1.310723	0.012808	1.303246
C133	C	0.788554	-0.453985	0.894429
C134	C	1.288554	0.046015	1.394429
C135	C	0.835509	-0.407055	0.955315
C136	C	1.335509	0.092945	1.455315
C137	C	0.904629	-0.393335	0.925017
C138	C	1.404629	0.106665	1.425017
H139	H	1.072544	-0.559912	0.660976
H140	H	1.572544	-0.059912	1.160976
Br141	Br	1.199571	-0.229093	1.024812
Br142	Br	1.699571	0.270907	1.524812
Br143	Br	0.984382	-0.183092	1.311121
Br144	Br	1.484382	0.316908	1.811121
Br145	Br	0.907130	-1.051701	0.402436
Br146	Br	1.407130	-0.551701	0.902436
Br147	Br	0.878417	-0.721466	0.357765
Br148	Br	1.378417	-0.221466	0.857765
Br149	Br	1.310263	-0.118484	1.168336
Br150	Br	1.810263	0.381516	1.668336
H151	H	0.732271	-0.465159	0.919094
H152	H	1.232271	0.034841	1.419094
H153	H	0.274510	-0.202687	0.696883
H154	H	0.774510	0.297313	1.196883
Br155	Br	0.914425	-0.878489	0.413961
Br156	Br	1.414425	-0.378489	0.913961
H157	H	1.066910	-0.693225	0.652126
H158	H	1.566910	-0.193225	1.152126
H159	H	0.487772	-0.354121	0.459946
H160	H	0.987772	0.145879	0.959946
H161	H	1.095604	-1.023465	0.696821
H162	H	1.595604	-0.523465	1.196821
H163	H	0.817453	-0.380017	1.029561
H164	H	1.317453	0.119983	1.529561
Br165	Br	0.419628	-0.383615	0.413757
Br166	Br	0.919628	0.116385	0.913757
H167	H	0.909319	-0.567119	0.406067
H168	H	1.409319	-0.067119	0.906067
H169	H	1.232513	-0.065659	1.350194
H170	H	1.732513	0.434341	1.850194
Br171	Br	0.576680	-0.419544	0.357574
Br172	Br	1.076680	0.080456	0.857574
H173	H	0.267428	-0.365786	0.441766
H174	H	0.767428	0.134214	0.941766
H175	H	1.107099	-0.090529	1.405142
H176	H	1.607099	0.409471	1.905142
Br177	Br	0.749897	-0.412148	0.369107
Br178	Br	1.249897	0.087852	0.869107
H179	H	1.060970	-0.780266	0.642850
H180	H	1.560970	-0.280266	1.142850
Br181	Br	0.538749	-0.211901	0.682370
Br182	Br	1.038749	0.288099	1.182370
H183	H	1.101237	-0.890138	0.705672
H184	H	1.601237	-0.390138	1.205672
Br185	Br	0.891853	-0.406068	1.167045
Br186	Br	1.391853	0.093932	1.667045
Br187	Br	1.113141	-0.184974	0.936820
Br188	Br	1.613141	0.315026	1.436820
Br189	Br	0.747003	-0.550901	0.720631
Br190	Br	1.247003	-0.050901	1.220631
Br191	Br	0.909934	-0.518549	0.649215
Br192	Br	1.409934	-0.018549	1.149215
H193	H	0.983082	-0.415371	0.809165
H194	H	1.483082	0.084629	1.309165
Br195	Br	0.759097	-0.200253	0.700577
Br196	Br	1.259097	0.299747	1.200577
H197	H	0.604778	-0.231197	0.652196
H198	H	1.104778	0.268803	1.152196
H199	H	0.407831	-0.196992	0.705762
H200	H	0.907831	0.303008	1.205762
H201	H	0.943948	-0.810323	0.460048
H202	H	1.443948	-0.310323	0.960048
