data_functionalizedCrystal
_audit_creation_method	'MofGen! by Chris Wilmer'
_symmetry_space_group_name_H-M	'P1'
_symmetry_Int_Tables_number	1
_symmetry_cell_setting	triclinic
loop_
_symmetry_equiv_pos_as_xyz
  x,y,z
_cell_length_a	10.723023
_cell_length_b	9.065218
_cell_length_c	7.540329
_cell_angle_alpha	90.001757
_cell_angle_beta	89.997180
_cell_angle_gamma	95.258283
loop_
_atom_site_label
_atom_site_type_symbol
_atom_site_fract_x
_atom_site_fract_y
_atom_site_fract_z
O1	O	1.658027	-0.206934	-0.147470
O2	O	1.294955	-0.226744	-0.147474
O3	O	1.483996	-0.002154	-0.147468
O4	O	1.468986	-0.431524	-0.147475
O5	O	1.483984	-0.002151	0.147497
O6	O	1.294944	-0.226741	0.147491
O7	O	1.658016	-0.206931	0.147495
Cu8	Cu	1.476479	-0.216836	0.174426
Cu9	Cu	1.476492	-0.216839	-0.174404
O10	O	1.468975	-0.431521	0.147490
C11	C	1.248444	-0.225301	0.000008
C12	C	1.109872	-0.220989	0.000007
C13	C	1.482547	0.052826	0.000012
C14	C	1.478234	0.216644	0.000003
N15	N	1.476478	-0.216833	0.419774
C16	C	1.048098	-0.219067	-0.152795
C17	C	0.904877	-0.214610	-0.152800
C18	C	1.704527	-0.208374	0.000009
C19	C	1.843099	-0.212687	-0.000001
C20	C	1.470423	-0.486501	0.000006
C21	C	1.474736	-0.650319	0.000003
N22	N	1.476502	-0.216831	-0.419753
H23	H	1.101242	-0.220730	-0.283610
H24	H	1.056727	-0.219342	0.130821
O25	O	0.906270	-0.214584	0.156240
C26	C	0.821006	-0.211970	0.298310
H27	H	0.732792	-0.162453	0.251339
H28	H	0.795449	-0.329703	0.347771
C29	C	0.989902	-0.177779	0.507823
C30	C	0.881560	-0.116950	0.450136
H31	H	1.027254	-0.119173	0.601481
H32	H	1.047346	-0.179546	0.412110
H33	H	0.968589	-0.275889	0.549029
H34	H	0.902876	-0.018850	0.408911
H35	H	0.824120	-0.115164	0.545846
H36	H	0.851754	-0.212954	-0.283619
