data_functionalizedCrystal
_audit_creation_method	'MofGen! by Chris Wilmer'
_symmetry_space_group_name_H-M	'P1'
_symmetry_Int_Tables_number	1
_symmetry_cell_setting	triclinic
loop_
_symmetry_equiv_pos_as_xyz
  x,y,z
_cell_length_a	16.109301
_cell_length_b	17.666332
_cell_length_c	16.109301
_cell_angle_alpha	89.993365
_cell_angle_beta	96.538468
_cell_angle_gamma	90.006891
loop_
_atom_site_label
_atom_site_type_symbol
_atom_site_fract_x
_atom_site_fract_y
_atom_site_fract_z
O1	O	1.103137	0.062909	-0.106868
O2	O	0.861076	0.062920	-0.120167
O3	O	0.988756	0.062907	0.007513
O4	O	0.975457	0.062923	-0.234549
O5	O	0.988734	-0.062990	0.007517
O6	O	0.861053	-0.062977	-0.120163
O7	O	1.103115	-0.062988	-0.106864
Cu8	Cu	0.982082	-0.074477	-0.113513
Cu9	Cu	0.982109	0.074410	-0.113518
O10	O	0.975434	-0.062974	-0.234545
C11	C	0.830089	-0.000027	-0.119627
C12	C	0.737794	-0.000023	-0.118011
C13	C	0.428796	-0.000032	-0.188494
C14	C	0.515516	-0.000027	-0.190020
C15	C	0.535389	-0.000027	-0.038531
C16	C	0.448671	-0.000026	-0.037007
C17	C	0.395376	-0.000032	-0.111991
C18	C	0.568815	-0.000029	-0.115041
C19	C	0.662841	-0.000024	-0.116694
C20	C	0.301344	-0.000036	-0.110338
N21	N	0.982069	-0.179197	-0.113510
C22	C	1.032471	-0.218799	-0.163955
C23	C	1.032485	-0.298047	-0.163953
C24	C	0.982080	-0.337689	-0.113515
C25	C	0.931675	-0.298077	-0.063059
C26	C	0.931670	-0.218831	-0.063057
N27	N	0.909260	-0.462126	-0.111264
N28	N	0.909267	-0.537406	-0.111271
C29	C	0.982096	-0.576453	-0.113518
N30	N	1.054917	-0.537376	-0.115773
N31	N	1.054908	-0.462088	-0.115771
C32	C	0.982081	-0.423618	-0.113511
C33	C	1.032516	-0.701985	-0.163963
C34	C	1.032531	-0.781234	-0.163955
C35	C	0.931714	-0.781263	-0.063066
C36	C	0.931707	-0.702015	-0.063069
C37	C	0.982107	-0.662381	-0.113522
C38	C	1.134101	-0.000039	-0.107405
C39	C	1.226396	-0.000038	-0.109020
C40	C	0.988206	-0.000042	0.038490
C41	C	0.986591	-0.000043	0.130785
N42	N	0.982128	0.179129	-0.113515
C43	C	0.975984	-0.000024	-0.265522
C44	C	0.977599	-0.000018	-0.357817
C45	C	1.058599	-0.000034	0.353058
C46	C	1.057075	-0.000028	0.439778
C47	C	0.905586	-0.000024	0.419904
C48	C	0.907111	-0.000025	0.333185
C49	C	0.983620	-0.000034	0.299765
C50	C	0.980571	-0.000027	0.473204
C51	C	0.978918	-0.000020	0.567230
C52	C	0.985273	-0.000039	0.205733
H53	H	0.385405	-0.000036	-0.249551
O54	O	0.551566	-0.000039	-0.272534
H55	H	0.499935	-0.000051	-0.324415
O56	O	0.877326	-0.176116	-0.008621
H57	H	0.885802	-0.114352	-0.017082
H58	H	0.578792	-0.000024	0.022518
O59	O	0.823068	-0.000020	0.455950
H60	H	0.787033	-0.051331	0.434538
H61	H	0.421461	-0.000024	0.025296
O62	O	1.086853	-0.340765	-0.218368
H63	H	1.131557	-0.376862	-0.178525
H64	H	1.073555	-0.669713	-0.205044
O65	O	1.086830	-0.176049	-0.218367
H66	H	1.121884	-0.216906	-0.253441
O67	O	0.877305	-0.340827	-0.008660
H68	H	0.885768	-0.402586	-0.017144
H69	H	0.846050	-0.000023	0.289791
H70	H	1.118130	-0.000027	0.483167
O71	O	1.086896	-0.823954	-0.218366
H72	H	1.121932	-0.783077	-0.253452
H73	H	0.890675	-0.813539	-0.021997
H74	H	1.120897	-0.000040	0.325850
O75	O	0.877333	-0.659293	-0.008672
H76	H	0.842279	-0.700170	0.026397
