data_functionalizedCrystal
_audit_creation_method	'MofGen! by Chris Wilmer'
_symmetry_space_group_name_H-M	'P1'
_symmetry_Int_Tables_number	1
_symmetry_cell_setting	triclinic
loop_
_symmetry_equiv_pos_as_xyz
  x,y,z
_cell_length_a	11.026607
_cell_length_b	10.654545
_cell_length_c	9.130313
_cell_angle_alpha	90.003278
_cell_angle_beta	90.000952
_cell_angle_gamma	96.534548
loop_
_atom_site_label
_atom_site_type_symbol
_atom_site_fract_x
_atom_site_fract_y
_atom_site_fract_z
O1	O	0.170738	1.704906	0.121780
O2	O	0.187013	1.342959	0.121786
O3	O	0.001971	1.493935	0.121778
O4	O	0.355781	1.553930	0.121788
O5	O	0.001971	1.493920	-0.121821
O6	O	0.187013	1.342945	-0.121813
O7	O	0.170738	1.704891	-0.121819
Cu8	Cu	0.178876	1.523917	-0.144058
Cu9	Cu	0.178876	1.523934	0.144025
O10	O	0.355781	1.553916	-0.121811
C11	C	0.185819	1.295895	-0.000013
C12	C	0.182248	1.155676	-0.000011
C13	C	0.180566	1.089798	-0.132797
C14	C	0.177190	0.958046	-0.132797
C15	C	0.177182	0.958061	0.132787
C16	C	0.180549	1.089810	0.132786
C17	C	-0.043333	1.482859	-0.000019
C18	C	-0.178324	1.449865	-0.000014
C19	C	-0.251365	1.540968	-0.000013
C20	C	-0.390886	1.506869	-0.000007
C21	C	0.401085	1.564991	-0.000010
C22	C	0.536076	1.597985	-0.000006
C23	C	0.171932	1.751955	-0.000017
C24	C	0.175504	1.892174	-0.000010
N25	N	0.178875	1.523913	-0.346681
C26	C	0.253301	1.616901	-0.423327
C27	C	0.253294	1.616919	-0.576664
C28	C	0.104432	1.430953	-0.576696
C29	C	0.104433	1.430940	-0.423362
N30	N	0.178867	1.523945	0.346648
H31	H	0.181949	1.143423	-0.240929
H32	H	0.175821	0.904415	-0.240926
H33	H	-0.431639	1.403621	0.000004
O34	O	0.024156	1.330665	-0.659398
H35	H	0.036668	1.346284	-0.778899
O36	O	-0.409962	1.734755	0.000007
H37	H	-0.440742	1.782246	-0.099270
O38	O	0.182360	1.160864	0.276021
H39	H	0.101163	1.213374	0.282366
O40	O	0.333566	1.717221	-0.659325
H41	H	0.321050	1.701625	-0.778831
O42	O	0.024161	1.330639	-0.340676
H43	H	-0.027588	1.265978	-0.419754
H44	H	-0.210606	1.644209	-0.000024
H45	H	0.313916	1.692606	-0.360898
O46	O	0.175368	0.887023	0.276015
H47	H	0.172758	0.784343	0.253711
H48	H	-0.219083	1.346624	-0.000003
