data_functionalizedCrystal
_audit_creation_method	'MofGen! by Chris Wilmer'
_symmetry_space_group_name_H-M	'P1'
_symmetry_Int_Tables_number	1
_symmetry_cell_setting	triclinic
loop_
_symmetry_equiv_pos_as_xyz
  x,y,z
_cell_length_a	18.215407
_cell_length_b	12.827892
_cell_length_c	18.215399
_cell_angle_alpha	89.976162
_cell_angle_beta	89.982632
_cell_angle_gamma	90.012835
loop_
_atom_site_label
_atom_site_type_symbol
_atom_site_fract_x
_atom_site_fract_y
_atom_site_fract_z
Zn1	Zn	1.125120	-0.416115	-0.416088
Zn2	Zn	1.125049	-0.590874	-0.293031
Zn3	Zn	1.002053	-0.416140	-0.293041
Zn4	Zn	1.002039	-0.590807	-0.416061
O5	O	1.063566	-0.503484	-0.354555
O6	O	1.228095	-0.439315	-0.399772
O7	O	1.108710	-0.567734	-0.190048
O8	O	1.018414	-0.269901	-0.309379
O9	O	1.228043	-0.567710	-0.309362
O10	O	1.108831	-0.269882	-0.399782
O11	O	1.018345	-0.439358	-0.190056
O12	O	0.899067	-0.439292	-0.309353
O13	O	1.018390	-0.567595	-0.519049
O14	O	0.899057	-0.567619	-0.399735
O15	O	1.108818	-0.439250	-0.519069
O16	O	1.108696	-0.737101	-0.309336
O17	O	1.018321	-0.737052	-0.399725
C18	C	0.872359	-0.503452	-0.354543
C19	C	0.790560	-0.503463	-0.354555
C20	C	0.602393	-0.436746	-0.401705
C21	C	0.525534	-0.436755	-0.401708
C22	C	0.525490	-0.570252	-0.307419
C23	C	0.602348	-0.570237	-0.307413
C24	C	0.640797	-0.503485	-0.354560
C25	C	0.487081	-0.503509	-0.354569
C26	C	0.403747	-0.503519	-0.354571
C27	C	0.724136	-0.503473	-0.354557
C28	C	1.063519	-0.774994	-0.354542
C29	C	1.063567	-0.891147	-0.354562
C30	C	1.108341	-0.942922	-0.309883
C31	C	1.108391	-1.062972	-0.309902
C32	C	1.255518	-0.503517	-0.354569
C33	C	1.337317	-0.503531	-0.354575
C34	C	1.063610	-0.503412	-0.546508
C35	C	1.063629	-0.503381	-0.628307
C36	C	1.063632	-0.230914	-0.354585
C37	C	1.063660	-0.114761	-0.354597
C38	C	1.110732	-0.436489	-0.816513
C39	C	1.110741	-0.436459	-0.893372
C40	C	1.016579	-0.570112	-0.893340
C41	C	1.016567	-0.570136	-0.816482
C42	C	1.063648	-0.503327	-0.778071
C43	C	1.063668	-0.503272	-0.931787
C44	C	1.063678	-0.503239	-1.015121
C45	C	1.063638	-0.503357	-0.694732
C46	C	1.063563	-0.503480	-0.163349
C47	C	1.063687	-0.503217	-0.081551
H48	H	0.633696	-0.382389	-0.440093
H49	H	1.149066	-0.382086	-0.785241
C50	C	1.162539	-0.362935	-0.935655
N51	N	1.201555	-0.307554	-0.967502
C52	C	0.483293	-0.363339	-0.453573
N53	N	0.451477	-0.308039	-0.492640
H54	H	0.494176	-0.624599	-0.269034
C55	C	1.160176	-1.123120	-0.258224
N56	N	1.199183	-1.168426	-0.219298
C57	C	0.644595	-0.643659	-0.255547
N58	N	0.676415	-0.698956	-0.216482
C59	C	1.011871	-1.054619	-0.406276
N60	N	0.972864	-1.009313	-0.445202
C61	C	0.964792	-0.643596	-0.935599
N62	N	0.925784	-0.698946	-0.967429
H63	H	1.146639	-0.898374	-0.271621
H64	H	1.025275	-0.935698	-0.392829
C65	C	0.964766	-0.643663	-0.774194
N66	N	0.925749	-0.699038	-0.742342
