data_functionalizedCrystal
_audit_creation_method	'MofGen! by Chris Wilmer'
_symmetry_space_group_name_H-M	'P1'
_symmetry_Int_Tables_number	1
_symmetry_cell_setting	triclinic
loop_
_symmetry_equiv_pos_as_xyz
  x,y,z
_cell_length_a	10.723023
_cell_length_b	27.732048
_cell_length_c	9.798715
_cell_angle_alpha	90.008331
_cell_angle_beta	90.003564
_cell_angle_gamma	83.555101
loop_
_atom_site_label
_atom_site_type_symbol
_atom_site_fract_x
_atom_site_fract_y
_atom_site_fract_z
O1	O	1.654383	0.067787	0.113504
O2	O	1.290962	0.074277	0.113509
O3	O	1.483959	0.000705	0.113480
O4	O	1.461385	0.141359	0.113532
O5	O	1.483945	0.000705	-0.113502
O6	O	1.290947	0.074276	-0.113473
O7	O	1.654368	0.067787	-0.113478
Zn8	Zn	1.472656	0.071031	-0.149514
Zn9	Zn	1.472674	0.071032	0.149545
O10	O	1.461371	0.141358	-0.113450
C11	C	1.244474	0.073804	0.000018
C12	C	1.105978	0.072392	0.000019
C13	C	1.044240	0.071762	0.117603
C14	C	0.901098	0.070302	0.117606
C15	C	1.483478	-0.017305	-0.000015
C16	C	1.482051	-0.070968	-0.000026
C17	C	1.587117	-0.409131	0.000043
C18	C	1.581823	-0.610824	0.000062
O19	O	1.677899	-0.641483	0.000120
N20	N	1.467384	-0.630658	0.000062
C21	C	1.354259	-0.600066	0.000067
O22	O	1.256800	-0.621564	0.000081
C23	C	1.359555	-0.398374	0.000057
C24	C	1.474002	-0.378543	0.000043
C25	C	1.701555	-0.389299	0.000030
C26	C	1.702877	-0.338879	0.000018
C27	C	1.589762	-0.308291	0.000018
C28	C	1.475324	-0.328123	0.000031
C29	C	1.246432	-0.367783	0.000072
C30	C	1.247766	-0.317357	0.000073
C31	C	1.362213	-0.297526	0.000059
C32	C	1.363531	-0.247114	0.000019
N33	N	1.477971	-0.227280	0.000019
C34	C	1.591086	-0.257868	0.000018
C35	C	1.351487	-0.705957	0.000069
C36	C	1.350163	-0.756380	0.000069
C37	C	1.577727	-0.767134	0.000066
C38	C	1.579050	-0.716711	0.000057
C39	C	1.465927	-0.686123	0.000069
C40	C	1.593854	-0.151982	-0.000008
C41	C	1.595167	-0.101557	-0.000026
C42	C	1.367603	-0.090807	-0.000017
C43	C	1.366290	-0.141227	-0.000006
C44	C	1.479426	-0.171814	0.000003
O45	O	1.267507	-0.216426	-0.000024
O46	O	1.688531	-0.236361	0.000034
C47	C	1.585795	-0.459551	0.000055
C48	C	1.471357	-0.479383	0.000068
C49	C	1.358242	-0.448795	0.000068
C50	C	1.470033	-0.529806	0.000067
C51	C	1.583149	-0.560394	0.000067
C52	C	1.697588	-0.540560	0.000067
C53	C	1.698910	-0.490140	0.000055
C54	C	1.243802	-0.468629	0.000068
C55	C	1.242489	-0.519050	0.000079
C56	C	1.355605	-0.549638	0.000079
C57	C	1.700856	0.068259	0.000015
C58	C	1.839351	0.069672	0.000024
C59	C	1.461852	0.159368	0.000048
C60	C	1.463279	0.213032	0.000068
N61	N	1.472652	0.071031	-0.353614
C62	C	1.544257	0.099057	-0.421382
C63	C	1.544277	0.099056	-0.578544
N64	N	1.472688	0.071029	0.353644
H65	H	0.848005	0.069759	0.218274
H66	H	1.155645	-0.292454	0.000084
Cl67	Cl	0.921310	0.070504	-0.155414
Cl68	Cl	1.023980	0.071559	-0.155409
H69	H	1.411375	0.047036	-0.588086
Cl70	Cl	1.222413	-0.166159	-0.000014
Cl71	Cl	1.638923	0.136107	-0.668515
H72	H	1.688367	-0.085413	-0.000041
H73	H	1.097356	0.072307	0.218268
H74	H	1.685981	-0.176880	0.000004
Cl75	Cl	1.206281	-0.781304	0.000060
H76	H	1.796072	-0.322738	0.000012
H77	H	1.793673	-0.414200	0.000035
Cl78	Cl	1.839789	-0.579024	0.000060
Cl79	Cl	1.378029	0.033980	-0.443665
Cl80	Cl	1.722931	-0.691785	0.000041
H81	H	1.669830	-0.792048	0.000065
H82	H	1.259363	-0.681056	0.000078
Cl83	Cl	1.102546	-0.392701	0.000098
H84	H	1.275508	-0.065893	-0.000021
H85	H	1.792105	-0.473998	0.000043
H86	H	1.149286	-0.535191	0.000079
H87	H	1.151688	-0.443728	0.000072
H88	H	1.605551	0.123050	-0.363048
