data_functionalizedCrystal
_audit_creation_method	'MofGen! by Chris Wilmer'
_symmetry_space_group_name_H-M	'P1'
_symmetry_Int_Tables_number	1
_symmetry_cell_setting	triclinic
loop_
_symmetry_equiv_pos_as_xyz
  x,y,z
_cell_length_a	14.971486
_cell_length_b	9.065218
_cell_length_c	13.448316
_cell_angle_alpha	89.995277
_cell_angle_beta	89.998199
_cell_angle_gamma	84.315007
loop_
_atom_site_label
_atom_site_type_symbol
_atom_site_fract_x
_atom_site_fract_y
_atom_site_fract_z
O1	O	1.188380	0.192261	-0.082573
O2	O	0.928152	0.215285	-0.082600
O3	O	1.063645	-0.010978	-0.082584
O4	O	1.052887	0.418525	-0.082589
O5	O	1.063628	-0.010992	0.082800
O6	O	0.928134	0.215271	0.082784
O7	O	1.188363	0.192248	0.082811
Cu8	Cu	1.058247	0.203758	0.097898
Cu9	Cu	1.058268	0.203775	-0.097687
O10	O	1.052870	0.418511	0.082795
C11	C	0.894811	0.214248	0.000089
C12	C	0.795491	0.211163	0.000078
C13	C	0.739256	0.344086	0.000078
C14	C	0.645935	0.341178	0.000093
C15	C	0.608850	0.205345	0.000101
C16	C	0.665092	0.072412	0.000104
C17	C	0.758411	0.075321	0.000096
C18	C	0.470584	0.066357	0.000118
C19	C	0.377259	0.063446	0.000124
C20	C	0.358108	0.332214	0.000115
C21	C	0.451427	0.335123	0.000107
C22	C	0.507663	0.202189	0.000108
C23	C	1.062602	-0.065951	0.000106
C24	C	1.059511	-0.229731	0.000101
C25	C	1.221704	0.193284	0.000120
C26	C	1.321024	0.196370	0.000124
C27	C	1.053912	0.473483	0.000102
C28	C	1.057004	0.637264	0.000101
N29	N	1.058239	0.203746	0.235462
N30	N	1.058283	0.203775	-0.235252
C31	C	1.118255	0.103597	0.287510
C32	C	1.118260	0.103596	0.391613
C33	C	1.058254	0.203751	0.443667
C34	C	0.998232	0.303904	0.391612
C35	C	0.998223	0.303897	0.287511
C36	C	0.998257	0.303914	0.608592
C37	C	0.998267	0.303924	0.712701
C38	C	1.118294	0.103613	0.712694
C39	C	1.118285	0.103606	0.608593
C40	C	1.058264	0.203761	0.556546
H41	H	1.167122	0.022046	0.245134
H42	H	0.949351	0.385446	0.245135
C43	C	0.710943	0.609456	0.000081
C44	C	0.780014	0.493401	0.000072
H45	H	0.736106	0.701638	0.000085
H46	H	0.674944	0.602739	-0.057586
H47	H	0.674945	0.602711	0.057761
H48	H	0.816009	0.500140	-0.057612
H49	H	0.816029	0.500122	0.057745
C50	C	0.313050	0.560407	-0.084911
C51	C	0.296299	0.478342	0.000116
H52	H	0.274885	0.650612	-0.084914
H53	H	0.373928	0.581570	-0.084912
H54	H	0.301681	0.504699	-0.142571
H55	H	0.307674	0.534046	0.057777
H56	H	0.235407	0.457183	0.000127
H57	H	1.167151	0.022060	0.566211
H58	H	0.949403	0.385479	0.755078
H59	H	0.600152	0.449418	0.000092
C60	C	0.545241	0.494307	-0.084955
C61	C	0.492183	0.484440	0.000077
H62	H	0.570394	0.586497	-0.084978
H63	H	0.592088	0.415573	-0.084943
H64	H	0.509218	0.487566	-0.142612
H65	H	0.528208	0.491170	0.057734
H66	H	0.445330	0.563196	0.000074
H67	H	1.167165	0.022064	0.755078
C68	C	1.236923	-0.094359	0.381150
C69	C	1.184246	-0.006467	0.448823
H70	H	1.277667	-0.162299	0.416471
H71	H	1.199268	-0.147550	0.340564
H72	H	1.269573	-0.032831	0.340530
H73	H	1.151591	-0.067995	0.489439
H74	H	1.221906	0.046728	0.489426
H75	H	0.634890	-0.038186	0.000125
C76	C	0.879623	0.501935	0.619050
C77	C	0.932285	0.414014	0.551380
H78	H	0.838904	0.569913	0.583727
H79	H	0.846954	0.440442	0.659659
H80	H	0.917297	0.555098	0.659647
H81	H	0.894611	0.360842	0.510787
H82	H	0.964956	0.475515	0.510754
H83	H	0.949369	0.385448	0.434001
H84	H	0.347068	-0.047161	0.000132
C85	C	0.480146	-0.199608	0.000106
C86	C	0.532401	-0.079767	0.000108
H87	H	0.518310	-0.289813	0.000089
H88	H	0.443358	-0.195169	0.057782
H89	H	0.443340	-0.195127	-0.057565
H90	H	0.569202	-0.084242	0.057784
H91	H	0.569203	-0.084208	-0.057573
H92	H	0.804197	-0.032919	0.000096
