data_functionalizedCrystal
_audit_creation_method	'MofGen! by Chris Wilmer'
_symmetry_space_group_name_H-M	'P1'
_symmetry_Int_Tables_number	1
_symmetry_cell_setting	triclinic
loop_
_symmetry_equiv_pos_as_xyz
  x,y,z
_cell_length_a	21.395362
_cell_length_b	14.908178
_cell_length_c	21.395355
_cell_angle_alpha	93.314561
_cell_angle_beta	90.043940
_cell_angle_gamma	93.328618
loop_
_atom_site_label
_atom_site_type_symbol
_atom_site_fract_x
_atom_site_fract_y
_atom_site_fract_z
Zn1	Zn	0.943530	-0.358911	0.340196
Zn2	Zn	1.443530	0.141089	0.840196
Zn3	Zn	0.937410	-0.509764	0.229370
Zn4	Zn	1.437410	-0.009764	0.729370
Zn5	Zn	0.838744	-0.358953	0.235395
Zn6	Zn	1.338744	0.141047	0.735395
Zn7	Zn	0.832691	-0.509782	0.334074
Zn8	Zn	1.332691	-0.009782	0.834074
O9	O	0.888094	-0.434352	0.284759
O10	O	1.388094	0.065648	0.784759
O11	O	1.030397	-0.378896	0.325535
O12	O	1.530397	0.121104	0.825535
O13	O	0.924294	-0.489768	0.142491
O14	O	1.424294	0.010232	0.642491
O15	O	0.857738	-0.232692	0.254381
O16	O	1.357738	0.267308	0.754381
O17	O	1.025901	-0.489727	0.244112
O18	O	1.525901	0.010273	0.744112
O19	O	0.934725	-0.232661	0.331377
O20	O	1.434725	0.267339	0.831377
O21	O	0.851804	-0.378968	0.146918
O22	O	1.351804	0.121032	0.646918
O23	O	0.750262	-0.378986	0.248445
O24	O	1.250262	0.121014	0.748445
O25	O	0.847422	-0.489759	0.422564
O26	O	1.347422	0.010241	0.922564
O27	O	0.745815	-0.489800	0.320944
O28	O	1.245815	0.010200	0.820944
O29	O	0.928856	-0.378914	0.427062
O30	O	1.428856	0.121086	0.927062
O31	O	0.918425	-0.636021	0.238176
O32	O	1.418425	-0.136021	0.738176
O33	O	0.841488	-0.636035	0.315101
O34	O	1.341488	-0.136035	0.815101
C35	C	0.725304	-0.434400	0.284684
C36	C	1.225304	0.065600	0.784684
C37	C	0.655661	-0.434442	0.284666
C38	C	1.155661	0.065558	0.784666
C39	C	0.620646	-0.492219	0.322353
C40	C	1.120646	0.007781	0.822353
C41	C	0.555212	-0.492197	0.322382
C42	C	1.055212	0.007803	0.822382
C43	C	0.524794	-0.434407	0.284712
C44	C	1.024794	0.065593	0.784712
C45	C	0.559818	-0.376619	0.247023
C46	C	1.059818	0.123381	0.747023
C47	C	0.625251	-0.376636	0.247000
C48	C	1.125251	0.123364	0.747000
C49	C	0.421360	-0.427139	0.228598
C50	C	0.921360	0.072861	0.728598
C51	C	0.355927	-0.427128	0.228620
C52	C	0.855927	0.072872	0.728620
C53	C	0.322976	-0.434348	0.284784
C54	C	0.822976	0.065652	0.784784
C55	C	0.355465	-0.441599	0.340927
C56	C	0.855465	0.058401	0.840927
C57	C	0.420898	-0.441616	0.340904
C58	C	0.920898	0.058384	0.840904
C59	C	0.453843	-0.434382	0.284733
C60	C	0.953843	0.065618	0.784733
C61	C	0.217009	-0.492105	0.322505
C62	C	0.717009	0.007895	0.822505
C63	C	0.151574	-0.492076	0.322535
C64	C	0.651574	0.007924	0.822535
C65	C	0.156181	-0.376503	0.247170
C66	C	0.656181	0.123497	0.747170
C67	C	0.221616	-0.376527	0.247146
C68	C	0.721616	0.123473	0.747146
C69	C	0.252025	-0.434332	0.284812
C70	C	0.752025	0.065668	0.784812
C71	C	0.878652	-0.668765	0.275334
C72	C	1.378652	-0.168765	0.775334
C73	C	0.874671	-0.769047	0.271323
C74	C	1.374671	-0.269047	0.771323
C75	C	0.947294	-0.957307	0.344048
C76	C	1.447294	-0.457307	0.844048
C77	C	0.943555	-1.051531	0.340282
C78	C	1.443555	-0.551531	0.840282
C79	C	0.863451	-1.051722	0.260027
C80	C	1.363451	-0.551722	0.760027
C81	C	0.867190	-0.957498	0.263793
C82	C	1.367190	-0.457498	0.763793
C83	C	0.909113	-0.910293	0.305805
C84	C	1.409113	-0.410293	0.805805
C85	C	0.912855	-0.816067	0.309568
C86	C	1.412855	-0.316067	0.809568
C87	C	0.832749	-0.816260	0.229317
C88	C	1.332749	-0.316260	0.729317
C89	C	0.829010	-0.910484	0.225550
C90	C	1.329010	-0.410484	0.725550
C91	C	1.051519	-0.434305	0.284834
C92	C	1.551519	0.065695	0.784834
C93	C	1.121161	-0.434285	0.284866
C94	C	1.621161	0.065715	0.784866
C95	C	0.888147	-0.434334	0.448183
C96	C	1.388147	0.065666	0.948183
C97	C	0.888169	-0.434326	0.517824
C98	C	1.388169	0.065674	1.017824
C99	C	0.897589	-0.199025	0.294234
C100	C	1.397589	0.300975	0.794234
C101	C	0.901635	-0.098742	0.298272
C102	C	1.401635	0.401258	0.798272
C103	C	0.888080	-0.434305	0.121973
C104	C	1.388080	0.065695	0.621973
C105	C	0.888189	-0.434059	0.052342
C106	C	1.388189	0.065941	0.552342
C107	C	0.930570	-0.376607	0.552881
C108	C	1.430570	0.123393	1.052881
C109	C	0.930570	-0.376568	0.618318
C110	C	1.430570	0.123432	1.118318
C111	C	0.888176	-0.434265	0.648695
C112	C	1.388176	0.065735	1.148695
C113	C	0.845768	-0.491988	0.613631
C114	C	1.345768	0.008012	1.113631
C115	C	0.845764	-0.492019	0.548196
C116	C	1.345764	0.007981	1.048196
C117	C	0.879957	-0.515504	0.749102
C118	C	1.379957	-0.015504	1.249102
C119	C	0.879965	-0.515475	0.814536
C120	C	1.379965	-0.015475	1.314536
C121	C	0.888184	-0.434169	0.850520
C122	C	1.388184	0.065831	1.350520
C123	C	0.896408	-0.352891	0.821062
C124	C	1.396408	0.147109	1.321062
C125	C	0.896405	-0.352921	0.755626
C126	C	1.396405	0.147079	1.255626
C127	C	0.888175	-0.434237	0.719649
C128	C	1.388175	0.065763	1.219649
C129	C	0.930588	-0.376403	0.956531
C130	C	1.430588	0.123597	1.456531
C131	C	0.930584	-0.376363	1.021969
C132	C	1.430584	0.123637	1.521969
C133	C	0.845785	-0.491791	1.017281
C134	C	1.345785	0.008209	1.517281
C135	C	0.845785	-0.491823	0.951844
C136	C	1.345785	0.008177	1.451844
C137	C	0.888190	-0.434130	0.921473
C138	C	1.388190	0.065870	1.421473
H139	H	0.328637	-0.447477	0.386661
H140	H	0.828637	0.052523	0.886661
H141	H	0.829316	-1.090172	0.225826
H142	H	1.329316	-0.590172	0.725826
H143	H	0.946993	-0.777634	0.343774
H144	H	1.446993	-0.277634	0.843774
C145	C	0.516689	-0.555702	0.363878
C146	C	1.016689	-0.055702	0.863878
H147	H	0.544173	-0.590117	0.386317
H148	H	1.044173	-0.090117	0.886317
H149	H	0.492614	-0.521192	0.392600
H150	H	0.992614	-0.021192	0.892600
H151	H	0.489524	-0.594973	0.338323
H152	H	0.989524	-0.094973	0.838323
H153	H	0.965111	-0.329356	1.050511
H154	H	1.465111	0.170644	1.550511
C155	C	0.905441	-0.263522	0.723224
C156	C	1.405441	0.236478	1.223224
H157	H	0.910332	-0.215091	0.754022
H158	H	1.410332	0.284909	1.254022
H159	H	0.941709	-0.264692	0.697675
H160	H	1.441709	0.235308	1.197675
H161	H	0.869843	-0.255623	0.697992
H162	H	1.369843	0.244377	1.197992
H163	H	0.645402	-0.539288	0.353025
H164	H	1.145402	-0.039288	0.853025
H165	H	0.811261	-0.538759	1.042014
H166	H	1.311261	-0.038759	1.542014
C167	C	0.782901	-0.962414	0.179339
C168	C	1.282901	-0.462414	0.679339
H169	H	0.786145	-1.025264	0.182569
H170	H	1.286145	-0.525264	0.682569
H171	H	0.741407	-0.947036	0.189062
H172	H	1.241407	-0.447036	0.689062
H173	H	0.792715	-0.946986	0.137869
H174	H	1.292715	-0.446986	0.637869
C175	C	0.663770	-0.313084	0.205539
C176	C	1.163770	0.186916	0.705539
H177	H	0.636285	-0.278664	0.183105
H178	H	1.136285	0.221336	0.683105
H179	H	0.690919	-0.273834	0.231119
H180	H	1.190919	0.226166	0.731119
H181	H	0.687861	-0.347554	0.176802
H182	H	1.187861	0.152446	0.676802
C183	C	0.122733	-0.312930	0.205735
C184	C	0.622733	0.187070	0.705735
H185	H	0.152962	-0.278519	0.183288
H186	H	0.652962	0.221481	0.683288
H187	H	0.095776	-0.347374	0.177020
H188	H	0.595776	0.152626	0.677020
H189	H	0.098832	-0.273659	0.231341
H190	H	0.598832	0.226341	0.731341
C191	C	0.993398	-0.905379	0.390265
C192	C	1.493398	-0.405379	0.890265
H193	H	1.015598	-0.946875	0.412507
H194	H	1.515598	-0.446875	0.912507
H195	H	1.022172	-0.868584	0.367813
H196	H	1.522172	-0.368584	0.867813
H197	H	0.970860	-0.868653	0.419002
H198	H	1.470860	-0.368653	0.919002
C199	C	0.905855	-0.263503	0.860632
C200	C	1.405855	0.236497	1.360632
H201	H	0.904796	-0.275137	0.903821
H202	H	1.404796	0.224863	1.403821
H203	H	0.945246	-0.235043	0.850926
H204	H	1.445246	0.264957	1.350926
H205	H	0.873461	-0.225205	0.851569
H206	H	1.373461	0.274795	1.351569
C207	C	0.985557	-1.103243	0.382346
C208	C	1.485557	-0.603243	0.882346
H209	H	1.011062	-1.061632	0.407900
H210	H	1.511062	-0.561632	0.907900
H211	H	0.960117	-1.140024	0.408143
H212	H	1.460117	-0.640024	0.908143
H213	H	1.011415	-1.139967	0.356940
H214	H	1.511415	-0.639967	0.856940
H215	H	0.801661	-0.777971	0.198174
H216	H	1.301661	-0.277971	0.698174
C217	C	0.799148	-0.555322	0.913280
C218	C	1.299148	-0.055322	1.413280
H219	H	0.773902	-0.589684	0.940742
H220	H	1.273902	-0.089684	1.440742
H221	H	0.773241	-0.520829	0.889117
H222	H	1.273241	-0.020829	1.389117
H223	H	0.821532	-0.594642	0.886197
H224	H	1.321532	-0.094642	1.386197
H225	H	0.123065	-0.539124	0.353229
H226	H	0.623065	-0.039124	0.853229
C227	C	0.320196	-0.419151	0.166867
C228	C	0.820196	0.080849	0.666867
H229	H	0.349191	-0.414836	0.133416
H230	H	0.849191	0.085164	0.633416
H231	H	0.292565	-0.470838	0.159226
H232	H	0.792565	0.029162	0.659226
H233	H	0.296796	-0.366842	0.169858
H234	H	0.796796	0.133158	0.669858
C235	C	0.977208	-0.313141	0.519476
C236	C	1.477208	0.186859	1.019476
H237	H	1.002457	-0.278754	0.549730
H238	H	1.502457	0.221246	1.049730
H239	H	1.003114	-0.347656	0.492584
H240	H	1.503114	0.152344	0.992584
H241	H	0.954822	-0.273842	0.495510
H242	H	1.454822	0.226158	0.995510
C243	C	0.977212	-0.313078	0.656890
C244	C	1.477212	0.186922	1.156890
H245	H	0.971137	-0.321320	0.700211
H246	H	1.471137	0.178680	1.200211
H247	H	1.018777	-0.326277	0.645669
H248	H	1.518777	0.173723	1.145669
H249	H	0.970487	-0.252460	0.648592
H250	H	1.470487	0.247540	1.148592
C251	C	0.456636	-0.449588	0.402654
C252	C	0.956636	0.050412	0.902654
H253	H	0.500324	-0.448571	0.394592
H254	H	1.000324	0.051429	0.894592
H255	H	0.447936	-0.400563	0.431042
H256	H	0.947936	0.099437	0.931042
H257	H	0.443703	-0.504560	0.420417
H258	H	0.943703	-0.004560	0.920417
C259	C	0.977220	-0.312930	0.923120
C260	C	1.477220	0.187070	1.423120
H261	H	1.002466	-0.278536	0.953373
H262	H	1.502466	0.221464	1.453373
H263	H	1.003129	-0.347440	0.896229
H264	H	1.503129	0.152560	1.396229
H265	H	0.954828	-0.273640	0.899154
H266	H	1.454828	0.226360	1.399154
C267	C	0.870927	-0.604874	0.846938
C268	C	1.370927	-0.104874	1.346938
H269	H	0.872116	-0.593214	0.891062
H270	H	1.372116	-0.093214	1.391062
H271	H	0.831618	-0.633742	0.835033
H272	H	1.331618	-0.133742	1.335033
H273	H	0.903483	-0.642818	0.834713
H274	H	1.403483	-0.142818	1.334713
C275	C	0.250463	-0.555677	0.363943
C276	C	0.750463	-0.055677	0.863943
H277	H	0.220235	-0.590075	0.386400
H278	H	0.720235	-0.090075	0.886400
H279	H	0.274367	-0.594947	0.338345
H280	H	0.774367	-0.094947	0.838345
H281	H	0.277419	-0.521222	0.392658
H282	H	0.777419	-0.021222	0.892658
H283	H	0.873097	-0.581696	0.719810
H284	H	1.373097	-0.081696	1.219810
C285	C	0.260137	-0.312979	0.205686
C286	C	0.760137	0.187021	0.705686
H287	H	0.303463	-0.321261	0.211071
H288	H	0.803463	0.178739	0.711071
H289	H	0.248835	-0.326088	0.163050
H290	H	0.748835	0.173912	0.663050
H291	H	0.251885	-0.252373	0.217370
H292	H	0.751885	0.247627	0.717370
H293	H	0.811249	-0.538962	0.638369
H294	H	1.311249	-0.038962	1.138369
C295	C	0.799130	-0.555525	0.509632
C296	C	1.299130	-0.055525	1.009632
H297	H	0.773884	-0.589888	0.537093
H298	H	1.273884	-0.089888	1.037093
H299	H	0.773221	-0.521041	0.485462
H300	H	1.273221	-0.021041	0.985462
H301	H	0.821521	-0.594844	0.482554
H302	H	1.321521	-0.094844	0.982554
H303	H	0.448184	-0.421255	0.182860
H304	H	0.948184	0.078745	0.682860
C305	C	0.526362	-0.313052	0.205587
C306	C	1.026362	0.186948	0.705587
H307	H	0.482376	-0.321322	0.210994
H308	H	0.982376	0.178678	0.710994
H309	H	0.539556	-0.252455	0.217259
H310	H	1.039556	0.247545	0.717259
H311	H	0.536507	-0.326173	0.162941
H312	H	1.036507	0.173827	0.662941
