data_functionalizedCrystal
_audit_creation_method	'MofGen! by Chris Wilmer'
_symmetry_space_group_name_H-M	'P1'
_symmetry_Int_Tables_number	1
_symmetry_cell_setting	triclinic
loop_
_symmetry_equiv_pos_as_xyz
  x,y,z
_cell_length_a	23.096457
_cell_length_b	20.875641
_cell_length_c	20.875641
_cell_angle_alpha	60.089808
_cell_angle_beta	89.999757
_cell_angle_gamma	62.439477
loop_
_atom_site_label
_atom_site_type_symbol
_atom_site_fract_x
_atom_site_fract_y
_atom_site_fract_z
Zr1	Zr	0.584269	0.694356	-0.105794
O2	O	0.499421	0.820595	-0.209055
O3	O	0.607105	0.563101	-0.070863
O4	O	0.615632	0.687125	-0.204336
O5	O	0.487780	0.704025	0.025977
O6	O	0.710912	0.687126	-0.204339
O7	O	0.490894	0.696572	-0.075582
O8	O	0.695660	0.465271	0.034419
O9	O	0.503032	0.925880	-0.212781
O10	O	0.691787	0.618947	-0.059926
O11	O	0.618356	0.624509	0.015869
O12	O	0.628395	0.770530	-0.141277
O13	O	0.554963	0.776091	-0.065482
Zr14	Zr	0.731263	0.706246	0.056176
Zr15	Zr	0.736231	0.694359	-0.105800
Zr16	Zr	0.579302	0.706243	0.056182
Zr17	Zr	0.590029	0.862274	-0.111736
Zr18	Zr	0.725504	0.538328	0.062118
O19	O	0.708427	0.837501	0.021245
O20	O	0.715490	0.820599	-0.209063
O21	O	0.492358	0.837497	0.021254
O22	O	0.816112	0.580007	0.159436
O23	O	0.823175	0.563105	-0.070872
O24	O	0.600042	0.580004	0.159445
O25	O	0.827753	0.696577	-0.075595
O26	O	0.699901	0.713477	0.154717
O27	O	0.604620	0.713476	0.154721
O28	O	0.824638	0.704030	0.025964
O29	O	0.623821	0.925882	-0.212785
O30	O	0.691711	0.474720	0.163167
O31	O	0.812500	0.474722	0.163163
O32	O	0.816449	0.465273	0.034414
O33	O	0.499084	0.935329	-0.084032
O34	O	0.619873	0.935331	-0.084037
O35	O	0.687138	0.630072	0.091659
O36	O	0.760569	0.624511	0.015864
O37	O	0.697177	0.776094	-0.065488
O38	O	0.623746	0.781655	0.010308
C39	C	0.650562	0.490262	-0.017376
C40	C	0.648117	0.418976	-0.014853
C41	C	0.685297	0.382583	-0.053232
C42	C	0.683001	0.315599	-0.050854
C43	C	0.643521	0.285013	-0.010101
C44	C	0.606340	0.321409	0.028283
C45	C	0.608640	0.388388	0.025909
C46	C	0.632535	0.085001	0.001245
C47	C	0.630236	0.018019	0.003614
C48	C	0.706898	0.012212	-0.075522
C49	C	0.709191	0.079197	-0.077896
C50	C	0.672013	0.115584	-0.039509
N51	N	0.641171	0.216546	-0.007672
N52	N	0.674367	0.184045	-0.041934
C53	C	0.467686	0.700298	-0.024802
C54	C	0.403174	0.700297	-0.024799
C55	C	0.405959	0.621174	0.017658
C56	C	0.345343	0.621173	0.017662
C57	C	0.281944	0.700299	-0.024807
C58	C	0.279162	0.779432	-0.067267
C59	C	0.339777	0.779431	-0.067262
N60	N	0.163217	0.756632	-0.091359
N61	N	0.105638	0.756627	-0.091362
C62	C	0.099312	0.700306	-0.024821
N63	N	0.152746	0.643976	0.041722
N64	N	0.210332	0.643978	0.041723
C65	C	0.216213	0.700308	-0.024816
C66	C	0.036372	0.621176	0.017644
C67	C	-0.024246	0.621179	0.017649
C68	C	-0.090427	0.779439	-0.067287
C69	C	-0.029809	0.779435	-0.067284
C70	C	0.033588	0.700301	-0.024821
C71	C	0.847847	0.700304	-0.024817
C72	C	0.912359	0.700305	-0.024819
C73	C	0.663980	0.685432	-0.227416
C74	C	0.666089	0.680385	-0.296178
C75	C	0.664971	0.910341	-0.032243
C76	C	0.667416	0.981626	-0.034765
C77	C	0.633990	0.757137	-0.370948
C78	C	0.635981	0.752390	-0.435555
C79	C	0.670066	0.670891	-0.425391
C80	C	0.702168	0.594133	-0.350614
C81	C	0.700182	0.598881	-0.286008
C82	C	0.679560	0.648207	-0.614057
C83	C	0.681542	0.643465	-0.678671
C84	C	0.615356	0.801723	-0.763607
C85	C	0.613368	0.806463	-0.698997
C86	C	0.645474	0.729706	-0.624225
N87	N	0.672099	0.666037	-0.491429
N88	N	0.643444	0.734561	-0.558189
C89	C	0.651553	0.715170	0.177797
C90	C	0.649444	0.720217	0.246560
C91	C	0.840643	0.490265	-0.017383
C92	C	0.902709	0.418980	-0.014863
C93	C	0.644348	0.505131	0.185231
C94	C	0.639794	0.438892	0.256516
C95	C	0.834429	0.505134	0.185223
C96	C	0.894387	0.438896	0.256506
C97	C	0.481104	0.895468	-0.234841
C98	C	0.421146	0.961706	-0.306125
C99	C	0.474890	0.910338	-0.032235
C100	C	0.412823	0.981622	-0.034755
C101	C	0.671184	0.895471	-0.234849
C102	C	0.675738	0.961710	-0.306135
C103	C	0.895953	0.382600	-0.053248
C104	C	0.954266	0.315628	-0.050895
C105	C	1.019334	0.285035	-0.010153
C106	C	1.026090	0.321422	0.028233
C107	C	0.967777	0.388396	0.025875
C108	C	0.673559	0.410690	0.329561
C109	C	0.669278	0.348461	0.396548
C110	C	0.631235	0.314431	0.390488
C111	C	0.597466	0.342639	0.317435
C112	C	0.601744	0.404871	0.250450
C113	C	0.960880	0.404887	0.250417
C114	C	1.017223	0.342658	0.317389
C115	C	1.007071	0.314435	0.390449
C116	C	0.940571	0.348450	0.396536
C117	C	0.884229	0.410682	0.329565
C118	C	0.354653	0.995724	-0.300036
C119	C	0.298310	1.057973	-0.367008
C120	C	0.308463	1.086200	-0.440068
C121	C	0.374963	1.052180	-0.446155
C122	C	0.431304	0.989936	-0.379184
C123	C	0.419580	1.018009	0.003622
C124	C	0.361268	1.084997	0.001251
C125	C	0.296200	1.115593	-0.039493
C126	C	0.289445	1.079203	-0.077876
C127	C	0.347756	1.012220	-0.075509
C128	C	0.713787	0.995721	-0.300050
C129	C	0.718079	1.057951	-0.367024
C130	C	0.684318	1.086174	-0.440082
C131	C	0.646268	1.052157	-0.446165
C132	C	0.641981	0.989923	-0.379192
H133	H	0.737168	-0.017421	-0.106774
H134	H	0.585615	0.872829	-0.707281
N135	N	0.587653	-0.014977	0.047566
H136	H	0.538117	0.034601	0.025010
H137	H	0.604528	-0.038726	0.103889
H138	H	-0.032079	0.843865	-0.101863
H139	H	0.618782	1.075146	-0.505658
N140	N	1.088941	0.305961	0.310810
H141	H	1.123098	0.262254	0.364318
H142	H	1.097185	0.355017	0.280417
H143	H	0.687815	1.136849	-0.494610
N144	N	0.600939	0.953245	-0.385761
H145	H	0.580205	0.980573	-0.442207
H146	H	0.563249	0.966749	-0.361097
N147	N	0.751783	0.112179	-0.121834
H148	H	0.721271	0.176492	-0.164026
H149	H	0.774990	0.078900	-0.145737
H150	H	0.574198	0.296496	0.061469
N151	N	0.340454	0.972975	-0.116898
H152	H	0.360522	0.908405	-0.078233
H153	H	0.365556	0.981764	-0.157132
H154	H	0.842976	0.407507	-0.086434
N155	N	0.219261	1.112197	-0.121808
H156	H	0.211195	1.062616	-0.099238
H157	H	0.216263	1.135940	-0.178133
N158	N	0.348330	0.535836	0.063449
H159	H	0.372175	0.504023	0.120068
H160	H	0.374495	0.498523	0.043896
H161	H	0.705702	0.585705	-0.553184
N162	N	0.210785	0.864776	-0.113067
H163	H	0.172807	0.852771	-0.106628
H164	H	0.208098	0.896542	-0.169662
H165	H	0.627757	0.263758	0.445037
H166	H	0.726319	0.536381	-0.225128
N167	N	0.718310	0.555563	-0.667717
H168	H	0.684909	0.550069	-0.692629
H169	H	0.738351	0.507703	-0.610537
H170	H	0.472557	0.993104	0.036806
H171	H	1.079076	0.296503	0.061404
H172	H	1.066810	0.230499	-0.008238
H173	H	0.973288	0.418009	0.057138
N174	N	0.580733	0.884512	-0.844247
H175	H	0.544383	0.886076	-0.872950
H176	H	0.615824	0.886024	-0.872882
H177	H	0.729925	0.527775	-0.342343
N178	N	0.714595	0.447381	0.336115
H179	H	0.695197	0.477269	0.363669
H180	H	0.712177	0.491049	0.282579
N181	N	0.946971	0.276392	-0.092299
H182	H	0.896901	0.305933	-0.118459
H183	H	0.967085	0.211819	-0.053599
N184	N	0.971843	0.435327	0.171623
H185	H	0.926066	0.479913	0.130113
H186	H	0.997082	0.383736	0.167447
H187	H	0.606230	0.823503	-0.379233
H188	H	0.602265	0.114617	0.032506
H189	H	0.262580	1.136883	-0.494594
H190	H	0.578362	0.418020	0.057159
N191	N	0.336777	0.864774	-0.113062
H192	H	0.287417	0.914902	-0.139966
H193	H	0.361653	0.865423	-0.152961
N194	N	0.368567	1.124247	0.042641
H195	H	0.321758	1.171334	0.034953
H196	H	0.396968	1.150444	0.020873
H197	H	0.457575	0.556737	0.052231
H198	H	0.383221	1.075170	-0.505649
H199	H	0.574250	0.427824	0.190977
N200	N	0.104753	0.535831	0.063443
H201	H	0.097318	0.485705	0.090347
H202	H	0.130177	0.535177	0.103344
N203	N	0.750202	0.965290	-0.221257
H204	H	0.774957	0.996283	-0.227576
H205	H	0.784334	0.900147	-0.190349
N206	N	-0.021241	0.535833	0.063441
H207	H	-0.069260	0.547839	0.056999
H208	H	0.002639	0.504065	0.120037
H209	H	0.749062	1.085642	-0.362055
H210	H	-0.142046	0.843865	-0.101866
N211	N	0.705706	0.318034	0.475335
H212	H	0.687812	0.369584	0.479574
H213	H	0.756484	0.290670	0.482314
N214	N	0.727874	0.415576	-0.097193
H215	H	0.751079	0.382353	-0.121144
H216	H	0.763677	0.406587	-0.060458
H217	H	0.713276	0.285967	-0.082105
H218	H	0.485444	0.962239	-0.384151
H219	H	0.566492	0.314922	0.312512
N220	N	1.067842	0.247313	0.462679
H221	H	1.111504	0.230053	0.447728
H222	H	1.064955	0.194056	0.495714
H223	H	0.609845	0.814890	-0.496433
N224	N	0.929622	0.318004	0.475337
H225	H	0.952643	0.331754	0.503493
H226	H	0.949935	0.252871	0.506215
N227	N	0.812512	0.447357	0.336139
H228	H	0.814636	0.420028	0.392586
H229	H	0.786117	0.433850	0.311477
N230	N	0.343686	0.965291	-0.221244
H231	H	0.318482	1.016839	-0.217000
H232	H	0.389486	0.920679	-0.179778
H233	H	0.244168	1.085662	-0.362036
H234	H	0.248724	1.170135	-0.041415
