data_functionalizedCrystal
_audit_creation_method	'MofGen! by Chris Wilmer'
_symmetry_space_group_name_H-M	'P1'
_symmetry_Int_Tables_number	1
_symmetry_cell_setting	triclinic
loop_
_symmetry_equiv_pos_as_xyz
  x,y,z
_cell_length_a	11.026607
_cell_length_b	16.992695
_cell_length_c	9.482944
_cell_angle_alpha	99.814932
_cell_angle_beta	98.185432
_cell_angle_gamma	99.627120
loop_
_atom_site_label
_atom_site_type_symbol
_atom_site_fract_x
_atom_site_fract_y
_atom_site_fract_z
O1	O	-1.660720	-0.346378	-0.120912
O2	O	-1.303738	-0.308471	-0.120912
O3	O	-1.480796	-0.213079	-0.120901
O4	O	-1.483662	-0.441771	-0.120924
O5	O	-1.444239	-0.186117	0.120894
O6	O	-1.267180	-0.281509	0.120882
O7	O	-1.624163	-0.319416	0.120882
Cu8	Cu	-1.442334	-0.298001	0.142960
Cu9	Cu	-1.485567	-0.329887	-0.142990
O10	O	-1.447104	-0.414809	0.120870
C11	C	-1.239570	-0.287997	-0.000015
C12	C	-1.102834	-0.267150	-0.000015
N13	N	-1.411935	-0.275575	0.344081
C14	C	-1.688331	-0.339891	-0.000018
C15	C	-1.825068	-0.360739	-0.000028
C16	C	-1.034612	-0.324713	-0.000022
C17	C	-0.893288	-0.303168	-0.000021
C18	C	-1.458835	-0.169866	-0.000004
C19	C	-1.447850	-0.081271	-0.000004
C20	C	-1.469065	-0.458022	-0.000030
C21	C	-1.480053	-0.546618	-0.000039
C22	C	-1.553847	-0.045992	-0.000003
C23	C	-1.543519	0.037251	-0.000016
C24	C	-1.427192	0.085215	-0.000021
C25	C	-1.321188	0.049930	-0.000027
C26	C	-1.331518	-0.033313	-0.000024
C27	C	-1.384378	0.334854	-0.000041
C28	C	-1.374055	0.418103	-0.000040
C29	C	-1.596389	0.405418	-0.000032
C30	C	-1.606707	0.322175	-0.000020
C31	C	-1.500704	0.286896	-0.000034
N32	N	-1.416632	0.170303	-0.000031
N33	N	-1.511267	0.201808	-0.000035
N34	N	-1.515975	-0.352308	-0.344112
C35	C	-1.476591	-0.323270	0.416277
C36	C	-1.451308	-0.304605	0.583696
H37	H	-1.080829	-0.389944	-0.000020
H38	H	-1.279319	0.457156	-0.000021
Br39	Br	-0.816271	-0.194433	0.000006
H40	H	-1.337865	-0.220922	0.406217
H41	H	-1.682691	0.434151	-0.000024
H42	H	-0.871278	-0.425974	-0.000025
H43	H	-1.648572	-0.085038	0.000010
H44	H	-1.226473	0.088988	-0.000041
Br45	Br	-1.240517	0.286985	-0.000069
Br46	Br	-1.600065	-0.414358	0.312730
H47	H	-1.056621	-0.201922	-0.000046
Br48	Br	-1.327850	-0.213503	0.687238
H49	H	-1.245203	-0.062036	-0.000026
H50	H	-1.590055	-0.406962	0.593760
H51	H	-1.629833	0.065972	-0.000012
Br52	Br	-1.764593	0.257081	-0.000060
