data_functionalizedCrystal
_audit_creation_method	'MofGen! by Chris Wilmer'
_symmetry_space_group_name_H-M	'P1'
_symmetry_Int_Tables_number	1
_symmetry_cell_setting	triclinic
loop_
_symmetry_equiv_pos_as_xyz
  x,y,z
_cell_length_a	11.026607
_cell_length_b	10.868271
_cell_length_c	11.026607
_cell_angle_alpha	89.997918
_cell_angle_beta	71.413983
_cell_angle_gamma	90.003487
loop_
_atom_site_label
_atom_site_type_symbol
_atom_site_fract_x
_atom_site_fract_y
_atom_site_fract_z
O1	O	1.726733	0.102311	-0.533624
O2	O	2.060066	0.435644	-0.200291
O3	O	2.393400	0.768978	0.133042
O4	O	1.360153	0.102314	-0.472861
O5	O	1.693486	0.435647	-0.139527
O6	O	2.026820	0.768981	0.193806
O7	O	1.513061	0.102311	-0.319952
O8	O	1.846395	0.435644	0.013381
O9	O	2.179728	0.768978	0.346714
O10	O	1.573825	0.102314	-0.686532
O11	O	1.907158	0.435647	-0.353199
O12	O	2.240492	0.768981	-0.019866
O13	O	1.513044	-0.102334	-0.319941
O14	O	1.846377	0.231000	0.013392
O15	O	2.179710	0.564333	0.346725
O16	O	1.360135	-0.102331	-0.472850
O17	O	1.693469	0.231003	-0.139516
O18	O	2.026802	0.564336	0.193817
O19	O	1.726715	-0.102334	-0.533613
O20	O	2.060049	0.231000	-0.200280
O21	O	2.393382	0.564333	0.133053
Zn22	Zn	1.543423	-0.134824	-0.503230
Zn23	Zn	1.876756	0.198509	-0.169896
Zn24	Zn	2.210089	0.531843	0.163437
Zn25	Zn	1.543446	0.134804	-0.503244
Zn26	Zn	1.876779	0.468137	-0.169911
Zn27	Zn	2.210113	0.801471	0.163422
O28	O	1.573807	-0.102331	-0.686521
O29	O	1.907141	0.231003	-0.353188
O30	O	2.240474	0.564336	-0.019855
C31	C	1.312485	-0.000008	-0.461645
C32	C	1.645818	0.333325	-0.128312
C33	C	1.979151	0.666659	0.205021
C34	C	1.170471	-0.000007	-0.428228
C35	C	1.503804	0.333327	-0.094895
C36	C	1.837137	0.666660	0.238438
C37	C	1.116821	-0.000005	-0.520498
C38	C	1.450155	0.333328	-0.187165
C39	C	1.783488	0.666661	0.146169
C40	C	0.970043	-0.000004	-0.485962
C41	C	1.303376	0.333329	-0.152629
C42	C	1.636709	0.666663	0.180704
N43	N	1.543416	-0.318838	-0.503221
N44	N	1.876749	0.014495	-0.169888
N45	N	2.210082	0.347829	0.163446
C46	C	1.543439	-0.569844	-0.503240
C47	C	1.876772	-0.236511	-0.169907
C48	C	2.210105	0.096823	0.163427
C49	C	1.543423	-0.430167	-0.503232
C50	C	1.876756	-0.096833	-0.169899
C51	C	2.210089	0.236500	0.163434
C52	C	1.774384	-0.000009	-0.544828
C53	C	2.107717	0.333324	-0.211495
C54	C	2.441051	0.666658	0.121838
C55	C	1.916398	-0.000002	-0.578245
C56	C	2.249731	0.333331	-0.244912
C57	C	2.583064	0.666664	0.088421
N58	N	1.543461	0.318818	-0.503245
N59	N	1.876794	0.652152	-0.169912
N60	N	2.210127	0.985485	0.163422
C61	C	1.585026	-0.000008	-0.734187
C62	C	1.918359	0.333325	-0.400853
C63	C	2.251693	0.666659	-0.067520
C64	C	1.618443	-0.000007	-0.876200
C65	C	1.951776	0.333327	-0.542867
C66	C	2.285109	0.666660	-0.209534
C67	C	1.526173	-0.000005	-0.929850
C68	C	1.859507	0.333328	-0.596517
C69	C	2.192840	0.666661	-0.263183
C70	C	1.560709	-0.000004	-1.076628
C71	C	1.894042	0.333329	-0.743295
C72	C	2.227376	0.666663	-0.409962
C73	C	1.501843	-0.000009	-0.272287
C74	C	1.835176	0.333324	0.061046
C75	C	2.168509	0.666658	0.394379
C76	C	1.468426	-0.000002	-0.130273
C77	C	1.801759	0.333331	0.203060
C78	C	2.135092	0.666664	0.536393
H79	H	0.907314	0.000027	-0.381393
H80	H	1.240647	0.333360	-0.048059
H81	H	1.573980	0.666693	0.285274
N82	N	0.999462	-0.000003	-0.716767
N83	N	1.332795	0.333330	-0.383434
N84	N	1.666128	0.666664	-0.050100
H85	H	1.055271	-0.075865	-0.734755
H86	H	1.388604	0.257468	-0.401422
H87	H	1.721937	0.590802	-0.068089
H88	H	1.055204	0.075909	-0.734672
H89	H	1.388537	0.409242	-0.401339
H90	H	1.721871	0.742575	-0.068005
N91	N	1.087390	-0.000023	-0.289718
N92	N	1.420723	0.333311	0.043615
N93	N	1.754056	0.666644	0.376948
H94	H	0.994312	-0.000025	-0.284681
H95	H	1.327646	0.333308	0.048653
H96	H	1.660979	0.666642	0.381986
H97	H	1.106206	0.075839	-0.245914
H98	H	1.439539	0.409173	0.087419
H99	H	1.772872	0.742506	0.420752
H100	H	1.421610	0.000002	-0.867117
H101	H	1.754944	0.333335	-0.533783
H102	H	2.088277	0.666669	-0.200450
N103	N	1.699226	-0.000005	-1.159705
N104	N	2.032559	0.333329	-0.826372
N105	N	2.365893	0.666662	-0.493039
H106	H	1.704263	-0.000006	-1.252783
H107	H	2.037597	0.333327	-0.919450
H108	H	2.370930	0.666661	-0.586116
H109	H	1.743015	-0.075873	-1.140884
H110	H	2.076348	0.257460	-0.807551
H111	H	2.409681	0.590793	-0.474218
H112	H	1.363855	0.000004	-1.067546
H113	H	1.697189	0.333337	-0.734213
H114	H	2.030522	0.666670	-0.400879
H115	H	1.723006	0.000037	-0.938934
H116	H	2.056339	0.333371	-0.605600
H117	H	2.389672	0.666704	-0.272267
H118	H	1.179555	-0.000011	-0.625061
H119	H	1.512888	0.333322	-0.291728
H120	H	1.846221	0.666655	0.041606
