data_functionalizedCrystal
_audit_creation_method	'MofGen! by Chris Wilmer'
_symmetry_space_group_name_H-M	'P1'
_symmetry_Int_Tables_number	1
_symmetry_cell_setting	triclinic
loop_
_symmetry_equiv_pos_as_xyz
  x,y,z
_cell_length_a	15.995350
_cell_length_b	13.339070
_cell_length_c	12.376492
_cell_angle_alpha	75.601492
_cell_angle_beta	78.709961
_cell_angle_gamma	80.439165
loop_
_atom_site_label
_atom_site_type_symbol
_atom_site_fract_x
_atom_site_fract_y
_atom_site_fract_z
O1	O	1.152819	-0.111026	-0.093902
O2	O	0.912788	-0.127124	-0.093925
O3	O	1.005255	0.028188	-0.093913
O4	O	1.060352	-0.266339	-0.093914
O5	O	0.982137	-0.010588	0.094096
O6	O	0.889669	-0.165900	0.094084
O7	O	1.129701	-0.149803	0.094107
Zn8	Zn	1.006014	-0.164008	0.123946
Zn9	Zn	1.036474	-0.112919	-0.123764
O10	O	1.037233	-0.305115	0.094095
C11	C	0.869879	-0.145846	0.000077
C12	C	0.776467	-0.143848	0.000068
N13	N	0.985232	-0.198875	0.293002
C14	C	0.984389	0.046490	0.000089
C15	C	0.956649	0.158793	0.000082
C16	C	0.437051	-0.136686	0.000092
C17	C	0.458736	-0.026160	0.000512
C18	C	0.555943	-0.028067	0.000080
C19	C	0.605439	-0.140239	0.000081
C20	C	0.590228	-0.172654	-0.107278
C21	C	0.492957	-0.169859	-0.107360
C22	C	0.466858	-0.216240	0.106442
C23	C	0.563624	-0.216505	0.107853
C24	C	0.700606	-0.142252	0.000071
C25	C	0.341886	-0.134675	0.000094
C26	C	1.172610	-0.131080	0.000103
C27	C	1.266023	-0.133076	0.000104
C28	C	1.058100	-0.323416	0.000090
C29	C	1.085841	-0.435718	0.000090
C30	C	1.172350	0.523582	0.000103
C31	C	1.198415	0.418066	0.000116
C32	C	1.137976	0.353243	0.000107
C33	C	1.051467	0.393945	0.000086
C34	C	1.025397	0.499469	0.000082
C35	C	0.991023	0.329130	0.000086
C36	C	0.904514	0.369832	0.000065
C37	C	0.878449	0.475346	0.000060
C38	C	0.938889	0.540170	0.000069
C39	C	1.017093	0.223606	0.000090
C40	C	0.870140	0.199494	0.000069
C41	C	0.844075	0.305009	0.000056
C42	C	1.105492	0.002904	0.648002
C43	C	1.120033	0.027307	0.529664
C44	C	1.086334	-0.029236	0.470493
C45	C	1.038092	-0.110187	0.529671
C46	C	1.023556	-0.134598	0.648021
C47	C	1.004397	-0.166738	0.470511
C48	C	0.956155	-0.247689	0.529689
C49	C	0.941621	-0.272096	0.648027
C50	C	0.975320	-0.215553	0.707199
C51	C	1.018933	-0.142327	0.352162
C52	C	0.936997	-0.279829	0.352180
C53	C	0.922456	-0.304232	0.470518
N54	N	1.057257	-0.078050	0.707180
H55	H	0.564946	-0.001055	0.077039
H56	H	1.132931	0.048929	0.696187
H57	H	1.268851	0.384934	0.000135
H58	H	0.583250	0.031008	-0.077012
H59	H	1.159204	0.267328	0.000118
Cl60	Cl	0.957035	-0.246229	0.855973
H61	H	0.883177	-0.370145	0.518715
H62	H	1.159311	0.093216	0.481486
H63	H	1.221549	0.576367	0.000120
Cl64	Cl	0.473216	-0.293684	-0.114884
Cl65	Cl	0.642377	-0.298601	-0.113470
Cl66	Cl	0.894634	-0.350920	0.277800
Cl67	Cl	0.769692	0.526509	0.000050
H68	H	0.420475	0.002175	0.077502
Cl69	Cl	0.880987	-0.373874	0.722424
H70	H	0.773637	0.338164	0.000039
Cl71	Cl	0.427229	0.066177	-0.117692
H72	H	0.917671	0.626091	0.000054
Cl73	Cl	0.794153	0.118007	0.000066
Cl74	Cl	1.125843	0.172451	0.000117
H75	H	1.058212	-0.076417	0.303989
Cl76	Cl	0.406739	-0.186317	0.232080
H77	H	0.475274	-0.113521	-0.187613
Cl78	Cl	0.576308	-0.180205	0.230477
Cl79	Cl	0.635608	-0.088708	-0.230639
H80	H	1.098175	-0.009363	0.374137
Cl81	Cl	0.446936	-0.342383	0.107565
Cl82	Cl	0.615448	-0.344866	0.117864
