data_functionalizedCrystal
_audit_creation_method	'MofGen! by Chris Wilmer'
_symmetry_space_group_name_H-M	'P1'
_symmetry_Int_Tables_number	1
_symmetry_cell_setting	triclinic
loop_
_symmetry_equiv_pos_as_xyz
  x,y,z
_cell_length_a	25.639242
_cell_length_b	19.077068
_cell_length_c	19.076919
_cell_angle_alpha	94.470751
_cell_angle_beta	92.272383
_cell_angle_gamma	92.322930
loop_
_atom_site_label
_atom_site_type_symbol
_atom_site_fract_x
_atom_site_fract_y
_atom_site_fract_z
Zn1	Zn	0.778189	-0.296771	-0.410014
Zn2	Zn	0.778124	-0.409925	-0.296859
Zn3	Zn	0.694419	-0.292046	-0.292126
Zn4	Zn	0.687071	-0.414611	-0.414683
O5	O	0.734451	-0.353338	-0.353421
O6	O	0.851344	-0.311797	-0.395031
O7	O	0.770069	-0.390349	-0.197585
O8	O	0.708634	-0.194024	-0.303830
O9	O	0.851297	-0.394931	-0.311896
O10	O	0.770179	-0.197495	-0.390442
O11	O	0.708571	-0.303744	-0.194108
O12	O	0.620281	-0.308288	-0.308357
O13	O	0.696110	-0.402918	-0.512710
O14	O	0.614882	-0.398336	-0.398399
O15	O	0.763054	-0.316342	-0.509280
O16	O	0.762943	-0.509195	-0.316423
O17	O	0.696047	-0.512638	-0.402988
C18	C	0.598611	-0.353308	-0.353372
C19	C	0.540497	-0.353313	-0.353368
C20	C	0.728704	-0.536496	-0.360741
C21	C	0.726293	-0.614852	-0.363896
C22	C	0.760015	-0.649850	-0.320346
C23	C	0.757750	-0.723475	-0.323318
C24	C	0.721760	-0.762100	-0.369837
C25	C	0.688038	-0.727098	-0.413392
C26	C	0.690305	-0.653474	-0.410423
C27	C	0.711243	-0.982485	-0.383548
C28	C	0.708976	-1.056113	-0.386512
C29	C	0.778689	-1.052485	-0.296439
C30	C	0.780952	-0.978860	-0.293472
C31	C	0.747231	-0.943864	-0.337029
N32	N	0.719443	-0.837356	-0.372874
N33	N	0.749551	-0.868610	-0.333995
C34	C	0.177328	-0.400300	-0.400266
C35	C	0.122723	-0.400304	-0.400277
O36	O	0.092103	-0.440218	-0.440109
N37	N	0.098210	-0.353359	-0.353467
C38	C	0.128304	-0.306402	-0.306648
O39	O	0.102440	-0.266471	-0.266835
C40	C	0.182908	-0.306394	-0.306641
C41	C	0.207418	-0.353347	-0.353449
C42	C	0.201838	-0.447248	-0.447070
C43	C	0.256439	-0.447244	-0.447058
C44	C	0.286530	-0.400292	-0.400241
C45	C	0.262019	-0.353343	-0.353437
C46	C	0.213001	-0.259433	-0.259826
C47	C	0.267609	-0.259429	-0.259823
C48	C	0.292119	-0.306382	-0.306631
C49	C	0.346711	-0.306386	-0.306607
N50	N	0.371224	-0.353331	-0.353417
C51	C	0.341134	-0.400284	-0.400234
C52	C	0.013632	-0.306420	-0.306668
C53	C	-0.040970	-0.306431	-0.306672
C54	C	-0.046548	-0.400333	-0.400301
C55	C	0.008056	-0.400325	-0.400294
C56	C	0.038146	-0.353365	-0.353478
C57	C	0.455800	-0.400272	-0.400204
C58	C	0.510406	-0.400266	-0.400185
C59	C	0.515979	-0.306362	-0.306558
C60	C	0.461377	-0.306370	-0.306574
C61	C	0.431289	-0.353328	-0.353403
O62	O	0.377364	-0.266491	-0.266797
O63	O	0.367005	-0.440202	-0.440047
C64	C	0.870821	-0.353368	-0.353470
C65	C	0.928934	-0.353381	-0.353491
C66	C	0.728769	-0.360680	-0.537288
C67	C	0.726348	-0.363808	-0.615642
C68	C	0.740233	-0.169466	-0.346087
C69	C	0.742698	-0.091110	-0.342962
C70	C	0.760063	-0.320204	-0.650667
C71	C	0.757782	-0.323141	-0.724289
C72	C	0.721788	-0.369686	-0.762883
C73	C	0.688069	-0.413292	-0.727852
C74	C	0.690348	-0.410351	-0.654232
C75	C	0.711231	-0.383312	-0.983255
C76	C	0.708956	-0.386251	-1.056880
C77	C	0.778668	-0.296099	-1.053311
C78	C	0.780946	-0.293166	-0.979690
C79	C	0.747226	-0.336768	-0.944666
N80	N	0.719456	-0.372691	-0.838136
N81	N	0.749555	-0.333760	-0.869414
C82	C	0.740142	-0.345974	-0.170266
C83	C	0.742671	-0.342647	-0.091906
H84	H	0.789319	-0.618406	-0.282463
H85	H	0.806120	-0.260599	-1.081836
H86	H	0.662847	-0.624980	-0.445887
H87	H	0.810258	-0.255266	-0.948272
H88	H	0.662889	-0.445851	-0.625715
N89	N	0.670158	-1.097772	-0.436691
H90	H	0.689437	-1.129593	-0.470614
H91	H	0.645899	-1.127163	-0.409187
H92	H	0.810257	-0.947413	-0.255592
N93	N	0.794120	-0.761223	-0.276347
H94	H	0.817261	-0.725582	-0.246423
H95	H	0.772923	-0.790503	-0.244929
H96	H	0.683785	-0.953997	-0.419013
H97	H	0.806144	-1.080987	-0.260978
N98	N	0.046085	-0.255767	-0.256171
H99	H	0.022266	-0.226032	-0.226522
H100	H	0.068847	-0.283099	-0.224639
N101	N	0.536838	-0.450914	-0.450673
H102	H	0.526134	-0.442055	-0.500625
H103	H	0.575989	-0.443769	-0.443504
H104	H	0.540488	-0.268136	-0.268439
N105	N	-0.067400	-0.255795	-0.256177
H106	H	-0.089913	-0.224315	-0.283573
H107	H	-0.089920	-0.283139	-0.224619
N108	N	0.034492	-0.450961	-0.450783
H109	H	0.057006	-0.482437	-0.423385
H110	H	0.007108	-0.480658	-0.480428
N111	N	0.423352	-0.450920	-0.450709
H112	H	0.447172	-0.480658	-0.480352
H113	H	0.400559	-0.482354	-0.423267
N114	N	0.798891	-0.270007	-0.609047
H115	H	0.823165	-0.297447	-0.579662
H116	H	0.819865	-0.242846	-0.642459
N117	N	0.674858	-0.430348	-0.945503
H118	H	0.696013	-0.461810	-0.916268
H119	H	0.652475	-0.400430	-0.913849
H120	H	-0.071057	-0.438562	-0.438425
H121	H	0.276391	-0.485477	-0.485175
N122	N	0.649222	-0.768754	-0.463569
H123	H	0.652900	-0.820705	-0.458840
H124	H	0.612624	-0.755484	-0.452025
N125	N	0.169388	-0.497900	-0.497564
H126	H	0.177689	-0.489047	-0.547514
H127	H	0.177677	-0.547782	-0.488472
N128	N	0.186574	-0.208791	-0.209339
H129	H	0.213929	-0.179048	-0.179688
H130	H	0.164059	-0.177360	-0.236789
N131	N	0.300062	-0.208774	-0.209331
H132	H	0.276246	-0.179034	-0.179685
H133	H	0.322822	-0.236107	-0.177798
H134	H	0.658760	-0.451187	-0.759281
N135	N	0.434937	-0.255738	-0.256082
H136	H	0.462287	-0.225996	-0.226420
H137	H	0.412425	-0.224306	-0.283533
N138	N	0.794135	-0.276098	-0.762067
H139	H	0.817282	-0.246165	-0.726447
H140	H	0.816485	-0.306007	-0.793776
H141	H	0.679644	-0.424155	-1.088301
