data_functionalizedCrystal
_audit_creation_method	'MofGen! by Chris Wilmer'
_symmetry_space_group_name_H-M	'P1'
_symmetry_Int_Tables_number	1
_symmetry_cell_setting	triclinic
loop_
_symmetry_equiv_pos_as_xyz
  x,y,z
_cell_length_a	10.654541
_cell_length_b	13.330367
_cell_length_c	10.654545
_cell_angle_alpha	89.992654
_cell_angle_beta	84.484678
_cell_angle_gamma	90.005641
loop_
_atom_site_label
_atom_site_type_symbol
_atom_site_fract_x
_atom_site_fract_y
_atom_site_fract_z
O1	O	1.667851	0.083387	0.176366
O2	O	1.302372	0.083395	0.193175
O3	O	1.493514	0.083390	0.002031
O4	O	1.476709	0.083392	0.367510
O5	O	1.493484	-0.083457	0.002062
O6	O	1.302343	-0.083452	0.193206
O7	O	1.667822	-0.083460	0.176397
Cu8	Cu	1.485080	-0.098690	0.184804
Cu9	Cu	1.485114	0.098626	0.184768
O10	O	1.476680	-0.083455	0.367541
C11	C	1.255559	-0.000027	0.191957
C12	C	1.116116	-0.000024	0.188266
N13	N	1.485064	-0.237472	0.184829
C14	C	1.088146	-0.000010	0.416831
C15	C	1.008652	0.000001	0.529374
C16	C	0.877634	0.000002	0.525898
C17	C	0.826108	-0.000011	0.409867
C18	C	0.905602	-0.000022	0.297324
C19	C	1.036622	-0.000020	0.300812
C20	C	0.933572	-0.000043	0.068763
C21	C	1.064590	-0.000037	0.072235
C22	C	0.882046	-0.000056	-0.047269
C23	C	0.961540	-0.000060	-0.159814
C24	C	1.092565	-0.000059	-0.156334
C25	C	1.144084	-0.000048	-0.040308
C26	C	1.561962	-0.710086	0.261625
C27	C	1.408304	-0.710072	0.107860
C28	C	1.408286	-0.605054	0.107880
C29	C	1.485108	-0.552546	0.184772
C30	C	1.561949	-0.605058	0.261644
C31	C	1.331456	-0.552535	0.030999
C32	C	1.331436	-0.447510	0.031015
C33	C	1.408253	-0.395001	0.107914
C34	C	1.485095	-0.447518	0.184791
C35	C	1.561918	-0.395011	0.261682
C36	C	1.638754	-0.447527	0.338566
C37	C	1.638765	-0.552548	0.338543
C38	C	1.408242	-0.289979	0.107937
C39	C	1.561905	-0.289983	0.261701
C40	C	1.714634	-0.000035	0.177615
C41	C	1.854078	-0.000032	0.181306
C42	C	1.492265	-0.000031	-0.044751
C43	C	1.488572	-0.000025	-0.184195
N44	N	1.485139	0.237407	0.184733
C45	C	1.488619	0.181877	-0.184236
C46	C	1.486913	0.272827	-0.249767
C47	C	1.483444	0.272828	-0.380786
C48	C	1.481677	0.181869	-0.446276
C49	C	1.483384	0.090919	-0.380746
C50	C	1.486857	0.090927	-0.249724
C51	C	1.483328	-0.090981	-0.380703
C52	C	1.486806	-0.090985	-0.249685
C53	C	1.481561	-0.181940	-0.446193
C54	C	1.483277	-0.272893	-0.380663
C55	C	1.486748	-0.272890	-0.249637
C56	C	1.488512	-0.181935	-0.184154
C57	C	1.477929	-0.000031	0.414323
C58	C	1.481621	-0.000031	0.553766
H59	H	1.194826	0.000011	0.419672
H60	H	1.345686	-0.247225	0.045336
H61	H	0.719425	-0.000023	0.407048
F62	F	1.477858	-0.181937	-0.585634
F63	F	1.249702	-0.608421	-0.050827
H64	H	1.488118	-0.346954	-0.196287
H65	H	1.268870	-0.404760	-0.031588
H66	H	1.624457	-0.247239	0.324323
F67	F	1.492214	-0.181925	-0.044713
H68	H	1.482043	0.346888	-0.434140
H69	H	1.050619	0.000009	0.623844
F70	F	0.793029	0.000005	0.645678
H71	H	1.701309	-0.404762	0.401166
H72	H	1.250764	-0.000036	-0.037463
F73	F	0.742604	-0.000060	-0.050965
F74	F	0.906695	-0.000081	-0.283289
H75	H	1.157283	-0.000072	-0.247981
F76	F	1.492333	0.181883	-0.044797
F77	F	1.720530	-0.608446	0.420364
F78	F	1.326552	-0.765956	0.026029
H79	H	1.481830	-0.346944	-0.433995
H80	H	1.624516	-0.752849	0.324226
F81	F	1.488819	0.369628	-0.180063
H82	H	1.478837	0.181878	-0.552957
