data_functionalizedCrystal
_audit_creation_method	'MofGen! by Chris Wilmer'
_symmetry_space_group_name_H-M	'P1'
_symmetry_Int_Tables_number	1
_symmetry_cell_setting	triclinic
loop_
_symmetry_equiv_pos_as_xyz
  x,y,z
_cell_length_a	25.639243
_cell_length_b	25.639240
_cell_length_c	25.639234
_cell_angle_alpha	90.032088
_cell_angle_beta	90.023148
_cell_angle_gamma	90.035481
loop_
_atom_site_label
_atom_site_type_symbol
_atom_site_fract_x
_atom_site_fract_y
_atom_site_fract_z
Zn1	Zn	0.799284	-0.208145	0.295630
Zn2	Zn	1.132617	0.125189	0.628963
Zn3	Zn	1.465950	0.458522	0.962296
Zn4	Zn	0.799205	-0.295573	0.208183
Zn5	Zn	1.132539	0.037761	0.541516
Zn6	Zn	1.465872	0.371094	0.874850
Zn7	Zn	0.711849	-0.208157	0.208203
Zn8	Zn	1.045182	0.125176	0.541537
Zn9	Zn	1.378516	0.458509	0.874870
Zn10	Zn	0.711814	-0.295555	0.295582
Zn11	Zn	1.045147	0.037778	0.628916
Zn12	Zn	1.378481	0.371112	0.962249
O13	O	0.755538	-0.251857	0.251900
O14	O	1.088871	0.081476	0.585233
O15	O	1.422205	0.414809	0.918566
O16	O	0.872438	-0.219744	0.284041
O17	O	1.205772	0.113589	0.617374
O18	O	1.539105	0.446922	0.950708
O19	O	0.787599	-0.283990	0.135020
O20	O	1.120932	0.049344	0.468354
O21	O	1.454266	0.382677	0.801687
O22	O	0.723495	-0.134990	0.219829
O23	O	1.056828	0.198343	0.553162
O24	O	1.390162	0.531676	0.886495
O25	O	0.872381	-0.283977	0.219794
O26	O	1.205714	0.049356	0.553128
O27	O	1.539048	0.382689	0.886461
O28	O	0.787733	-0.134981	0.284061
O29	O	1.121066	0.198352	0.617394
O30	O	1.454399	0.531686	0.950727
O31	O	0.723419	-0.219766	0.135035
O32	O	1.056752	0.113567	0.468369
O33	O	1.390085	0.446901	0.801702
O34	O	0.638679	-0.219749	0.219783
O35	O	0.972013	0.113585	0.553116
O36	O	1.305346	0.446918	0.886450
O37	O	0.723435	-0.283947	0.368754
O38	O	1.056769	0.049386	0.702087
O39	O	1.390102	0.382720	1.035421
O40	O	0.638654	-0.283959	0.283980
O41	O	0.971987	0.049374	0.617313
O42	O	1.305320	0.382707	0.950647
O43	O	0.787699	-0.219727	0.368789
O44	O	1.121032	0.113606	0.702122
O45	O	1.454366	0.446940	1.035455
O46	O	0.787565	-0.368736	0.219749
O47	O	1.120899	-0.035402	0.553082
O48	O	1.454232	0.297931	0.886415
O49	O	0.723359	-0.368723	0.283960
O50	O	1.056693	-0.035389	0.617294
O51	O	1.390026	0.297944	0.950627
C52	C	0.619695	-0.251854	0.251879
C53	C	0.953029	0.081479	0.585212
C54	C	1.286362	0.414813	0.918546
C55	C	0.561581	-0.251865	0.251882
C56	C	0.894915	0.081468	0.585216
C57	C	1.228248	0.414802	0.918549
C58	C	0.201243	-0.218464	0.285409
C59	C	0.534576	0.114870	0.618742
C60	C	0.867909	0.448203	0.952075
C61	C	0.146638	-0.218463	0.285412
C62	C	0.479972	0.114870	0.618745
C63	C	0.813305	0.448203	0.952078
O64	O	0.118423	-0.190055	0.313891
O65	O	0.451756	0.143279	0.647224
O66	O	0.785089	0.476612	0.980558
N67	N	0.119299	-0.251856	0.251914
N68	N	0.452632	0.081477	0.585247
N69	N	0.785966	0.414811	0.918581
C70	C	0.146567	-0.285247	0.218407
C71	C	0.479900	0.048086	0.551740
C72	C	0.813233	0.381419	0.885074
O73	O	0.118298	-0.313650	0.189914
O74	O	0.451632	0.019683	0.523248
O75	O	0.784965	0.353017	0.856581
C76	C	0.201170	-0.285245	0.218401
C77	C	0.534503	0.048089	0.551735
C78	C	0.867837	0.381422	0.885068
C79	C	0.228507	-0.251854	0.251905
C80	C	0.561840	0.081480	0.585239
C81	C	0.895173	0.414813	0.918572
C82	C	0.228580	-0.185075	0.318909
C83	C	0.561913	0.148258	0.652243
C84	C	0.895246	0.481592	0.985576
C85	C	0.283180	-0.185076	0.318907
C86	C	0.616513	0.148257	0.652240
C87	C	0.949847	0.481590	0.985573
C88	C	0.310444	-0.218466	0.285403
C89	C	0.643777	0.114867	0.618737
C90	C	0.977111	0.448200	0.952070
C91	C	0.283107	-0.251855	0.251903
C92	C	0.616440	0.081478	0.585236
C93	C	0.949774	0.414812	0.918569
C94	C	0.228437	-0.318633	0.184892
C95	C	0.561770	0.014700	0.518225
C96	C	0.895103	0.348034	0.851559
C97	C	0.283044	-0.318627	0.184889
C98	C	0.616377	0.014706	0.518223
C99	C	0.949710	0.348039	0.851556
C100	C	0.310380	-0.285236	0.218393
C101	C	0.643714	0.048097	0.551726
C102	C	0.977047	0.381430	0.885060
C103	C	0.364971	-0.285246	0.218396
C104	C	0.698305	0.048087	0.551730
C105	C	1.031638	0.381420	0.885063
N106	N	0.392311	-0.251854	0.251894
N107	N	0.725644	0.081480	0.585228
N108	N	1.058978	0.414813	0.918561
C109	C	0.365047	-0.218464	0.285398
C110	C	0.698381	0.114870	0.618731
C111	C	1.031714	0.448203	0.952064
C112	C	0.031896	-0.285250	0.218420
C113	C	0.365229	0.048084	0.551754
C114	C	0.698563	0.381417	0.885087
C115	C	-0.022706	-0.285255	0.218428
C116	C	0.310627	0.048078	0.551761
C117	C	0.643960	0.381411	0.885095
C118	C	-0.022631	-0.218470	0.285432
C119	C	0.310703	0.114863	0.618766
C120	C	0.644036	0.448196	0.952099
C121	C	0.031973	-0.218468	0.285427
C122	C	0.365306	0.114866	0.618760
C123	C	0.698639	0.448199	0.952094
C124	C	0.059235	-0.251857	0.251918
C125	C	0.392569	0.081476	0.585252
C126	C	0.725902	0.414810	0.918585
C127	C	0.479712	-0.218469	0.285390
C128	C	0.813046	0.114864	0.618723
C129	C	1.146379	0.448197	0.952057
C130	C	0.534318	-0.218475	0.285386
C131	C	0.867651	0.114858	0.618719
C132	C	1.200984	0.448192	0.952052
C133	C	0.534237	-0.285258	0.218380
C134	C	0.867571	0.048076	0.551713
C135	C	1.200904	0.381409	0.885046
C136	C	0.479637	-0.285254	0.218386
C137	C	0.812970	0.048079	0.551719
C138	C	1.146303	0.381413	0.885052
C139	C	0.452375	-0.251856	0.251892
C140	C	0.785709	0.081478	0.585226
C141	C	1.119042	0.414811	0.918559
O142	O	0.393222	-0.313639	0.189930
O143	O	0.726555	0.019694	0.523264
O144	O	1.059889	0.353028	0.856597
O145	O	0.393322	-0.190061	0.313881
O146	O	0.726656	0.143272	0.647214
O147	O	1.059989	0.476606	0.980547
C148	C	0.755464	-0.387700	0.251859
C149	C	1.088797	-0.054367	0.585192
C150	C	1.422131	0.278967	0.918525
C151	C	0.755480	-0.445814	0.251859
C152	C	1.088814	-0.112481	0.585192
C153	C	1.422147	0.220853	0.918525
C154	C	0.789003	-0.806134	0.285405
C155	C	1.122337	-0.472800	0.618739
C156	C	1.455670	-0.139467	0.952072
C157	C	0.789019	-0.860738	0.285416
C158	C	1.122352	-0.527405	0.618749
C159	C	1.455685	-0.194071	0.952083
O160	O	0.817433	-0.888938	0.313897
O161	O	1.150767	-0.555605	0.647230
O162	O	1.484100	-0.222271	0.980563
N163	N	0.755611	-0.888096	0.251950
N164	N	1.088944	-0.554763	0.585283
N165	N	1.422277	-0.221430	0.918617
C166	C	0.722181	-0.860848	0.218475
C167	C	1.055514	-0.527514	0.551808
C168	C	1.388848	-0.194181	0.885142
O169	O	0.693766	-0.889132	0.190011
O170	O	1.027099	-0.555799	0.523344
O171	O	1.360433	-0.222466	0.856678
C172	C	0.722163	-0.806244	0.218468
C173	C	1.055497	-0.472911	0.551801
C174	C	1.388830	-0.139578	0.885134
C175	C	0.755578	-0.778889	0.251932
C176	C	1.088911	-0.445556	0.585265
C177	C	1.422244	-0.112222	0.918599
C178	C	0.822414	-0.778778	0.318868
C179	C	1.155748	-0.445445	0.652201
C180	C	1.489081	-0.112111	0.985534
C181	C	0.822399	-0.724178	0.318856
C182	C	1.155733	-0.390844	0.652189
C183	C	1.489066	-0.057511	0.985523
C184	C	0.788974	-0.696933	0.285383
C185	C	1.122307	-0.363599	0.618716
C186	C	1.455640	-0.030266	0.952049
C187	C	0.755563	-0.724288	0.251920
C188	C	1.088896	-0.390955	0.585254
C189	C	1.422229	-0.057622	0.918587
C190	C	0.688732	-0.778997	0.184996
C191	C	1.022065	-0.445663	0.518329
C192	C	1.355398	-0.112330	0.851662
C193	C	0.688717	-0.724390	0.184991
C194	C	1.022050	-0.391056	0.518324
C195	C	1.355383	-0.057723	0.851658
C196	C	0.722131	-0.697034	0.218455
C197	C	1.055464	-0.363701	0.551789
C198	C	1.388797	-0.030367	0.885122
C199	C	0.722122	-0.642443	0.218435
C200	C	1.055455	-0.309110	0.551769
C201	C	1.388789	0.024224	0.885102
N202	N	0.755530	-0.615084	0.251901
N203	N	1.088863	-0.281751	0.585235
N204	N	1.422197	0.051582	0.918568
C205	C	0.788956	-0.642329	0.285375
C206	C	1.122289	-0.308996	0.618708
C207	C	1.455623	0.024337	0.952042
C208	C	0.722220	-0.975518	0.218494
C209	C	1.055553	-0.642185	0.551828
C210	C	1.388887	-0.308852	0.885161
C211	C	0.722240	-1.030121	0.218499
C212	C	1.055573	-0.696787	0.551832
C213	C	1.388907	-0.363454	0.885165
C214	C	0.789077	-1.030007	0.285441
C215	C	1.122410	-0.696674	0.618774
C216	C	1.455744	-0.363341	0.952107
C217	C	0.789059	-0.975404	0.285433
C218	C	1.122393	-0.642071	0.618766
C219	C	1.455726	-0.308737	0.952100
C220	C	0.755628	-0.948160	0.251960
C221	C	1.088962	-0.614827	0.585294
C222	C	1.422295	-0.281493	0.918627
C223	C	0.788922	-0.527664	0.285348
C224	C	1.122256	-0.194331	0.618681
C225	C	1.455589	0.139002	0.952015
C226	C	0.788906	-0.473059	0.285332
C227	C	1.122240	-0.139726	0.618665
C228	C	1.455573	0.193608	0.951999
C229	C	0.722067	-0.473177	0.218393
C230	C	1.055401	-0.139844	0.551726
C231	C	1.388734	0.193489	0.885059
C232	C	0.722085	-0.527778	0.218406
C233	C	1.055419	-0.194444	0.551740
C234	C	1.388752	0.138889	0.885073
C235	C	0.755515	-0.555020	0.251888
C236	C	1.088848	-0.221687	0.585222
C237	C	1.422181	0.111647	0.918555
O238	O	0.693720	-0.614208	0.189971
O239	O	1.027054	-0.280875	0.523304
O240	O	1.360387	0.052458	0.856638
O241	O	0.817361	-0.614038	0.313839
O242	O	1.150695	-0.280705	0.647172
O243	O	1.484028	0.052628	0.980506
C244	C	0.891911	-0.251861	0.251921
C245	C	1.225244	0.081472	0.585254
C246	C	1.558578	0.414805	0.918587
C247	C	0.950025	-0.251863	0.251930
C248	C	1.283358	0.081470	0.585263
C249	C	1.616692	0.414804	0.918596
C250	C	0.755572	-0.251834	0.388273
C251	C	1.088905	0.081500	0.721606
C252	C	1.422239	0.414833	1.054939
C253	C	0.755587	-0.251823	0.446387
C254	C	1.088920	0.081510	0.779720
C255	C	1.422253	0.414843	1.113053
C256	C	0.755626	-0.115484	0.251952
C257	C	1.088960	0.217849	0.585285
C258	C	1.422293	0.551182	0.918619
C259	C	0.755664	-0.057370	0.251975
C260	C	1.088997	0.275963	0.585308
C261	C	1.422331	0.609296	0.918641
C262	C	0.755534	-0.251843	0.116057
C263	C	1.088868	0.081490	0.449390
C264	C	1.422201	0.414823	0.782724
C265	C	0.755621	-0.251706	0.057943
C266	C	1.088954	0.081627	0.391277
C267	C	1.422288	0.414960	0.724610
C268	C	0.722183	-0.218320	0.806763
C269	C	1.055516	0.115013	1.140096
C270	C	1.388849	0.448347	1.473430
C271	C	0.722185	-0.218310	0.861367
C272	C	1.055519	0.115023	1.194701
C273	C	1.388852	0.448356	1.528034
O274	O	0.693758	-0.189882	0.889615
O275	O	1.027091	0.143451	1.222949
O276	O	1.360424	0.476785	1.556282
N277	N	0.755604	-0.251741	0.888669
N278	N	1.088937	0.081592	1.222003
N279	N	1.422271	0.414925	1.555336
C280	C	0.789018	-0.285188	0.861364
C281	C	1.122351	0.048145	1.194697
C282	C	1.455685	0.381479	1.528031
O283	O	0.817443	-0.313623	0.889601
O284	O	1.150776	0.019710	1.222934
O285	O	1.484110	0.353044	1.556267
C286	C	0.789012	-0.285200	0.806761
C287	C	1.122345	0.048134	1.140094
C288	C	1.455679	0.381467	1.473427
C289	C	0.755595	-0.251763	0.779462
C290	C	1.088929	0.081571	1.112795
C291	C	1.422262	0.414904	1.446128
C292	C	0.688768	-0.184886	0.779464
C293	C	1.022101	0.148447	1.112797
C294	C	1.355435	0.481781	1.446131
C295	C	0.688766	-0.184895	0.724863
C296	C	1.022099	0.148438	1.058197
C297	C	1.355433	0.481772	1.391530
C298	C	0.722179	-0.218338	0.697562
C299	C	1.055512	0.114996	1.030895
C300	C	1.388845	0.448329	1.364229
C301	C	0.755593	-0.251772	0.724861
C302	C	1.088927	0.081562	1.058194
C303	C	1.422260	0.414895	1.391528
C304	C	0.822423	-0.318648	0.779457
C305	C	1.155757	0.014685	1.112790
C306	C	1.489090	0.348018	1.446123
C307	C	0.822414	-0.318657	0.724849
C308	C	1.155748	0.014676	1.058183
C309	C	1.489081	0.348009	1.391516
C310	C	0.788997	-0.285220	0.697550
C311	C	1.122331	0.048113	1.030884
C312	C	1.455664	0.381446	1.364217
C313	C	0.789004	-0.285223	0.642959
C314	C	1.122337	0.048110	0.976292
C315	C	1.455671	0.381443	1.309626
N316	N	0.755585	-0.251792	0.615657
N317	N	1.088919	0.081541	0.948991
N318	N	1.422252	0.414875	1.282324
C319	C	0.722173	-0.218349	0.642959
C320	C	1.055506	0.114984	0.976292
C321	C	1.388839	0.448317	1.309625
C322	C	0.789027	-0.285161	0.976035
C323	C	1.122360	0.048172	1.309368
C324	C	1.455694	0.381505	1.642701
C325	C	0.789036	-0.285147	1.030637
C326	C	1.122369	0.048186	1.363970
C327	C	1.455703	0.381519	1.697304
C328	C	0.722202	-0.218270	1.030637
C329	C	1.055536	0.115063	1.363970
C330	C	1.388869	0.448396	1.697303
C331	C	0.722197	-0.218282	0.976033
C332	C	1.055530	0.115051	1.309367
C333	C	1.388863	0.448385	1.642700
C334	C	0.755609	-0.251730	0.948733
C335	C	1.088942	0.081603	1.282066
C336	C	1.422275	0.414936	1.615400
C337	C	0.722171	-0.218370	0.528294
C338	C	1.055505	0.114963	0.861627
C339	C	1.388838	0.448296	1.194960
C340	C	0.722174	-0.218381	0.473688
C341	C	1.055507	0.114953	0.807021
C342	C	1.388841	0.448286	1.140355
C343	C	0.789005	-0.285259	0.473693
C344	C	1.122338	0.048074	0.807027
C345	C	1.455672	0.381407	1.140360
C346	C	0.789005	-0.285247	0.528294
C347	C	1.122338	0.048086	0.861627
C348	C	1.455671	0.381419	1.194961
C349	C	0.755584	-0.251801	0.555593
C350	C	1.088917	0.081532	0.888926
C351	C	1.422250	0.414866	1.222259
O352	O	0.817415	-0.313639	0.614676
O353	O	1.150749	0.019695	0.948010
O354	O	1.484082	0.353028	1.281343
O355	O	0.693748	-0.189924	0.614716
O356	O	1.027081	0.143409	0.948049
O357	O	1.360414	0.476743	1.281382
H358	H	0.457378	-0.312450	0.191110
H359	H	0.790711	0.020884	0.524443
H360	H	1.124045	0.354217	0.857777
H361	H	0.661557	-0.157653	0.801687
H362	H	0.994890	0.175681	1.135020
H363	H	1.328223	0.509014	1.468354
C364	C	0.685299	-0.443197	0.181576
C365	C	1.018632	-0.109864	0.514909
C366	C	1.351965	0.223469	0.848242
N367	N	0.657601	-0.420615	0.153848
N368	N	0.990934	-0.087282	0.487181
N369	N	1.324267	0.246052	0.820515
C370	C	0.651969	-0.809076	0.148185
C371	C	0.985303	-0.475742	0.481518
C372	C	1.318636	-0.142409	0.814852
N373	N	0.624276	-0.831730	0.120458
N374	N	0.957609	-0.498397	0.453792
N375	N	1.290943	-0.165064	0.787125
C376	C	0.198378	-0.355360	0.148028
C377	C	0.531712	-0.022026	0.481361
C378	C	0.865045	0.311307	0.814694
N379	N	0.175739	-0.383021	0.120256
N380	N	0.509073	-0.049688	0.453590
N381	N	0.842406	0.283645	0.786923
H382	H	0.849606	-0.701908	0.346107
H383	H	1.182940	-0.368574	0.679440
H384	H	1.516273	-0.035241	1.012774
H385	H	-0.044839	-0.191281	0.312711
H386	H	0.288495	0.142052	0.646045
H387	H	0.621828	0.475386	0.979378
H388	H	0.694962	-0.191150	0.451464
H389	H	1.028295	0.142183	0.784797
H390	H	1.361628	0.475517	1.118130
C391	C	0.651939	-0.694425	0.148167
C392	C	0.985273	-0.361092	0.481500
C393	C	1.318606	-0.027758	0.814833
N394	N	0.624240	-0.671856	0.120429
N395	N	0.957573	-0.338523	0.453763
N396	N	1.290907	-0.005190	0.787096
H397	H	0.849633	-0.800955	0.346129
H398	H	1.182967	-0.467622	0.679462
H399	H	1.516300	-0.134288	1.012795
H400	H	0.694881	-0.550052	0.191153
H401	H	1.028214	-0.216719	0.524486
H402	H	1.361548	0.116615	0.857819
C403	C	0.685410	-0.181574	0.558314
C404	C	1.018743	0.151759	0.891648
C405	C	1.352076	0.485092	1.224981
N406	N	0.657724	-0.153857	0.580925
N407	N	0.991057	0.179477	0.914259
N408	N	1.324391	0.512810	1.247592
C409	C	0.825768	-0.322026	0.558324
C410	C	1.159101	0.011307	0.891657
C411	C	1.492435	0.344640	1.224990
N412	N	0.853455	-0.349733	0.580939
N413	N	1.186788	-0.016400	0.914272
N414	N	1.520122	0.316934	1.247605
H415	H	0.816268	-0.953134	0.312683
H416	H	1.149601	-0.619801	0.646016
H417	H	1.482934	-0.286467	0.979349
H418	H	0.849635	-0.345877	0.801674
H419	H	1.182968	-0.012543	1.135007
H420	H	1.516301	0.320790	1.468341
C421	C	0.313029	-0.355361	0.148028
C422	C	0.646363	-0.022027	0.481361
C423	C	0.979696	0.311306	0.814694
N424	N	0.335613	-0.383030	0.120265
N425	N	0.668947	-0.049696	0.453598
N426	N	1.002280	0.283637	0.786931
C427	C	0.564385	-0.181738	0.322242
C428	C	0.897718	0.151595	0.655575
C429	C	1.231051	0.484928	0.988908
N430	N	0.587029	-0.154067	0.349999
N431	N	0.920363	0.179266	0.683332
N432	N	1.253696	0.512599	1.016666
H433	H	0.661552	-0.157669	0.702641
H434	H	0.994886	0.175664	1.035975
H435	H	1.328219	0.508998	1.369308
H436	H	0.054227	-0.191277	0.312708
H437	H	0.387560	0.142057	0.646041
H438	H	0.720893	0.475390	0.979374
H439	H	0.694986	-0.191054	0.953810
H440	H	1.028319	0.142279	1.287143
H441	H	1.361653	0.475612	1.620477
C442	C	0.685444	-0.181486	1.060679
C443	C	1.018777	0.151847	1.394012
C444	C	1.352110	0.485180	1.727345
N445	N	0.657758	-0.153783	1.083308
N446	N	0.991092	0.179550	1.416641
N447	N	1.324425	0.512884	1.749975
C448	C	0.825801	-0.321927	1.060660
C449	C	1.159135	0.011407	1.393993
C450	C	1.492468	0.344740	1.727327
N451	N	0.853492	-0.349633	1.083271
N452	N	1.186825	-0.016299	1.416605
N453	N	1.520158	0.317034	1.749938
C454	C	0.825799	-0.321946	0.946009
C455	C	1.159132	0.011388	1.279343
C456	C	1.492466	0.344721	1.612676
N457	N	0.853498	-0.349649	0.923397
N458	N	1.186832	-0.016316	1.256730
N459	N	1.520165	0.317018	1.590063
C460	C	-0.052771	-0.321991	0.181574
C461	C	0.280563	0.011343	0.514907
C462	C	0.613896	0.344676	0.848241
N463	N	-0.075413	-0.349658	0.153811
N464	N	0.257920	-0.016325	0.487144
N465	N	0.591254	0.317009	0.820478
H466	H	0.206387	-0.157882	0.346192
H467	H	0.539720	0.175451	0.679525
H468	H	0.873054	0.508785	1.012858
H469	H	0.849626	-0.345892	0.702624
H470	H	1.182960	-0.012559	1.035958
H471	H	1.516293	0.320774	1.369291
C472	C	0.825756	-0.322046	0.443651
C473	C	1.159089	0.011287	0.776985
C474	C	1.492422	0.344620	1.110318
N475	N	0.853433	-0.349758	0.421022
N476	N	1.186766	-0.016424	0.754355
N477	N	1.520100	0.316909	1.087689
H478	H	0.054090	-0.312444	0.191135
H479	H	0.387423	0.020889	0.524468
H480	H	0.720757	0.354223	0.857802
H481	H	0.457523	-0.191272	0.312673
H482	H	0.790856	0.142062	0.646006
H483	H	1.124189	0.475395	0.979339
H484	H	0.694998	-0.953339	0.191232
H485	H	1.028331	-0.620006	0.524566
H486	H	1.361665	-0.286672	0.857899
C487	C	0.564238	-0.321981	0.181524
C488	C	0.897571	0.011353	0.514857
C489	C	1.230904	0.344686	0.848190
N490	N	0.586836	-0.349637	0.153759
N491	N	0.920169	-0.016303	0.487093
N492	N	1.253503	0.317030	0.820426
C493	C	0.313243	-0.148336	0.355757
C494	C	0.646577	0.184997	0.689090
C495	C	0.979910	0.518331	1.022423
N496	N	0.335884	-0.120659	0.383511
N497	N	0.669217	0.212675	0.716845
N498	N	1.002550	0.546008	1.050178
H499	H	0.816118	-0.450788	0.312583
H500	H	1.149451	-0.117454	0.645916
H501	H	1.482784	0.215879	0.979249
C502	C	0.825700	-0.557623	0.322176
C503	C	1.159033	-0.224289	0.655510
C504	C	1.492367	0.109044	0.988843
N505	N	0.853404	-0.580187	0.349913
N506	N	1.186737	-0.246854	0.683246
N507	N	1.520070	0.086479	1.016579
H508	H	0.816293	-1.052200	0.312698
H509	H	1.149627	-0.718867	0.646031
H510	H	1.482960	-0.385533	0.979364
C511	C	0.685486	-1.060206	0.181681
C512	C	1.018819	-0.726872	0.515015
C513	C	1.352153	-0.393539	0.848348
N514	N	0.657799	-1.082864	0.153951
N515	N	0.991132	-0.749531	0.487285
N516	N	1.324466	-0.416197	0.820618
