data_functionalizedCrystal
_audit_creation_method	'MofGen! by Chris Wilmer'
_symmetry_space_group_name_H-M	'P1'
_symmetry_Int_Tables_number	1
_symmetry_cell_setting	triclinic
loop_
_symmetry_equiv_pos_as_xyz
  x,y,z
_cell_length_a	19.288840
_cell_length_b	17.766277
_cell_length_c	19.288865
_cell_angle_alpha	90.011603
_cell_angle_beta	96.868869
_cell_angle_gamma	89.983415
loop_
_atom_site_label
_atom_site_type_symbol
_atom_site_fract_x
_atom_site_fract_y
_atom_site_fract_z
O1	O	0.921364	-0.062729	-0.086566
O2	O	1.421364	0.437271	0.413434
O3	O	0.719101	-0.062704	-0.098273
O4	O	1.219101	0.437296	0.401727
O5	O	0.826077	-0.062702	0.008711
O6	O	1.326077	0.437298	0.508711
O7	O	0.814388	-0.062730	-0.193550
O8	O	1.314388	0.437270	0.306450
O9	O	0.826058	0.062487	0.008717
O10	O	1.326058	0.562487	0.508717
O11	O	0.719082	0.062485	-0.098267
O12	O	1.219082	0.562485	0.401733
O13	O	0.921345	0.062460	-0.086560
O14	O	1.421345	0.562460	0.413440
Cu15	Cu	0.820212	0.073903	-0.092413
Cu16	Cu	1.320212	0.573903	0.407587
Cu17	Cu	0.820234	-0.074147	-0.092420
Cu18	Cu	1.320234	0.425853	0.407580
O19	O	0.814369	0.062458	-0.193545
O20	O	1.314369	0.562458	0.306455
C21	C	0.693215	-0.000106	-0.097896
C22	C	1.193215	0.499894	0.402104
C23	C	0.616110	-0.000096	-0.096774
C24	C	1.116110	0.499904	0.403226
C25	C	0.579917	-0.068338	-0.096238
C26	C	1.079917	0.431662	0.403762
C27	C	0.507470	-0.068347	-0.095176
C28	C	1.007470	0.431653	0.404824
C29	C	0.471221	-0.000110	-0.094636
C30	C	0.971221	0.499890	0.405364
C31	C	0.507423	0.068141	-0.095176
C32	C	1.007423	0.568141	0.404824
C33	C	0.579867	0.068148	-0.096245
C34	C	1.079867	0.568148	0.403755
C35	C	0.361886	0.052164	-0.052256
C36	C	0.861886	0.552164	0.447744
C37	C	0.289443	0.052155	-0.051183
C38	C	0.789443	0.552155	0.448817
C39	C	0.247778	-0.000129	-0.091342
C40	C	0.747778	0.499871	0.408658
C41	C	0.278565	-0.052416	-0.132566
C42	C	0.778565	0.447584	0.367434
C43	C	0.351010	-0.052408	-0.133635
C44	C	0.851010	0.447592	0.366365
C45	C	0.392667	-0.000110	-0.093477
C46	C	0.892667	0.499890	0.406523
C47	C	0.133029	-0.068386	-0.089655
C48	C	0.633029	0.431614	0.410345
C49	C	0.060580	-0.068392	-0.088598
C50	C	0.560580	0.431608	0.411402
C51	C	0.060535	0.068098	-0.088591
C52	C	0.560535	0.568098	0.411409
C53	C	0.132982	0.068102	-0.089656
C54	C	0.632982	0.568102	0.410344
C55	C	0.169225	-0.000142	-0.090185
C56	C	0.669225	0.499858	0.409815
C57	C	0.825692	-0.000105	0.034591
C58	C	1.325692	0.499895	0.534591
C59	C	0.824563	-0.000099	0.111694
C60	C	1.324563	0.499901	0.611694
C61	C	0.947232	-0.000139	-0.086937
C62	C	1.447232	0.499861	0.413063
C63	C	1.024336	-0.000154	-0.088059
C64	C	1.524336	0.499846	0.411941
N65	N	0.820202	0.178034	-0.092409
N66	N	1.320202	0.678034	0.407591
N67	N	0.820250	-0.178277	-0.092419
N68	N	1.320250	0.321723	0.407581
C69	C	0.867586	0.217421	-0.045059
C70	C	1.367586	0.717421	0.454941
C71	C	0.867590	0.296223	-0.045056
C72	C	1.367590	0.796223	0.454944
C73	C	0.820216	0.335634	-0.092414
C74	C	1.320216	0.835634	0.407586
C75	C	0.772823	0.296237	-0.139767
C76	C	1.272823	0.796237	0.360233
C77	C	0.772816	0.217437	-0.139764
C78	C	1.272816	0.717437	0.360236
C79	C	0.810917	0.460464	-0.155703
C80	C	1.310917	0.960464	0.344297
C81	C	0.810930	0.539263	-0.155706
C82	C	1.310930	1.039263	0.344294
C83	C	0.820235	0.578680	-0.092422
C84	C	1.320235	1.078680	0.407578
C85	C	0.829543	0.539290	-0.029132
C86	C	1.329543	1.039290	0.470868
C87	C	0.829535	0.460489	-0.029129
C88	C	1.329535	0.960489	0.470871
C89	C	0.820219	0.421080	-0.092422
C90	C	1.320219	0.921080	0.407578
C91	C	0.867626	0.703514	-0.045065
C92	C	1.367626	1.203514	0.454935
C93	C	0.867625	0.782317	-0.045061
C94	C	1.367625	1.282317	0.454939
C95	C	0.772862	0.782330	-0.139779
C96	C	1.272862	1.282330	0.360221
C97	C	0.772859	0.703528	-0.139777
C98	C	1.272859	1.203528	0.360223
C99	C	0.820245	0.664125	-0.092421
C100	C	1.320245	1.164125	0.407579
C101	C	0.814755	-0.000140	-0.219424
C102	C	1.314755	0.499860	0.280576
C103	C	0.815884	-0.000152	-0.296527
C104	C	1.315884	0.499848	0.203473
C105	C	0.887331	-0.000103	0.156396
C106	C	1.387331	0.499897	0.656396
C107	C	0.886270	-0.000114	0.228843
C108	C	1.386270	0.499886	0.728843
C109	C	0.822438	-0.000107	0.256585
C110	C	1.322438	0.499893	0.756585
C111	C	0.759661	-0.000107	0.211873
C112	C	1.259661	0.499893	0.711873
C113	C	0.760723	-0.000103	0.139428
C114	C	1.260723	0.499897	0.639428
C115	C	0.772251	0.043750	0.364870
C116	C	1.272251	0.543750	0.864870
C117	C	0.771191	0.043750	0.437314
C118	C	1.271191	0.543750	0.937314
C119	C	0.819158	-0.000123	0.480030
C120	C	1.319158	0.499877	0.980030
C121	C	0.868196	-0.043988	0.450295
C122	C	1.368196	0.456012	0.950295
C123	C	0.869259	-0.043984	0.377849
C124	C	1.369259	0.456016	0.877849
C125	C	0.821278	-0.000112	0.335139
C126	C	1.321278	0.499888	0.835139
C127	C	0.880781	-0.000141	0.603288
C128	C	1.380781	0.499859	1.103288
C129	C	0.879717	-0.000158	0.675736
C130	C	1.379717	0.499842	1.175736
C131	C	0.753106	-0.000143	0.658764
C132	C	1.253106	0.499857	1.158764
C133	C	0.754171	-0.000134	0.586318
C134	C	1.254171	0.499866	1.086318
C135	C	0.818010	-0.000130	0.558584
C136	C	1.318010	0.499870	1.058584
H137	H	0.477996	-0.123920	-0.094741
H138	H	0.977996	0.376080	0.405259
F139	F	0.946528	-0.000167	0.723312
F140	F	1.446528	0.499833	1.223312
H141	H	0.609422	-0.123907	-0.096669
H142	H	1.109422	0.376093	0.403331
H143	H	0.733189	0.079481	0.330095
H144	H	1.233189	0.579481	0.830095
H145	H	0.031112	-0.123965	-0.088165
H146	H	0.531112	0.376035	0.411835
H147	H	0.609335	0.123721	-0.096683
H148	H	1.109335	0.623721	0.403317
H149	H	0.937386	-0.000121	0.265246
H150	H	1.437386	0.499879	0.765246
F151	F	0.801028	0.581178	-0.223064
F152	F	1.301028	1.081178	0.276936
H153	H	0.031021	0.123658	-0.088156
H154	H	0.531021	0.623658	0.411844
H155	H	0.376073	-0.094980	-0.167202
H156	H	0.876073	0.405020	0.332798
H157	H	0.244642	-0.094987	-0.165270
H158	H	0.744642	0.405013	0.334730
H159	H	0.939314	-0.000102	0.133820
H160	H	1.439314	0.499898	0.633820
H161	H	0.162451	0.123672	-0.090088
H162	H	0.662451	0.623672	0.409912
F163	F	0.406223	0.107817	-0.009511
F164	F	0.906223	0.607817	0.490489
F165	F	0.256682	0.107813	-0.007322
F166	F	0.756682	0.607813	0.492678
F167	F	0.722439	0.824270	-0.190177
F168	F	1.222439	1.324270	0.309823
H169	H	0.909186	-0.079701	0.353641
H170	H	1.409186	0.420299	0.853641
H171	H	0.906209	0.814387	-0.006500
H172	H	1.406209	1.314387	0.493500
F173	F	0.171603	-0.141016	-0.090224
F174	F	0.671603	0.358984	0.409776
H175	H	0.906168	0.185341	-0.006498
H176	H	1.406168	0.685341	0.493502
F177	F	0.722430	0.661605	-0.190176
F178	F	1.222430	1.161605	0.309824
F179	F	0.468843	0.140764	-0.094605
F180	F	0.968843	0.640764	0.405395
F181	F	0.948723	-0.000133	0.573769
F182	F	1.448723	0.499867	1.073769
H183	H	0.701132	-0.000141	0.681351
H184	H	1.201132	0.499859	1.181351
H185	H	0.709608	-0.000099	0.103030
H186	H	1.209608	0.499901	0.603030
H187	H	0.906177	0.328298	-0.006497
H188	H	1.406177	0.828298	0.493503
H189	H	0.837112	0.428420	0.022404
H190	H	1.337112	0.928420	0.522404
F191	F	0.719003	0.090437	0.468954
F192	F	1.219003	0.590437	0.968954
F193	F	0.839451	0.581234	0.038225
F194	F	1.339451	1.081234	0.538225
F195	F	0.918055	0.661578	0.005338
F196	F	1.418055	1.161578	0.505338
H197	H	0.803328	0.428377	-0.207239
H198	H	1.303328	0.928377	0.292761
H199	H	0.734250	0.328329	-0.178326
H200	H	1.234250	0.828329	0.321674
F201	F	0.722381	0.175516	-0.190162
F202	F	1.222381	0.675516	0.309838
H203	H	0.907256	-0.079715	0.485073
H204	H	1.407256	0.420285	0.985073
F205	F	0.691725	-0.000104	0.241399
F206	F	1.191725	0.499896	0.741399
H207	H	0.703058	-0.000127	0.549920
H208	H	1.203058	0.499873	1.049920
