data_functionalizedCrystal
_audit_creation_method	'MofGen! by Chris Wilmer'
_symmetry_space_group_name_H-M	'P1'
_symmetry_Int_Tables_number	1
_symmetry_cell_setting	triclinic
loop_
_symmetry_equiv_pos_as_xyz
  x,y,z
_cell_length_a	21.295417
_cell_length_b	14.908571
_cell_length_c	14.908308
_cell_angle_alpha	90.175053
_cell_angle_beta	86.739365
_cell_angle_gamma	93.273651
loop_
_atom_site_label
_atom_site_type_symbol
_atom_site_fract_x
_atom_site_fract_y
_atom_site_fract_z
Zn1	Zn	-0.328502	-1.345216	0.587528
Zn2	Zn	-0.428068	-1.353772	0.437153
Zn3	Zn	-0.316411	-1.203534	0.428528
Zn4	Zn	-0.427320	-1.194800	0.578804
O5	O	-0.375075	-1.274330	0.508003
O6	O	-0.347082	-1.472175	0.574841
O7	O	-0.408509	-1.341079	0.310185
O8	O	-0.229930	-1.222403	0.449662
O9	O	-0.420233	-1.478462	0.464361
O10	O	-0.238813	-1.326496	0.566479
O11	O	-0.326476	-1.230699	0.303848
O12	O	-0.325750	-1.076551	0.441202
O13	O	-0.418959	-1.207517	0.705785
O14	O	-0.407235	-1.070134	0.551609
O15	O	-0.346357	-1.318027	0.712195
O16	O	-0.516054	-1.332609	0.455901
O17	O	-0.515504	-1.215813	0.559972
C18	C	-0.365100	-1.040717	0.494524
C19	C	-0.360848	-0.940775	0.488779
C20	C	-0.538620	-1.274215	0.507947
C21	C	-0.608590	-1.274247	0.507957
C22	C	-0.383923	-1.260843	0.742527
C23	C	-0.387694	-1.255096	0.842467
C24	C	-0.641726	-1.335110	0.453830
C25	C	-0.707471	-1.335151	0.453852
C26	C	-0.740076	-1.274313	0.507992
C27	C	-0.706932	-1.213445	0.562131
C28	C	-0.641189	-1.213412	0.562114
N29	N	-0.840247	-1.195260	0.510308
N30	N	-0.902701	-1.195295	0.510320
C31	C	-0.938157	-1.274411	0.508050
N32	N	-0.908801	-1.353494	0.505750
N33	N	-0.846341	-1.353459	0.505734
C34	C	-0.811364	-1.274343	0.508018
C35	C	-1.042582	-1.335324	0.453944
C36	C	-1.108328	-1.335366	0.453973
C37	C	-1.107788	-1.213652	0.562246
C38	C	-1.042043	-1.213618	0.562223
C39	C	-1.009444	-1.274453	0.508066
C40	C	-0.210894	-1.274469	0.508081
C41	C	-0.140929	-1.274528	0.508114
C42	C	-0.385090	-1.508856	0.521536
C43	C	-0.389358	-1.608796	0.527303
C44	C	-0.437828	-0.746349	0.592795
C45	C	-0.433836	-0.652444	0.587400
C46	C	-0.348868	-0.659060	0.472599
C47	C	-0.352861	-0.752964	0.477994
C48	C	-0.397343	-0.796605	0.538093
C49	C	-0.401338	-0.890512	0.543483
C50	C	-0.316368	-0.897125	0.428687
C51	C	-0.312375	-0.803221	0.423292
C52	C	-0.366218	-1.287817	0.274395
C53	C	-0.362278	-1.293739	0.174465
C54	C	-0.319164	-1.359367	1.036941
C55	C	-0.322705	-1.353969	1.130844
C56	C	-0.398312	-1.238899	1.124177
C57	C	-0.394771	-1.244297	1.030274
C58	C	-0.355197	-1.304533	0.986660
C59	C	-0.351660	-1.309935	0.892756
C60	C	-0.427263	-1.194861	0.886090
C61	C	-0.430804	-1.189463	0.979993
H62	H	-0.615186	-1.384647	0.409735
C63	C	-0.466896	-1.134532	0.830783
H64	H	-0.490973	-1.097890	0.870210
H65	H	-0.439763	-1.097482	0.791902
H66	H	-0.494414	-1.171014	0.796125
H67	H	-0.614209	-1.163849	0.606192
H68	H	-1.015062	-1.164053	0.606295
C69	C	-0.486757	-0.794358	0.658896
H70	H	-0.510296	-0.750976	0.690705
H71	H	-0.514402	-0.832951	0.626532
H72	H	-0.465754	-0.828753	0.700246
C73	C	-0.441837	-1.172642	1.172159
H74	H	-0.462789	-1.140751	1.128766
H75	H	-0.472110	-1.204909	1.210768
H76	H	-0.417460	-1.131375	1.206536
H77	H	-0.286944	-1.408418	1.001430
H78	H	-0.466802	-0.611529	0.631946
C79	C	-0.299950	-0.611044	0.406488
H80	H	-0.303376	-0.547921	0.411106
H81	H	-0.258820	-0.625691	0.420626
H82	H	-0.307484	-0.629889	0.346933
H83	H	-0.734456	-1.384717	0.409775
H84	H	-0.733484	-1.163912	0.606214
H85	H	-1.134335	-1.164120	0.606333
H86	H	-1.135307	-1.384934	0.409897
H87	H	-0.463023	-1.140419	1.015517
C88	C	-1.006721	-1.402247	0.394386
H89	H	-1.035875	-1.438512	0.362162
H90	H	-0.978165	-1.370127	0.353189
H91	H	-0.984007	-1.439403	0.431072
C92	C	-0.450263	-0.938517	0.609592
H93	H	-0.473798	-0.895132	0.641404
H94	H	-0.477913	-0.977110	0.577235
H95	H	-0.429257	-0.972912	0.650938
C96	C	-0.308131	-1.376189	0.844776
H97	H	-0.311185	-1.371558	0.781649
H98	H	-0.265857	-1.362176	0.859424
H99	H	-0.320503	-1.435714	0.863647
H100	H	-0.276158	-0.767675	0.374363
H101	H	-0.283403	-0.938054	0.384142
H102	H	-0.293362	-1.398618	1.171780
