data_functionalizedCrystal
_audit_creation_method	'MofGen! by Chris Wilmer'
_symmetry_space_group_name_H-M	'P1'
_symmetry_Int_Tables_number	1
_symmetry_cell_setting	triclinic
loop_
_symmetry_equiv_pos_as_xyz
  x,y,z
_cell_length_a	10.723024
_cell_length_b	17.038272
_cell_length_c	9.198806
_cell_angle_alpha	89.996565
_cell_angle_beta	89.996352
_cell_angle_gamma	87.789713
loop_
_atom_site_label
_atom_site_type_symbol
_atom_site_fract_x
_atom_site_fract_y
_atom_site_fract_z
O1	O	1.667337	0.109720	-0.120885
O2	O	1.305156	0.120222	-0.120890
O3	O	1.484094	0.001144	-0.120876
O4	O	1.488399	0.228799	-0.120899
O5	O	1.484079	0.001144	0.120909
O6	O	1.305141	0.120222	0.120895
O7	O	1.667322	0.109720	0.120900
Cu8	Cu	1.486230	0.114971	0.142975
Cu9	Cu	1.486248	0.114971	-0.142964
O10	O	1.488384	0.228798	0.120886
C11	C	1.258578	0.119458	0.000002
C12	C	1.119813	0.117171	0.000000
C13	C	1.050993	0.183801	-0.000007
C14	C	0.907571	0.181440	-0.000009
C15	C	1.480171	-0.028006	0.000016
C16	C	1.468489	-0.114864	0.000016
C17	C	1.575744	-0.164385	0.000019
C18	C	1.564760	-0.245996	0.000005
C19	C	1.446520	-0.278084	-0.000002
C20	C	1.339256	-0.228557	-0.000009
C21	C	1.350241	-0.146947	-0.000006
C22	C	1.407711	-0.524057	-0.000022
C23	C	1.396734	-0.605673	-0.000021
C24	C	1.622239	-0.623107	-0.000010
C25	C	1.633214	-0.541495	0.000002
C26	C	1.525950	-0.491974	-0.000013
C27	C	1.435289	-0.361504	-0.000011
C28	C	1.537182	-0.408556	-0.000014
C29	C	1.713900	0.110484	0.000005
C30	C	1.852666	0.112771	-0.000003
C31	C	1.492307	0.257948	-0.000009
C32	C	1.503989	0.344806	-0.000018
N33	N	1.486226	0.114970	0.344089
N34	N	1.486261	0.114966	-0.344078
C35	C	1.561337	0.064752	0.416291
C36	C	1.561356	0.064749	0.583704
H37	H	1.072552	0.058378	-0.000031
C38	C	0.931679	0.036766	-0.000222
C39	C	1.006990	0.033909	-0.124597
C40	C	1.079815	-0.036089	-0.124840
H41	H	0.878777	-0.006686	-0.000293
H42	H	0.982916	0.034680	0.084050
H43	H	0.955758	0.035988	-0.208847
H44	H	1.059917	0.077345	-0.124553
H45	H	1.131052	-0.038175	-0.040568
H46	H	1.026903	-0.079535	-0.124907
H47	H	1.130930	-0.038033	-0.209219
H48	H	1.672028	-0.138265	0.000033
C49	C	1.647313	0.007506	0.666405
C50	C	1.771445	0.020668	0.629485
C51	C	1.850665	-0.032046	0.705656
H52	H	1.628159	-0.044789	0.641600
H53	H	1.636015	0.015126	0.767936
H54	H	1.782737	0.013041	0.527976
H55	H	1.790638	0.072952	0.654293
H56	H	1.839367	-0.024426	0.807187
H57	H	1.831499	-0.084337	0.680845
H58	H	1.934898	-0.023118	0.680626
H59	H	1.421957	0.157965	0.593840
H60	H	1.709567	-0.663435	-0.000001
H61	H	0.848415	0.238480	-0.000021
C62	C	1.681360	-0.299631	0.000094
C63	C	1.787260	-0.254062	0.000151
C64	C	1.894698	-0.303444	0.000253
H65	H	1.681955	-0.331843	-0.084200
H66	H	1.681818	-0.331822	0.084442
H67	H	1.786802	-0.221886	-0.084188
H68	H	1.786707	-0.221852	0.084439
H69	H	1.895157	-0.335634	0.084602
H70	H	1.895280	-0.335653	-0.084042
H71	H	1.966564	-0.272533	0.000306
H72	H	1.729498	-0.515375	0.000008
C73	C	1.646912	0.007315	0.333510
C74	C	1.618210	-0.069649	0.370369
C75	C	1.697008	-0.122574	0.294113
H76	H	1.731254	0.016027	0.358287
H77	H	1.635474	0.014902	0.231991
H78	H	1.629659	-0.077232	0.471865
H79	H	1.533883	-0.078386	0.345589
H80	H	1.685570	-0.114987	0.192594
H81	H	1.781344	-0.113854	0.318895
H82	H	1.677537	-0.174800	0.319100
C83	C	1.268239	-0.640362	-0.000120
C84	C	1.176652	-0.579528	-0.000178
C85	C	1.058277	-0.611454	-0.000290
H86	H	1.259076	-0.671828	0.084170
H87	H	1.259224	-0.671812	-0.084473
H88	H	1.185663	-0.548092	0.084165
H89	H	1.185774	-0.548057	-0.084462
H90	H	1.049261	-0.642904	-0.084642
H91	H	1.049126	-0.642920	0.084002
H92	H	0.996120	-0.570184	-0.000343
H93	H	1.098254	0.242594	-0.000005
H94	H	1.339017	-0.387640	-0.000014
C95	C	1.291295	-0.470264	-0.000328
C96	C	1.290996	-0.422914	-0.124742
C97	C	1.183759	-0.373356	-0.125082
H98	H	1.290767	-0.437993	0.083887
H99	H	1.219277	-0.501041	-0.000406
H100	H	1.362995	-0.392140	-0.124651
H101	H	1.291505	-0.455164	-0.208977
H102	H	1.111740	-0.404133	-0.125160
H103	H	1.183240	-0.341091	-0.040862
H104	H	1.183535	-0.341229	-0.209502
C105	C	1.400421	0.172172	0.427096
C106	C	1.319476	0.130161	0.514526
C107	C	1.240423	0.182830	0.591023
H108	H	1.353175	0.203702	0.360256
H109	H	1.448956	0.204863	0.486547
H110	H	1.270945	0.097484	0.455080
H111	H	1.366687	0.098634	0.581393
H112	H	1.288958	0.215521	0.650474
H113	H	1.193186	0.214357	0.524173
H114	H	1.185500	0.154333	0.650363
H115	H	1.262902	-0.106627	-0.000008
H116	H	1.242982	-0.254689	-0.000024
H117	H	1.633453	-0.382426	-0.000040
