data_functionalizedCrystal
_audit_creation_method	'MofGen! by Chris Wilmer'
_symmetry_space_group_name_H-M	'P1'
_symmetry_Int_Tables_number	1
_symmetry_cell_setting	triclinic
loop_
_symmetry_equiv_pos_as_xyz
  x,y,z
_cell_length_a	15.944545
_cell_length_b	15.944493
_cell_length_c	9.730223
_cell_angle_alpha	90.001475
_cell_angle_beta	89.999494
_cell_angle_gamma	83.485608
loop_
_atom_site_label
_atom_site_type_symbol
_atom_site_fract_x
_atom_site_fract_y
_atom_site_fract_z
O1	O	1.114503	0.108310	-0.114183
O2	O	0.869950	0.121672	-0.114203
O3	O	0.998930	-0.007288	-0.114204
O4	O	0.985523	0.237269	-0.114182
O5	O	0.998922	-0.007291	0.114376
O6	O	0.869942	0.121668	0.114377
O7	O	1.114495	0.108306	0.114397
Zn8	Zn	0.992217	0.114987	0.150679
Zn9	Zn	0.992228	0.114991	-0.150485
O10	O	0.985515	0.237266	0.114398
C11	C	0.838652	0.121116	0.000084
C12	C	0.745406	0.119456	0.000076
C13	C	0.474791	0.034560	0.000083
C14	C	0.525360	0.075488	0.112792
C15	C	0.409764	0.113535	0.000099
C16	C	0.525349	0.075513	-0.112570
C17	C	0.574677	0.116440	0.000085
C18	C	0.459104	0.154442	0.112901
C19	C	0.459090	0.154455	-0.112563
C20	C	0.509626	0.195442	0.000174
C21	C	0.314762	0.111859	0.000108
C22	C	0.669676	0.118122	0.000086
C23	C	0.998378	-0.038584	0.000080
C24	C	0.996735	-0.131833	0.000063
C25	C	1.072656	-0.367594	0.000095
C26	C	1.031719	-0.418160	-0.112609
C27	C	0.993691	-0.302554	0.000079
C28	C	1.031693	-0.418139	0.112752
C29	C	0.990757	-0.467463	0.000101
C30	C	0.952776	-0.351891	-0.112718
C31	C	0.952761	-0.351867	0.112745
C32	C	0.911766	-0.402400	0.000013
C33	C	0.995384	-0.207554	0.000065
C34	C	0.989058	-0.562460	0.000105
C35	C	1.145793	0.108862	0.000107
C36	C	1.239039	0.110522	0.000107
C37	C	0.986067	0.268562	0.000111
C38	C	0.987710	0.361811	0.000120
N39	N	0.992216	0.114983	0.356216
N40	N	0.992236	0.114988	-0.356021
C41	C	1.049348	0.057904	0.428141
C42	C	1.049356	0.057904	0.572024
C43	C	0.935098	0.172070	0.572043
C44	C	0.935087	0.172065	0.428163
H45	H	0.430140	0.187781	-0.207846
H46	H	1.095865	0.011423	0.369565
H47	H	0.554277	0.042148	-0.207851
C48	C	1.163350	-0.346760	-0.000360
C49	C	1.204316	-0.380444	-0.118655
C50	C	1.287852	-0.361240	-0.119153
H51	H	1.191800	-0.370409	0.078790
H52	H	1.163776	-0.287226	0.000372
H53	H	1.203895	-0.439966	-0.119374
H54	H	1.175892	-0.356800	-0.197824
H55	H	1.288278	-0.301706	-0.118421
H56	H	1.316293	-0.384891	-0.039998
H57	H	1.315655	-0.384085	-0.199420
H58	H	0.888586	0.218546	0.630637
C59	C	1.076023	-0.456783	-0.239773
C60	C	1.018966	-0.497572	-0.317738
C61	C	1.059750	-0.533147	-0.434895
H62	H	1.122040	-0.496487	-0.212863
H63	H	1.096364	-0.413534	-0.293287
H64	H	0.998637	-0.540816	-0.264234
H65	H	0.972948	-0.457886	-0.344684
H66	H	1.080091	-0.489898	-0.488409
H67	H	1.105766	-0.572848	-0.407972
H68	H	1.021041	-0.560820	-0.487815
H69	H	0.919450	-0.323069	-0.208103
H70	H	0.843695	-0.417864	-0.000054
C71	C	0.908471	-0.313308	0.239956
C72	C	0.950111	-0.347024	0.357652
C73	C	0.909350	-0.311515	0.474875
H74	H	0.851627	-0.325807	0.240955
H75	H	0.909434	-0.253845	0.238647
H76	H	0.949139	-0.406474	0.358961
H77	H	1.006953	-0.334527	0.356699
H78	H	0.910313	-0.252052	0.473566
H79	H	0.852507	-0.324016	0.475859
H80	H	0.937601	-0.334380	0.554744
C81	C	1.076305	-0.456616	0.239754
C82	C	1.160453	-0.439307	0.239226
C83	C	1.201579	-0.474727	0.356198
H84	H	1.074569	-0.515969	0.239401
H85	H	1.048864	-0.433018	0.319823
H86	H	1.187887	-0.462908	0.159179
H87	H	1.162214	-0.379961	0.239600
H88	H	1.174137	-0.451128	0.436267
H89	H	1.199836	-0.534078	0.355834
H90	H	1.258674	-0.462981	0.355862
C91	C	1.111482	-0.004104	0.649866
C92	C	1.161520	-0.054078	0.556056
C93	C	1.218769	-0.111205	0.627713
H94	H	1.081380	-0.039172	0.706006
H95	H	1.146488	0.026117	0.705957
H96	H	1.126519	-0.084297	0.499989
H97	H	1.191640	-0.019033	0.499914
H98	H	1.253775	-0.080984	0.683803
H99	H	1.188660	-0.146267	0.683850
H100	H	1.252732	-0.145114	0.564074
C101	C	0.873017	0.234136	0.350310
C102	C	0.823008	0.284147	0.444110
C103	C	0.765829	0.341337	0.372442
H104	H	0.837978	0.203990	0.294188
H105	H	0.903198	0.269166	0.294200
H106	H	0.792829	0.249122	0.500196
H107	H	0.858024	0.314311	0.500234
H108	H	0.796010	0.376367	0.316332
H109	H	0.730795	0.311184	0.316323
H110	H	0.731896	0.375282	0.436074
H111	H	0.554295	0.042134	0.208072
C112	C	0.453977	-0.056141	0.000498
C113	C	0.487667	-0.097117	0.118777
C114	C	0.468498	-0.180665	0.119221
H115	H	0.477644	-0.084568	-0.078663
H116	H	0.394446	-0.056592	-0.000248
H117	H	0.547185	-0.096672	0.119510
H118	H	0.464005	-0.068716	0.197957
H119	H	0.408967	-0.181115	0.118476
H120	H	0.492166	-0.209084	0.040055
H121	H	0.491347	-0.208475	0.199478
C122	C	0.530224	0.286214	0.000546
C123	C	0.496396	0.327163	0.118760
C124	C	0.515366	0.410777	0.119166
H125	H	0.506533	0.314566	-0.078660
H126	H	0.589738	0.286802	-0.000138
H127	H	0.436894	0.326580	0.119431
H128	H	0.520082	0.298837	0.197985
H129	H	0.574880	0.411365	0.118482
H130	H	0.491673	0.439121	0.039955
H131	H	0.492424	0.438570	0.199378
H132	H	0.430285	0.187769	0.208289
