data_functionalizedCrystal
_audit_creation_method	'MofGen! by Chris Wilmer'
_symmetry_space_group_name_H-M	'P1'
_symmetry_Int_Tables_number	1
_symmetry_cell_setting	triclinic
loop_
_symmetry_equiv_pos_as_xyz
  x,y,z
_cell_length_a	16.625547
_cell_length_b	25.639240
_cell_length_c	16.625539
_cell_angle_alpha	90.033323
_cell_angle_beta	89.975178
_cell_angle_gamma	89.956901
loop_
_atom_site_label
_atom_site_type_symbol
_atom_site_fract_x
_atom_site_fract_y
_atom_site_fract_z
Zn1	Zn	1.232565	0.208151	-0.455973
Zn2	Zn	1.232419	0.295589	-0.321128
Zn3	Zn	1.097726	0.208169	-0.321143
Zn4	Zn	1.097648	0.295557	-0.455908
O5	O	1.165090	0.251866	-0.388538
O6	O	1.345378	0.219755	-0.438106
O7	O	1.214524	0.284013	-0.208298
O8	O	1.115707	0.135001	-0.339062
O9	O	1.345271	0.283995	-0.339036
O10	O	1.214772	0.134988	-0.438121
O11	O	1.115565	0.219786	-0.208309
O12	O	0.984884	0.219755	-0.338999
O13	O	1.115573	0.283941	-0.568749
O14	O	0.984826	0.283959	-0.438010
O15	O	1.214696	0.219724	-0.568797
O16	O	1.214448	0.368750	-0.338973
O17	O	1.115432	0.368726	-0.437996
C18	C	0.955599	0.251856	-0.388500
C19	C	0.865978	0.251864	-0.388503
C20	C	0.793195	0.251865	-0.388513
C21	C	0.701887	0.251868	-0.388533
C22	C	0.629110	0.251873	-0.388553
C23	C	0.537796	0.251877	-0.388573
C24	C	1.164938	0.387709	-0.388493
C25	C	1.164946	0.445823	-0.388501
C26	C	1.216715	0.806185	-0.337034
C27	C	1.216739	0.860790	-0.337042
O28	O	1.260648	0.889026	-0.293258
N29	N	1.165155	0.888105	-0.388556
C30	C	1.113547	0.860814	-0.440071
O31	O	1.069673	0.889062	-0.483889
C32	C	1.113527	0.806210	-0.440067
C33	C	1.165110	0.778898	-0.388544
C34	C	1.268294	0.778873	-0.285516
C35	C	1.268268	0.724272	-0.285507
C36	C	1.216663	0.696984	-0.337017
C37	C	1.165084	0.724297	-0.388535
C38	C	1.061925	0.778920	-0.491586
C39	C	1.061910	0.724313	-0.491578
C40	C	1.113492	0.697000	-0.440055
C41	C	1.113453	0.642409	-0.440037
N42	N	1.165038	0.615093	-0.388522
C43	C	1.216643	0.642381	-0.337013
C44	C	1.113594	0.975484	-0.440078
C45	C	1.113610	1.030087	-0.440078
C46	C	1.216803	1.030059	-0.337050
C47	C	1.216783	0.975456	-0.337045
C48	C	1.165179	0.948169	-0.388563
C49	C	1.216584	0.527716	-0.336998
C50	C	1.216551	0.473111	-0.336992
C51	C	1.113361	0.473143	-0.440023
C52	C	1.113391	0.527744	-0.440027
C53	C	1.165009	0.555029	-0.388512
O54	O	1.069570	0.614138	-0.483801
O55	O	1.260517	0.614127	-0.293209
C56	C	1.375398	0.251877	-0.388577
C57	C	1.465019	0.251881	-0.388593
C58	C	1.165142	0.251827	-0.598847
C59	C	1.165164	0.251811	-0.688468
C60	C	1.165234	1.115493	-0.388586
C61	C	1.165218	1.057379	-0.388571
C62	C	1.165202	0.251752	-1.016644
C63	C	1.165189	0.251770	-0.925335
C64	C	1.165183	0.251782	-0.852559
C65	C	1.165170	0.251799	-0.761245
C66	C	1.165084	0.251867	-0.179047
C67	C	1.165218	0.251737	-0.089427
H68	H	1.258556	0.450874	-0.295032
H69	H	1.258618	0.549925	-0.295051
H70	H	1.258786	0.953221	-0.295091
O71	O	1.266965	1.056491	-0.286940
C72	C	1.312510	1.020680	-0.241480
H73	H	1.279474	0.981778	-0.238641
H74	H	1.373727	1.014820	-0.271071
C75	C	1.364769	1.089806	-0.159171
C76	C	1.324190	1.042027	-0.155678
H77	H	1.371977	1.102974	-0.106246
H78	H	1.334087	1.113933	-0.189800
H79	H	1.415778	1.084916	-0.183834
H80	H	1.273178	1.046919	-0.131025
H81	H	1.354864	1.017901	-0.125043
H82	H	1.310321	0.801085	-0.243570
H83	H	1.310273	0.702037	-0.243555
H84	H	1.071599	1.052320	-0.482026
H85	H	1.071343	0.450917	-0.481959
H86	H	1.071566	0.953270	-0.482027
H87	H	1.019917	0.801148	-0.533538
O88	O	1.011706	0.697888	-0.541652
C89	C	0.966206	0.733709	-0.587140
H90	H	0.963447	0.772646	-0.554112
H91	H	0.995709	0.739472	-0.648403
C92	C	0.883764	0.664629	-0.639253
C93	C	0.880369	0.712452	-0.598684
H94	H	0.830817	0.651517	-0.646377
H95	H	0.914420	0.640496	-0.608609
H96	H	0.908353	0.669438	-0.690301
H97	H	0.855789	0.707641	-0.547633
H98	H	0.849707	0.736584	-0.629319
O99	O	1.063257	0.554198	-0.490148
C100	C	1.017687	0.518401	-0.535593
H101	H	1.050690	0.479452	-0.538402
H102	H	0.956461	0.512653	-0.506007
C103	C	0.965501	0.587513	-0.617954
C104	C	1.006039	0.539676	-0.621410
H105	H	0.958312	0.600637	-0.670889
H106	H	0.996199	0.611630	-0.587335
H107	H	0.914484	0.582717	-0.593295
H108	H	1.057059	0.544474	-0.646059
H109	H	0.975349	0.515560	-0.652035
