data_functionalizedCrystal
_audit_creation_method	'MofGen! by Chris Wilmer'
_symmetry_space_group_name_H-M	'P1'
_symmetry_Int_Tables_number	1
_symmetry_cell_setting	triclinic
loop_
_symmetry_equiv_pos_as_xyz
  x,y,z
_cell_length_a	16.959455
_cell_length_b	21.295417
_cell_length_c	16.959447
_cell_angle_alpha	89.964807
_cell_angle_beta	89.985678
_cell_angle_gamma	90.027454
loop_
_atom_site_label
_atom_site_type_symbol
_atom_site_fract_x
_atom_site_fract_y
_atom_site_fract_z
Zn1	Zn	1.208326	-0.250648	-0.446882
Zn2	Zn	1.541660	0.082685	-0.113549
Zn3	Zn	1.874993	0.416019	0.219785
Zn4	Zn	1.208225	-0.355925	-0.314692
Zn5	Zn	1.541558	-0.022591	0.018641
Zn6	Zn	1.874892	0.310742	0.351975
Zn7	Zn	1.076155	-0.250668	-0.314719
Zn8	Zn	1.409488	0.082666	0.018614
Zn9	Zn	1.742822	0.415999	0.351947
Zn10	Zn	1.076096	-0.355878	-0.446831
Zn11	Zn	1.409429	-0.022544	-0.113497
Zn12	Zn	1.742762	0.310789	0.219836
O13	O	1.142200	-0.303280	-0.380781
O14	O	1.475534	0.030054	-0.047448
O15	O	1.808867	0.363387	0.285886
O16	O	1.318924	-0.264625	-0.429357
O17	O	1.652257	0.068709	-0.096023
O18	O	1.985591	0.402042	0.237310
O19	O	1.190688	-0.341990	-0.204085
O20	O	1.524021	-0.008657	0.129249
O21	O	1.857355	0.324676	0.462582
O22	O	1.093755	-0.162576	-0.332284
O23	O	1.427088	0.170758	0.001049
O24	O	1.760422	0.504091	0.334383
O25	O	1.318849	-0.341971	-0.332237
O26	O	1.652183	-0.008638	0.001096
O27	O	1.985516	0.324696	0.334429
O28	O	1.190861	-0.162561	-0.429383
O29	O	1.524194	0.170772	-0.096050
O30	O	1.857528	0.504105	0.237284
O31	O	1.093657	-0.264658	-0.204105
O32	O	1.426990	0.068675	0.129228
O33	O	1.760323	0.402008	0.462562
O34	O	0.965536	-0.264613	-0.332234
O35	O	1.298869	0.068721	0.001099
O36	O	1.632203	0.402054	0.334432
O37	O	1.093654	-0.341891	-0.557448
O38	O	1.426987	-0.008558	-0.224115
O39	O	1.760321	0.324776	0.109218
O40	O	0.965493	-0.341910	-0.429296
O41	O	1.298826	-0.008577	-0.095963
O42	O	1.632159	0.324757	0.237371
O43	O	1.190803	-0.264579	-0.557486
O44	O	1.524137	0.068754	-0.224153
O45	O	1.857470	0.402088	0.109181
O46	O	1.190630	-0.444008	-0.332188
O47	O	1.523964	-0.110675	0.001146
O48	O	1.857297	0.222659	0.334479
O49	O	1.093555	-0.443973	-0.429269
O50	O	1.426889	-0.110640	-0.095936
O51	O	1.760222	0.222693	0.237397
C52	C	0.936834	-0.303259	-0.380763
C53	C	1.270168	0.030074	-0.047430
C54	C	1.603501	0.363408	0.285904
C55	C	0.848978	-0.303265	-0.380774
C56	C	1.182311	0.030068	-0.047441
C57	C	1.515644	0.363402	0.285893
C58	C	0.477500	-0.262998	-0.330347
C59	C	0.810834	0.070335	0.002987
C60	C	1.144167	0.403669	0.336320
C61	C	0.477504	-0.343613	-0.431261
C62	C	0.810837	-0.010280	-0.097927
C63	C	1.144170	0.323054	0.235406
C64	C	0.560050	-0.343604	-0.431256
C65	C	0.893383	-0.010271	-0.097922
C66	C	1.226716	0.323063	0.235411
C67	C	0.601325	-0.303292	-0.380795
C68	C	0.934658	0.030041	-0.047461
C69	C	1.267991	0.363375	0.285872
C70	C	0.560054	-0.262989	-0.330339
C71	C	0.893387	0.070344	0.002995
C72	C	1.226721	0.403678	0.336328
C73	C	0.601327	-0.383911	-0.481705
C74	C	0.934660	-0.050578	-0.148372
C75	C	1.267993	0.282756	0.184961
C76	C	0.683877	-0.383904	-0.481702
C77	C	1.017211	-0.050571	-0.148369
C78	C	1.350544	0.282763	0.184965
C79	C	0.725154	-0.343588	-0.431244
C80	C	1.058487	-0.010255	-0.097911
C81	C	1.391821	0.323078	0.235422
C82	C	0.683878	-0.303283	-0.380787
C83	C	1.017211	0.030050	-0.047453
C84	C	1.350545	0.363384	0.285880
C85	C	0.725153	-0.262971	-0.330326
C86	C	1.058487	0.070362	0.003008
C87	C	1.391820	0.403696	0.336341
C88	C	0.683879	-0.222662	-0.279871
C89	C	1.017212	0.110671	0.053462
C90	C	1.350546	0.444004	0.386795
C91	C	0.601330	-0.222673	-0.279881
C92	C	0.934664	0.110660	0.053452
C93	C	1.267997	0.443993	0.386786
C94	C	0.807702	-0.343577	-0.431235
C95	C	1.141036	-0.010244	-0.097902
C96	C	1.474369	0.323089	0.235432
C97	C	0.807707	-0.262962	-0.330318
C98	C	1.141040	0.070371	0.003016
C99	C	1.474373	0.403705	0.336349
C100	C	1.142097	-0.466831	-0.380737
C101	C	1.475430	-0.133498	-0.047404
C102	C	1.808763	0.199835	0.285929
C103	C	1.142125	-0.536799	-0.380745
C104	C	1.475458	-0.203466	-0.047412
C105	C	1.808791	0.129867	0.285922
C106	C	1.192717	-0.569663	-0.330246
C107	C	1.526050	-0.236330	0.003087
C108	C	1.859383	0.097004	0.336420
C109	C	1.192754	-0.635406	-0.330264
C110	C	1.526087	-0.302072	0.003069
C111	C	1.859420	0.031261	0.336403
C112	C	1.142185	-0.668282	-0.380772
C113	C	1.475518	-0.334949	-0.047439
C114	C	1.808851	-0.001615	0.285894
C115	C	1.091589	-0.635410	-0.431281
C116	C	1.424923	-0.302077	-0.097947
C117	C	1.758256	0.031257	0.235386
C118	C	1.091559	-0.569669	-0.431267
C119	C	1.424893	-0.236336	-0.097934
C120	C	1.758226	0.096998	0.235400
N121	N	1.073038	-0.771544	-0.386792
N122	N	1.406371	-0.438211	-0.053459
N123	N	1.739705	-0.104878	0.279875
N124	N	1.073069	-0.833996	-0.386800
N125	N	1.406402	-0.500662	-0.053467
N126	N	1.739735	-0.167329	0.279866
C127	C	1.142273	-0.866357	-0.380818
C128	C	1.475607	-0.533023	-0.047484
C129	C	1.808940	-0.199690	0.285849
N130	N	1.211448	-0.833907	-0.374811
N131	N	1.544781	-0.500573	-0.041477
N132	N	1.878114	-0.167240	0.291856
N133	N	1.211416	-0.771449	-0.374798
N134	N	1.544749	-0.438116	-0.041465
N135	N	1.878083	-0.104783	0.291868
C136	C	1.142212	-0.739567	-0.380793
C137	C	1.475545	-0.406234	-0.047460
C138	C	1.808879	-0.072901	0.285874
C139	C	1.192910	-0.970506	-0.330335
C140	C	1.526243	-0.637172	0.002998
C141	C	1.859576	-0.303839	0.336331
C142	C	1.192948	-1.036249	-0.330359
C143	C	1.526281	-0.702916	0.002975
C144	C	1.859615	-0.369583	0.336308
C145	C	1.091777	-1.036253	-0.431371
C146	C	1.425110	-0.702919	-0.098038
C147	C	1.758443	-0.369586	0.235295
C148	C	1.091745	-0.970510	-0.431352
C149	C	1.425079	-0.637177	-0.098019
C150	C	1.758412	-0.303844	0.235315
C151	C	1.142311	-0.937641	-0.380830
C152	C	1.475644	-0.604307	-0.047497
C153	C	1.808977	-0.270974	0.285837
C154	C	1.348369	-0.303301	-0.380800
C155	C	1.681702	0.030032	-0.047466
C156	C	2.015035	0.363366	0.285867
C157	C	1.436225	-0.303310	-0.380808
C158	C	1.769559	0.030023	-0.047474
C159	C	2.102892	0.363357	0.285859
C160	C	1.142233	-0.303228	-0.586949
C161	C	1.475567	0.030106	-0.253616
C162	C	1.808900	0.363439	0.079717
C163	C	1.142247	-0.303205	-0.674806
C164	C	1.475581	0.030128	-0.341473
C165	C	1.808914	0.363461	-0.008139
C166	C	1.142326	-0.139089	-0.380842
C167	C	1.475659	0.194244	-0.047509
C168	C	1.808993	0.527577	0.285824
C169	C	1.142379	-0.069121	-0.380868
C170	C	1.475713	0.264212	-0.047535
C171	C	1.809046	0.597545	0.285798
C172	C	1.091760	-0.343392	-1.046265
C173	C	1.425094	-0.010058	-0.712931
C174	C	1.758427	0.323275	-0.379598
C175	C	1.192923	-0.262886	-1.046299
C176	C	1.526257	0.070447	-0.712966
C177	C	1.859590	0.403780	-0.379632
C178	C	1.192902	-0.262900	-0.963753
C179	C	1.526235	0.070434	-0.630420
C180	C	1.859569	0.403767	-0.297086
C181	C	1.142310	-0.303160	-0.922459
C182	C	1.475644	0.030173	-0.589126
C183	C	1.808977	0.363506	-0.255792
C184	C	1.091740	-0.343407	-0.963711
C185	C	1.425073	-0.010074	-0.630378
C186	C	1.758406	0.323259	-0.297044
C187	C	1.243478	-0.222658	-0.922495
C188	C	1.576811	0.110676	-0.589161
C189	C	1.910144	0.444009	-0.255828
C190	C	1.243459	-0.222670	-0.839944
C191	C	1.576793	0.110664	-0.506610
C192	C	1.910126	0.443997	-0.173277
C193	C	1.192863	-0.262928	-0.798648
C194	C	1.526196	0.070406	-0.465315
C195	C	1.859529	0.403739	-0.131982
C196	C	1.142289	-0.303176	-0.839906
C197	C	1.475623	0.030157	-0.506572
C198	C	1.808956	0.363491	-0.173239
C199	C	1.091698	-0.343437	-0.798612
C200	C	1.425031	-0.010103	-0.465278
C201	C	1.758364	0.323230	-0.131945
C202	C	1.041120	-0.383682	-0.839867
C203	C	1.374453	-0.050349	-0.506534
C204	C	1.707786	0.282984	-0.173201
C205	C	1.041143	-0.383665	-0.922416
C206	C	1.374476	-0.050332	-0.589082
C207	C	1.707810	0.283001	-0.255749
C208	C	1.192839	-0.262945	-0.716100
C209	C	1.526173	0.070389	-0.382767
C210	C	1.859506	0.403722	-0.049433
C211	C	1.091677	-0.343453	-0.716058
C212	C	1.425010	-0.010119	-0.382725
C213	C	1.758343	0.323214	-0.049391
C214	C	1.142213	-0.303286	-0.175415
C215	C	1.475546	0.030047	0.157919
C216	C	1.808880	0.363381	0.491252
C217	C	1.142352	-0.303131	-0.087559
C218	C	1.475686	0.030202	0.245775
C219	C	1.809019	0.363536	0.579108
H220	H	0.567717	-0.189857	-0.238803
H221	H	0.901051	0.143477	0.094530
H222	H	1.234384	0.476810	0.427864
H223	H	1.234021	-0.230179	-0.682513
H224	H	1.567354	0.103154	-0.349180
H225	H	1.900688	0.436488	-0.015847
O226	O	1.037206	-0.386796	-1.090753
O227	O	1.370539	-0.053463	-0.757419
O228	O	1.703873	0.279870	-0.424086
H229	H	1.045717	-0.380025	-1.155092
H230	H	1.379050	-0.046692	-0.821759
H231	H	1.712383	0.286642	-0.488426
O232	O	0.852218	-0.219487	-0.275879
O233	O	1.185551	0.113847	0.057454
O234	O	1.518884	0.447180	0.390788
H235	H	0.836398	-0.170096	-0.289544
H236	H	1.169732	0.163238	0.043789
H237	H	1.503065	0.496571	0.377123
H238	H	1.233892	-0.542903	-0.289110
H239	H	1.567225	-0.209569	0.044223
H240	H	1.900558	0.123764	0.377556
H241	H	1.234117	-0.230111	-1.079925
H242	H	1.567450	0.103222	-0.746592
H243	H	1.900784	0.436555	-0.413259
H244	H	0.443893	-0.376437	-0.472339
H245	H	0.777226	-0.043104	-0.139006
H246	H	1.110559	0.290230	0.194328
O247	O	1.247458	-0.935041	-0.275867
O248	O	1.580791	-0.601708	0.057466
O249	O	1.914124	-0.268374	0.390800
H250	H	1.233965	-0.947705	-0.213817
H251	H	1.567298	-0.614371	0.119517
H252	H	1.900631	-0.281038	0.452850
H253	H	0.443891	-0.230178	-0.289270
H254	H	0.777224	0.103156	0.044063
H255	H	1.110558	0.436489	0.377396
O256	O	0.556813	-0.427387	-0.536131
O257	O	0.890146	-0.094054	-0.202798
O258	O	1.223480	0.239279	0.130536
H259	H	0.492478	-0.420614	-0.527667
H260	H	0.825811	-0.087281	-0.194334
H261	H	1.159145	0.246052	0.139000
H262	H	1.234151	-1.063006	-0.289238
H263	H	1.567484	-0.729673	0.044095
H264	H	1.900817	-0.396339	0.377428
O265	O	1.298027	-0.179237	-0.967051
O266	O	1.631360	0.154096	-0.633718
O267	O	1.964694	0.487429	-0.300384
H268	H	1.360058	-0.190040	-0.951227
H269	H	1.693392	0.143293	-0.617894
H270	H	2.026725	0.476627	-0.284561
H271	H	1.284642	-0.189899	-0.806360
H272	H	1.617976	0.143434	-0.473027
H273	H	1.951309	0.476768	-0.139694
O274	O	0.728389	-0.427373	-0.536125
O275	O	1.061723	-0.094040	-0.202792
O276	O	1.395056	0.239294	0.130542
H277	H	0.766023	-0.399229	-0.576398
H278	H	1.099357	-0.065895	-0.243064
H279	H	1.432690	0.267438	0.090269
H280	H	1.050361	-0.542911	-0.472390
H281	H	1.383694	-0.209577	-0.139057
H282	H	1.717027	0.123756	0.194277
O283	O	1.037039	-0.670869	-0.485748
O284	O	1.370372	-0.337536	-0.152415
O285	O	1.703706	-0.004202	0.180919
H286	H	1.072400	-0.700780	-0.525995
H287	H	1.405733	-0.367447	-0.192662
H288	H	1.739066	-0.034114	0.140671
H289	H	0.717496	-0.189843	-0.238783
H290	H	1.050829	0.143490	0.094551
H291	H	1.384162	0.476824	0.427884
O292	O	1.037228	-1.071701	-0.485847
O293	O	1.370562	-0.738368	-0.152514
O294	O	1.703895	-0.405035	0.180820
H295	H	1.045743	-1.122937	-0.477370
H296	H	1.379077	-0.789604	-0.144037
H297	H	1.712410	-0.456271	0.189297
O298	O	1.037158	-0.935058	-0.485798
O299	O	1.370491	-0.601724	-0.152465
O300	O	1.703825	-0.268391	0.180869
H301	H	1.001990	-0.968961	-0.520915
H302	H	1.335324	-0.635628	-0.187581
H303	H	1.668657	-0.302294	0.145752
H304	H	1.233954	-0.662168	-0.289142
H305	H	1.567288	-0.328835	0.044191
H306	H	1.900621	0.004498	0.377524
O307	O	0.852223	-0.387045	-0.485648
O308	O	1.185556	-0.053711	-0.152314
O309	O	1.518890	0.279622	0.181019
H310	H	0.809653	-0.415076	-0.520739
H311	H	1.142987	-0.081743	-0.187406
H312	H	1.476320	0.251591	0.145928
H313	H	1.050471	-0.376232	-0.682442
H314	H	1.383804	-0.042899	-0.349109
H315	H	1.717138	0.290434	-0.015776
H316	H	0.999968	-0.416433	-0.956013
H317	H	1.333301	-0.083100	-0.622680
H318	H	1.666634	0.250233	-0.289347
O319	O	0.986550	-0.427105	-0.795327
O320	O	1.319883	-0.093771	-0.461994
O321	O	1.653217	0.239562	-0.128661
H322	H	0.995035	-0.420350	-0.730996
H323	H	1.328368	-0.087016	-0.397663
H324	H	1.661701	0.246317	-0.064330
