data_functionalizedCrystal
_audit_creation_method	'MofGen! by Chris Wilmer'
_symmetry_space_group_name_H-M	'P1'
_symmetry_Int_Tables_number	1
_symmetry_cell_setting	triclinic
loop_
_symmetry_equiv_pos_as_xyz
  x,y,z
_cell_length_a	21.295419
_cell_length_b	21.295418
_cell_length_c	13.897441
_cell_angle_alpha	89.967734
_cell_angle_beta	89.978117
_cell_angle_gamma	90.043188
loop_
_atom_site_label
_atom_site_type_symbol
_atom_site_fract_x
_atom_site_fract_y
_atom_site_fract_z
Zn1	Zn	0.962348	-0.250341	-0.545400
Zn2	Zn	0.962260	-0.355620	-0.384096
Zn3	Zn	0.857076	-0.250395	-0.384115
Zn4	Zn	0.857045	-0.355603	-0.545346
O5	O	0.909682	-0.302990	-0.464739
O6	O	1.050426	-0.264290	-0.524017
O7	O	0.948283	-0.341691	-0.249117
O8	O	0.871091	-0.162299	-0.405540
O9	O	1.050361	-0.341638	-0.405509
O10	O	0.948434	-0.162258	-0.524035
O11	O	0.871005	-0.264383	-0.249131
O12	O	0.768983	-0.264367	-0.405488
O13	O	0.871038	-0.341610	-0.680335
O14	O	0.768960	-0.341663	-0.523943
O15	O	0.948404	-0.264274	-0.680374
O16	O	0.948252	-0.443707	-0.405456
O17	O	0.870951	-0.443695	-0.523925
C18	C	0.746131	-0.303020	-0.464712
C19	C	0.676163	-0.303048	-0.464723
C20	C	0.643352	-0.262839	-0.526526
C21	C	0.577610	-0.262822	-0.526530
C22	C	0.544680	-0.303025	-0.464741
C23	C	0.577498	-0.343237	-0.402926
C24	C	0.643239	-0.343249	-0.402917
N25	N	0.441407	-0.358104	-0.457209
N26	N	0.378955	-0.358091	-0.457223
C27	C	0.346605	-0.302993	-0.464762
N28	N	0.379066	-0.247906	-0.472307
N29	N	0.441523	-0.247919	-0.472298
C30	C	0.473395	-0.303017	-0.464743
C31	C	0.242510	-0.262762	-0.526573
C32	C	0.176766	-0.262744	-0.526570
C33	C	0.176656	-0.343165	-0.402971
C34	C	0.242398	-0.343177	-0.402969
C35	C	0.275321	-0.302977	-0.464775
C36	C	0.909606	-0.466541	-0.464704
C37	C	0.909631	-0.536509	-0.464721
C38	C	0.950033	-1.035893	-0.526563
C39	C	0.950015	-0.970150	-0.526548
C40	C	0.909768	-0.937349	-0.464799
C41	C	0.869548	-0.970295	-0.403044
C42	C	0.869572	-1.036036	-0.403054
N43	N	0.854631	-0.834194	-0.457305
N44	N	0.854610	-0.771742	-0.457301
C45	C	0.909694	-0.739274	-0.464763
N46	N	0.964801	-0.771616	-0.472249
N47	N	0.964822	-0.834074	-0.472258
C48	C	0.909738	-0.866063	-0.464781
C49	C	0.949894	-0.635050	-0.526494
C50	C	0.949877	-0.569307	-0.526472
C51	C	0.869405	-0.569452	-0.402972
C52	C	0.869428	-0.635195	-0.402989
C53	C	0.909672	-0.667990	-0.464755
C54	C	1.073873	-0.302960	-0.464767
C55	C	1.143841	-0.302947	-0.464779
C56	C	0.909727	-0.302934	-0.716332
C57	C	0.909746	-0.302910	-0.823546
C58	C	0.909776	-0.138799	-0.464796
C59	C	0.909816	-0.068831	-0.464820
C60	C	0.909763	-0.302868	-1.019842
C61	C	0.909752	-0.302893	-0.910609
C62	C	0.909674	-0.303000	-0.214125
C63	C	0.909777	-0.302846	-0.106911
H64	H	0.550683	-0.375971	-0.352616
H65	H	0.149845	-0.375900	-0.352661
C66	C	0.833876	-1.136876	-0.348242
C67	C	0.825358	-1.072247	-0.335189
H68	H	0.806580	-1.159230	-0.306342
H69	H	0.824643	-1.147624	-0.413035
H70	H	0.876182	-1.147604	-0.334187
H71	H	0.783053	-1.061517	-0.349251
H72	H	0.834587	-1.061494	-0.270381
C73	C	0.744175	-0.227148	-0.581404
C74	C	0.679541	-0.218648	-0.594458
H75	H	0.766516	-0.199868	-0.623347
H76	H	0.754934	-0.217882	-0.516627
H77	H	0.754908	-0.269458	-0.595403
H78	H	0.668807	-0.176338	-0.580452
H79	H	0.668778	-0.227910	-0.659250
C80	C	0.343125	-0.378903	-0.348082
C81	C	0.278468	-0.387383	-0.335042
H82	H	0.365391	-0.406193	-0.306138
H83	H	0.353905	-0.388169	-0.412858
H84	H	0.353928	-0.336597	-0.334075
H85	H	0.267664	-0.429689	-0.349056
H86	H	0.267684	-0.378122	-0.270251
H87	H	0.982808	-1.062591	-0.576850
H88	H	0.669953	-0.375993	-0.352588
H89	H	0.982765	-0.943327	-0.576829
H90	H	0.269317	-0.230024	-0.576893
C91	C	0.833729	-0.736035	-0.348183
C92	C	0.825210	-0.671405	-0.335133
H93	H	0.806432	-0.758388	-0.306284
H94	H	0.824499	-0.746784	-0.412976
H95	H	0.876034	-0.746763	-0.334122
H96	H	0.782906	-0.660676	-0.349201
H97	H	0.834437	-0.660652	-0.270325
H98	H	0.150053	-0.229997	-0.576895
C99	C	0.784846	-0.896468	-0.389515
C100	C	0.825306	-0.934242	-0.335172
H101	H	0.757531	-0.874215	-0.347609
H102	H	0.808797	-0.867444	-0.426277
H103	H	0.760764	-0.922133	-0.431505
H104	H	0.849392	-0.908577	-0.293187
H105	H	0.801352	-0.963270	-0.298394
H106	H	0.982659	-0.661754	-0.576794
C107	C	1.029411	-0.575770	-0.648560
C108	C	0.994088	-0.533098	-0.594346
H109	H	1.056702	-0.553415	-0.690466
H110	H	1.053516	-0.601404	-0.606579
H111	H	1.001970	-0.601425	-0.685416
H112	H	1.021529	-0.507446	-0.557484
H113	H	0.969981	-0.507454	-0.636332
C114	C	0.784704	-0.495629	-0.389433
C115	C	0.825163	-0.533406	-0.335095
H116	H	0.757389	-0.473377	-0.347523
H117	H	0.808655	-0.466602	-0.426190
H118	H	0.760621	-0.521290	-0.431426
H119	H	0.849249	-0.507745	-0.293106
H120	H	0.801209	-0.562436	-0.298321
C121	C	0.584316	-0.183346	-0.648727
C122	C	0.541535	-0.218627	-0.594479
H123	H	0.562044	-0.156067	-0.690681
H124	H	0.609962	-0.159231	-0.606770
H125	H	0.609948	-0.210816	-0.685534
H126	H	0.515905	-0.191158	-0.557666
H127	H	0.515878	-0.242744	-0.636441
