data_functionalizedCrystal
_audit_creation_method	'MofGen! by Chris Wilmer'
_symmetry_space_group_name_H-M	'P1'
_symmetry_Int_Tables_number	1
_symmetry_cell_setting	triclinic
loop_
_symmetry_equiv_pos_as_xyz
  x,y,z
_cell_length_a	10.654545
_cell_length_b	10.654550
_cell_length_c	9.130313
_cell_angle_alpha	90.003353
_cell_angle_beta	90.003066
_cell_angle_gamma	84.483991
loop_
_atom_site_label
_atom_site_type_symbol
_atom_site_fract_x
_atom_site_fract_y
_atom_site_fract_z
O1	O	1.667843	0.176372	0.121781
O2	O	1.302364	0.193184	0.121786
O3	O	1.493506	0.002038	0.121778
O4	O	1.476700	0.367517	0.121789
O5	O	1.493493	0.002033	-0.121821
O6	O	1.302350	0.193178	-0.121812
O7	O	1.667830	0.176366	-0.121818
Cu8	Cu	1.485089	0.184772	-0.144058
Cu9	Cu	1.485104	0.184778	0.144026
O10	O	1.476687	0.367511	-0.121810
C11	C	1.255559	0.191948	-0.000012
C12	C	1.116115	0.188258	-0.000010
C13	C	1.050604	0.186518	-0.132797
C14	C	0.919584	0.183030	-0.132797
C15	C	0.919599	0.183028	0.132788
C16	C	1.050617	0.186507	0.132787
C17	C	1.492266	-0.044762	-0.000020
C18	C	1.488574	-0.184206	-0.000014
C19	C	1.601115	-0.263693	-0.000021
C20	C	1.597639	-0.394714	-0.000010
C21	C	1.369069	-0.366747	0.000006
C22	C	1.372547	-0.235729	0.000006
C23	C	1.717142	-0.212170	-0.000041
C24	C	1.829693	-0.291659	-0.000049
C25	C	1.826217	-0.422680	-0.000039
C26	C	1.710189	-0.474212	-0.000021
C27	C	1.714634	0.177602	-0.000016
C28	C	1.854078	0.181292	-0.000009
C29	C	1.477927	0.414312	-0.000009
C30	C	1.481619	0.553755	-0.000004
N31	N	1.485087	0.184766	-0.346680
C32	C	1.569754	0.100163	-0.423336
C33	C	1.569766	0.100163	-0.576673
C34	C	1.400440	0.269381	-0.576685
C35	C	1.400423	0.269374	-0.423351
N36	N	1.485116	0.184774	0.346649
H37	H	1.103928	0.187944	-0.240928
C38	C	1.308326	0.361094	-0.659858
C39	C	1.184738	0.339550	-0.622623
C40	C	1.099849	0.424002	-0.699226
H41	H	1.322512	0.445096	-0.634779
H42	H	1.320380	0.348974	-0.762171
H43	H	1.172689	0.351679	-0.520333
H44	H	1.170513	0.255564	-0.647706
H45	H	1.111903	0.411882	-0.801538
H46	H	1.114046	0.507999	-0.674140
H47	H	1.015985	0.409388	-0.673982
H48	H	0.866250	0.181614	-0.240925
C49	C	1.955535	-0.235474	-0.000136
C50	C	1.934496	-0.103720	-0.000182
C51	C	2.050394	-0.051923	-0.000279
H52	H	2.002026	-0.262543	0.084789
H53	H	2.001927	-0.262629	-0.085119
H54	H	1.888124	-0.076576	0.084792
H55	H	1.888025	-0.076615	-0.085100
H56	H	2.096786	-0.079078	-0.085263
H57	H	2.096876	-0.079002	0.084647
H58	H	2.036135	0.037476	-0.000325
H59	H	1.638708	0.031270	-0.639082
H60	H	0.866254	0.181604	0.240906
H61	H	1.707368	-0.580899	0.000003
H62	H	1.917861	-0.487397	-0.000030
C63	C	1.243229	-0.422935	-0.000062
C64	C	1.264272	-0.554689	-0.000105
C65	C	1.148377	-0.606490	-0.000193
H66	H	1.196748	-0.395857	0.084864
H67	H	1.196825	-0.395792	-0.085044
H68	H	1.310656	-0.581821	0.084868
H69	H	1.310734	-0.581802	-0.085025
H70	H	1.101973	-0.579347	-0.085175
H71	H	1.101904	-0.579403	0.084734
H72	H	1.162639	-0.695889	-0.000236
C73	C	1.308640	0.361441	-0.340193
C74	C	1.330097	0.485052	-0.377435
C75	C	1.245583	0.569890	-0.300846
H76	H	1.224656	0.347193	-0.365279
H77	H	1.320759	0.349402	-0.237879
H78	H	1.317967	0.497086	-0.479727
H79	H	1.414064	0.499340	-0.352346
H80	H	1.257703	0.557850	-0.198531
H81	H	1.161604	0.555630	-0.325938
H82	H	1.260138	0.653769	-0.326094
C83	C	1.661515	0.008064	-0.340208
C84	C	1.640027	-0.115520	-0.377550
C85	C	1.724521	-0.200413	-0.301010
H86	H	1.745505	0.022303	-0.365268
H87	H	1.649398	0.020059	-0.237887
H88	H	1.652155	-0.127510	-0.479848
H89	H	1.556054	-0.129799	-0.352486
H90	H	1.712405	-0.188418	-0.198688
H91	H	1.808506	-0.186163	-0.326075
H92	H	1.709946	-0.284274	-0.326324
H93	H	1.103959	0.187920	0.240924
H94	H	1.280905	-0.171007	0.000009
H95	H	1.719986	-0.105488	-0.000054
