data_functionalizedCrystal
_audit_creation_method	'MofGen! by Chris Wilmer'
_symmetry_space_group_name_H-M	'P1'
_symmetry_Int_Tables_number	1
_symmetry_cell_setting	triclinic
loop_
_symmetry_equiv_pos_as_xyz
  x,y,z
_cell_length_a	18.101398
_cell_length_b	18.050590
_cell_length_c	18.050583
_cell_angle_alpha	89.966777
_cell_angle_beta	89.991034
_cell_angle_gamma	90.014109
loop_
_atom_site_label
_atom_site_type_symbol
_atom_site_fract_x
_atom_site_fract_y
_atom_site_fract_z
Zn1	Zn	1.132180	-0.295722	-0.419725
Zn2	Zn	1.132105	-0.419927	-0.295533
Zn3	Zn	1.008340	-0.295746	-0.295569
Zn4	Zn	1.008317	-0.419865	-0.419702
O5	O	1.070235	-0.357815	-0.357632
O6	O	1.235803	-0.312214	-0.403245
O7	O	1.115665	-0.403490	-0.191613
O8	O	1.024810	-0.191818	-0.312063
O9	O	1.235747	-0.403467	-0.312002
O10	O	1.115794	-0.191801	-0.403280
O11	O	1.024736	-0.312254	-0.191640
O12	O	0.904704	-0.312194	-0.312041
O13	O	1.024769	-0.403362	-0.523630
O14	O	0.904687	-0.403385	-0.403241
O15	O	1.115771	-0.312155	-0.523647
O16	O	1.115642	-0.523843	-0.311980
O17	O	1.024696	-0.523798	-0.403206
C18	C	0.877825	-0.357786	-0.357643
C19	C	0.795511	-0.357791	-0.357665
C20	C	0.496420	-0.357835	-0.357634
C21	C	0.527759	-0.415487	-0.414731
C22	C	0.613377	-0.415306	-0.414966
C23	C	0.644802	-0.357814	-0.357649
C24	C	0.613731	-0.279591	-0.379038
C25	C	0.528086	-0.279937	-0.379444
C26	C	0.527973	-0.377717	-0.279010
C27	C	0.613623	-0.379433	-0.279430
C28	C	0.728662	-0.357797	-0.357657
C29	C	0.412560	-0.357846	-0.357628
C30	C	1.070178	-0.550767	-0.357603
C31	C	1.070222	-0.633313	-0.357615
C32	C	1.119781	-0.832761	-0.308075
C33	C	1.137870	-0.882090	-0.375853
C34	C	1.070264	-0.784443	-0.357644
C35	C	1.052251	-0.882197	-0.289898
C36	C	1.070306	-0.930428	-0.357667
C37	C	1.088387	-0.832684	-0.425457
C38	C	1.002737	-0.832787	-0.339457
C39	C	1.020799	-0.882093	-0.407281
C40	C	1.070242	-0.700345	-0.357630
C41	C	1.070328	-1.014525	-0.357689
C42	C	1.263397	-0.357845	-0.357622
C43	C	1.345711	-0.357858	-0.357618
C44	C	1.070276	-0.357749	-0.551338
C45	C	1.070293	-0.357720	-0.633884
C46	C	1.070313	-0.164109	-0.357678
C47	C	1.070346	-0.081564	-0.357698
C48	C	1.119826	-0.308072	-0.882719
C49	C	1.137908	-0.375837	-0.833301
C50	C	1.070340	-0.357673	-0.931004
C51	C	1.052269	-0.289936	-0.833341
C52	C	1.070319	-0.357693	-0.785019
C53	C	1.088458	-0.425474	-0.882674
C54	C	1.002788	-0.339527	-0.882718
C55	C	1.020845	-0.407339	-0.833322
C56	C	1.070355	-0.357661	-1.015103
C57	C	1.070304	-0.357713	-0.700923
C58	C	1.070238	-0.357828	-0.164680
C59	C	1.070364	-0.357647	-0.082135
H60	H	0.507156	-0.473683	-0.401475
O61	O	0.934586	-0.806890	-0.321197
C62	C	0.906532	-0.763898	-0.380047
H63	H	0.934865	-0.780718	-0.433876
H64	H	0.844487	-0.773440	-0.385196
H65	H	0.917558	-0.702771	-0.368657
O66	O	0.970781	-0.907815	-0.457253
C67	C	0.917156	-0.950868	-0.420382
H68	H	0.914961	-0.934212	-0.359512
H69	H	0.860821	-0.941210	-0.446905
H70	H	0.932322	-1.011993	-0.424915
H71	H	1.036998	-0.903944	-0.232596
O72	O	0.638406	-0.484550	-0.399104
C73	C	0.612236	-0.534696	-0.452908
H74	H	0.598387	-0.503303	-0.505933
H75	H	0.656654	-0.577787	-0.465009
H76	H	0.560506	-0.563548	-0.431291
O77	O	1.169806	-0.807037	-0.258109
C78	C	1.205324	-0.867358	-0.223541
H79	H	1.201520	-0.918201	-0.260781
H80	H	1.265860	-0.853055	-0.213591
H81	H	1.177315	-0.879594	-0.168298
H82	H	0.506372	-0.433782	-0.259573
H83	H	1.161715	-0.266169	-0.904407
O84	O	1.033951	-0.221645	-0.807400
C85	C	0.969072	-0.226750	-0.764465
H86	H	0.962486	-0.285843	-0.743143
H87	H	0.972982	-0.187051	-0.715525
H88	H	0.919288	-0.211483	-0.800005
O89	O	1.206071	-0.907802	-0.394200
C90	C	1.254038	-0.847468	-0.406433
H91	H	1.232230	-0.796631	-0.376040
H92	H	1.311474	-0.861754	-0.384829
H93	H	1.257200	-0.835231	-0.468321
H94	H	0.506245	-0.402499	-0.472649
H95	H	1.195026	-0.391197	-0.811593
O96	O	0.639283	-0.258979	-0.446841
C97	C	0.610838	-0.188622	-0.465219
H98	H	0.594861	-0.157980	-0.412389
H99	H	0.654654	-0.155515	-0.496274
H100	H	0.560001	-0.195477	-0.501856
O101	O	0.970917	-0.457387	-0.807479
C102	C	0.971040	-0.456438	-0.729375
H103	H	0.993085	-0.400880	-0.709071
H104	H	0.912309	-0.464726	-0.708112
H105	H	1.007822	-0.502939	-0.707786
O106	O	1.106797	-0.493788	-0.908536
C107	C	1.106605	-0.492948	-0.986642
H108	H	1.114855	-0.433763	-1.007111
H109	H	1.153321	-0.529393	-1.008191
H110	H	1.051488	-0.515008	-1.007783
H111	H	0.633940	-0.436994	-0.263299
H112	H	0.945686	-0.324145	-0.904441
H113	H	0.633876	-0.402151	-0.473221
H114	H	0.508120	-0.263074	-0.436921
H115	H	0.507355	-0.235442	-0.339764
H116	H	1.103583	-0.811029	-0.482809
O117	O	0.638043	-0.226869	-0.331084
C118	C	0.678624	-0.172860	-0.370228
H119	H	0.661337	-0.173333	-0.430953
H120	H	0.667215	-0.115883	-0.345540
H121	H	0.740133	-0.185692	-0.365845
O122	O	0.639177	-0.332888	-0.226045
C123	C	0.686064	-0.279527	-0.258398
H124	H	0.672341	-0.273754	-0.319765
H125	H	0.677748	-0.223928	-0.229660
H126	H	0.746017	-0.297749	-0.251930
O127	O	0.503697	-0.327583	-0.228341
C128	C	0.458449	-0.274754	-0.263724
H129	H	0.435069	-0.299392	-0.316923
H130	H	0.411127	-0.258671	-0.225286
H131	H	0.492562	-0.223483	-0.277573
