data_functionalizedCrystal
_audit_creation_method	'MofGen! by Chris Wilmer'
_symmetry_space_group_name_H-M	'P1'
_symmetry_Int_Tables_number	1
_symmetry_cell_setting	triclinic
loop_
_symmetry_equiv_pos_as_xyz
  x,y,z
_cell_length_a	16.625548
_cell_length_b	12.759399
_cell_length_c	12.759386
_cell_angle_alpha	90.062858
_cell_angle_beta	90.044290
_cell_angle_gamma	90.016184
loop_
_atom_site_label
_atom_site_type_symbol
_atom_site_fract_x
_atom_site_fract_y
_atom_site_fract_z
Zn1	Zn	-1.232910	0.417854	-0.594068
Zn2	Zn	-1.232775	0.593668	-0.418387
Zn3	Zn	-1.098016	0.418007	-0.418397
Zn4	Zn	-1.098060	0.593495	-0.594019
O5	O	-1.165441	0.505756	-0.506218
O6	O	-1.345725	0.441185	-0.570780
O7	O	-1.214824	0.570502	-0.271367
O8	O	-1.115949	0.270965	-0.441726
O9	O	-1.345626	0.570354	-0.441707
O10	O	-1.215055	0.270853	-0.570790
O11	O	-1.115818	0.441445	-0.271375
O12	O	-0.985190	0.441277	-0.441678
O13	O	-1.116023	0.570060	-0.741046
O14	O	-0.985222	0.570208	-0.570706
O15	O	-1.215097	0.441017	-0.741083
O16	O	-1.214867	0.740666	-0.441659
O17	O	-1.115892	0.740539	-0.570695
C18	C	-0.955950	0.505741	-0.506188
C19	C	-0.866329	0.505760	-0.506201
C20	C	-1.165391	0.778723	-0.506194
C21	C	-1.165444	0.895500	-0.506219
C22	C	-1.375749	0.505772	-0.506248
C23	C	-1.465371	0.505778	-0.506261
C24	C	-0.538153	0.505767	-0.506246
C25	C	-0.629461	0.505762	-0.506230
C26	C	-0.702238	0.505764	-0.506222
C27	C	-0.793552	0.505758	-0.506208
C28	C	-1.165580	0.505502	-0.780251
C29	C	-1.165640	0.505394	-0.897028
C30	C	-1.165512	0.231723	-0.506265
C31	C	-1.165543	0.114946	-0.506285
C32	C	-1.217039	0.950393	-0.439106
C33	C	-1.217090	1.060117	-0.439141
C34	C	-1.113945	1.060045	-0.573405
C35	C	-1.113898	0.950323	-0.573374
C36	C	-1.312251	1.210014	-0.401758
C37	C	-1.363839	1.264911	-0.334628
C38	C	-1.376213	1.229428	-0.232119
C39	C	-1.336988	1.139049	-0.196717
C40	C	-1.285395	1.084158	-0.263840
C41	C	-1.273035	1.119640	-0.366365
C42	C	-1.018737	0.800424	-0.610747
C43	C	-0.967138	0.745531	-0.677866
C44	C	-0.954755	0.781012	-0.780377
C45	C	-0.993966	0.871394	-0.815775
C46	C	-1.045565	0.926287	-0.748656
C47	C	-1.057949	0.890798	-0.646146
C48	C	-1.165348	0.505933	-0.233250
C49	C	-1.165445	0.505745	-0.116474
C50	C	-1.113571	0.438957	-0.061665
C51	C	-1.113670	0.438778	0.048058
C52	C	-1.217519	0.572185	0.048156
C53	C	-1.217423	0.572357	-0.061566
C54	C	-1.084333	0.314912	0.197751
C55	C	-1.032447	0.248133	0.252563
C56	C	-0.953657	0.232799	0.217108
C57	C	-0.926736	0.284260	0.126842
C58	C	-0.978618	0.351046	0.072035
C59	C	-1.057420	0.366360	0.107489
C60	C	-1.246752	0.696226	-0.211261
C61	C	-1.298630	0.763018	-0.266069
C62	C	-1.377422	0.778362	-0.230616
C63	C	-1.404340	0.726921	-0.140346
C64	C	-1.352461	0.660128	-0.085538
C65	C	-1.273670	0.644782	-0.120999
H66	H	-1.253460	1.010573	-0.235018
H67	H	-0.956700	0.392944	-0.001458
H68	H	-1.028821	0.771520	-0.527276
H69	H	-0.862574	0.271778	0.097987
O70	O	-1.406147	1.362383	-0.372816
H71	H	-1.388376	1.430036	-0.323175
O72	O	-1.489306	0.743527	-0.102060
H73	H	-1.499299	0.696563	-0.030062
H74	H	-0.983884	0.900283	-0.899249
O75	O	-1.433381	0.850403	-0.289728
H76	H	-1.401431	0.883600	-0.358455
H77	H	-1.071250	0.384713	-0.106368
O78	O	-1.269603	0.818505	-0.363436
H79	H	-1.206102	0.796603	-0.378895
H80	H	-1.259011	0.905758	-0.384425
H81	H	-0.912737	0.736308	-0.835024
O82	O	-0.897693	0.160768	0.276215
H83	H	-0.929649	0.127558	0.344932
O84	O	-1.161764	0.679672	-0.249498
H85	H	-1.151758	0.726679	-0.321465
H86	H	-1.347062	1.110172	-0.113239
O87	O	-0.924844	0.648043	-0.639695
H88	H	-0.942132	0.632579	-0.557140
H89	H	-1.418219	1.274132	-0.177462
H90	H	-1.054373	0.206234	0.326058
H91	H	-1.259836	0.626420	0.092875
H92	H	-1.148493	0.327380	0.226622
H93	H	-1.302188	1.238907	-0.485233
O94	O	-1.381440	0.604635	0.011849
H95	H	-1.433553	0.554033	-0.008207
O96	O	-1.058350	1.119183	-0.645826
H97	H	-1.022470	1.062575	-0.692497
O98	O	-1.087867	1.023767	-0.786831
H99	H	-1.070595	1.039217	-0.869394
