data_functionalizedCrystal
_audit_creation_method	'MofGen! by Chris Wilmer'
_symmetry_space_group_name_H-M	'P1'
_symmetry_Int_Tables_number	1
_symmetry_cell_setting	triclinic
loop_
_symmetry_equiv_pos_as_xyz
  x,y,z
_cell_length_a	15.538191
_cell_length_b	15.624967
_cell_length_c	14.750779
_cell_angle_alpha	59.900665
_cell_angle_beta	97.572172
_cell_angle_gamma	66.740751
loop_
_atom_site_label
_atom_site_type_symbol
_atom_site_fract_x
_atom_site_fract_y
_atom_site_fract_z
O1	O	1.255884	-0.300880	0.024910
O2	O	0.971306	-0.183377	-0.015996
O3	O	1.134347	-0.393039	0.057001
O4	O	1.092843	-0.091218	-0.048086
O5	O	1.180436	-0.452303	0.237284
O6	O	1.017395	-0.242641	0.164288
O7	O	1.301973	-0.360144	0.205194
Zn8	Zn	1.167002	-0.310802	0.213365
Zn9	Zn	1.106277	-0.232719	-0.024167
O10	O	1.138933	-0.150482	0.132197
C11	C	0.958176	-0.200716	0.069866
C12	C	0.850386	-0.164096	0.057118
C13	C	1.160081	-0.460355	0.160261
C14	C	1.168083	-0.572638	0.199349
C15	C	0.594545	-0.527899	0.183770
C16	C	0.493254	-0.493464	0.171780
C17	C	0.453799	-0.299772	0.104341
C18	C	0.555090	-0.334193	0.116331
C19	C	0.625455	-0.448258	0.156045
C20	C	0.586000	-0.254551	0.088606
C21	C	0.687280	-0.288968	0.100590
C22	C	0.757650	-0.403027	0.140299
C23	C	0.726735	-0.482675	0.168029
C24	C	0.515631	-0.140484	0.048885
C25	C	0.546542	-0.060843	0.021160
C26	C	0.647825	-0.095262	0.033151
C27	C	0.718195	-0.209321	0.072860
C28	C	0.678740	-0.015614	0.005421
C29	C	0.780021	-0.050031	0.017404
C30	C	0.819476	-0.243738	0.084843
C31	C	1.204484	-0.763205	0.352710
C32	C	1.196962	-0.657695	0.315970
C33	C	1.146720	-0.593069	0.119425
C34	C	1.154243	-0.698578	0.156150
C35	C	1.183124	-0.783639	0.272794
C36	C	1.132883	-0.719012	0.076234
C37	C	1.140401	-0.824510	0.112956
C38	C	1.169278	-0.909575	0.229594
C39	C	1.190642	-0.889137	0.309516
C40	C	1.103995	-0.633947	-0.040411
C41	C	1.082635	-0.654381	-0.120327
C42	C	1.090159	-0.759884	-0.083605
C43	C	1.119036	-0.844948	0.033034
C44	C	1.068795	-0.780321	-0.163527
C45	C	1.076313	-0.885819	-0.126805
C46	C	1.126554	-0.950446	0.069756
C47	C	1.315103	-0.342805	0.119330
C48	C	1.422891	-0.379421	0.132071
C49	C	1.113198	-0.083165	0.028934
C50	C	1.105194	0.029120	-0.010161
N51	N	1.208452	-0.364095	0.375475
N52	N	1.064836	-0.179437	-0.186273
C53	C	0.949076	-0.030643	0.611198
C54	C	0.978128	-0.067983	0.724697
C55	C	1.122523	-0.253597	0.789284
C56	C	1.093480	-0.216275	0.675789
C57	C	1.006756	-0.104797	0.586753
C58	C	1.151161	-0.290429	0.651344
C59	C	1.122123	-0.253107	0.537857
C60	C	1.035405	-0.141631	0.448816
C61	C	0.977719	-0.067475	0.473266
C62	C	1.237888	-0.401904	0.740380
C63	C	1.295569	-0.476057	0.715935
C64	C	1.266527	-0.438739	0.602448
C65	C	1.179809	-0.327263	0.513407
C66	C	1.324213	-0.512895	0.577998
C67	C	1.295175	-0.475573	0.464511
C68	C	1.150771	-0.289941	0.399920
H69	H	0.876774	-0.336623	0.117189
H70	H	1.342146	-0.535957	0.444610
O71	O	0.915912	0.012005	0.751063
H72	H	0.885651	-0.030962	0.811824
H73	H	1.193137	-0.344363	0.861789
O74	O	0.866896	-0.440167	0.153243
H75	H	0.866315	-0.383280	0.068373
H76	H	1.261530	-0.432285	0.832785
O77	O	0.459914	-0.579370	0.201695
H78	H	0.525864	-0.664468	0.231331
H79	H	1.059117	-0.585110	-0.215300
H80	H	1.011766	-0.111243	0.356408
H81	H	0.784033	-0.575560	0.200374
H82	H	0.651843	-0.620785	0.216116
H83	H	0.396494	-0.206898	0.072002
H84	H	1.394830	-0.603658	0.650502
O85	O	0.884173	0.052754	0.377211
H86	H	0.895149	0.120519	0.372884
O87	O	0.602835	0.107406	-0.037412
H88	H	0.594025	0.171399	-0.124766
H89	H	1.366183	-0.566823	0.788440
H90	H	1.214166	-0.958403	0.404500
O91	O	0.813364	0.035867	-0.012495
H92	H	0.895610	-0.007228	0.002501
H93	H	0.433163	-0.112465	0.039126
H94	H	0.489236	0.032031	-0.011180
O95	O	0.855536	0.089595	0.515152
H96	H	0.820302	0.134896	0.551211
H97	H	1.097861	-0.548038	-0.070309
H98	H	1.175389	-0.995472	0.259489
H99	H	1.045271	-0.711046	-0.258500
H100	H	1.150078	-1.019711	0.164739
O101	O	1.053272	-0.907869	-0.212994
H102	H	1.106831	-0.904912	-0.255752
O103	O	1.235646	-0.854975	0.478520
H104	H	1.179210	-0.817470	0.507202
O105	O	1.220010	-0.635656	0.402171
H106	H	1.241363	-0.712535	0.489448
H107	H	1.080146	-0.199169	0.327423
O108	O	1.115570	-0.501326	-0.006381
H109	H	1.113936	-0.424534	-0.018491
