data_functionalizedCrystal
_audit_creation_method	'MofGen! by Chris Wilmer'
_symmetry_space_group_name_H-M	'P1'
_symmetry_Int_Tables_number	1
_symmetry_cell_setting	triclinic
loop_
_symmetry_equiv_pos_as_xyz
  x,y,z
_cell_length_a	23.096457
_cell_length_b	23.096457
_cell_length_c	14.446369
_cell_angle_alpha	60.004350
_cell_angle_beta	89.999875
_cell_angle_gamma	60.000185
loop_
_atom_site_label
_atom_site_type_symbol
_atom_site_fract_x
_atom_site_fract_y
_atom_site_fract_z
Zr1	Zr	0.557781	0.633734	-0.121463
O2	O	0.465336	0.754514	-0.269251
O3	O	0.586118	0.512951	-0.076164
O4	O	0.586121	0.633730	-0.269266
O5	O	0.465332	0.633740	0.076180
O6	O	0.681402	0.633731	-0.269272
O7	O	0.465332	0.633734	-0.076149
O8	O	0.681396	0.417679	0.076153
O9	O	0.465338	0.849792	-0.269245
O10	O	0.669313	0.562634	-0.056842
O11	O	0.598206	0.562636	0.056844
O12	O	0.598210	0.704838	-0.170509
O13	O	0.527103	0.704841	-0.056824
Zr14	Zr	0.709742	0.633745	0.121475
Zr15	Zr	0.709742	0.633737	-0.121472
Zr16	Zr	0.557781	0.633743	0.121484
Zr17	Zr	0.557785	0.785692	-0.121453
Zr18	Zr	0.709738	0.481788	0.121464
O19	O	0.681405	0.754529	0.076175
O20	O	0.681405	0.754517	-0.269264
O21	O	0.465335	0.754525	0.076188
O22	O	0.802187	0.512966	0.269262
O23	O	0.802187	0.512954	-0.076177
O24	O	0.586118	0.512962	0.269275
O25	O	0.802190	0.633740	-0.076169
O26	O	0.681401	0.633750	0.269278
O27	O	0.586121	0.633748	0.269283
O28	O	0.802190	0.633745	0.076160
O29	O	0.586127	0.849794	-0.269252
O30	O	0.681396	0.417686	0.269263
O31	O	0.802185	0.417688	0.269256
O32	O	0.802185	0.417681	0.076146
O33	O	0.465338	0.849798	-0.076134
O34	O	0.586127	0.849800	-0.076141
O35	O	0.669313	0.562641	0.170521
O36	O	0.740419	0.562639	0.056835
O37	O	0.669317	0.704843	-0.056832
O38	O	0.598210	0.704846	0.056853
C39	C	0.633757	0.443664	-0.000007
C40	C	0.633755	0.379154	-0.000012
C41	C	0.670867	0.348852	-0.059358
C42	C	0.670874	0.288230	-0.059349
C43	C	0.633755	0.257924	-0.000008
C44	C	0.596641	0.288230	0.059351
C45	C	0.596641	0.348846	0.059350
N46	N	0.573351	0.195527	-0.008233
N47	N	0.573352	0.137946	-0.008238
C48	C	0.633754	0.075292	0.000002
N49	N	0.694154	0.072401	0.008225
N50	N	0.694151	0.129990	0.008223
C51	C	0.633751	0.192196	0.000001
C52	C	0.670877	-0.020745	-0.059337
C53	C	0.670886	-0.081372	-0.059320
C54	C	0.596646	-0.081365	0.059373
C55	C	0.596644	-0.020745	0.059363
C56	C	0.633758	0.009564	0.000002
C57	C	0.443681	0.633737	0.000017
C58	C	0.379170	0.633736	0.000021
C59	C	0.385979	0.559508	0.059343
C60	C	0.325363	0.559507	0.059348
C61	C	0.257939	0.633737	0.000008
C62	C	0.251132	0.707974	-0.059317
C63	C	0.311747	0.707973	-0.059311
N64	N	0.135145	0.688989	-0.096568
N65	N	0.077565	0.688985	-0.096572
C66	C	0.075306	0.633745	-0.000012
N67	N	0.132808	0.578496	0.096551
N68	N	0.190394	0.578498	0.096552
C69	C	0.192208	0.633747	-0.000004
C70	C	0.016392	0.559511	0.059321
C71	C	-0.044226	0.559513	0.059329
C72	C	-0.118457	0.707982	-0.059346
C73	C	-0.057839	0.707978	-0.059343
C74	C	0.009583	0.633741	-0.000012
C75	C	0.823842	0.633743	-0.000005
C76	C	0.888353	0.633744	-0.000009
C77	C	0.633762	0.633729	-0.303884
C78	C	0.633762	0.633726	-0.407021
C79	C	0.633766	0.823815	0.000019
C80	C	0.633768	0.888325	0.000023
C81	C	0.678830	0.544047	-0.482012
C82	C	0.678634	0.543986	-0.374683
C83	C	0.556500	0.678274	-0.481573
C84	C	0.556747	0.677705	-0.588432
C85	C	0.665331	0.679553	-0.590012
C86	C	0.666894	0.677863	-0.481341
C87	C	0.633761	0.633750	0.303895
C88	C	0.633761	0.633754	0.407032
C89	C	0.823837	0.443668	-0.000018
C90	C	0.888347	0.379159	-0.000026
C91	C	0.633756	0.443675	0.303882
C92	C	0.633755	0.379168	0.407015
C93	C	0.823837	0.443678	0.303871
C94	C	0.888346	0.379173	0.407000
C95	C	0.443686	0.823802	-0.303860
C96	C	0.379176	0.888307	-0.406989
C97	C	0.443686	0.823812	0.000030
C98	C	0.379176	0.888321	0.000038
C99	C	0.633766	0.823805	-0.303871
C100	C	0.633768	0.888311	-0.407004
C101	C	0.881524	0.348862	-0.059379
C102	C	0.942132	0.288258	-0.059409
C103	C	1.009562	0.257947	-0.000080
C104	C	1.016383	0.288249	0.059274
C105	C	0.955776	0.348857	0.059297
C106	C	0.670871	0.348878	0.514796
C107	C	0.670866	0.288276	0.611710
C108	C	0.633750	0.257961	0.600840
C109	C	0.596629	0.288257	0.493048
C110	C	0.596630	0.348863	0.396137
C111	C	0.955764	0.348879	0.396088
C112	C	1.016384	0.288278	0.492980
C113	C	1.009584	0.257968	0.600782
C114	C	0.942159	0.288267	0.611692
C115	C	0.881541	0.348871	0.514802
C116	C	0.311758	0.918608	-0.396077
C117	C	0.251139	0.979228	-0.492968
C118	C	0.257939	1.009542	-0.600771
C119	C	0.325364	0.979238	-0.611681
C120	C	0.385982	0.918623	-0.514790
C121	C	0.385998	0.918624	0.059380
C122	C	0.325390	0.979245	0.059383
C123	C	0.257960	1.009558	0.000051
C124	C	0.251139	0.979253	-0.059299
C125	C	0.311747	0.918637	-0.059308
C126	C	0.670892	0.918607	-0.396098
C127	C	0.670908	0.979209	-0.492993
C128	C	0.633795	1.009519	-0.600793
C129	C	0.596670	0.979218	-0.611697
C130	C	0.596659	0.918612	-0.514803
H131	H	0.701112	-0.106048	-0.107642
H132	H	0.440873	0.499058	0.107648
H133	H	0.208574	1.058898	-0.679656
H134	H	0.633809	1.058868	-0.679681
H135	H	0.961341	0.373517	0.107636
N136	N	0.808828	0.381524	0.526584
H137	H	0.771452	0.424514	0.448854
H138	H	0.803212	0.406626	0.569444
N139	N	0.963102	0.381574	0.279819
H140	H	0.939613	0.371021	0.236966
H141	H	1.015025	0.353172	0.287713
H142	H	0.566408	0.373517	0.308380
H143	H	0.566453	1.003905	-0.699480
N144	N	0.556616	-0.114049	0.123389
H145	H	0.562249	-0.157050	0.114388
H146	H	0.504709	-0.067762	0.092238
H147	H	0.701097	0.263616	0.699469
N148	N	-0.191174	0.788044	-0.123344
H149	H	-0.196851	0.820497	-0.206355
H150	H	-0.196806	0.820431	-0.092120
H151	H	0.701096	0.373554	0.523668
H152	H	0.936565	0.263593	-0.107742
H153	H	0.735528	0.509035	-0.320416
H154	H	0.566419	0.263551	0.107668
N155	N	0.458699	0.885932	-0.526558
H156	H	0.464382	0.932173	-0.569365
H157	H	0.464316	0.860781	-0.569345
N158	N	1.089100	0.255604	0.481198
H159	H	1.084204	0.283998	0.398202
H160	H	1.115869	0.194758	0.518817
N161	N	0.089111	0.479442	0.123325
H162	H	0.115914	0.476136	0.183039
H163	H	0.115859	0.476177	0.068824
N164	N	0.556616	0.011943	0.123373
H165	H	0.533102	-0.016453	0.160969
H166	H	0.519301	0.072787	0.068893
N167	N	0.742290	0.634856	-0.413251
H168	H	0.775483	0.614422	-0.451735
H169	H	0.754882	0.587011	-0.334595
N170	N	0.633753	0.192593	0.705371
H171	H	0.662903	0.178006	0.775295
H172	H	0.654863	0.142336	0.705318
H173	H	1.058949	0.208620	0.679667
H174	H	0.306208	0.893930	-0.308307
H175	H	0.701089	0.373526	-0.107690
N176	N	0.522786	0.637280	-0.413235
H177	H	0.473087	0.666382	-0.461945
H178	H	0.520938	0.639814	-0.345414
H179	H	0.566410	0.263566	0.484214
N180	N	0.934830	0.255571	0.727968
H181	H	0.983465	0.212580	0.787682
H182	H	0.908033	0.230458	0.736951
N183	N	0.710897	0.255553	-0.123380
H184	H	0.676848	0.266101	-0.183086
H185	H	0.748252	0.194720	-0.068896
H186	H	0.637481	0.743332	-0.506850
N187	N	1.074929	0.192578	-0.000112
H188	H	1.060368	0.177988	-0.046715
H189	H	1.104077	0.142323	0.080280
N190	N	0.754388	0.497400	-0.478911
H191	H	0.776489	0.526102	-0.480910
H192	H	0.754854	0.494855	-0.546716
H193	H	0.196245	1.003891	-0.484063
N194	N	-0.065179	0.788038	-0.123343
H195	H	-0.117089	0.835064	-0.160939
H196	H	-0.041643	0.791263	-0.182996
N197	N	0.808801	0.381545	-0.123372
H198	H	0.813687	0.353152	-0.160974
H199	H	0.782037	0.442390	-0.183019
N200	N	0.332692	1.011936	-0.727956
H201	H	0.284057	1.054929	-0.787671
H202	H	0.359486	0.965649	-0.736947
N203	N	0.458721	0.885937	0.123378
H204	H	0.453836	0.914343	0.160962
H205	H	0.485486	0.896483	0.068886
N206	N	0.178409	1.011939	-0.123267
H207	H	0.151600	1.072782	-0.182972
H208	H	0.151682	1.001327	-0.068733
N209	N	0.556614	0.885940	-0.526574
H210	H	0.533107	0.914343	-0.609569
H211	H	0.519293	0.896497	-0.488961
N212	N	0.332752	1.011936	0.123383
H213	H	0.309253	1.001407	0.183096
H214	H	0.309277	1.072765	0.068871
N215	N	0.556614	0.381531	0.123366
H216	H	0.533102	0.353133	0.160966
H217	H	0.519298	0.442374	0.068884
N218	N	0.192591	1.074932	0.000068
H219	H	0.192569	1.125225	-0.033696
H220	H	0.192609	1.053762	0.080465
N221	N	0.710907	0.011948	-0.123354
H222	H	0.734424	-0.016454	-0.160943
H223	H	0.748219	0.001409	-0.068875
H224	H	0.306182	0.893966	-0.107628
H225	H	0.701114	0.893938	-0.308330
N226	N	0.710953	1.011882	-0.481218
H227	H	0.734454	0.983487	-0.398223
H228	H	0.676879	1.072728	-0.518836
H229	H	0.330908	0.499061	0.107656
N230	N	0.509845	0.764882	-0.692512
H231	H	0.470206	0.772074	-0.737007
H232	H	0.538855	0.777413	-0.741336
N233	N	0.178414	0.788038	-0.123311
H234	H	0.141047	0.776776	-0.114315
H235	H	0.172803	0.820456	-0.206293
H236	H	0.657133	0.509013	-0.480980
H237	H	-0.038675	0.499066	0.107645
N238	N	0.304409	0.788034	-0.123306
H239	H	0.277632	0.820493	-0.092181
H240	H	0.277655	0.820418	-0.206303
N241	N	0.649630	0.497390	-0.303431
H242	H	0.636917	0.476813	-0.341706
H243	H	0.605901	0.534811	-0.294641
H244	H	0.531473	0.646045	-0.588164
H245	H	0.632649	0.745644	-0.668204
H246	H	0.521462	0.744256	-0.508797
N247	N	0.739557	0.641527	-0.595461
H248	H	0.758799	0.671842	-0.593446
H249	H	0.738516	0.645058	-0.668070
N250	N	1.089113	0.255554	0.123261
H251	H	1.126466	0.212561	0.114237
H252	H	1.094733	0.230445	0.206249
