data_functionalizedCrystal
_audit_creation_method	'MofGen! by Chris Wilmer'
_symmetry_space_group_name_H-M	'P1'
_symmetry_Int_Tables_number	1
_symmetry_cell_setting	triclinic
loop_
_symmetry_equiv_pos_as_xyz
  x,y,z
_cell_length_a	6.817900
_cell_length_b	13.466082
_cell_length_c	13.561464
_cell_angle_alpha	107.047176
_cell_angle_beta	104.692446
_cell_angle_gamma	111.116375
loop_
_atom_site_label
_atom_site_type_symbol
_atom_site_fract_x
_atom_site_fract_y
_atom_site_fract_z
V1	V	-4.167607	-0.249823	-0.347964
O2	O	-4.110880	-0.093045	-0.340295
O3	O	-4.158132	-0.394323	-0.346590
O4	O	-4.162399	-0.292074	-0.499264
O5	O	-4.106583	-0.196002	-0.186563
V6	V	-4.640595	-0.225624	-0.328537
O7	O	-4.451976	-0.302905	-0.390579
O8	O	-4.806424	-0.172542	-0.285922
O9	O	-4.426864	-0.081123	-0.329911
O10	O	-4.814719	-0.382402	-0.336206
O11	O	-4.819016	-0.279445	-0.489938
O12	O	-4.422597	-0.183373	-0.177237
C13	C	-4.011204	-0.428109	-0.341360
C14	C	-4.085031	-0.546537	-0.341245
C15	C	-4.016645	-0.297678	-0.536110
C16	C	-4.093928	-0.333179	-0.659805
C17	C	-3.853292	-0.754925	-0.329825
C18	C	-3.922649	-0.866198	-0.329716
C19	C	-4.293096	-0.880355	-0.340910
C20	C	-4.223739	-0.769082	-0.341019
C21	C	-4.003833	-0.706371	-0.335478
C22	C	-3.934483	-0.595100	-0.335595
C23	C	-4.304923	-0.609255	-0.346781
C24	C	-4.374280	-0.720528	-0.346672
C25	C	-4.025730	-0.023135	-0.941957
C26	C	-3.953051	0.010158	-0.825746
C27	C	-3.988265	-0.075673	-0.784255
C28	C	-4.096168	-0.194804	-0.858987
C29	C	-4.168871	-0.228100	-0.975209
C30	C	-4.131406	-0.280639	-0.817507
C31	C	-4.239309	-0.399769	-0.892239
C32	C	-4.312001	-0.433060	-1.008449
C33	C	-4.276787	-0.347229	-1.049941
C34	C	-4.058703	-0.247342	-0.701285
C35	C	-4.201844	-0.452308	-0.734537
C36	C	-4.274523	-0.485600	-0.850747
C37	C	-4.237134	-0.047342	-0.335138
C38	C	-4.142548	0.071083	-0.335260
C39	C	-4.231692	-0.177770	-0.140385
C40	C	-4.133646	-0.142263	-0.016688
H41	H	-3.755431	-0.544044	-0.331089
C42	C	-4.240583	-0.546729	-0.688902
N43	N	-4.269757	-0.617841	-0.654523
C44	C	-4.393237	-0.616642	-0.932966
N45	N	-4.482656	-0.715343	-0.994895
H46	H	-3.800061	-0.905727	-0.325118
C47	C	-3.611401	-0.685943	-0.323737
N48	N	-3.429204	-0.633988	-0.319150
C49	C	-3.908291	-0.039045	-0.656418
N50	N	-3.848036	-0.011451	-0.560126
H51	H	-4.472144	-0.931434	-0.345424
C52	C	-4.356730	-0.383845	-1.177779
N53	N	-4.416941	-0.411421	-1.274068
C54	C	-3.987003	0.071265	-0.987607
N55	N	-3.957825	0.142374	-1.021990
H56	H	-4.553327	-0.771601	-0.351180
H57	H	-4.427504	-0.569713	-0.351387
C58	C	-3.834340	0.141198	-0.743550
N59	N	-3.744911	0.239904	-0.681638
C60	C	-4.430676	-0.564106	-1.090651
N61	N	-4.520046	-0.662810	-1.152563
H62	H	-3.970852	-0.150346	-0.640449
