data_functionalizedCrystal
_audit_creation_method	'MofGen! by Chris Wilmer'
_symmetry_space_group_name_H-M	'P1'
_symmetry_Int_Tables_number	1
_symmetry_cell_setting	triclinic
loop_
_symmetry_equiv_pos_as_xyz
  x,y,z
_cell_length_a	11.792241
_cell_length_b	22.610064
_cell_length_c	11.792254
_cell_angle_alpha	90.004546
_cell_angle_beta	84.196007
_cell_angle_gamma	90.011085
loop_
_atom_site_label
_atom_site_type_symbol
_atom_site_fract_x
_atom_site_fract_y
_atom_site_fract_z
O1	O	1.506934	0.049127	0.155564
O2	O	2.006934	0.549127	0.655564
O3	O	1.176593	0.049141	0.171597
O4	O	1.676593	0.549141	0.671597
O5	O	1.349773	0.049130	-0.001589
O6	O	1.849773	0.549130	0.498411
O7	O	1.333755	0.049139	0.328750
O8	O	1.833755	0.549139	0.828750
O9	O	1.349721	-0.049239	-0.001589
O10	O	1.849721	0.450761	0.498411
O11	O	1.176542	-0.049228	0.171597
O12	O	1.676542	0.450772	0.671597
O13	O	1.506883	-0.049242	0.155564
O14	O	2.006883	0.450758	0.655564
Zn15	Zn	1.341704	-0.064853	0.163580
Zn16	Zn	1.841704	0.435147	0.663580
Zn17	Zn	1.341772	0.064753	0.163581
Zn18	Zn	1.841772	0.564753	0.663581
O19	O	1.333704	-0.049230	0.328750
O20	O	1.833704	0.450770	0.828750
C21	C	1.134277	-0.000042	0.170590
C22	C	1.634277	0.499958	0.670590
C23	C	1.008263	-0.000036	0.167576
C24	C	1.508263	0.499964	0.667576
C25	C	0.777551	-0.000054	0.162033
C26	C	1.277551	0.499946	0.662033
C27	C	0.905936	-0.000044	0.165112
C28	C	1.405936	0.499956	0.665112
N29	N	1.341667	-0.153306	0.163579
N30	N	1.841667	0.346694	0.663579
C31	C	1.411035	-0.561948	0.232872
C32	C	1.911035	-0.061948	0.732872
C33	C	1.411049	-0.623868	0.232869
C34	C	1.911049	-0.123868	0.732869
O35	O	1.469983	-0.655888	0.291776
O36	O	1.969983	-0.155888	0.791776
N37	N	1.341793	-0.654843	0.163568
N38	N	1.841793	-0.154843	0.663568
C39	C	1.272528	-0.623894	0.094257
C40	C	1.772528	-0.123894	0.594257
O41	O	1.213622	-0.655926	0.035310
O42	O	1.713622	-0.155926	0.535310
C43	C	1.272520	-0.561976	0.094254
C44	C	1.772520	-0.061976	0.594254
C45	C	1.341772	-0.531004	0.163568
C46	C	1.841772	-0.031004	0.663568
C47	C	1.480282	-0.530977	0.302179
C48	C	1.980282	-0.030977	0.802179
C49	C	1.480266	-0.469061	0.302183
C50	C	1.980266	0.030939	0.802183
C51	C	1.411003	-0.438117	0.232880
C52	C	1.911003	0.061883	0.732880
C53	C	1.341756	-0.469088	0.163572
C54	C	1.841756	0.030912	0.663572
C55	C	1.203261	-0.531028	0.024938
C56	C	1.703261	-0.031028	0.524938
C57	C	1.203261	-0.469105	0.024941
C58	C	1.703261	0.030895	0.524941
C59	C	1.272512	-0.438134	0.094255
C60	C	1.772512	0.061866	0.594255
C61	C	1.272477	-0.376229	0.094273
C62	C	1.772477	0.123771	0.594273
N63	N	1.341732	-0.345254	0.163574
N64	N	1.841732	0.154746	0.663574
C65	C	1.410995	-0.376198	0.232877
C66	C	1.910995	0.123802	0.732877
C67	C	1.272550	-0.753928	0.094266
C68	C	1.772550	-0.253928	0.594266
C69	C	1.272550	-0.815846	0.094274
C70	C	1.772550	-0.315846	0.594274
C71	C	1.411074	-0.815815	0.232885
C72	C	1.911074	-0.315815	0.732885
C73	C	1.411066	-0.753896	0.232882
C74	C	1.911066	-0.253896	0.732882
C75	C	1.341806	-0.722953	0.163567
C76	C	1.841806	-0.222953	0.663567
C77	C	1.410956	-0.246171	0.232881
C78	C	1.910956	0.253829	0.732881
C79	C	1.410930	-0.184250	0.232882
C80	C	1.910930	0.315750	0.732882
C81	C	1.272411	-0.184286	0.094268
C82	C	1.772411	0.315714	0.594268
C83	C	1.272432	-0.246201	0.094270
C84	C	1.772432	0.253799	0.594270
C85	C	1.341713	-0.277142	0.163580
C86	C	1.841713	0.222858	0.663580
O87	O	1.213576	-0.344170	0.035392
O88	O	1.713576	0.155830	0.535392
O89	O	1.469902	-0.344158	0.291803
O90	O	1.969902	0.155842	0.791803
C91	C	1.549199	-0.000058	0.156571
C92	C	2.049199	0.499942	0.656571
C93	C	1.675213	-0.000059	0.159586
C94	C	2.175213	0.499941	0.659586
C95	C	1.348738	-0.000055	-0.043880
C96	C	1.848738	0.499945	0.456120
C97	C	1.345718	-0.000054	-0.169893
C98	C	1.845718	0.499946	0.330107
N99	N	1.341818	0.153205	0.163573
N100	N	1.841818	0.653205	0.663573
C101	C	1.343264	-0.000052	-0.272229
C102	C	1.843264	0.499948	0.227771
C103	C	1.340196	-0.000046	-0.400616
C104	C	1.840196	0.499954	0.099384
C105	C	1.334738	-0.000045	0.371041
C106	C	1.834738	0.499955	0.871041
C107	C	1.337758	-0.000041	0.497054
C108	C	1.837758	0.499959	0.997054
H109	H	1.467322	-0.159035	0.289331
H110	H	1.967322	0.340965	0.789331
C111	C	1.127077	-0.565083	-0.051314
C112	C	1.627077	-0.065083	0.448686
N113	N	1.069692	-0.590732	-0.108753
N114	N	1.569692	-0.090732	0.391247
H115	H	1.216138	-0.728738	0.037825
H116	H	1.716138	-0.228738	0.537825
C117	C	1.556463	-0.435000	0.378420
C118	C	2.056463	0.065000	0.878420
N119	N	1.613865	-0.409350	0.435840
N120	N	2.113865	0.090650	0.935840
C121	C	1.487256	-0.719833	0.309123
C122	C	1.987256	-0.219833	0.809123
N123	N	1.544649	-0.694180	0.366548
N124	N	2.044649	-0.194180	0.866548
C125	C	1.487274	-0.849865	0.309112
C126	C	1.987274	-0.349865	0.809112
N127	N	1.544665	-0.875514	0.366521
N128	N	2.044665	-0.375514	0.866521
H129	H	1.467371	-0.271356	0.289319
H130	H	1.967371	0.228644	0.789319
H131	H	1.146859	-0.443915	-0.031506
H132	H	1.646859	0.056085	0.468494
C133	C	1.196408	-0.150235	0.017856
C134	C	1.696408	0.349765	0.517856
N135	N	1.139234	-0.124587	-0.039770
N136	N	1.639234	0.375413	0.460230
H137	H	1.216145	-0.841057	0.037845
H138	H	1.716145	-0.341057	0.537845
H139	H	1.216028	-0.271420	0.037844
H140	H	1.716028	0.228580	0.537844
H141	H	1.536690	-0.556165	0.358614
H142	H	2.036690	-0.056165	0.858614
