data_functionalizedCrystal
_audit_creation_method	'MofGen! by Chris Wilmer'
_symmetry_space_group_name_H-M	'P1'
_symmetry_Int_Tables_number	1
_symmetry_cell_setting	triclinic
loop_
_symmetry_equiv_pos_as_xyz
  x,y,z
_cell_length_a	33.592126
_cell_length_b	33.591377
_cell_length_c	33.588093
_cell_angle_alpha	60.004089
_cell_angle_beta	60.008299
_cell_angle_gamma	59.994549
loop_
_atom_site_label
_atom_site_type_symbol
_atom_site_fract_x
_atom_site_fract_y
_atom_site_fract_z
O1	O	0.055297	-0.581666	0.486338
O2	O	0.555297	-0.081666	0.986338
O3	O	0.020882	-0.452873	0.391864
O4	O	0.520882	0.047127	0.891864
O5	O	0.102445	-0.534352	0.391775
O6	O	0.602445	-0.034352	0.891775
O7	O	-0.026266	-0.500187	0.486427
O8	O	0.473734	-0.000187	0.986427
O9	O	0.129510	-0.507292	0.418747
O10	O	0.629510	-0.007292	0.918747
O11	O	0.047947	-0.425814	0.418835
O12	O	0.547947	0.074186	0.918835
O13	O	0.082362	-0.554606	0.513309
O14	O	0.582362	-0.054606	1.013309
Cu15	Cu	0.067626	-0.487739	0.468535
Cu16	Cu	0.567626	0.012261	0.968535
Cu17	Cu	0.035618	-0.519740	0.436638
Cu18	Cu	0.535618	-0.019740	0.936638
O19	O	0.000799	-0.473128	0.513398
O20	O	0.500799	0.026872	1.013398
N21	N	0.090139	-0.465235	0.490972
N22	N	0.590139	0.034765	0.990972
N23	N	0.013110	-0.542249	0.414202
N24	N	0.513110	-0.042249	0.914202
C25	C	0.124394	-0.431229	0.734914
C26	C	0.624394	0.068771	1.234914
C27	C	0.334265	-0.431145	0.524799
C28	C	0.834265	0.068855	1.024799
C29	C	0.124204	-0.431200	0.524965
C30	C	0.624204	0.068800	1.024965
C31	C	0.124184	-0.221175	0.524955
C32	C	0.624184	0.278825	1.024955
C33	C	0.158017	-0.322536	0.558710
C34	C	0.658017	0.177464	1.058710
C35	C	0.158027	-0.397406	0.558711
C36	C	0.658027	0.102594	1.058711
C37	C	0.176763	-0.378688	0.577408
C38	C	0.676763	0.121312	1.077408
C39	C	0.258412	-0.364594	0.534386
C40	C	0.758412	0.135406	1.034386
C41	C	0.309454	-0.381596	0.517340
C42	C	0.809454	0.118404	1.017340
C43	C	0.309485	-0.464188	0.548836
C44	C	0.809485	0.035812	1.048836
C45	C	0.258444	-0.447186	0.565883
C46	C	0.758444	0.052814	1.065883
C47	C	0.170304	-0.297002	0.508532
C48	C	0.670304	0.202998	1.008532
C49	C	0.153260	-0.245956	0.491537
C50	C	0.653260	0.254044	0.991537
C51	C	0.111648	-0.245983	0.574901
C52	C	0.611648	0.254017	1.074901
C53	C	0.128691	-0.297029	0.591896
C54	C	0.628691	0.202971	1.091896
C55	C	0.107841	-0.385091	0.571080
C56	C	0.607841	0.114909	1.071080
C57	C	0.090813	-0.402108	0.554078
C58	C	0.590813	0.097892	1.054078
C59	C	0.174153	-0.443755	0.512351
C60	C	0.674153	0.056245	1.012351
C61	C	0.191183	-0.426739	0.529347
C62	C	0.691183	0.073261	1.029347
C63	C	0.107923	-0.385106	0.659111
C64	C	0.607923	0.114894	1.159111
C65	C	0.090955	-0.402138	0.710156
C66	C	0.590955	0.097862	1.210156
C67	C	0.174335	-0.443795	0.710087
C68	C	0.674335	0.056205	1.210087
C69	C	0.191302	-0.426764	0.659041
C70	C	0.691302	0.073236	1.159041
C71	C	0.158095	-0.397418	0.633555
C72	C	0.658095	0.102582	1.133555
C73	C	0.232909	-0.397388	0.558656
C74	C	0.732909	0.102612	1.058656
C75	C	0.105069	-0.449619	0.791057
C76	C	0.605069	0.050381	1.291057
C77	C	0.390406	-0.449193	0.505789
C78	C	0.890406	0.050807	1.005789
C79	C	0.104813	-0.449599	0.506607
C80	C	0.604813	0.050401	1.006607
C81	C	0.105125	-0.165028	0.506915
C82	C	0.605125	0.334972	1.006915
C83	C	-0.020560	-0.576246	0.169890
C84	C	0.479440	-0.076246	0.669890
C85	C	-0.020889	-0.786183	0.379970
C86	C	0.479111	-0.286183	0.879970
C87	C	-0.020859	-0.576235	0.380063
C88	C	0.479141	-0.076235	0.880063
C89	C	-0.230772	-0.576015	0.379658
C90	C	0.269228	-0.076015	0.879658
C91	C	-0.129417	-0.609898	0.346025
C92	C	0.370583	-0.109898	0.846025
C93	C	-0.054587	-0.609979	0.346172
C94	C	0.445413	-0.109979	0.846172
C95	C	-0.073269	-0.628671	0.327396
C96	C	0.426731	-0.128671	0.827396
C97	C	-0.087401	-0.710299	0.370335
C98	C	0.412599	-0.210299	0.870335
C99	C	-0.070424	-0.761345	0.387369
C100	C	0.429576	-0.261345	0.887369
C101	C	0.012165	-0.761428	0.356003
C102	C	0.512165	-0.261428	0.856003
C103	C	-0.004813	-0.710383	0.338967
C104	C	0.495187	-0.210383	0.838967
C105	C	-0.155001	-0.622196	0.396191
C106	C	0.344999	-0.122196	0.896191
C107	C	-0.206043	-0.605128	0.413125
C108	C	0.293957	-0.105128	0.913125
C109	C	-0.205914	-0.563467	0.329724
C110	C	0.294086	-0.063467	0.829724
C111	C	-0.154872	-0.580535	0.312790
C112	C	0.345128	-0.080535	0.812790
C113	C	-0.066886	-0.559797	0.333828
C114	C	0.433114	-0.059797	0.833828
C115	C	-0.049903	-0.542809	0.350903
C116	C	0.450097	-0.042809	0.850903
C117	C	-0.008321	-0.626180	0.392654
C118	C	0.491679	-0.126180	0.892654
C119	C	-0.025304	-0.643170	0.375585
C120	C	0.474696	-0.143170	0.875585
C121	C	-0.066758	-0.559805	0.245702
C122	C	0.433242	-0.059805	0.745702
C123	C	-0.049671	-0.542819	0.194658
C124	C	0.450329	-0.042819	0.694658
C125	C	-0.008026	-0.626194	0.194706
C126	C	0.491974	-0.126194	0.694706
C127	C	-0.025111	-0.643179	0.245752
C128	C	0.474889	-0.143179	0.745752
C129	C	-0.054479	-0.609983	0.271248
C130	C	0.445521	-0.109983	0.771248
C131	C	-0.054597	-0.684821	0.346135
C132	C	0.445403	-0.184821	0.846135
C133	C	-0.002109	-0.556901	0.113746
C134	C	0.497891	-0.056901	0.613746
C135	C	-0.002869	-0.842328	0.398966
C136	C	0.497131	-0.342328	0.898966
C137	C	-0.002496	-0.556887	0.398501
C138	C	0.497504	-0.056887	0.898501
C139	C	-0.286914	-0.556929	0.397631
C140	C	0.213086	-0.056929	0.897631
N141	N	0.436349	-0.465146	0.490703
N142	N	0.936349	0.034854	0.990703
O143	O	0.592194	-0.469605	0.374236
O144	O	1.092194	0.030395	0.874236
O145	O	0.592389	-0.564393	0.502890
O146	O	1.092389	-0.064393	1.002890
O147	O	0.592305	-0.564176	0.421300
O148	O	1.092305	-0.064176	0.921300
O149	O	0.592277	-0.469822	0.455826
O150	O	1.092277	0.030178	0.955826
O151	O	0.511216	-0.537214	0.448415
O152	O	1.011216	-0.037214	0.948415
O153	O	0.511300	-0.537431	0.530004
O154	O	1.011300	-0.037431	1.030004
O155	O	0.511104	-0.442643	0.401350
O156	O	1.011104	0.057357	0.901350
Cu157	Cu	0.503798	-0.487575	0.468153
Cu158	Cu	1.003798	0.012425	0.968153
Cu159	Cu	0.599695	-0.519461	0.436087
Cu160	Cu	1.099695	-0.019461	0.936087
O161	O	0.511188	-0.442860	0.482940
O162	O	1.011188	0.057140	0.982940
N163	N	0.667145	-0.541890	0.413532
N164	N	1.167145	-0.041890	0.913532
N165	N	0.090108	-0.119085	0.490958
N166	N	0.590108	0.380915	0.990958
O167	O	-0.026275	0.036848	0.486394
O168	O	0.473725	0.536848	0.986394
O169	O	0.102381	0.036888	0.391584
O170	O	0.602381	0.536888	0.891584
O171	O	0.020751	0.036852	0.391854
O172	O	0.520751	0.536852	0.891854
O173	O	0.055356	0.036884	0.486124
O174	O	0.555356	0.536884	0.986124
O175	O	0.047821	-0.044242	0.418876
O176	O	0.547821	0.455758	0.918876
O177	O	0.129452	-0.044207	0.418606
O178	O	0.629452	0.455793	0.918606
O179	O	0.000796	-0.044246	0.513417
O180	O	0.500796	0.455754	1.013417
Cu181	Cu	0.067596	-0.051631	0.468479
Cu182	Cu	0.567596	0.448369	0.968479
Cu183	Cu	0.035582	0.044273	0.436522
Cu184	Cu	0.535582	0.544273	0.936522
O185	O	0.082426	-0.044211	0.513146
O186	O	0.582426	0.455789	1.013146
N187	N	0.013063	0.111726	0.414043
N188	N	0.513063	0.611726	0.914043
N189	N	0.090453	-0.465282	0.837001
N190	N	0.590453	0.034718	1.337001
O191	O	0.085913	-0.581648	0.992925
O192	O	0.585913	-0.081648	1.492925
O193	O	-0.008857	-0.452947	0.992970
O194	O	0.491143	0.047053	1.492970
O195	O	-0.008635	-0.534562	0.992946
O196	O	0.491365	-0.034562	1.492946
O197	O	0.085691	-0.500033	0.992949
O198	O	0.585691	-0.000033	1.492949
O199	O	0.018365	-0.507512	0.911855
O200	O	0.518365	-0.007512	1.411855
O201	O	0.018143	-0.425898	0.911878
O202	O	0.518143	0.074102	1.411878
O203	O	0.112912	-0.554598	0.911834
O204	O	0.612912	-0.054598	1.411834
Cu205	Cu	0.067993	-0.487778	0.904452
Cu206	Cu	0.567993	0.012222	1.404452
Cu207	Cu	0.036063	-0.519767	1.000352
Cu208	Cu	0.536063	-0.019767	1.500352
O209	O	0.112691	-0.472984	0.911857
O210	O	0.612691	0.027016	1.411857
N211	N	0.013602	-0.542269	1.067803
N212	N	0.513602	-0.042269	1.567803
C213	C	0.031188	-0.423114	0.392334
C214	C	0.531188	0.076886	0.892334
C215	C	0.132194	-0.524016	0.392223
C216	C	0.632194	-0.024016	0.892223
C217	C	0.072056	-0.584366	0.512840
C218	C	0.572056	-0.084366	1.012840
C219	C	-0.028950	-0.483464	0.512950
C220	C	0.471050	0.016536	1.012950
C221	C	0.551868	-0.563965	0.532655
C222	C	1.051868	-0.063965	1.032655
C223	C	0.551766	-0.563697	0.431617
C224	C	1.051766	-0.063697	0.931617
C225	C	0.551623	-0.443070	0.371586
C226	C	1.051623	0.056930	0.871586
C227	C	0.551728	-0.443339	0.472623
C228	C	1.051728	0.056661	0.972623
C229	C	0.132090	-0.003555	0.392006
C230	C	0.632090	0.496445	0.892006
C231	C	0.031035	-0.003698	0.392374
C232	C	0.531035	0.496302	0.892374
C233	C	-0.028947	-0.003703	0.512961
C234	C	0.471053	0.496297	1.012961
C235	C	0.072143	-0.003661	0.512626
C236	C	0.572143	0.496339	1.012626
C237	C	-0.008408	-0.423209	0.952430
C238	C	0.491592	0.076791	1.452430
C239	C	-0.008128	-0.524272	0.952385
C240	C	0.491872	-0.024272	1.452385
C241	C	0.112464	-0.584336	0.952374
C242	C	0.612464	-0.084336	1.452374
C243	C	0.112190	-0.483267	0.952401
C244	C	0.612190	0.016733	1.452401
H245	H	0.050098	-0.392105	0.730957
H246	H	0.550098	0.107895	1.230957
C247	C	0.263513	-0.284665	0.501541
C248	C	0.763513	0.215335	1.001541
C249	C	0.230346	-0.309856	0.526443
C250	C	0.730346	0.190144	1.026443
H251	H	0.246185	-0.250872	0.496640
H252	H	0.746185	0.249128	0.996640
H253	H	0.283399	-0.289395	0.470871
H254	H	0.783399	0.210605	0.970871
H255	H	0.283445	-0.296639	0.520227
H256	H	0.783445	0.203361	1.020227
H257	H	0.210416	-0.297884	0.507755
H258	H	0.710416	0.202116	1.007755
H259	H	0.210452	-0.305123	0.557117
H260	H	0.710452	0.194877	1.057117
H261	H	0.169160	-0.531297	0.362501
H262	H	0.669160	-0.031297	0.862501
H263	H	0.142219	-0.621297	0.952354
H264	H	0.642219	-0.121297	1.452354
C265	C	0.093354	-0.670833	0.536350
C266	C	0.593354	-0.170833	1.036350
C267	C	0.081977	-0.634310	0.552899
C268	C	0.581977	-0.134310	1.052899
H269	H	0.099476	-0.701666	0.561083
H270	H	0.599476	-0.201666	1.061083
H271	H	0.121544	-0.670691	0.507994
H272	H	0.621544	-0.170691	1.007994
H273	H	0.066755	-0.664914	0.528758
H274	H	0.566755	-0.164914	1.028758
H275	H	0.108578	-0.640227	0.560488
H276	H	0.608578	-0.140227	1.060488
H277	H	0.053784	-0.634453	0.581264
H278	H	0.553784	-0.134453	1.081264
C279	C	-0.072494	-0.045400	0.593976
C280	C	0.427506	0.454600	1.093976
C281	C	-0.078826	-0.003715	0.553140
C282	C	0.421174	0.496285	1.053140
H283	H	-0.103289	-0.045407	0.618778
H284	H	0.396711	0.454593	1.118778
H285	H	-0.052000	-0.045386	0.605731
H286	H	0.448000	0.454614	1.105731
H287	H	-0.057907	-0.073678	0.585113
H288	H	0.442093	0.426322	1.085113
H289	H	-0.093411	0.024563	0.562002
H290	H	0.406589	0.524563	1.062002
H291	H	-0.099329	-0.003725	0.541383
H292	H	0.400671	0.496275	1.041383
H293	H	-0.037749	-0.531650	0.952352
H294	H	0.462251	-0.031650	1.452352
H295	H	-0.097137	-0.782089	0.407066
H296	H	0.402863	-0.282089	0.907066
C297	C	-0.109010	-0.426073	0.535653
C298	C	0.390990	0.073927	1.035653
C299	C	-0.078852	-0.473640	0.553077
C300	C	0.421148	0.026360	1.053077
H301	H	-0.139816	-0.420007	0.560428
H302	H	0.360184	0.079993	1.060428
H303	H	-0.113277	-0.422411	0.507959
H304	H	0.386723	0.077589	1.007959
H305	H	-0.094391	-0.403539	0.526762
H306	H	0.405609	0.096461	1.026762
H307	H	-0.093469	-0.496174	0.561965
H308	H	0.406531	0.003826	1.061965
H309	H	-0.074586	-0.477306	0.580779
H310	H	0.425414	0.022694	1.080779
C311	C	0.551961	-0.586774	0.612721
C312	C	1.051961	-0.086774	1.112721
C313	C	0.551942	-0.604140	0.582535
C314	C	1.051942	-0.104140	1.082535
H315	H	0.552010	-0.611578	0.643513
H316	H	1.052010	-0.111578	1.143513
H317	H	0.523668	-0.559085	0.617018
H318	H	1.023668	-0.059085	1.117018
H319	H	0.580223	-0.577889	0.598107
H320	H	1.080223	-0.077889	1.098107
H321	H	0.523678	-0.613021	0.597147
H322	H	1.023678	-0.113021	1.097147
H323	H	0.580238	-0.631837	0.578240
H324	H	1.080238	-0.131837	1.078240
H325	H	0.141823	-0.475877	0.952395
H326	H	0.641823	0.024123	1.452395
C327	C	0.551716	-0.586140	0.374076
C328	C	1.051716	-0.086140	0.874076
C329	C	0.551779	-0.603713	0.421648
C330	C	1.051779	-0.103713	0.921648
H331	H	0.551721	-0.610844	0.367924
H332	H	1.051721	-0.110844	0.867924
H333	H	0.579968	-0.577237	0.351566
H334	H	1.079968	-0.077237	0.851566
H335	H	0.523412	-0.558426	0.370477
H336	H	1.023412	-0.058426	0.870477
H337	H	0.580085	-0.631425	0.425246
H338	H	1.080085	-0.131425	0.925246
H339	H	0.523524	-0.612623	0.444164
H340	H	1.023524	-0.112623	0.944164
H341	H	0.080878	-0.361206	0.638363
H342	H	0.580878	0.138794	1.138363
H343	H	0.551560	-0.413310	0.334638
H344	H	1.051560	0.086690	0.834638
H345	H	0.079554	-0.003651	0.542242
H346	H	0.579554	0.496349	1.042242
C347	C	0.551774	-0.420895	0.530165
C348	C	1.051774	0.079105	1.030165
C349	C	0.551713	-0.403323	0.482592
C350	C	1.051713	0.096677	0.982592
H351	H	0.551761	-0.396189	0.536320
H352	H	1.051761	0.103811	1.036320
H353	H	0.580075	-0.448604	0.533765
H354	H	1.080075	0.051396	1.033765
H355	H	0.523520	-0.429802	0.552676
H356	H	1.023520	0.070198	1.052676
H357	H	0.579969	-0.394419	0.460081
H358	H	1.079969	0.105581	0.960081
H359	H	0.523409	-0.375605	0.478989
H360	H	1.023409	0.124395	0.978989
H361	H	0.201378	-0.467681	0.730833
H362	H	0.701378	0.032319	1.230833
C363	C	-0.031218	-0.343119	0.952457
C364	C	0.468782	0.156881	1.452457
C365	C	-0.048576	-0.373313	0.952449
C366	C	0.451424	0.126687	1.452449
H367	H	-0.056018	-0.312317	0.952472
H368	H	0.443982	0.187683	1.452472
H369	H	-0.003523	-0.338845	0.924177
H370	H	0.496477	0.161155	1.424177
H371	H	-0.022348	-0.357716	0.980734
H372	H	0.477652	0.142284	1.480734
H373	H	-0.057443	-0.358718	0.924170
H374	H	0.442557	0.141282	1.424170
H375	H	-0.076280	-0.377585	0.980732
H376	H	0.423720	0.122415	1.480732
H377	H	0.168963	-0.003318	0.362168
H378	H	0.668963	0.496682	0.862168
C379	C	-0.026543	-0.003754	0.369991
C380	C	0.473457	0.496246	0.869991
C381	C	0.021040	-0.003728	0.352396
C382	C	0.521040	0.496272	0.852396
H383	H	-0.032709	-0.003781	0.345312
H384	H	0.467291	0.496219	0.845312
H385	H	-0.049035	0.024527	0.378860
H386	H	0.450965	0.524527	0.878860
H387	H	-0.030151	-0.032032	0.397730
H388	H	0.469849	0.467968	0.897730
H389	H	0.024647	0.024552	0.324659
H390	H	0.524647	0.524552	0.824659
H391	H	0.043539	-0.032012	0.343520
H392	H	0.543539	0.467988	0.843520
H393	H	0.080840	-0.361208	0.594989
H394	H	0.580840	0.138792	1.094989
C395	C	0.272016	-0.469650	0.664103
C396	C	0.772016	0.030350	1.164103
C397	C	0.246456	-0.440300	0.630951
C398	C	0.746456	0.059700	1.130951
H399	H	0.306065	-0.478003	0.646761
H400	H	0.806065	0.021997	1.146761
H401	H	0.263667	-0.498515	0.684012
H402	H	0.763667	0.001485	1.184012
H403	H	0.263657	-0.452332	0.684013
H404	H	0.763657	0.047668	1.184013
H405	H	0.254812	-0.457620	0.611043
H406	H	0.754812	0.042380	1.111043
H407	H	0.254809	-0.411431	0.611033
H408	H	0.754809	0.088569	1.111033
H409	H	0.201155	-0.467643	0.488446
H410	H	0.701155	0.032357	0.988446
C411	C	0.010140	-0.359245	0.597046
C412	C	0.510140	0.140755	1.097046
C413	C	0.035648	-0.388579	0.567676
C414	C	0.535648	0.111421	1.067676
H415	H	-0.023916	-0.350897	0.605444
H416	H	0.476084	0.149103	1.105444
H417	H	0.018484	-0.330376	0.579727
H418	H	0.518484	0.169624	1.079727
H419	H	0.018548	-0.376572	0.625888
H420	H	0.518548	0.123428	1.125888
H421	H	0.027243	-0.371251	0.538832
H422	H	0.527243	0.128749	1.038832
H423	H	0.027300	-0.417452	0.584995
H424	H	0.527300	0.082548	1.084995
H425	H	0.237680	-0.473893	0.585645
H426	H	0.737680	0.026107	1.085645
C427	C	0.267419	-0.422926	0.464979
C428	C	0.767419	0.077074	0.964979
C429	C	0.246347	-0.440258	0.515749
C430	C	0.746347	0.059742	1.015749
H431	H	0.301474	-0.431270	0.456583
H432	H	0.801474	0.068730	0.956583
H433	H	0.253051	-0.388491	0.453265
H434	H	0.753051	0.111509	0.953265
H435	H	0.262029	-0.437269	0.450657
H436	H	0.762029	0.062731	0.950657
H437	H	0.251734	-0.425912	0.530070
H438	H	0.751734	0.074088	1.030070
H439	H	0.260719	-0.474699	0.527467
H440	H	0.760719	0.025301	1.027467
C441	C	0.304393	-0.544123	0.581676
C442	C	0.804393	-0.044123	1.081676
C443	C	0.337557	-0.518927	0.556773
C444	C	0.837557	-0.018927	1.056773
H445	H	0.321724	-0.577916	0.586578
H446	H	0.821724	-0.077916	1.086578
H447	H	0.284463	-0.532152	0.562994
H448	H	0.784463	-0.032152	1.062994
H449	H	0.284506	-0.539393	0.612350
H450	H	0.784506	-0.039393	1.112350
H451	H	0.357442	-0.523654	0.526098
H452	H	0.857442	-0.023654	1.026098
H453	H	0.357496	-0.530902	0.575455
H454	H	0.857496	-0.030902	1.075455
H455	H	0.330218	-0.354891	0.497577
H456	H	0.830218	0.145109	0.997577
H457	H	0.194180	-0.317769	0.481510
H458	H	0.694180	0.182231	0.981510
C459	C	0.196103	-0.251053	0.410839
C460	C	0.696103	0.248947	0.910839
C461	C	0.166763	-0.217885	0.436377
C462	C	0.666763	0.282115	0.936377
H463	H	0.204442	-0.233722	0.376786
H464	H	0.704442	0.266278	0.876786
H465	H	0.178792	-0.270968	0.419218
H466	H	0.678792	0.229032	0.919218
H467	H	0.224980	-0.270958	0.419187
H468	H	0.724980	0.229042	0.919187
H469	H	0.137885	-0.197982	0.428032
H470	H	0.637885	0.302018	0.928032
H471	H	0.184075	-0.197961	0.427994
H472	H	0.684075	0.302039	0.927994
H473	H	0.118680	-0.317820	0.632757
H474	H	0.618680	0.182180	1.132757
C475	C	0.104983	-0.230267	0.640689
C476	C	0.604983	0.269733	1.140689
C477	C	0.079415	-0.217939	0.611374
C478	C	0.579415	0.282061	1.111374
H479	H	0.085081	-0.212955	0.663207
H480	H	0.585081	0.287045	1.163207
H481	H	0.133826	-0.221886	0.620755
H482	H	0.633826	0.278114	1.120755
H483	H	0.113373	-0.264323	0.657994
H484	H	0.613373	0.235677	1.157994
H485	H	0.071028	-0.183884	0.594067
H486	H	0.571028	0.316116	1.094067
H487	H	0.050563	-0.226317	0.631311
H488	H	0.550563	0.273683	1.131311
C489	C	-0.092566	-0.462112	0.199745
C490	C	0.407434	0.037888	0.699745
C491	C	-0.063180	-0.487658	0.166583
C492	C	0.436820	0.012342	0.666583
H493	H	-0.100908	-0.428059	0.182411
H494	H	0.399092	0.071941	0.682411
H495	H	-0.075286	-0.470491	0.219697
H496	H	0.424714	0.029509	0.719697
H497	H	-0.121439	-0.470456	0.219612
H498	H	0.378561	0.029544	0.719612
H499	H	-0.034305	-0.479316	0.146719
H500	H	0.465695	0.020684	0.646719
H501	H	-0.080460	-0.479275	0.146623
H502	H	0.419540	0.020725	0.646623
H503	H	-0.090673	-0.532769	0.266460
H504	H	0.409327	-0.032769	0.766460
H505	H	0.015877	-0.653227	0.173952
H506	H	0.515877	-0.153227	0.673952
H507	H	-0.090726	-0.532768	0.309877
H508	H	0.409274	-0.032768	0.809877
C509	C	0.017763	-0.723886	0.240670
C510	C	0.517763	-0.223886	0.740670
C511	C	-0.011615	-0.698339	0.273831
C512	C	0.488385	-0.198339	0.773831
H513	H	0.026091	-0.757939	0.258005
H514	H	0.526091	-0.257939	0.758005
H515	H	0.046639	-0.715554	0.220808
H516	H	0.546639	-0.215554	0.720808
H517	H	0.000479	-0.715496	0.220713
H518	H	0.500479	-0.215496	0.720713
H519	H	0.005670	-0.706727	0.293785
H520	H	0.505670	-0.206727	0.793785
H521	H	-0.040496	-0.706675	0.293701
H522	H	0.459504	-0.206675	0.793701
C523	C	-0.263229	-0.486080	0.300394
C524	C	0.236771	0.013920	0.800394
C525	C	-0.233896	-0.531193	0.293193
C526	C	0.266104	-0.031193	0.793193
H527	H	-0.280504	-0.466156	0.277841
H528	H	0.219496	0.033844	0.777841
H529	H	-0.243311	-0.470528	0.295526
H530	H	0.256689	0.029472	0.795526
H531	H	-0.285771	-0.490961	0.332696
H532	H	0.214229	0.009039	0.832696
H533	H	-0.211351	-0.526312	0.260891
H534	H	0.288649	-0.026312	0.760891
H535	H	-0.253816	-0.546748	0.298056
H536	H	0.246184	-0.046748	0.798056
C537	C	-0.092683	-0.462102	0.307890
C538	C	0.407317	0.037898	0.807890
C539	C	-0.063403	-0.487649	0.337322
C540	C	0.436597	0.012351	0.837322
H541	H	-0.101010	-0.428049	0.299500
H542	H	0.398990	0.071951	0.799500
H543	H	-0.121562	-0.470420	0.325161
H544	H	0.378438	0.029580	0.825161
H545	H	-0.075328	-0.470506	0.279046
H546	H	0.424672	0.029494	0.779046
H547	H	-0.080760	-0.479248	0.366168
H548	H	0.419240	0.020752	0.866168
H549	H	-0.034519	-0.479327	0.320051
H550	H	0.465481	0.020673	0.820051
H551	H	0.015526	-0.653210	0.416597
H552	H	0.515526	-0.153210	0.916597
H553	H	-0.134277	-0.646110	0.423254
H554	H	0.365723	-0.146110	0.923254
C555	C	-0.029154	-0.719449	0.439890
C556	C	0.470846	-0.219449	0.939890
C557	C	-0.011785	-0.698327	0.389129
C558	C	0.488215	-0.198327	0.889129
H559	H	-0.020804	-0.753499	0.448244
H560	H	0.479196	-0.253499	0.948244
H561	H	-0.063589	-0.705083	0.451578
H562	H	0.436411	-0.205083	0.951578
H563	H	-0.014842	-0.714095	0.454272
H564	H	0.485158	-0.214095	0.954272
H565	H	-0.026100	-0.703678	0.374748
H566	H	0.473900	-0.203678	0.874748
H567	H	0.022656	-0.712697	0.377436
H568	H	0.522656	-0.212697	0.877436
C569	C	0.065739	-0.694748	0.270584
C570	C	0.565739	-0.194748	0.770584
C571	C	0.031249	-0.682376	0.312367
C572	C	0.531249	-0.182376	0.812367
H573	H	0.088004	-0.677460	0.254164
H574	H	0.588004	-0.177460	0.754164
H575	H	0.049640	-0.686368	0.249542
H576	H	0.549640	-0.186368	0.749542
H577	H	0.082971	-0.728809	0.279712
H578	H	0.582971	-0.228809	0.779712
H579	H	0.014015	-0.648316	0.303239
H580	H	0.514015	-0.148316	0.803239
H581	H	0.047350	-0.690752	0.333413
H582	H	0.547350	-0.190752	0.833413
C583	C	0.084550	-0.818893	0.320563
C584	C	0.584550	-0.318893	0.820563
C585	C	0.066888	-0.789533	0.348130
C586	C	0.566888	-0.289533	0.848130
H587	H	0.118332	-0.836245	0.315705
H588	H	0.618332	-0.336245	0.815705
H589	H	0.079863	-0.798982	0.289875
H590	H	0.579863	-0.298982	0.789875
H591	H	0.067436	-0.841370	0.337418
H592	H	0.567436	-0.341370	0.837418
H593	H	0.083999	-0.767054	0.331273
H594	H	0.583999	-0.267054	0.831273
H595	H	0.071578	-0.809446	0.378823
H596	H	0.571578	-0.309446	0.878823
H597	H	-0.226875	-0.615140	0.453976
H598	H	0.273125	-0.115140	0.953976
C599	C	-0.157624	-0.694516	0.355390
C600	C	0.342376	-0.194516	0.855390
C601	C	-0.142119	-0.682194	0.378193
C602	C	0.357881	-0.182194	0.878193
H603	H	-0.191404	-0.677159	0.360234
H604	H	0.308596	-0.177159	0.860234
H605	H	-0.152217	-0.728558	0.369007
H606	H	0.347783	-0.228558	0.869007
H607	H	-0.139772	-0.686179	0.321461
H608	H	0.360228	-0.186179	0.821461
H609	H	-0.159969	-0.690534	0.412123
H610	H	0.340031	-0.190534	0.912123
H611	H	-0.147531	-0.648145	0.364578
H612	H	0.352469	-0.148145	0.864578
C613	C	-0.139045	-0.584313	0.236472
C614	C	0.360955	-0.084313	0.736472
C615	C	-0.126743	-0.567023	0.257644
C616	C	0.373257	-0.067023	0.757644
H617	H	-0.121677	-0.575974	0.202428
H618	H	0.378323	-0.075974	0.702428
H619	H	-0.173082	-0.569943	0.241797
H620	H	0.326918	-0.069943	0.741797
H621	H	-0.130711	-0.618751	0.250826
H622	H	0.369289	-0.118751	0.750826
H623	H	-0.135080	-0.532585	0.243292
H624	H	0.364920	-0.032585	0.743292
H625	H	-0.092699	-0.581392	0.252315
H626	H	0.407301	-0.081392	0.752315
C627	C	-0.026314	-0.343085	0.369781
C628	C	0.473686	0.156915	0.869781
C629	C	0.021263	-0.373172	0.352272
C630	C	0.521263	0.126828	0.852272
H631	H	-0.032441	-0.312254	0.345047
H632	H	0.467559	0.187746	0.845047
H633	H	-0.029945	-0.338858	0.397484
H634	H	0.470055	0.161142	0.897484
H635	H	-0.048821	-0.357736	0.378679
H636	H	0.451179	0.142264	0.878679
H637	H	0.043771	-0.358522	0.343378
H638	H	0.543771	0.141478	0.843378
H639	H	0.024899	-0.377397	0.324561
H640	H	0.524899	0.122603	0.824561
