data_functionalizedCrystal
_audit_creation_method	'MofGen! by Chris Wilmer'
_symmetry_space_group_name_H-M	'P1'
_symmetry_Int_Tables_number	1
_symmetry_cell_setting	triclinic
loop_
_symmetry_equiv_pos_as_xyz
  x,y,z
_cell_length_a	10.654550
_cell_length_b	16.992695
_cell_length_c	9.130313
_cell_angle_alpha	89.995176
_cell_angle_beta	89.999724
_cell_angle_gamma	87.576577
loop_
_atom_site_label
_atom_site_type_symbol
_atom_site_fract_x
_atom_site_fract_y
_atom_site_fract_z
O1	O	1.677362	0.110190	-0.121691
O2	O	1.312790	0.120688	-0.121718
O3	O	1.493615	0.001288	-0.121693
O4	O	1.496538	0.229590	-0.121716
O5	O	1.493601	0.001285	0.121906
O6	O	1.312777	0.120685	0.121881
O7	O	1.677348	0.110186	0.121908
Cu8	Cu	1.495061	0.115435	0.144137
Cu9	Cu	1.495077	0.115439	-0.143947
O10	O	1.496524	0.229586	0.121883
C11	C	1.265919	0.119916	0.000078
C12	C	1.126277	0.117609	0.000068
C13	C	1.052866	0.187910	0.000065
C14	C	0.921658	0.185738	0.000091
C15	C	0.937282	0.042959	0.000116
C16	C	1.068488	0.045132	0.000101
C17	C	1.489848	-0.027946	0.000106
C18	C	1.478628	-0.115051	0.000105
C19	C	1.586879	-0.164703	0.000114
C20	C	1.576330	-0.246547	0.000099
C21	C	1.457529	-0.278738	0.000086
C22	C	1.349270	-0.229080	0.000072
C23	C	1.359820	-0.147237	0.000076
C24	C	1.413802	-0.522573	0.000062
C25	C	1.403260	-0.604422	0.000062
C26	C	1.630321	-0.621884	0.000087
C27	C	1.640861	-0.540039	0.000100
C28	C	1.532602	-0.490388	0.000079
N29	N	1.446743	-0.362395	0.000075
N30	N	1.543389	-0.406733	0.000079
C31	C	1.724220	0.110959	0.000108
C32	C	1.863862	0.113265	0.000109
C33	C	1.500291	0.258821	0.000080
C34	C	1.511510	0.345926	0.000072
N35	N	1.495059	0.115432	0.346759
N36	N	1.495089	0.115437	-0.346570
C37	C	1.575159	0.062584	0.423422
C38	C	1.575171	0.062584	0.576759
C39	C	1.414980	0.168287	0.576756
C40	C	1.414963	0.168282	0.423422
H41	H	1.128262	-0.012119	0.000107
C42	C	1.717571	-0.129302	0.000129
N43	N	1.816011	-0.102640	0.000134
H44	H	1.664480	-0.286971	0.000110
H45	H	1.271671	-0.106811	0.000068
C46	C	1.326903	0.226458	0.339088
N47	N	1.260599	0.270286	0.275568
C48	C	1.663257	0.004441	0.339098
N49	N	1.729610	-0.039357	0.275589
C50	C	1.663276	0.004441	0.661081
N51	N	1.729637	-0.039358	0.724592
H52	H	1.718458	-0.662318	0.000102
H53	H	1.349769	0.211318	0.639191
C54	C	1.771551	-0.504637	0.000117
N55	N	1.869989	-0.477971	0.000136
H56	H	1.099913	0.246926	0.000049
H57	H	0.861892	0.242984	0.000091
C58	C	1.294712	-0.467968	0.000030
N59	N	1.205008	-0.426835	0.000002
C60	C	1.272564	-0.639829	0.000036
N61	N	1.174128	-0.666498	0.000016
H62	H	0.890215	-0.016050	0.000152
H63	H	1.252539	-0.255296	0.000051
