data_functionalizedCrystal
_audit_creation_method	'MofGen! by Chris Wilmer'
_symmetry_space_group_name_H-M	'P1'
_symmetry_Int_Tables_number	1
_symmetry_cell_setting	triclinic
loop_
_symmetry_equiv_pos_as_xyz
  x,y,z
_cell_length_a	12.837932
_cell_length_b	12.811415
_cell_length_c	9.198806
_cell_angle_alpha	84.565959
_cell_angle_beta	89.996231
_cell_angle_gamma	89.412215
loop_
_atom_site_label
_atom_site_type_symbol
_atom_site_fract_x
_atom_site_fract_y
_atom_site_fract_z
O1	O	1.376632	0.272984	-0.156879
O2	O	1.074768	0.259497	-0.155104
O3	O	1.233294	0.114208	-0.135942
O4	O	1.218107	0.418273	-0.176041
O5	O	1.233282	0.114206	0.105843
O6	O	1.074756	0.259496	0.086682
O7	O	1.376620	0.272982	0.084906
Cu8	Cu	1.225687	0.266239	0.107871
Cu9	Cu	1.225702	0.266241	-0.178068
O10	O	1.218094	0.418272	0.065744
C11	C	1.036122	0.254941	-0.033611
C12	C	0.920986	0.241354	-0.031820
C13	C	0.770653	0.127793	-0.016842
C14	C	0.878834	0.140553	-0.018525
C15	C	0.854948	0.329403	-0.043429
C16	C	0.746767	0.316643	-0.041746
C17	C	0.704624	0.215835	-0.028454
C18	C	0.596440	0.203077	-0.026781
C19	C	0.572556	0.391926	-0.051675
C20	C	0.680737	0.404686	-0.053358
C21	C	1.232437	0.075018	-0.009884
C22	C	1.229888	-0.041755	0.005506
C23	C	1.225093	-0.261173	-0.229198
C24	C	1.222698	-0.370891	-0.214744
C25	C	1.222695	-0.370913	0.048866
C26	C	1.225090	-0.261194	0.034412
C27	C	1.226291	-0.206328	-0.104624
C28	C	1.228693	-0.096608	-0.119077
C29	C	1.228683	-0.096631	0.144532
C30	C	1.226288	-0.206350	0.158986
C31	C	1.415266	0.277539	-0.036590
C32	C	1.530402	0.291126	-0.038390
C33	C	1.218952	0.457462	-0.060317
C34	C	1.221501	0.574235	-0.075717
N35	N	1.225684	0.266238	0.308985
N36	N	1.225713	0.266235	-0.379182
C37	C	1.292245	0.204939	0.389266
C38	C	1.292262	0.204937	0.556679
H39	H	0.736340	0.045711	-0.006033
O40	O	0.942828	0.054917	-0.007302
C41	C	0.882427	-0.036789	0.004829
H42	H	0.801812	-0.018202	-0.043394
H43	H	0.922038	-0.099141	-0.057148
H44	H	0.874591	-0.067181	0.124833
O45	O	1.157684	0.328947	0.538724
C46	C	1.095792	0.385919	0.630881
H47	H	1.138265	0.391329	0.738694
H48	H	1.080581	0.468201	0.575945
H49	H	1.018483	0.344299	0.652522
H50	H	1.229662	-0.051965	0.245970
O51	O	0.555377	0.105210	-0.013681
C52	C	0.493530	0.092170	0.113279
H53	H	0.466949	0.172240	0.144463
H54	H	0.422514	0.043232	0.091570
H55	H	0.541112	0.050493	0.206463
O56	O	0.896068	0.427245	-0.056355
C57	C	1.005711	0.419621	-0.055285
H58	H	1.030752	0.340224	-0.090621
H59	H	1.039217	0.484789	-0.134033
H60	H	1.035822	0.427684	0.059661
H61	H	1.168706	0.318712	0.364192
O62	O	1.226458	-0.207833	-0.364219
C63	C	1.317545	-0.147266	-0.380056
H64	H	1.379512	-0.182375	-0.300623
H65	H	1.347702	-0.146996	-0.496657
H66	H	1.299078	-0.063454	-0.355696
H67	H	0.715066	0.486761	-0.064175
H68	H	0.518782	0.463617	-0.061131
H69	H	1.229674	-0.051937	-0.232287
O70	O	1.360097	0.142314	0.323228
C71	C	1.304057	0.072140	0.244438
H72	H	1.223141	0.105997	0.217374
H73	H	1.347156	0.059896	0.138934
H74	H	1.296560	-0.006217	0.313289
O75	O	1.221573	-0.424006	-0.335906
C76	C	1.223110	-0.352046	-0.461714
H77	H	1.257623	-0.274907	-0.433247
H78	H	1.272692	-0.385377	-0.549522
H79	H	1.140261	-0.337667	-0.504106
H80	H	1.349252	0.152461	0.625686
H81	H	1.221709	-0.415603	0.162063
H82	H	1.225307	-0.251036	0.272186
