data_functionalizedCrystal
_audit_creation_method	'MofGen! by Chris Wilmer'
_symmetry_space_group_name_H-M	'P1'
_symmetry_Int_Tables_number	1
_symmetry_cell_setting	triclinic
loop_
_symmetry_equiv_pos_as_xyz
  x,y,z
_cell_length_a	19.121063
_cell_length_b	11.169417
_cell_length_c	11.169409
_cell_angle_alpha	90.019513
_cell_angle_beta	87.599247
_cell_angle_gamma	92.470085
loop_
_atom_site_label
_atom_site_type_symbol
_atom_site_fract_x
_atom_site_fract_y
_atom_site_fract_z
Zn1	Zn	-0.279532	1.814442	0.698841
Zn2	Zn	0.220468	2.314442	1.198841
Zn3	Zn	-0.397005	1.805708	0.506692
Zn4	Zn	0.102995	2.305708	1.006692
Zn5	Zn	-0.279576	1.613725	0.498179
Zn6	Zn	0.220424	2.113725	0.998179
Zn7	Zn	-0.396949	1.605116	0.707334
Zn8	Zn	0.103051	2.105116	1.207334
O9	O	-0.338266	1.709748	0.602761
O10	O	0.161734	2.209748	1.102761
O11	O	-0.295121	1.981233	0.673360
O12	O	0.204879	2.481233	1.173360
O13	O	-0.381470	1.780188	0.337616
O14	O	0.118530	2.280188	0.837616
O15	O	-0.181286	1.647608	0.517680
O16	O	0.318714	2.147608	1.017680
O17	O	-0.381428	1.974816	0.532189
O18	O	0.118572	2.474816	1.032189
O19	O	-0.181254	1.795075	0.665105
O20	O	0.318746	2.295075	1.165105
O21	O	-0.295195	1.639139	0.331362
O22	O	0.204805	2.139139	0.831362
O23	O	-0.295140	1.444633	0.525916
O24	O	0.204860	1.944633	1.025916
O25	O	-0.381332	1.632936	0.874154
O26	O	0.118668	2.132936	1.374154
O27	O	-0.381374	1.438309	0.679581
O28	O	0.118626	1.938309	1.179581
O29	O	-0.295066	1.786727	0.867914
O30	O	0.204934	2.286727	1.367914
O31	O	-0.495282	1.771841	0.540424
O32	O	0.004718	2.271841	1.040424
O33	O	-0.495241	1.624467	0.687835
O34	O	0.004759	2.124467	1.187835
C35	C	-0.338256	1.397924	0.602747
C36	C	0.161744	1.897924	1.102747
C37	C	-0.338269	1.264523	0.602770
C38	C	0.161731	1.764523	1.102770
C39	C	-0.520745	1.696304	0.616001
C40	C	-0.020745	2.196304	1.116001
C41	C	-0.598811	1.690663	0.621706
C42	C	-0.098811	2.190663	1.121706
C43	C	-0.635484	1.764802	0.547700
C44	C	-0.135484	2.264802	1.047700
C45	C	-0.708835	1.759504	0.553072
C46	C	-0.208835	2.259504	1.053072
C47	C	-0.745511	1.680059	0.632444
C48	C	-0.245511	2.180059	1.132444
C49	C	-0.708832	1.605917	0.706458
C50	C	-0.208832	2.105917	1.206458
C51	C	-0.635483	1.611222	0.701091
C52	C	-0.135483	2.111222	1.201091
C53	C	-0.966979	1.660204	0.652490
C54	C	-0.466979	2.160204	1.152490
C55	C	-1.040334	1.654902	0.657849
C56	C	-0.540334	2.154902	1.157849
C57	C	-1.040332	1.808491	0.504464
C58	C	-0.540332	2.308491	1.004464
C59	C	-0.966981	1.813784	0.499099
C60	C	-0.466981	2.313784	0.999099
C61	C	-0.930309	1.739647	0.573117
C62	C	-0.430309	2.239647	1.073117
C63	C	-0.820488	1.674639	0.637934
C64	C	-0.320488	2.174639	1.137934
C65	C	-0.855334	1.745074	0.567632
C66	C	-0.355334	2.245074	1.067632
C67	C	-0.155073	1.723276	0.589496
C68	C	0.344927	2.223276	1.089496
C69	C	-0.077008	1.729041	0.583843
C70	C	0.422992	2.229041	1.083843
C71	C	-0.338188	1.709846	0.915798
C72	C	0.161812	2.209846	1.415798
C73	C	-0.338154	1.709887	1.049196
C74	C	0.161846	2.209887	1.549196
C75	C	-0.338276	2.022789	0.602777
C76	C	0.161724	2.522789	1.102777
C77	C	-0.338280	2.156189	0.602783
C78	C	0.161720	2.656189	1.102783
C79	C	-0.338293	1.709723	0.290939
C80	C	0.161707	2.209723	0.790939
C81	C	-0.338128	1.709928	0.157527
C82	C	0.161872	2.209928	0.657527
H83	H	-0.605628	1.829489	0.483062
H84	H	-0.105628	2.329489	0.983062
C85	C	-0.926649	1.578635	0.733885
C86	C	-0.426649	2.078635	1.233885
H87	H	-0.958999	1.530550	0.781909
H88	H	-0.458999	2.030550	1.281909
H89	H	-0.897983	1.626576	0.784129
H90	H	-0.397983	2.126576	1.284129
H91	H	-0.898088	1.528430	0.685823
H92	H	-0.398088	2.028430	1.185823
C93	C	-0.749174	1.518527	0.793762
C94	C	-0.249174	2.018527	1.293762
H95	H	-0.798111	1.525975	0.786351
H96	H	-0.298111	2.025975	1.286351
H97	H	-0.737106	1.536919	0.873535
H98	H	-0.237106	2.036919	1.373535
H99	H	-0.737199	1.438760	0.775241
H100	H	-0.237199	1.938760	1.275241
H101	H	-1.070194	1.590223	0.722504
H102	H	-0.570194	2.090223	1.222504
C103	C	-1.080673	1.890043	0.423061
C104	C	-0.580673	2.390043	0.923061
H105	H	-1.129610	1.875516	0.437628
H106	H	-0.629610	2.375516	0.937628
H107	H	-1.068701	1.873391	0.341531
H108	H	-0.568701	2.373391	0.841531
H109	H	-1.068602	1.971550	0.439824
H110	H	-0.568602	2.471550	0.939824
C111	C	-0.749173	1.841051	0.471660
C112	C	-0.249173	2.341051	0.971660
H113	H	-0.716825	1.889113	0.423609
H114	H	-0.216825	2.389113	0.923609
H115	H	-0.777738	1.891260	0.519699
H116	H	-0.277738	2.391260	1.019699
H117	H	-0.777835	1.793083	0.421424
H118	H	-0.277835	2.293083	0.921424
C119	C	-0.595142	1.529672	0.782499
C120	C	-0.095142	2.029672	1.282499
H121	H	-0.627489	1.481591	0.830533
H122	H	-0.127489	1.981591	1.330533
H123	H	-0.566481	1.577634	0.832732
H124	H	-0.066481	2.077634	1.332732
H125	H	-0.566576	1.479462	0.734452
H126	H	-0.066576	1.979462	1.234452
H127	H	-0.937121	1.878474	0.434468
H128	H	-0.437121	2.378474	0.934468
H129	H	-0.825470	1.809762	0.503012
H130	H	-0.325470	2.309762	1.003012
H131	H	-0.850357	1.609952	0.702557
H132	H	-0.350357	2.109952	1.202557
