data_functionalizedCrystal
_audit_creation_method	'MofGen! by Chris Wilmer'
_symmetry_space_group_name_H-M	'P1'
_symmetry_Int_Tables_number	1
_symmetry_cell_setting	triclinic
loop_
_symmetry_equiv_pos_as_xyz
  x,y,z
_cell_length_a	16.992694
_cell_length_b	14.044220
_cell_length_c	16.053802
_cell_angle_alpha	92.799619
_cell_angle_beta	87.249047
_cell_angle_gamma	91.928550
loop_
_atom_site_label
_atom_site_type_symbol
_atom_site_fract_x
_atom_site_fract_y
_atom_site_fract_z
O1	O	1.057564	0.198305	-0.069327
O2	O	0.829125	0.196087	-0.069352
O3	O	0.939916	0.058952	-0.069331
O4	O	0.946774	0.335440	-0.069347
O5	O	0.933815	0.066468	0.069526
O6	O	0.823025	0.203602	0.069506
O7	O	1.051464	0.205821	0.069531
Zn8	Zn	0.936276	0.205905	0.091565
Zn9	Zn	0.944313	0.196003	-0.091386
O10	O	0.940673	0.342955	0.069511
C11	C	0.796663	0.196993	0.000074
C12	C	0.709024	0.188484	0.000065
C13	C	0.664526	0.270580	0.000061
C14	C	0.582179	0.262581	0.000073
C15	C	0.544333	0.172483	0.000083
C16	C	0.588837	0.090381	0.000090
C17	C	0.671182	0.098382	0.000084
C18	C	0.298414	0.139322	0.000107
C19	C	0.216063	0.131327	0.000111
C20	C	0.209412	0.303528	0.000096
C21	C	0.291759	0.311521	0.000085
C22	C	0.336255	0.229419	0.000096
N23	N	0.460161	0.164304	0.000093
N24	N	0.420425	0.237599	0.000092
C25	C	0.933863	0.027168	0.000098
C26	C	0.924909	-0.078736	0.000098
C27	C	0.908540	-0.272638	0.000084
C28	C	0.972046	-0.325460	0.000088
C29	C	0.962938	-0.433354	0.000080
C30	C	0.917647	-0.164734	0.000091
C31	C	1.083926	0.204915	0.000103
C32	C	1.171565	0.213424	0.000107
C33	C	0.946726	0.374740	0.000080
C34	C	0.955680	0.480643	0.000074
N35	N	0.930796	0.212662	0.216425
N36	N	0.949799	0.189239	-0.216245
C37	C	0.977958	0.154335	0.260127
C38	C	0.974132	0.159071	0.347533
C39	C	0.923149	0.222140	0.391235
C40	C	0.875982	0.280470	0.347526
C41	C	0.879804	0.275728	0.260122
C42	C	0.906453	0.242827	0.652642
C43	C	0.902637	0.247566	0.740052
C44	C	1.000787	0.126165	0.740053
C45	C	1.004608	0.121433	0.652647
C46	C	0.957438	0.179759	0.608946
N47	N	0.919240	0.226985	0.480578
N48	N	0.961343	0.174909	0.519604
H49	H	0.173174	0.370371	0.000089
N50	N	1.048829	-0.280532	0.000118
N51	N	1.066717	-0.223135	0.058662
H52	H	1.120942	-0.191399	0.058688
H53	H	0.322568	0.384887	0.000067
N54	N	0.850559	0.311992	0.784702
N55	N	0.877569	0.375705	0.833460
H56	H	0.840792	0.421204	0.864995
H57	H	0.868047	0.290320	0.617067
N58	N	0.831762	-0.317566	0.000070
N59	N	0.824381	-0.406421	0.000064
H60	H	0.770157	-0.438162	0.000057
H61	H	1.019477	0.102981	0.224551
N62	N	0.823901	0.344882	0.392177
N63	N	0.820495	0.349109	0.470216
H64	H	0.783712	0.394602	0.501750
N65	N	0.831620	0.335311	0.215491
N66	N	0.786101	0.391619	0.254518
H67	H	0.752067	0.433699	0.222999
N68	N	1.022297	0.099456	0.392152
N69	N	1.015473	0.010768	0.382372
H70	H	1.049490	-0.031348	0.413876
N71	N	0.703169	0.362621	0.000043
N72	N	0.663425	0.435914	0.000041
H73	H	0.690714	0.500921	0.000031
N74	N	1.056836	0.057176	0.608022
N75	N	1.099039	0.005216	0.647053
H76	H	1.135983	-0.040099	0.615538
N77	N	0.536737	0.346451	0.000073
N78	N	0.570539	0.426889	0.000061
H79	H	0.538446	0.486127	0.000062
N80	N	0.716651	0.014533	0.000094
N81	N	0.760780	0.002963	0.058627
H82	H	0.792894	-0.056256	0.058638
H83	H	0.558015	0.017022	0.000110
N84	N	1.048949	0.066569	0.784693
N85	N	1.042131	-0.022123	0.774943
H86	H	1.076145	-0.064220	0.806470
N87	N	0.177412	0.039284	0.000135
N88	N	0.186269	-0.014297	0.058676
H89	H	0.158971	-0.079300	0.058693
N90	N	0.343848	0.055450	0.000115
N91	N	0.310043	-0.024987	0.000119
H92	H	0.342133	-0.084227	0.000123
