data_functionalizedCrystal
_audit_creation_method	'MofGen! by Chris Wilmer'
_symmetry_space_group_name_H-M	'P1'
_symmetry_Int_Tables_number	1
_symmetry_cell_setting	triclinic
loop_
_symmetry_equiv_pos_as_xyz
  x,y,z
_cell_length_a	16.109301
_cell_length_b	16.109301
_cell_length_c	14.586319
_cell_angle_alpha	89.994786
_cell_angle_beta	89.999213
_cell_angle_gamma	83.461481
loop_
_atom_site_label
_atom_site_type_symbol
_atom_site_fract_x
_atom_site_fract_y
_atom_site_fract_z
O1	O	1.103131	0.106866	-0.076185
O2	O	1.436464	0.440199	0.257148
O3	O	1.769797	0.773533	0.590481
O4	O	0.861069	0.120165	-0.076200
O5	O	1.194402	0.453499	0.257133
O6	O	1.527735	0.786832	0.590466
O7	O	0.988749	-0.007515	-0.076183
O8	O	1.322083	0.325818	0.257150
O9	O	1.655416	0.659151	0.590484
O10	O	0.975450	0.234547	-0.076203
O11	O	1.308783	0.567880	0.257131
O12	O	1.642117	0.901213	0.590464
O13	O	0.988741	-0.007517	0.076298
O14	O	1.322074	0.325816	0.409631
O15	O	1.655407	0.659150	0.742964
O16	O	0.861060	0.120164	0.076281
O17	O	1.194393	0.453497	0.409614
O18	O	1.527727	0.786830	0.742947
O19	O	1.103122	0.106864	0.076295
O20	O	1.436455	0.440198	0.409629
O21	O	1.769789	0.773531	0.742962
Cu22	Cu	0.982090	0.113514	0.090211
Cu23	Cu	1.315423	0.446847	0.423544
Cu24	Cu	1.648757	0.780180	0.756877
Cu25	Cu	0.982101	0.113516	-0.090115
Cu26	Cu	1.315434	0.446849	0.243218
Cu27	Cu	1.648767	0.780183	0.576551
O28	O	0.975441	0.234545	0.076278
O29	O	1.308775	0.567878	0.409612
O30	O	1.642108	0.901212	0.742945
C31	C	0.830090	0.119626	0.000038
C32	C	1.163423	0.452959	0.333372
C33	C	1.496756	0.786292	0.666705
C34	C	0.737794	0.118011	0.000033
C35	C	1.071128	0.451344	0.333366
C36	C	1.404461	0.784677	0.666700
C37	C	0.515522	0.190018	0.000038
C38	C	0.848855	0.523352	0.333371
C39	C	1.182188	0.856685	0.666704
C40	C	0.428801	0.188494	0.000044
C41	C	0.762135	0.521828	0.333377
C42	C	1.095468	0.855161	0.666710
C43	C	0.448676	0.037006	0.000052
C44	C	0.782009	0.370339	0.333386
C45	C	1.115342	0.703672	0.666719
C46	C	0.535394	0.038530	0.000053
C47	C	0.868728	0.371864	0.333386
C48	C	1.202061	0.705197	0.666719
C49	C	0.568815	0.115039	0.000041
C50	C	0.902148	0.448373	0.333374
C51	C	1.235482	0.781706	0.666708
C52	C	0.395376	0.111990	0.000046
C53	C	0.728709	0.445324	0.333380
C54	C	1.062042	0.778657	0.666713
C55	C	0.301350	0.110337	0.000053
C56	C	0.634683	0.443671	0.333386
C57	C	0.968016	0.777004	0.666720
C58	C	0.662847	0.116693	0.000036
C59	C	0.996180	0.450026	0.333369
C60	C	1.329514	0.783359	0.666703
C61	C	0.988206	-0.038491	0.000058
C62	C	1.321540	0.294842	0.333391
C63	C	1.654873	0.628176	0.666724
C64	C	0.986591	-0.130786	0.000059
C65	C	1.319925	0.202547	0.333392
C66	C	1.653258	0.535880	0.666726
C67	C	1.058599	-0.353059	0.000049
C68	C	1.391932	-0.019725	0.333382
C69	C	1.725266	0.313608	0.666716
C70	C	1.057075	-0.439779	0.000041
C71	C	1.390408	-0.106446	0.333375
C72	C	1.723742	0.226888	0.666708
C73	C	0.905586	-0.419905	0.000036
C74	C	1.238919	-0.086571	0.333369
C75	C	1.572253	0.246762	0.666702
C76	C	0.907111	-0.333186	0.000037
C77	C	1.240444	0.000147	0.333370
C78	C	1.573778	0.333481	0.666703
C79	C	0.983620	-0.299766	0.000048
C80	C	1.316953	0.033568	0.333381
C81	C	1.650287	0.366901	0.666715
C82	C	0.980571	-0.473205	0.000039
C83	C	1.313904	-0.139871	0.333373
C84	C	1.647238	0.193462	0.666706
C85	C	0.978918	-0.567231	0.000031
C86	C	1.312251	-0.233897	0.333364
C87	C	1.645585	0.099436	0.666698
C88	C	0.985273	-0.205734	0.000055
C89	C	1.318607	0.127600	0.333388
C90	C	1.651940	0.460933	0.666721
C91	C	1.134101	0.107404	0.000055
C92	C	1.467435	0.440737	0.333388
C93	C	1.800768	0.774071	0.666722
C94	C	1.226397	0.109019	0.000054
C95	C	1.559730	0.442352	0.333388
C96	C	1.893063	0.775686	0.666721
C97	C	0.975984	0.265521	0.000035
C98	C	1.309318	0.598854	0.333369
C99	C	1.642651	0.932187	0.666702
C100	C	0.977600	0.357816	0.000028
C101	C	1.310933	0.691149	0.333362
C102	C	1.644266	1.024483	0.666695
N103	N	0.982089	0.113512	0.217042
N104	N	1.315422	0.446845	0.550376
N105	N	1.648755	0.780178	0.883709
N106	N	0.982109	0.113511	-0.216947
N107	N	1.315442	0.446845	0.116386
N108	N	1.648775	0.780178	0.449719
C109	C	1.038644	0.056994	0.452057
C110	C	1.371978	0.390327	0.785390
C111	C	1.705311	0.723660	1.118723
C112	C	1.038647	0.056992	0.548038
C113	C	1.371980	0.390325	0.881371
C114	C	1.705314	0.723658	1.214704
C115	C	0.925547	0.170032	0.548032
C116	C	1.258880	0.503366	0.881365
C117	C	1.592213	0.836699	1.214699
C118	C	0.925541	0.170030	0.452052
C119	C	1.258874	0.503363	0.785386
C120	C	1.592208	0.836696	1.118719
C121	C	0.982095	0.113511	0.404067
C122	C	1.315428	0.446845	0.737401
C123	C	1.648761	0.780178	1.070734
C124	C	0.982103	0.113512	0.596028
C125	C	1.315436	0.446845	0.929361
C126	C	1.648769	0.780178	1.262695
C127	C	0.982105	0.113510	0.700095
C128	C	1.315438	0.446843	1.033428
C129	C	1.648772	0.780177	1.366762
C130	C	0.982092	0.113512	0.299993
C131	C	1.315425	0.446845	0.633327
C132	C	1.648758	0.780178	0.966660
H133	H	0.578788	-0.022530	0.000058
H134	H	0.912122	0.310803	0.333391
H135	H	1.245455	0.644136	0.666725
H136	H	1.084693	0.010972	0.412989
H137	H	1.418026	0.344305	0.746323
H138	H	1.751359	0.677638	1.079656
F139	F	0.865363	0.230182	0.599107
F140	F	1.198697	0.563516	0.932441
F141	F	1.532030	0.896849	1.265774
F142	F	1.098833	-0.003164	0.599108
F143	F	1.432166	0.330170	0.932442
F144	F	1.765500	0.663503	1.265775
F145	F	0.824164	-0.455481	0.000023
F146	F	1.157498	-0.122148	0.333356
F147	F	1.490831	0.211186	0.666690
F148	F	1.140026	-0.317493	0.000060
F149	F	1.473360	0.015840	0.333393
F150	F	1.806693	0.349173	0.666727
F151	F	0.827304	-0.276464	0.000029
F152	F	1.160637	0.056870	0.333362
F153	F	1.493970	0.390203	0.666696
F154	F	0.551087	0.271446	0.000029
F155	F	0.884421	0.604779	0.333362
F156	F	1.217754	0.938112	0.666696
F157	F	1.136878	-0.496495	0.000040
F158	F	1.470211	-0.163161	0.333374
F159	F	1.803545	0.170172	0.666707
F160	F	0.865347	0.230183	0.400975
F161	F	1.198680	0.563516	0.734308
F162	F	1.532013	0.896850	1.067641
H163	H	0.385413	0.249550	0.000043
H164	H	0.718746	0.582883	0.333376
H165	H	1.052080	0.916217	0.666710
H166	H	0.421454	-0.025285	0.000067
H167	H	0.754787	0.308048	0.333401
H168	H	1.088121	0.641381	0.666734
