data_functionalizedCrystal
_audit_creation_method	'MofGen! by Chris Wilmer'
_symmetry_space_group_name_H-M	'P1'
_symmetry_Int_Tables_number	1
_symmetry_cell_setting	triclinic
loop_
_symmetry_equiv_pos_as_xyz
  x,y,z
_cell_length_a	18.215407
_cell_length_b	16.120484
_cell_length_c	18.215399
_cell_angle_alpha	92.867230
_cell_angle_beta	89.983176
_cell_angle_gamma	92.926015
loop_
_atom_site_label
_atom_site_type_symbol
_atom_site_fract_x
_atom_site_fract_y
_atom_site_fract_z
Zn1	Zn	1.110191	-0.331886	-0.430959
Zn2	Zn	1.103863	-0.471313	-0.314128
Zn3	Zn	0.987128	-0.331919	-0.307908
Zn4	Zn	0.980849	-0.471261	-0.437151
O5	O	1.045508	-0.401595	-0.372536
O6	O	1.212335	-0.350389	-0.415473
O7	O	1.088358	-0.452858	-0.210320
O8	O	1.008729	-0.215249	-0.319036
O9	O	1.207687	-0.452826	-0.329638
O10	O	1.099142	-0.215225	-0.409441
O11	O	1.002593	-0.350446	-0.205750
O12	O	0.883312	-0.350395	-0.325040
O13	O	0.998027	-0.452737	-0.539312
O14	O	0.878698	-0.452769	-0.419995
O15	O	1.093054	-0.350339	-0.534763
O16	O	1.082269	-0.587972	-0.335642
O17	O	0.991891	-0.587933	-0.426026
C18	C	0.854302	-0.401580	-0.372515
C19	C	0.772503	-0.401594	-0.372524
C20	C	0.581922	-0.454984	-0.421911
C21	C	0.505063	-0.454987	-0.421920
C22	C	0.509845	-0.348220	-0.323179
C23	C	0.586703	-0.348214	-0.323173
C24	C	0.622739	-0.401601	-0.372539
C25	C	0.469023	-0.401610	-0.372553
C26	C	0.385689	-0.401612	-0.372563
C27	C	0.706078	-0.401597	-0.372530
C28	C	1.035732	-0.618203	-0.382197
C29	C	1.031617	-0.710869	-0.386355
C30	C	1.024109	-0.880530	-0.393960
C31	C	1.067038	-0.921819	-0.351125
C32	C	1.062861	-1.016224	-0.355356
C33	C	1.028286	-0.786116	-0.389729
C34	C	1.237460	-0.401610	-0.372559
C35	C	1.319259	-0.401616	-0.372568
C36	C	1.045546	-0.401528	-0.564487
C37	C	1.045562	-0.401500	-0.646284
C38	C	1.055342	-0.184141	-0.362854
C39	C	1.059533	-0.091475	-0.358728
C40	C	1.000946	-0.348138	-0.832098
C41	C	1.000959	-0.348121	-0.908956
C42	C	1.090270	-0.454762	-0.913704
C43	C	1.090252	-0.454783	-0.836848
C44	C	1.045591	-0.401466	-0.796046
C45	C	1.045623	-0.401428	-0.949761
C46	C	1.045638	-0.401411	-1.033094
C47	C	1.045575	-0.401484	-0.712708
C48	C	1.045515	-0.401601	-0.181331
C49	C	1.045652	-0.401394	-0.099523
H50	H	0.619937	-0.304738	-0.282968
H51	H	0.964579	-0.304724	-0.798879
H52	H	0.471834	-0.498456	-0.462125
C53	C	1.114647	-0.788242	-0.303481
C54	C	1.120883	-0.873831	-0.297317
H55	H	1.147881	-0.758616	-0.270258
H56	H	1.126014	-0.773970	-0.352302
H57	H	1.065815	-0.774095	-0.292049
H58	H	1.169713	-0.887979	-0.308754
H59	H	1.109520	-0.888109	-0.248485
C60	C	0.976487	-1.014105	-0.441573
C61	C	0.970254	-0.928518	-0.447749
H62	H	0.943234	-1.043736	-0.474774
H63	H	1.025306	-1.028260	-0.453019
H64	H	0.965136	-1.028364	-0.392738
H65	H	0.981610	-0.914257	-0.496583
H66	H	0.921424	-0.914357	-0.436307
H67	H	0.964603	-0.304697	-0.938305
C68	C	1.119722	-0.595964	-0.819464
C69	C	1.139332	-0.513406	-0.797215
H70	H	1.150022	-0.632153	-0.794999
H71	H	1.069727	-0.608159	-0.807405
H72	H	1.126129	-0.603571	-0.871076
H73	H	1.132920	-0.505797	-0.745603
H74	H	1.189339	-0.501206	-0.809269
H75	H	0.611261	-0.498453	-0.462109
C76	C	1.188762	-0.466325	-1.000655
C77	C	1.139367	-0.513360	-0.958555
H78	H	1.219075	-0.502502	-1.028338
H79	H	1.162174	-0.434569	-1.033123
H80	H	1.218543	-0.430013	-0.969050
H81	H	1.109581	-0.549667	-0.990160
H82	H	1.165956	-0.545130	-0.926083
C83	C	0.394150	-0.300822	-0.279343
C84	C	0.470231	-0.289543	-0.268915
H85	H	0.369697	-0.264599	-0.245838
H86	H	0.382124	-0.288690	-0.328261
H87	H	0.379032	-0.356826	-0.270988
H88	H	0.485350	-0.233540	-0.277275
H89	H	0.482262	-0.301669	-0.219985
