data_functionalizedCrystal
_audit_creation_method	'MofGen! by Chris Wilmer'
_symmetry_space_group_name_H-M	'P1'
_symmetry_Int_Tables_number	1
_symmetry_cell_setting	triclinic
loop_
_symmetry_equiv_pos_as_xyz
  x,y,z
_cell_length_a	13.262390
_cell_length_b	12.376457
_cell_length_c	19.288862
_cell_angle_alpha	101.228923
_cell_angle_beta	96.192696
_cell_angle_gamma	116.831828
loop_
_atom_site_label
_atom_site_type_symbol
_atom_site_fract_x
_atom_site_fract_y
_atom_site_fract_z
O1	O	1.512330	0.558988	-0.014740
O2	O	1.185081	0.458380	-0.039098
O3	O	1.358156	0.511560	0.074573
O4	O	1.339254	0.505807	-0.128411
O5	O	1.314902	0.310258	0.046193
O6	O	1.141826	0.257077	-0.067478
O7	O	1.469076	0.357685	-0.043120
Zn8	Zn	1.298584	0.275420	-0.059805
Zn9	Zn	1.355573	0.540645	-0.022413
O10	O	1.296000	0.304505	-0.156791
C11	C	1.121586	0.344856	-0.054533
C12	C	0.996836	0.306502	-0.058233
N13	N	1.259698	0.094413	-0.085324
C14	C	1.169434	0.007494	-0.144575
C15	C	1.142234	-0.119204	-0.162441
C16	C	1.205290	-0.158996	-0.121054
C17	C	1.295550	-0.072077	-0.061799
C18	C	1.322759	0.054635	-0.043934
C19	C	1.358615	-0.111855	-0.020414
C20	C	1.448875	-0.024936	0.038842
C21	C	1.476079	0.101762	0.056704
C22	C	1.413023	0.141554	0.015317
C23	C	1.331406	-0.238567	-0.038278
C24	C	1.484731	-0.191426	0.062363
C25	C	1.511931	-0.064728	0.080229
C26	C	0.739508	0.637327	-0.006772
C27	C	0.856719	0.673365	-0.003292
C28	C	0.891754	0.581652	-0.017027
C29	C	0.809567	0.453896	-0.034243
C30	C	0.692346	0.417855	-0.037719
C31	C	0.844592	0.362180	-0.047973
C32	C	0.762404	0.234423	-0.065190
C33	C	0.645196	0.198388	-0.068665
C34	C	0.610160	0.290101	-0.054930
C35	C	0.961813	0.398221	-0.044498
C36	C	0.914650	0.178748	-0.075444
C37	C	0.797440	0.142711	-0.078925
C38	C	1.532570	0.471211	-0.027685
C39	C	1.657323	0.509574	-0.023983
C40	C	1.335920	0.410717	0.086235
C41	C	1.334090	0.410140	0.163266
N42	N	1.394467	0.721654	0.003111
C43	C	1.435645	0.441353	0.211893
C44	C	1.433933	0.440840	0.284276
C45	C	1.330655	0.409087	0.308025
C46	C	1.229089	0.377876	0.259389
C47	C	1.230806	0.378403	0.187009
C48	C	1.234316	0.313608	0.403227
C49	C	1.232601	0.313075	0.475605
C50	C	1.325354	0.407468	0.531267
C51	C	1.419839	0.502384	0.514543
C52	C	1.421557	0.502910	0.442164
C53	C	1.328781	0.408514	0.386507
C54	C	1.425060	0.438129	0.658380
C55	C	1.423345	0.437622	0.730765
C56	C	1.218496	0.374646	0.705875
C57	C	1.220216	0.375166	0.633493
C58	C	1.323500	0.406903	0.609750
C59	C	1.318237	0.405335	0.831545
C60	C	1.320067	0.405871	0.754509
H61	H	1.257916	-0.309325	-0.086524
H62	H	1.549582	0.172536	0.104948
H63	H	1.585424	0.006056	0.128475
Cl64	Cl	1.028771	-0.228468	-0.236929
Cl65	Cl	1.554898	0.478019	0.628527
Cl66	Cl	1.447214	0.300837	0.037781
H67	H	1.118108	0.039904	-0.178270
Cl68	Cl	1.171092	-0.318276	-0.143513
Cl69	Cl	1.564010	-0.241440	0.114392
Cl70	Cl	1.065119	0.558823	-0.022856
H71	H	0.514719	0.260765	-0.057765
H72	H	0.987193	0.611002	-0.014193
Cl73	Cl	1.551028	0.476874	0.791899
Cl74	Cl	1.103127	0.339159	0.125875
Cl75	Cl	0.695464	0.752609	0.010529
Cl76	Cl	0.960031	0.833966	0.018353
H77	H	0.578283	0.094361	-0.082671
Cl78	Cl	0.694107	-0.017893	-0.100567
Cl79	Cl	0.958686	0.063445	-0.092707
Cl80	Cl	1.565495	0.481285	0.182053
H81	H	1.516634	0.466263	0.323876
H82	H	1.134406	0.348798	0.725211
H83	H	1.498487	0.580195	0.428551
Cl84	Cl	1.536451	0.621060	0.584512
Cl85	Cl	1.092538	0.335918	0.572358
Cl86	Cl	1.113825	0.193751	0.496622
Cl87	Cl	1.117701	0.194927	0.333257
H88	H	1.145000	0.352026	0.278730
