data_functionalizedCrystal
_audit_creation_method	'MofGen! by Chris Wilmer'
_symmetry_space_group_name_H-M	'P1'
_symmetry_Int_Tables_number	1
_symmetry_cell_setting	triclinic
loop_
_symmetry_equiv_pos_as_xyz
  x,y,z
_cell_length_a	8.597340
_cell_length_b	14.971491
_cell_length_c	14.048226
_cell_angle_alpha	89.991693
_cell_angle_beta	97.706092
_cell_angle_gamma	95.520501
loop_
_atom_site_label
_atom_site_type_symbol
_atom_site_fract_x
_atom_site_fract_y
_atom_site_fract_z
O1	O	-0.204570	1.188610	-0.095975
O2	O	-0.229055	0.928410	-0.097976
O3	O	0.011645	1.063629	-0.078237
O4	O	-0.445270	1.053392	-0.115714
O5	O	0.011659	1.063612	0.080086
O6	O	-0.229041	0.928394	0.060347
O7	O	-0.204556	1.188594	0.062347
Zn8	Zn	-0.216796	1.058491	0.086484
Zn9	Zn	-0.216815	1.058513	-0.122113
O10	O	-0.445255	1.053375	0.042608
C11	C	-0.227951	0.895068	-0.018724
C12	C	-0.224666	0.795745	-0.018451
C13	C	-0.210495	0.367933	-0.103612
C14	C	-0.213578	0.461258	-0.103861
C15	C	-0.215121	0.507907	-0.017684
C16	C	-0.213567	0.461228	0.068750
C17	C	-0.210473	0.367905	0.068999
C18	C	-0.220019	0.655742	0.068224
C19	C	-0.223116	0.749071	0.067975
C20	C	-0.223123	0.749095	-0.104636
C21	C	-0.220030	0.655772	-0.104387
C22	C	-0.218478	0.609099	-0.017953
C23	C	-0.503736	1.054484	-0.041349
C24	C	-0.677969	1.057774	-0.055640
C25	C	0.070125	1.062520	0.005718
C26	C	0.244358	1.059230	0.020004
C27	C	-0.205660	1.221936	-0.016907
C28	C	-0.208945	1.321259	-0.017185
N29	N	-0.216782	1.058483	0.228846
N30	N	-0.216816	1.058528	-0.264473
C31	C	-0.110245	1.118377	0.287401
C32	C	-0.110244	1.118383	0.387058
C33	C	-0.216789	1.058498	0.428159
C34	C	-0.323332	0.998598	0.369597
C35	C	-0.323324	0.998588	0.269941
C36	C	-0.323343	0.998623	0.577310
C37	C	-0.323354	0.998634	0.676972
C38	C	-0.110263	1.118419	0.694427
C39	C	-0.110255	1.118409	0.594772
C40	C	-0.216800	1.058509	0.536216
H41	H	-0.688847	1.057957	0.095703
H42	H	-0.218774	0.617742	0.138607
H43	H	-0.023490	1.167146	0.253944
H44	H	-0.224381	0.787050	0.138148
H45	H	-0.744774	1.059034	-0.131345
O46	O	-0.006712	1.176660	0.443794
C47	C	0.087340	1.229507	0.386149
H48	H	0.022994	1.231058	0.309827
H49	H	0.111041	1.300734	0.416865
H50	H	0.204035	1.199463	0.385143
O51	O	-0.006610	1.176613	0.555005
C52	C	0.087404	1.229499	0.628052
H53	H	0.089287	1.192824	0.699257
H54	H	0.212704	1.242047	0.609536
H55	H	0.036245	1.296388	0.634430
O56	O	-0.426995	0.940407	0.520563
C57	C	-0.521017	0.887540	0.578207
H58	H	-0.522898	0.924232	0.649082
H59	H	-0.646317	0.874990	0.539131
H60	H	-0.469868	0.820650	0.593021
O61	O	-0.208785	0.322538	-0.187250
C62	C	-0.071156	0.277518	-0.181138
H63	H	-0.025410	0.266502	-0.102453
H64	H	-0.099529	0.209890	-0.219999
H65	H	0.022760	0.319755	-0.216018
H66	H	-0.023511	1.167191	0.742109
O67	O	-0.215269	0.506427	0.152509
C68	C	-0.350351	0.474683	0.193919
H69	H	-0.393386	0.403947	0.165844
H70	H	-0.319692	0.473486	0.275386
H71	H	-0.447201	0.520945	0.174015
H72	H	-0.224389	0.787101	-0.175014
H73	H	-0.209227	0.329903	0.139376
O74	O	-0.426620	0.940421	0.717028
C75	C	-0.342379	0.884515	0.781588
H76	H	-0.219675	0.919081	0.806568
H77	H	-0.407835	0.870947	0.846303
H78	H	-0.331509	0.818310	0.744100
H79	H	-0.410076	0.949815	0.222266
O80	O	-0.215145	0.506454	-0.187907
C81	C	-0.213085	0.445271	-0.263912
H82	H	-0.260540	0.375475	-0.242507
H83	H	-0.290111	0.467235	-0.330593
H84	H	-0.086942	0.443628	-0.280097
O85	O	-0.218465	0.610598	-0.188178
C86	C	-0.220533	0.671800	-0.264524
H87	H	-0.173092	0.741591	-0.235332
H88	H	-0.143499	0.649857	-0.318561
H89	H	-0.346677	0.673442	-0.301412
H90	H	-0.410078	0.949834	0.403067
