data_functionalizedCrystal
_audit_creation_method	'MofGen! by Chris Wilmer'
_symmetry_space_group_name_H-M	'P1'
_symmetry_Int_Tables_number	1
_symmetry_cell_setting	triclinic
loop_
_symmetry_equiv_pos_as_xyz
  x,y,z
_cell_length_a	19.288864
_cell_length_b	13.339070
_cell_length_c	18.366186
_cell_angle_alpha	89.997828
_cell_angle_beta	89.977106
_cell_angle_gamma	99.382770
loop_
_atom_site_label
_atom_site_type_symbol
_atom_site_fract_x
_atom_site_fract_y
_atom_site_fract_z
O1	O	0.945923	0.126087	-0.060787
O2	O	0.746977	0.143095	-0.060738
O3	O	0.823618	-0.012569	-0.060755
O4	O	0.869283	0.281750	-0.060770
O5	O	0.823598	-0.012576	0.060345
O6	O	0.746958	0.143088	0.060362
O7	O	0.945904	0.126079	0.060312
Zn8	Zn	0.846427	0.134582	0.079564
Zn9	Zn	0.846453	0.134592	-0.079989
O10	O	0.869263	0.281743	0.060329
C11	C	0.720984	0.142544	-0.000182
C12	C	0.643560	0.140901	-0.000162
C13	C	0.616663	0.232238	-0.000179
C14	C	0.543915	0.230694	-0.000187
C15	C	0.498067	0.137809	-0.000193
C16	C	0.524972	0.046461	-0.000173
C17	C	0.597719	0.048007	-0.000157
C18	C	0.375583	0.064794	-0.042640
C19	C	0.302838	0.063252	-0.042660
C20	C	0.273691	0.133037	-0.000237
C21	C	0.317301	0.204382	0.042197
C22	C	0.390048	0.205928	0.042212
C23	C	0.419184	0.136123	-0.000209
C24	C	0.167913	0.222706	-0.000261
C25	C	0.095163	0.221159	-0.000264
C26	C	0.076222	0.036923	-0.000257
C27	C	0.148970	0.038473	-0.000247
C28	C	0.194812	0.131367	-0.000252
C29	C	0.815894	-0.050226	-0.000204
C30	C	0.792901	-0.162423	-0.000201
C31	C	0.971681	-0.528031	-0.000245
C32	C	0.993286	-0.422617	-0.000244
C33	C	0.943192	-0.357563	-0.000233
C34	C	0.871489	-0.397934	-0.000224
C35	C	0.849881	-0.503359	-0.000220
C36	C	0.821392	-0.332891	-0.000208
C37	C	0.749689	-0.373262	-0.000198
C38	C	0.728085	-0.478677	-0.000195
C39	C	0.778180	-0.543730	-0.000205
C40	C	0.842999	-0.227467	-0.000212
C41	C	0.721199	-0.202795	-0.000187
C42	C	0.699594	-0.308209	-0.000188
C43	C	0.971897	0.126630	-0.000245
C44	C	1.049320	0.128273	-0.000269
C45	C	0.876987	0.319401	-0.000223
C46	C	0.899980	0.431598	-0.000231
N47	N	0.846415	0.134575	0.188455
N48	N	0.846470	0.134592	-0.188881
C49	C	0.880373	0.065680	0.226548
C50	C	0.880377	0.065676	0.302776
C51	C	0.846432	0.134583	0.340908
C52	C	0.812466	0.203482	0.302806
C53	C	0.812457	0.203478	0.226580
C54	C	0.855080	0.226676	0.461665
C55	C	0.855093	0.226682	0.537890
C56	C	0.846454	0.134596	0.576016
C57	C	0.837815	0.042500	0.537907
C58	C	0.837806	0.042496	0.461681
C59	C	0.846437	0.134595	0.423563
C60	C	0.880418	0.065691	0.696763
C61	C	0.880416	0.065685	0.772993
C62	C	0.812510	0.203500	0.773021
C63	C	0.812507	0.203497	0.696793
C64	C	0.846464	0.134594	0.658669
H65	H	0.487638	-0.029167	-0.000188
N66	N	1.025709	-0.598185	-0.000258
H67	H	1.056083	-0.585237	0.044628
H68	H	1.001092	-0.671064	-0.000280
N69	N	0.626735	-0.050510	-0.000136
H70	H	0.586654	-0.109589	-0.000138
H71	H	0.656530	-0.053881	-0.045023
N72	N	0.917002	-0.008636	0.343875
H73	H	0.938511	-0.052288	0.308156
H74	H	0.955142	0.029955	0.375479
N75	N	0.666111	0.332422	-0.000172
H76	H	0.696743	0.337171	-0.045056
H77	H	0.637984	0.389996	-0.000154
N78	N	0.775880	0.277812	0.655709
H79	H	0.797696	0.349520	0.668960
H80	H	0.781030	0.267268	0.601646
H81	H	0.425551	0.264016	0.076765
H82	H	0.830770	-0.032491	0.430656
H83	H	0.901380	-0.194607	-0.000219
N84	N	0.916992	-0.008638	0.185428
H85	H	0.968495	0.002824	0.198667
H86	H	0.895125	-0.080312	0.198727
N87	N	0.066149	0.319677	-0.000224
H88	H	0.106231	0.378755	-0.000209
H89	H	0.036386	0.323096	-0.045104
N90	N	0.217357	0.322897	-0.000256
H91	H	0.247939	0.327640	0.044639
H92	H	0.247939	0.327591	-0.045174
N93	N	0.828499	-0.056831	0.579016
H94	H	0.829812	-0.042858	0.633087
H95	H	0.781801	-0.098782	0.565714
N96	N	0.917022	-0.008657	0.655652
H97	H	0.881866	-0.053308	0.624051
H98	H	0.955201	0.029899	0.624042
N99	N	0.622261	-0.351767	-0.000169
H100	H	0.599387	-0.328035	0.044728
H101	H	0.599460	-0.328016	-0.045085
H102	H	0.267337	0.005163	-0.077215
N103	N	0.966497	-0.243868	-0.000242
H104	H	0.947801	-0.213632	-0.045133
H105	H	0.947779	-0.213710	0.044680
H106	H	0.680408	-0.149828	-0.000175
H107	H	0.522011	0.305074	-0.000198
N108	N	0.285878	0.279663	0.087953
H109	H	0.233176	0.267859	0.081509
H110	H	0.297595	0.270483	0.140876
N111	N	0.864404	0.326008	0.578988
H112	H	0.907718	0.331865	0.610590
H113	H	0.869834	0.384281	0.543223
N114	N	0.650752	-0.522233	-0.000182
H115	H	0.639067	-0.565425	0.044713
H116	H	0.622341	-0.464980	-0.000205
N117	N	0.864400	0.326003	0.420547
H118	H	0.869882	0.384343	0.456253
H119	H	0.907699	0.331742	0.388899
H120	H	1.051667	-0.389754	-0.000250
H121	H	0.908066	0.009578	0.804009
N122	N	0.775848	0.277800	0.343928
H123	H	0.781008	0.267350	0.397999
H124	H	0.797677	0.349474	0.330589
N125	N	0.754875	-0.657430	-0.000208
H126	H	0.797491	-0.692510	-0.000220
H127	H	0.725739	-0.677901	0.044692
N128	N	0.775890	0.277816	0.814138
H129	H	0.781046	0.267364	0.868208
H130	H	0.797721	0.349491	0.800801
H131	H	0.170869	-0.035904	-0.000237
N132	N	0.775826	0.277785	0.185488
H133	H	0.754318	0.321436	0.221208
H134	H	0.811002	0.322372	0.153841
H135	H	0.038893	-0.038706	-0.000308
H136	H	0.399307	0.007964	-0.077190
