data_functionalizedCrystal
_audit_creation_method	'MofGen! by Chris Wilmer'
_symmetry_space_group_name_H-M	'P1'
_symmetry_Int_Tables_number	1
_symmetry_cell_setting	triclinic
loop_
_symmetry_equiv_pos_as_xyz
  x,y,z
_cell_length_a	21.295420
_cell_length_b	21.295417
_cell_length_c	16.959447
_cell_angle_alpha	89.964807
_cell_angle_beta	89.984500
_cell_angle_gamma	90.026289
loop_
_atom_site_label
_atom_site_type_symbol
_atom_site_fract_x
_atom_site_fract_y
_atom_site_fract_z
Zn1	Zn	0.962299	-0.250668	-0.446907
Zn2	Zn	0.962218	-0.355944	-0.314717
Zn3	Zn	0.857039	-0.250685	-0.314742
Zn4	Zn	0.856991	-0.355895	-0.446853
O5	O	0.909637	-0.303298	-0.380804
O6	O	1.050377	-0.264646	-0.429384
O7	O	0.948252	-0.342009	-0.204109
O8	O	0.871055	-0.162594	-0.332306
O9	O	1.050318	-0.341992	-0.332264
O10	O	0.948390	-0.162581	-0.429408
O11	O	0.870977	-0.264676	-0.204127
O12	O	0.768943	-0.264628	-0.332254
O13	O	0.870975	-0.341909	-0.557471
O14	O	0.768908	-0.341926	-0.429316
O15	O	0.948344	-0.264598	-0.557511
O16	O	0.948206	-0.444027	-0.332212
O17	O	0.870896	-0.443991	-0.429292
C18	C	0.746085	-0.303274	-0.380782
C19	C	0.676117	-0.303279	-0.380791
C20	C	0.176689	-0.263119	-0.431469
C21	C	0.242432	-0.263114	-0.431468
C22	C	0.275278	-0.303317	-0.380823
C23	C	0.242375	-0.343540	-0.330188
C24	C	0.176634	-0.343548	-0.330195
N25	N	0.378476	-0.308066	-0.311611
N26	N	0.440928	-0.308055	-0.311606
C27	C	0.473352	-0.303297	-0.380800
N28	N	0.440966	-0.298538	-0.449999
N29	N	0.378509	-0.298546	-0.450003
C30	C	0.346563	-0.303313	-0.380810
C31	C	0.577532	-0.263075	-0.431435
C32	C	0.643276	-0.263075	-0.431436
C33	C	0.643218	-0.343497	-0.330149
C34	C	0.577476	-0.343500	-0.330155
C35	C	0.544637	-0.303286	-0.380797
C36	C	0.909554	-0.466850	-0.380761
C37	C	0.909577	-0.536818	-0.380768
C38	C	0.949867	-0.569682	-0.330271
C39	C	0.949897	-0.635425	-0.330289
C40	C	0.909624	-0.668300	-0.380796
C41	C	0.869331	-0.635428	-0.431303
C42	C	0.869307	-0.569687	-0.431289
N43	N	0.854557	-0.771562	-0.386814
N44	N	0.854581	-0.834013	-0.386822
C45	C	0.909695	-0.866375	-0.380841
N46	N	0.964784	-0.833926	-0.374836
N47	N	0.964759	-0.771469	-0.374823
C48	C	0.909646	-0.739586	-0.380816
C49	C	0.950021	-0.970525	-0.330360
C50	C	0.950052	-1.036269	-0.330383
C51	C	0.869480	-1.036270	-0.431394
C52	C	0.869455	-0.970528	-0.431374
C53	C	0.909725	-0.937659	-0.380853
C54	C	1.073827	-0.303323	-0.380827
C55	C	1.143795	-0.303333	-0.380837
C56	C	0.909663	-0.303246	-0.586973
C57	C	0.909674	-0.303224	-0.674829
C58	C	0.909737	-0.139108	-0.380866
C59	C	0.909779	-0.069140	-0.380892
C60	C	0.869467	-0.343409	-1.046287
C61	C	0.950032	-0.262906	-1.046323
C62	C	0.950015	-0.262919	-0.963778
C63	C	0.909724	-0.303179	-0.922483
C64	C	0.869450	-0.343425	-0.963734
C65	C	0.990293	-0.222678	-0.922520
C66	C	0.990278	-0.222690	-0.839969
C67	C	0.949984	-0.262947	-0.798673
C68	C	0.909708	-0.303195	-0.839929
C69	C	0.869417	-0.343454	-0.798634
C70	C	0.829137	-0.383699	-0.839889
C71	C	0.829156	-0.383682	-0.922437
C72	C	0.949965	-0.262964	-0.716124
C73	C	0.869400	-0.343470	-0.716080
C74	C	0.909647	-0.303305	-0.175438
C75	C	0.909758	-0.303149	-0.087582
H76	H	0.670057	-0.230329	-0.472672
H77	H	0.836670	-0.376174	-1.079880
H78	H	0.982813	-0.943762	-0.289225
H79	H	0.269220	-0.230364	-0.472698
H80	H	0.836692	-1.063037	-0.472521
F81	F	0.992781	-0.670409	-0.276539
H82	H	0.836644	-0.943768	-0.472491
H83	H	0.982838	-0.230131	-1.079951
F84	F	0.542580	-0.220278	-0.485334
F85	F	0.786293	-0.426512	-0.966348
F86	F	0.826422	-0.534709	-0.485038
F87	F	0.826472	-0.670417	-0.485059
F88	F	0.678171	-0.386289	-0.276253
H89	H	0.550693	-0.376245	-0.288922
F90	F	0.992733	-0.534705	-0.276510
H91	H	0.982865	-1.063026	-0.289264
F92	F	1.033174	-0.179838	-0.966473
F93	F	0.826513	-0.386318	-0.672138
H94	H	1.023076	-0.189920	-0.806387
H95	H	0.796335	-0.416482	-0.806255
H96	H	0.149956	-0.230376	-0.472709
F97	F	0.277333	-0.386329	-0.276290
H98	H	0.149852	-0.376296	-0.288964
F99	F	0.992834	-0.220140	-0.672222
