data_functionalizedCrystal
_audit_creation_method	'MofGen! by Chris Wilmer'
_symmetry_space_group_name_H-M	'P1'
_symmetry_Int_Tables_number	1
_symmetry_cell_setting	triclinic
loop_
_symmetry_equiv_pos_as_xyz
  x,y,z
_cell_length_a	14.853567
_cell_length_b	13.101018
_cell_length_c	14.853567
_cell_angle_alpha	93.367354
_cell_angle_beta	96.365070
_cell_angle_gamma	93.364098
loop_
_atom_site_label
_atom_site_type_symbol
_atom_site_fract_x
_atom_site_fract_y
_atom_site_fract_z
O1	O	1.201319	0.085135	-0.112743
O2	O	1.534652	0.418469	0.220590
O3	O	1.867986	0.751802	0.553924
O4	O	0.938861	0.085152	-0.126763
O5	O	1.272194	0.418485	0.206570
O6	O	1.605527	0.751819	0.539903
O7	O	1.077101	0.085146	0.011477
O8	O	1.410434	0.418480	0.344810
O9	O	1.743767	0.751813	0.678143
O10	O	1.063079	0.085141	-0.250983
O11	O	1.396412	0.418474	0.082350
O12	O	1.729746	0.751808	0.415683
O13	O	1.067171	-0.085284	0.001549
O14	O	1.400504	0.248050	0.334883
O15	O	1.733837	0.581383	0.668216
O16	O	0.928931	-0.085278	-0.136691
O17	O	1.262264	0.248055	0.196643
O18	O	1.595597	0.581389	0.529976
O19	O	1.191389	-0.085295	-0.122670
O20	O	1.524722	0.248039	0.210663
O21	O	1.858056	0.581372	0.543996
Zn22	Zn	1.058583	-0.112346	-0.131257
Zn23	Zn	1.391917	0.220988	0.202077
Zn24	Zn	1.725250	0.554321	0.535410
Zn25	Zn	1.071666	0.112203	-0.118177
Zn26	Zn	1.405000	0.445536	0.215156
Zn27	Zn	1.738333	0.778870	0.548490
O28	O	1.053149	-0.085289	-0.260910
O29	O	1.386482	0.248044	0.072423
O30	O	1.719816	0.581378	0.405756
C31	C	0.900307	-0.000061	-0.131092
C32	C	1.233640	0.333273	0.202242
C33	C	1.566974	0.666606	0.535575
C34	C	0.800224	-0.000054	-0.129187
C35	C	1.133557	0.333279	0.204146
C36	C	1.466890	0.666613	0.537479
C37	C	0.387689	-0.000075	-0.039023
C38	C	0.721022	0.333258	0.294310
C39	C	1.054355	0.666591	0.627644
C40	C	0.366408	-0.000078	-0.203256
C41	C	0.699741	0.333256	0.130077
C42	C	1.033074	0.666589	0.463411
C43	C	0.460441	-0.000074	-0.205046
C44	C	0.793775	0.333259	0.128288
C45	C	1.127108	0.666592	0.461621
C46	C	0.518104	-0.000070	-0.123823
C47	C	0.851437	0.333263	0.209510
C48	C	1.184770	0.666597	0.542844
C49	C	0.481732	-0.000069	-0.040810
C50	C	0.815065	0.333264	0.292523
C51	C	1.148398	0.666598	0.625856
C52	C	0.496821	-0.000065	-0.288057
C53	C	0.830154	0.333268	0.045277
C54	C	1.163488	0.666602	0.378610
C55	C	0.590860	-0.000061	-0.289850
C56	C	0.924194	0.333273	0.043484
C57	C	1.257527	0.666606	0.376817
C58	C	0.648524	-0.000064	-0.208626
C59	C	0.981857	0.333270	0.124707
C60	C	1.315191	0.666603	0.458040
C61	C	0.612147	-0.000064	-0.125610
C62	C	0.945480	0.333270	0.207723
C63	C	1.278813	0.666603	0.541056
C64	C	0.669809	-0.000059	-0.044387
C65	C	1.003142	0.333274	0.288946
C66	C	1.336475	0.666607	0.622279
C67	C	0.633433	-0.000067	0.038629
C68	C	0.966766	0.333267	0.371963
C69	C	1.300100	0.666600	0.705296
C70	C	0.539395	-0.000072	0.040413
C71	C	0.872729	0.333261	0.373746
C72	C	1.206062	0.666595	0.707080
C73	C	0.742562	-0.000058	-0.210410
C74	C	1.075895	0.333275	0.122923
C75	C	1.409228	0.666608	0.456256
C76	C	0.763852	-0.000053	-0.046175
C77	C	1.097185	0.333280	0.287159
C78	C	1.430519	0.666614	0.620492
N79	N	1.049661	-0.265594	-0.140183
N80	N	1.382994	0.067739	0.193151
N81	N	1.716328	0.401072	0.526484
C82	C	1.092730	-0.525506	-0.097096
C83	C	1.426064	-0.192172	0.236237
C84	C	1.759397	0.141161	0.569570
C85	C	1.037529	-0.474631	-0.152327
C86	C	1.370863	-0.141297	0.181006
C87	C	1.704196	0.192036	0.514339
C88	C	1.044281	-0.358312	-0.145568
C89	C	1.377614	-0.024979	0.187765
C90	C	1.710948	0.308355	0.521099
C91	C	1.085980	-0.641835	-0.103854
C92	C	1.419313	-0.308501	0.229479
C93	C	1.752646	0.024832	0.562812
C94	C	1.229943	-0.000080	-0.118342
C95	C	1.563276	0.333254	0.214991
C96	C	1.896610	0.666587	0.548325
C97	C	1.330027	-0.000080	-0.120246
C98	C	1.663360	0.333254	0.213088
C99	C	1.996693	0.666587	0.546421
C100	C	1.071501	-0.000066	0.040102
C101	C	1.404834	0.333268	0.373435
C102	C	1.738167	0.666601	0.706769
C103	C	1.069597	-0.000057	0.140186
C104	C	1.402931	0.333277	0.473519
C105	C	1.736264	0.666610	0.806853
N106	N	1.080596	0.265452	-0.109244
N107	N	1.413929	0.598785	0.224089
N108	N	1.747263	0.932118	0.557423
C109	C	1.058749	-0.000075	-0.289536
C110	C	1.392083	0.333259	0.043798
C111	C	1.725416	0.666592	0.377131
C112	C	1.060653	-0.000077	-0.389619
C113	C	1.393986	0.333256	-0.056286
C114	C	1.727320	0.666590	0.277047
C115	C	0.979431	-0.000070	0.552719
C116	C	1.312764	0.333263	0.886052
C117	C	1.646097	0.666596	1.219386
C118	C	1.143663	-0.000081	0.574000
C119	C	1.476996	0.333253	0.907333
C120	C	1.810330	0.666586	1.240666
C121	C	1.145453	-0.000075	0.479966
C122	C	1.478787	0.333259	0.813299
C123	C	1.812120	0.666592	1.146633
C124	C	1.064231	-0.000068	0.422305
C125	C	1.397565	0.333265	0.755638
C126	C	1.730898	0.666598	1.088971
C127	C	0.981219	-0.000068	0.458677
C128	C	1.314552	0.333266	0.792010
C129	C	1.647885	0.666599	1.125343
C130	C	1.228464	-0.000086	0.443586
C131	C	1.561797	0.333248	0.776920
C132	C	1.895131	0.666581	1.110253
C133	C	1.230258	-0.000081	0.349548
C134	C	1.563591	0.333252	0.682881
C135	C	1.896924	0.666586	1.016214
C136	C	1.149035	-0.000067	0.291885
C137	C	1.482368	0.333266	0.625218
C138	C	1.815702	0.666599	0.958551
C139	C	1.066019	-0.000065	0.328262
C140	C	1.399352	0.333268	0.661595
C141	C	1.732686	0.666601	0.994929
C142	C	0.984797	-0.000059	0.270601
C143	C	1.318130	0.333274	0.603934
C144	C	1.651463	0.666608	0.937267
C145	C	0.901780	-0.000050	0.306977
C146	C	1.235114	0.333284	0.640310
C147	C	1.568447	0.666617	0.973643
C148	C	0.899996	-0.000054	0.401014
C149	C	1.233329	0.333280	0.734347
C150	C	1.566662	0.666613	1.067680
C151	C	1.150819	-0.000063	0.197848
C152	C	1.484153	0.333270	0.531181
C153	C	1.817486	0.666603	0.864514
C154	C	0.986585	-0.000056	0.176558
C155	C	1.319918	0.333277	0.509891
C156	C	1.653251	0.666611	0.843225
H157	H	0.449867	-0.000058	-0.354183
H158	H	0.783200	0.333275	-0.020850
H159	H	1.116534	0.666609	0.312484
H160	H	0.620469	-0.000054	-0.357447
H161	H	0.953802	0.333279	-0.024113
H162	H	1.287136	0.666612	0.309220
H163	H	1.294590	-0.000101	0.490540
H164	H	1.627923	0.333233	0.823873
H165	H	1.961257	0.666566	1.157207
F166	F	1.161127	-0.468258	-0.028663
F167	F	1.494461	-0.134924	0.304671
F168	F	1.827794	0.198409	0.638004
F169	F	0.815340	-0.000051	0.245598
F170	F	1.148674	0.333283	0.578931
F171	F	1.482007	0.666616	0.912265
H172	H	0.358067	-0.000085	0.028567
H173	H	0.691400	0.333248	0.361900
H174	H	1.024733	0.666581	0.695234
F175	F	0.900135	-0.000042	0.115197
F176	F	1.233468	0.333292	0.448530
F177	F	1.566802	0.666625	0.781864
H178	H	0.832408	-0.000047	0.430640
H179	H	1.165741	0.333286	0.763973
H180	H	1.499075	0.666619	1.097307
H181	H	0.509768	-0.000102	0.107999
H182	H	0.843101	0.333231	0.441333
H183	H	1.176434	0.666564	0.774666
H184	H	0.911841	-0.000059	0.582341
H185	H	1.245174	0.333274	0.915674
H186	H	1.578508	0.666608	1.249008
F187	F	0.969132	-0.531883	-0.220768
F188	F	1.302465	-0.198549	0.112565
F189	F	1.635799	0.134784	0.445899
F190	F	0.781272	-0.000043	-0.298755
F191	F	1.114606	0.333290	0.034578
F192	F	1.447939	0.666624	0.367911
H193	H	0.810795	-0.000054	0.019968
H194	H	1.144128	0.333280	0.353301
H195	H	1.477462	0.666613	0.686634
F196	F	1.230099	-0.000102	0.635368
F197	F	1.563433	0.333231	0.968701
F198	F	1.896766	0.666564	1.302034
F199	F	1.318610	-0.000078	0.310843
F200	F	1.651944	0.333255	0.644176
F201	F	1.985277	0.666589	0.977510
F202	F	0.305039	-0.000070	-0.289693
F203	F	0.638372	0.333264	0.043640
F204	F	0.971705	0.666597	0.376974
H205	H	0.680394	-0.000056	0.104761
H206	H	1.013727	0.333277	0.438094
H207	H	1.347061	0.666610	0.771428
H208	H	1.218410	-0.000077	0.168234
H209	H	1.551743	0.333256	0.501567
H210	H	1.885076	0.666589	0.834901
