data_functionalizedCrystal
_audit_creation_method	'MofGen! by Chris Wilmer'
_symmetry_space_group_name_H-M	'P1'
_symmetry_Int_Tables_number	1
_symmetry_cell_setting	triclinic
loop_
_symmetry_equiv_pos_as_xyz
  x,y,z
_cell_length_a	18.215407
_cell_length_b	19.121063
_cell_length_c	18.215398
_cell_angle_alpha	92.412350
_cell_angle_beta	89.980536
_cell_angle_gamma	92.469446
loop_
_atom_site_label
_atom_site_type_symbol
_atom_site_fract_x
_atom_site_fract_y
_atom_site_fract_z
Zn1	Zn	1.112556	-0.279631	-0.428597
Zn2	Zn	1.107209	-0.397081	-0.310773
Zn3	Zn	0.989488	-0.279649	-0.305545
Zn4	Zn	0.984200	-0.397047	-0.433796
O5	O	1.048363	-0.338352	-0.369678
O6	O	1.214830	-0.295218	-0.412979
O7	O	1.091569	-0.381525	-0.207096
O8	O	1.010264	-0.181362	-0.317504
O9	O	1.210902	-0.381508	-0.326414
O10	O	1.100681	-0.181349	-0.407910
O11	O	1.005080	-0.295248	-0.203255
O12	O	0.885803	-0.295215	-0.322546
O13	O	1.001251	-0.381450	-0.536090
O14	O	0.881917	-0.381467	-0.416771
O15	O	1.095553	-0.295185	-0.532270
O16	O	1.086441	-0.495361	-0.331456
O17	O	0.996066	-0.495337	-0.421841
C18	C	0.857157	-0.338340	-0.369656
C19	C	0.775358	-0.338352	-0.369665
C20	C	0.585157	-0.383334	-0.418672
C21	C	0.508298	-0.383336	-0.418682
C22	C	0.512321	-0.293383	-0.320700
C23	C	0.589178	-0.293378	-0.320694
C24	C	0.625594	-0.338357	-0.369680
C25	C	0.471878	-0.338365	-0.369694
C26	C	0.388544	-0.338367	-0.369704
C27	C	0.708933	-0.338354	-0.369671
C28	C	1.040119	-0.520833	-0.377796
C29	C	1.036660	-0.598899	-0.381293
C30	C	1.082124	-0.635565	-0.335917
C31	C	1.078875	-0.708916	-0.339211
C32	C	1.030157	-0.745601	-0.387878
C33	C	0.984691	-0.708930	-0.433259
C34	C	0.987944	-0.635580	-0.429968
C35	C	1.017982	-0.967071	-0.400169
C36	C	1.014730	-1.040427	-0.403454
C37	C	1.108916	-1.040407	-0.309407
C38	C	1.112162	-0.967056	-0.306117
C39	C	1.066698	-0.930392	-0.351501
C40	C	1.026833	-0.820578	-0.391244
C41	C	1.070026	-0.855416	-0.348138
C42	C	1.240315	-0.338365	-0.369700
C43	C	1.322114	-0.338370	-0.369709
C44	C	1.048409	-0.338312	-0.561629
C45	C	1.048428	-0.338294	-0.643427
C46	C	1.056659	-0.155158	-0.361544
C47	C	1.060194	-0.077092	-0.358078
C48	C	1.093500	-0.383132	-0.910485
C49	C	1.093488	-0.383157	-0.833627
C50	C	1.003417	-0.293321	-0.829611
C51	C	1.003426	-0.293301	-0.906468
C52	C	1.048472	-0.338205	-0.946903
C53	C	1.048451	-0.338250	-0.793189
C54	C	1.048437	-0.338276	-0.709856
C55	C	1.048485	-0.338180	-1.030241
C56	C	1.048363	-0.338342	-0.178471
C57	C	1.048495	-0.338161	-0.096664
H58	H	1.121792	-0.605701	-0.296284
H59	H	0.475377	-0.419960	-0.458577
H60	H	1.130178	-0.419697	-0.943405
H61	H	1.130154	-0.419740	-0.803980
H62	H	0.950923	-0.605728	-0.466919
H63	H	0.622104	-0.256748	-0.280799
C64	C	0.973239	-0.860931	-0.444773
C65	C	0.979640	-0.850791	-0.527987
C66	C	0.926046	-0.891145	-0.581518
C67	C	0.866051	-0.941638	-0.551836
C68	C	0.859648	-0.951780	-0.468618
C69	C	0.913241	-0.911426	-0.415087
H70	H	1.024054	-0.813411	-0.549963
H71	H	0.930787	-0.883636	-0.643121
H72	H	0.826378	-0.971510	-0.591463
H73	H	0.815234	-0.989161	-0.446642
H74	H	0.908501	-0.918935	-0.353484
C75	C	0.953873	-0.243924	-0.785131
C76	C	0.953862	-0.243942	-0.700592
C77	C	0.904318	-0.194543	-0.656113
C78	C	0.854784	-0.145126	-0.696174
C79	C	0.854793	-0.145107	-0.780718
C80	C	0.904338	-0.194506	-0.825197
H81	H	0.990532	-0.280525	-0.670932
H82	H	0.904312	-0.194558	-0.593528
H83	H	0.818109	-0.108558	-0.663249
H84	H	0.818124	-0.108524	-0.810378
H85	H	0.904344	-0.194491	-0.887782
H86	H	0.966755	-0.256715	-0.936120
H87	H	1.151831	-0.937189	-0.266489
C88	C	0.625216	-0.432804	-0.472560
C89	C	0.580732	-0.482275	-0.526454
C90	C	0.620788	-0.531745	-0.580345
C91	C	0.705328	-0.531745	-0.580342
C92	C	0.749817	-0.482273	-0.526446
C93	C	0.709761	-0.432802	-0.472555
H94	H	0.518146	-0.482276	-0.526457
H95	H	0.587854	-0.568368	-0.620242
H96	H	0.734980	-0.568366	-0.620235
H97	H	0.812403	-0.482271	-0.526443
H98	H	0.742694	-0.396180	-0.432658
H99	H	1.145930	-1.070267	-0.272459
H100	H	1.115897	-0.738766	-0.302260
C101	C	0.472261	-0.243913	-0.266812
C102	C	0.387721	-0.243920	-0.266811
C103	C	0.347663	-0.194451	-0.212920
C104	C	0.392145	-0.144976	-0.159030
C105	C	0.476690	-0.144968	-0.159028
C106	C	0.516748	-0.194436	-0.212920
H107	H	0.354788	-0.280546	-0.306706
H108	H	0.285076	-0.194457	-0.212921
H109	H	0.362492	-0.108356	-0.119136
H110	H	0.509623	-0.108342	-0.119134
H111	H	0.579334	-0.194430	-0.212918
C112	C	0.961138	-1.080782	-0.456993
C113	C	0.911130	-1.040455	-0.506914
C114	C	0.857540	-1.080811	-0.560447
C115	C	0.853958	-1.161493	-0.564059
C116	C	0.903968	-1.201824	-0.514136
C117	C	0.957558	-1.161469	-0.460602
H118	H	0.913780	-0.980725	-0.504243
H119	H	0.820519	-1.050954	-0.597404
H120	H	0.814287	-1.191367	-0.603687
H121	H	0.901318	-1.261554	-0.516807
H122	H	0.994579	-1.191325	-0.423646
H123	H	0.980962	-0.937225	-0.437121
C124	C	0.931100	-0.749280	-0.486795
C125	C	0.937508	-0.739138	-0.570007
C126	C	0.883913	-0.779485	-0.623543
C127	C	0.823910	-0.829973	-0.593866
C128	C	0.817500	-0.840116	-0.510649
C129	C	0.871094	-0.799770	-0.457114
H130	H	0.981928	-0.701762	-0.591979
H131	H	0.888659	-0.771975	-0.685145
H132	H	0.784236	-0.859839	-0.633496
H133	H	0.773080	-0.877493	-0.488677
H134	H	0.866348	-0.807279	-0.395511
C135	C	1.123614	-0.815065	-0.294606
C136	C	1.093985	-0.764698	-0.234545
C137	C	1.147571	-0.724339	-0.181011
C138	C	1.230786	-0.734347	-0.187536
C139	C	1.260420	-0.784717	-0.247599
C140	C	1.206834	-0.825076	-0.301133
H141	H	1.032380	-0.757287	-0.229713
H142	H	1.125633	-0.687052	-0.136548
H143	H	1.270454	-0.704471	-0.147906
H144	H	1.322025	-0.792128	-0.252431
H145	H	1.228772	-0.862363	-0.345596
