data_functionalizedCrystal
_audit_creation_method	'MofGen! by Chris Wilmer'
_symmetry_space_group_name_H-M	'P1'
_symmetry_Int_Tables_number	1
_symmetry_cell_setting	triclinic
loop_
_symmetry_equiv_pos_as_xyz
  x,y,z
_cell_length_a	12.811445
_cell_length_b	11.792254
_cell_length_c	11.892113
_cell_angle_alpha	85.656360
_cell_angle_beta	80.230899
_cell_angle_gamma	84.121730
loop_
_atom_site_label
_atom_site_type_symbol
_atom_site_fract_x
_atom_site_fract_y
_atom_site_fract_z
O1	O	1.408829	0.169401	-0.238420
O2	O	1.101320	0.183836	-0.206900
O3	O	1.262530	0.011487	-0.223416
O4	O	1.247620	0.341750	-0.221904
O5	O	1.250388	-0.001608	-0.034163
O6	O	1.089179	0.170741	-0.017647
O7	O	1.396688	0.156306	-0.049167
Zn8	Zn	1.241005	0.161444	-0.003359
Zn9	Zn	1.257002	0.178697	-0.252708
O10	O	1.235478	0.328655	-0.032651
C11	C	1.055882	0.176077	-0.108238
C12	C	0.938577	0.172453	-0.096215
C13	C	1.255520	-0.037356	-0.128694
C14	C	1.252708	-0.163384	-0.128407
C15	C	0.731383	0.179942	-0.279965
C16	C	0.621166	0.176538	-0.268672
C17	C	0.607921	0.162249	-0.062338
C18	C	0.718139	0.165653	-0.073630
C19	C	0.779867	0.174498	-0.182447
C20	C	0.890087	0.177894	-0.193739
C21	C	0.876840	0.163613	0.012594
C22	C	0.766622	0.160208	0.023887
C23	C	1.250424	-0.265732	-0.128177
C24	C	1.247569	-0.394132	-0.127894
C25	C	1.442126	0.164065	-0.147831
C26	C	1.559431	0.167690	-0.159862
C27	C	1.242488	0.377498	-0.127376
C28	C	1.245300	0.503526	-0.127670
N29	N	1.230096	0.149669	0.166814
N30	N	1.267921	0.190464	-0.422881
C31	C	1.343825	0.272459	0.391799
C32	C	1.336208	0.264219	0.510922
C33	C	1.207249	0.124942	0.524184
C34	C	1.214867	0.133183	0.405061
C35	C	1.283156	0.206945	0.338873
C36	C	1.290767	0.215191	0.219748
C37	C	1.161815	0.075909	0.233012
C38	C	1.154197	0.067668	0.352135
H39	H	0.781644	0.187139	-0.368568
C40	C	1.402123	0.335488	0.568177
C41	C	1.463536	0.401866	0.484712
C42	C	1.524264	0.467546	0.537413
H43	H	1.447595	0.286485	0.609679
H44	H	1.356180	0.384039	0.619033
H45	H	1.509475	0.353320	0.433877
H46	H	1.418091	0.450891	0.443206
H47	H	1.478320	0.516096	0.588269
H48	H	1.569729	0.418534	0.578914
H49	H	1.565932	0.512598	0.480792
C50	C	1.095812	0.004721	0.175765
C51	C	1.034361	-0.061615	0.259234
C52	C	0.973534	-0.127189	0.206543
H53	H	1.141661	-0.043861	0.124886
H54	H	1.050369	0.053826	0.134295
H55	H	1.079799	-0.110715	0.300686
H56	H	0.988492	-0.013063	0.310118
H57	H	0.928091	-0.078084	0.165073
H58	H	1.019391	-0.175764	0.155665
H59	H	0.931825	-0.172198	0.263169
C60	C	0.540924	0.152887	0.055833
C61	C	0.552403	0.246870	0.116472
C62	C	0.490692	0.238295	0.225330
H63	H	0.563871	0.084524	0.095729
H64	H	0.468317	0.151703	0.048643
H65	H	0.624995	0.248043	0.123666
H66	H	0.529449	0.315247	0.076610
H67	H	0.418085	0.237110	0.218141
H68	H	0.513646	0.169928	0.265216
H69	H	0.498465	0.302064	0.266483
H70	H	0.916327	0.159178	0.092000
C71	C	1.080076	-0.012302	0.424200
C72	C	1.086298	-0.005411	0.539862
C73	C	1.018018	-0.079052	0.606279
H74	H	1.100465	-0.088432	0.402900
H75	H	1.009138	0.009217	0.412107
H76	H	1.157221	-0.026937	0.551949
H77	H	1.065900	0.070701	0.561197
H78	H	0.947080	-0.057533	0.594186
H79	H	1.038413	-0.155177	0.584970
H80	H	1.022223	-0.074378	0.684763
C81	C	0.699749	0.150422	0.142093
C82	C	0.733903	0.049501	0.200430
C83	C	0.672336	0.040450	0.309331
H84	H	0.627143	0.149105	0.135015
H85	H	0.707440	0.214056	0.183482
H86	H	0.726203	-0.014117	0.159050
H87	H	0.806500	0.050794	0.207539
H88	H	0.680027	0.104084	0.350720
H89	H	0.599734	0.039137	0.302241
H90	H	0.695508	-0.028019	0.348929
C91	C	0.568730	0.182404	-0.374688
C92	C	0.646387	0.190852	-0.472396
C93	C	0.598125	0.196246	-0.570083
H94	H	0.518343	0.247419	-0.373945
H95	H	0.533714	0.115299	-0.375425
H96	H	0.681385	0.257950	-0.471659
H97	H	0.696778	0.125845	-0.473177
H98	H	0.563109	0.129141	-0.570820
H99	H	0.547739	0.261262	-0.569328
H100	H	0.650808	0.201969	-0.636389
C101	C	0.957218	0.187678	-0.311805
C102	C	1.009579	0.287484	-0.323137
C103	C	1.071437	0.296532	-0.431880
H104	H	0.912675	0.190506	-0.368373
H105	H	1.008222	0.123288	-0.321307
H106	H	0.958581	0.351859	-0.313647
H107	H	1.054141	0.284679	-0.266595
H108	H	1.122441	0.232142	-0.441382
H109	H	1.026886	0.299356	-0.488439
H110	H	1.106979	0.364245	-0.439580
C111	C	1.364728	0.295425	0.147842
C112	C	1.305484	0.376252	0.086007
C113	C	1.373582	0.450190	0.019770
H114	H	1.416075	0.252866	0.096312
H115	H	1.399751	0.333330	0.196395
H116	H	1.270478	0.338351	0.037458
H117	H	1.254140	0.418837	0.137508
H118	H	1.408606	0.488095	0.068324
H119	H	1.424926	0.407622	-0.031753
H120	H	1.333394	0.505047	-0.022185
H121	H	1.399419	0.332530	0.337908
H122	H	1.151663	0.064877	0.578094
