data_functionalizedCrystal
_audit_creation_method	'MofGen! by Chris Wilmer'
_symmetry_space_group_name_H-M	'P1'
_symmetry_Int_Tables_number	1
_symmetry_cell_setting	triclinic
loop_
_symmetry_equiv_pos_as_xyz
  x,y,z
_cell_length_a	17.038278
_cell_length_b	17.038272
_cell_length_c	9.730223
_cell_angle_alpha	89.998176
_cell_angle_beta	89.999541
_cell_angle_gamma	91.111028
loop_
_atom_site_label
_atom_site_type_symbol
_atom_site_fract_x
_atom_site_fract_y
_atom_site_fract_z
O1	O	1.048749	0.170523	-0.114303
O2	O	0.820938	0.167818	-0.114304
O3	O	0.933490	0.055265	-0.114293
O4	O	0.936197	0.283076	-0.114314
O5	O	0.933488	0.055268	0.114287
O6	O	0.820937	0.167821	0.114276
O7	O	1.048748	0.170526	0.114277
Zn8	Zn	0.934842	0.169174	0.150568
Zn9	Zn	0.934844	0.169170	-0.150595
O10	O	0.936196	0.283079	0.114266
C11	C	0.791645	0.165356	-0.000014
C12	C	0.704361	0.158009	-0.000014
C13	C	0.931026	0.025974	-0.000003
C14	C	0.923678	-0.061310	-0.000003
C15	C	0.210935	0.112872	-0.000014
C16	C	0.292947	0.119781	-0.000007
C17	C	0.329347	0.194155	-0.000020
C18	C	0.283730	0.261623	-0.000027
C19	C	0.201720	0.254713	-0.000025
C20	C	0.576734	0.218567	-0.000018
C21	C	0.658751	0.225473	-0.000025
C22	C	0.667962	0.083630	-0.000002
C23	C	0.585949	0.076726	-0.000008
C24	C	0.540340	0.144194	-0.000008
C25	C	0.413176	0.201219	-0.000017
C26	C	0.456513	0.137129	-0.000001
C27	C	0.991142	-0.106920	-0.000002
C28	C	0.984233	-0.188932	-0.000015
C29	C	0.909859	-0.225332	-0.000019
C30	C	0.842391	-0.179716	-0.000025
C31	C	0.849300	-0.097706	-0.000022
C32	C	0.885449	-0.472720	-0.000038
C33	C	0.878544	-0.554736	-0.000037
C34	C	1.020387	-0.563946	-0.000030
C35	C	1.027290	-0.481934	-0.000018
C36	C	0.959821	-0.436325	-0.000031
C37	C	0.902796	-0.309161	-0.000028
C38	C	0.966886	-0.352497	-0.000032
C39	C	1.078041	0.172988	-0.000016
C40	C	1.165325	0.180335	-0.000026
C41	C	0.938660	0.312370	-0.000027
C42	C	0.946008	0.399654	-0.000036
N43	N	0.934847	0.169176	0.356105
N44	N	0.934845	0.169162	-0.356132
C45	C	0.984699	0.119357	0.428036
C46	C	0.984697	0.119347	0.571919
C47	C	0.884987	0.218983	0.571927
C48	C	0.884986	0.218989	0.428047
C49	C	1.042269	0.061835	0.428032
C50	C	1.042266	0.061825	0.571915
H51	H	0.181305	0.052309	-0.000012
H52	H	0.313374	0.322180	-0.000030
H53	H	0.781834	-0.209360	-0.000038
H54	H	0.426872	0.076575	-0.000006
H55	H	0.830511	-0.435595	-0.000048
H56	H	0.688384	0.286039	-0.000016
H57	H	1.100363	0.084248	0.383404
H58	H	0.844385	0.259548	0.369482
H59	H	0.330080	0.064845	0.000008
H60	H	0.539609	0.273505	-0.000025
H61	H	0.844391	0.259539	0.630518
H62	H	1.025378	0.000729	0.388984
H63	H	0.556319	0.016163	0.000003
H64	H	1.019898	0.003710	0.616536
H65	H	0.442822	0.261775	-0.000031
H66	H	1.087852	-0.452303	-0.000014
H67	H	0.164585	0.309649	-0.000029
H68	H	0.794364	-0.060571	-0.000023
H69	H	0.842240	-0.338808	-0.000029
H70	H	0.705105	0.028701	-0.000000
H71	H	1.103362	0.078762	0.610964
H72	H	1.039169	-0.226064	-0.000010
H73	H	1.051704	-0.077289	0.000011
H74	H	1.075316	-0.601089	-0.000022
H75	H	0.817978	-0.584370	-0.000019
H76	H	1.027440	-0.322857	-0.000058
