data_functionalizedCrystal
_audit_creation_method	'MofGen! by Chris Wilmer'
_symmetry_space_group_name_H-M	'P1'
_symmetry_Int_Tables_number	1
_symmetry_cell_setting	triclinic
loop_
_symmetry_equiv_pos_as_xyz
  x,y,z
_cell_length_a	19.805407
_cell_length_b	19.805405
_cell_length_c	19.805399
_cell_angle_alpha	90.030709
_cell_angle_beta	89.989546
_cell_angle_gamma	89.967368
loop_
_atom_site_label
_atom_site_type_symbol
_atom_site_fract_x
_atom_site_fract_y
_atom_site_fract_z
Zn1	Zn	1.034718	0.269357	-0.382595
Zn2	Zn	1.534718	0.769357	0.117405
Zn3	Zn	1.034638	0.382548	-0.269404
Zn4	Zn	1.534638	0.882548	0.230596
Zn5	Zn	0.921538	0.269391	-0.269433
Zn6	Zn	1.421538	0.769391	0.230567
Zn7	Zn	0.921496	0.382522	-0.382563
Zn8	Zn	1.421496	0.882522	0.117437
O9	O	0.978097	0.325955	-0.325999
O10	O	1.478097	0.825955	0.174001
O11	O	1.129424	0.284369	-0.367582
O12	O	1.629424	0.784369	0.132418
O13	O	1.019619	0.367563	-0.174691
O14	O	1.519619	0.867563	0.325309
O15	O	0.936602	0.174670	-0.284470
O16	O	1.436602	0.674670	0.215530
O17	O	1.129365	0.367530	-0.284420
O18	O	1.629365	0.867530	0.215580
O19	O	1.019755	0.174645	-0.367610
O20	O	1.519755	0.674645	0.132390
O21	O	0.936525	0.284427	-0.174712
O22	O	1.436525	0.784427	0.325288
O23	O	0.826816	0.284401	-0.284438
O24	O	1.326816	0.784401	0.215562
O25	O	0.936531	0.367485	-0.477284
O26	O	1.436531	0.867485	0.022716
O27	O	0.826785	0.367518	-0.367555
O28	O	1.326785	0.867518	0.132445
O29	O	1.019715	0.284344	-0.477308
O30	O	1.519715	0.784344	0.022692
O31	O	1.019578	0.477261	-0.284389
O32	O	1.519578	0.977261	0.215611
O33	O	0.936454	0.477242	-0.367527
O34	O	1.436454	0.977242	0.132473
C35	C	0.802241	0.325961	-0.325997
C36	C	1.302241	0.825961	0.174003
C37	C	0.727009	0.325980	-0.326012
C38	C	1.227009	0.825980	0.173988
C39	C	0.978021	0.501811	-0.325966
C40	C	1.478021	1.001811	0.174034
C41	C	0.978051	0.577043	-0.325975
C42	C	1.478051	1.077043	0.174025
C43	C	0.978127	0.325908	-0.502542
C44	C	1.478127	0.825908	-0.002542
C45	C	0.978140	0.325888	-0.577774
C46	C	1.478140	0.825888	-0.077774
C47	C	1.154640	0.325949	-0.326001
C48	C	1.654640	0.825949	0.173999
C49	C	1.229872	0.325946	-0.326002
C50	C	1.729872	0.825946	0.173998
C51	C	1.265248	0.282650	-0.369299
C52	C	1.765248	0.782650	0.130701
C53	C	1.335936	0.282657	-0.369303
C54	C	1.835936	0.782657	0.130697
C55	C	1.371248	0.325957	-0.326007
C56	C	1.871248	0.825957	0.173993
C57	C	1.335867	0.369258	-0.282708
C58	C	1.835867	0.869258	0.217292
C59	C	1.265180	0.369254	-0.282708
C60	C	1.765180	0.869254	0.217292
C61	C	1.620940	0.369274	-0.282709
C62	C	2.120940	0.869274	0.217291
C63	C	1.691632	0.369273	-0.282711
C64	C	2.191632	0.869273	0.217289
C65	C	1.691697	0.282677	-0.369304
C66	C	2.191697	0.782677	0.130696
C67	C	1.621010	0.282673	-0.369304
C68	C	2.121010	0.782673	0.130696
C69	C	1.585635	0.325976	-0.326008
C70	C	2.085635	0.825976	0.173992
C71	C	1.508987	0.325970	-0.326005
C72	C	2.008987	0.825970	0.173995
C73	C	1.447895	0.325961	-0.326006
C74	C	1.947895	0.825961	0.173994
C75	C	0.978192	0.149412	-0.326046
C76	C	1.478192	0.649412	0.173954
C77	C	0.978233	0.074180	-0.326067
C78	C	1.478233	0.574180	0.173933
C79	C	1.021376	0.612374	-0.282730
C80	C	1.521376	1.112374	0.217270
C81	C	1.021404	0.683063	-0.282745
C82	C	1.521404	1.183063	0.217255
C83	C	0.978104	0.718418	-0.326002
C84	C	1.478104	1.218418	0.173998
C85	C	0.934777	0.683081	-0.369251
C86	C	1.434777	1.183081	0.130749
C87	C	0.934752	0.612394	-0.369239
C88	C	1.434752	1.112394	0.130761
C89	C	0.934877	0.968155	-0.369301
C90	C	1.434877	1.468155	0.130699
C91	C	0.934904	1.038847	-0.369308
C92	C	1.434904	1.538847	0.130692
C93	C	1.021529	1.038823	-0.282807
C94	C	1.521529	1.538823	0.217193
C95	C	1.021504	0.968136	-0.282795
C96	C	1.521504	1.468136	0.217205
C97	C	0.978180	0.932805	-0.326047
C98	C	1.478180	1.432805	0.173953
C99	C	0.978150	0.856157	-0.326031
C100	C	1.478150	1.356157	0.173969
C101	C	0.978130	0.795065	-0.326015
C102	C	1.478130	1.295065	0.173985
C103	C	0.934885	0.282594	-0.613128
C104	C	1.434885	0.782594	-0.113128
C105	C	0.934894	0.282581	-0.683817
C106	C	1.434894	0.782581	-0.183817
C107	C	0.978162	0.325858	-0.719149
C108	C	1.478162	0.825858	-0.219149
C109	C	1.021419	0.369156	-0.683790
C110	C	1.521419	0.869156	-0.183790
C111	C	1.021406	0.369172	-0.613102
C112	C	1.521406	0.869172	-0.113102
C113	C	1.021473	0.369093	-0.968863
C114	C	1.521473	0.869093	-0.468863
C115	C	1.021484	0.369072	-1.039555
C116	C	1.521484	0.869072	-0.539555
C117	C	0.934961	0.282502	-1.039577
C118	C	1.434961	0.782502	-0.539577
C119	C	0.934948	0.282518	-0.968890
C120	C	1.434948	0.782518	-0.468890
C121	C	0.978202	0.325818	-0.933537
C122	C	1.478202	0.825818	-0.433537
C123	C	0.978190	0.325833	-0.856888
C124	C	1.478190	0.825833	-0.356888
C125	C	0.978178	0.325841	-0.795796
C126	C	1.478178	0.825841	-0.295796
C127	C	0.978107	0.325953	-0.150143
C128	C	1.478107	0.825953	0.349857
C129	C	0.978225	0.325782	-0.074911
C130	C	1.478225	0.825782	0.425089
H131	H	1.236502	0.247386	-0.404552
H132	H	1.736502	0.747386	0.095448
H133	H	0.899717	0.247275	-0.940126
H134	H	1.399717	0.747275	-0.440126
O135	O	1.068091	0.574247	-0.236082
O136	O	1.568091	1.074247	0.263918
H137	H	1.060796	0.519158	-0.243337
H138	H	1.560796	1.019158	0.256663
O139	O	1.068132	0.721172	-0.236101
O140	O	1.568132	1.221172	0.263899
H141	H	1.056543	0.707658	-0.182968
H142	H	1.556543	1.207658	0.317032
H143	H	0.899669	0.247330	-0.712599
H144	H	1.399669	0.747330	-0.212599
H145	H	1.364736	0.247403	-0.404562
H146	H	1.864736	0.747403	0.095438
H147	H	1.720381	0.404536	-0.247453
H148	H	2.220381	0.904536	0.252547
O149	O	1.373954	0.415956	-0.236008
O150	O	1.873954	0.915956	0.263992
H151	H	1.360364	0.469076	-0.247605
H152	H	1.860364	0.969076	0.252395
H153	H	0.899740	0.247247	-1.068371
H154	H	1.399740	0.747247	-0.568371
O155	O	0.888136	0.930065	-0.415945
O156	O	1.388136	1.430065	0.084055
H157	H	0.918387	0.897813	-0.450414
H158	H	1.418387	1.397813	0.049586
H159	H	1.592147	0.404532	-0.247453
H160	H	2.092147	0.904532	0.252547
O161	O	0.888202	1.076987	-0.415966
O162	O	1.388202	1.576987	0.084034
H163	H	0.899779	1.063383	-0.469097
H164	H	1.399779	1.563383	0.030903
O165	O	1.227019	0.415947	-0.236005
O166	O	1.727019	0.915947	0.263995
H167	H	1.263447	0.446051	-0.205893
H168	H	1.763447	0.946051	0.294107
O169	O	1.582922	0.235972	-0.416001
O170	O	2.082922	0.735972	0.083999
H171	H	1.619397	0.205870	-0.446114
H172	H	2.119397	0.705870	0.053886
O173	O	1.729849	0.235974	-0.416010
O174	O	2.229849	0.735974	0.083990
H175	H	1.784935	0.243253	-0.408745
H176	H	2.284935	0.743253	0.091255
H177	H	0.899524	0.711873	-0.404474
H178	H	1.399524	1.211873	0.095526
O179	O	0.888216	0.235914	-0.575025
O180	O	1.388216	0.735914	-0.075025
H181	H	0.918525	0.201480	-0.542836
H182	H	1.418525	0.701480	-0.042836
O183	O	0.888016	0.574289	-0.415880
O184	O	1.388016	1.074289	0.084120
H185	H	0.918276	0.542037	-0.450342
H186	H	1.418276	1.042037	0.049658
H187	H	1.056720	0.404316	-1.068321
H188	H	1.556720	0.904316	-0.568321
O189	O	1.068210	0.930001	-0.236145
O190	O	1.568210	1.430001	0.263855
H191	H	1.098348	0.966446	-0.206081
H192	H	1.598348	1.466446	0.293919
H193	H	1.056808	1.067598	-0.247592
H194	H	1.556808	1.567598	0.252408
H195	H	1.056685	0.404358	-0.940087
H196	H	1.556685	0.904358	-0.440087
H197	H	1.056633	0.404421	-0.584318
H198	H	1.556633	0.904421	-0.084318
H199	H	1.056645	0.404397	-0.712563
H200	H	1.556645	0.904397	-0.212563
