data_functionalizedCrystal
_audit_creation_method	'MofGen! by Chris Wilmer'
_symmetry_space_group_name_H-M	'P1'
_symmetry_Int_Tables_number	1
_symmetry_cell_setting	triclinic
loop_
_symmetry_equiv_pos_as_xyz
  x,y,z
_cell_length_a	25.639243
_cell_length_b	25.639240
_cell_length_c	25.639234
_cell_angle_alpha	89.971713
_cell_angle_beta	89.986440
_cell_angle_gamma	90.035481
loop_
_atom_site_label
_atom_site_type_symbol
_atom_site_fract_x
_atom_site_fract_y
_atom_site_fract_z
Zn1	Zn	0.799234	-0.208164	-0.295630
Zn2	Zn	1.299234	0.291836	0.204370
Zn3	Zn	0.799170	-0.295587	-0.208183
Zn4	Zn	1.299170	0.204413	0.291817
Zn5	Zn	0.711814	-0.208171	-0.208203
Zn6	Zn	1.211814	0.291829	0.291797
Zn7	Zn	0.711765	-0.295575	-0.295582
Zn8	Zn	1.211765	0.204425	0.204418
O9	O	0.755496	-0.251874	-0.251900
O10	O	1.255496	0.248126	0.248100
O11	O	0.872391	-0.219763	-0.284041
O12	O	1.372391	0.280237	0.215959
O13	O	0.787576	-0.283999	-0.135020
O14	O	1.287576	0.216001	0.364980
O15	O	0.723458	-0.135005	-0.219829
O16	O	1.223458	0.364995	0.280171
O17	O	0.872344	-0.283992	-0.219794
O18	O	1.372344	0.216008	0.280206
O19	O	0.787685	-0.135000	-0.284061
O20	O	1.287685	0.365000	0.215939
O21	O	0.723396	-0.219775	-0.135035
O22	O	1.223396	0.280225	0.364965
O23	O	0.638642	-0.219763	-0.219783
O24	O	1.138642	0.280237	0.280217
O25	O	0.723374	-0.283972	-0.368754
O26	O	1.223374	0.216028	0.131246
O27	O	0.638606	-0.283978	-0.283980
O28	O	1.138606	0.216022	0.216020
O29	O	0.787637	-0.219751	-0.368789
O30	O	1.287637	0.280249	0.131211
O31	O	0.787528	-0.368750	-0.219749
O32	O	1.287528	0.131250	0.280251
O33	O	0.723312	-0.368741	-0.283960
O34	O	1.223312	0.131259	0.216040
C35	C	0.619653	-0.251871	-0.251879
C36	C	1.119653	0.248129	0.248121
C37	C	0.561539	-0.251882	-0.251882
C38	C	1.061539	0.248118	0.248118
C39	C	0.201195	-0.218483	-0.285409
C40	C	0.701195	0.281517	0.214591
C41	C	0.146591	-0.218482	-0.285412
C42	C	0.646591	0.281518	0.214588
O43	O	0.118370	-0.190076	-0.313891
O44	O	0.618370	0.309924	0.186109
N45	N	0.119257	-0.251873	-0.251914
N46	N	0.619257	0.248127	0.248086
C47	C	0.146530	-0.285262	-0.218407
C48	C	0.646530	0.214738	0.281593
O49	O	0.118266	-0.313663	-0.189914
O50	O	0.618266	0.186337	0.310086
C51	C	0.201133	-0.285259	-0.218401
C52	C	0.701133	0.214741	0.281599
C53	C	0.228464	-0.251870	-0.251905
C54	C	0.728464	0.248130	0.248095
C55	C	0.228526	-0.185096	-0.318909
C56	C	0.728526	0.314904	0.181091
C57	C	0.283127	-0.185098	-0.318907
C58	C	0.783127	0.314902	0.181093
C59	C	0.310396	-0.218485	-0.285403
C60	C	0.810396	0.281515	0.214597
C61	C	0.283065	-0.251872	-0.251903
C62	C	0.783065	0.248128	0.248097
C63	C	0.228406	-0.318645	-0.184892
C64	C	0.728406	0.181355	0.315108
C65	C	0.283013	-0.318640	-0.184889
C66	C	0.783013	0.181360	0.315111
C67	C	0.310344	-0.285251	-0.218393
C68	C	0.810344	0.214749	0.281607
C69	C	0.364935	-0.285261	-0.218396
C70	C	0.864935	0.214739	0.281604
N71	N	0.392269	-0.251870	-0.251894
N72	N	0.892269	0.248130	0.248106
C73	C	0.364999	-0.218483	-0.285398
C74	C	0.864999	0.281517	0.214602
C75	C	0.031859	-0.285264	-0.218420
C76	C	0.531859	0.214736	0.281580
C77	C	-0.022743	-0.285270	-0.218428
C78	C	0.477257	0.214730	0.281572
C79	C	-0.022678	-0.218489	-0.285432
C80	C	0.477322	0.281511	0.214568
C81	C	0.031925	-0.218487	-0.285427
C82	C	0.531925	0.281513	0.214573
C83	C	0.059193	-0.251874	-0.251918
C84	C	0.559193	0.248126	0.248082
C85	C	0.479665	-0.218488	-0.285390
C86	C	0.979665	0.281512	0.214610
C87	C	0.534270	-0.218494	-0.285386
C88	C	1.034270	0.281506	0.214614
C89	C	0.534201	-0.285272	-0.218380
C90	C	1.034201	0.214728	0.281620
C91	C	0.479600	-0.285269	-0.218385
C92	C	0.979600	0.214731	0.281615
C93	C	0.452333	-0.251872	-0.251892
C94	C	0.952333	0.248128	0.248108
O95	O	0.393190	-0.313652	-0.189930
O96	O	0.893190	0.186348	0.310070
O97	O	0.393270	-0.190082	-0.313881
O98	O	0.893270	0.309918	0.186119
C99	C	0.755422	-0.387717	-0.251859
C100	C	1.255422	0.112283	0.248141
C101	C	0.755438	-0.445831	-0.251859
C102	C	1.255438	0.054169	0.248141
C103	C	0.788956	-0.806153	-0.285405
C104	C	1.288956	-0.306153	0.214595
C105	C	0.788971	-0.860757	-0.285416
C106	C	1.288971	-0.360757	0.214584
O107	O	0.817381	-0.888959	-0.313897
O108	O	1.317381	-0.388959	0.186103
N109	N	0.755568	-0.888113	-0.251950
N110	N	1.255568	-0.388113	0.248050
C111	C	0.722145	-0.860862	-0.218475
C112	C	1.222145	-0.360862	0.281525
O113	O	0.693734	-0.889145	-0.190011
O114	O	1.193734	-0.389145	0.309989
C115	C	0.722127	-0.806259	-0.218467
C116	C	1.222127	-0.306259	0.281533
C117	C	0.755535	-0.778906	-0.251932
C118	C	1.255535	-0.278906	0.248068
C119	C	0.822361	-0.778799	-0.318867
C120	C	1.322361	-0.278799	0.181133
C121	C	0.822346	-0.724199	-0.318856
C122	C	1.322346	-0.224199	0.181144
C123	C	0.788926	-0.696952	-0.285383
C124	C	1.288926	-0.196952	0.214617
C125	C	0.755520	-0.724305	-0.251920
C126	C	1.255520	-0.224305	0.248080
C127	C	0.688701	-0.779009	-0.184996
C128	C	1.188701	-0.279009	0.315004
C129	C	0.688686	-0.724402	-0.184991
C130	C	1.188686	-0.224402	0.315009
C131	C	0.722094	-0.697049	-0.218455
C132	C	1.222094	-0.197049	0.281545
C133	C	0.722085	-0.642457	-0.218435
C134	C	1.222085	-0.142457	0.281565
N135	N	0.755488	-0.615101	-0.251901
N136	N	1.255488	-0.115101	0.248099
C137	C	0.788908	-0.642348	-0.285375
C138	C	1.288908	-0.142348	0.214625
C139	C	0.722184	-0.975533	-0.218494
C140	C	1.222184	-0.475533	0.281506
C141	C	0.722203	-1.030135	-0.218499
C142	C	1.222203	-0.530135	0.281501
C143	C	0.789029	-1.030026	-0.285441
C144	C	1.289029	-0.530026	0.214559
C145	C	0.789012	-0.975423	-0.285433
C146	C	1.289012	-0.475423	0.214567
C147	C	0.755586	-0.948177	-0.251960
C148	C	1.255586	-0.448177	0.248040
C149	C	0.788875	-0.527683	-0.285348
C150	C	1.288875	-0.027683	0.214652
C151	C	0.788858	-0.473078	-0.285332
C152	C	1.288858	0.026922	0.214668
C153	C	0.722031	-0.473192	-0.218392
C154	C	1.222031	0.026808	0.281608
C155	C	0.722049	-0.527792	-0.218406
C156	C	1.222049	-0.027792	0.281594
C157	C	0.755473	-0.555037	-0.251888
C158	C	1.255473	-0.055037	0.248112
O159	O	0.693689	-0.614221	-0.189971
O160	O	1.193689	-0.114221	0.310029
O161	O	0.817309	-0.614059	-0.313839
O162	O	1.317309	-0.114059	0.186161
C163	C	0.891869	-0.251878	-0.251921
C164	C	1.391869	0.248122	0.248079
C165	C	0.949983	-0.251880	-0.251930
C166	C	1.449983	0.248120	0.248070
C167	C	0.755507	-0.251859	-0.388273
C168	C	1.255507	0.248141	0.111727
C169	C	0.755512	-0.251853	-0.446387
C170	C	1.255512	0.248147	0.053613
C171	C	0.755584	-0.115501	-0.251952
C172	C	1.255584	0.384499	0.248048
C173	C	0.755622	-0.057387	-0.251975
C174	C	1.255622	0.442613	0.248025
C175	C	0.722085	-0.285227	-0.697556
C176	C	1.222085	0.214773	-0.197556
C177	C	0.722076	-0.285238	-0.642952
C178	C	1.222076	0.214762	-0.142952
O179	O	0.693605	-0.313666	-0.614695
O180	O	1.193605	0.186334	-0.114695
N181	N	0.755532	-0.251811	-0.615661
N182	N	1.255532	0.248189	-0.115661
C183	C	0.788996	-0.218366	-0.642976
C184	C	1.288996	0.281634	-0.142976
O185	O	0.817451	-0.189933	-0.614749
O186	O	1.317451	0.310067	-0.114749
C187	C	0.789002	-0.218352	-0.697580
C188	C	1.289002	0.281648	-0.197580
C189	C	0.755547	-0.251785	-0.724868
C190	C	1.255547	0.248215	-0.224868
C191	C	0.688632	-0.318657	-0.724845
C192	C	1.188632	0.181343	-0.224845
C193	C	0.688642	-0.318646	-0.779446
C194	C	1.188642	0.181354	-0.279446
C195	C	0.722105	-0.285204	-0.806758
C196	C	1.222105	0.214796	-0.306758
C197	C	0.755557	-0.251774	-0.779469
C198	C	1.255557	0.248226	-0.279469
C199	C	0.822462	-0.184904	-0.724894
C200	C	1.322462	0.315096	-0.224894
C201	C	0.822465	-0.184893	-0.779501
C202	C	1.322465	0.315107	-0.279501
C203	C	0.789011	-0.218326	-0.806790
C204	C	1.289011	0.281674	-0.306790
C205	C	0.789029	-0.218321	-0.861381
C206	C	1.289029	0.281679	-0.361381
N207	N	0.755573	-0.251749	-0.888673
N208	N	1.255573	0.248251	-0.388673
C209	C	0.722111	-0.285190	-0.861361
C210	C	1.222111	0.214810	-0.361361
C211	C	0.788979	-0.218397	-0.528306
C212	C	1.288979	0.281603	-0.028306
C213	C	0.788976	-0.218413	-0.473703
C214	C	1.288976	0.281587	0.026297
C215	C	0.722055	-0.285286	-0.473683
C216	C	1.222055	0.214714	0.026317
C217	C	0.722062	-0.285272	-0.528286
C218	C	1.222062	0.214728	-0.028286
C219	C	0.755523	-0.251825	-0.555597
C220	C	1.255523	0.248175	-0.055597
C221	C	0.722135	-0.285164	-0.976026
C222	C	1.222135	0.214836	-0.476026
C223	C	0.722149	-0.285152	-1.030631
C224	C	1.222149	0.214848	-0.530631
C225	C	0.789068	-0.218278	-1.030647
C226	C	1.289068	0.281722	-0.530647
C227	C	0.789055	-0.218292	-0.976047
C228	C	1.289055	0.281708	-0.476047
C229	C	0.755585	-0.251737	-0.948737
C230	C	1.255585	0.248263	-0.448737
O231	O	0.817484	-0.189906	-0.889673
O232	O	1.317484	0.310094	-0.389673
O233	O	0.693655	-0.313613	-0.889595
O234	O	1.193655	0.186387	-0.389595
C235	C	0.755515	-0.251851	-0.116057
C236	C	1.255515	0.248149	0.383943
C237	C	0.755611	-0.251710	-0.057943
C238	C	1.255611	0.248290	0.442057
H239	H	-0.044991	-0.312464	-0.191152
H240	H	0.455009	0.187536	0.308848
C241	C	0.449679	-0.181758	-0.322251
C242	C	0.949679	0.318242	0.177749
H243	H	0.473783	-0.161881	-0.342204
H244	H	0.973783	0.338119	0.157796
H245	H	0.428384	-0.158944	-0.302304
H246	H	0.928384	0.341056	0.197696
H247	H	0.428376	-0.201797	-0.344998
H248	H	0.928376	0.298203	0.155002
H249	H	0.849712	-0.157653	-0.801735
H250	H	1.349712	0.342347	-0.301735
H251	H	0.816215	-0.953155	-0.312683
H252	H	1.316215	-0.453155	0.187317
C253	C	0.685243	-0.322067	-0.443633
C254	C	1.185243	0.177933	0.056367
H255	H	0.690029	-0.317280	-0.407206
H256	H	1.190029	0.182720	0.092794
H257	H	0.692868	-0.357196	-0.452569
H258	H	1.192868	0.142804	0.047431
H259	H	0.650118	-0.314406	-0.452579
H260	H	1.150118	0.185594	0.047421
C261	C	0.651835	-0.355416	-0.809456
C262	C	1.151835	0.144584	-0.309456
H263	H	0.631904	-0.375328	-0.785364
H264	H	1.131904	0.124672	-0.285364
H265	H	0.671816	-0.378197	-0.830756
H266	H	1.171816	0.121803	-0.330756
H267	H	0.629067	-0.335405	-0.830756
H268	H	1.129067	0.164595	-0.330756
H269	H	0.206162	-0.345834	-0.157609
H270	H	0.706162	0.154166	0.342391
C271	C	0.859090	-0.694114	-0.355671
C272	C	1.359090	-0.194114	0.144329
H273	H	0.854301	-0.657691	-0.350874
H274	H	1.354301	-0.157691	0.149126
H275	H	0.851412	-0.703052	-0.390793
H276	H	1.351412	-0.203052	0.109207
H277	H	0.894229	-0.703038	-0.348053
H278	H	1.394229	-0.203038	0.151947
C279	C	0.825780	-0.181642	-0.443689
C280	C	1.325780	0.318358	0.056311
H281	H	0.820988	-0.186437	-0.407257
H282	H	1.320988	0.313563	0.092743
H283	H	0.818153	-0.146511	-0.452650
H284	H	1.318153	0.353489	0.047350
H285	H	0.860907	-0.189298	-0.452640
H286	H	1.360907	0.310702	0.047360
C287	C	0.685350	-0.321931	-1.060648
C288	C	1.185350	0.178069	-0.560648
H289	H	0.690150	-0.317141	-1.097081
H290	H	1.190150	0.182859	-0.597081
H291	H	0.650224	-0.314282	-1.051700
H292	H	1.150224	0.185718	-0.551700
H293	H	0.692984	-0.357063	-1.051687
H294	H	1.192984	0.142937	-0.551687
C295	C	0.651825	-0.355450	-0.694810
C296	C	1.151825	0.144550	-0.194810
H297	H	0.631909	-0.375358	-0.718890
H298	H	1.131909	0.124642	-0.218890
H299	H	0.629049	-0.335464	-0.673509
H300	H	1.129049	0.164536	-0.173509
H301	H	0.671813	-0.378241	-0.673511
H302	H	1.171813	0.121759	-0.173511
H303	H	0.849576	-0.800978	-0.346129
H304	H	1.349576	-0.300978	0.153871
C305	C	0.685420	-0.945567	-0.181665
C306	C	1.185420	-0.445567	0.318335
H307	H	0.665535	-0.969683	-0.161734
H308	H	1.165535	-0.469683	0.338266
H309	H	0.662614	-0.924273	-0.201635
H310	H	1.162614	-0.424273	0.298365
H311	H	0.705434	-0.924264	-0.158897
H312	H	1.205434	-0.424264	0.341103
H313	H	0.206329	-0.157905	-0.346192
H314	H	0.706329	0.342095	0.153808
H315	H	0.054058	-0.312457	-0.191135
H316	H	0.554058	0.187543	0.308865
H317	H	0.816301	-0.191071	-0.953827
H318	H	1.316301	0.308929	-0.453827
C319	C	0.651947	-0.809086	-0.148188
C320	C	1.151947	-0.309086	0.351812
H321	H	0.632039	-0.785031	-0.128260
H322	H	1.132039	-0.285031	0.371740
H323	H	0.671961	-0.830386	-0.125425
H324	H	1.171961	-0.330386	0.374575
H325	H	0.629155	-0.830391	-0.168175
H326	H	1.129155	-0.330391	0.331825
H327	H	0.054174	-0.191298	-0.312708
H328	H	0.554174	0.308702	0.187292
C329	C	0.825788	-1.060005	-0.322264
C330	C	1.325788	-0.560005	0.177736
H331	H	0.821008	-1.096441	-0.317477
H332	H	1.321008	-0.596441	0.182523
H333	H	0.860922	-1.051032	-0.314649
H334	H	1.360922	-0.551032	0.185351
H335	H	0.818104	-1.051042	-0.357387
H336	H	1.318104	-0.551042	0.142613
H337	H	0.305212	-0.345827	-0.157601
H338	H	0.805212	0.154173	0.342399
C339	C	0.564201	-0.321999	-0.181531
C340	C	1.064201	0.178001	0.318469
H341	H	0.540107	-0.341890	-0.161580
H342	H	1.040107	0.158110	0.338420
H343	H	0.585510	-0.301966	-0.158790
H344	H	1.085510	0.198034	0.341210
H345	H	0.585492	-0.344810	-0.201492
H346	H	1.085492	0.155190	0.298508
H347	H	0.694849	-0.550065	-0.191153
H348	H	1.194849	-0.050065	0.308847
C349	C	0.685457	-1.060218	-0.181685
C350	C	1.185457	-0.560218	0.318315
H351	H	0.665551	-1.036166	-0.161752
H352	H	1.165551	-0.536166	0.338248
H353	H	0.705477	-1.081518	-0.158926
H354	H	1.205477	-0.581518	0.341074
H355	H	0.662664	-1.081523	-0.201670
H356	H	1.162664	-0.581523	0.298330
H357	H	0.661465	-0.702221	-0.157734
H358	H	1.161465	-0.202221	0.342266
C359	C	0.825605	-0.442992	-0.322149
C360	C	1.325605	0.057008	0.177851
H361	H	0.845505	-0.467043	-0.342090
H362	H	1.345505	0.032957	0.157910
H363	H	0.848396	-0.421683	-0.302171
H364	H	1.348396	0.078317	0.197829
H365	H	0.805576	-0.421696	-0.344908
H366	H	1.305576	0.078304	0.155092
C367	C	0.825797	-0.181610	-0.558343
C368	C	1.325797	0.318390	-0.058343
H369	H	0.845723	-0.161710	-0.534265
H370	H	1.345723	0.338290	-0.034265
H371	H	0.805820	-0.158820	-0.579649
H372	H	1.305820	0.341180	-0.079649
H373	H	0.848571	-0.201610	-0.579639
H374	H	1.348571	0.298390	-0.079639
H375	H	0.694819	-0.312496	-0.550501
H376	H	1.194819	0.187504	-0.050501
H377	H	0.849705	-0.157679	-0.702685
H378	H	1.349705	0.342321	-0.202685
C379	C	0.449535	-0.321999	-0.181536
C380	C	0.949535	0.178001	0.318464
H381	H	0.473598	-0.341882	-0.161582
H382	H	0.973598	0.158118	0.338418
H383	H	0.428222	-0.344807	-0.201491
H384	H	0.928222	0.155193	0.298509
H385	H	0.428244	-0.301961	-0.158791
H386	H	0.928244	0.198039	0.341209
H387	H	-0.044891	-0.191302	-0.312711
H388	H	0.455109	0.308698	0.187289
C389	C	0.685268	-0.443215	-0.181576
C390	C	1.185268	0.056785	0.318424
H391	H	0.665374	-0.467324	-0.161644
H392	H	1.165374	0.032676	0.338356
H393	H	0.662471	-0.421923	-0.201557
H394	H	1.162471	0.078077	0.298443
H395	H	0.705280	-0.421911	-0.158809
H396	H	1.205280	0.078089	0.341191
H397	H	0.694875	-0.312394	-0.953797
H398	H	1.194875	0.187606	-0.453797
C399	C	0.313187	-0.148368	-0.355758
C400	C	0.813187	0.351632	0.144242
H401	H	0.349613	-0.153148	-0.350965
H402	H	0.849613	0.346852	0.149035
H403	H	0.304253	-0.113229	-0.348175
H404	H	0.804253	0.386771	0.151825
H405	H	0.304241	-0.156076	-0.390874
H406	H	0.804241	0.343924	0.109126
C407	C	0.825644	-0.557645	-0.322173
C408	C	1.325644	-0.057645	0.177827
H409	H	0.845539	-0.533527	-0.342093
H410	H	1.345539	-0.033527	0.157907
H411	H	0.805641	-0.578950	-0.344943
H412	H	1.305641	-0.078950	0.155057
H413	H	0.848449	-0.578935	-0.302194
H414	H	1.348449	-0.078935	0.197806
C415	C	0.825869	-0.181491	-1.060697
C416	C	1.325869	0.318509	-0.560697
H417	H	0.821076	-0.186270	-1.097124
H418	H	1.321076	0.313730	-0.597124
H419	H	0.860995	-0.189138	-1.051755
H420	H	1.360995	0.310862	-0.551755
H421	H	0.818230	-0.146362	-1.051758
H422	H	1.318230	0.353638	-0.551758
H423	H	0.556520	-0.191304	-0.312670
H424	H	1.056520	0.308696	0.187330
