data_functionalizedCrystal
_audit_creation_method	'MofGen! by Chris Wilmer'
_symmetry_space_group_name_H-M	'P1'
_symmetry_Int_Tables_number	1
_symmetry_cell_setting	triclinic
loop_
_symmetry_equiv_pos_as_xyz
  x,y,z
_cell_length_a	14.044191
_cell_length_b	16.109301
_cell_length_c	15.186229
_cell_angle_alpha	89.994833
_cell_angle_beta	89.999039
_cell_angle_gamma	88.326629
loop_
_atom_site_label
_atom_site_type_symbol
_atom_site_fract_x
_atom_site_fract_y
_atom_site_fract_z
O1	O	1.257645	0.200463	-0.073191
O2	O	0.981678	0.193224	-0.073202
O3	O	1.127242	0.076377	-0.073187
O4	O	1.112080	0.317311	-0.073206
O5	O	1.127233	0.076375	0.073270
O6	O	0.981668	0.193222	0.073255
O7	O	1.257635	0.200461	0.073266
Zn8	Zn	1.119650	0.196841	0.096514
Zn9	Zn	1.119663	0.196844	-0.096450
O10	O	1.112071	0.317308	0.073251
C11	C	1.126623	0.045355	0.000042
C12	C	1.124782	-0.047077	0.000043
C13	C	0.946359	0.190056	0.000025
C14	C	0.841136	0.180610	0.000021
C15	C	1.206876	-0.263240	0.000032
C16	C	1.205138	-0.350089	0.000025
C17	C	1.032431	-0.343068	0.000021
C18	C	1.034169	-0.256220	0.000022
C19	C	1.121395	-0.216308	0.000032
C20	C	1.117918	-0.390006	0.000024
C21	C	1.116034	-0.484173	0.000016
C22	C	1.123280	-0.122136	0.000039
C23	C	0.590834	0.230335	0.000026
C24	C	0.648484	0.163354	0.000030
C25	C	0.755686	0.172958	0.000025
C26	C	0.483623	0.220733	0.000031
C27	C	1.292954	0.203629	0.000037
C28	C	1.398177	0.213075	0.000035
C29	C	1.112690	0.348330	0.000020
C30	C	1.114531	0.440762	0.000013
N31	N	1.119648	0.196839	0.228207
N32	N	1.119672	0.196841	-0.228143
C33	C	1.184126	0.145119	0.453936
C34	C	1.184129	0.145118	0.546126
C35	C	1.055187	0.248562	0.546122
C36	C	1.055181	0.248559	0.453934
C37	C	1.119655	0.196839	0.407843
C38	C	1.119665	0.196840	0.592221
C39	C	1.119668	0.196839	0.692177
C40	C	1.119652	0.196839	0.307881
H41	H	1.277900	-0.230746	0.000038
Cl42	Cl	0.926698	-0.197216	0.000015
H43	H	0.617329	0.098797	-0.000027
Cl44	Cl	0.638934	0.330000	0.000008
H45	H	1.236624	0.103005	0.416411
H46	H	1.236626	0.103002	0.583652
Cl47	Cl	0.974141	0.313582	0.604068
Cl48	Cl	0.974121	0.313579	0.395983
H49	H	1.274746	-0.388298	0.000023
Cl50	Cl	0.922782	-0.393250	0.000009
