data_functionalizedCrystal
_audit_creation_method	'MofGen! by Chris Wilmer'
_symmetry_space_group_name_H-M	'P1'
_symmetry_Int_Tables_number	1
_symmetry_cell_setting	triclinic
loop_
_symmetry_equiv_pos_as_xyz
  x,y,z
_cell_length_a	11.026607
_cell_length_b	16.974885
_cell_length_c	15.455341
_cell_angle_alpha	96.647249
_cell_angle_beta	92.339460
_cell_angle_gamma	95.963696
loop_
_atom_site_label
_atom_site_type_symbol
_atom_site_fract_x
_atom_site_fract_y
_atom_site_fract_z
O1	O	0.154782	1.071294	0.003003
O2	O	0.654782	1.571294	0.503003
O3	O	0.173436	0.843059	-0.013005
O4	O	0.673436	1.343059	0.486995
O5	O	-0.012599	0.938261	-0.006324
O6	O	0.487401	1.438261	0.493676
O7	O	0.340817	0.976092	-0.003677
O8	O	0.840817	1.476092	0.496323
O9	O	-0.003101	0.945815	0.138467
O10	O	0.496899	1.445815	0.638467
O11	O	0.182934	0.850613	0.131786
O12	O	0.682934	1.350613	0.631786
O13	O	0.164279	1.078849	0.147794
O14	O	0.664279	1.578849	0.647794
Cu15	Cu	0.174474	0.965421	0.153011
Cu16	Cu	0.674474	1.465421	0.653011
Cu17	Cu	0.163242	0.956487	-0.018221
Cu18	Cu	0.663242	1.456487	0.481779
O19	O	0.350314	0.983647	0.141114
O20	O	0.850314	1.483647	0.641114
C21	C	0.177301	0.817163	0.057310
C22	C	0.677301	1.317163	0.557310
C23	C	0.174650	0.728744	0.051108
C24	C	0.674650	1.228744	0.551108
C25	C	-0.053081	0.935059	0.065581
C26	C	0.446919	1.435059	0.565581
C27	C	-0.187855	0.914253	0.064118
C28	C	0.312145	1.414253	0.564118
C29	C	0.159133	0.230592	0.007668
C30	C	0.659133	0.730592	0.507668
C31	C	0.161624	0.313671	0.013507
C32	C	0.661624	0.813671	0.513507
C33	C	0.168056	0.359322	0.095352
C34	C	0.668056	0.859322	0.595352
C35	C	0.171984	0.321888	0.171364
C36	C	0.671984	0.821888	0.671364
C37	C	0.169484	0.238809	0.165525
C38	C	0.669484	0.738809	0.665525
C39	C	0.176079	0.608231	0.121280
C40	C	0.676079	1.108231	0.621280
C41	C	0.178582	0.691316	0.127114
C42	C	0.678582	1.191316	0.627114
C43	C	0.168220	0.683093	-0.030744
C44	C	0.668220	1.183093	0.469256
C45	C	0.165728	0.600014	-0.036576
C46	C	0.665728	1.100014	0.463424
C47	C	0.169650	0.562587	0.039435
C48	C	0.669650	1.062587	0.539435
N49	N	0.170606	0.444243	0.101322
N50	N	0.670606	0.944243	0.601322
N51	N	0.167091	0.477667	0.033464
N52	N	0.667091	0.977667	0.533464
C53	C	-0.261495	0.971701	0.068146
C54	C	0.238505	1.471701	0.568146
C55	C	-0.400791	0.950198	0.066635
C56	C	0.099209	1.450198	0.566635
C57	C	0.390797	0.986849	0.069207
C58	C	0.890797	1.486849	0.569207
C59	C	0.525571	1.007654	0.070664
C60	C	1.025571	1.507654	0.570664
C61	C	0.160415	1.104745	0.077478
C62	C	0.660415	1.604745	0.577478
C63	C	0.163065	1.193163	0.083674
C64	C	0.663065	1.693163	0.583674
N65	N	0.182373	0.971711	0.273447
N66	N	0.682373	1.471711	0.773447
N67	N	0.155333	0.950202	-0.138657
N68	N	0.655333	1.450202	0.361343
C69	C	0.226156	1.006458	0.819887
C70	C	0.726156	1.506458	1.319887
C71	C	0.220174	1.001704	0.728747
C72	C	0.720174	1.501704	1.228747
C73	C	0.143361	0.940698	0.679064
C74	C	0.643361	1.440698	1.179064
C75	C	0.072536	0.884437	0.720526
C76	C	0.572536	1.384437	1.220526
C77	C	0.078525	0.889188	0.811665
C78	C	0.578525	1.389188	1.311665
C79	C	0.117537	0.920200	0.406048
C80	C	0.617537	1.420200	0.906048
C81	C	0.111550	0.915455	0.314903
C82	C	0.611550	1.415455	0.814903
C83	C	0.259191	1.032722	0.323129
C84	C	0.759191	1.532722	0.823129
C85	C	0.265168	1.037470	0.414270
C86	C	0.765168	1.537470	0.914270
C87	C	0.194348	0.981206	0.455724
C88	C	0.694348	1.481206	0.955724
N89	N	0.137241	0.935839	0.585904
N90	N	0.637241	1.435839	1.085904
N91	N	0.200475	0.986062	0.548882
N92	N	0.700475	1.486062	1.048882
H93	H	0.158415	0.344141	-0.048386
H94	H	0.658415	0.844141	0.451614
C95	C	0.421822	1.060430	0.704918
C96	C	0.921822	1.560430	1.204918
C97	C	0.298026	1.063548	0.683186
C98	C	0.798026	1.563548	1.183186
H99	H	0.469886	1.098615	0.676796
H100	H	0.969886	1.598615	1.176796
H101	H	0.443183	1.008587	0.686387
H102	H	0.943183	1.508587	1.186387
H103	H	0.436354	1.071985	0.766309
H104	H	0.936354	1.571985	1.266309
H105	H	0.283492	1.051986	0.621795
H106	H	0.783492	1.551986	1.121795
H107	H	0.276657	1.115402	0.701711
H108	H	0.776657	1.615402	1.201711
C109	C	0.283519	0.525526	0.206705
C110	C	0.783519	1.025526	0.706705
C111	C	0.180384	0.567088	0.204825
C112	C	0.680384	1.067088	0.704825
H113	H	0.286166	0.500118	0.258281
H114	H	0.786166	1.000118	0.758281
H115	H	0.355005	0.561808	0.205995
H116	H	0.855005	1.061808	0.705995
H117	H	0.279319	0.486455	0.157118
H118	H	0.779319	0.986455	0.657118
H119	H	0.184589	0.606164	0.254409
H120	H	0.684589	1.106164	0.754409
H121	H	0.108880	0.530803	0.205543
H122	H	0.608880	1.030803	0.705543
H123	H	0.288700	1.056138	0.860333
H124	H	0.788700	1.556138	1.360333
C125	C	0.083140	0.783562	0.224835
C126	C	0.583140	1.283562	0.724835
C127	C	0.185648	0.741502	0.217083
C128	C	0.685648	1.241502	0.717083
H129	H	0.087512	0.814550	0.280372
H130	H	0.587512	1.314550	0.780372
H131	H	0.011228	0.746938	0.219004
H132	H	0.511228	1.246938	0.719004
H133	H	0.081175	0.817735	0.180393
H134	H	0.581175	1.317735	0.680393
H135	H	0.187609	0.707325	0.261521
H136	H	0.687609	1.207325	0.761521
H137	H	0.257580	0.778131	0.222923
H138	H	0.757580	1.278131	0.722923
H139	H	0.020856	0.843377	0.845417
H140	H	0.520856	1.343377	1.345417
C141	C	0.155699	0.600233	-0.192027
C142	C	0.655699	1.100233	0.307973
C143	C	0.158635	0.549836	-0.126544
C144	C	0.658635	1.049836	0.373456
H145	H	0.151311	0.569252	-0.247569
H146	H	0.651311	1.069252	0.252431
H147	H	0.227621	0.636849	-0.186195
H148	H	0.727621	1.136849	0.313805
H149	H	0.086157	0.628766	-0.186733
H150	H	0.586157	1.128766	0.313267
H151	H	0.228182	0.521307	-0.131834
H152	H	0.728182	1.021307	0.368166
H153	H	0.086705	0.513206	-0.132379
H154	H	0.586705	1.013206	0.367621
C155	C	0.410523	1.152896	0.413242
C156	C	0.910523	1.652896	0.913242
C157	C	0.349615	1.104524	0.468878
C158	C	0.849615	1.604524	0.968878
H159	H	0.462661	1.194290	0.446957
H160	H	0.962661	1.694290	0.946957
H161	H	0.352446	1.175588	0.379427
H162	H	0.852446	1.675588	0.879427
H163	H	0.457786	1.121615	0.375621
H164	H	0.957786	1.621615	0.875621
H165	H	0.302345	1.135804	0.506495
H166	H	0.802345	1.635804	1.006495
H167	H	0.407700	1.081831	0.502708
H168	H	0.907700	1.581831	1.002708
H169	H	0.049001	0.865772	0.274453
H170	H	0.549001	1.365772	0.774453
H171	H	0.059866	0.874388	0.439789
H172	H	0.559866	1.374388	0.939789
H173	H	0.153904	0.193429	-0.058980
H174	H	0.653904	0.693429	0.441020
C175	C	0.285848	0.360429	0.308128
C176	C	0.785848	0.860429	0.808128
C177	C	0.179050	0.372061	0.261334
C178	C	0.679050	0.872061	0.761334
H179	H	0.290205	0.391399	0.363675
H180	H	0.790205	0.891399	0.863675
H181	H	0.354849	0.376408	0.276938
H182	H	0.854849	0.876408	0.776938
H183	H	0.284906	0.305590	0.315518
H184	H	0.784906	0.805590	0.815518
H185	H	0.179996	0.426899	0.253938
H186	H	0.679996	0.926899	0.753938
H187	H	0.110031	0.356087	0.292531
H188	H	0.610031	0.856087	0.792531
H189	H	-0.221414	1.036803	0.072718
H190	H	0.278586	1.536803	0.572718
C191	C	-0.360154	0.813298	0.057027
C192	C	0.139846	1.313298	0.557027
C193	C	-0.454877	0.862305	0.060465
C194	C	0.045123	1.362305	0.560465
H195	H	-0.393548	0.759038	0.053212
H196	H	0.106452	1.259038	0.553212
H197	H	-0.308039	0.826434	0.108255
H198	H	0.191961	1.326434	0.608255
H199	H	-0.314645	0.821177	0.007272
H200	H	0.185355	1.321177	0.507272
H201	H	-0.500381	0.854430	0.110224
H202	H	-0.000381	1.354430	0.610224
H203	H	-0.507013	0.849164	0.009231
H204	H	-0.007013	1.349164	0.509231
C205	C	-0.002218	0.825093	0.577167
C206	C	0.497782	1.325093	1.077167
C207	C	-0.011906	0.817381	0.665917
C208	C	0.488094	1.317381	1.165917
H209	H	-0.054360	0.783699	0.543457
H210	H	0.445640	1.283699	1.043457
H211	H	0.079797	0.821418	0.562021
H212	H	0.579797	1.321418	1.062021
H213	H	-0.025542	0.875391	0.565831
H214	H	0.474458	1.375391	1.065831
H215	H	0.011427	0.767085	0.677254
H216	H	0.511427	1.267085	1.177254
H217	H	-0.093939	0.821049	0.681068
H218	H	0.406061	1.321049	1.181068
H219	H	0.316850	1.078527	0.289367
H220	H	0.816850	1.578527	0.789367
C221	C	0.269283	0.777724	-0.115341
C222	C	0.769283	1.277724	0.384659
C223	C	0.163897	0.724238	-0.114290
C224	C	0.663897	1.224238	0.385710
H225	H	0.266604	0.803127	-0.166920
H226	H	0.766604	1.303127	0.333080
H227	H	0.339242	0.749531	-0.114065
H228	H	0.839242	1.249531	0.385935
H229	H	0.273460	0.816796	-0.065757
H230	H	0.773460	1.316796	0.434243
H231	H	0.159724	0.685162	-0.163872
H232	H	0.659724	1.185162	0.336128
H233	H	0.093919	0.752432	-0.115575
H234	H	0.593919	1.252432	0.384425
C235	C	0.073285	0.214273	0.297863
C236	C	0.573285	0.714273	0.797863
C237	C	0.173809	0.197667	0.249074
C238	C	0.673809	0.697667	0.749074
H239	H	0.075958	0.188878	0.349447
H240	H	0.575958	0.688878	0.849447
H241	H	0.000027	0.194920	0.264196
H242	H	0.500027	0.694920	0.764196
H243	H	0.075710	0.270287	0.313047
H244	H	0.575710	0.770287	0.813047
H245	H	0.171380	0.141653	0.233884
H246	H	0.671380	0.641653	0.733884
H247	H	0.247086	0.217016	0.282748
H248	H	0.747086	0.717016	0.782748
H249	H	-0.434361	1.072757	0.075165
H250	H	0.065639	1.572757	0.575165
H251	H	-0.227936	0.849151	0.059547
H252	H	0.272064	1.349151	0.559547
