data_functionalizedCrystal
_audit_creation_method	'MofGen! by Chris Wilmer'
_symmetry_space_group_name_H-M	'P1'
_symmetry_Int_Tables_number	1
_symmetry_cell_setting	triclinic
loop_
_symmetry_equiv_pos_as_xyz
  x,y,z
_cell_length_a	14.519709
_cell_length_b	10.489746
_cell_length_c	12.996460
_cell_angle_alpha	89.993562
_cell_angle_beta	90.000034
_cell_angle_gamma	84.110723
loop_
_atom_site_label
_atom_site_type_symbol
_atom_site_fract_x
_atom_site_fract_y
_atom_site_fract_z
O1	O	1.224782	0.167203	-0.085434
O2	O	1.474782	0.417203	0.164566
O3	O	1.724782	0.667203	0.414566
O4	O	1.974782	0.917203	0.664566
O5	O	0.956413	0.186893	-0.085465
O6	O	1.206413	0.436893	0.164535
O7	O	1.456413	0.686893	0.414535
O8	O	1.706413	0.936893	0.664535
O9	O	1.096702	-0.008613	-0.085441
O10	O	1.346702	0.241387	0.164559
O11	O	1.596702	0.491387	0.414559
O12	O	1.846702	0.741387	0.664559
O13	O	1.084493	0.362709	-0.085458
O14	O	1.334493	0.612709	0.164542
O15	O	1.584493	0.862709	0.414542
O16	O	1.834493	1.112709	0.664542
O17	O	1.096687	-0.008624	0.085693
O18	O	1.346687	0.241376	0.335693
O19	O	1.596687	0.491376	0.585693
O20	O	1.846687	0.741376	0.835693
O21	O	0.956398	0.186883	0.085669
O22	O	1.206398	0.436883	0.335669
O23	O	1.456398	0.686883	0.585669
O24	O	1.706398	0.936883	0.835669
O25	O	1.224767	0.167192	0.085700
O26	O	1.474767	0.417192	0.335700
O27	O	1.724767	0.667192	0.585700
O28	O	1.974767	0.917192	0.835700
Cu29	Cu	1.090581	0.177036	0.101310
Cu30	Cu	1.340581	0.427036	0.351310
Cu31	Cu	1.590581	0.677036	0.601310
Cu32	Cu	1.840581	0.927036	0.851310
Cu33	Cu	1.090599	0.177049	-0.101075
Cu34	Cu	1.340599	0.427049	0.148925
Cu35	Cu	1.590599	0.677049	0.398925
Cu36	Cu	1.840599	0.927049	0.648925
O37	O	1.084478	0.362699	0.085676
O38	O	1.334478	0.612699	0.335676
O39	O	1.584478	0.862699	0.585676
O40	O	1.834478	1.112699	0.835676
C41	C	0.922041	0.185970	0.000098
C42	C	1.172041	0.435970	0.250098
C43	C	1.422041	0.685970	0.500098
C44	C	1.672041	0.935970	0.750098
C45	C	0.819644	0.183221	0.000086
C46	C	1.069644	0.433221	0.250086
C47	C	1.319644	0.683221	0.500086
C48	C	1.569644	0.933221	0.750086
C49	C	0.444693	0.173097	0.000133
C50	C	0.694693	0.423097	0.250133
C51	C	0.944693	0.673097	0.500133
C52	C	1.194693	0.923097	0.750133
C53	C	0.549016	0.175908	0.000120
C54	C	0.799016	0.425908	0.250120
C55	C	1.049016	0.675908	0.500120
C56	C	1.299016	0.925908	0.750120
C57	C	0.632165	0.178159	0.000109
C58	C	0.882165	0.428159	0.250109
C59	C	1.132165	0.678159	0.500109
C60	C	1.382165	0.928159	0.750109
C61	C	0.736495	0.180970	0.000097
C62	C	0.986495	0.430970	0.250097
C63	C	1.236495	0.680970	0.500097
C64	C	1.486495	0.930970	0.750097
C65	C	1.095771	-0.056140	0.000126
C66	C	1.345771	0.193860	0.250126
C67	C	1.595771	0.443860	0.500126
C68	C	1.845771	0.693860	0.750126
C69	C	1.093009	-0.197740	0.000125
C70	C	1.343009	0.052260	0.250125
C71	C	1.593009	0.302260	0.500125
C72	C	1.843009	0.552260	0.750125
C73	C	1.002113	-0.349651	0.000101
C74	C	1.252113	-0.099651	0.250101
C75	C	1.502113	0.150349	0.500101
C76	C	1.752113	0.400349	0.750101
C77	C	1.047565	-0.272727	-0.084269
C78	C	1.297565	-0.022727	0.165731
C79	C	1.547565	0.227273	0.415731
C80	C	1.797565	0.477273	0.665731
C81	C	1.047571	-0.272779	0.084455
C82	C	1.297571	-0.022779	0.334455
C83	C	1.547571	0.227221	0.584455
C84	C	1.797571	0.477221	0.834455
C85	C	1.133587	-0.373115	-0.084339
C86	C	1.383587	-0.123115	0.165661
C87	C	1.633587	0.126885	0.415661
C88	C	1.883587	0.376885	0.665661
C89	C	1.133581	-0.373172	0.084462
C90	C	1.383581	-0.123172	0.334462
C91	C	1.633581	0.126828	0.584462
C92	C	1.883581	0.376828	0.834462
C93	C	1.179096	-0.296298	0.000070
C94	C	1.429096	-0.046298	0.250070
C95	C	1.679096	0.203702	0.500070
C96	C	1.929096	0.453702	0.750070
C97	C	1.259139	0.168116	0.000135
C98	C	1.509139	0.418116	0.250135
C99	C	1.759139	0.668116	0.500135
C100	C	2.009139	0.918116	0.750135
C101	C	1.361536	0.170865	0.000140
C102	C	1.611536	0.420865	0.250140
C103	C	1.861536	0.670865	0.500140
C104	C	2.111536	0.920865	0.750140
C105	C	1.085409	0.410226	0.000107
C106	C	1.335409	0.660226	0.250107
C107	C	1.585409	0.910226	0.500107
C108	C	1.835409	1.160226	0.750107
C109	C	1.088171	0.551826	0.000101
C110	C	1.338171	0.801826	0.250101
C111	C	1.588171	1.051826	0.500101
C112	C	1.838171	1.301826	0.750101
N113	N	1.090576	0.177027	0.243657
N114	N	1.340576	0.427027	0.493657
N115	N	1.590576	0.677027	0.743657
N116	N	1.840576	0.927027	0.993657
N117	N	1.090612	0.177049	-0.243422
N118	N	1.340612	0.427049	0.006578
N119	N	1.590612	0.677049	0.256578
N120	N	1.840612	0.927049	0.506578
C121	C	1.090597	0.177051	0.663472
C122	C	1.340597	0.427051	0.913472
C123	C	1.590597	0.677051	1.163472
C124	C	1.840597	0.927051	1.413472
C125	C	1.090589	0.177048	0.546667
C126	C	1.340589	0.427048	0.796667
C127	C	1.590589	0.677048	1.046667
C128	C	1.840589	0.927048	1.296667
C129	C	1.090587	0.177040	0.453568
C130	C	1.340587	0.427040	0.703568
C131	C	1.590587	0.677040	0.953568
C132	C	1.840587	0.927040	1.203568
C133	C	1.090577	0.177035	0.336756
C134	C	1.340577	0.427035	0.586756
C135	C	1.590577	0.677035	0.836756
C136	C	1.840577	0.927035	1.086756
H137	H	0.927282	-0.373590	0.000008
H138	H	1.177282	-0.123590	0.250008
H139	H	1.427282	0.126410	0.500008
H140	H	1.677282	0.376410	0.750008
H141	H	1.169871	-0.417054	0.155804
H142	H	1.419871	-0.167054	0.405804
H143	H	1.669871	0.082946	0.655804
H144	H	1.919871	0.332946	0.905804
H145	H	1.253983	-0.272604	0.000033
H146	H	1.503983	-0.022604	0.250033
H147	H	1.753983	0.227396	0.500033
H148	H	2.003983	0.477396	0.750033
H149	H	1.011220	-0.228960	0.155785
H150	H	1.261220	0.021040	0.405785
H151	H	1.511220	0.271040	0.655785
H152	H	1.761220	0.521040	0.905785
H153	H	1.011242	-0.228868	-0.155609
H154	H	1.261242	0.021132	0.094391
H155	H	1.511242	0.271132	0.344391
H156	H	1.761242	0.521132	0.594391
F157	F	1.181048	-0.430170	-0.177678
F158	F	1.431048	-0.180170	0.072322
F159	F	1.681048	0.069830	0.322322
F160	F	1.931048	0.319830	0.572322
