data_functionalizedCrystal
_audit_creation_method	'MofGen! by Chris Wilmer'
_symmetry_space_group_name_H-M	'P1'
_symmetry_Int_Tables_number	1
_symmetry_cell_setting	triclinic
loop_
_symmetry_equiv_pos_as_xyz
  x,y,z
_cell_length_a	18.050590
_cell_length_b	18.050589
_cell_length_c	18.050583
_cell_angle_alpha	89.968090
_cell_angle_beta	89.999666
_cell_angle_gamma	90.017386
loop_
_atom_site_label
_atom_site_type_symbol
_atom_site_fract_x
_atom_site_fract_y
_atom_site_fract_z
Zn1	Zn	1.135301	-0.295821	-0.419624
Zn2	Zn	1.385301	-0.045821	-0.169624
Zn3	Zn	1.635301	0.204179	0.080376
Zn4	Zn	1.885301	0.454179	0.330376
Zn5	Zn	1.135209	-0.420034	-0.295444
Zn6	Zn	1.385209	-0.170034	-0.045444
Zn7	Zn	1.635209	0.079966	0.204556
Zn8	Zn	1.885209	0.329966	0.454556
Zn9	Zn	1.011117	-0.295839	-0.295482
Zn10	Zn	1.261117	-0.045839	-0.045482
Zn11	Zn	1.511117	0.204161	0.204518
Zn12	Zn	1.761117	0.454161	0.454518
Zn13	Zn	1.011068	-0.419950	-0.419626
Zn14	Zn	1.261068	-0.169950	-0.169626
Zn15	Zn	1.511068	0.080050	0.080374
Zn16	Zn	1.761068	0.330050	0.330374
O17	O	1.073174	-0.357911	-0.357544
O18	O	1.323174	-0.107911	-0.107544
O19	O	1.573174	0.142089	0.142456
O20	O	1.823174	0.392089	0.392456
O21	O	1.239213	-0.312326	-0.403134
O22	O	1.489213	-0.062326	-0.153134
O23	O	1.739213	0.187674	0.096866
O24	O	1.989213	0.437674	0.346866
O25	O	1.118730	-0.403602	-0.191524
O26	O	1.368730	-0.153602	0.058476
O27	O	1.618730	0.096398	0.308476
O28	O	1.868730	0.346398	0.558476
O29	O	1.027650	-0.191912	-0.311965
O30	O	1.277650	0.058088	-0.061965
O31	O	1.527650	0.308088	0.188035
O32	O	1.777650	0.558088	0.438035
O33	O	1.239146	-0.403585	-0.311899
O34	O	1.489146	-0.153585	-0.061899
O35	O	1.739146	0.096415	0.188101
O36	O	1.989146	0.346415	0.438101
O37	O	1.118886	-0.191899	-0.403172
O38	O	1.368886	0.058101	-0.153172
O39	O	1.618886	0.308101	0.096828
O40	O	1.868886	0.558101	0.346828
O41	O	1.027561	-0.312356	-0.191553
O42	O	1.277561	-0.062356	0.058447
O43	O	1.527561	0.187644	0.308447
O44	O	1.777561	0.437644	0.558447
O45	O	0.907186	-0.312275	-0.311967
O46	O	1.157186	-0.062275	-0.061967
O47	O	1.407186	0.187725	0.188033
O48	O	1.657186	0.437725	0.438033
O49	O	1.027565	-0.403442	-0.523551
O50	O	1.277565	-0.153442	-0.273551
O51	O	1.527565	0.096558	-0.023551
O52	O	1.777565	0.346558	0.226449
O53	O	0.907150	-0.403459	-0.403175
O54	O	1.157150	-0.153459	-0.153175
O55	O	1.407150	0.096541	0.096825
O56	O	1.657150	0.346541	0.346825
O57	O	1.118838	-0.312245	-0.523549
O58	O	1.368838	-0.062245	-0.273549
O59	O	1.618838	0.187755	-0.023549
O60	O	1.868838	0.437755	0.226451
O61	O	1.118682	-0.523948	-0.311901
O62	O	1.368682	-0.273948	-0.061901
O63	O	1.618682	-0.023948	0.188099
O64	O	1.868682	0.226052	0.438099
O65	O	1.027476	-0.523886	-0.403138
O66	O	1.277476	-0.273886	-0.153138
O67	O	1.527476	-0.023886	0.096862
O68	O	1.777476	0.226114	0.346862
C69	C	0.880221	-0.357860	-0.357576
C70	C	1.130221	-0.107860	-0.107576
C71	C	1.380221	0.142140	0.142424
C72	C	1.630221	0.392140	0.392424
C73	C	0.797676	-0.357857	-0.357607
C74	C	1.047676	-0.107857	-0.107607
C75	C	1.297676	0.142143	0.142393
C76	C	1.547676	0.392143	0.392393
C77	C	0.598227	-0.407584	-0.407088
C78	C	0.848227	-0.157584	-0.157088
C79	C	1.098227	0.092416	0.092912
C80	C	1.348227	0.342416	0.342912
C81	C	0.548834	-0.339865	-0.425358
C82	C	0.798834	-0.089865	-0.175358
C83	C	1.048834	0.160135	0.074642
C84	C	1.298834	0.410135	0.324642
C85	C	0.646545	-0.357898	-0.357571
C86	C	0.896545	-0.107898	-0.107571
C87	C	1.146545	0.142102	0.142429
C88	C	1.396545	0.392102	0.392429
C89	C	0.548856	-0.425656	-0.339300
C90	C	0.798856	-0.175656	-0.089300
C91	C	1.048856	0.074344	0.160700
C92	C	1.298856	0.324344	0.410700
C93	C	0.500560	-0.357944	-0.357537
C94	C	0.750560	-0.107944	-0.107537
C95	C	1.000560	0.142056	0.142463
C96	C	1.250560	0.392056	0.392463
C97	C	0.598240	-0.290143	-0.375876
C98	C	0.848240	-0.040143	-0.125876
C99	C	1.098240	0.209857	0.124124
C100	C	1.348240	0.459857	0.374124
C101	C	0.598267	-0.375979	-0.289787
C102	C	0.848267	-0.125979	-0.039787
C103	C	1.098267	0.124021	0.210213
C104	C	1.348267	0.374021	0.460213
C105	C	0.548896	-0.308213	-0.308031
C106	C	0.798896	-0.058213	-0.058031
C107	C	1.048896	0.191787	0.191969
C108	C	1.298896	0.441787	0.441969
C109	C	0.730644	-0.357872	-0.357592
C110	C	0.980644	-0.107872	-0.107592
C111	C	1.230644	0.142128	0.142408
C112	C	1.480644	0.392128	0.392408
C113	C	0.416464	-0.357962	-0.357516
C114	C	0.666464	-0.107962	-0.107516
C115	C	0.916464	0.142038	0.142484
C116	C	1.166464	0.392038	0.392484
C117	C	1.073084	-0.550863	-0.357532
C118	C	1.323084	-0.300863	-0.107532
C119	C	1.573084	-0.050863	0.142468
C120	C	1.823084	0.199137	0.392468
C121	C	1.073114	-0.633409	-0.357551
C122	C	1.323114	-0.383409	-0.107551
C123	C	1.573114	-0.133409	0.142449
C124	C	1.823114	0.116591	0.392449
C125	C	1.023565	-0.832853	-0.407148
C126	C	1.273565	-0.582853	-0.157148
C127	C	1.523565	-0.332853	0.092852
C128	C	1.773565	-0.082853	0.342852
C129	C	1.005465	-0.882300	-0.339386
C130	C	1.255465	-0.632300	-0.089386
C131	C	1.505465	-0.382300	0.160614
C132	C	1.755465	-0.132300	0.410614
C133	C	1.073186	-0.784539	-0.357561
C134	C	1.323186	-0.534539	-0.107561
C135	C	1.573186	-0.284539	0.142439
C136	C	1.823186	-0.034539	0.392439
C137	C	1.091322	-0.882174	-0.425331
C138	C	1.341322	-0.632174	-0.175331
C139	C	1.591322	-0.382174	0.074669
C140	C	1.841322	-0.132174	0.324669
C141	C	1.073256	-0.930524	-0.357576
C142	C	1.323256	-0.680524	-0.107576
C143	C	1.573256	-0.430524	0.142424
C144	C	1.823256	-0.180524	0.392424
C145	C	1.055052	-0.832899	-0.289763
C146	C	1.305052	-0.582899	-0.039763
C147	C	1.555052	-0.332899	0.210237
C148	C	1.805052	-0.082899	0.460237
C149	C	1.140940	-0.832769	-0.375754
C150	C	1.390940	-0.582769	-0.125754
C151	C	1.640940	-0.332769	0.124246
C152	C	1.890940	-0.082769	0.374246
C153	C	1.122867	-0.882193	-0.307945
C154	C	1.372867	-0.632193	-0.057945
C155	C	1.622867	-0.382193	0.192055
C156	C	1.872867	-0.132193	0.442055
C157	C	1.073145	-0.700441	-0.357553
C158	C	1.323145	-0.450441	-0.107553
C159	C	1.573145	-0.200441	0.142447
C160	C	1.823145	0.049559	0.392447
C161	C	1.073297	-1.014621	-0.357576
C162	C	1.323297	-0.764621	-0.107576
C163	C	1.573297	-0.514621	0.142424
C164	C	1.823297	-0.264621	0.392424
C165	C	1.266879	-0.357963	-0.357512
C166	C	1.516879	-0.107963	-0.107512
C167	C	1.766879	0.142037	0.142488
C168	C	2.016879	0.392037	0.392488
C169	C	1.349425	-0.357984	-0.357499
C170	C	1.599425	-0.107984	-0.107499
C171	C	1.849425	0.142016	0.142501
C172	C	2.099425	0.392016	0.392501
C173	C	1.073206	-0.357832	-0.551250
C174	C	1.323206	-0.107832	-0.301250
C175	C	1.573206	0.142168	-0.051250
C176	C	1.823206	0.392168	0.198750
C177	C	1.073220	-0.357798	-0.633796
C178	C	1.323220	-0.107798	-0.383796
C179	C	1.573220	0.142202	-0.133796
C180	C	1.823220	0.392202	0.116204
C181	C	1.073284	-0.164205	-0.357573
C182	C	1.323284	0.085795	-0.107573
C183	C	1.573284	0.335795	0.142427
C184	C	1.823284	0.585795	0.392427
C185	C	1.073331	-0.081660	-0.357585
C186	C	1.323331	0.168340	-0.107585
C187	C	1.573331	0.418340	0.142415
C188	C	1.823331	0.668340	0.392415
C189	C	1.122905	-0.308181	-0.833246
C190	C	1.372905	-0.058181	-0.583246
C191	C	1.622905	0.191819	-0.333246
C192	C	1.872905	0.441819	-0.083246
C193	C	1.055171	-0.289992	-0.882658
C194	C	1.305171	-0.039992	-0.632658
C195	C	1.555171	0.210008	-0.382658
C196	C	1.805171	0.460008	-0.132658
C197	C	1.073250	-0.357785	-0.784926
C198	C	1.323250	-0.107785	-0.534926
C199	C	1.573250	0.142215	-0.284926
C200	C	1.823250	0.392215	-0.034926
C201	C	1.141011	-0.375927	-0.882596
C202	C	1.391011	-0.125927	-0.632596
C203	C	1.641011	0.124073	-0.382596
C204	C	1.891011	0.374073	-0.132596
C205	C	1.073285	-0.357772	-0.930911
C206	C	1.323285	-0.107772	-0.680911
C207	C	1.573285	0.142228	-0.430911
C208	C	1.823285	0.392228	-0.180911
C209	C	1.005481	-0.339561	-0.833251
C210	C	1.255481	-0.089561	-0.583251
C211	C	1.505481	0.160439	-0.333251
C212	C	1.755481	0.410439	-0.083251
C213	C	1.091366	-0.425528	-0.833185
C214	C	1.341366	-0.175528	-0.583185
C215	C	1.591366	0.074472	-0.333185
C216	C	1.841366	0.324472	-0.083185
C217	C	1.023586	-0.407365	-0.882574
C218	C	1.273586	-0.157365	-0.632574
C219	C	1.523586	0.092635	-0.382574
C220	C	1.773586	0.342635	-0.132574
C221	C	1.073231	-0.357791	-0.700828
C222	C	1.323231	-0.107791	-0.450828
C223	C	1.573231	0.142209	-0.200828
C224	C	1.823231	0.392209	0.049172
C225	C	1.073296	-0.357766	-1.015008
C226	C	1.323296	-0.107766	-0.765008
C227	C	1.573296	0.142234	-0.515008
C228	C	1.823296	0.392234	-0.265008
C229	C	1.073184	-0.357936	-0.164592
C230	C	1.323184	-0.107936	0.085408
C231	C	1.573184	0.142064	0.335408
C232	C	1.823184	0.392064	0.585408
C233	C	1.073314	-0.357761	-0.082047
C234	C	1.323314	-0.107761	0.167953
C235	C	1.573314	0.142239	0.417953
C236	C	1.823314	0.392239	0.667953
H237	H	0.981539	-0.811188	-0.449023
H238	H	1.231539	-0.561188	-0.199023
H239	H	1.481539	-0.311188	0.050977
H240	H	1.731539	-0.061188	0.300977
H241	H	0.619841	-0.232843	-0.391380
H242	H	0.869841	0.017157	-0.141380
H243	H	1.119841	0.267157	0.108620
H244	H	1.369841	0.517157	0.358620
H245	H	0.981562	-0.449308	-0.904097
H246	H	1.231562	-0.199308	-0.654097
H247	H	1.481562	0.050692	-0.404097
H248	H	1.731562	0.300692	-0.154097
H249	H	0.527121	-0.324587	-0.482668
H250	H	0.777121	-0.074587	-0.232668
H251	H	1.027121	0.175413	0.017332
H252	H	1.277121	0.425413	0.267332
H253	H	0.527372	-0.266166	-0.266142
H254	H	0.777372	-0.016166	-0.016142
H255	H	1.027372	0.233834	0.233858
H256	H	1.277372	0.483834	0.483858
O257	O	1.109786	-0.493837	-0.807269
O258	O	1.359786	-0.243837	-0.557269
O259	O	1.609786	0.006163	-0.307269
O260	O	1.859786	0.256163	-0.057269
C261	C	1.181276	-0.512767	-0.832381
C262	C	1.431276	-0.262767	-0.582381
C263	C	1.681276	-0.012767	-0.332381
C264	C	1.931276	0.237233	-0.082381
H265	H	1.213350	-0.460148	-0.846271
H266	H	1.463350	-0.210148	-0.596271
H267	H	1.713350	0.039852	-0.346271
H268	H	1.963350	0.289852	-0.096271
H269	H	1.211708	-0.544670	-0.787151
H270	H	1.461708	-0.294670	-0.537151
H271	H	1.711708	-0.044670	-0.287151
H272	H	1.961708	0.205330	-0.037151
H273	H	1.176581	-0.548790	-0.884027
H274	H	1.426581	-0.298790	-0.634027
H275	H	1.676581	-0.048790	-0.384027
H276	H	1.926581	0.201210	-0.134027
H277	H	0.619996	-0.391278	-0.232494
H278	H	0.869996	-0.141278	0.017506
H279	H	1.119996	0.108722	0.267506
H280	H	1.369996	0.358722	0.517506
H281	H	1.164860	-0.903721	-0.265968
H282	H	1.414860	-0.653721	-0.015968
H283	H	1.664860	-0.403721	0.234032
H284	H	1.914860	-0.153721	0.484032
O285	O	1.209205	-0.806666	-0.394083
O286	O	1.459205	-0.556666	-0.144083
O287	O	1.709205	-0.306666	0.105917
O288	O	1.959205	-0.056666	0.355917
C289	C	1.208363	-0.728567	-0.393166
C290	C	1.458363	-0.478567	-0.143166
C291	C	1.708363	-0.228567	0.106834
C292	C	1.958363	0.021433	0.356834
H293	H	1.161421	-0.708492	-0.356009
H294	H	1.411421	-0.458492	-0.106009
H295	H	1.661421	-0.208492	0.143991
H296	H	1.911421	0.041508	0.393991
H297	H	1.263463	-0.707173	-0.370912
H298	H	1.513463	-0.457173	-0.120912
H299	H	1.763463	-0.207173	0.129088
H300	H	2.013463	0.042827	0.379088
H301	H	1.199526	-0.706881	-0.451834
H302	H	1.449526	-0.456881	-0.201834
H303	H	1.699526	-0.206881	0.048166
H304	H	1.949526	0.043119	0.298166
O305	O	0.522935	-0.494010	-0.321004
O306	O	0.772935	-0.244010	-0.071004
O307	O	1.022935	0.005990	0.178996
O308	O	1.272935	0.255990	0.428996
C309	C	0.478851	-0.521578	-0.379287
C310	C	0.728851	-0.271578	-0.129287
C311	C	0.978851	-0.021578	0.120713
C312	C	1.228851	0.228422	0.370713
H313	H	0.494924	-0.492882	-0.433220
H314	H	0.744924	-0.242882	-0.183220
H315	H	0.994924	0.007118	0.066780
H316	H	1.244924	0.257118	0.316780
H317	H	0.488010	-0.583801	-0.384977
H318	H	0.738010	-0.333801	-0.134977
H319	H	0.988010	-0.083801	0.115023
H320	H	1.238010	0.166199	0.365023
H321	H	0.417973	-0.510344	-0.366793
H322	H	0.667973	-0.260344	-0.116793
H323	H	0.917973	-0.010344	0.133207
H324	H	1.167973	0.239656	0.383207
O325	O	1.036787	-0.221693	-0.908638
O326	O	1.286787	0.028307	-0.658638
O327	O	1.536787	0.278307	-0.408638
O328	O	1.786787	0.528307	-0.158638
C329	C	0.971770	-0.226807	-0.951624
C330	C	1.221770	0.023193	-0.701624
C331	C	1.471770	0.273193	-0.451624
C332	C	1.721770	0.523193	-0.201624
H333	H	0.939373	-0.278342	-0.934737
H334	H	1.189373	-0.028342	-0.684737
H335	H	1.439373	0.221658	-0.434737
H336	H	1.689373	0.471658	-0.184737
H337	H	0.936172	-0.175523	-0.942147
H338	H	1.186172	0.074477	-0.692147
H339	H	1.436172	0.324477	-0.442147
H340	H	1.686172	0.574477	-0.192147
H341	H	0.987189	-0.230691	-1.012745
H342	H	1.237189	0.019309	-0.762745
H343	H	1.487189	0.269309	-0.512745
H344	H	1.737189	0.519309	-0.262745
H345	H	1.198301	-0.391276	-0.904274
H346	H	1.448301	-0.141276	-0.654274
H347	H	1.698301	0.108724	-0.404274
H348	H	1.948301	0.358724	-0.154274
H349	H	0.948201	-0.904073	-0.324012
H350	H	1.198201	-0.654073	-0.074012
H351	H	1.448201	-0.404073	0.175988
H352	H	1.698201	-0.154073	0.425988
H353	H	0.619889	-0.449529	-0.449011
H354	H	0.869889	-0.199529	-0.199011
H355	H	1.119889	0.050471	0.050989
H356	H	1.369889	0.300471	0.300989
O357	O	1.036682	-0.807066	-0.221429
O358	O	1.286682	-0.557066	0.028571
O359	O	1.536682	-0.307066	0.278571
O360	O	1.786682	-0.057066	0.528571
C361	C	1.036855	-0.728959	-0.222250
C362	C	1.286855	-0.478959	0.027750
C363	C	1.536855	-0.228959	0.277750
C364	C	1.786855	0.021041	0.527750
H365	H	1.028548	-0.708482	-0.281423
H366	H	1.278548	-0.458482	-0.031423
H367	H	1.528548	-0.208482	0.218577
H368	H	1.778548	0.041518	0.468577
H369	H	0.990021	-0.707452	-0.185764
H370	H	1.240021	-0.457452	0.064236
H371	H	1.490021	-0.207452	0.314236
H372	H	1.740021	0.042548	0.564236
H373	H	1.092133	-0.707785	-0.200225
H374	H	1.342133	-0.457785	0.049775
H375	H	1.592133	-0.207785	0.299775
H376	H	1.842133	0.042215	0.549775
H377	H	1.106634	-0.903819	-0.482637
H378	H	1.356634	-0.653819	-0.232637
H379	H	1.606634	-0.403819	0.017363
H380	H	1.856634	-0.153819	0.267363
H381	H	1.164827	-0.266206	-0.811584
H382	H	1.414827	-0.016206	-0.561584
H383	H	1.664827	0.233794	-0.311584
H384	H	1.914827	0.483794	-0.061584
H385	H	0.948174	-0.324144	-0.811666
H386	H	1.198174	-0.074144	-0.561666
H387	H	1.448174	0.175856	-0.311666
H388	H	1.698174	0.425856	-0.061666
