data_functionalizedCrystal
_audit_creation_method	'MofGen! by Chris Wilmer'
_symmetry_space_group_name_H-M	'P1'
_symmetry_Int_Tables_number	1
_symmetry_cell_setting	triclinic
loop_
_symmetry_equiv_pos_as_xyz
  x,y,z
_cell_length_a	14.853566
_cell_length_b	19.188924
_cell_length_c	13.930277
_cell_angle_alpha	89.993371
_cell_angle_beta	89.995631
_cell_angle_gamma	83.388189
loop_
_atom_site_label
_atom_site_type_symbol
_atom_site_fract_x
_atom_site_fract_y
_atom_site_fract_z
O1	O	1.195859	0.091151	-0.079772
O2	O	0.933339	0.102011	-0.079788
O3	O	1.072178	-0.005050	-0.079768
O4	O	1.057020	0.198212	-0.079792
O5	O	1.072159	-0.005052	0.079893
O6	O	0.933320	0.102009	0.079873
O7	O	1.195840	0.091149	0.079890
Zn8	Zn	1.064577	0.096578	0.105231
Zn9	Zn	1.064602	0.096581	-0.105130
O10	O	1.057001	0.198209	0.079870
C11	C	0.899743	0.101518	0.000041
C12	C	0.799668	0.100044	0.000035
C13	C	0.376528	0.093810	-0.086979
C14	C	0.376529	0.093808	0.087090
C15	C	0.470555	0.095192	0.087087
C16	C	0.517572	0.095887	0.000049
C17	C	0.470563	0.095197	-0.086985
C18	C	0.517570	0.095890	0.174120
C19	C	0.611602	0.097275	0.174120
C20	C	0.658622	0.097964	0.087082
C21	C	0.611607	0.097273	0.000044
C22	C	0.658624	0.097967	-0.086994
C23	C	0.611612	0.097272	-0.174033
C24	C	0.517583	0.095886	-0.174024
C25	C	0.752651	0.099350	0.087072
C26	C	0.752659	0.099354	-0.087000
C27	C	1.071679	-0.031064	0.000063
C28	C	1.070208	-0.108573	0.000066
C29	C	1.069533	-0.144973	-0.086966
C30	C	1.068138	-0.217801	-0.086973
C31	C	1.067438	-0.254227	0.000056
C32	C	1.068109	-0.217818	0.087099
C33	C	1.069494	-0.144991	0.087104
N34	N	1.116558	-0.373727	0.064833
N35	N	1.115244	-0.442910	0.064823
C36	C	1.063262	-0.473650	0.000047
N37	N	1.012655	-0.432595	-0.064733
N38	N	1.013973	-0.363406	-0.064725
C39	C	1.065935	-0.333195	0.000060
C40	C	1.061073	-0.589018	-0.086999
C41	C	1.059673	-0.661846	-0.087003
C42	C	1.059652	-0.661862	0.087072
C43	C	1.061043	-0.589035	0.087074
C44	C	1.061758	-0.552617	0.000035
C45	C	1.229436	0.091642	0.000059
C46	C	1.329511	0.093116	0.000058
C47	C	1.057500	0.224223	0.000036
C48	C	1.058971	0.301733	0.000027
N49	N	1.064566	0.096576	0.248798
N50	N	1.064620	0.096578	-0.248696
C51	C	1.003122	0.143969	0.701058
C52	C	1.126107	0.049188	0.701045
C53	C	1.126097	0.049186	0.600549
C54	C	1.064599	0.096577	0.550303
C55	C	1.003111	0.143970	0.600553
C56	C	1.187589	0.001799	0.550292
C57	C	1.187581	0.001795	0.449790
C58	C	1.126078	0.049183	0.399542
C59	C	1.064588	0.096577	0.449798
C60	C	1.003090	0.143968	0.399552
C61	C	0.941594	0.191360	0.449806
C62	C	0.941608	0.191358	0.550305
C63	C	1.126064	0.049185	0.299044
C64	C	1.003079	0.143969	0.299047
H65	H	0.479281	0.095329	0.244981
H66	H	1.061601	-0.559398	0.157945
C67	C	1.057485	-0.773501	0.164357
C68	C	1.058856	-0.701891	0.182739
H69	H	1.056988	-0.798213	0.223421
H70	H	1.004712	-0.780146	0.128581
H71	H	1.109834	-0.790709	0.128617
H72	H	1.006503	-0.684681	0.218473
H73	H	1.111634	-0.695242	0.218530
C74	C	1.240889	-0.119031	0.419128
C75	C	1.255165	-0.050379	0.394674
H76	H	1.282607	-0.151263	0.385131
H77	H	1.249629	-0.125726	0.486187
H78	H	1.180749	-0.126665	0.402633
H79	H	1.315304	-0.042743	0.411176
H80	H	1.246432	-0.043681	0.327600
H81	H	0.338241	0.093248	0.157952
H82	H	0.790923	0.099923	0.157938
H83	H	0.891541	0.229943	0.591228
C84	C	0.260418	0.152223	-0.187971
C85	C	0.324857	0.093049	-0.182650
H86	H	0.228523	0.151755	-0.247037
H87	H	0.218964	0.151604	-0.136143
H88	H	0.290071	0.193443	-0.184357
H89	H	0.295203	0.051829	-0.186257
H90	H	0.366318	0.093662	-0.234492
H91	H	1.061649	-0.559364	-0.157871
H92	H	1.237663	-0.036782	0.591206
H93	H	0.479297	0.095319	-0.244886
C94	C	1.069330	-0.152324	0.259168
C95	C	1.070243	-0.104976	0.182777
H96	H	1.069799	-0.127619	0.318231
H97	H	1.016231	-0.175450	0.255542
H98	H	1.121353	-0.186007	0.255545
H99	H	1.018216	-0.071296	0.186396
H100	H	1.123347	-0.081839	0.186405
H101	H	1.067536	-0.247481	0.157960
H102	H	0.790934	0.099917	-0.157877
H103	H	0.952996	0.182558	0.258143
C104	C	0.886982	0.233441	0.295747
C105	C	0.873996	0.243451	0.394569
H106	H	0.845247	0.265597	0.261645
H107	H	0.947109	0.241113	0.279278
H108	H	0.877382	0.186826	0.279296
H109	H	0.883603	0.290065	0.411020
H110	H	0.813855	0.235785	0.411044
H111	H	0.649872	0.097840	0.244993
C112	C	1.069411	-0.152277	-0.259031
C113	C	1.070304	-0.104943	-0.182638
H114	H	1.069880	-0.127561	-0.318093
H115	H	1.121430	-0.185953	-0.255409
H116	H	1.016308	-0.175411	-0.255406
H117	H	1.123411	-0.081812	-0.186258
H118	H	1.018280	-0.071254	-0.186261
H119	H	1.176137	0.010603	0.258131
C120	C	1.057550	-0.773473	-0.164304
C121	C	1.058926	-0.701860	-0.182676
H122	H	1.057084	-0.798175	-0.223370
H123	H	1.109873	-0.790685	-0.128542
H124	H	1.004751	-0.780126	-0.128551
H125	H	1.111729	-0.695206	-0.218423
H126	H	1.006598	-0.684643	-0.218453
H127	H	0.953051	0.182553	0.741977
H128	H	1.176182	0.010607	0.741959
C129	C	0.755758	0.099401	-0.251319
C130	C	0.663300	0.098034	-0.269704
H131	H	0.787669	0.099868	-0.310381
H132	H	0.764116	0.140310	-0.215571
H133	H	0.778194	0.058944	-0.215549
H134	H	0.640861	0.138494	-0.305468
H135	H	0.654936	0.057121	-0.305467
C136	C	0.989109	-0.291929	-0.187942
C137	C	1.067389	-0.257834	-0.182636
H138	H	0.988643	-0.316642	-0.247000
H139	H	0.988497	-0.324029	-0.136103
H140	H	0.937096	-0.258235	-0.184338
H141	H	1.119402	-0.291529	-0.186233
H142	H	1.068009	-0.225731	-0.234490
