data_functionalizedCrystal
_audit_creation_method	'MofGen! by Chris Wilmer'
_symmetry_space_group_name_H-M	'P1'
_symmetry_Int_Tables_number	1
_symmetry_cell_setting	triclinic
loop_
_symmetry_equiv_pos_as_xyz
  x,y,z
_cell_length_a	19.188933
_cell_length_b	19.188930
_cell_length_c	16.098524
_cell_angle_alpha	93.077942
_cell_angle_beta	93.071463
_cell_angle_gamma	83.145175
loop_
_atom_site_label
_atom_site_type_symbol
_atom_site_fract_x
_atom_site_fract_y
_atom_site_fract_z
O1	O	0.928922	0.089951	0.069239
O2	O	0.725611	0.101685	0.069248
O3	O	0.833133	-0.005838	0.069227
O4	O	0.821400	0.197474	0.069260
O5	O	0.827566	-0.011398	-0.069288
O6	O	0.720045	0.096125	-0.069267
O7	O	0.923355	0.084392	-0.069276
Zn8	Zn	0.820816	0.089376	-0.091263
Zn9	Zn	0.828150	0.096701	0.091235
O10	O	0.815834	0.191915	-0.069255
C11	C	0.696817	0.098525	-0.000009
C12	C	0.619313	0.097384	-0.000006
C13	C	0.069091	0.092269	0.075488
C14	C	0.141915	0.093337	0.075491
C15	C	0.175298	0.090844	-0.000012
C16	C	0.135853	0.087264	-0.075525
C17	C	0.063031	0.086189	-0.075526
N18	N	0.282060	0.130007	-0.056207
N19	N	0.351238	0.131030	-0.056200
C20	C	0.394707	0.094081	-0.000013
N21	N	0.366384	0.056081	0.056180
N22	N	0.297199	0.055061	0.056176
C23	C	0.254261	0.092009	-0.000019
C24	C	0.513108	0.098814	0.075498
C25	C	0.585935	0.099878	0.075499
C26	C	0.579870	0.093812	-0.075520
C27	C	0.507046	0.092741	-0.075518
C28	C	0.473669	0.095246	-0.000007
C29	C	0.829970	-0.034629	-0.000033
C30	C	0.828829	-0.112134	-0.000040
C31	C	0.891919	-0.157058	-0.000047
C32	C	0.890848	-0.229881	-0.000033
C33	C	0.826682	-0.257778	-0.000030
C34	C	0.763583	-0.212844	-0.000018
C35	C	0.764657	-0.140022	-0.000024
N36	N	0.775741	-0.367675	-0.047167
N37	N	0.774725	-0.436854	-0.047164
C38	C	0.823445	-0.477186	-0.000013
N39	N	0.873228	-0.445728	0.047124
N40	N	0.874245	-0.376544	0.047118
C41	C	0.825511	-0.336740	-0.000024
C42	C	0.885378	-0.601073	-0.000004
C43	C	0.884305	-0.673898	0.000015
C44	C	0.757038	-0.656859	0.000021
C45	C	0.758114	-0.584037	0.000011
C46	C	0.822285	-0.556148	-0.000006
C47	C	0.952150	0.087552	-0.000018
C48	C	1.029654	0.088693	-0.000015
C49	C	0.818997	0.220706	0.000007
C50	C	0.820138	0.298211	0.000019
N51	N	0.815816	0.084376	-0.215813
C52	C	0.856281	0.124871	-0.259390
C53	C	0.852793	0.121369	-0.346580
C54	C	0.808835	0.077375	-0.390191
C55	C	0.768369	0.036876	-0.346609
C56	C	0.771861	0.040374	-0.259420
C57	C	0.796182	0.064694	-0.653444
C58	C	0.792691	0.061200	-0.740638
C59	C	0.877116	0.145693	-0.740603
C60	C	0.880602	0.149191	-0.653413
C61	C	0.840138	0.108688	-0.609838
C62	C	0.805267	0.073796	-0.479313
C63	C	0.843711	0.112264	-0.520718
N64	N	0.833156	0.101695	0.215785
H65	H	0.174030	0.096252	0.136977
O66	O	0.954216	-0.129883	0.000058
C67	C	0.961538	-0.085396	0.071806
H68	H	0.907414	-0.066124	0.095725
H69	H	0.988580	-0.038444	0.055670
H70	H	0.994542	-0.115644	0.122038
O71	O	0.696892	-0.540293	0.000046
C72	C	0.711597	-0.470038	0.000019
H73	H	0.767484	-0.466356	0.026238
H74	H	0.672984	-0.435301	0.040235
H75	H	0.706214	-0.451646	-0.066434
H76	H	0.607049	0.091779	-0.136997
H77	H	0.885746	0.154343	-0.382056
O78	O	0.036603	0.094598	0.148783
C79	C	0.002772	0.033692	0.153304
H80	H	-0.008070	0.010741	0.087744
H81	H	-0.048975	0.047816	0.185260
H82	H	0.038001	-0.006728	0.190562
O83	O	0.945583	-0.717560	0.000159
C84	C	0.951650	-0.757310	0.071893
H85	H	0.917882	-0.728509	0.122034
H86	H	1.008885	-0.764696	0.095965
H87	H	0.933091	-0.810868	0.055685
H88	H	0.704793	-0.679572	0.000028
O89	O	0.168369	0.084753	-0.148816
C90	C	0.218394	0.024730	-0.153348
H91	H	0.234633	0.007371	-0.087792
H92	H	0.266499	0.037800	-0.185302
H93	H	0.194502	-0.019516	-0.190614
H94	H	0.942226	-0.266465	-0.000036
O95	O	0.899041	0.167621	-0.217158
C96	C	0.933996	0.202624	-0.274321
H97	H	0.935670	0.171215	-0.336476
H98	H	0.989892	0.207832	-0.249122
H99	H	0.904692	0.257129	-0.283589
H100	H	0.769476	0.037976	-0.514831
O101	O	0.947671	-0.573888	0.000102
C102	C	0.954986	-0.529394	0.071844
H103	H	0.900859	-0.510127	0.095760
H104	H	0.982021	-0.482439	0.055704
H105	H	0.987992	-0.559634	0.122082
H106	H	0.916399	0.185013	-0.617911
H107	H	0.910060	0.178667	-0.776091
O108	O	0.703392	-0.096345	0.000126
C109	C	0.703097	-0.050807	0.071848
H110	H	0.740898	-0.075564	0.121988
H111	H	0.647799	-0.041474	0.095932
H112	H	0.720355	0.001440	0.055620
H113	H	0.711339	-0.235562	-0.000014
H114	H	0.756891	0.025375	-0.776144
O115	O	0.024818	0.082749	-0.148948
C116	C	0.069897	0.080756	-0.215592
H117	H	0.119740	0.104508	-0.193455
H118	H	0.042200	0.112214	-0.268397
H119	H	0.084203	0.023935	-0.238814
O120	O	0.756802	0.025333	-0.611252
C121	C	0.717267	-0.014256	-0.668444
H122	H	0.710616	0.012168	-0.730587
H123	H	0.663388	-0.017442	-0.643265
H124	H	0.745827	-0.069505	-0.677726
H125	H	0.732581	0.001051	-0.382124
H126	H	0.738910	0.007399	-0.223942
O127	O	0.886512	0.154917	-0.478395
C128	C	0.956585	0.134563	-0.499703
H129	H	0.962558	0.077280	-0.523687
H130	H	0.993212	0.140848	-0.442355
H131	H	0.970649	0.169103	-0.550297
O132	O	0.480746	0.101339	0.148898
C133	C	0.492280	0.163910	0.194830
H134	H	0.541597	0.183978	0.173367
H135	H	0.499361	0.153125	0.263904
H136	H	0.445211	0.205221	0.184364
O137	O	0.624307	0.103444	0.148794
C138	C	0.658507	0.164709	0.153323
H139	H	0.664090	0.182385	0.087766
H140	H	0.712818	0.153153	0.185282
H141	H	0.626271	0.208130	0.190582
H142	H	0.474935	0.089832	-0.137001
