data_functionalizedCrystal
_audit_creation_method	'MofGen! by Chris Wilmer'
_symmetry_space_group_name_H-M	'P1'
_symmetry_Int_Tables_number	1
_symmetry_cell_setting	triclinic
loop_
_symmetry_equiv_pos_as_xyz
  x,y,z
_cell_length_a	15.944551
_cell_length_b	15.944551
_cell_length_c	16.776229
_cell_angle_alpha	89.997350
_cell_angle_beta	90.001761
_cell_angle_gamma	96.501262
loop_
_atom_site_label
_atom_site_type_symbol
_atom_site_fract_x
_atom_site_fract_y
_atom_site_fract_z
O1	O	-0.108334	1.114527	-0.066196
O2	O	0.391666	1.614527	0.433804
O3	O	-0.121690	0.869977	-0.066215
O4	O	0.378310	1.369977	0.433785
O5	O	0.007263	0.998930	-0.066210
O6	O	0.507263	1.498930	0.433790
O7	O	-0.237287	0.985574	-0.066202
O8	O	0.262713	1.485574	0.433798
O9	O	0.007271	0.998913	0.066367
O10	O	0.507271	1.498913	0.566367
O11	O	-0.121682	0.869960	0.066361
O12	O	0.378318	1.369960	0.566361
O13	O	-0.108326	1.114510	0.066380
O14	O	0.391674	1.614510	0.566380
Zn15	Zn	-0.115003	0.992232	0.087420
Zn16	Zn	0.384997	1.492232	0.587420
Zn17	Zn	-0.115013	0.992255	-0.087255
Zn18	Zn	0.384987	1.492255	0.412745
O19	O	-0.237279	0.985557	0.066375
O20	O	0.262721	1.485557	0.566375
C21	C	-0.121132	0.838675	0.000071
C22	C	0.378868	1.338675	0.500071
C23	C	-0.119470	0.745429	0.000063
C24	C	0.380530	1.245429	0.500063
C25	C	-0.035565	0.530572	0.000076
C26	C	0.464435	1.030572	0.500076
C27	C	-0.074531	0.469561	-0.065290
C28	C	0.425469	0.969561	0.434710
C29	C	-0.116462	0.574703	0.000072
C30	C	0.383538	1.074703	0.500072
C31	C	-0.074543	0.469566	0.065420
C32	C	0.425457	0.969566	0.565420
C33	C	-0.113551	0.409790	0.000085
C34	C	0.386449	0.909790	0.500085
C35	C	-0.155451	0.514920	-0.065347
C36	C	0.344549	1.014920	0.434653
C37	C	-0.155451	0.514931	0.065421
C38	C	0.344549	1.014931	0.565421
C39	C	-0.194476	0.453937	0.000039
C40	C	0.305524	0.953937	0.500039
C41	C	-0.118137	0.669705	0.000065
C42	C	0.381863	1.169705	0.500065
C43	C	-0.111883	0.314789	0.000087
C44	C	0.388117	0.814789	0.500087
C45	C	-0.268577	0.986120	0.000088
C46	C	0.231423	1.486120	0.500088
C47	C	-0.361823	0.987782	0.000091
C48	C	0.138177	1.487782	0.500091
C49	C	-0.576680	1.071687	0.000086
C50	C	-0.076680	1.571687	0.500086
C51	C	-0.637692	1.032716	0.065451
C52	C	-0.137692	1.532716	0.565451
C53	C	-0.532549	0.990790	0.000085
C54	C	-0.032549	1.490790	0.500085
C55	C	-0.637685	1.032714	-0.065259
C56	C	-0.137685	1.532714	0.434741
C57	C	-0.697462	0.993700	0.000074
C58	C	-0.197462	1.493700	0.500074
C59	C	-0.592333	0.951797	0.065503
C60	C	-0.092333	1.451797	0.565503
C61	C	-0.592320	0.951806	-0.065265
C62	C	-0.092320	1.451806	0.434735
C63	C	-0.653315	0.912776	0.000115
C64	C	-0.153315	1.412776	0.500115
C65	C	-0.437547	0.989115	0.000091
C66	C	0.062453	1.489115	0.500091
C67	C	-0.792463	0.995369	0.000074
C68	C	-0.292463	1.495369	0.500074
C69	C	0.038561	0.998367	0.000076
C70	C	0.538561	1.498367	0.500076
C71	C	0.131807	0.996705	0.000067
C72	C	0.631807	1.496705	0.500067
C73	C	-0.108885	1.145813	0.000093
C74	C	0.391115	1.645813	0.500093
C75	C	-0.110547	1.239059	0.000095
C76	C	0.389453	1.739059	0.500095
N77	N	-0.114995	0.992223	0.206631
N78	N	0.385005	1.492223	0.706631
N79	N	-0.115014	0.992271	-0.206466
N80	N	0.384986	1.492271	0.293534
C81	C	-0.057918	1.049341	0.248351
C82	C	0.442082	1.549341	0.748351
C83	C	-0.057918	1.049346	0.331803
C84	C	0.442082	1.549346	0.831803
C85	C	-0.114999	0.992236	0.373534
C86	C	0.385001	1.492236	0.873534
C87	C	-0.172078	0.935112	0.331809
C88	C	0.327922	1.435112	0.831809
C89	C	-0.172074	0.935104	0.248358
C90	C	0.327926	1.435104	0.748358
C91	C	-0.172095	0.935142	0.668356
C92	C	0.327905	1.435142	1.168356
C93	C	-0.172096	0.935157	0.751813
C94	C	0.327904	1.435157	1.251813
C95	C	-0.057938	1.049384	0.751801
C96	C	0.442062	1.549384	1.251801
C97	C	-0.057934	1.049376	0.668350
C98	C	0.442066	1.549376	1.168350
C99	C	-0.115010	0.992250	0.626632
C100	C	0.384990	1.492250	1.126632
C101	C	-0.115009	0.992244	0.536144
C102	C	0.384991	1.492244	1.036144
C103	C	-0.115004	0.992245	0.464021
C104	C	0.384996	1.492245	0.964021
H105	H	0.031573	0.563905	-0.000007
H106	H	0.531573	1.063905	0.499993
O107	O	-0.233660	0.873539	0.623364
O108	O	0.266340	1.373539	1.123364
H109	H	-0.273358	0.833838	0.666405
H110	H	0.226642	1.333838	1.166405
O111	O	-0.200728	0.541611	0.138624
O112	O	0.299272	1.041611	0.638624
H113	H	-0.167012	0.523663	0.192808
H114	H	0.332988	1.023663	0.692808
O115	O	-0.565626	0.906563	-0.138483
O116	O	-0.065626	1.406563	0.361517
H117	H	-0.622013	0.885774	-0.175290
H118	H	-0.122013	1.385774	0.324710
H119	H	-0.189645	0.534914	-0.120669
H120	H	0.310355	1.034914	0.379331
O121	O	-0.029208	0.442954	0.138626
O122	O	0.470792	0.942954	0.638626
H123	H	0.036728	0.473958	0.138481
H124	H	0.536728	0.973958	0.638481
H125	H	-0.543374	1.138836	0.000155
H126	H	-0.043374	1.638836	0.500155
O127	O	-0.664338	1.078024	0.138654
O128	O	-0.164338	1.578024	0.638654
H129	H	-0.633354	1.143968	0.138525
H130	H	-0.133354	1.643968	0.638525
O131	O	-0.283501	0.410019	0.000010
O132	O	0.216499	0.910019	0.500010
H133	H	-0.316875	0.428184	-0.054298
H134	H	0.183125	0.928184	0.445702
O135	O	-0.029218	0.442915	-0.138490
O136	O	0.470782	0.942915	0.361510
H137	H	0.036726	0.473898	-0.138358
H138	H	0.536726	0.973898	0.361642
H139	H	-0.572338	0.917600	0.120824
H140	H	-0.072338	1.417600	0.620824
H141	H	-0.218551	0.888592	0.214391
H142	H	0.281449	1.388592	0.714391
H143	H	-0.686473	0.845569	0.000147
H144	H	-0.186473	1.345569	0.500147
H145	H	-0.011461	1.095897	0.785777
H146	H	0.488539	1.595897	1.285777
H147	H	-0.218552	0.888608	0.365791
H148	H	0.281448	1.388608	0.865791
H149	H	-0.218580	0.888648	0.785789
H150	H	0.281420	1.388648	1.285789
O151	O	-0.664296	1.078053	-0.138464
O152	O	-0.164296	1.578053	0.361536
H153	H	-0.633291	1.143989	-0.138316
H154	H	-0.133291	1.643989	0.361684
H155	H	-0.011440	1.095850	0.214379
H156	H	0.488560	1.595850	0.714379
H157	H	-0.011441	1.095855	0.365771
H158	H	0.488559	1.595855	0.865771
O159	O	0.003643	1.110966	0.623344
O160	O	0.503643	1.610966	1.123344
H161	H	-0.005945	1.101366	0.558307
H162	H	0.494055	1.601366	1.058307
