data_functionalizedCrystal
_audit_creation_method	'MofGen! by Chris Wilmer'
_symmetry_space_group_name_H-M	'P1'
_symmetry_Int_Tables_number	1
_symmetry_cell_setting	triclinic
loop_
_symmetry_equiv_pos_as_xyz
  x,y,z
_cell_length_a	11.026607
_cell_length_b	10.654541
_cell_length_c	9.482900
_cell_angle_alpha	99.425331
_cell_angle_beta	78.636152
_cell_angle_gamma	96.534973
loop_
_atom_site_label
_atom_site_type_symbol
_atom_site_fract_x
_atom_site_fract_y
_atom_site_fract_z
O1	O	1.633379	0.511462	-0.120903
O2	O	1.279568	0.451466	-0.120904
O3	O	1.464608	0.300491	-0.120894
O4	O	1.448338	0.662436	-0.120912
O5	O	1.427024	0.331315	0.120896
O6	O	1.241984	0.482290	0.120887
O7	O	1.595794	0.542285	0.120888
Cu8	Cu	1.415457	0.515102	0.142965
Cu9	Cu	1.459905	0.478649	-0.142981
O10	O	1.410754	0.693260	0.120879
C11	C	1.215472	0.455810	-0.000009
C12	C	1.080481	0.422815	-0.000009
C13	C	1.007442	0.513918	-0.000014
C14	C	0.867921	0.479818	-0.000014
C15	C	1.444622	0.268846	0.000000
C16	C	1.441049	0.128627	-0.000002
C17	C	1.662314	0.148689	0.000017
C18	C	1.771262	0.092846	0.000029
C19	C	1.767898	-0.038903	0.000025
C20	C	1.655575	-0.114814	0.000003
C21	C	1.546627	-0.058971	-0.000009
C22	C	1.550002	0.072783	-0.000000
C23	C	1.325366	-0.079034	-0.000039
C24	C	1.328726	0.052716	-0.000024
C25	C	1.213043	-0.154945	-0.000060
C26	C	1.104091	-0.099101	-0.000062
C27	C	1.107459	0.032657	-0.000056
C28	C	1.219778	0.108559	-0.000036
C29	C	1.659891	0.537941	-0.000010
C30	C	1.794884	0.570934	-0.000020
C31	C	1.430741	0.724905	-0.000019
C32	C	1.434315	0.865123	-0.000026
N33	N	1.384204	0.540742	0.344083
N34	N	1.491168	0.453001	-0.344099
C35	C	1.450678	0.486203	0.416286
C36	C	1.424684	0.507548	0.583702
H37	H	1.665061	0.255969	0.000040
H38	H	1.048201	0.617159	-0.000011
O39	O	1.541544	0.411563	0.342407
C40	C	1.701341	0.280553	0.358103
C41	C	1.598452	0.365029	0.441945
H42	H	1.747398	0.242928	0.438543
H43	H	1.659203	0.196822	0.286897
H44	H	1.773656	0.339452	0.286782
H45	H	1.526104	0.306237	0.513345
H46	H	1.640681	0.448764	0.513059
O47	O	1.293264	0.615290	0.417962
C48	C	1.133566	0.746425	0.402266
C49	C	1.236502	0.662006	0.318424
H50	H	1.087663	0.784241	0.321827
H51	H	1.061124	0.687571	0.473503
H52	H	1.175775	0.830039	0.473557
H53	H	1.194405	0.578381	0.247054
H54	H	1.308930	0.720951	0.247280
H55	H	1.222530	0.215838	-0.000022
O56	O	1.880437	0.166502	-0.000210
C57	C	2.090087	0.207958	-0.125411
C58	C	1.966510	0.124471	-0.125330
H59	H	2.159719	0.173991	-0.226544
H60	H	2.073866	0.311725	-0.125502
H61	H	2.128189	0.199912	-0.024171
H62	H	1.928342	0.132408	-0.226553
H63	H	1.982805	0.020740	-0.125163
H64	H	1.348518	0.570041	0.645823
H65	H	0.827172	0.376566	-0.000047
O66	O	1.873734	-0.093248	-0.000221
C67	C	2.017771	-0.246383	-0.125429
C68	C	1.897914	-0.184921	-0.125348
H69	H	2.037344	-0.320532	-0.226567
H70	H	2.098693	-0.169570	-0.125510
H71	H	2.005960	-0.294610	-0.024194
H72	H	1.909603	-0.136701	-0.226565
H73	H	1.817037	-0.261788	-0.125190
O74	O	0.994888	-0.172680	0.000106
C75	C	0.785284	-0.214254	0.125383
C76	C	0.908879	-0.130805	0.125356
H77	H	0.715721	-0.180447	0.226652
H78	H	0.747032	-0.206156	0.024260
H79	H	0.801637	-0.318012	0.125297
H80	H	0.892630	-0.027015	0.125493
H81	H	0.947092	-0.139013	0.226470
H82	H	0.835635	0.674184	-0.000015
O83	O	1.581871	0.378153	0.582020
C84	C	1.657769	0.169245	0.535712
C85	C	1.554969	0.253919	0.619348
H86	H	1.636069	0.068792	0.565883
H87	H	1.662671	0.165049	0.413834
H88	H	1.750729	0.211247	0.565577
H89	H	1.461955	0.211983	0.589604
H90	H	1.550177	0.258114	0.741205
H91	H	1.039726	0.319570	-0.000041
H92	H	1.652848	-0.222092	-0.000018
H93	H	1.210313	-0.262222	-0.000073
H94	H	1.018740	0.078114	-0.000072
