data_functionalizedCrystal
_audit_creation_method	'MofGen! by Chris Wilmer'
_symmetry_space_group_name_H-M	'P1'
_symmetry_Int_Tables_number	1
_symmetry_cell_setting	triclinic
loop_
_symmetry_equiv_pos_as_xyz
  x,y,z
_cell_length_a	15.944551
_cell_length_b	15.944551
_cell_length_c	12.996460
_cell_angle_alpha	89.998907
_cell_angle_beta	90.001256
_cell_angle_gamma	96.501262
loop_
_atom_site_label
_atom_site_type_symbol
_atom_site_fract_x
_atom_site_fract_y
_atom_site_fract_z
O1	O	-0.108334	1.114525	-0.085448
O2	O	0.391666	1.614525	0.414552
O3	O	-0.121690	0.869976	-0.085472
O4	O	0.378310	1.369976	0.414528
O5	O	0.007263	0.998929	-0.085466
O6	O	0.507263	1.498929	0.414534
O7	O	-0.237287	0.985572	-0.085455
O8	O	0.262713	1.485572	0.414545
O9	O	0.007270	0.998915	0.085668
O10	O	0.507270	1.498915	0.585668
O11	O	-0.121683	0.869962	0.085661
O12	O	0.378317	1.369962	0.585661
O13	O	-0.108326	1.114512	0.085686
O14	O	0.391674	1.614512	0.585686
Cu15	Cu	-0.115004	0.992236	0.101299
Cu16	Cu	0.384996	1.492236	0.601299
Cu17	Cu	-0.115012	0.992252	-0.101086
Cu18	Cu	0.384988	1.492252	0.398914
O19	O	-0.237279	0.985559	0.085679
O20	O	0.262721	1.485559	0.585679
C21	C	-0.121132	0.838675	0.000091
C22	C	0.378868	1.338675	0.500091
C23	C	-0.119470	0.745429	0.000081
C24	C	0.380530	1.245429	0.500081
C25	C	-0.035565	0.530572	0.000098
C26	C	0.464435	1.030572	0.500098
C27	C	-0.074531	0.469559	-0.084279
C28	C	0.425469	0.969559	0.415721
C29	C	-0.116462	0.574703	0.000093
C30	C	0.383538	1.074703	0.500093
C31	C	-0.074543	0.469568	0.084446
C32	C	0.425457	0.969568	0.584446
C33	C	-0.113551	0.409790	0.000110
C34	C	0.386449	0.909790	0.500110
C35	C	-0.155450	0.514918	-0.084353
C36	C	0.344550	1.014918	0.415647
C37	C	-0.155451	0.514933	0.084448
C38	C	0.344549	1.014933	0.584448
C39	C	-0.194476	0.453937	0.000051
C40	C	0.305524	0.953937	0.500051
C41	C	-0.118137	0.669705	0.000083
C42	C	0.381863	1.169705	0.500083
C43	C	-0.111883	0.314789	0.000112
C44	C	0.388117	0.814789	0.500112
C45	C	-0.268577	0.986120	0.000113
C46	C	0.231423	1.486120	0.500113
C47	C	-0.361823	0.987782	0.000118
C48	C	0.138177	1.487782	0.500118
C49	C	-0.576680	1.071687	0.000111
C50	C	-0.076680	1.571687	0.500111
C51	C	-0.637692	1.032718	0.084486
C52	C	-0.137692	1.532718	0.584486
C53	C	-0.532549	0.990790	0.000109
C54	C	-0.032549	1.490790	0.500109
C55	C	-0.637685	1.032712	-0.084239
C56	C	-0.137685	1.532712	0.415761
C57	C	-0.697462	0.993700	0.000096
C58	C	-0.197462	1.493700	0.500096
C59	C	-0.592333	0.951798	0.084554
C60	C	-0.092333	1.451798	0.584554
C61	C	-0.592320	0.951804	-0.084247
C62	C	-0.092320	1.451804	0.415753
C63	C	-0.653315	0.912776	0.000149
C64	C	-0.153315	1.412776	0.500149
C65	C	-0.437547	0.989115	0.000118
C66	C	0.062453	1.489115	0.500118
C67	C	-0.792463	0.995369	0.000095
C68	C	-0.292463	1.495369	0.500095
C69	C	0.038561	0.998367	0.000097
C70	C	0.538561	1.498367	0.500097
C71	C	0.131807	0.996705	0.000086
C72	C	0.631807	1.496705	0.500086
C73	C	-0.108885	1.145813	0.000120
C74	C	0.391115	1.645813	0.500120
C75	C	-0.110547	1.239059	0.000123
C76	C	0.389453	1.739059	0.500123
N77	N	-0.114997	0.992231	0.243646
N78	N	0.385003	1.492231	0.743646
N79	N	-0.115012	0.992263	-0.243433
N80	N	0.384988	1.492263	0.256567
C81	C	-0.115013	0.992251	0.663461
C82	C	0.384987	1.492251	1.163461
C83	C	-0.115012	0.992243	0.546656
C84	C	0.384988	1.492243	1.046656
C85	C	-0.115006	0.992241	0.453557
C86	C	0.384994	1.492241	0.953557
C87	C	-0.115003	0.992232	0.336745
C88	C	0.384997	1.492232	0.836745
H89	H	0.031573	0.563905	-0.000010
H90	H	0.531573	1.063905	0.499990
H91	H	-0.657796	1.066928	0.155825
H92	H	-0.157796	1.566928	0.655825
F93	F	-0.663950	1.077461	-0.177469
F94	F	-0.163950	1.577461	0.322531
H95	H	-0.543374	1.138836	0.000200
H96	H	-0.043374	1.638836	0.500200
F97	F	-0.029815	0.443282	-0.177524
F98	F	0.470185	0.943282	0.322476
F99	F	-0.200144	0.541047	-0.177693
F100	F	0.299856	1.041047	0.322307
F101	F	-0.282319	0.410594	-0.000004
F102	F	0.217681	0.910594	0.499996
F103	F	-0.200134	0.541241	0.177695
F104	F	0.299866	1.041241	0.677695
H105	H	-0.040309	0.449476	0.155777
H106	H	0.459691	0.949476	0.655777
H107	H	-0.572339	0.917603	0.155963
H108	H	-0.072339	1.417603	0.655963
H109	H	-0.572194	0.917622	-0.155590
H110	H	-0.072194	1.417622	0.344410
H111	H	-0.686473	0.845569	0.000189
H112	H	-0.186473	1.345569	0.500189
