data_functionalizedCrystal
_audit_creation_method	'MofGen! by Chris Wilmer'
_symmetry_space_group_name_H-M	'P1'
_symmetry_Int_Tables_number	1
_symmetry_cell_setting	triclinic
loop_
_symmetry_equiv_pos_as_xyz
  x,y,z
_cell_length_a	12.759401
_cell_length_b	18.215404
_cell_length_c	12.759393
_cell_angle_alpha	90.033458
_cell_angle_beta	89.979062
_cell_angle_gamma	89.974652
loop_
_atom_site_label
_atom_site_type_symbol
_atom_site_fract_x
_atom_site_fract_y
_atom_site_fract_z
Zn1	Zn	1.606200	0.292919	-0.593998
Zn2	Zn	1.606063	0.416003	-0.418310
Zn3	Zn	1.430498	0.292958	-0.418334
Zn4	Zn	1.430462	0.415951	-0.593947
O5	O	1.518306	0.354458	-0.506147
O6	O	1.753203	0.309251	-0.570705
O7	O	1.582732	0.399719	-0.271292
O8	O	1.453878	0.189968	-0.441668
O9	O	1.753102	0.399681	-0.441627
O10	O	1.582965	0.189940	-0.570728
O11	O	1.453745	0.309318	-0.271309
O12	O	1.283473	0.309268	-0.441618
O13	O	1.453817	0.399593	-0.740975
O14	O	1.283446	0.399631	-0.570640
O15	O	1.582930	0.309201	-0.741013
O16	O	1.582697	0.518980	-0.441576
O17	O	1.453684	0.518942	-0.570616
C18	C	1.245339	0.354449	-0.506126
C19	C	1.128562	0.354463	-0.506142
C20	C	1.073714	0.401586	-0.573218
C21	C	0.963990	0.401589	-0.573239
C22	C	0.963972	0.307343	-0.439099
C23	C	1.073694	0.307337	-0.439084
C24	C	1.518200	0.545664	-0.506111
C25	C	1.518251	0.627463	-0.506131
C26	C	1.585591	0.815652	-0.439078
C27	C	1.585640	0.892511	-0.439109
C28	C	1.451182	0.892511	-0.573368
C29	C	1.451139	0.815654	-0.573341
C30	C	1.518342	0.777226	-0.506190
C31	C	1.518434	0.930942	-0.506248
C32	C	1.518486	1.014276	-0.506282
C33	C	1.518291	0.693887	-0.506157
C34	C	1.792339	0.354467	-0.506169
C35	C	1.909116	0.354471	-0.506178
C36	C	1.518385	0.354387	-0.780181
C37	C	1.518418	0.354357	-0.896957
C38	C	1.518447	1.162505	-0.506225
C39	C	1.518525	1.080706	-0.506307
C40	C	1.585652	0.307283	-0.951841
C41	C	1.585670	0.307251	-1.061565
C42	C	1.451216	0.401374	-1.061512
C43	C	1.451194	0.401402	-0.951790
C44	C	1.518288	0.354475	-0.233180
C45	C	1.518458	0.354298	-0.116404
H46	H	1.118352	0.268958	-0.384462
C47	C	1.659519	0.773381	-0.365222
C48	C	1.733496	0.815652	-0.291404
C49	C	1.807430	0.773383	-0.217549
C50	C	1.807387	0.688843	-0.217511
C51	C	1.733407	0.646567	-0.291332
C52	C	1.659474	0.688836	-0.365187
H53	H	1.733531	0.878238	-0.291430
H54	H	1.862195	0.804679	-0.162902
H55	H	1.862117	0.657553	-0.162839
H56	H	1.733373	0.583981	-0.291306
H57	H	1.604709	0.657540	-0.419834
H58	H	1.640402	0.923793	-0.384461
H59	H	1.396466	0.923808	-0.628038
H60	H	1.396377	0.784366	-0.627997
C61	C	1.659632	0.255469	-1.121936
C62	C	1.779061	0.261489	-1.106870
C63	C	1.853024	0.209703	-1.167240
C64	C	1.807560	0.151898	-1.242675
C65	C	1.688125	0.145876	-1.257744
C66	C	1.614161	0.197662	-1.197374
H67	H	1.812722	0.304282	-1.051026
H68	H	1.941438	0.214162	-1.156084
H69	H	1.862312	0.113563	-1.287364
H70	H	1.654464	0.103083	-1.313588
H71	H	1.525748	0.193203	-1.208529
H72	H	1.396436	0.439735	-0.907103
H73	H	1.640388	0.268974	-0.907199
H74	H	0.919337	0.439960	-0.627861
C75	C	1.134070	0.453417	-0.646988
C76	C	1.118933	0.537072	-0.638210
C77	C	1.179287	0.588903	-0.711985
C78	C	1.254777	0.557078	-0.794537
C79	C	1.269918	0.473418	-0.803319
C80	C	1.209565	0.421588	-0.729544
H81	H	1.063047	0.560635	-0.577096
H82	H	1.168078	0.650833	-0.705483
H83	H	1.299455	0.595446	-0.849150
H84	H	1.325804	0.449856	-0.864433
H85	H	1.220773	0.359657	-0.736046
C86	C	1.377281	0.453127	-1.121832
C87	C	1.377306	0.453103	-1.242522
C88	C	1.303371	0.504859	-1.302838
C89	C	1.229412	0.556640	-1.242464
C90	C	1.229384	0.556665	-1.121767
C91	C	1.303319	0.504909	-1.061451
H92	H	1.432057	0.414771	-1.287220
H93	H	1.303392	0.504840	-1.392186
H94	H	1.174681	0.594953	-1.287114
H95	H	1.174633	0.594998	-1.077069
H96	H	1.303298	0.504929	-0.972103
H97	H	0.919285	0.268976	-0.384501
