data_functionalizedCrystal
_audit_creation_method	'MofGen! by Chris Wilmer'
_symmetry_space_group_name_H-M	'P1'
_symmetry_Int_Tables_number	1
_symmetry_cell_setting	triclinic
loop_
_symmetry_equiv_pos_as_xyz
  x,y,z
_cell_length_a	10.654553
_cell_length_b	11.892113
_cell_length_c	12.837932
_cell_angle_alpha	86.042377
_cell_angle_beta	90.342059
_cell_angle_gamma	94.334069
loop_
_atom_site_label
_atom_site_type_symbol
_atom_site_fract_x
_atom_site_fract_y
_atom_site_fract_z
O1	O	1.691621	0.094008	-0.151708
O2	O	1.327658	0.094007	-0.165588
O3	O	1.501568	0.094009	-0.007687
O4	O	1.517711	0.094007	-0.309609
O5	O	1.485796	-0.093999	0.004256
O6	O	1.311886	-0.094000	-0.153645
O7	O	1.675850	-0.093999	-0.139765
Zn8	Zn	1.491364	-0.123850	-0.144809
Zn9	Zn	1.512144	0.123858	-0.160544
O10	O	1.501940	-0.094000	-0.297666
C11	C	1.272863	0.000003	-0.158597
C12	C	1.133087	0.000003	-0.155545
C13	C	0.927480	-0.102472	-0.144729
C14	C	1.058814	-0.102478	-0.147601
C15	C	1.076020	0.102498	-0.160628
C16	C	0.944688	0.102503	-0.157763
C17	C	0.917548	-0.220813	-0.137204
C18	C	1.048882	-0.220820	-0.140076
N19	N	1.477191	-0.292904	-0.134069
C20	C	1.624937	-0.529553	-0.246057
C21	C	1.615040	-0.647895	-0.238541
C22	C	1.447505	-0.647931	-0.111518
C23	C	1.457403	-0.529590	-0.119033
C24	C	1.546121	-0.470404	-0.186306
C25	C	1.556011	-0.352060	-0.193827
C26	C	1.388484	-0.352099	-0.066798
C27	C	1.378586	-0.470441	-0.059283
C28	C	1.730645	0.000007	-0.146756
C29	C	1.870422	0.000015	-0.149808
C30	C	1.488229	0.000008	0.036944
C31	C	1.471967	0.000015	0.152138
N32	N	1.526325	0.292912	-0.171275
C33	C	1.515278	0.000003	-0.342297
C34	C	1.531542	0.000003	-0.457491
C35	C	1.336035	0.000013	0.302959
C36	C	1.351308	0.000015	0.194723
C37	C	1.577360	0.000017	0.217797
C38	C	1.562087	0.000015	0.326034
C39	C	1.441421	0.000011	0.368610
C40	C	1.426148	0.000001	0.476849
C41	C	1.652200	0.000011	0.499921
C42	C	1.667473	0.000013	0.391685
H43	H	0.875277	-0.266253	-0.206014
H44	H	1.083624	-0.257542	-0.213416
O45	O	1.094799	-0.280997	-0.041283
H46	H	1.066533	-0.236709	0.027195
H47	H	1.324299	-0.303928	-0.018151
O48	O	1.237639	0.000000	0.123915
H49	H	1.186927	0.076621	0.134295
O50	O	1.296006	-0.000011	0.522777
H51	H	1.290069	0.076610	0.566682
H52	H	1.697164	-0.481363	-0.300843
O53	O	1.707501	0.000032	0.171867
H54	H	1.700410	0.000034	0.085574
H55	H	1.136503	0.185940	-0.167106
O56	O	1.351826	-0.711783	-0.038967
H57	H	1.298681	-0.650775	0.001327
H58	H	1.765716	0.000011	0.357003
H59	H	0.876637	-0.257528	-0.059202
O60	O	1.765881	0.000004	0.570726
H61	H	1.770772	0.076633	0.615723
O62	O	0.883141	0.213040	-0.163210
H63	H	0.956851	0.284301	-0.169198
H64	H	1.628245	-0.303874	-0.248608
O65	O	1.700041	-0.711696	-0.302990
H66	H	1.763385	-0.650655	-0.351034
O67	O	1.282900	-0.534270	0.013277
H68	H	1.216782	-0.588194	-0.032521
H69	H	1.237782	-0.000010	0.337627
