data_functionalizedCrystal
_audit_creation_method	'MofGen! by Chris Wilmer'
_symmetry_space_group_name_H-M	'P1'
_symmetry_Int_Tables_number	1
_symmetry_cell_setting	triclinic
loop_
_symmetry_equiv_pos_as_xyz
  x,y,z
_cell_length_a	17.077404
_cell_length_b	11.169416
_cell_length_c	11.169409
_cell_angle_alpha	89.971970
_cell_angle_beta	90.023076
_cell_angle_gamma	89.986686
loop_
_atom_site_label
_atom_site_type_symbol
_atom_site_fract_x
_atom_site_fract_y
_atom_site_fract_z
Zn1	Zn	1.200136	0.477703	0.678683
Zn2	Zn	1.200057	0.678443	0.478015
Zn3	Zn	1.068859	0.477774	0.478006
Zn4	Zn	1.068858	0.678343	0.678648
O5	O	1.134478	0.578066	0.578338
O6	O	1.309972	0.504344	0.652082
O7	O	1.182621	0.651895	0.310064
O8	O	1.086307	0.309814	0.504637
O9	O	1.309914	0.651827	0.504652
O10	O	1.182755	0.309762	0.652073
O11	O	1.086231	0.504464	0.310057
O12	O	0.959012	0.504367	0.504603
O13	O	1.086305	0.651656	0.846603
O14	O	0.959011	0.651725	0.652014
O15	O	1.182754	0.504247	0.846628
O16	O	1.182620	0.846380	0.504619
O17	O	1.086228	0.846306	0.652023
C18	C	0.930530	0.578044	0.578305
C19	C	0.843280	0.578064	0.578319
C20	C	0.802310	0.654908	0.654953
C21	C	0.720329	0.654911	0.654972
C22	C	0.679321	0.578074	0.578350
C23	C	0.720296	0.501220	0.501713
C24	C	0.802275	0.501213	0.501701
C25	C	0.549426	0.501244	0.501742
C26	C	0.467442	0.501253	0.501752
C27	C	0.467480	0.654942	0.655013
C28	C	0.549459	0.654935	0.655001
C29	C	0.590430	0.578083	0.578362
C30	C	1.134437	0.889890	0.578344
C31	C	1.134491	1.023290	0.578387
C32	C	1.339222	0.578088	0.578372
C33	C	1.426472	0.578098	0.578386
C34	C	1.134538	0.577932	0.891380
C35	C	1.134564	0.577876	1.024781
C36	C	1.134532	1.265023	0.578370
C37	C	1.134535	1.131623	0.578416
C38	C	1.134463	0.578112	0.266513
C39	C	1.134589	0.577831	0.133114
H40	H	0.434055	0.438671	0.439375
H41	H	0.686975	0.717487	0.717374
Br42	Br	0.857957	0.759202	0.758936
H43	H	0.582846	0.717509	0.717387
H44	H	0.835632	0.438631	0.439304
Br45	Br	0.605029	0.396941	0.397733
H46	H	0.434118	0.717515	0.717419
H47	H	0.686901	0.438653	0.439332
