data_functionalizedCrystal
_audit_creation_method	'MofGen! by Chris Wilmer'
_symmetry_space_group_name_H-M	'P1'
_symmetry_Int_Tables_number	1
_symmetry_cell_setting	triclinic
loop_
_symmetry_equiv_pos_as_xyz
  x,y,z
_cell_length_a	21.395362
_cell_length_b	18.050589
_cell_length_c	21.395355
_cell_angle_alpha	90.012902
_cell_angle_beta	90.043940
_cell_angle_gamma	90.044101
loop_
_atom_site_label
_atom_site_type_symbol
_atom_site_fract_x
_atom_site_fract_y
_atom_site_fract_z
Zn1	Zn	0.957870	-0.295431	0.354610
Zn2	Zn	1.291204	0.037903	0.687943
Zn3	Zn	1.624537	0.371236	1.021277
Zn4	Zn	0.957777	-0.419603	0.249843
Zn5	Zn	1.291111	-0.086269	0.583176
Zn6	Zn	1.624444	0.247064	0.916509
Zn7	Zn	0.853085	-0.295465	0.249811
Zn8	Zn	1.186419	0.037868	0.583145
Zn9	Zn	1.519752	0.371201	0.916478
Zn10	Zn	0.853059	-0.419618	0.354548
Zn11	Zn	1.186392	-0.086285	0.687881
Zn12	Zn	1.519726	0.247049	1.021214
O13	O	0.905448	-0.357529	0.302203
O14	O	1.238781	-0.024196	0.635536
O15	O	1.572115	0.309138	0.968870
O16	O	1.045536	-0.311882	0.340752
O17	O	1.378869	0.021452	0.674085
O18	O	1.712203	0.354785	1.007418
O19	O	0.943862	-0.403144	0.162161
O20	O	1.277195	-0.069810	0.495494
O21	O	1.610528	0.263523	0.828827
O22	O	0.867035	-0.191536	0.263726
O23	O	1.200368	0.141797	0.597059
O24	O	1.533702	0.475131	0.930393
O25	O	1.045468	-0.403110	0.263780
O26	O	1.378801	-0.069777	0.597113
O27	O	1.712134	0.263557	0.930446
O28	O	0.944020	-0.191511	0.340721
O29	O	1.277354	0.141823	0.674055
O30	O	1.610687	0.475156	1.007388
O31	O	0.866945	-0.311940	0.162138
O32	O	1.200278	0.021393	0.495471
O33	O	1.533612	0.354726	0.828804
O34	O	0.765404	-0.311955	0.263665
O35	O	1.098737	0.021378	0.596999
O36	O	1.432071	0.354711	0.930332
O37	O	0.866990	-0.403136	0.442234
O38	O	1.200324	-0.069803	0.775567
O39	O	1.533657	0.263531	1.108900
O40	O	0.765385	-0.403170	0.340615
O41	O	1.098718	-0.069836	0.673948
O42	O	1.432051	0.263497	1.007281
O43	O	0.943995	-0.311896	0.442280
O44	O	1.277328	0.021437	0.775613
O45	O	1.610661	0.354770	1.108946
O46	O	0.943836	-0.523529	0.263719
O47	O	1.277170	-0.190196	0.597052
O48	O	1.610503	0.143137	0.930386
O49	O	0.866900	-0.523540	0.340645
O50	O	1.200234	-0.190207	0.673979
O51	O	1.533567	0.143126	1.007312
C52	C	0.742660	-0.357568	0.302130
C53	C	1.075994	-0.024235	0.635464
C54	C	1.409327	0.309098	0.968797
C55	C	0.673019	-0.357603	0.302114
C56	C	1.006352	-0.024270	0.635447
C57	C	1.339686	0.309064	0.968781
C58	C	0.640312	-0.405161	0.342121
C59	C	0.973646	-0.071828	0.675455
C60	C	1.306979	0.261505	1.008788
C61	C	0.574877	-0.405143	0.342149
C62	C	0.908210	-0.071810	0.675483
C63	C	1.241544	0.261524	1.008816
C64	C	0.542151	-0.357574	0.302159
C65	C	0.875484	-0.024241	0.635492
C66	C	1.208817	0.309092	0.968825
C67	C	0.574865	-0.310007	0.262148
C68	C	0.908199	0.023326	0.595482
C69	C	1.241532	0.356660	0.928815
C70	C	0.640300	-0.310021	0.262126
C71	C	0.973633	0.023312	0.595459
C72	C	1.306966	0.356645	0.928793
C73	C	0.438426	-0.351592	0.245753
C74	C	0.771759	-0.018258	0.579086
C75	C	1.105092	0.315075	0.912420
C76	C	0.372993	-0.351583	0.245774
C77	C	0.706326	-0.018249	0.579107
C78	C	1.039660	0.315084	0.912441
C79	C	0.340330	-0.357526	0.302228
C80	C	0.673663	-0.024193	0.635561
C81	C	1.006997	0.309141	0.968894
C82	C	0.373108	-0.363494	0.358662
C83	C	0.706442	-0.030161	0.691995
C84	C	1.039775	0.303173	1.025329
C85	C	0.438542	-0.363508	0.358640
C86	C	0.771876	-0.030175	0.691973
C87	C	1.105209	0.303158	1.025306
C88	C	0.471198	-0.357553	0.302179
C89	C	0.804532	-0.024220	0.635512
C90	C	1.137865	0.309113	0.968845
C91	C	0.236671	-0.405067	0.342269
C92	C	0.570004	-0.071734	0.675602
C93	C	0.903337	0.261600	1.008936
C94	C	0.171234	-0.405044	0.342298
C95	C	0.504568	-0.071710	0.675631
C96	C	0.837901	0.261623	1.008965
C97	C	0.171224	-0.309911	0.262291
C98	C	0.504557	0.023422	0.595625
C99	C	0.837891	0.356755	0.928958
C100	C	0.236659	-0.309931	0.262268
C101	C	0.569993	0.023402	0.595601
C102	C	0.903326	0.356736	0.928935
C103	C	0.269379	-0.357513	0.302256
C104	C	0.602712	-0.024179	0.635589
C105	C	0.936045	0.309154	0.968923
C106	C	0.905372	-0.550481	0.302192
C107	C	1.238706	-0.217148	0.635526
C108	C	1.572039	0.116185	0.968859
C109	C	0.905397	-0.633027	0.302209
C110	C	1.238731	-0.299694	0.635542
C111	C	1.572064	0.033640	0.968876
C112	C	0.863601	-0.832511	0.344027
C113	C	1.196934	-0.499177	0.677360
C114	C	1.530267	-0.165844	1.010693
C115	C	0.848322	-0.881943	0.286848
C116	C	1.181656	-0.548610	0.620182
C117	C	1.514989	-0.215277	0.953515
C118	C	0.905459	-0.784157	0.302217
C119	C	1.238792	-0.450824	0.635551
C120	C	1.572126	-0.117491	0.968884
C121	C	0.920768	-0.881806	0.359402
C122	C	1.254101	-0.548473	0.692735
C123	C	1.587435	-0.215140	1.026069
C124	C	0.905517	-0.930142	0.302230
C125	C	1.238850	-0.596809	0.635563
C126	C	1.572184	-0.263476	0.968897
C127	C	0.890151	-0.832503	0.245009
C128	C	1.223484	-0.499170	0.578342
C129	C	1.556817	-0.165836	0.911675
C130	C	0.962623	-0.832361	0.317601
C131	C	1.295956	-0.499028	0.650934
C132	C	1.629289	-0.165695	0.984267
C133	C	0.947366	-0.881772	0.260383
C134	C	1.280700	-0.548438	0.593716
C135	C	1.614033	-0.215105	0.927050
C136	C	0.905424	-0.700059	0.302211
C137	C	1.238757	-0.366726	0.635544
C138	C	1.572090	-0.033392	0.968877
C139	C	0.905552	-1.014239	0.302230
C140	C	1.238886	-0.680906	0.635564
C141	C	1.572219	-0.347572	0.968897
C142	C	1.068871	-0.357490	0.302276
C143	C	1.402205	-0.024157	0.635610
C144	C	1.735538	0.309176	0.968943
C145	C	1.138513	-0.357474	0.302307
C146	C	1.471846	-0.024140	0.635641
C147	C	1.805179	0.309193	0.968974
C148	C	0.905500	-0.357514	0.465626
C149	C	1.238833	-0.024181	0.798960
C150	C	1.572167	0.309153	1.132293
C151	C	0.905522	-0.357508	0.535268
C152	C	1.238856	-0.024174	0.868601
C153	C	1.572189	0.309159	1.201934
C154	C	0.905541	-0.163823	0.302227
C155	C	1.238874	0.169510	0.635560
C156	C	1.572208	0.502843	0.968894
C157	C	0.905581	-0.081278	0.302237
C158	C	1.238914	0.252056	0.635571
C159	C	1.572247	0.585389	0.968904
C160	C	0.905432	-0.357490	0.139415
C161	C	1.238766	-0.024157	0.472749
C162	C	1.572099	0.309176	0.806082
C163	C	0.905531	-0.357288	0.069774
C164	C	1.238865	-0.023954	0.403108
C165	C	1.572198	0.309379	0.736441
C166	C	0.945617	-0.309997	0.568006
C167	C	1.278950	0.023336	0.901339
C168	C	1.612283	0.356670	1.234672
C169	C	0.945616	-0.309965	0.633441
C170	C	1.278949	0.023368	0.966774
C171	C	1.612282	0.356701	1.300108
C172	C	0.905527	-0.357457	0.666136
C173	C	1.238860	-0.024124	0.999469
C174	C	1.572194	0.309210	1.332803
C175	C	0.865425	-0.404971	0.633390
C176	C	1.198758	-0.071638	0.966723
C177	C	1.532091	0.261696	1.300057
C178	C	0.865422	-0.404996	0.567956
C179	C	1.198756	-0.071663	0.901289
C180	C	1.532089	0.261670	1.234622
C181	C	0.900554	-0.424328	0.769805
C182	C	1.233887	-0.090994	1.103139
C183	C	1.567220	0.242339	1.436472
C184	C	0.900560	-0.424304	0.835238
C185	C	1.233894	-0.090970	1.168572
C186	C	1.567227	0.242363	1.501905
C187	C	0.905531	-0.357379	0.867957
C188	C	1.238864	-0.024045	1.201290
C189	C	1.572198	0.309288	1.534623
C190	C	0.910508	-0.290475	0.835234
C191	C	1.243841	0.042858	1.168568
C192	C	1.577174	0.376191	1.501901
C193	C	0.910505	-0.290501	0.769800
C194	C	1.243839	0.042833	1.103133
C195	C	1.577172	0.376166	1.436467
C196	C	0.905525	-0.357435	0.737088
C197	C	1.238858	-0.024101	1.070422
C198	C	1.572192	0.309232	1.403755
C199	C	0.945627	-0.309829	0.971647
C200	C	1.278960	0.023504	1.304981
C201	C	1.612293	0.356837	1.638314
C202	C	0.945621	-0.309796	1.037084
C203	C	1.278955	0.023537	1.370417
C204	C	1.612288	0.356870	1.703751
C205	C	0.865434	-0.404809	1.037032
C206	C	1.198767	-0.071475	1.370365
C207	C	1.532100	0.261858	1.703698
C208	C	0.865436	-0.404835	0.971596
C209	C	1.198769	-0.071502	1.304930
C210	C	1.532102	0.261832	1.638263
C211	C	0.905535	-0.357347	0.938908
C212	C	1.238869	-0.024013	1.272241
C213	C	1.572202	0.309320	1.605575
H214	H	0.548242	-0.443870	0.374731
H215	H	0.881575	-0.110537	0.708064
H216	H	1.214908	0.222796	1.041397
H217	H	0.832790	-0.443528	0.944941
H218	H	1.166123	-0.110195	1.278274
H219	H	1.499457	0.223139	1.611607
H220	H	0.832782	-0.443637	0.660014
H221	H	1.166116	-0.110303	0.993348
H222	H	1.499449	0.223030	1.326681
F223	F	0.473425	-0.369857	0.418699
F224	F	0.806758	-0.036523	0.752032
F225	F	1.140092	0.296810	1.085366
H226	H	0.144579	-0.271177	0.229733
H227	H	0.477912	0.062157	0.563066
H228	H	0.811246	0.395490	0.896400
H229	H	0.263312	-0.443807	0.374833
H230	H	0.596646	-0.110474	0.708166
H231	H	0.929979	0.222860	1.041499
F232	F	0.988305	-0.259235	1.071926
F233	F	1.321638	0.074099	1.405260
F234	F	1.654972	0.407432	1.738593
F235	F	0.785169	-0.910407	0.269842
F236	F	1.118502	-0.577074	0.603175
F237	F	1.451836	-0.243741	0.936509
H238	H	0.832770	-0.443684	0.541301
H239	H	1.166103	-0.110351	0.874634
H240	H	1.499436	0.222983	1.207967
F241	F	0.136425	-0.455661	0.384885
F242	F	0.469759	-0.122327	0.718218
F243	F	0.803092	0.211006	1.051552
H244	H	0.933693	-0.903463	0.407758
H245	H	1.267026	-0.570130	0.741091
H246	H	1.600360	-0.236797	1.074424
H247	H	0.263290	-0.271208	0.229686
H248	H	0.596623	0.062126	0.563020
H249	H	0.929956	0.395459	0.896353
F250	F	0.675131	-0.455800	0.384682
F251	F	1.008464	-0.122467	0.718016
F252	F	1.341798	0.210867	1.051349
H253	H	0.877170	-0.810935	0.196640
H254	H	1.210503	-0.477602	0.529973
H255	H	1.543836	-0.144269	0.863307
F256	F	0.988281	-0.259384	0.668290
F257	F	1.321615	0.073950	1.001624
F258	F	1.654948	0.407283	1.334957
F259	F	0.993668	-0.909867	0.214125
F260	F	1.327002	-0.576533	0.547458
F261	F	1.660335	-0.243200	0.880791
F262	F	0.915799	-0.219300	0.734977
F263	F	1.249132	0.114034	1.068310
F264	F	1.582465	0.447367	1.401643
H265	H	0.346516	-0.368333	0.404632
H266	H	0.679849	-0.034999	0.737965
H267	H	1.013182	0.298334	1.071299
F268	F	0.338114	-0.345231	0.185713
F269	F	0.671447	-0.011898	0.519046
F270	F	1.004781	0.321436	0.852380
H271	H	0.465014	-0.346749	0.199778
H272	H	0.798348	-0.013415	0.533112
H273	H	1.131681	0.319918	0.866445
F274	F	0.540035	-0.259378	0.219590
F275	F	0.873369	0.073955	0.552923
F276	F	1.206702	0.407289	0.886257
H277	H	0.896512	-0.478780	0.861876
H278	H	1.229845	-0.145447	1.195209
H279	H	1.563178	0.187886	1.528543
H280	H	0.666929	-0.271291	0.229547
H281	H	1.000262	0.062042	0.562880
H282	H	1.333596	0.395375	0.896214
H283	H	0.896338	-0.478812	0.743171
H284	H	1.229672	-0.145479	1.076505
H285	H	1.563005	0.187854	1.409838
F286	F	0.817267	-0.804235	0.390176
F287	F	1.150600	-0.470902	0.723510
F288	F	1.483933	-0.137569	1.056843
F289	F	0.988292	-0.259452	0.533220
F290	F	1.321625	0.073881	0.866553
F291	F	1.654959	0.407214	1.199887
F292	F	1.025759	-0.803875	0.334628
F293	F	1.359092	-0.470541	0.667961
F294	F	1.692426	-0.137208	1.001294
H295	H	0.914556	-0.235979	0.861872
H296	H	1.247890	0.097355	1.195205
H297	H	1.581223	0.430688	1.528539
F298	F	0.988301	-0.259286	0.936856
F299	F	1.321634	0.074048	1.270189
F300	F	1.654968	0.407381	1.603523
H301	H	0.832786	-0.443470	1.063651
H302	H	1.166120	-0.110137	1.396985
H303	H	1.499453	0.223197	1.730318
