data_functionalizedCrystal
_audit_creation_method	'MofGen! by Chris Wilmer'
_symmetry_space_group_name_H-M	'P1'
_symmetry_Int_Tables_number	1
_symmetry_cell_setting	triclinic
loop_
_symmetry_equiv_pos_as_xyz
  x,y,z
_cell_length_a	19.188905
_cell_length_b	19.188930
_cell_length_c	16.176319
_cell_angle_alpha	89.988074
_cell_angle_beta	89.985456
_cell_angle_gamma	83.139668
loop_
_atom_site_label
_atom_site_type_symbol
_atom_site_fract_x
_atom_site_fract_y
_atom_site_fract_z
O1	O	0.926159	0.087086	-0.068892
O2	O	0.722845	0.098839	-0.068865
O3	O	0.830369	-0.008694	-0.068863
O4	O	0.818635	0.194619	-0.068894
O5	O	0.830354	-0.008701	0.068630
O6	O	0.722830	0.098832	0.068628
O7	O	0.926144	0.087079	0.068601
Cu8	Cu	0.824486	0.092955	0.081169
Cu9	Cu	0.824503	0.092963	-0.081433
O10	O	0.818620	0.194612	0.068599
C11	C	0.696826	0.098458	-0.000115
C12	C	0.619321	0.097324	-0.000104
C13	C	0.582937	0.096783	-0.075053
C14	C	0.510113	0.095710	-0.075063
C15	C	0.473678	0.095164	-0.000120
C16	C	0.510070	0.095709	0.074840
C17	C	0.582892	0.096789	0.074848
N18	N	0.364652	0.053732	0.055660
N19	N	0.295475	0.052705	0.055647
C20	C	0.254272	0.091911	-0.000139
N21	N	0.284860	0.132175	-0.055925
N22	N	0.354043	0.133199	-0.055915
C23	C	0.394716	0.093993	-0.000120
C24	C	0.138924	0.090208	-0.075105
C25	C	0.066098	0.089139	-0.075112
C26	C	0.066058	0.089131	0.074794
C27	C	0.138881	0.090207	0.074798
C28	C	0.175310	0.090742	-0.000153
C29	C	0.829982	-0.034708	-0.000114
C30	C	0.828841	-0.112213	-0.000107
C31	C	0.891933	-0.157142	-0.000111
C32	C	0.890861	-0.229966	-0.000124
C33	C	0.826694	-0.257857	-0.000116
C34	C	0.763594	-0.212917	-0.000117
C35	C	0.764668	-0.140095	-0.000112
N36	N	0.777641	-0.365860	0.046682
N37	N	0.776626	-0.435038	0.046679
C38	C	0.823456	-0.477265	-0.000133
N39	N	0.871350	-0.447702	-0.046931
N40	N	0.872368	-0.378517	-0.046924
C41	C	0.825523	-0.336819	-0.000122
C42	C	0.885390	-0.601159	-0.000153
C43	C	0.884315	-0.673984	-0.000171
C44	C	0.757047	-0.656933	-0.000155
C45	C	0.758123	-0.584110	-0.000145
C46	C	0.822296	-0.556228	-0.000140
C47	C	0.952163	0.087460	-0.000151
C48	C	1.029668	0.088594	-0.000167
C49	C	0.819007	0.220626	-0.000152
C50	C	0.820148	0.298131	-0.000164
N51	N	0.824479	0.092949	0.195534
N52	N	0.824516	0.092964	-0.195798
C53	C	0.872104	0.045353	0.238799
C54	C	0.872108	0.045352	0.325346
C55	C	0.824488	0.092951	0.368627
C56	C	0.776857	0.140550	0.325356
C57	C	0.776851	0.140546	0.238810
C58	C	0.776881	0.140563	0.674384
C59	C	0.776893	0.140563	0.760935
C60	C	0.872138	0.045368	0.760920
C61	C	0.872132	0.045365	0.674375
C62	C	0.824499	0.092961	0.631111
C63	C	0.824495	0.092960	0.537267
C64	C	0.824495	0.092956	0.462469
H65	H	0.036392	0.088690	0.135814
F66	F	0.697514	-0.092276	-0.000108
F67	F	0.177605	0.090778	0.154571
F68	F	0.922832	-0.005290	0.806970
H69	H	0.706747	-0.547527	-0.000137
F70	F	0.953688	-0.571482	-0.000143
F71	F	0.726189	0.191218	0.628346
F72	F	0.688755	-0.686612	-0.000150
H73	H	0.738068	0.179303	0.203585
H74	H	0.935694	-0.710565	-0.000179
F75	F	0.960232	-0.127472	-0.000124
H76	H	0.738113	0.179326	0.796173
H77	H	0.910885	0.006595	0.203566
F78	F	0.621615	0.097364	0.154623
F79	F	0.922796	-0.005305	0.371392
F80	F	0.958014	-0.277792	-0.000130
H81	H	0.711349	-0.235631	-0.000112
F82	F	0.922817	-0.005293	0.628316
H83	H	0.612593	0.097219	-0.136085
F84	F	0.471383	0.095134	-0.154838
F85	F	0.726173	0.191206	0.371419
H86	H	0.168585	0.090651	-0.136135
F87	F	0.027376	0.088569	-0.154888
F88	F	0.471292	0.095131	0.154600
