data_functionalizedCrystal
_audit_creation_method	'MofGen! by Chris Wilmer'
_symmetry_space_group_name_H-M	'P1'
_symmetry_Int_Tables_number	1
_symmetry_cell_setting	triclinic
loop_
_symmetry_equiv_pos_as_xyz
  x,y,z
_cell_length_a	10.723023
_cell_length_b	10.489711
_cell_length_c	9.798715
_cell_angle_alpha	90.000555
_cell_angle_beta	90.003230
_cell_angle_gamma	95.502722
loop_
_atom_site_label
_atom_site_type_symbol
_atom_site_fract_x
_atom_site_fract_y
_atom_site_fract_z
O1	O	-1.657279	0.178904	-0.113465
O2	O	-1.294135	0.196030	-0.113469
O3	O	-1.483989	0.001861	-0.113471
O4	O	-1.467424	0.373072	-0.113464
O5	O	-1.483975	0.001861	0.113511
O6	O	-1.294121	0.196029	0.113513
O7	O	-1.657264	0.178903	0.113517
Zn8	Zn	-1.475690	0.187466	0.149553
Zn9	Zn	-1.475709	0.187467	-0.149505
O10	O	-1.467410	0.373072	0.113519
C11	C	-1.482739	-0.045671	0.000016
C12	C	-1.479019	-0.187300	0.000005
C13	C	-1.247627	0.194783	0.000021
C14	C	-1.109071	0.191055	0.000019
C15	C	-1.703772	0.180149	0.000024
C16	C	-1.842328	0.183878	0.000017
C17	C	-1.593192	-0.369759	0.000020
C18	C	-1.536154	-0.277579	0.111932
C19	C	-1.536138	-0.277602	-0.111854
C20	C	-1.415292	-0.347452	0.112036
C21	C	-1.415292	-0.347485	-0.111852
C22	C	-1.358167	-0.255332	0.000088
C23	C	-1.047291	0.189393	0.117601
C24	C	-0.904086	0.185539	0.117601
C25	C	-1.468660	0.420604	0.000028
C26	C	-1.472380	0.562232	0.000031
N27	N	-1.475687	0.187465	0.353653
N28	N	-1.475722	0.187458	-0.353605
C29	C	-1.555401	0.105580	0.421429
C30	C	-1.555421	0.105575	0.578592
H31	H	-1.692491	-0.419513	0.000132
H32	H	-0.895449	0.185315	-0.100655
H33	H	-1.055945	0.189622	-0.100648
H34	H	-1.364209	-0.378229	0.206755
H35	H	-1.407450	0.257562	0.411978
H36	H	-1.623629	0.035472	0.363106
H37	H	-0.850956	0.184117	0.218268
H38	H	-1.587268	-0.246625	0.206547
H39	H	-1.258779	-0.205803	0.000149
H40	H	-1.364221	-0.378472	-0.206471
H41	H	-1.623673	0.035474	0.636877
H42	H	-1.587284	-0.246675	-0.206466
H43	H	-1.100418	0.190815	0.218267
H44	H	-1.407477	0.257572	0.588119
