data_functionalizedCrystal
_audit_creation_method	'MofGen! by Chris Wilmer'
_symmetry_space_group_name_H-M	'P1'
_symmetry_Int_Tables_number	1
_symmetry_cell_setting	triclinic
loop_
_symmetry_equiv_pos_as_xyz
  x,y,z
_cell_length_a	14.560438
_cell_length_b	14.560438
_cell_length_c	14.560438
_cell_angle_alpha	60.000905
_cell_angle_beta	90.001034
_cell_angle_gamma	60.000378
loop_
_atom_site_label
_atom_site_type_symbol
_atom_site_fract_x
_atom_site_fract_y
_atom_site_fract_z
Zr1	Zr	0.884752	1.005292	-0.120514
O2	O	0.738102	1.196892	-0.267158
O3	O	0.929707	0.813691	-0.075562
O4	O	0.929703	1.005295	-0.267163
O5	O	0.738110	1.005286	0.075584
O6	O	1.080841	1.005297	-0.267164
O7	O	0.738107	1.005288	-0.075557
O8	O	1.080849	0.662553	0.075575
O9	O	0.738102	1.348030	-0.267155
O10	O	1.061673	0.892501	-0.056388
O11	O	0.948884	0.892497	0.056407
O12	O	0.948878	1.118086	-0.169178
O13	O	0.836088	1.118082	-0.056382
Zr14	Zr	1.125806	1.005292	0.120537
Zr15	Zr	1.125800	1.005296	-0.120515
Zr16	Zr	0.884758	1.005288	0.120538
Zr17	Zr	0.884752	1.246339	-0.120509
Zr18	Zr	1.125805	0.764244	0.120532
O19	O	1.080850	1.196892	0.075585
O20	O	1.080841	1.196898	-0.267160
O21	O	0.738111	1.196887	0.075587
O22	O	1.272455	0.813691	0.267181
O23	O	1.272447	0.813697	-0.075564
O24	O	0.929716	0.813685	0.267183
O25	O	1.272447	1.005297	-0.075561
O26	O	1.080855	1.005288	0.267186
O27	O	0.929716	1.005286	0.267187
O28	O	1.272451	1.005295	0.075580
O29	O	0.929703	1.348034	-0.267156
O30	O	1.080854	0.662550	0.267179
O31	O	1.272455	0.662553	0.267178
O32	O	1.272450	0.662556	0.075573
O33	O	0.738107	1.348027	-0.075551
O34	O	0.929708	1.348030	-0.075552
O35	O	1.061679	0.892497	0.169201
O36	O	1.174469	0.892501	0.056405
O37	O	1.061674	1.118086	-0.056384
O38	O	0.948884	1.118082	0.056411
C39	C	1.005278	0.703778	0.000006
C40	C	1.005278	0.601447	0.000004
C41	C	1.064151	0.553373	-0.058874
C42	C	1.064155	0.457213	-0.058864
C43	C	0.946405	0.457215	0.058905
C44	C	0.946408	0.553366	0.058900
C45	C	0.703764	1.005287	0.000014
C46	C	0.601433	1.005285	0.000014
C47	C	0.612233	0.887534	0.058885
C48	C	0.516078	0.887540	0.058886
C49	C	0.398327	1.123059	-0.058864
C50	C	0.494481	1.123051	-0.058858
C51	C	1.306793	1.005297	0.000009
C52	C	1.409124	1.005299	0.000009
C53	C	1.005271	1.005297	-0.301508
C54	C	1.005268	1.005299	-0.403841
C55	C	1.005279	1.306806	0.000017
C56	C	1.005279	1.409137	0.000019
C57	C	0.946392	1.123049	-0.510792
C58	C	0.946405	1.123043	-0.606941
C59	C	1.064173	0.887525	-0.489174
C60	C	1.064166	0.887532	-0.393027
C61	C	1.005286	1.005287	0.301531
C62	C	1.005289	1.005285	0.403864
C63	C	1.306793	0.703783	0.000004
C64	C	1.409124	0.601454	0.000001
C65	C	1.005286	0.703773	0.301525
C66	C	1.005288	0.601440	0.403856
C67	C	1.306800	0.703778	0.301523
C68	C	1.409134	0.601447	0.403853
C69	C	0.703757	1.306806	-0.301500
C70	C	0.601424	1.409137	-0.403830
C71	C	0.703765	1.306800	0.000019
C72	C	0.601434	1.409130	0.000022
C73	C	1.005272	1.306811	-0.301502
C74	C	1.005269	1.409143	-0.403833
C75	C	1.398324	0.553377	-0.058875
C76	C	1.494478	0.457235	-0.058881
C77	C	1.612230	0.457253	0.058873
C78	C	1.516076	0.553399	0.058872
C79	C	1.064166	0.553362	0.510809
C80	C	1.064156	0.457219	0.606956
C81	C	0.946387	0.457236	0.489184
C82	C	0.946392	0.553384	0.393039
C83	C	1.516086	0.553371	0.393053
C84	C	1.612235	0.457229	0.489207
C85	C	1.494467	0.457242	0.606958
C86	C	1.398320	0.553390	0.510805
H87	H	0.898474	0.418056	0.106854
C88	C	0.881624	1.252586	-0.522687
H89	H	0.846572	1.322712	-0.600157
H90	H	0.825904	1.257493	-0.487632
H91	H	0.932454	1.257478	-0.487626
H92	H	1.485675	0.418097	-0.106826
C93	C	1.280680	0.606244	-0.123634
H94	H	1.224958	0.670383	-0.115195
H95	H	1.272242	0.643754	-0.201095
H96	H	1.272255	0.537205	-0.094548
C97	C	0.527955	0.758018	0.123644
H98	H	0.455374	0.774883	0.115222
H99	H	0.567901	0.709631	0.094569
H100	H	0.567907	0.709635	0.201109
C101	C	1.128931	0.606239	0.522707
H102	H	1.163983	0.563843	0.600177
H103	H	1.184650	0.590486	0.487651
H104	H	1.078098	0.697019	0.487649
C105	C	0.881634	1.252569	-0.724584
H106	H	0.846552	1.322702	-0.717248
H107	H	0.932451	1.257473	-0.764541
H108	H	0.825919	1.257453	-0.764536
H109	H	0.898438	0.418095	0.480391
C110	C	0.280682	1.252590	-0.123631
H111	H	0.224962	1.235732	-0.115214
H112	H	0.272245	1.300977	-0.094556
H113	H	0.272256	1.300969	-0.201095
H114	H	1.524878	0.592547	0.106816
C115	C	1.128942	0.757993	-0.477287
H116	H	1.120505	0.774851	-0.549865
H117	H	1.206402	0.709607	-0.437334
H118	H	1.099856	0.709614	-0.437338
C119	C	1.128930	0.758000	-0.275374
H120	H	1.163995	0.687862	-0.282703
H121	H	1.184640	0.753111	-0.235417
H122	H	1.078098	0.753110	-0.235425
C123	C	1.729881	0.404309	0.477329
H124	H	1.785597	0.340163	0.549910
H125	H	1.738291	0.366795	0.437387
H126	H	1.738341	0.473319	0.437374
H127	H	0.898466	0.592506	0.106851
H128	H	1.699320	0.418113	0.106806
H129	H	1.485677	0.418100	0.694048
C130	C	1.128927	0.404331	0.724600
H131	H	1.164008	0.446718	0.717266
H132	H	1.078111	0.420092	0.764558
H133	H	1.184644	0.313549	0.764550
H134	H	0.898441	0.592533	0.305948
H135	H	1.112088	0.592516	-0.106829
H136	H	1.311229	0.592537	0.519608
H137	H	1.112096	0.418072	-0.106806
H138	H	0.485679	1.218944	-0.106795
C139	C	0.729874	0.757998	0.123657
H140	H	0.722530	0.687871	0.158728
H141	H	0.769839	0.753091	0.072846
H142	H	0.769824	0.753105	0.179382
C143	C	1.527980	0.606241	0.275412
H144	H	1.605450	0.563844	0.282755
H145	H	1.492923	0.590480	0.235453
H146	H	1.492921	0.697022	0.235457
