data_functionalizedCrystal
_audit_creation_method	'MofGen! by Chris Wilmer'
_symmetry_space_group_name_H-M	'P1'
_symmetry_Int_Tables_number	1
_symmetry_cell_setting	triclinic
loop_
_symmetry_equiv_pos_as_xyz
  x,y,z
_cell_length_a	14.044191
_cell_length_b	19.188930
_cell_length_c	13.101039
_cell_angle_alpha	93.345801
_cell_angle_beta	86.337551
_cell_angle_gamma	88.168279
loop_
_atom_site_label
_atom_site_type_symbol
_atom_site_fract_x
_atom_site_fract_y
_atom_site_fract_z
O1	O	1.262238	0.164780	-0.085186
O2	O	1.595571	0.498113	0.248147
O3	O	1.928905	0.831446	0.581480
O4	O	0.986294	0.158702	-0.085198
O5	O	1.319628	0.492035	0.248135
O6	O	1.652961	0.825368	0.581468
O7	O	1.132228	0.060600	-0.085172
O8	O	1.465561	0.393933	0.248161
O9	O	1.798895	0.727266	0.581495
O10	O	1.116304	0.262881	-0.085213
O11	O	1.449638	0.596215	0.248121
O12	O	1.782971	0.929548	0.581454
O13	O	1.121757	0.067651	0.085256
O14	O	1.455091	0.400985	0.418589
O15	O	1.788424	0.734318	0.751923
O16	O	0.975824	0.165753	0.085229
O17	O	1.309157	0.499086	0.418563
O18	O	1.642490	0.832420	0.751896
O19	O	1.251767	0.171831	0.085242
O20	O	1.585101	0.505164	0.418575
O21	O	1.918434	0.838498	0.751908
Zn22	Zn	1.112133	0.169912	0.112295
Zn23	Zn	1.445466	0.503245	0.445628
Zn24	Zn	1.778800	0.836578	0.778961
Zn25	Zn	1.125929	0.160621	-0.112251
Zn26	Zn	1.459262	0.493954	0.221082
Zn27	Zn	1.792595	0.827288	0.554415
O28	O	1.105834	0.269933	0.085215
O29	O	1.439167	0.603266	0.418549
O30	O	1.772500	0.936599	0.751882
C31	C	0.945756	0.159568	0.000014
C32	C	1.279089	0.492902	0.333348
C33	C	1.612422	0.826235	0.666681
C34	C	0.840563	0.151637	0.000010
C35	C	1.173896	0.484971	0.333344
C36	C	1.507229	0.818304	0.666677
C37	C	0.590103	0.193385	0.000012
C38	C	0.923436	0.526719	0.333346
C39	C	1.256770	0.860052	0.666679
C40	C	0.647965	0.137150	0.000022
C41	C	0.981298	0.470483	0.333355
C42	C	1.314631	0.803817	0.666689
C43	C	0.755136	0.145213	0.000016
C44	C	1.088469	0.478546	0.333349
C45	C	1.421803	0.811879	0.666682
C46	C	0.482922	0.185324	0.000019
C47	C	0.816255	0.518657	0.333352
C48	C	1.149588	0.851990	0.666685
C49	C	1.126477	0.038081	0.000045
C50	C	1.459810	0.371415	0.333378
C51	C	1.793143	0.704748	0.666712
C52	C	1.124928	-0.039523	0.000054
C53	C	1.458261	0.293811	0.333387
C54	C	1.791595	0.627144	0.666720
C55	C	1.292306	0.170964	0.000027
C56	C	1.625640	0.504297	0.333360
C57	C	1.958973	0.837631	0.666693
C58	C	1.397499	0.178895	0.000024
C59	C	1.730833	0.512228	0.333357
C60	C	2.064166	0.845561	0.666690
C61	C	1.210558	-0.078919	0.000062
C62	C	1.543891	0.254414	0.333396
C63	C	1.877224	0.587748	0.666729
C64	C	1.209104	-0.151837	0.000046
C65	C	1.542437	0.181496	0.333379
C66	C	1.875771	0.514829	0.666712
C67	C	1.122015	-0.185356	0.000041
C68	C	1.455348	0.147978	0.333375
C69	C	1.788682	0.481311	0.666708
C70	C	1.036374	-0.145951	0.000027
C71	C	1.369708	0.187383	0.333360
C72	C	1.703041	0.520716	0.666693
C73	C	1.037831	-0.073034	0.000033
C74	C	1.371164	0.260299	0.333366
C75	C	1.704498	0.593633	0.666700
N76	N	1.051882	-0.295258	0.058038
N77	N	1.385216	0.038075	0.391372
N78	N	1.718549	0.371409	0.724705
N79	N	1.050504	-0.364526	0.058034
N80	N	1.383838	-0.031192	0.391368
N81	N	1.717171	0.302141	0.724701
C82	C	1.117621	-0.405049	0.000020
C83	C	1.450955	-0.071716	0.333354
C84	C	1.784288	0.261618	0.666687
N85	N	1.186182	-0.373687	-0.057977
N86	N	1.519515	-0.040354	0.275356
N87	N	1.852849	0.292979	0.608690
N88	N	1.187562	-0.304413	-0.057969
N89	N	1.520896	0.028920	0.275364
N90	N	1.854229	0.362253	0.608698
C91	C	1.120426	-0.264421	0.000034
C92	C	1.453759	0.068912	0.333367
C93	C	1.787093	0.402246	0.666701
C94	C	1.201681	-0.523512	0.000010
C95	C	1.535014	-0.190178	0.333343
C96	C	1.868347	0.143155	0.666676
C97	C	1.200224	-0.596432	-0.000013
C98	C	1.533557	-0.263098	0.333320
C99	C	1.866891	0.070235	0.666654
C100	C	1.027491	-0.590543	-0.000022
C101	C	1.360825	-0.257210	0.333311
C102	C	1.694158	0.076124	0.666645
C103	C	1.028951	-0.517625	-0.000009
C104	C	1.362284	-0.184292	0.333324
C105	C	1.695618	0.149042	0.666657
C106	C	1.116048	-0.484114	0.000011
C107	C	1.449381	-0.150780	0.333345
C108	C	1.782715	0.182553	0.666678
C109	C	1.111585	0.292451	-0.000004
C110	C	1.444918	0.625784	0.333329
C111	C	1.778252	0.959118	0.666663
C112	C	1.113134	0.370055	-0.000019
C113	C	1.446468	0.703388	0.333314
C114	C	1.779801	1.036722	0.666647
N115	N	1.102725	0.176252	0.265541
N116	N	1.436058	0.509585	0.598875
N117	N	1.769392	0.842919	0.932208
N118	N	1.135344	0.154275	-0.265498
N119	N	1.468678	0.487609	0.067835
N120	N	1.802011	0.820942	0.401168
C121	C	1.089925	0.184885	0.474582
C122	C	1.423258	0.518218	0.807915
C123	C	1.756591	0.851552	1.141248
C124	C	1.148141	0.145645	0.525468
C125	C	1.481475	0.478978	0.858801
C126	C	1.814808	0.812311	1.192135
C127	C	1.141019	0.150448	0.641785
C128	C	1.474353	0.483781	0.975119
C129	C	1.807686	0.817115	1.308452
C130	C	1.097046	0.180082	0.358254
C131	C	1.430379	0.513416	0.691587
C132	C	1.763712	0.846749	1.024921
H133	H	1.281479	-0.051639	0.000076
H134	H	1.614812	0.281694	0.333409
H135	H	1.948146	0.615028	0.666742
N136	N	0.631102	0.265173	-0.000019
N137	N	0.964435	0.598506	0.333314
N138	N	1.297768	0.931840	0.666648
H139	H	0.612782	0.288774	-0.063206
H140	H	0.946115	0.622108	0.270127
H141	H	1.279448	0.955441	0.603461
H142	H	0.605022	0.293961	0.063191
H143	H	0.938356	0.627295	0.396525
H144	H	1.271689	0.960628	0.729858
H145	H	0.617018	0.082947	-0.000039
H146	H	0.950351	0.416280	0.333294
H147	H	1.283684	0.749614	0.666627
N148	N	1.301465	-0.194338	0.000077
N149	N	1.634799	0.138996	0.333410
N150	N	1.968132	0.472329	0.666743
H151	H	1.287324	-0.245615	0.000074
H152	H	1.620657	0.087719	0.333408
H153	H	1.953991	0.421052	0.666741
H154	H	1.343329	-0.185489	-0.063092
H155	H	1.676662	0.147844	0.270241
H156	H	2.009996	0.481177	0.603574
N157	N	0.942442	-0.182097	0.000016
N158	N	1.275775	0.151236	0.333350
N159	N	1.609108	0.484569	0.666683
H160	H	0.954511	-0.234268	0.000017
H161	H	1.287845	0.099065	0.333350
H162	H	1.621178	0.432398	0.666684
H163	H	0.901099	-0.165459	0.063193
H164	H	1.234432	0.167874	0.396527
H165	H	1.567766	0.501207	0.729860
H166	H	1.034739	0.222085	0.518369
H167	H	1.368073	0.555419	0.851702
H168	H	1.701406	0.888752	1.185036
H169	H	1.203332	0.108443	0.481676
H170	H	1.536665	0.441776	0.815009
H171	H	1.869998	0.775109	1.148342
N172	N	0.945470	-0.030537	0.000023
N173	N	1.278803	0.302796	0.333356
N174	N	1.612137	0.636130	0.666690
H175	H	0.890076	-0.062832	0.000014
H176	H	1.223410	0.270501	0.333347
H177	H	1.556743	0.603834	0.666681
H178	H	0.938430	0.002449	0.063207
H179	H	1.271763	0.335782	0.396541
H180	H	1.605097	0.669115	0.729874
N181	N	1.295615	-0.487361	0.000028
N182	N	1.628948	-0.154028	0.333361
N183	N	1.962282	0.179306	0.666694
H184	H	1.349643	-0.523386	0.000022
H185	H	1.682977	-0.190053	0.333355
H186	H	2.016310	0.143280	0.666689
H187	H	1.303862	-0.459838	-0.063146
H188	H	1.637196	-0.126505	0.270187
H189	H	1.970529	0.206829	0.603521
H190	H	0.956582	-0.617833	-0.000031
H191	H	1.289915	-0.284500	0.333303
H192	H	1.623249	0.048834	0.666636
N193	N	1.292586	-0.638928	-0.000008
N194	N	1.625920	-0.305594	0.333325
N195	N	1.959253	0.027739	0.666659
H196	H	1.347978	-0.606631	0.000009
H197	H	1.681312	-0.273297	0.333343
H198	H	2.014645	0.060036	0.666676
H199	H	1.291854	-0.666705	0.063168
H200	H	1.625187	-0.333372	0.396502
H201	H	1.958521	-0.000038	0.729835
H202	H	0.959222	-0.485548	-0.000011
H203	H	1.292555	-0.152214	0.333323
H204	H	1.625888	0.181119	0.666656
