data_functionalizedCrystal
_audit_creation_method	'MofGen! by Chris Wilmer'
_symmetry_space_group_name_H-M	'P1'
_symmetry_Int_Tables_number	1
_symmetry_cell_setting	triclinic
loop_
_symmetry_equiv_pos_as_xyz
  x,y,z
_cell_length_a	11.792254
_cell_length_b	14.971494
_cell_length_c	14.048226
_cell_angle_alpha	89.995286
_cell_angle_beta	90.007647
_cell_angle_gamma	96.091922
loop_
_atom_site_label
_atom_site_type_symbol
_atom_site_fract_x
_atom_site_fract_y
_atom_site_fract_z
O1	O	-1.506117	0.122652	-0.079184
O2	O	-1.175696	0.135276	-0.079179
O3	O	-1.349758	-0.001200	-0.079179
O4	O	-1.332055	0.259128	-0.079183
O5	O	-1.349737	-0.001208	0.079142
O6	O	-1.175675	0.135267	0.079142
O7	O	-1.506096	0.122644	0.079138
Zn8	Zn	-1.340882	0.128955	0.104277
Zn9	Zn	-1.340910	0.128965	-0.104318
O10	O	-1.332034	0.259120	0.079138
C11	C	-1.133400	0.134476	-0.000018
C12	C	-1.007403	0.132096	-0.000016
C13	C	-0.905078	0.130162	-0.000019
C14	C	-0.776707	0.127744	-0.000017
C15	C	-1.348954	-0.034532	-0.000020
C16	C	-1.346576	-0.133838	-0.000025
C17	C	-1.345473	-0.180483	-0.086327
C18	C	-1.343232	-0.273791	-0.086328
C19	C	-1.342102	-0.320453	-0.000026
C20	C	-1.343202	-0.273802	0.086283
C21	C	-1.345435	-0.180494	0.086283
C22	C	-1.338550	-0.468284	0.086277
C23	C	-1.336319	-0.561597	0.086277
C24	C	-1.336347	-0.561580	-0.086334
C25	C	-1.338580	-0.468273	-0.086334
C26	C	-1.339682	-0.421628	-0.000025
C27	C	-0.548392	0.123444	-0.000021
C28	C	-0.674389	0.125824	-0.000015
C29	C	-1.332838	0.292451	-0.000023
C30	C	-1.335216	0.391758	-0.000025
N31	N	-1.340872	0.128947	0.246638
N32	N	-1.340929	0.128966	-0.246679
C33	C	-1.417970	0.068541	0.296456
C34	C	-1.417978	0.068540	0.396113
C35	C	-1.340892	0.128951	0.445951
C36	C	-1.263785	0.189360	0.396126
C37	C	-1.263773	0.189355	0.296470
C38	C	-1.263818	0.189366	0.603840
C39	C	-1.263831	0.189372	0.703503
C40	C	-1.418023	0.068551	0.703483
C41	C	-1.418011	0.068547	0.603827
C42	C	-1.340905	0.128957	0.554009
H43	H	-1.342339	-0.311765	-0.156603
C44	C	-1.178964	0.255805	0.241667
C45	C	-1.094210	0.322287	0.296484
C46	C	-1.009395	0.388736	0.241683
C47	C	-1.009334	0.388702	0.132065
C48	C	-1.094092	0.322217	0.077243
C49	C	-1.178907	0.255769	0.132044
H50	H	-1.094252	0.322315	0.377635
H51	H	-0.946652	0.437953	0.282266
H52	H	-0.946549	0.437892	0.091498
H53	H	-1.094050	0.322190	-0.003908
H54	H	-1.241650	0.206552	0.091460
C55	C	-1.179027	0.255820	0.758322
C56	C	-1.223459	0.324475	0.826811
C57	C	-1.138651	0.390924	0.881627
C58	C	-1.009412	0.388716	0.867955
C59	C	-0.964974	0.320058	0.799464
C60	C	-1.049781	0.253609	0.744647
H61	H	-1.319135	0.326112	0.836934
H62	H	-1.171548	0.441749	0.932329
H63	H	-0.946633	0.437905	0.908534
H64	H	-0.869297	0.318421	0.789340
H65	H	-1.016884	0.202784	0.693945
C66	C	-1.339821	-0.416944	-0.181267
C67	C	-1.437999	-0.439438	-0.252472
C68	C	-1.439234	-0.388109	-0.347407
C69	C	-1.342292	-0.314286	-0.371135
C70	C	-1.244107	-0.291788	-0.299928
C71	C	-1.242871	-0.343117	-0.204993
H72	H	-1.509768	-0.494090	-0.234909
H73	H	-1.511918	-0.404764	-0.400119
H74	H	-1.343206	-0.276290	-0.441411
H75	H	-1.172338	-0.237136	-0.317491
H76	H	-1.170188	-0.326462	-0.152281
H77	H	-1.346400	-0.142497	-0.156604
C78	C	-1.502768	0.002086	0.241639
C79	C	-1.587570	-0.064363	0.296444
C80	C	-1.672368	-0.130821	0.241631
C81	C	-1.672364	-0.130831	0.132013
C82	C	-1.587560	-0.064380	0.077202
C83	C	-1.502762	0.002079	0.132015
H84	H	-1.587575	-0.064358	0.377595
H85	H	-1.735145	-0.180013	0.282206
H86	H	-1.735137	-0.180028	0.091437
H87	H	-1.587554	-0.064385	-0.003949
H88	H	-1.439984	0.051271	0.091440
H89	H	-1.335448	-0.599563	-0.156610
H90	H	-1.480804	0.019363	0.744051
C91	C	-1.335007	-0.612944	0.181194
C92	C	-1.236770	-0.590450	0.252344
C93	C	-1.235430	-0.641805	0.347255
C94	C	-1.332326	-0.715655	0.371017
C95	C	-1.430571	-0.738154	0.299866
C96	C	-1.431911	-0.686798	0.204954
H97	H	-1.165035	-0.535778	0.234755
H98	H	-1.162702	-0.625150	0.399926
H99	H	-1.331334	-0.753672	0.441276
H100	H	-1.502306	-0.792825	0.317454
H101	H	-1.504639	-0.703453	0.152283
H102	H	-1.339422	-0.430306	0.156559
H103	H	-1.480757	0.019352	0.436675
H104	H	-1.201014	0.238544	0.436710
H105	H	-1.346317	-0.142516	0.156559
H106	H	-1.342274	-0.311801	0.156551
C107	C	-1.502805	0.002098	0.549001
C108	C	-1.500770	-0.099771	0.562708
C109	C	-1.585561	-0.166222	0.507880
C110	C	-1.672388	-0.130805	0.439344
C111	C	-1.674426	-0.028931	0.425633
C112	C	-1.589635	0.037520	0.480462
H113	H	-1.436492	-0.125994	0.613445
H114	H	-1.584052	-0.241636	0.518030
H115	H	-1.735156	-0.179996	0.398757
H116	H	-1.738704	-0.002708	0.374896
H117	H	-1.591144	0.112934	0.470312
H118	H	-1.201026	0.238556	0.563282
