data_functionalizedCrystal
_audit_creation_method	'MofGen! by Chris Wilmer'
_symmetry_space_group_name_H-M	'P1'
_symmetry_Int_Tables_number	1
_symmetry_cell_setting	triclinic
loop_
_symmetry_equiv_pos_as_xyz
  x,y,z
_cell_length_a	19.805407
_cell_length_b	25.639240
_cell_length_c	19.805399
_cell_angle_alpha	89.964092
_cell_angle_beta	89.975799
_cell_angle_gamma	90.032003
loop_
_atom_site_label
_atom_site_type_symbol
_atom_site_fract_x
_atom_site_fract_y
_atom_site_fract_z
Zn1	Zn	1.034706	-0.208173	-0.382764
Zn2	Zn	1.034608	-0.295607	-0.269559
Zn3	Zn	0.921520	-0.208187	-0.269579
Zn4	Zn	0.921471	-0.295578	-0.382697
O5	O	0.978076	-0.251886	-0.326150
O6	O	1.129409	-0.219778	-0.367767
O7	O	1.019586	-0.284029	-0.174845
O8	O	0.936596	-0.135020	-0.284630
O9	O	1.129338	-0.284016	-0.284596
O10	O	1.019753	-0.135010	-0.367786
O11	O	0.936501	-0.219801	-0.174860
O12	O	0.826797	-0.219773	-0.284565
O13	O	0.936513	-0.283966	-0.477422
O14	O	0.826761	-0.283979	-0.367672
O15	O	1.019705	-0.219750	-0.477472
O16	O	1.019539	-0.368769	-0.284531
O17	O	0.936418	-0.368748	-0.367652
C18	C	0.802220	-0.251875	-0.326114
C19	C	0.726988	-0.251882	-0.326114
C20	C	0.265196	-0.285382	-0.369399
C21	C	0.335885	-0.285381	-0.369385
C22	C	0.371227	-0.251899	-0.326176
C23	C	0.335877	-0.218420	-0.282975
C24	C	0.265189	-0.218424	-0.282986
C25	C	0.620950	-0.218404	-0.282927
C26	C	0.691642	-0.218402	-0.282920
C27	C	0.691645	-0.285361	-0.369326
C28	C	0.620958	-0.285365	-0.369337
C29	C	0.585614	-0.251888	-0.326133
C30	C	0.508966	-0.251890	-0.326148
C31	C	0.447874	-0.251894	-0.326164
C32	C	0.977981	-0.387729	-0.326097
C33	C	0.978002	-0.445843	-0.326097
C34	C	1.021398	-0.806163	-0.369527
C35	C	1.021418	-0.860767	-0.369541
O36	O	1.058201	-0.888967	-0.406413
N37	N	0.978170	-0.888126	-0.326215
C38	C	0.934895	-0.860877	-0.282878
O39	O	0.898112	-0.889162	-0.246027
C40	C	0.934873	-0.806274	-0.282868
C41	C	0.978128	-0.778918	-0.326192
C42	C	1.064649	-0.778807	-0.412848
C43	C	1.064629	-0.724206	-0.412834
C44	C	1.021359	-0.696962	-0.369498
C45	C	0.978108	-0.724317	-0.326177
C46	C	0.891595	-0.779026	-0.239534
C47	C	0.891575	-0.724419	-0.239528
C48	C	0.934830	-0.697063	-0.282852
C49	C	0.934819	-0.642472	-0.282826
N50	N	0.978066	-0.615114	-0.326152
C51	C	1.021336	-0.642358	-0.369488
C52	C	0.934946	-0.975548	-0.282903
C53	C	0.934972	-1.030150	-0.282908
C54	C	1.021493	-1.030036	-0.369573
C55	C	1.021470	-0.975433	-0.369563
C56	C	0.978193	-0.948189	-0.326228
C57	C	1.021293	-0.527693	-0.369453
C58	C	1.021272	-0.473088	-0.369433
C59	C	0.934748	-0.473206	-0.282771
C60	C	0.934772	-0.527807	-0.282789
C61	C	0.978046	-0.555049	-0.326135
O62	O	0.898053	-0.614238	-0.245975
O63	O	1.058108	-0.614067	-0.406338
C64	C	1.154619	-0.251899	-0.326187
C65	C	1.229851	-0.251904	-0.326202
C66	C	0.978114	-0.251854	-0.502693
C67	C	0.978131	-0.251840	-0.577925
C68	C	0.978191	-0.115513	-0.326218
C69	C	0.978240	-0.057399	-0.326247
C70	C	1.021450	-0.218401	-0.613296
C71	C	1.021457	-0.218385	-0.683984
C72	C	0.978147	-0.251812	-0.719300
C73	C	0.934823	-0.285253	-0.683925
C74	C	0.934813	-0.285265	-0.613237
C75	C	0.934861	-0.285204	-0.968998
C76	C	0.934876	-0.285190	-1.039690
C77	C	1.021505	-0.218324	-1.039745
C78	C	1.021495	-0.218337	-0.969058
C79	C	0.978169	-0.251775	-0.933688
C80	C	0.978161	-0.251790	-0.857039
C81	C	0.978158	-0.251800	-0.795948
C82	C	0.978078	-0.251882	-0.150294
C83	C	0.978193	-0.251748	-0.075062
H84	H	0.364660	-0.312643	-0.404558
H85	H	0.899557	-0.312468	-0.712685
C86	C	0.844005	-0.809105	-0.191878
N87	N	0.808156	-0.831760	-0.155983
H88	H	1.056734	-0.191157	-0.712780
H89	H	0.592181	-0.191147	-0.247745
C90	C	0.887151	-0.443227	-0.235107
N91	N	0.851295	-0.420645	-0.199210
H92	H	1.056720	-0.191182	-0.584546
H93	H	1.056765	-0.191119	-0.940307
C94	C	0.887199	-0.321986	-0.930101
N95	N	0.851296	-0.349690	-0.900801
C96	C	0.582086	-0.322201	-0.416864
N97	N	0.552808	-0.349951	-0.452658
H98	H	1.056781	-0.191096	-1.068551
H99	H	0.899707	-0.953368	-0.247609
H100	H	1.099884	-0.800984	-0.448141
H101	H	0.899605	-0.312412	-1.068443
C102	C	0.887160	-0.322051	-0.574330
N103	N	0.851264	-0.349759	-0.545025
H104	H	0.720431	-0.312621	-0.404503
C105	C	0.226327	-0.322216	-0.416931
N106	N	0.197052	-0.349963	-0.452731
H107	H	0.720415	-0.191135	-0.247734
H108	H	1.056692	-0.953163	-0.404842
H109	H	0.364658	-0.191161	-0.247791
H110	H	1.056498	-0.450816	-0.404712
C111	C	0.226310	-0.181594	-0.235468
N112	N	0.197027	-0.153854	-0.199674
H113	H	1.056527	-0.549867	-0.404755
H114	H	1.099849	-0.701936	-0.448113
C115	C	0.887193	-0.557899	-0.235127
N116	N	0.851351	-0.580561	-0.199232
C117	C	0.887393	-1.060235	-0.235244
N118	N	0.851552	-1.082894	-0.199344
C119	C	1.069087	-1.060016	-0.417249
N120	N	1.104931	-1.082598	-0.453156
C121	C	0.843967	-0.694455	-0.191855
N122	N	0.808109	-0.671886	-0.155945
