data_functionalizedCrystal
_audit_creation_method	'MofGen! by Chris Wilmer'
_symmetry_space_group_name_H-M	'P1'
_symmetry_Int_Tables_number	1
_symmetry_cell_setting	triclinic
loop_
_symmetry_equiv_pos_as_xyz
  x,y,z
_cell_length_a	16.959455
_cell_length_b	16.959454
_cell_length_c	16.959447
_cell_angle_alpha	89.973264
_cell_angle_beta	89.985678
_cell_angle_gamma	90.017022
loop_
_atom_site_label
_atom_site_type_symbol
_atom_site_fract_x
_atom_site_fract_y
_atom_site_fract_z
Zn1	Zn	1.208384	-0.314730	-0.446928
Zn2	Zn	1.208306	-0.446923	-0.314758
Zn3	Zn	1.076212	-0.314755	-0.314766
Zn4	Zn	1.076177	-0.446864	-0.446897
O5	O	1.142270	-0.380818	-0.380837
O6	O	1.318984	-0.332280	-0.429406
O7	O	1.190766	-0.429426	-0.204148
O8	O	1.093792	-0.204141	-0.332314
O9	O	1.318927	-0.429402	-0.332301
O10	O	1.190898	-0.204123	-0.429413
O11	O	1.093717	-0.332323	-0.204154
O12	O	0.965597	-0.332265	-0.332283
O13	O	1.093732	-0.429301	-0.557512
O14	O	0.965571	-0.429325	-0.429359
O15	O	1.190864	-0.332223	-0.557535
O16	O	1.190732	-0.557526	-0.332270
O17	O	1.093657	-0.557482	-0.429352
C18	C	0.936904	-0.380792	-0.380819
C19	C	0.849047	-0.380800	-0.380830
C20	C	0.477560	-0.330238	-0.330395
C21	C	0.477582	-0.431463	-0.431324
C22	C	0.560128	-0.431452	-0.431320
C23	C	0.601394	-0.380834	-0.380851
C24	C	0.560114	-0.330226	-0.330387
C25	C	0.601414	-0.482064	-0.481777
C26	C	0.683965	-0.482055	-0.481773
C27	C	0.725233	-0.431432	-0.431308
C28	C	0.683948	-0.380822	-0.380843
C29	C	0.725213	-0.330204	-0.330374
C30	C	0.683930	-0.279589	-0.279913
C31	C	0.601381	-0.279603	-0.279922
C32	C	0.807781	-0.431418	-0.431299
C33	C	0.807767	-0.330193	-0.330366
C34	C	1.142204	-0.586184	-0.380824
C35	C	1.142248	-0.674041	-0.380844
C36	C	1.091796	-1.045524	-0.431382
C37	C	1.192963	-1.045509	-0.330373
C38	C	1.192936	-0.962963	-0.330365
C39	C	1.142337	-0.921694	-0.380867
C40	C	1.091765	-0.962970	-0.431375
C41	C	1.243501	-0.921680	-0.279852
C42	C	1.243475	-0.839130	-0.279842
C43	C	1.192879	-0.797859	-0.330348
C44	C	1.142306	-0.839140	-0.380859
C45	C	1.091707	-0.797871	-0.431360
C46	C	1.041137	-0.839151	-0.481876
C47	C	1.041170	-0.921699	-0.481881
C48	C	1.192847	-0.715310	-0.330343
C49	C	1.091676	-0.715317	-0.431353
C50	C	1.348438	-0.380845	-0.380856
C51	C	1.436295	-0.380856	-0.380864
C52	C	1.142303	-0.380753	-0.587006
C53	C	1.142317	-0.380725	-0.674862
C54	C	1.142358	-0.174650	-0.380868
C55	C	1.142395	-0.086793	-0.380881
C56	C	1.091839	-0.431185	-1.046328
C57	C	1.192983	-0.330097	-1.046348
C58	C	1.192962	-0.330114	-0.963802
C59	C	1.142380	-0.380668	-0.922515
C60	C	1.091818	-0.431205	-0.963775
C61	C	1.243529	-0.279584	-0.922536
C62	C	1.243510	-0.279599	-0.839985
C63	C	1.192923	-0.330149	-0.798697
C64	C	1.142359	-0.380688	-0.839962
C65	C	1.091776	-0.431242	-0.798675
C66	C	1.041207	-0.481777	-0.839938
C67	C	1.041231	-0.481756	-0.922487
C68	C	1.192899	-0.330171	-0.716149
C69	C	1.091755	-0.431262	-0.716122
C70	C	1.142283	-0.380826	-0.175471
C71	C	1.142422	-0.380631	-0.087615
H72	H	0.841390	-0.472630	-0.472381
O73	O	1.042785	-1.085705	-0.480489
C74	C	1.032120	-1.178810	-0.587243
C75	C	1.087714	-1.133367	-0.531668
H76	H	1.068424	-1.217342	-0.628647
H77	H	0.990841	-1.217561	-0.550966
H78	H	0.995933	-1.135117	-0.623298
H79	H	1.123952	-1.177003	-0.495602
H80	H	1.128941	-1.094603	-0.567991
O81	O	1.292666	-0.961839	-0.230875
C82	C	1.399278	-1.055129	-0.220223
C83	C	1.343700	-1.009656	-0.275806
H84	H	1.440542	-1.093812	-0.256527
H85	H	1.435474	-1.011525	-0.184083
H86	H	1.362918	-1.093755	-0.178901
H87	H	1.379999	-0.971028	-0.317176
H88	H	1.307502	-1.053302	-0.311891
O89	O	0.991937	-0.961710	-0.530905
C90	C	0.857464	-0.987072	-0.569121
C91	C	0.913132	-0.941695	-0.513566
H92	H	0.793738	-0.970919	-0.555110
H93	H	0.871231	-0.970785	-0.632882
H94	H	0.866216	-1.053156	-0.560462
H95	H	0.904412	-0.875600	-0.522154
H96	H	0.899351	-0.958048	-0.449825
O97	O	0.992101	-0.799021	-0.531015
C98	C	0.981371	-0.705713	-0.637667
C99	C	1.036992	-0.751129	-0.582082
H100	H	1.017643	-0.666969	-0.678957
H101	H	0.945246	-0.749353	-0.673834
H102	H	0.940036	-0.667152	-0.601315
H103	H	1.078376	-0.789691	-0.618373
H104	H	1.073062	-0.707447	-0.545912
H105	H	1.050475	-0.681721	-0.472480
O106	O	0.561401	-0.230372	-0.230877
C107	C	0.570087	-0.130006	-0.130727
C108	C	0.615466	-0.185703	-0.186245
H109	H	0.613779	-0.093888	-0.094616
H110	H	0.531476	-0.088674	-0.167050
H111	H	0.531402	-0.166269	-0.089375
H112	H	0.654194	-0.149503	-0.227609
H113	H	0.654028	-0.227037	-0.149873
H114	H	1.000026	-0.522942	-0.806312
H115	H	1.234154	-1.079115	-0.289252
H116	H	0.841360	-0.288968	-0.289273
O117	O	0.437460	-0.480516	-0.480430
C118	C	0.344246	-0.491281	-0.587097
C119	C	0.389655	-0.435640	-0.531543
H120	H	0.305572	-0.455022	-0.628424
H121	H	0.387890	-0.527436	-0.623225
H122	H	0.305615	-0.532587	-0.550722
H123	H	0.428287	-0.394286	-0.567856
H124	H	0.345968	-0.399540	-0.495411
H125	H	1.284651	-0.805524	-0.238711
O126	O	0.561288	-0.531114	-0.530881
C127	C	0.468075	-0.541870	-0.637550
C128	C	0.513491	-0.486233	-0.581998
H129	H	0.429408	-0.505607	-0.678880
H130	H	0.511715	-0.578034	-0.673676
H131	H	0.429437	-0.583168	-0.601174
H132	H	0.552130	-0.444887	-0.618312
H133	H	0.469809	-0.450125	-0.545869
O134	O	1.292651	-0.230433	-0.800028
C135	C	1.393006	-0.130195	-0.808767
C136	C	1.337385	-0.185824	-0.854117
H137	H	1.429200	-0.094126	-0.852477
H138	H	1.356759	-0.088814	-0.770155
H139	H	1.434277	-0.166508	-0.770085
H140	H	1.296103	-0.149574	-0.892841
H141	H	1.373681	-0.227206	-0.892679
H142	H	0.443944	-0.289026	-0.289313
H143	H	1.234016	-0.681704	-0.289211
H144	H	0.717571	-0.523268	-0.522863
H145	H	0.717539	-0.238379	-0.238818
O146	O	1.241931	-0.280976	-0.676101
C147	C	1.280395	-0.146539	-0.650909
C148	C	1.224802	-0.202165	-0.696298
H149	H	1.266577	-0.082809	-0.667234
H150	H	1.271686	-0.155166	-0.584808
H151	H	1.344123	-0.160471	-0.667124
H152	H	1.161053	-0.188268	-0.680148
H153	H	1.233579	-0.193527	-0.762388
O154	O	1.042730	-0.480410	-0.675930
C155	C	1.032036	-0.587184	-0.582743
C156	C	1.087643	-0.531561	-0.628199
H157	H	1.068327	-0.628564	-0.544155
H158	H	0.990727	-0.550942	-0.544047
H159	H	0.995882	-0.623260	-0.626429
H160	H	1.123849	-0.495472	-0.584570
H161	H	1.128900	-0.567848	-0.666907
H162	H	1.000063	-0.522901	-0.956091
O163	O	1.042793	-0.480248	-1.086528
C164	C	0.997953	-0.524984	-1.213686
C165	C	1.053550	-0.469394	-1.168258
H166	H	1.006619	-0.516216	-1.279772
H167	H	1.011803	-0.588743	-1.197501
H168	H	0.934229	-0.511106	-1.197405
H169	H	1.117293	-0.483200	-1.184514
H170	H	1.039632	-0.405651	-1.184446
O171	O	1.242046	-0.281022	-1.086572
C172	C	1.286946	-0.236235	-1.213755
C173	C	1.231327	-0.291842	-1.168296
H174	H	1.278311	-0.244977	-1.279837
H175	H	1.273089	-0.172482	-1.197604
H176	H	1.350662	-0.250121	-1.197470
H177	H	1.167592	-0.278029	-1.184557
H178	H	1.245251	-0.355579	-1.184451
H179	H	1.284715	-0.238430	-0.956158
