data_functionalizedCrystal
_audit_creation_method	'MofGen! by Chris Wilmer'
_symmetry_space_group_name_H-M	'P1'
_symmetry_Int_Tables_number	1
_symmetry_cell_setting	triclinic
loop_
_symmetry_equiv_pos_as_xyz
  x,y,z
_cell_length_a	10.654550
_cell_length_b	12.837942
_cell_length_c	9.730223
_cell_angle_alpha	89.996108
_cell_angle_beta	89.999957
_cell_angle_gamma	89.656935
loop_
_atom_site_label
_atom_site_type_symbol
_atom_site_fract_x
_atom_site_fract_y
_atom_site_fract_z
O1	O	1.683741	0.145723	-0.114186
O2	O	1.319778	0.159606	-0.114211
O3	O	1.493689	0.001704	-0.114190
O4	O	1.509830	0.303625	-0.114206
O5	O	1.493676	0.001699	0.114390
O6	O	1.319765	0.159602	0.114369
O7	O	1.683728	0.145718	0.114394
Zn8	Zn	1.501744	0.152660	0.150674
Zn9	Zn	1.501761	0.152665	-0.150490
O10	O	1.509817	0.303621	0.114374
C11	C	1.272862	0.158585	0.000076
C12	C	1.133086	0.155535	0.000067
C13	C	1.488230	-0.036958	0.000099
C14	C	1.471967	-0.152152	0.000095
C15	C	1.063746	0.248505	0.000066
C16	C	0.932411	0.245633	0.000090
C17	C	0.939770	0.056812	0.000110
C18	C	1.071101	0.059685	0.000096
C19	C	1.667472	-0.391705	0.000080
C20	C	1.652197	-0.499941	0.000077
C21	C	1.426146	-0.476861	0.000075
C22	C	1.441420	-0.368626	0.000079
C23	C	1.562087	-0.326052	0.000083
C24	C	1.577360	-0.217814	0.000096
C25	C	1.351309	-0.194737	0.000085
C26	C	1.336035	-0.302972	0.000082
C27	C	1.730644	0.146740	0.000104
C28	C	1.870420	0.149790	0.000105
C29	C	1.515276	0.342283	0.000082
C30	C	1.531538	0.457477	0.000076
N31	N	1.501742	0.152655	0.356210
N32	N	1.501773	0.152662	-0.356027
C33	C	1.578782	0.082766	0.428145
C34	C	1.578795	0.082766	0.572028
C35	C	1.424724	0.222554	0.572028
C36	C	1.424705	0.222548	0.428148
H37	H	1.114209	0.326552	0.000052
H38	H	1.127560	-0.016027	0.000100
H39	H	1.675613	-0.183153	0.000105
C40	C	0.780436	0.351936	-0.117412
C41	C	0.856190	0.347829	0.000080
H42	H	0.733377	0.415028	-0.117410
H43	H	0.831815	0.349131	-0.197114
H44	H	0.724726	0.294440	-0.117378
H45	H	0.911907	0.405321	0.000041
H46	H	0.804807	0.350644	0.079803
C47	C	1.372369	0.401599	0.383813
C48	C	1.340021	0.299380	0.349066
H49	H	1.320092	0.449026	0.334983
H50	H	1.361349	0.411602	0.479785
H51	H	1.457602	0.413497	0.360212
H52	H	1.254790	0.287480	0.372676
H53	H	1.351029	0.289373	0.253072
H54	H	1.765723	-0.357041	0.000097
C55	C	0.796341	-0.055958	-0.117378
C56	C	0.871632	-0.048542	0.000123
H57	H	0.754285	-0.121005	-0.117374
H58	H	0.736253	-0.001007	-0.117366
H59	H	0.847432	-0.050911	-0.197082
H60	H	0.820540	-0.053583	0.079828
H61	H	0.931728	-0.103510	0.000124
C62	C	1.840172	-0.552920	-0.117423
C63	C	1.768041	-0.572106	0.000078
H64	H	1.911695	-0.597468	-0.117416
H65	H	1.791230	-0.565919	-0.197119
H66	H	1.866524	-0.482361	-0.117406
H67	H	1.741681	-0.642663	0.000056
H68	H	1.816992	-0.559115	0.079795
H69	H	1.327904	-0.511544	0.000057
H70	H	1.641526	0.025854	0.630594
C71	C	1.256388	0.243759	0.733872
C72	C	1.340060	0.299383	0.651114
H73	H	1.204128	0.291195	0.782700
H74	H	1.206004	0.200233	0.677759
H75	H	1.302291	0.202139	0.797299
H76	H	1.294157	0.340998	0.587680
H77	H	1.390449	0.342928	0.707233
H78	H	1.237791	-0.337651	0.000073
C79	C	1.747075	0.061488	0.266244
C80	C	1.663387	0.005907	0.349034
H81	H	1.799291	0.014027	0.217404
H82	H	1.701192	0.103127	0.202841
H83	H	1.797513	0.104994	0.322348
H84	H	1.612942	-0.037593	0.292928
H85	H	1.709275	-0.035749	0.412444
C86	C	1.237330	-0.059625	-0.117419
C87	C	1.235455	-0.122572	0.000082
H88	H	1.165803	-0.015080	-0.117419
H89	H	1.311363	-0.018776	-0.117404
H90	H	1.236073	-0.102332	-0.197124
H91	H	1.236721	-0.079864	0.079787
H92	H	1.161402	-0.163424	0.000079
