data_functionalizedCrystal
_audit_creation_method	'MofGen! by Chris Wilmer'
_symmetry_space_group_name_H-M	'P1'
_symmetry_Int_Tables_number	1
_symmetry_cell_setting	triclinic
loop_
_symmetry_equiv_pos_as_xyz
  x,y,z
_cell_length_a	11.169417
_cell_length_b	19.077068
_cell_length_c	11.169409
_cell_angle_alpha	92.259065
_cell_angle_beta	89.980487
_cell_angle_gamma	92.328150
loop_
_atom_site_label
_atom_site_type_symbol
_atom_site_fract_x
_atom_site_fract_y
_atom_site_fract_z
Zn1	Zn	1.815630	-0.280119	-0.697655
Zn2	Zn	1.807395	-0.397840	-0.505008
Zn3	Zn	1.614913	-0.280163	-0.496993
Zn4	Zn	1.606803	-0.397783	-0.705650
O5	O	1.711185	-0.338976	-0.601326
O6	O	1.982487	-0.295741	-0.672108
O7	O	1.781810	-0.382271	-0.335998
O8	O	1.648379	-0.181667	-0.516911
O9	O	1.976437	-0.382229	-0.530571
O10	O	1.795845	-0.181635	-0.664337
O11	O	1.640394	-0.295815	-0.330109
O12	O	1.445888	-0.295760	-0.524664
O13	O	1.634557	-0.382133	-0.872536
O14	O	1.439929	-0.382175	-0.677963
O15	O	1.787981	-0.295686	-0.866662
O16	O	1.773946	-0.496323	-0.538323
O17	O	1.626572	-0.496281	-0.685734
C18	C	1.399361	-0.338967	-0.601312
C19	C	1.265960	-0.338980	-0.601335
C20	C	1.698518	-0.521839	-0.613792
C21	C	1.693208	-0.600069	-0.619165
C22	C	1.767503	-0.636820	-0.545004
C23	C	1.762516	-0.710325	-0.550065
C24	C	1.683228	-0.747077	-0.629281
C25	C	1.608930	-0.710322	-0.703451
C26	C	1.613923	-0.636818	-0.698395
C27	C	1.660064	-0.966910	-0.652630
C28	C	1.655073	-1.040419	-0.657677
C29	C	1.808662	-1.040417	-0.504293
C30	C	1.813644	-0.966912	-0.499239
C31	C	1.739350	-0.930162	-0.573413
N32	N	1.678126	-0.822211	-0.634453
N33	N	1.744459	-0.855030	-0.568246
C34	C	2.024227	-0.338986	-0.601342
C35	C	2.157627	-0.338991	-0.601348
C36	C	1.711283	-0.338898	-0.914364
C37	C	1.711324	-0.338865	-1.047761
C38	C	1.723935	-0.155399	-0.588838
C39	C	1.729368	-0.077170	-0.583516
C40	C	1.711161	-0.339003	-0.289503
C41	C	1.711365	-0.338838	-0.156093
H42	H	1.832063	-0.606900	-0.480493
H43	H	1.553426	-0.606896	-0.758786
O44	O	1.531939	-0.746130	-0.780297
C45	C	1.543479	-0.818887	-0.768877
H46	H	1.582150	-0.828954	-0.676981
H47	H	1.451674	-0.846861	-0.778862
H48	H	1.605941	-0.839681	-0.841550
O49	O	1.834728	-0.745915	-0.477900
C50	C	1.905795	-0.697714	-0.406914
H51	H	1.860192	-0.645346	-0.399117
H52	H	1.917196	-0.718994	-0.313826
H53	H	1.997462	-0.689828	-0.450393
O54	O	1.890612	-0.931293	-0.422133
C55	C	1.863206	-0.949314	-0.303729
H56	H	1.813438	-1.002705	-0.304872
H57	H	1.949685	-0.951817	-0.250165
H58	H	1.804337	-0.907994	-0.260406
H59	H	1.590521	-1.070341	-0.722206
O60	O	1.880796	-1.076224	-0.432381
C61	C	1.859374	-1.148982	-0.453808
H62	H	1.819326	-1.158993	-0.547078
H63	H	1.947388	-1.176873	-0.447679
H64	H	1.794091	-1.169912	-0.383994
H65	H	1.599569	-0.936994	-0.713023
