data_functionalizedCrystal
_audit_creation_method	'MofGen! by Chris Wilmer'
_symmetry_space_group_name_H-M	'P1'
_symmetry_Int_Tables_number	1
_symmetry_cell_setting	triclinic
loop_
_symmetry_equiv_pos_as_xyz
  x,y,z
_cell_length_a	23.532407
_cell_length_b	27.731996
_cell_length_c	22.610064
_cell_angle_alpha	89.998076
_cell_angle_beta	89.997161
_cell_angle_gamma	82.735033
loop_
_atom_site_label
_atom_site_type_symbol
_atom_site_fract_x
_atom_site_fract_y
_atom_site_fract_z
O1	O	0.755125	0.058674	-0.049118
O2	O	1.088459	0.392007	0.284215
O3	O	1.421792	0.725340	0.617548
O4	O	0.589242	0.067164	-0.049137
O5	O	0.922575	0.400497	0.284197
O6	O	1.255909	0.733831	0.617530
O7	O	0.677351	-0.007472	-0.049114
O8	O	1.010684	0.325862	0.284219
O9	O	1.344018	0.659195	0.617552
O10	O	0.667016	0.133309	-0.049141
O11	O	1.000349	0.466643	0.284192
O12	O	1.333683	0.799976	0.617526
O13	O	0.677335	-0.007461	0.049255
O14	O	1.010669	0.325872	0.382588
O15	O	1.344002	0.659206	0.715922
O16	O	0.589226	0.067175	0.049232
O17	O	0.922560	0.400508	0.382566
O18	O	1.255893	0.733842	0.715899
O19	O	0.755110	0.058684	0.049251
O20	O	1.088443	0.392018	0.382584
O21	O	1.421776	0.725351	0.715918
Zn22	Zn	0.672166	0.062931	0.064860
Zn23	Zn	1.005499	0.396265	0.398193
Zn24	Zn	1.338832	0.729598	0.731527
Zn25	Zn	0.672186	0.062917	-0.064746
Zn26	Zn	1.005519	0.396250	0.268588
Zn27	Zn	1.338853	0.729584	0.601921
O28	O	0.667001	0.133320	0.049228
O29	O	1.000334	0.466654	0.382562
O30	O	1.333667	0.799987	0.715895
C31	C	0.568019	0.066953	0.000046
C32	C	0.901352	0.400287	0.333379
C33	C	1.234685	0.733620	0.666712
C34	C	0.504803	0.066303	0.000039
C35	C	0.838136	0.399637	0.333373
C36	C	1.171470	0.732970	0.666706
C37	C	0.105606	0.106394	0.000058
C38	C	0.438939	0.439727	0.333392
C39	C	0.772272	0.773061	0.666725
C40	C	0.046207	0.105790	0.000062
C41	C	0.379540	0.439123	0.333395
C42	C	0.712873	0.772457	0.666729
O43	O	0.009375	0.142955	0.000077
O44	O	0.342708	0.476288	0.333410
O45	O	0.676041	0.809621	0.666743
N46	N	0.023685	0.061419	0.000070
N47	N	0.357018	0.394752	0.333403
N48	N	0.690352	0.728086	0.666736
C49	C	0.060566	0.017649	0.000079
C50	C	0.393899	0.350982	0.333413
C51	C	0.727233	0.684316	0.666746
O52	O	0.035955	-0.020147	0.000086
O53	O	0.369289	0.313186	0.333420
O54	O	0.702622	0.646519	0.666753
C55	C	0.119963	0.018253	0.000080
C56	C	0.453297	0.351587	0.333413
C57	C	0.786630	0.684920	0.666746
C58	C	0.142482	0.062627	0.000066
C59	C	0.475815	0.395961	0.333400
C60	C	0.809148	0.729294	0.666733
C61	C	0.128124	0.150764	0.000046
C62	C	0.461458	0.484098	0.333379
C63	C	0.794791	0.817431	0.666712
C64	C	0.187519	0.151368	0.000041
C65	C	0.520852	0.484701	0.333374
C66	C	0.854186	0.818035	0.666707
C67	C	0.224395	0.107601	0.000049
C68	C	0.557728	0.440935	0.333382
C69	C	0.891062	0.774268	0.666715
C70	C	0.201876	0.063231	0.000061
C71	C	0.535210	0.396564	0.333395
C72	C	0.868543	0.729898	0.666728
C73	C	0.156843	-0.025516	0.000094
C74	C	0.490176	0.307817	0.333427
C75	C	0.823510	0.641151	0.666760
C76	C	0.216244	-0.024908	0.000095
C77	C	0.549577	0.308426	0.333428
C78	C	0.882911	0.641759	0.666761
C79	C	0.238762	0.019466	0.000081
C80	C	0.572096	0.352799	0.333415
C81	C	0.905429	0.686133	0.666748
C82	C	0.298147	0.020068	0.000065
C83	C	0.631480	0.353401	0.333398
C84	C	0.964814	0.686735	0.666731
N85	N	0.320669	0.064439	0.000057
N86	N	0.654002	0.397772	0.333390
N87	N	0.987335	0.731106	0.666724
C88	C	0.283793	0.108206	0.000049
C89	C	0.617126	0.441539	0.333383
C90	C	0.950459	0.774872	0.666716
C91	C	-0.064174	0.016383	0.000079
C92	C	0.269160	0.349717	0.333413
C93	C	0.602493	0.683050	0.666746
C94	C	-0.123570	0.015778	0.000075
C95	C	0.209763	0.349112	0.333408
C96	C	0.543096	0.682445	0.666741
C97	C	-0.137925	0.103920	0.000058
C98	C	0.195408	0.437253	0.333392
C99	C	0.528741	0.770586	0.666725
C100	C	-0.078528	0.104524	0.000059
C101	C	0.254806	0.437857	0.333392
C102	C	0.588139	0.771191	0.666726
C103	C	-0.041652	0.060754	0.000072
C104	C	0.291681	0.394088	0.333405
C105	C	0.625015	0.727421	0.666738
C106	C	0.408526	0.109470	0.000039
C107	C	0.741860	0.442803	0.333372
C108	C	1.075193	0.776137	0.666705
C109	C	0.467927	0.110070	0.000031
C110	C	0.801260	0.443403	0.333365
C111	C	1.134594	0.776737	0.666698
C112	C	0.482277	0.021929	0.000050
C113	C	0.815610	0.355262	0.333384
C114	C	1.148944	0.688596	0.666717
C115	C	0.422881	0.021329	0.000055
C116	C	0.756215	0.354662	0.333388
C117	C	1.089548	0.687996	0.666721
C118	C	0.386007	0.065103	0.000051
C119	C	0.719340	0.398437	0.333384
C120	C	1.052674	0.731770	0.666717
O121	O	0.335014	-0.017077	0.000053
O122	O	0.668347	0.316256	0.333386
O123	O	1.001680	0.649590	0.666719
O124	O	0.308412	0.145996	0.000050
O125	O	0.641745	0.479329	0.333383
O126	O	0.975078	0.812663	0.666716
C127	C	0.677131	-0.025474	0.000072
C128	C	1.010464	0.307859	0.333406
C129	C	1.343798	0.641193	0.666739
C130	C	0.676491	-0.079131	0.000078
C131	C	1.009825	0.254202	0.333412
C132	C	1.343158	0.587535	0.666745
C133	C	0.672477	-0.411860	-0.053572
C134	C	1.005810	-0.078526	0.279761
C135	C	1.339143	0.254807	0.613095
C136	C	0.670048	-0.613522	-0.053583
C137	C	1.003382	-0.280188	0.279751
C138	C	1.336715	0.053145	0.613084
O139	O	0.669717	-0.639598	-0.099186
O140	O	1.003051	-0.306265	0.234148
O141	O	1.336384	0.027069	0.567481
N142	N	0.669738	-0.638733	0.000038
N143	N	1.003072	-0.305400	0.333371
N144	N	1.336405	0.027933	0.666704
C145	C	0.670032	-0.613526	0.053665
C146	C	1.003365	-0.280193	0.386998
C147	C	1.336698	0.053141	0.720331
O148	O	0.669706	-0.639597	0.099272
O149	O	1.003040	-0.306263	0.432605
O150	O	1.336373	0.027070	0.765939
C151	C	0.672456	-0.411864	0.053675
C152	C	1.005789	-0.078531	0.387008
C153	C	1.339123	0.254802	0.720341
C154	C	0.672772	-0.386656	0.000051
C155	C	1.006105	-0.053323	0.333384
C156	C	1.339438	0.280011	0.666717
C157	C	0.672792	-0.386651	-0.107192
C158	C	1.006125	-0.053318	0.226142
C159	C	1.339459	0.280015	0.559475
C160	C	0.673402	-0.336239	-0.107188
C161	C	1.006735	-0.002906	0.226145
C162	C	1.340069	0.330428	0.559478
C163	C	0.673697	-0.311036	-0.053566
C164	C	1.007030	0.022298	0.279768
C165	C	1.340364	0.355631	0.613101
C166	C	0.673382	-0.336244	0.000054
C167	C	1.006715	-0.002911	0.333387
C168	C	1.340049	0.330423	0.666721
C169	C	0.672745	-0.386658	0.107301
C170	C	1.006078	-0.053324	0.440635
C171	C	1.339412	0.280009	0.773968
C172	C	0.673350	-0.336239	0.107299
C173	C	1.006683	-0.002905	0.440632
C174	C	1.340016	0.330428	0.773966
C175	C	0.673665	-0.311030	0.053675
C176	C	1.006999	0.022303	0.387008
C177	C	1.340332	0.355636	0.720342
C178	C	0.674287	-0.260628	0.053680
C179	C	1.007620	0.072705	0.387013
C180	C	1.340954	0.406038	0.720347
N181	N	0.674597	-0.235417	0.000060
N182	N	1.007930	0.097917	0.333393
N183	N	1.341264	0.431250	0.666726
C184	C	0.674302	-0.260620	-0.053563
C185	C	1.007635	0.072713	0.279770
C186	C	1.340969	0.406046	0.613103
C187	C	0.668760	-0.719401	0.053656
C188	C	1.002093	-0.386068	0.386989
C189	C	1.335427	-0.052735	0.720322
C190	C	0.668155	-0.769817	0.053653
C191	C	1.001488	-0.436483	0.386987
C192	C	1.334822	-0.103150	0.720320
C193	C	0.668171	-0.769809	-0.053594
C194	C	1.001504	-0.436475	0.279739
C195	C	1.334838	-0.103142	0.613072
C196	C	0.668780	-0.719393	-0.053591
C197	C	1.002113	-0.386060	0.279742
C198	C	1.335447	-0.052726	0.613075
C199	C	0.669070	-0.694190	0.000035
C200	C	1.002403	-0.360856	0.333369
C201	C	1.335737	-0.027523	0.666702
C202	C	0.675584	-0.154751	-0.053552
C203	C	1.008917	0.178582	0.279781
C204	C	1.342251	0.511915	0.613114
C205	C	0.676197	-0.104335	-0.053545
C206	C	1.009530	0.228998	0.279789
C207	C	1.342863	0.562332	0.613122
C208	C	0.676178	-0.104347	0.053703
C209	C	1.009511	0.228986	0.387036
C210	C	1.342844	0.562320	0.720369
C211	C	0.675568	-0.154759	0.053695
C212	C	1.008902	0.178574	0.387029
C213	C	1.342235	0.511908	0.720362
C214	C	0.675269	-0.179960	0.000063
C215	C	1.008603	0.153373	0.333396
C216	C	1.341936	0.486707	0.666729
O217	O	0.674612	-0.234520	0.099259
O218	O	1.007945	0.098813	0.432593
O219	O	1.341279	0.432146	0.765926
O220	O	0.674615	-0.234539	-0.099164
O221	O	1.007948	0.098794	0.234170
O222	O	1.341281	0.432127	0.567503
C223	C	0.671867	-0.462272	-0.053575
C224	C	1.005200	-0.128939	0.279758
C225	C	1.338533	0.204395	0.613091
C226	C	0.671551	-0.487480	0.000044
C227	C	1.004885	-0.154147	0.333378
C228	C	1.338218	0.179186	0.666711
C229	C	0.671846	-0.462277	0.053667
C230	C	1.005180	-0.128943	0.387001
C231	C	1.338513	0.204390	0.720334
C232	C	0.670946	-0.537896	0.000042
C233	C	1.004280	-0.204562	0.333375
C234	C	1.337613	0.128771	0.666709
C235	C	0.670651	-0.563099	-0.053581
C236	C	1.003985	-0.229766	0.279753
C237	C	1.337318	0.103567	0.613086
C238	C	0.670961	-0.537888	-0.107201
C239	C	1.004295	-0.204554	0.226132
C240	C	1.337628	0.128779	0.559465
C241	C	0.671572	-0.487475	-0.107198
C242	C	1.004905	-0.154142	0.226135
C243	C	1.338238	0.179191	0.559469
C244	C	0.671536	-0.487488	0.107288
C245	C	1.004870	-0.154155	0.440621
C246	C	1.338203	0.179178	0.773954
C247	C	0.670927	-0.537901	0.107280
C248	C	1.004260	-0.204567	0.440613
C249	C	1.337593	0.128766	0.773947
C250	C	0.670632	-0.563104	0.053657
C251	C	1.003965	-0.229771	0.386991
C252	C	1.337298	0.103562	0.720324
C253	C	0.776333	0.058895	0.000067
C254	C	1.109666	0.392229	0.333400
C255	C	1.443000	0.725562	0.666734
C256	C	0.839549	0.059545	0.000070
C257	C	1.172882	0.392879	0.333403
C258	C	1.506215	0.726212	0.666736
C259	C	0.667221	0.151323	0.000040
C260	C	1.000554	0.484656	0.333374
C261	C	1.333887	0.817989	0.666707
C262	C	0.667860	0.204980	0.000031
C263	C	1.001193	0.538313	0.333364
C264	C	1.334527	0.871646	0.666697
N265	N	0.672156	0.062941	0.153312
N266	N	1.005489	0.396274	0.486646
N267	N	1.338822	0.729608	0.819979
N268	N	0.672200	0.062904	-0.153198
N269	N	1.005534	0.396237	0.180135
N270	N	1.338867	0.729570	0.513468
C271	C	0.711202	0.029873	0.561964
C272	C	1.044536	0.363207	0.895297
C273	C	1.377869	0.696540	1.228630
C274	C	0.711205	0.029870	0.623884
C275	C	1.044539	0.363203	0.957217
C276	C	1.377872	0.696536	1.290550
O277	O	0.744380	0.001762	0.655911
O278	O	1.077713	0.335095	0.989244
O279	O	1.411047	0.668428	1.322578
N280	N	0.672186	0.062907	0.654849
N281	N	1.005519	0.396240	0.988183
N282	N	1.338852	0.729574	1.321516
C283	C	0.633157	0.095947	0.623892
C284	C	0.966490	0.429280	0.957226
C285	C	1.299823	0.762613	1.290559
O286	O	0.599967	0.124047	0.655917
O287	O	0.933301	0.457380	0.989250
O288	O	1.266634	0.790713	1.322583
C289	C	0.633151	0.095947	0.561973
C290	C	0.966485	0.429281	0.895307
C291	C	1.299818	0.762614	1.228640
C292	C	0.672178	0.062911	0.531011
C293	C	1.005511	0.396245	0.864344
C294	C	1.338844	0.729578	1.197677
C295	C	0.750225	-0.003160	0.531001
C296	C	1.083558	0.330173	0.864334
C297	C	1.416892	0.663506	1.197668
C298	C	0.750223	-0.003156	0.469085
C299	C	1.083556	0.330177	0.802419
C300	C	1.416889	0.663510	1.135752
C301	C	0.711198	0.029882	0.438132
C302	C	1.044531	0.363215	0.771466
C303	C	1.377864	0.696548	1.104799
C304	C	0.672175	0.062916	0.469095
C305	C	1.005509	0.396249	0.802428
C306	C	1.338842	0.729582	1.135762
C307	C	0.594120	0.128984	0.531017
C308	C	0.927453	0.462318	0.864351
C309	C	1.260787	0.795651	1.197684
C310	C	0.594118	0.128982	0.469094
C311	C	0.927451	0.462315	0.802428
C312	C	1.260785	0.795649	1.135761
C313	C	0.633144	0.095946	0.438132
C314	C	0.966477	0.429279	0.771465
C315	C	1.299811	0.762613	1.104798
C316	C	0.633148	0.095958	0.376227
C317	C	0.966481	0.429291	0.709560
C318	C	1.299815	0.762625	1.042893
N319	N	0.672168	0.062921	0.345261
N320	N	1.005501	0.396254	0.678594
N321	N	1.338834	0.729587	1.011927
C322	C	0.711193	0.029883	0.376214
C323	C	1.044526	0.363216	0.709547
C324	C	1.377859	0.696549	1.042880
C325	C	0.633170	0.095942	0.753926
C326	C	0.966503	0.429275	1.087259
C327	C	1.299836	0.762608	1.420592
C328	C	0.633177	0.095944	0.815843
C329	C	0.966511	0.429277	1.149177
C330	C	1.299844	0.762610	1.482510
C331	C	0.711225	0.029866	0.815831
C332	C	1.044559	0.363199	1.149164
C333	C	1.377892	0.696533	1.482497
C334	C	0.711220	0.029867	0.753912
C335	C	1.044554	0.363200	1.087245
C336	C	1.377887	0.696534	1.420578
C337	C	0.672190	0.062905	0.722960
C338	C	1.005523	0.396238	1.056293
C339	C	1.338856	0.729571	1.389627
C340	C	0.711185	0.029894	0.246186
C341	C	1.044518	0.363228	0.579520
C342	C	1.377852	0.696561	0.912853
C343	C	0.711181	0.029903	0.184265
C344	C	1.044514	0.363236	0.517599
C345	C	1.377847	0.696570	0.850932
C346	C	0.633131	0.095978	0.184283
C347	C	0.966464	0.429312	0.517617
C348	C	1.299797	0.762645	0.850950
C349	C	0.633137	0.095972	0.246199
C350	C	0.966470	0.429305	0.579532
C351	C	1.299803	0.762639	0.912866
C352	C	0.672166	0.062926	0.277149
C353	C	1.005499	0.396259	0.610482
C354	C	1.338833	0.729592	0.943816
O355	O	0.599989	0.124050	0.344160
O356	O	0.933322	0.457384	0.677493
O357	O	1.266655	0.790717	1.010827
O358	O	0.744371	0.001783	0.344182
O359	O	1.077705	0.335116	0.677515
O360	O	1.411038	0.668450	1.010848
H361	H	0.246266	-0.060551	0.000106
H362	H	0.579599	0.272782	0.333439
H363	H	0.912933	0.606115	0.666772
H364	H	0.673657	-0.315719	-0.150855
H365	H	1.006991	0.017615	0.182479
H366	H	1.340324	0.350948	0.515812
N367	N	0.670584	-0.565088	0.165120
N368	N	1.003917	-0.231755	0.498454
N369	N	1.337251	0.101579	0.831787
H370	H	0.705647	-0.590099	0.167521
H371	H	1.038981	-0.256765	0.500854
H372	H	1.372314	0.076568	0.834188
H373	H	0.670840	-0.541435	0.199055
H374	H	1.004174	-0.208102	0.532388
H375	H	1.337507	0.125232	0.865721
N376	N	0.672506	-0.413824	-0.165040
N377	N	1.005840	-0.080491	0.168294
N378	N	1.339173	0.252843	0.501627
H379	H	0.637310	-0.400961	-0.188506
H380	H	0.970643	-0.067627	0.144827
H381	H	1.303976	0.265706	0.478160
H382	H	0.707969	-0.409110	-0.188399
H383	H	1.041303	-0.075776	0.144935
H384	H	1.374636	0.257557	0.478268
H385	H	0.669036	-0.698872	-0.097257
H386	H	1.002370	-0.365538	0.236077
H387	H	1.335703	-0.032205	0.569410
N388	N	0.753319	-0.005766	0.849225
N389	N	1.086652	0.327567	1.182559
N390	N	1.419985	0.660901	1.515892
H391	H	0.793686	-0.000369	0.838448
H392	H	1.127019	0.332965	1.171782
H393	H	1.460353	0.666298	1.505115
H394	H	0.747344	-0.000729	0.893136
H395	H	1.080677	0.332604	1.226470
H396	H	1.414011	0.665937	1.559803
H397	H	0.601364	0.122878	0.271409
H398	H	0.934697	0.456211	0.604743
H399	H	1.268030	0.789544	0.938076
H400	H	0.601405	0.122850	0.841049
H401	H	0.934738	0.456183	1.174382
H402	H	1.268071	0.789516	1.507716
N403	N	0.591072	0.131579	0.720544
N404	N	0.924405	0.464912	1.053877
N405	N	1.257738	0.798246	1.387210
H406	H	0.566357	0.152505	0.749560
H407	H	0.899690	0.485839	1.082894
H408	H	1.233023	0.819172	1.416227
H409	H	0.612675	0.152859	0.694850
H410	H	0.946008	0.486192	1.028183
H411	H	1.279341	0.819525	1.361516
N412	N	0.552018	0.164609	0.564403
N413	N	0.885352	0.497942	0.897736
N414	N	1.218685	0.831276	1.231069
H415	H	0.527294	0.185531	0.535390
H416	H	0.860627	0.518864	0.868723
H417	H	1.193961	0.852197	1.202056
H418	H	0.527014	0.146201	0.590088
H419	H	0.860348	0.479534	0.923422
H420	H	1.193681	0.812867	1.256755
N421	N	0.671895	-0.460297	-0.165042
N422	N	1.005228	-0.126964	0.168291
N423	N	1.338561	0.206369	0.501624
H424	H	0.636825	-0.435293	-0.167435
H425	H	0.970158	-0.101960	0.165898
H426	H	1.303491	0.231373	0.499232
H427	H	0.707484	-0.443498	-0.167412
H428	H	1.040817	-0.110164	0.165921
H429	H	1.374151	0.223169	0.499254
H430	H	-0.034152	-0.019262	0.000084
H431	H	0.299181	0.314072	0.333418
H432	H	0.632515	0.647405	0.666751
H433	H	0.781999	-0.030058	0.443879
H434	H	1.115333	0.303275	0.777213
H435	H	1.448666	0.636608	1.110546
H436	H	0.098105	0.186406	0.000041
H437	H	0.431438	0.519740	0.333375
H438	H	0.764772	0.853073	0.666708
H439	H	0.404547	-0.014804	0.000057
H440	H	0.737880	0.318529	0.333390
H441	H	1.071213	0.651863	0.666724
N442	N	0.211795	0.199232	0.000027
N443	N	0.545128	0.532565	0.333360
N444	N	0.878461	0.865898	0.666693
H445	H	0.198313	0.218395	0.036489
H446	H	0.531646	0.551728	0.369822
H447	H	0.864979	0.885061	0.703156
H448	H	0.255016	0.192944	0.000003
H449	H	0.588349	0.526277	0.333336
H450	H	0.921682	0.859611	0.666670
N451	N	-0.054239	0.152382	0.000052
N452	N	0.279094	0.485715	0.333386
N453	N	0.612427	0.819049	0.666719
H454	H	-0.029912	0.154595	-0.036413
H455	H	0.303421	0.487929	0.296921
H456	H	0.636755	0.821262	0.630254
H457	H	-0.086648	0.179987	0.000069
H458	H	0.246686	0.513320	0.333402
H459	H	0.580019	0.846654	0.666735
H460	H	0.486258	0.146206	0.000020
H461	H	0.819591	0.479539	0.333353
H462	H	1.152924	0.812873	0.666687
H463	H	0.562333	0.155885	0.443896
H464	H	0.895666	0.489218	0.777230
H465	H	1.228999	0.822552	1.110563
N466	N	0.676492	-0.077152	0.111533
N467	N	1.009826	0.256181	0.444866
N468	N	1.343159	0.589514	0.778200
H469	H	0.641063	-0.081833	0.134969
H470	H	0.974396	0.251500	0.468302
H471	H	1.307729	0.584833	0.801636
H472	H	0.711722	-0.090026	0.134940
H473	H	1.045055	0.243308	0.468273
H474	H	1.378388	0.576641	0.801606
H475	H	0.601359	0.122879	0.159072
H476	H	0.934692	0.456212	0.492405
H477	H	1.268025	0.789546	0.825739
N478	N	0.671857	-0.460309	0.165127
N479	N	1.005190	-0.126975	0.498460
N480	N	1.338523	0.206358	0.831793
H481	H	0.671569	-0.483934	0.199090
H482	H	1.004902	-0.150601	0.532423
H483	H	1.338235	0.182732	0.865757
H484	H	0.707430	-0.443486	0.167468
H485	H	1.040764	-0.110153	0.500801
H486	H	1.374097	0.223180	0.834134
H487	H	0.672489	-0.407174	0.150968
H488	H	1.005822	-0.073840	0.484301
H489	H	1.339155	0.259493	0.817634
N490	N	0.670658	-0.565080	-0.165037
N491	N	1.003991	-0.231746	0.168296
N492	N	1.337324	0.101587	0.501629
H493	H	0.670954	-0.541465	-0.199010
H494	H	1.004287	-0.208131	0.134323
H495	H	1.337621	0.125202	0.467656
H496	H	0.705730	-0.590084	-0.167354
H497	H	1.039064	-0.256751	0.165980
H498	H	1.372397	0.076583	0.499313
N499	N	0.753284	-0.005742	0.279564
N500	N	1.086617	0.327591	0.612897
N501	N	1.419951	0.660924	0.946231
H502	H	0.747042	-0.040023	0.268785
H503	H	1.080375	0.293310	0.602118
H504	H	1.413709	0.626643	0.935451
H505	H	0.793629	-0.000299	0.268765
H506	H	1.126962	0.333034	0.602098
H507	H	1.460296	0.666368	0.935431
N508	N	0.132565	-0.073377	0.000111
N509	N	0.465899	0.259957	0.333444
N510	N	0.799232	0.593290	0.666778
H511	H	0.164947	-0.101006	0.000121
H512	H	0.498280	0.232327	0.333454
H513	H	0.831614	0.565660	0.666787
H514	H	0.108235	-0.075542	0.036581
H515	H	0.441568	0.257791	0.369914
H516	H	0.774902	0.591125	0.703248
H517	H	0.378510	0.145116	0.000037
H518	H	0.711843	0.478449	0.333371
H519	H	1.045176	0.811782	0.666704
H520	H	0.675338	-0.175263	-0.097225
H521	H	1.008671	0.158070	0.236108
H522	H	1.342004	0.491403	0.569442
N523	N	-0.177705	0.151127	0.000050
N524	N	0.155629	0.484460	0.333383
N525	N	0.488962	0.817794	0.666717
H526	H	-0.218748	0.144007	0.000054
H527	H	0.114585	0.477340	0.333387
H528	H	0.447918	0.810674	0.666721
H529	H	-0.170461	0.170481	0.036513
H530	H	0.162872	0.503814	0.369847
H531	H	0.496206	0.837148	0.703180
H532	H	0.512312	-0.013705	0.000055
H533	H	0.845645	0.319629	0.333388
H534	H	1.178979	0.652962	0.666721
N535	N	-0.147854	-0.032082	0.000078
N536	N	0.185479	0.301252	0.333412
N537	N	0.518812	0.634585	0.666745
H538	H	-0.115476	-0.059713	0.000082
H539	H	0.217858	0.273620	0.333416
H540	H	0.551191	0.606953	0.666749
H541	H	-0.172186	-0.034251	0.036547
H542	H	0.161148	0.299083	0.369880
H543	H	0.494481	0.632416	0.703214
H544	H	0.676455	-0.083813	-0.097214
H545	H	1.009788	0.249521	0.236120
H546	H	1.343122	0.582854	0.569453
H547	H	0.667931	-0.790338	-0.097256
H548	H	1.001265	-0.457005	0.236077
H549	H	1.334598	-0.123671	0.569410
H550	H	0.667907	-0.790338	0.097319
H551	H	1.001240	-0.457005	0.430653
H552	H	1.334573	-0.123671	0.763986
N553	N	0.669080	-0.692220	0.111498
N554	N	1.002413	-0.358887	0.444831
N555	N	1.335747	-0.025554	0.778165
H556	H	0.633655	-0.696908	0.134939
H557	H	0.966989	-0.363575	0.468272
H558	H	1.300322	-0.030241	0.801606
H559	H	0.704315	-0.705103	0.134892
H560	H	1.037648	-0.371770	0.468225
H561	H	1.370981	-0.038436	0.801558
N562	N	0.673661	-0.309055	0.165140
N563	N	1.006994	0.024278	0.498474
N564	N	1.340327	0.357611	0.831807
H565	H	0.673369	-0.332678	0.199106
H566	H	1.006702	0.000655	0.532440
H567	H	1.340035	0.333989	0.865773
H568	H	0.709232	-0.292230	0.167486
H569	H	1.042565	0.041103	0.500819
H570	H	1.375899	0.374437	0.834153
N571	N	0.753307	-0.005775	0.720528
N572	N	1.086640	0.327558	1.053861
N573	N	1.419973	0.660891	1.387194
H574	H	0.731735	-0.027087	0.694846
H575	H	1.065068	0.306247	1.028180
H576	H	1.398401	0.639580	1.361513
H577	H	0.778349	0.012614	0.694864
H578	H	1.111682	0.345948	1.028197
H579	H	1.445015	0.679281	1.361530
H580	H	0.742962	0.003001	0.159057
H581	H	1.076296	0.336334	0.492391
H582	H	1.409629	0.669668	0.825724
N583	N	0.675237	-0.181953	0.111530
N584	N	1.008571	0.151380	0.444864
N585	N	1.341904	0.484714	0.778197
H586	H	0.675519	-0.158335	0.145500
H587	H	1.008853	0.174999	0.478833
H588	H	1.342186	0.508332	0.812167
H589	H	0.639663	-0.198776	0.113862
H590	H	0.972996	0.134558	0.447195
H591	H	1.306330	0.467891	0.780529
N592	N	0.792328	-0.038790	0.564380
N593	N	1.125662	0.294544	0.897713
N594	N	1.458995	0.627877	1.231047
H595	H	0.817047	-0.059710	0.535361
H596	H	1.150381	0.273623	0.868694
H597	H	1.483714	0.606956	1.202028
H598	H	0.817337	-0.020383	0.590058
H599	H	1.150670	0.312950	0.923391
H600	H	1.484004	0.646283	1.256725
