data_functionalizedCrystal
_audit_creation_method	'MofGen! by Chris Wilmer'
_symmetry_space_group_name_H-M	'P1'
_symmetry_Int_Tables_number	1
_symmetry_cell_setting	triclinic
loop_
_symmetry_equiv_pos_as_xyz
  x,y,z
_cell_length_a	14.853558
_cell_length_b	14.853559
_cell_length_c	13.330367
_cell_angle_alpha	89.997552
_cell_angle_beta	89.992972
_cell_angle_gamma	83.631294
loop_
_atom_site_label
_atom_site_type_symbol
_atom_site_fract_x
_atom_site_fract_y
_atom_site_fract_z
O1	O	1.196370	0.117664	-0.083406
O2	O	0.933909	0.131694	-0.083410
O3	O	1.072155	-0.006551	-0.083407
O4	O	1.058125	0.255910	-0.083409
O5	O	1.072135	-0.006554	0.083440
O6	O	0.933889	0.131691	0.083437
O7	O	1.196350	0.117661	0.083441
Cu8	Cu	1.065118	0.124676	0.098673
Cu9	Cu	1.065142	0.124680	-0.098643
O10	O	1.058105	0.255907	0.083438
C11	C	0.900310	0.131059	0.000013
C12	C	0.800226	0.129158	0.000011
C13	C	0.753217	0.128269	-0.090941
C14	C	0.753194	0.128254	0.090962
C15	C	0.659160	0.126464	0.090964
C16	C	0.612151	0.125574	0.000011
C17	C	0.659175	0.126475	-0.090942
C18	C	0.612130	0.125554	0.181916
C19	C	0.518091	0.123762	0.181921
C20	C	0.471079	0.122879	0.090968
C21	C	0.518109	0.123781	0.000010
C22	C	0.471100	0.122891	-0.090942
C23	C	0.518127	0.123800	-0.181900
C24	C	0.612163	0.125592	-0.181896
C25	C	0.377042	0.121087	0.090963
C26	C	0.377058	0.121098	-0.090943
C27	C	1.071510	-0.040142	0.000015
C28	C	1.069609	-0.140226	0.000009
C29	C	1.061557	-0.563399	-0.090940
C30	C	1.061535	-0.563397	0.090963
C31	C	1.063328	-0.469364	0.090964
C32	C	1.064234	-0.422343	0.000012
C33	C	1.063347	-0.469356	-0.090942
C34	C	1.064206	-0.422342	0.181916
C35	C	1.065998	-0.328303	0.181921
C36	C	1.066911	-0.281282	0.090967
C37	C	1.066025	-0.328301	0.000010
C38	C	1.066932	-0.281281	-0.090943
C39	C	1.066052	-0.328299	-0.181901
C40	C	1.064260	-0.422335	-0.181895
C41	C	1.068703	-0.187246	0.090961
C42	C	1.068722	-0.187239	-0.090945
C43	C	1.229949	0.118297	0.000016
C44	C	1.330033	0.120197	0.000011
C45	C	1.058749	0.289497	0.000014
C46	C	1.060650	0.389581	0.000013
N47	N	1.065108	0.124673	0.237455
N48	N	1.065159	0.124676	-0.237424
C49	C	1.003924	0.185871	0.710076
C50	C	1.126384	0.063481	0.710047
C51	C	1.126373	0.063479	0.605029
C52	C	1.065139	0.124674	0.552529
C53	C	1.003914	0.185872	0.605048
C54	C	1.187603	0.002288	0.552502
C55	C	1.187596	0.002284	0.447477
C56	C	1.126356	0.063475	0.394976
C57	C	1.065128	0.124675	0.447501
C58	C	1.003893	0.185870	0.395002
C59	C	0.942660	0.247066	0.447525
C60	C	0.942674	0.247063	0.552547
C61	C	1.126343	0.063478	0.289954
C62	C	1.003883	0.185871	0.289974
H63	H	0.479841	0.123071	-0.255954
H64	H	0.791475	0.128972	0.165011
O65	O	0.657788	0.126631	-0.270269
C66	C	0.676434	0.205209	-0.425758
C67	C	0.624703	0.204156	-0.325706
H68	H	0.649693	0.267871	-0.470616
H69	H	0.751722	0.206698	-0.410186
H70	H	0.666145	0.141790	-0.470576
H71	H	0.634919	0.267562	-0.280838
H72	H	0.549435	0.202619	-0.341349
O73	O	0.331475	0.120084	0.179371
C74	C	0.312767	0.041442	0.334805
C75	C	0.364456	0.042476	0.234724
H76	H	0.339399	-0.021308	0.379577
H77	H	0.323098	0.104787	0.379736
H78	H	0.237480	0.040055	0.319157
H79	H	0.439759	0.043831	0.250281
H80	H	0.354049	-0.020866	0.189824
O81	O	1.066962	-0.282484	-0.270160
C82	C	1.069638	-0.137592	-0.350761
C83	C	1.068639	-0.189374	-0.250741
H84	H	1.070974	-0.062301	-0.335095
H85	H	1.132348	-0.164175	-0.395638
H86	H	1.006259	-0.147967	-0.395605
H87	H	1.131974	-0.179021	-0.205816
H88	H	1.005887	-0.162781	-0.205940
H89	H	0.892821	0.296887	0.595318
O90	O	0.883269	0.306635	0.396567
C91	C	0.830589	0.463301	0.364473
C92	C	0.897910	0.395942	0.422231
H93	H	0.842390	0.535520	0.385216
H94	H	0.841108	0.452867	0.280378
H95	H	0.758378	0.451375	0.385117
H96	H	0.970148	0.407827	0.401671
H97	H	0.887312	0.406392	0.506311
O98	O	1.069457	-0.141462	-0.179243
C99	C	0.993354	-0.025247	-0.284846
C100	C	0.992440	-0.076997	-0.184798
H101	H	0.931083	0.026871	-0.289379
H102	H	1.057180	0.010687	-0.289448
H103	H	0.992450	-0.075044	-0.349817
H104	H	0.993310	-0.027261	-0.119770
H105	H	0.928619	-0.112945	-0.180284
O106	O	0.944320	0.245222	0.761048
C107	C	0.787629	0.297794	0.793163
C108	C	0.855031	0.230516	0.735392
H109	H	0.715424	0.285940	0.772426
H110	H	0.798070	0.287282	0.877255
H111	H	0.799502	0.370019	0.772524
H112	H	0.843198	0.158264	0.755947
H113	H	0.844573	0.241107	0.651314
H114	H	1.237454	-0.047546	0.404719
H115	H	1.060791	-0.601686	0.165013
O116	O	1.063398	-0.467868	-0.270334
C117	C	1.063446	-0.457929	-0.450761
C118	C	1.064479	-0.406255	-0.350679
H119	H	1.064300	-0.408135	-0.515745
H120	H	1.125643	-0.510133	-0.455421
H121	H	0.999557	-0.493774	-0.455202
H122	H	1.128326	-0.370355	-0.346170
H123	H	1.002239	-0.354102	-0.346061
O124	O	1.066702	-0.282576	0.270248
C125	C	0.990713	-0.166247	0.375799
C126	C	0.989788	-0.217976	0.275744
H127	H	0.928545	-0.113994	0.380267
H128	H	0.989699	-0.215962	0.440842
H129	H	1.054625	-0.130448	0.380332
H130	H	0.925886	-0.253778	0.271114
H131	H	0.990849	-0.168219	0.210749
H132	H	0.791511	0.129012	-0.164997
H133	H	1.060844	-0.601685	-0.164996
H134	H	0.954015	0.235700	0.247235
H135	H	1.063463	-0.460632	0.255965
O136	O	1.246997	-0.057117	0.603653
C137	C	1.301315	-0.111319	0.765440
C138	C	1.233986	-0.044006	0.707631
H139	H	1.290831	-0.100729	0.849516
H140	H	1.289487	-0.183572	0.744872
H141	H	1.373523	-0.099446	0.744717
H142	H	1.161753	-0.055796	0.728322
H143	H	1.245893	0.028224	0.728203
O144	O	1.069393	-0.141505	0.179276
C145	C	0.993377	-0.025163	0.284791
C146	C	0.992474	-0.076910	0.184745
H147	H	0.931205	0.027087	0.289236
H148	H	0.992357	-0.074866	0.349843
H149	H	1.057286	0.010643	0.289328
H150	H	0.928576	-0.112718	0.180110
H151	H	0.993542	-0.027164	0.119741
O152	O	0.657926	0.126462	0.270170
C153	C	0.802796	0.129177	0.350781
C154	C	0.751037	0.128168	0.250757
H155	H	0.878087	0.130537	0.335120
H156	H	0.776187	0.191879	0.395650
H157	H	0.792432	0.065791	0.395630
H158	H	0.761379	0.191511	0.205827
H159	H	0.777656	0.065425	0.205963
H160	H	1.176244	0.013662	0.752796
O161	O	1.185728	0.003926	0.238967
C162	C	1.238429	-0.152730	0.206838
C163	C	1.171107	-0.085389	0.264632
H164	H	1.226644	-0.224955	0.227583
H165	H	1.227893	-0.142286	0.122749
H166	H	1.310640	-0.140793	0.227449
H167	H	1.098869	-0.097284	0.244106
H168	H	1.181722	-0.095849	0.348707
O169	O	0.472530	0.122767	0.270339
C170	C	0.453832	0.044141	0.425785
C171	C	0.505514	0.045163	0.325698
H172	H	0.480466	-0.018605	0.470562
H173	H	0.464169	0.107490	0.470707
H174	H	0.378544	0.042754	0.410146
H175	H	0.580818	0.046518	0.341247
H176	H	0.495101	-0.018182	0.280807
O177	O	0.331540	0.120199	-0.179386
C178	C	0.341479	0.120469	-0.359812
C179	C	0.393142	0.121466	-0.259724
H180	H	0.391259	0.121512	-0.424791
H181	H	0.305661	0.056572	-0.364439
H182	H	0.289251	0.182656	-0.364296
H183	H	0.445413	0.059323	-0.255172
H184	H	0.428898	0.185405	-0.255139
