data_functionalizedCrystal
_audit_creation_method	'MofGen! by Chris Wilmer'
_symmetry_space_group_name_H-M	'P1'
_symmetry_Int_Tables_number	1
_symmetry_cell_setting	triclinic
loop_
_symmetry_equiv_pos_as_xyz
  x,y,z
_cell_length_a	11.169417
_cell_length_b	16.959454
_cell_length_c	11.169409
_cell_angle_alpha	89.967057
_cell_angle_beta	89.980176
_cell_angle_gamma	90.020954
loop_
_atom_site_label
_atom_site_type_symbol
_atom_site_fract_x
_atom_site_fract_y
_atom_site_fract_z
Zn1	Zn	1.834881	-0.314599	-0.678538
Zn2	Zn	1.834736	-0.446806	-0.477852
Zn3	Zn	1.634167	-0.314647	-0.477872
Zn4	Zn	1.634140	-0.446741	-0.678497
O5	O	1.734481	-0.380698	-0.578190
O6	O	2.002812	-0.332143	-0.651925
O7	O	1.808081	-0.429322	-0.309905
O8	O	1.660864	-0.204030	-0.504516
O9	O	2.002705	-0.429275	-0.504482
O10	O	1.808328	-0.203995	-0.651944
O11	O	1.660724	-0.332225	-0.309920
O12	O	1.466214	-0.332163	-0.504477
O13	O	1.660819	-0.429165	-0.846452
O14	O	1.466194	-0.429212	-0.651875
O15	O	1.808302	-0.332081	-0.846482
O16	O	1.808055	-0.557408	-0.504443
O17	O	1.660678	-0.557361	-0.651856
C18	C	1.422657	-0.380686	-0.578174
C19	C	1.289257	-0.380700	-0.578196
C20	C	1.734381	-0.586065	-0.578169
C21	C	1.734447	-0.673921	-0.578201
C22	C	1.657853	-1.045402	-0.654940
C23	C	1.811443	-1.045391	-0.501562
C24	C	1.811401	-0.962846	-0.501551
C25	C	1.734583	-0.921574	-0.578234
C26	C	1.657807	-0.962849	-0.654928
C27	C	1.888168	-0.921565	-0.424850
C28	C	1.888128	-0.839014	-0.424835
C29	C	1.811315	-0.797741	-0.501525
C30	C	1.734536	-0.839021	-0.578223
C31	C	1.657718	-0.797749	-0.654906
C32	C	1.580944	-0.839027	-0.731611
C33	C	1.580993	-0.921576	-0.731618
C34	C	1.811266	-0.715193	-0.501518
C35	C	1.657671	-0.715196	-0.654895
C36	C	2.047524	-0.380711	-0.578206
C37	C	2.180924	-0.380716	-0.578213
C38	C	1.734573	-0.380611	-0.891232
C39	C	1.734613	-0.380573	-1.024633
C40	C	1.734615	-0.174530	-0.578237
C41	C	1.734672	-0.086674	-0.578257
C42	C	1.734459	-0.380729	-0.266365
C43	C	1.734652	-0.380543	-0.132966
H44	H	1.518393	-0.805415	-0.794042
H45	H	1.595120	-0.681597	-0.717344
O46	O	1.885930	-1.085428	-0.426883
C47	C	1.944335	-1.110662	-0.222768
C48	C	1.859881	-1.065291	-0.307219
H49	H	1.923321	-1.094385	-0.126003
H50	H	1.931193	-1.176765	-0.235813
H51	H	2.041082	-1.094381	-0.243982
H52	H	1.763101	-1.081506	-0.286057
H53	H	1.873127	-0.999199	-0.294159
O54	O	1.506452	-0.961795	-0.806002
C55	C	1.438496	-1.088973	-0.874023
C56	C	1.522958	-1.043520	-0.789711
H57	H	1.451830	-1.155056	-0.860900
H58	H	1.341698	-1.072855	-0.852855
H59	H	1.459494	-1.072649	-0.970806
H60	H	1.502069	-1.059820	-0.692900
H61	H	1.619731	-1.059642	-0.810982
H62	H	1.595350	-1.079014	-0.717394
H63	H	1.950700	-0.955174	-0.362410
O64	O	1.962823	-0.799043	-0.350298
C65	C	2.115126	-0.807751	-0.198124
C66	C	2.030612	-0.853118	-0.282491
H67	H	2.169938	-0.851451	-0.143262
H68	H	2.177914	-0.769075	-0.253224
H69	H	2.060024	-0.769131	-0.135367
H70	H	2.085618	-0.891780	-0.345264
H71	H	1.967822	-0.891743	-0.227317
O72	O	1.885941	-0.675218	-0.426973
C73	C	2.038214	-0.683923	-0.274769
C74	C	1.953723	-0.729291	-0.359156
H75	H	2.093020	-0.727622	-0.219899
H76	H	2.101008	-0.645243	-0.329853
H77	H	1.983094	-0.645308	-0.212021
H78	H	2.008746	-0.767949	-0.421921
H79	H	1.890925	-0.767922	-0.303997
