data_functionalizedCrystal
_audit_creation_method	'MofGen! by Chris Wilmer'
_symmetry_space_group_name_H-M	'P1'
_symmetry_Int_Tables_number	1
_symmetry_cell_setting	triclinic
loop_
_symmetry_equiv_pos_as_xyz
  x,y,z
_cell_length_a	23.532407
_cell_length_b	23.532407
_cell_length_c	22.610064
_cell_angle_alpha	90.005928
_cell_angle_beta	90.004154
_cell_angle_gamma	97.151323
loop_
_atom_site_label
_atom_site_type_symbol
_atom_site_fract_x
_atom_site_fract_y
_atom_site_fract_z
O1	O	0.755259	-0.069122	0.049224
O2	O	1.255259	0.430878	0.549224
O3	O	0.589395	-0.079125	0.049218
O4	O	1.089395	0.420875	0.549218
O5	O	0.677329	0.008808	0.049210
O6	O	1.177329	0.508808	0.549210
O7	O	0.667325	-0.157056	0.049232
O8	O	1.167325	0.342944	0.549232
O9	O	0.677323	0.008785	-0.049159
O10	O	1.177323	0.508785	0.450841
O11	O	0.589389	-0.079148	-0.049151
O12	O	1.089389	0.420852	0.450849
O13	O	0.755253	-0.069145	-0.049146
O14	O	1.255253	0.430855	0.450854
Zn15	Zn	0.672320	-0.074150	-0.064766
Zn16	Zn	1.172320	0.425850	0.435234
Zn17	Zn	0.672328	-0.074120	0.064839
Zn18	Zn	1.172328	0.425880	0.564839
O19	O	0.667319	-0.157078	-0.049138
O20	O	1.167319	0.342922	0.450862
C21	C	0.568176	-0.078882	0.000033
C22	C	1.068176	0.421118	0.500033
C23	C	0.504959	-0.078116	0.000030
C24	C	1.004959	0.421884	0.500030
C25	C	0.677071	0.030013	0.000024
C26	C	1.177071	0.530013	0.500024
C27	C	0.676305	0.093230	0.000020
C28	C	1.176305	0.593230	0.500020
N29	N	0.672319	-0.074170	-0.153219
N30	N	1.172319	0.425830	0.346781
C31	C	0.776472	-0.069388	0.000041
C32	C	1.276472	0.430612	0.500041
C33	C	0.839689	-0.070154	0.000048
C34	C	1.339689	0.429846	0.500048
C35	C	1.238792	-0.022921	0.000021
C36	C	1.738792	0.477079	0.500021
C37	C	1.298192	-0.023632	0.000018
C38	C	1.798192	0.476368	0.500018
O39	O	1.334937	0.020154	-0.000008
O40	O	1.834937	0.520154	0.499992
N41	N	1.320818	-0.075908	0.000027
N42	N	1.820818	0.424092	0.500027
C43	C	1.284041	-0.127477	0.000032
C44	C	1.784041	0.372523	0.500032
O45	O	1.308740	-0.172007	0.000038
O46	O	1.808740	0.327993	0.500038
C47	C	1.224642	-0.126765	0.000030
C48	C	1.724642	0.373235	0.500030
C49	C	1.202019	-0.074485	0.000028
C50	C	1.702019	0.425515	0.500028
C51	C	1.216169	0.029355	0.000018
C52	C	1.716169	0.529355	0.500018
C53	C	1.156772	0.030066	0.000022
C54	C	1.656772	0.530066	0.500022
C55	C	1.120000	-0.021498	0.000028
C56	C	1.620000	0.478502	0.500028
C57	C	1.142623	-0.073774	0.000031
C58	C	1.642623	0.426226	0.500031
C59	C	1.187865	-0.178332	0.000031
C60	C	1.687865	0.321668	0.500031
C61	C	1.128463	-0.177616	0.000029
C62	C	1.628463	0.322384	0.500029
C63	C	1.105840	-0.125336	0.000026
C64	C	1.605840	0.374664	0.500026
C65	C	1.046454	-0.124627	0.000042
C66	C	1.546454	0.375373	0.500042
N67	N	1.023828	-0.072350	0.000033
N68	N	1.523828	0.427650	0.500033
C69	C	1.060601	-0.020786	0.000027
C70	C	1.560601	0.479214	0.500027
C71	C	1.408783	-0.128968	0.000034
C72	C	1.908783	0.371032	0.500034
C73	C	1.468181	-0.129681	0.000040
C74	C	1.968181	0.370319	0.500040
C75	C	1.482329	-0.025836	0.000026
C76	C	1.982329	0.474164	0.500026
C77	C	1.422929	-0.025124	0.000024
C78	C	1.922929	0.474876	0.500024
C79	C	1.386157	-0.076692	0.000026
C80	C	1.886157	0.423308	0.500026
C81	C	0.935864	-0.019296	0.000035
C82	C	1.435864	0.480704	0.500035
C83	C	0.876462	-0.018590	0.000041
C84	C	1.376462	0.481410	0.500041
C85	C	0.862320	-0.122434	0.000052
C86	C	1.362320	0.377566	0.500052
C87	C	0.921716	-0.123141	0.000049
C88	C	1.421716	0.376859	0.500049
C89	C	0.958488	-0.071568	0.000038
C90	C	1.458488	0.428432	0.500038
O91	O	1.009675	-0.168390	0.000066
O92	O	1.509675	0.331610	0.500066
O93	O	1.035893	0.023737	0.000012
O94	O	1.535893	0.523737	0.500012
C95	C	0.667577	-0.178283	0.000050
C96	C	1.167577	0.321717	0.500050
C97	C	0.668343	-0.241500	0.000058
C98	C	1.168343	0.258500	0.500058
C99	C	0.723539	0.492333	0.000054
C100	C	1.223539	0.992333	0.500054
C101	C	0.722827	0.551733	0.000058
C102	C	1.222827	1.051733	0.500058
O103	O	0.766613	0.588478	0.000081
O104	O	1.266613	1.088478	0.500081
N105	N	0.670551	0.574359	0.000056
N106	N	1.170551	1.074359	0.500056
C107	C	0.618983	0.537582	0.000055
C108	C	1.118983	1.037582	0.500055
O109	O	0.574452	0.562281	0.000055
O110	O	1.074452	1.062281	0.500055
C111	C	0.619695	0.478183	0.000055
C112	C	1.119695	0.978183	0.500055
C113	C	0.671974	0.455560	0.000051
C114	C	1.171974	0.955560	0.500051
C115	C	0.775814	0.469710	0.000050
C116	C	1.275814	0.969710	0.500050
C117	C	0.776525	0.410313	0.000045
C118	C	1.276525	0.910313	0.500045
C119	C	0.724961	0.373540	0.000042
C120	C	1.224961	0.873540	0.500042
C121	C	0.672685	0.396164	0.000046
C122	C	1.172685	0.896164	0.500046
C123	C	0.568127	0.441406	0.000059
C124	C	1.068127	0.941406	0.500059
C125	C	0.568844	0.382004	0.000059
C126	C	1.068844	0.882004	0.500059
C127	C	0.621123	0.359381	0.000055
C128	C	1.121123	0.859381	0.500055
C129	C	0.621832	0.299995	0.000038
C130	C	1.121832	0.799995	0.500038
N131	N	0.674109	0.277369	0.000040
N132	N	1.174109	0.777369	0.500040
C133	C	0.725673	0.314141	0.000042
C134	C	1.225673	0.814141	0.500042
C135	C	0.617491	0.662324	0.000057
C136	C	1.117491	1.162324	0.500057
C137	C	0.616778	0.721722	0.000053
C138	C	1.116778	1.221722	0.500053
C139	C	0.720623	0.735869	0.000057
C140	C	1.220623	1.235869	0.500057
C141	C	0.721335	0.676470	0.000056
C142	C	1.221335	1.176470	0.500056
C143	C	0.669767	0.639698	0.000059
C144	C	1.169767	1.139698	0.500059
C145	C	0.727163	0.189405	0.000030
C146	C	1.227163	0.689405	0.500030
C147	C	0.727869	0.130003	0.000022
C148	C	1.227869	0.630003	0.500022
C149	C	0.624025	0.115860	0.000021
C150	C	1.124025	0.615860	0.500021
C151	C	0.623318	0.175257	0.000026
C152	C	1.123318	0.675257	0.500026
C153	C	0.674891	0.212029	0.000033
C154	C	1.174891	0.712029	0.500033
O155	O	0.578070	0.263215	0.000017
O156	O	1.078070	0.763215	0.500017
O157	O	0.770196	0.289434	0.000051
O158	O	1.270196	0.789434	0.500051
C159	C	0.633369	-0.113059	-0.438063
C160	C	1.133369	0.386941	0.061937
C161	C	0.633368	-0.113065	-0.376143
C162	C	1.133368	0.386935	0.123857
O163	O	0.600234	-0.146156	-0.344122
O164	O	1.100234	0.353844	0.155878
N165	N	0.672315	-0.074147	-0.345171
N166	N	1.172315	0.425853	0.154829
C167	C	0.711262	-0.035217	-0.376122
C168	C	1.211262	0.464783	0.123878
O169	O	0.744389	-0.002114	-0.344092
O170	O	1.244389	0.497886	0.155908
C171	C	0.711260	-0.035209	-0.438041
C172	C	1.211260	0.464791	0.061959
C173	C	0.672315	-0.074134	-0.469010
C174	C	1.172315	0.425866	0.030990
C175	C	0.594426	-0.151980	-0.469033
C176	C	1.094426	0.348020	0.030967
C177	C	0.594429	-0.151975	-0.530948
C178	C	1.094429	0.348025	-0.030948
C179	C	0.633374	-0.113050	-0.561895
C180	C	1.133374	0.386950	-0.061895
C181	C	0.672317	-0.074129	-0.530925
C182	C	1.172317	0.425871	-0.030925
C183	C	0.750205	0.003723	-0.468990
C184	C	1.250205	0.503723	0.031010
C185	C	0.750199	0.003728	-0.530913
C186	C	1.250199	0.503728	-0.030913
C187	C	0.711254	-0.035197	-0.561883
C188	C	1.211254	0.464803	-0.061883
C189	C	0.711265	-0.035198	-0.623788
C190	C	1.211265	0.464802	-0.123788
N191	N	0.672318	-0.074116	-0.654760
N192	N	1.172318	0.425884	-0.154760
C193	C	0.633373	-0.113042	-0.623813
C194	C	1.133373	0.386958	-0.123813
C195	C	0.711262	-0.035235	-0.246088
C196	C	1.211262	0.464765	0.253912
C197	C	0.711266	-0.035245	-0.184171
C198	C	1.211266	0.464755	0.315829
C199	C	0.633371	-0.113093	-0.184197
C200	C	1.133371	0.386907	0.315803
C201	C	0.633370	-0.113085	-0.246115
C202	C	1.133370	0.386915	0.253885
C203	C	0.672315	-0.074154	-0.277061
C204	C	1.172315	0.425846	0.222939
C205	C	0.633381	-0.113029	-0.753841
C206	C	1.133381	0.386971	-0.253841
C207	C	0.633388	-0.113022	-0.815762
C208	C	1.133388	0.386978	-0.315762
C209	C	0.711281	-0.035172	-0.815731
C210	C	1.211281	0.464828	-0.315731
C211	C	0.711276	-0.035181	-0.753815
C212	C	1.211276	0.464819	-0.253815
C213	C	0.672321	-0.074111	-0.722872
C214	C	1.172321	0.425889	-0.222872
O215	O	0.744380	-0.002122	-0.655849
O216	O	1.244380	0.497878	-0.155849
O217	O	0.600246	-0.146134	-0.655851
O218	O	1.100246	0.353866	-0.155851
N219	N	0.672334	-0.074096	0.153292
N220	N	1.172334	0.425904	0.653292
H221	H	0.965797	0.022700	0.000026
H222	H	1.465797	0.522700	0.500026
H223	H	0.742992	-0.003481	-0.840937
H224	H	1.242992	0.496519	-0.340937
O225	O	0.513220	0.342345	0.000059
O226	O	1.013220	0.842345	0.500059
H227	H	0.522493	0.297239	0.000059
H228	H	1.022493	0.797239	0.500059
O229	O	0.566933	0.199664	0.000018
O230	O	1.066933	0.699664	0.500018
H231	H	0.564128	0.226391	0.040113
H232	H	1.064128	0.726391	0.540113
O233	O	1.369126	-0.184594	0.000045
O234	O	1.869126	0.315406	0.500045
H235	H	1.341725	-0.186771	-0.040051
H236	H	1.841725	0.313229	0.459949
H237	H	0.582043	0.085909	0.000017
H238	H	1.082043	0.585909	0.500017
H239	H	0.601674	-0.144721	-0.840975
H240	H	1.101674	0.355279	-0.340975
H241	H	0.781913	0.035433	-0.556106
H242	H	1.281913	0.535433	-0.056106
O243	O	0.792205	0.045712	-0.435596
O244	O	1.292205	0.545712	0.064404
H245	H	0.819275	0.072783	-0.467527
H246	H	1.319275	0.572783	0.032473
H247	H	0.817806	0.499645	0.000054
H248	H	1.317806	0.999645	0.500054
O249	O	1.521997	0.029782	0.000007
O250	O	2.021997	0.529782	0.500007
H251	H	1.549409	0.031951	0.040095
H252	H	2.049409	0.531951	0.540095
H253	H	1.206274	-0.220904	0.000036
H254	H	1.706274	0.279096	0.500036
O255	O	0.852060	0.037799	0.000030
O256	O	1.352060	0.537799	0.500030
H257	H	0.887614	0.073534	0.000017
H258	H	1.387614	0.573534	0.500017
O259	O	0.753271	0.006801	-0.720396
O260	O	1.253271	0.506801	-0.220396
H261	H	0.797631	-0.000217	-0.732265
H262	H	1.297631	0.499783	-0.232265
H263	H	0.742986	-0.003555	-0.158960
H264	H	1.242986	0.496445	0.341040
O265	O	1.088801	-0.233237	0.000026
O266	O	1.588801	0.266763	0.500026
H267	H	1.061400	-0.235391	0.040118
H268	H	1.561400	0.264609	0.540118
O269	O	0.822649	-0.178047	0.000050
O270	O	1.322649	0.321953	0.500050
H271	H	0.795245	-0.180198	0.040139
H272	H	1.295245	0.319802	0.540139
O273	O	1.132375	0.086453	0.000004
O274	O	1.632375	0.586453	0.500004
H275	H	1.167932	0.122184	-0.000010
H276	H	1.667932	0.622184	0.499990
H277	H	1.486595	-0.172252	0.000051
H278	H	1.986595	0.327748	0.500051
H279	H	1.246104	0.071347	0.000010
H280	H	1.746104	0.571347	0.500010
O281	O	0.777721	0.652071	0.000063
O282	O	1.277721	1.152071	0.500063
H283	H	0.813454	0.687626	0.000070
H284	H	1.313454	1.187626	0.500070
H285	H	0.601660	-0.144729	-0.728654
H286	H	1.101660	0.355271	-0.228654
O287	O	0.552440	-0.193976	-0.564348
O288	O	1.052440	0.306024	-0.064348
H289	H	0.525367	-0.221044	-0.532418
H290	H	1.025367	0.278956	-0.032418
H291	H	1.404515	0.017447	0.000022
H292	H	1.904515	0.517447	0.500022
H293	H	0.742980	-0.003534	-0.271281
H294	H	1.242980	0.496466	0.228719
O295	O	0.946123	-0.179526	0.000054
O296	O	1.446123	0.320474	0.500054
H297	H	0.910570	-0.215262	0.000057
H298	H	1.410570	0.284738	0.500057
H299	H	0.770444	0.111587	0.000017
H300	H	1.270444	0.611587	0.500017
H301	H	0.769159	0.219337	0.000037
H302	H	1.269159	0.719337	0.500037
H303	H	0.819097	0.391900	0.000044
H304	H	1.319097	0.891900	0.500044
O305	O	0.561865	0.622668	0.000046
O306	O	1.061865	1.122668	0.500046
H307	H	0.559696	0.595271	0.040140
H308	H	1.059696	1.095271	0.540140
H309	H	0.601657	-0.144781	-0.271327
H310	H	1.101657	0.355219	0.228673
H311	H	0.762610	0.765821	0.000061
H312	H	1.262610	1.265821	0.500061
O313	O	0.560392	0.746121	0.000049
O314	O	1.060392	1.246121	0.500049
H315	H	0.524659	0.710565	0.000050
H316	H	1.024659	1.210565	0.500050
H317	H	0.525555	0.459814	0.000066
H318	H	1.025555	0.959814	0.500066
O319	O	0.552421	-0.193972	-0.435659
O320	O	1.052421	0.306028	0.064341
H321	H	0.525349	-0.221033	-0.467606
H322	H	1.025349	0.278967	0.032394
H323	H	0.601659	-0.144788	-0.158989
H324	H	1.101659	0.355212	0.341011
