data_functionalizedCrystal
_audit_creation_method	'MofGen! by Chris Wilmer'
_symmetry_space_group_name_H-M	'P1'
_symmetry_Int_Tables_number	1
_symmetry_cell_setting	triclinic
loop_
_symmetry_equiv_pos_as_xyz
  x,y,z
_cell_length_a	11.792241
_cell_length_b	17.699083
_cell_length_c	16.176319
_cell_angle_alpha	90.007696
_cell_angle_beta	89.993469
_cell_angle_gamma	96.261785
loop_
_atom_site_label
_atom_site_type_symbol
_atom_site_fract_x
_atom_site_fract_y
_atom_site_fract_z
O1	O	1.505670	-0.103738	-0.068732
O2	O	1.175201	-0.114429	-0.068737
O3	O	1.349772	0.001056	-0.068727
O4	O	1.331099	-0.219223	-0.068742
O5	O	1.349748	0.001063	0.068766
O6	O	1.175177	-0.114422	0.068756
O7	O	1.505646	-0.103731	0.068761
Cu8	Cu	1.340409	-0.109075	0.081313
Cu9	Cu	1.340437	-0.109084	-0.081289
O10	O	1.331075	-0.219216	0.068751
C11	C	1.349091	0.029260	0.000019
C12	C	1.347083	0.113289	0.000020
C13	C	1.132906	-0.113754	0.000009
C14	C	1.006916	-0.111744	0.000007
C15	C	1.547941	-0.104406	0.000013
C16	C	1.673930	-0.106416	0.000010
C17	C	1.904598	-0.110112	0.000010
C18	C	1.776238	-0.108058	0.000010
C19	C	1.331756	-0.247420	0.000003
C20	C	1.333763	-0.331449	-0.000003
N21	N	1.340397	-0.109069	0.195678
C22	C	1.449553	0.161364	0.000023
C23	C	1.447660	0.240317	0.000015
C24	C	1.343297	0.271194	0.000011
C25	C	1.240819	0.223113	0.000006
C26	C	1.242713	0.144161	0.000007
C27	C	1.233178	0.541517	-0.000001
C28	C	1.231292	0.620475	-0.000000
C29	C	1.438126	0.637673	0.000007
C30	C	1.440020	0.558721	0.000008
C31	C	1.337543	0.510647	-0.000001
C32	C	1.339596	0.425037	0.000005
C33	C	1.341242	0.356803	0.000011
N34	N	1.340458	-0.109085	-0.195654
C35	C	1.417721	-0.057953	0.238947
C36	C	1.417727	-0.057952	0.325494
C37	C	1.340413	-0.109071	0.368771
C38	C	1.263082	-0.160189	0.325496
C39	C	1.263072	-0.160186	0.238950
C40	C	1.263121	-0.160204	0.674524
C41	C	1.263139	-0.160205	0.761076
C42	C	1.417776	-0.057970	0.761067
C43	C	1.417765	-0.057967	0.674522
C44	C	1.340430	-0.109082	0.631255
C45	C	1.340424	-0.109081	0.537411
C46	C	1.340425	-0.109076	0.462613
H47	H	1.531101	0.279457	0.000019
H48	H	1.200177	-0.201834	0.796310
O49	O	1.129879	0.650434	-0.000158
C50	C	1.067436	0.625890	-0.071364
H51	H	1.128483	0.609211	-0.121128
H52	H	1.004039	0.574703	-0.055272
C53	C	0.927425	0.711241	-0.042537
C54	C	1.002404	0.690762	-0.103661
H55	H	0.887305	0.751255	-0.062458
H56	H	0.969490	0.727775	0.005438
H57	H	0.874604	0.668580	-0.029133
H58	H	1.055231	0.733421	-0.117057
H59	H	0.960346	0.674237	-0.151639
O60	O	1.541369	0.528691	0.000157
C61	C	1.548632	0.483529	0.071354
H62	H	1.489371	0.502447	0.121127
H63	H	1.522281	0.421380	0.055254
C64	C	1.745000	0.469356	0.042507
C65	C	1.672222	0.492597	0.103642
H66	H	1.821236	0.474947	0.062423
H67	H	1.740107	0.499781	-0.005462
H68	H	1.723027	0.417568	0.029096
H69	H	1.694187	0.544387	0.117044
H70	H	1.677122	0.462181	0.151614
O71	O	1.187964	-0.209931	0.632630
C72	C	1.119716	-0.255038	0.689389
H73	H	1.166258	-0.256103	0.751072
H74	H	1.035481	-0.230084	0.698615
C75	C	1.038921	-0.335274	0.579843
C76	C	1.096089	-0.336587	0.655601
H77	H	1.024341	-0.385577	0.559000
H78	H	1.084897	-0.304884	0.541602
H79	H	0.968731	-0.314475	0.587541
H80	H	1.166283	-0.357377	0.647899
H81	H	1.050124	-0.366983	0.693839
O82	O	1.492626	-0.008166	0.632461
C83	C	1.431815	0.038801	0.582533
H84	H	1.343005	0.008953	0.569511
H85	H	1.424065	0.094687	0.616018
C86	C	1.604902	0.091593	0.516345
C87	C	1.495827	0.054930	0.500346
H88	H	1.644389	0.101545	0.465650
H89	H	1.645873	0.059952	0.549985
H90	H	1.598429	0.138160	0.544252
H91	H	1.502302	0.008360	0.472450
H92	H	1.454858	0.086563	0.466700
O93	O	1.492997	-0.008278	0.802971
C94	C	1.561213	0.036853	0.746213
H95	H	1.562403	0.005813	0.684517
H96	H	1.524517	0.093241	0.737019
C97	C	1.682227	0.090032	0.855751
C98	C	1.683697	0.051905	0.779978
H99	H	1.757780	0.099321	0.876579
H100	H	1.636267	0.059629	0.893991
H101	H	1.651642	0.137018	0.848079
H102	H	1.714268	0.004916	0.787653
H103	H	1.729665	0.082301	0.741740
H104	H	1.149735	0.502384	-0.000009
O105	O	1.187821	-0.209768	0.367497
C106	C	1.075509	-0.196967	0.346355
H107	H	1.075128	-0.136367	0.322575
H108	H	1.042045	-0.238767	0.296117
C109	C	0.999015	-0.282810	0.452455
C110	C	0.998545	-0.208378	0.423254
H111	H	0.951537	-0.289852	0.499888
H112	H	1.074680	-0.291437	0.466697
H113	H	0.971130	-0.317635	0.410583
H114	H	1.026443	-0.173555	0.465121
H115	H	0.922882	-0.199745	0.409020
H116	H	1.159272	0.105019	0.000005
O117	O	1.551033	0.131499	-0.000012
C118	C	1.641068	0.190865	0.000007
H119	H	1.609400	0.244620	-0.026023
H120	H	1.672659	0.201915	0.065969
C121	C	1.778417	0.102152	-0.021946
C122	C	1.739524	0.168173	-0.053922
H123	H	1.839152	0.088155	-0.055208
H124	H	1.717760	0.062155	-0.021955
H125	H	1.804735	0.111369	0.033022
H126	H	1.713194	0.158953	-0.108884
H127	H	1.800179	0.208168	-0.053923
O128	O	1.537571	0.684482	-0.000030
C129	C	1.513529	0.760789	-0.000015
H130	H	1.424398	0.764179	-0.026051
H131	H	1.517880	0.783612	0.065946
C132	C	1.711265	0.804569	-0.021956
C133	C	1.601795	0.808734	-0.053939
H134	H	1.765713	0.834145	-0.055215
H135	H	1.727463	0.753160	-0.021962
H136	H	1.714874	0.823587	0.033012
H137	H	1.598183	0.789707	-0.108901
H138	H	1.585598	0.860141	-0.053943
H139	H	1.200106	-0.201809	0.203722
H140	H	1.155844	0.248259	-0.000003
H141	H	1.480683	-0.016329	0.203716
H142	H	1.480688	-0.016330	0.360723
