data_functionalizedCrystal
_audit_creation_method	'MofGen! by Chris Wilmer'
_symmetry_space_group_name_H-M	'P1'
_symmetry_Int_Tables_number	1
_symmetry_cell_setting	triclinic
loop_
_symmetry_equiv_pos_as_xyz
  x,y,z
_cell_length_a	17.038272
_cell_length_b	27.731996
_cell_length_c	15.500227
_cell_angle_alpha	92.797931
_cell_angle_beta	86.956295
_cell_angle_gamma	86.866472
loop_
_atom_site_label
_atom_site_type_symbol
_atom_site_fract_x
_atom_site_fract_y
_atom_site_fract_z
O1	O	1.039770	0.102823	-0.071855
O2	O	0.812161	0.101156	-0.071880
O3	O	0.933055	0.031916	-0.071848
O4	O	0.918876	0.172063	-0.071887
O5	O	0.925719	0.036100	0.072039
O6	O	0.804825	0.105340	0.072007
O7	O	1.032434	0.107007	0.072032
Cu8	Cu	0.917960	0.106555	0.085157
Cu9	Cu	0.926635	0.101607	-0.085006
O10	O	0.911540	0.176247	0.072000
C11	C	0.779383	0.101733	0.000060
C12	C	0.692644	0.097212	0.000052
C13	C	0.642034	0.138715	0.000041
C14	C	0.560534	0.134465	0.000054
C15	C	0.529646	0.088711	0.000072
C16	C	0.580262	0.047205	0.000085
C17	C	0.661760	0.051456	0.000078
C18	C	0.284066	0.073695	0.000099
C19	C	0.202561	0.069447	0.000103
C20	C	0.182839	0.156707	0.000074
C21	C	0.264340	0.160954	0.000062
C22	C	0.314949	0.119448	0.000080
C23	C	0.446340	0.084366	0.000082
C24	C	0.398253	0.123794	0.000075
C25	C	0.929095	0.015987	0.000098
C26	C	0.928218	-0.037709	0.000107
C27	C	0.926698	-0.372960	-0.078369
C28	C	0.923367	-0.574771	-0.078384
O29	O	0.926304	-0.602803	-0.145089
N30	N	0.918955	-0.597726	0.000048
C31	C	0.915369	-0.570226	0.078489
O32	O	0.911532	-0.594381	0.145200
C33	C	0.918695	-0.368415	0.078504
C34	C	0.923116	-0.345463	0.000067
C35	C	0.931118	-0.350007	-0.156799
C36	C	0.931955	-0.299558	-0.156795
C37	C	0.928372	-0.272061	-0.078359
C38	C	0.923953	-0.295013	0.000071
C39	C	0.915104	-0.340915	0.156944
C40	C	0.915934	-0.290459	0.156941
C41	C	0.920355	-0.267507	0.078504
C42	C	0.921207	-0.217067	0.078511
N43	N	0.925620	-0.194111	0.000080
C44	C	0.929202	-0.221608	-0.078356
C45	C	0.913625	-0.676179	0.078476
C46	C	0.912795	-0.726632	0.078472
C47	C	0.920792	-0.731173	-0.078401
C48	C	0.921627	-0.680720	-0.078397
C49	C	0.918038	-0.653224	0.000044
C50	C	0.930960	-0.115660	-0.078340
C51	C	0.931800	-0.065206	-0.078328
C52	C	0.923800	-0.060669	0.078545
C53	C	0.922964	-0.111118	0.078534
C54	C	0.926542	-0.138613	0.000084
O55	O	0.918264	-0.189005	0.145181
O56	O	0.933022	-0.197443	-0.145057
C57	C	0.925861	-0.423410	-0.078373
C58	C	0.921442	-0.446362	0.000057
C59	C	0.917859	-0.418865	0.078493
C60	C	0.920612	-0.496815	0.000054
C61	C	0.924194	-0.524312	-0.078381
C62	C	0.928607	-0.501356	-0.156813
C63	C	0.929444	-0.450907	-0.156809
C64	C	0.913447	-0.441820	0.156925
C65	C	0.912611	-0.492270	0.156913
C66	C	0.916193	-0.519767	0.078478
C67	C	1.065212	0.106430	0.000089
C68	C	1.151951	0.110950	0.000092
C69	C	0.915500	0.192175	0.000051
C70	C	0.916378	0.245871	0.000037
N71	N	0.911864	0.110035	0.204841
N72	N	0.932738	0.098123	-0.204689
C73	C	0.963108	0.080708	0.250131
C74	C	0.958505	0.083345	0.340702
C75	C	0.902660	0.115312	0.385982
C76	C	0.851410	0.144640	0.340686
C77	C	0.856010	0.142001	0.250116
C78	C	0.886088	0.124812	0.659445
C79	C	0.881493	0.127451	0.750021
C80	C	0.988588	0.066155	0.750031
C81	C	0.993186	0.063520	0.659460
C82	C	0.941933	0.092846	0.614171
C83	C	0.897955	0.118009	0.478561
C84	C	0.946635	0.090147	0.521594
H85	H	0.667177	0.175972	0.000026
H86	H	0.519330	0.168261	0.000044
H87	H	0.923710	-0.753570	-0.142266
H88	H	1.000232	0.059464	0.377577
H89	H	1.038659	0.037490	0.622595
H90	H	0.555106	0.009952	0.000112
H91	H	0.934033	-0.372390	-0.220674
H92	H	0.325262	0.039898	0.000114
H93	H	0.933870	-0.138041	-0.142221
H94	H	0.805936	0.170666	0.377558
H95	H	0.421180	0.047114	0.000121
H96	H	0.910706	-0.653796	0.142355
H97	H	0.925226	-0.662036	-0.142267
H98	H	0.909017	-0.510954	0.220791
H99	H	0.920886	-0.038272	0.142405
H100	H	1.030314	0.042278	0.786914
H101	H	0.931528	-0.523753	-0.220678
H102	H	0.702967	0.017660	0.000087
H103	H	0.910530	-0.419437	0.220797
H104	H	0.909207	-0.745315	0.142344
H105	H	0.911505	-0.359594	0.220816
H106	H	0.423406	0.161046	0.000065
H107	H	0.935402	-0.046521	-0.142204
H108	H	0.992101	0.064117	0.484725
H109	H	0.852486	0.144038	0.515435
H110	H	0.177416	0.032187	0.000117
H111	H	0.935552	-0.280875	-0.220666
H112	H	0.912999	-0.268074	0.220818
H113	H	1.008586	0.054680	0.213270
H114	H	0.836015	0.153484	0.786884
H115	H	0.919371	-0.129807	0.142403
H116	H	0.933043	-0.432224	-0.220680
H117	H	0.844357	0.148692	0.622578
H118	H	0.141625	0.190499	0.000061
H119	H	0.814281	0.165881	0.213241
H120	H	0.289483	0.198211	0.000037
