data_functionalizedCrystal
_audit_creation_method	'MofGen! by Chris Wilmer'
_symmetry_space_group_name_H-M	'P1'
_symmetry_Int_Tables_number	1
_symmetry_cell_setting	triclinic
loop_
_symmetry_equiv_pos_as_xyz
  x,y,z
_cell_length_a	19.288864
_cell_length_b	12.996460
_cell_length_c	19.288865
_cell_angle_alpha	90.005525
_cell_angle_beta	83.136245
_cell_angle_gamma	90.020041
loop_
_atom_site_label
_atom_site_type_symbol
_atom_site_fract_x
_atom_site_fract_y
_atom_site_fract_z
O1	O	0.921351	0.085909	0.086643
O2	O	1.421351	0.585909	0.586643
O3	O	0.719090	0.085840	0.098332
O4	O	1.219090	0.585840	0.598332
O5	O	0.826065	0.085856	-0.008643
O6	O	1.326065	0.585856	0.491357
O7	O	0.814376	0.085893	0.193618
O8	O	1.314376	0.585893	0.693618
O9	O	0.826051	-0.085278	-0.008637
O10	O	1.326051	0.414722	0.491363
O11	O	0.719076	-0.085294	0.098338
O12	O	1.219076	0.414706	0.598338
O13	O	0.921337	-0.085225	0.086649
O14	O	1.421337	0.414775	0.586649
Cu15	Cu	0.820205	-0.100886	0.092494
Cu16	Cu	1.320205	0.399114	0.592494
Cu17	Cu	0.820222	0.101500	0.092487
Cu18	Cu	1.320222	0.601500	0.592487
O19	O	0.814362	-0.085241	0.193624
O20	O	1.314362	0.414759	0.693624
C21	C	0.693207	0.000264	0.097959
C22	C	1.193207	0.500264	0.597959
C23	C	0.616103	0.000237	0.096830
C24	C	1.116103	0.500237	0.596830
N25	N	0.820199	-0.243233	0.092499
N26	N	1.320199	0.256767	0.592499
C27	C	0.571407	0.000264	0.159598
C28	C	1.071407	0.500264	0.659598
C29	C	0.498960	0.000275	0.158537
C30	C	0.998960	0.500275	0.658537
C31	C	0.471212	0.000280	0.094705
C32	C	0.971212	0.500280	0.594705
C33	C	0.515918	0.000246	0.031929
C34	C	1.015918	0.500246	0.531929
C35	C	0.588364	0.000225	0.032991
C36	C	1.088364	0.500225	0.532991
C37	C	0.362955	0.060261	0.044523
C38	C	0.862955	0.560261	0.544523
C39	C	0.290510	0.060289	0.043464
C40	C	0.790510	0.560289	0.543464
C41	C	0.247767	0.000341	0.091425
C42	C	0.747767	0.500341	0.591425
C43	C	0.277474	-0.059621	0.140458
C44	C	0.777474	0.440379	0.640458
C45	C	0.349920	-0.059642	0.141521
C46	C	0.849920	0.440358	0.641521
C47	C	0.392658	0.000302	0.093546
C48	C	0.892658	0.500302	0.593546
C49	C	0.124514	0.000380	0.153047
C50	C	0.624514	0.500380	0.653047
C51	C	0.052066	0.000384	0.151984
C52	C	0.552066	0.500384	0.651984
C53	C	0.069026	0.000366	0.025374
C54	C	0.569026	0.500366	0.525374
C55	C	0.141473	0.000350	0.026439
C56	C	0.641473	0.500350	0.526439
C57	C	0.169212	0.000362	0.090278
C58	C	0.669212	0.500362	0.590278
C59	C	0.820202	-0.336339	0.092501
C60	C	1.320202	0.163661	0.592501
C61	C	0.820208	-0.453144	0.092496
C62	C	1.320208	0.046856	0.592496
C63	C	0.820217	-0.546242	0.092488
C64	C	1.320217	-0.046242	0.592488
C65	C	0.820225	-0.663055	0.092484
C66	C	1.320225	-0.163055	0.592484
C67	C	0.947220	0.000353	0.087022
C68	C	1.447220	0.500353	0.587022
C69	C	1.024324	0.000387	0.088151
C70	C	1.524324	0.500387	0.588151
C71	C	0.825682	0.000286	-0.034516
C72	C	1.325682	0.500286	0.465484
C73	C	0.824553	0.000276	-0.111620
C74	C	1.324553	0.500276	0.388380
N75	N	0.820233	0.243847	0.092476
N76	N	1.320233	0.743847	0.592476
C77	C	0.887321	0.000293	-0.156316
C78	C	1.387321	0.500293	0.343684
C79	C	0.886260	0.000308	-0.228763
C80	C	1.386260	0.500308	0.271237
C81	C	0.822428	0.000287	-0.256511
C82	C	1.322428	0.500287	0.243489
C83	C	0.759652	0.000277	-0.211805
C84	C	1.259652	0.500277	0.288195
C85	C	0.760714	0.000271	-0.139359
C86	C	1.260714	0.500271	0.360641
C87	C	0.772243	-0.059674	-0.364796
C88	C	1.272243	0.440326	0.135204
C89	C	0.771184	-0.059675	-0.437241
C90	C	1.271184	0.440325	0.062759
C91	C	0.819148	0.000309	-0.479956
C92	C	1.319148	0.500309	0.020044
C93	C	0.868184	0.060281	-0.450221
C94	C	1.368184	0.560281	0.049779
C95	C	0.869247	0.060275	-0.377775
C96	C	1.369247	0.560275	0.122225
C97	C	0.821269	0.000294	-0.335065
C98	C	1.321269	0.500294	0.164935
C99	C	0.880770	0.000344	-0.603209
C100	C	1.380770	0.500344	-0.103209
C101	C	0.879707	0.000367	-0.675657
C102	C	1.379707	0.500367	-0.175657
C103	C	0.753097	0.000325	-0.658697
C104	C	1.253097	0.500325	-0.158697
C105	C	0.754162	0.000313	-0.586250
C106	C	1.254162	0.500313	-0.086250
C107	C	0.818001	0.000318	-0.558511
C108	C	1.318001	0.500318	-0.058511
C109	C	0.814745	0.000331	0.219497
C110	C	1.314745	0.500331	0.719497
C111	C	0.815874	0.000347	0.296601
C112	C	1.315874	0.500347	0.796601
H113	H	0.593987	0.000276	0.211580
H114	H	1.093987	0.500276	0.711580
H115	H	0.939303	0.000300	-0.133736
H116	H	1.439303	0.500300	0.366264
H117	H	0.177866	0.000334	-0.024674
H118	H	0.677866	0.500334	0.475326
H119	H	0.909172	0.109108	-0.353567
H120	H	1.409172	0.609108	0.146433
H121	H	0.015674	0.000401	0.203099
H122	H	0.515674	0.500401	0.703099
H123	H	0.930822	0.000386	-0.712049
H124	H	1.430822	0.500386	-0.212049
H125	H	0.242673	-0.108436	0.179513
H126	H	0.742673	0.391564	0.679513
H127	H	0.046435	0.000433	-0.026600
H128	H	0.546435	0.500433	0.473400
H129	H	0.731252	-0.108501	-0.461445
H130	H	1.231252	0.391499	0.038555
H131	H	0.709599	0.000258	-0.102967
H132	H	1.209599	0.500258	0.397033
H133	H	0.266328	0.109117	0.003541
H134	H	0.766328	0.609117	0.503541
H135	H	0.932751	0.000353	-0.580622
H136	H	1.432751	0.500353	-0.080622
H137	H	0.374105	-0.108469	0.181443
H138	H	0.874105	0.391531	0.681443
H139	H	0.397752	0.109083	0.005466
H140	H	0.897752	0.609083	0.505466
H141	H	0.462561	0.000295	0.209652
H142	H	0.962561	0.500295	0.709652
H143	H	0.907241	0.109126	-0.484999
H144	H	1.407241	0.609126	0.015001
H145	H	0.147101	0.000374	0.205028
H146	H	0.647101	0.500374	0.705028
H147	H	0.493322	0.000264	-0.020044
H148	H	0.993322	0.500264	0.479956
H149	H	0.703049	0.000294	-0.549857
H150	H	1.203049	0.500294	-0.049857
H151	H	0.624756	0.000203	-0.018124
H152	H	1.124756	0.500203	0.481876
H153	H	0.937375	0.000326	-0.265162
H154	H	1.437375	0.500326	0.234838
H155	H	0.733183	-0.108526	-0.330022
H156	H	1.233183	0.391474	0.169978
H157	H	0.701123	0.000313	-0.681288
H158	H	1.201123	0.500313	-0.181288
H159	H	0.707679	0.000262	-0.234401
H160	H	1.207679	0.500262	0.265599
