data_functionalizedCrystal
_audit_creation_method	'MofGen! by Chris Wilmer'
_symmetry_space_group_name_H-M	'P1'
_symmetry_Int_Tables_number	1
_symmetry_cell_setting	triclinic
loop_
_symmetry_equiv_pos_as_xyz
  x,y,z
_cell_length_a	27.440280
_cell_length_b	14.446369
_cell_length_c	14.446369
_cell_angle_alpha	89.997974
_cell_angle_beta	60.004699
_cell_angle_gamma	119.998873
loop_
_atom_site_label
_atom_site_type_symbol
_atom_site_fract_x
_atom_site_fract_y
_atom_site_fract_z
Zr1	Zr	0.533360	0.121429	0.891902
O2	O	0.635022	0.269233	0.744117
O3	O	0.431699	0.076120	0.937188
O4	O	0.533355	0.269228	0.937213
O5	O	0.533370	-0.076204	0.744092
O6	O	0.533350	0.269223	1.089550
O7	O	0.533366	0.076125	0.744092
O8	O	0.351506	-0.076212	1.089505
O9	O	0.715214	0.269231	0.744137
O10	O	0.473510	0.056791	1.070211
O11	O	0.473517	-0.056886	0.956523
O12	O	0.593204	0.170473	0.956553
O13	O	0.593210	0.056796	0.842865
Zr14	Zr	0.533360	-0.121527	1.134861
Zr15	Zr	0.533353	0.121420	1.134862
Zr16	Zr	0.533367	-0.121518	0.891901
Zr17	Zr	0.661258	0.121426	0.891933
Zr18	Zr	0.405463	-0.121524	1.134830
O19	O	0.635022	-0.076219	1.089575
O20	O	0.635012	0.269220	1.089575
O21	O	0.635032	-0.076206	0.744117
O22	O	0.431699	-0.269332	1.282646
O23	O	0.431689	0.076108	1.282646
O24	O	0.431709	-0.269319	0.937188
O25	O	0.533350	0.076105	1.282671
O26	O	0.533366	-0.269327	1.089550
O27	O	0.533370	-0.269321	0.937213
O28	O	0.533355	-0.076223	1.282671
O29	O	0.715209	0.269224	0.937258
O30	O	0.351512	-0.269323	1.089505
O31	O	0.351506	-0.269330	1.282626
O32	O	0.351501	-0.076219	1.282626
O33	O	0.715220	0.076121	0.744137
O34	O	0.715214	0.076114	0.937258
O35	O	0.473517	-0.170572	1.070210
O36	O	0.473510	-0.056895	1.183898
O37	O	0.593204	0.056788	1.070240
O38	O	0.593210	-0.056889	0.956552
C39	C	0.373380	-0.000046	1.013342
C40	C	0.319084	-0.000044	1.013329
C41	C	0.533352	0.303840	1.013382
C42	C	0.533349	0.406977	1.013382
C43	C	0.533369	-0.303939	1.013381
C44	C	0.533372	-0.407076	1.013381
C45	C	-0.017661	0.059279	1.072757
C46	C	-0.068685	0.059276	1.072767
O47	O	-0.095094	0.109706	1.123271
N48	N	-0.094198	-0.000060	1.013422
C49	C	-0.068689	-0.059406	0.954073
O50	O	-0.095075	-0.109877	0.903597
C51	C	-0.017670	-0.059409	0.954070
C52	C	0.007845	-0.000060	1.013409
C53	C	0.007853	0.118622	1.132092
C54	C	0.058874	0.118627	1.132080
C55	C	0.084381	0.059288	1.072732
C56	C	0.058867	-0.000055	1.013397
C57	C	0.007835	-0.118761	0.894728
C58	C	0.058857	-0.118759	0.894730
C59	C	0.084372	-0.059410	0.954070
C60	C	0.135395	-0.059389	0.954037
N61	N	0.160907	-0.000053	1.013381
C62	C	0.135401	0.059285	1.072729
C63	C	-0.175834	-0.059397	0.954085
C64	C	-0.226849	-0.059388	0.954081
C65	C	-0.226843	0.059292	1.072777
C66	C	-0.175823	0.059289	1.072774
C67	C	-0.150322	-0.000061	1.013430
C68	C	0.242549	0.059291	1.072698
C69	C	0.293577	0.059294	1.072677
C70	C	0.293564	-0.059391	0.953986
C71	C	0.242543	-0.059389	0.954002
C72	C	0.217035	-0.000046	1.013366
O73	O	0.161834	-0.109798	0.903562
O74	O	0.161787	0.109736	1.123208
C75	C	0.693341	-0.000053	1.013421
C76	C	0.747637	-0.000054	1.013434
C77	C	0.533369	-0.000038	0.709475
C78	C	0.533372	-0.000034	0.606332
C79	C	0.457866	0.481959	1.085423
C80	C	0.457815	0.374630	1.085111
C81	C	0.570848	0.481541	0.889861
C82	C	0.570369	0.588400	0.890256
C83	C	0.571918	0.589967	1.063864
C84	C	0.570496	0.481295	1.066363
C85	C	0.608855	0.071304	0.387982
C86	C	0.608906	0.071705	0.495214
C87	C	0.495873	0.052265	0.603000
C88	C	0.496352	0.052788	0.495231
C89	C	0.494803	-0.123763	0.496594
C90	C	0.496225	-0.123568	0.602563
C91	C	0.533352	-0.000060	1.317288
C92	C	0.533349	-0.000064	1.420430
C93	C	0.373371	-0.000057	1.317248
C94	C	0.319072	-0.000059	1.420378
C95	C	0.373389	-0.303935	1.013342
C96	C	0.319096	-0.407071	1.013328
C97	C	0.373380	-0.303946	1.317248
C98	C	0.319084	-0.407086	1.420377
C99	C	0.693341	0.303848	0.709515
C100	C	0.747637	0.406988	0.606386
C101	C	0.693350	-0.000042	0.709515
C102	C	0.747649	-0.000039	0.606385
C103	C	0.693332	0.303837	1.013421
C104	C	0.747625	0.406973	1.013435
C105	C	0.293573	0.059292	1.409465
C106	C	0.242560	0.059312	1.506357
C107	C	0.217045	-0.000026	1.614161
C108	C	0.242549	-0.059380	1.625071
C109	C	0.293564	-0.059392	1.528181
C110	C	0.293599	-0.514858	1.072666
C111	C	0.242592	-0.611774	1.072649
C112	C	0.217080	-0.600902	1.013300
C113	C	0.242581	-0.493104	0.953956
C114	C	0.293591	-0.396190	0.953967
C115	C	0.293583	-0.396183	1.528162
C116	C	0.242573	-0.493085	1.625072
C117	C	0.217062	-0.600888	1.614196
C118	C	0.242569	-0.611789	1.506400
C119	C	0.293581	-0.514888	1.409492
C120	C	0.773144	0.396085	0.498601
C121	C	0.824170	0.492987	0.401690
C122	C	0.849684	0.600790	0.412567
C123	C	0.824174	0.611690	0.520363
C124	C	0.773153	0.514790	0.617271
C125	C	0.773153	-0.059380	0.617298
C126	C	0.824180	-0.059374	0.520406
C127	C	0.849697	-0.000032	0.412602
C128	C	0.824191	0.059317	0.401691
C129	C	0.773168	0.059316	0.498582
C130	C	0.773122	0.396064	1.072794
C131	C	0.824129	0.492962	1.072829
C132	C	0.849642	0.600768	1.013497
C133	C	0.824140	0.611674	0.954135
C134	C	0.773131	0.514777	0.954108
H135	H	0.314351	0.107628	1.120997
H136	H	-0.155052	0.107616	1.121094
C137	C	0.321658	-0.526845	1.137951
N138	N	0.342792	-0.535884	1.187121
H139	H	0.221790	-0.699575	1.497560
C140	C	0.745111	0.124586	0.486559
N141	N	0.723980	0.173748	0.477494
C142	C	0.852240	0.730285	0.532309
N143	N	0.873377	0.819613	0.541303
C144	C	0.421513	-0.012895	0.531217
N145	N	0.365146	-0.062362	0.558325
H146	H	0.752381	-0.107711	0.705068
H147	H	0.175525	-0.679781	1.693114
H148	H	0.752357	0.308292	1.121110
H149	H	0.891228	0.679683	0.333649
H150	H	0.844887	0.484059	1.121167
H151	H	0.079644	0.166950	1.180403
C152	C	0.532351	0.175760	0.427223
N153	N	0.559467	0.268385	0.376002
H154	H	0.314337	-0.523781	1.321732
H155	H	0.752374	0.308315	0.489723
H156	H	0.221811	-0.484189	1.712836
H157	H	0.844931	0.484089	0.313928
H158	H	0.428394	0.320354	1.176068
H159	H	-0.012912	0.166942	1.180425
C160	C	0.420877	-0.014466	0.708805
N161	N	0.364401	-0.064691	0.788532
H162	H	0.891178	0.679658	1.013528
C163	C	0.321624	-0.277626	0.888701
N164	N	0.342735	-0.188325	0.839541
C165	C	0.905820	-0.000049	0.306030
N166	N	0.948090	-0.000069	0.225763
H167	H	0.752377	0.523675	0.905765
H168	H	0.844939	-0.107707	0.529312
C169	C	0.852188	0.730272	0.888921
N170	N	0.873308	0.819602	0.839814
C171	C	0.321639	-0.277608	1.540154
N172	N	0.342771	-0.188300	1.549196
C173	C	0.539270	0.595516	1.184893
N174	N	0.514672	0.599688	1.276055
C175	C	0.745092	0.526802	0.735832
N176	N	0.723958	0.535858	0.825132
H177	H	0.175504	-0.000007	1.693046
H178	H	0.221835	-0.699538	1.120978
C179	C	0.214500	-0.124630	0.888680
N180	N	0.193383	-0.173767	0.839474
H181	H	0.638343	0.162002	0.333005
H182	H	0.428230	0.479617	1.176615
H183	H	0.428206	0.320846	1.050098
H184	H	0.844975	0.107631	0.313905
H185	H	0.221786	0.107612	1.121040
H186	H	0.221801	0.107645	1.497451
C187	C	-0.254915	0.124557	1.138071
N188	N	-0.276061	0.173710	1.187248
H189	H	-0.247612	-0.107702	0.905746
C190	C	0.531065	0.174081	0.605862
N191	N	0.557580	0.265838	0.608002
H192	H	-0.155069	-0.107721	0.905748
C193	C	0.214506	-0.481163	0.888683
N194	N	0.193354	-0.472173	0.839526
C195	C	-0.020266	-0.184138	0.829535
N196	N	-0.041448	-0.233416	0.780461
C197	C	0.419659	-0.195938	0.533651
N198	N	0.363064	-0.250292	0.561554
H199	H	0.079619	-0.167089	0.846402
C200	C	0.418031	0.480559	1.038551
N201	N	0.388030	0.479506	1.003242
H202	H	0.221767	-0.107691	1.712858
H203	H	0.638504	0.162954	0.492775
H204	H	0.314343	-0.107699	0.905663
H205	H	0.543723	0.588133	0.849842
H206	H	0.625767	0.666980	0.833656
H207	H	0.544806	0.429940	0.849161
C208	C	0.645876	0.518328	0.814191
N209	N	0.702388	0.546033	0.757197
H210	H	0.175544	-0.679825	1.013301
C211	C	0.533558	0.411825	1.189303
N212	N	0.505734	0.359493	1.281902
H213	H	0.627547	0.668166	1.011622
C214	C	0.648685	0.024375	0.493011
N215	N	0.678662	-0.011251	0.491332
C216	C	0.644952	0.515814	1.002814
N217	N	0.701039	0.541828	0.954930
H218	H	0.638490	0.036401	0.334033
H219	H	0.518964	-0.167452	0.446576
H220	H	0.441119	-0.181217	0.681708
C221	C	0.533158	-0.176357	0.601884
N222	N	0.560975	-0.216117	0.601381
H223	H	0.314347	0.107627	1.321695
H224	H	0.314319	-0.107730	1.537082
