data_functionalizedCrystal
_audit_creation_method	'MofGen! by Chris Wilmer'
_symmetry_space_group_name_H-M	'P1'
_symmetry_Int_Tables_number	1
_symmetry_cell_setting	triclinic
loop_
_symmetry_equiv_pos_as_xyz
  x,y,z
_cell_length_a	16.120530
_cell_length_b	12.759400
_cell_length_c	12.759393
_cell_angle_alpha	90.031769
_cell_angle_beta	87.082105
_cell_angle_gamma	92.889638
loop_
_atom_site_label
_atom_site_type_symbol
_atom_site_fract_x
_atom_site_fract_y
_atom_site_fract_z
Zn1	Zn	1.274616	0.499752	-0.675425
Zn2	Zn	1.274534	0.675466	-0.499740
Zn3	Zn	1.135195	0.490887	-0.490856
Zn4	Zn	1.135184	0.666468	-0.666477
O5	O	1.204882	0.583143	-0.583125
O6	O	1.391272	0.530536	-0.659583
O7	O	1.256022	0.651037	-0.351539
O8	O	1.153728	0.345044	-0.515366
O9	O	1.391212	0.659633	-0.530508
O10	O	1.256160	0.351557	-0.650968
O11	O	1.153650	0.515427	-0.345012
O12	O	1.018527	0.506703	-0.506690
O13	O	1.153709	0.644298	-0.814687
O14	O	1.018518	0.635702	-0.635718
O15	O	1.256149	0.521812	-0.821261
O16	O	1.256010	0.821291	-0.521832
O17	O	1.153630	0.814681	-0.644333
C18	C	0.988272	0.569264	-0.569270
C19	C	0.895606	0.563352	-0.563367
C20	C	1.204833	0.856107	-0.583100
C21	C	1.204888	0.972888	-0.583129
C22	C	1.204936	0.583040	-0.857162
C23	C	1.204959	0.582996	-0.973940
C24	C	0.725942	0.552534	-0.552601
C25	C	0.684662	0.613830	-0.613726
C26	C	0.590256	0.607810	-0.607735
C27	C	0.820357	0.558552	-0.558590
C28	C	1.422338	0.597077	-0.597034
C29	C	1.515005	0.603015	-0.602962
C30	C	1.204955	0.309115	-0.583174
C31	C	1.204985	0.192340	-0.583195
C32	C	1.258257	1.031161	-0.519421
C33	C	1.258308	1.140888	-0.519456
C34	C	1.151614	1.134059	-0.646911
C35	C	1.151568	1.024334	-0.646880
C36	C	1.319853	1.035104	-0.445832
C37	C	1.319904	1.144831	-0.445868
C38	C	1.151677	0.512373	-1.025411
C39	C	1.151702	0.512343	-1.135136
C40	C	1.258300	0.653563	-1.141911
C41	C	1.258269	0.653596	-1.032187
C42	C	1.090136	0.430838	-1.021500
C43	C	1.090161	0.430808	-1.131226
C44	C	1.204876	0.583174	-0.310157
C45	C	1.205015	0.582932	-0.193390
H46	H	0.690384	0.495541	-0.495774
O47	O	0.726989	0.681975	-0.681461
C48	C	0.705773	0.785333	-0.656974
H49	H	0.642503	0.783505	-0.612651
H50	H	0.702931	0.832362	-0.732535
H51	H	0.754729	0.823711	-0.605936
O52	O	1.396917	1.004530	-0.476705
C53	C	1.455308	1.045168	-0.406729
H54	H	1.430020	1.116998	-0.365396
H55	H	1.516114	1.068532	-0.452234
H56	H	1.467007	0.982836	-0.345975
H57	H	1.108119	0.976889	-0.698766
H58	H	1.108204	1.175960	-0.698816
H59	H	1.296742	0.999678	-0.367029
O60	O	1.110737	0.334970	-1.167975
C61	C	1.052208	0.257698	-1.127354
H62	H	1.020669	0.287621	-1.051938
H63	H	1.085202	0.183184	-1.109917
H64	H	1.003427	0.239805	-1.187359
O65	O	1.393081	1.189892	-0.485540
C66	C	1.407653	1.156520	-0.589922
H67	H	1.371475	1.078840	-0.602550
H68	H	1.476934	1.145648	-0.605638
H69	H	1.386333	1.218083	-0.645984
O70	O	1.299178	1.179092	-0.347495
C71	C	1.219314	1.137153	-0.315484
H72	H	1.183266	1.115323	-0.387590
H73	H	1.184727	1.198089	-0.267436
H74	H	1.225370	1.064138	-0.265542
H75	H	1.301645	0.711119	-0.990283
H76	H	1.301703	0.711042	-1.189349
O77	O	1.013117	0.452099	-0.981094
C78	C	0.991820	0.551355	-1.016650
H79	H	1.050893	0.600514	-1.039911
H80	H	0.955430	0.592691	-0.951245
H81	H	0.951917	0.541124	-1.087544
O82	O	1.117618	0.340401	-0.982545
C83	C	1.054499	0.291380	-0.916394
H84	H	1.009842	0.352391	-0.886319
H85	H	1.083582	0.253576	-0.847103
H86	H	1.019036	0.228536	-0.962266
O87	O	1.017056	0.461051	-1.167199
C88	C	1.031912	0.551398	-1.230294
H89	H	1.092501	0.593917	-1.208514
H90	H	0.978410	0.605783	-1.216965
H91	H	1.036838	0.527554	-1.316421
