data_functionalizedCrystal
_audit_creation_method	'MofGen! by Chris Wilmer'
_symmetry_space_group_name_H-M	'P1'
_symmetry_Int_Tables_number	1
_symmetry_cell_setting	triclinic
loop_
_symmetry_equiv_pos_as_xyz
  x,y,z
_cell_length_a	19.805407
_cell_length_b	19.121063
_cell_length_c	19.805399
_cell_angle_alpha	92.411105
_cell_angle_beta	89.980427
_cell_angle_gamma	92.469032
loop_
_atom_site_label
_atom_site_type_symbol
_atom_site_fract_x
_atom_site_fract_y
_atom_site_fract_z
Zn1	Zn	1.023234	-0.279631	-0.394203
Zn2	Zn	1.273234	-0.029631	-0.144203
Zn3	Zn	1.523234	0.220369	0.105797
Zn4	Zn	1.773234	0.470369	0.355797
Zn5	Zn	1.018317	-0.397083	-0.285838
Zn6	Zn	1.268317	-0.147083	-0.035838
Zn7	Zn	1.518317	0.102917	0.214162
Zn8	Zn	1.768317	0.352917	0.464162
Zn9	Zn	0.910048	-0.279650	-0.281028
Zn10	Zn	1.160048	-0.029650	-0.031028
Zn11	Zn	1.410048	0.220350	0.218972
Zn12	Zn	1.660048	0.470350	0.468972
Zn13	Zn	0.905182	-0.397046	-0.398983
Zn14	Zn	1.155182	-0.147046	-0.148983
Zn15	Zn	1.405182	0.102954	0.101017
Zn16	Zn	1.655182	0.352954	0.351017
O17	O	0.964195	-0.338352	-0.340013
O18	O	1.214195	-0.088352	-0.090013
O19	O	1.464195	0.161648	0.159987
O20	O	1.714195	0.411648	0.409987
O21	O	1.117298	-0.295218	-0.379840
O22	O	1.367298	-0.045218	-0.129840
O23	O	1.617298	0.204782	0.120160
O24	O	1.867298	0.454782	0.370160
O25	O	1.003934	-0.381529	-0.190484
O26	O	1.253934	-0.131529	0.059516
O27	O	1.503934	0.118471	0.309516
O28	O	1.753934	0.368471	0.559516
O29	O	0.929156	-0.181363	-0.292028
O30	O	1.179156	0.068637	-0.042028
O31	O	1.429156	0.318637	0.207972
O32	O	1.679156	0.568637	0.457972
O33	O	1.113686	-0.381510	-0.300225
O34	O	1.363686	-0.131510	-0.050225
O35	O	1.613686	0.118490	0.199775
O36	O	1.863686	0.368490	0.449775
O37	O	1.012313	-0.181348	-0.375177
O38	O	1.262313	0.068652	-0.125177
O39	O	1.512313	0.318652	0.124823
O40	O	1.762313	0.568652	0.374823
O41	O	0.924388	-0.295251	-0.186951
O42	O	1.174388	-0.045251	0.063049
O43	O	1.424388	0.204749	0.313049
O44	O	1.674388	0.454749	0.563049
O45	O	0.814686	-0.295215	-0.296663
O46	O	1.064686	-0.045215	-0.046663
O47	O	1.314686	0.204785	0.203337
O48	O	1.564686	0.454785	0.453337
O49	O	0.920863	-0.381447	-0.493065
O50	O	1.170863	-0.131447	-0.243065
O51	O	1.420863	0.118553	0.006935
O52	O	1.670863	0.368553	0.256935
O53	O	0.811111	-0.381465	-0.383324
O54	O	1.061111	-0.131465	-0.133324
O55	O	1.311111	0.118535	0.116676
O56	O	1.561111	0.368535	0.366676
O57	O	1.007595	-0.295182	-0.489553
O58	O	1.257595	-0.045182	-0.239553
O59	O	1.507595	0.204818	0.010447
O60	O	1.757595	0.454818	0.260447
O61	O	0.999216	-0.495363	-0.304860
O62	O	1.249216	-0.245363	-0.054860
O63	O	1.499216	0.004637	0.195140
O64	O	1.749216	0.254637	0.445140
O65	O	0.916096	-0.495335	-0.387987
O66	O	1.166096	-0.245335	-0.137987
O67	O	1.416096	0.004665	0.112013
O68	O	1.666096	0.254665	0.362013
C69	C	0.788340	-0.338339	-0.339991
C70	C	1.038340	-0.088339	-0.089991
C71	C	1.288340	0.161661	0.160009
C72	C	1.538340	0.411661	0.410009
C73	C	0.713107	-0.338350	-0.339998
C74	C	0.963107	-0.088350	-0.089998
C75	C	1.213107	0.161650	0.160002
C76	C	1.463107	0.411650	0.410002
C77	C	0.956613	-0.520833	-0.347479
C78	C	1.206613	-0.270833	-0.097479
C79	C	1.456613	-0.020833	0.152521
C80	C	1.706613	0.229167	0.402521
C81	C	0.953431	-0.598899	-0.350696
C82	C	1.203431	-0.348899	-0.100696
C83	C	1.453431	-0.098899	0.149304
C84	C	1.703431	0.151101	0.399304
C85	C	0.675917	-0.383328	-0.385055
C86	C	0.925917	-0.133328	-0.135055
C87	C	1.175917	0.116672	0.114945
C88	C	1.425917	0.366672	0.364945
C89	C	0.605228	-0.383329	-0.385064
C90	C	0.855228	-0.133329	-0.135064
C91	C	1.105228	0.116671	0.114936
C92	C	1.355228	0.366671	0.364936
C93	C	0.571732	-0.338356	-0.340013
C94	C	0.821732	-0.088356	-0.090013
C95	C	1.071732	0.161644	0.159987
C96	C	1.321732	0.411644	0.409987
C97	C	0.608927	-0.293373	-0.294954
C98	C	0.858927	-0.043373	-0.044954
C99	C	1.108927	0.206627	0.205046
C100	C	1.358927	0.456627	0.455046
C101	C	0.679614	-0.293368	-0.294948
C102	C	0.929614	-0.043368	-0.044948
C103	C	1.179614	0.206632	0.205052
C104	C	1.429614	0.456632	0.455052
C105	C	0.323853	-0.293388	-0.294977
C106	C	0.573853	-0.043388	-0.044977
C107	C	0.823853	0.206612	0.205023
C108	C	1.073853	0.456612	0.455023
C109	C	0.253161	-0.293397	-0.294985
C110	C	0.503161	-0.043397	-0.044985
C111	C	0.753161	0.206603	0.205015
C112	C	1.003161	0.456603	0.455015
C113	C	0.249467	-0.383349	-0.385093
C114	C	0.499467	-0.133349	-0.135093
C115	C	0.749467	0.116651	0.114907
C116	C	0.999467	0.366651	0.364907
C117	C	0.320154	-0.383345	-0.385087
C118	C	0.570154	-0.133345	-0.135087
C119	C	0.820154	0.116655	0.114913
C120	C	1.070154	0.366655	0.364913
C121	C	0.357344	-0.338360	-0.340031
C122	C	0.607344	-0.088360	-0.090031
C123	C	0.857344	0.161640	0.159969
C124	C	1.107344	0.411640	0.409969
C125	C	0.433992	-0.338358	-0.340022
C126	C	0.683992	-0.088358	-0.090022
C127	C	0.933992	0.161642	0.159978
C128	C	1.183992	0.411642	0.409978
C129	C	0.495084	-0.338360	-0.340018
C130	C	0.745084	-0.088360	-0.090018
C131	C	0.995084	0.161640	0.159982
C132	C	1.245084	0.411640	0.409982
C133	C	0.995246	-0.635566	-0.308963
C134	C	1.245246	-0.385566	-0.058963
C135	C	1.495246	-0.135566	0.191037
C136	C	1.745246	0.114434	0.441037
C137	C	0.992258	-0.708917	-0.311992
C138	C	1.242258	-0.458917	-0.061992
C139	C	1.492258	-0.208917	0.188008
C140	C	1.742258	0.041083	0.438008
C141	C	0.947451	-0.745601	-0.356752
C142	C	1.197451	-0.495601	-0.106752
C143	C	1.447451	-0.245601	0.143248
C144	C	1.697451	0.004399	0.393248
C145	C	0.905634	-0.708929	-0.398489
C146	C	1.155634	-0.458929	-0.148489
C147	C	1.405634	-0.208929	0.101511
C148	C	1.655634	0.041071	0.351511
C149	C	0.908626	-0.635579	-0.395463
C150	C	1.158626	-0.385579	-0.145463
C151	C	1.408626	-0.135579	0.104537
C152	C	1.658626	0.114421	0.354537
C153	C	0.936252	-0.967071	-0.368056
C154	C	1.186252	-0.717071	-0.118056
C155	C	1.436252	-0.467071	0.131944
C156	C	1.686252	-0.217071	0.381944
C157	C	0.933262	-1.040426	-0.371078
C158	C	1.183262	-0.790426	-0.121078
C159	C	1.433262	-0.540426	0.128922
C160	C	1.683262	-0.290426	0.378922
C161	C	1.019887	-1.040409	-0.284581
C162	C	1.269887	-0.790409	-0.034581
C163	C	1.519887	-0.540409	0.215419
C164	C	1.769887	-0.290409	0.465419
C165	C	1.022872	-0.967058	-0.281556
C166	C	1.272872	-0.717058	-0.031556
C167	C	1.522872	-0.467058	0.218444
C168	C	1.772872	-0.217058	0.468444
C169	C	0.981058	-0.930393	-0.323296
C170	C	1.231058	-0.680393	-0.073296
C171	C	1.481058	-0.430393	0.176704
C172	C	1.731058	-0.180393	0.426704
C173	C	0.944394	-0.820578	-0.359848
C174	C	1.194394	-0.570578	-0.109848
C175	C	1.444394	-0.320578	0.140152
C176	C	1.694394	-0.070578	0.390152
C177	C	0.984119	-0.855417	-0.320203
C178	C	1.234119	-0.605417	-0.070203
C179	C	1.484119	-0.355417	0.179797
C180	C	1.734119	-0.105417	0.429797
C181	C	1.140737	-0.338366	-0.340036
C182	C	1.390737	-0.088366	-0.090036
C183	C	1.640737	0.161634	0.159964
C184	C	1.890737	0.411634	0.409964
C185	C	1.215969	-0.338372	-0.340046
C186	C	1.465969	-0.088372	-0.090046
C187	C	1.715969	0.161628	0.159954
C188	C	1.965969	0.411628	0.409954
C189	C	0.964235	-0.338308	-0.516554
C190	C	1.214235	-0.088308	-0.266554
C191	C	1.464235	0.161692	-0.016554
C192	C	1.714235	0.411692	0.233446
C193	C	0.964252	-0.338289	-0.591785
C194	C	1.214252	-0.088289	-0.341785
C195	C	1.464252	0.161711	-0.091785
C196	C	1.714252	0.411711	0.158215
C197	C	0.971825	-0.155159	-0.332532
C198	C	1.221825	0.094841	-0.082532
C199	C	1.471825	0.344841	0.167468
C200	C	1.721825	0.594841	0.417468
C201	C	0.975077	-0.077093	-0.329345
C202	C	1.225077	0.172907	-0.079345
C203	C	1.475077	0.422907	0.170655
C204	C	1.725077	0.672907	0.420655
C205	C	1.009414	-0.293369	-0.625302
C206	C	1.259414	-0.043369	-0.375302
C207	C	1.509414	0.206631	-0.125302
C208	C	1.759414	0.456631	0.124698
C209	C	1.009422	-0.293349	-0.695989
C210	C	1.259422	-0.043349	-0.445989
C211	C	1.509422	0.206651	-0.195989
C212	C	1.759422	0.456651	0.054011
C213	C	0.964270	-0.338253	-0.733159
C214	C	1.214270	-0.088253	-0.483159
C215	C	1.464270	0.161747	-0.233159
C216	C	1.714270	0.411747	0.016841
C217	C	0.919103	-0.383175	-0.699638
C218	C	1.169103	-0.133175	-0.449638
C219	C	1.419103	0.116825	-0.199638
C220	C	1.669103	0.366825	0.050362
C221	C	0.919093	-0.383191	-0.628952
C222	C	1.169093	-0.133191	-0.378952
C223	C	1.419093	0.116809	-0.128952
C224	C	1.669093	0.366809	0.121048
C225	C	0.919144	-0.383109	-0.984709
C226	C	1.169144	-0.133109	-0.734709
C227	C	1.419144	0.116891	-0.484709
C228	C	1.669144	0.366891	-0.234709
C229	C	0.919159	-0.383091	-1.055400
C230	C	1.169159	-0.133091	-0.805400
C231	C	1.419159	0.116909	-0.555400
C232	C	1.669159	0.366909	-0.305400
C233	C	1.009474	-0.293267	-1.051747
C234	C	1.259474	-0.043267	-0.801747
C235	C	1.509474	0.206733	-0.551747
C236	C	1.759474	0.456733	-0.301747
C237	C	1.009463	-0.293283	-0.981060
C238	C	1.259463	-0.043283	-0.731060
C239	C	1.509463	0.206717	-0.481060
C240	C	1.759463	0.456717	-0.231060
C241	C	0.964294	-0.338202	-0.947545
C242	C	1.214294	-0.088202	-0.697545
C243	C	1.464294	0.161798	-0.447545
C244	C	1.714294	0.411798	-0.197545
C245	C	0.964285	-0.338223	-0.870897
C246	C	1.214285	-0.088223	-0.620897
C247	C	1.464285	0.161777	-0.370897
C248	C	1.714285	0.411777	-0.120897
C249	C	0.964282	-0.338236	-0.809806
C250	C	1.214282	-0.088236	-0.559806
C251	C	1.464282	0.161764	-0.309806
C252	C	1.714282	0.411764	-0.059806
C253	C	0.964197	-0.338346	-0.164157
C254	C	1.214197	-0.088346	0.085843
C255	C	1.464197	0.161654	0.335843
C256	C	1.714197	0.411654	0.585843
C257	C	0.964319	-0.338167	-0.088918
C258	C	1.214319	-0.088167	0.161082
C259	C	1.464319	0.161833	0.411082
C260	C	1.714319	0.411833	0.661082
H261	H	0.703185	-0.419953	-0.421739
H262	H	0.953185	-0.169953	-0.171739
H263	H	1.203185	0.080047	0.078261
H264	H	1.453185	0.330047	0.328261
C265	C	0.216316	-0.243918	-0.245431
C266	C	0.466316	0.006082	0.004569
C267	C	0.716316	0.256082	0.254569
C268	C	0.966316	0.506082	0.504569
H269	H	0.248588	-0.217120	-0.218601
H270	H	0.498588	0.032880	0.031399
H271	H	0.748588	0.282880	0.281399
H272	H	0.998588	0.532880	0.531399
H273	H	0.187614	-0.270744	-0.216996
H274	H	0.437614	-0.020744	0.033004
H275	H	0.687614	0.229256	0.283004
H276	H	0.937614	0.479256	0.533004
H277	H	0.190021	-0.213356	-0.270133
H278	H	0.440021	0.036644	-0.020133
H279	H	0.690021	0.286644	0.229867
H280	H	0.940021	0.536644	0.479867
C281	C	1.059081	-0.243976	-0.584418
C282	C	1.309081	0.006024	-0.334418
C283	C	1.559081	0.256024	-0.084418
C284	C	1.809081	0.506024	0.165582
H285	H	1.052613	-0.250422	-0.537519
H286	H	1.302613	-0.000422	-0.287519
H287	H	1.552613	0.249578	-0.037519
H288	H	1.802613	0.499578	0.212481
H289	H	1.051144	-0.196783	-0.594074
H290	H	1.301144	0.053217	-0.344074
H291	H	1.551144	0.303217	-0.094074
H292	H	1.801144	0.553217	0.155926
H293	H	1.104134	-0.254261	-0.596432
H294	H	1.354134	-0.004261	-0.346432
H295	H	1.604134	0.245739	-0.096432
H296	H	1.854134	0.495739	0.153568
C297	C	0.208557	-0.432826	-0.434662
C298	C	0.458557	-0.182826	-0.184662
C299	C	0.708557	0.067174	0.065338
C300	C	0.958557	0.317174	0.315338
H301	H	0.161661	-0.426384	-0.428221
H302	H	0.411661	-0.176384	-0.178221
H303	H	0.661661	0.073616	0.071779
H304	H	0.911661	0.323616	0.321779
H305	H	0.218178	-0.480002	-0.426610
H306	H	0.468178	-0.230002	-0.176610
H307	H	0.718178	0.019998	0.073390
H308	H	0.968178	0.269998	0.323390
H309	H	0.220589	-0.422604	-0.479738
H310	H	0.470589	-0.172604	-0.229738
H311	H	0.720589	0.077396	0.020262
H312	H	0.970589	0.327396	0.270262
C313	C	0.564320	-0.432848	-0.434587
C314	C	0.814320	-0.182848	-0.184587
C315	C	1.064320	0.067152	0.065413
C316	C	1.314320	0.317152	0.315413
H317	H	0.594393	-0.459651	-0.461400
H318	H	0.844393	-0.209651	-0.211400
H319	H	1.094393	0.040349	0.038600
H320	H	1.344393	0.290349	0.288600
H321	H	0.537849	-0.406064	-0.463043
H322	H	0.787849	-0.156064	-0.213043
H323	H	1.037849	0.093936	0.036957
H324	H	1.287849	0.343936	0.286957
H325	H	0.535486	-0.463403	-0.409857
H326	H	0.785486	-0.213403	-0.159857
H327	H	1.035486	0.036597	0.090143
H328	H	1.285486	0.286597	0.340143
H329	H	0.347424	-0.419970	-0.421771
H330	H	0.597424	-0.169970	-0.171771
H331	H	0.847424	0.080030	0.078229
H332	H	1.097424	0.330030	0.328229
C333	C	0.869491	-0.432485	-1.096289
C334	C	1.119491	-0.182485	-0.846289
C335	C	1.369491	0.067515	-0.596289
C336	C	1.619491	0.317515	-0.346289
H337	H	0.875974	-0.426046	-1.143188
H338	H	1.125974	-0.176046	-0.893188
H339	H	1.375974	0.073954	-0.643188
H340	H	1.625974	0.323954	-0.393188
H341	H	0.824439	-0.422205	-1.084282
H342	H	1.074439	-0.172205	-0.834282
H343	H	1.324439	0.077795	-0.584282
H344	H	1.574439	0.327795	-0.334282
H345	H	0.877431	-0.479682	-1.086632
H346	H	1.127431	-0.229682	-0.836632
H347	H	1.377431	0.020318	-0.586632
H348	H	1.627431	0.270318	-0.336632
C349	C	0.364752	-0.243919	-0.245406
C350	C	0.614752	0.006081	0.004594
C351	C	0.864752	0.256081	0.254594
C352	C	1.114752	0.506081	0.504594
H353	H	0.334677	-0.217144	-0.218570
H354	H	0.584677	0.032856	0.031430
H355	H	0.834677	0.282856	0.281430
H356	H	1.084677	0.532856	0.531430
H357	H	0.393611	-0.213345	-0.270083
H358	H	0.643611	0.036655	-0.020083
H359	H	0.893611	0.286655	0.229917
H360	H	1.143611	0.536655	0.479917
H361	H	0.391197	-0.270754	-0.216967
H362	H	0.641197	-0.020754	0.033033
H363	H	0.891197	0.229246	0.283033
H364	H	1.141197	0.479246	0.533033
H365	H	1.020604	-0.825547	-0.283763
H366	H	1.270604	-0.575547	-0.033763
H367	H	1.520604	-0.325547	0.216237
H368	H	1.770604	-0.075547	0.466237
H369	H	1.053931	-1.070270	-0.250600
H370	H	1.303931	-0.820270	-0.000600
H371	H	1.553931	-0.570270	0.249400
H372	H	1.803931	-0.320270	0.499400
C373	C	1.038251	-0.749248	-0.266083
C374	C	1.288251	-0.499248	-0.016083
C375	C	1.538251	-0.249248	0.233917
C376	C	1.788251	0.000752	0.483917
H377	H	1.065359	-0.716895	-0.238986
H378	H	1.315359	-0.466895	0.011014
H379	H	1.565359	-0.216895	0.261014
H380	H	1.815359	0.033105	0.511014
H381	H	1.066565	-0.777818	-0.293177
H382	H	1.316565	-0.527818	-0.043177
H383	H	1.566565	-0.277818	0.206823
H384	H	1.816565	-0.027818	0.456823
H385	H	1.011202	-0.777904	-0.237749
H386	H	1.261202	-0.527904	0.012251
H387	H	1.511202	-0.277904	0.262251
H388	H	1.761202	-0.027904	0.512251
H389	H	0.581649	-0.256751	-0.258275
H390	H	0.831649	-0.006751	-0.008275
H391	H	1.081649	0.243249	0.241725
H392	H	1.331649	0.493249	0.491725
H393	H	0.709894	-0.256739	-0.258261
H394	H	0.959894	-0.006739	-0.008261
H395	H	1.209894	0.243261	0.241739
H396	H	1.459894	0.493261	0.491739
H397	H	1.046199	-0.256772	-0.723275
H398	H	1.296199	-0.006772	-0.473275
H399	H	1.546199	0.243228	-0.223275
H400	H	1.796199	0.493228	0.026725
C401	C	1.059127	-0.243887	-0.940176
C402	C	1.309127	0.006113	-0.690176
C403	C	1.559127	0.256113	-0.440176
C404	C	1.809127	0.506113	-0.190176
H405	H	1.086022	-0.217126	-0.970262
H406	H	1.336022	0.032874	-0.720262
H407	H	1.586022	0.282874	-0.470262
H408	H	1.836022	0.532874	-0.220262
H409	H	1.087496	-0.270760	-0.913702
H410	H	1.337496	-0.020760	-0.663702
H411	H	1.587496	0.229240	-0.413702
H412	H	1.837496	0.479240	-0.163702
H413	H	1.034499	-0.213288	-0.911350
H414	H	1.284499	0.036712	-0.661350
H415	H	1.534499	0.286712	-0.411350
H416	H	1.784499	0.536712	-0.161350
C417	C	1.044536	-0.595220	-0.259728
C418	C	1.294536	-0.345220	-0.009728
C419	C	1.544536	-0.095220	0.240272
C420	C	1.794536	0.154780	0.490272
H421	H	1.069015	-0.627566	-0.235313
H422	H	1.319015	-0.377566	0.014687
H423	H	1.569015	-0.127566	0.264687
H424	H	1.819015	0.122434	0.514687
H425	H	1.019830	-0.566648	-0.229033
H426	H	1.269830	-0.316648	0.020967
H427	H	1.519830	-0.066648	0.270967
H428	H	1.769830	0.183352	0.520967
H429	H	1.075183	-0.566565	-0.284471
H430	H	1.325183	-0.316565	-0.034471
H431	H	1.575183	-0.066565	0.215529
H432	H	1.825183	0.183435	0.465529
H433	H	1.059358	-0.937192	-0.245110
H434	H	1.309358	-0.687192	0.004890
H435	H	1.559358	-0.437192	0.254890
H436	H	1.809358	-0.187192	0.504890
H437	H	1.046250	-0.256689	-1.079043
H438	H	1.296250	-0.006689	-0.829043
H439	H	1.546250	0.243311	-0.579043
H440	H	1.796250	0.493311	-0.329043
C441	C	0.883978	-1.080777	-0.420320
C442	C	1.133978	-0.830777	-0.170320
C443	C	1.383978	-0.580777	0.079680
C444	C	1.633978	-0.330777	0.329680
H445	H	0.859508	-1.048436	-0.444751
H446	H	1.109508	-0.798436	-0.194751
H447	H	1.359508	-0.548436	0.055249
H448	H	1.609508	-0.298436	0.305249
H449	H	0.853331	-1.109435	-0.395587
H450	H	1.103331	-0.859435	-0.145587
H451	H	1.353331	-0.609435	0.104413
H452	H	1.603331	-0.359435	0.354413
H453	H	0.908697	-1.109347	-0.451012
H454	H	1.158697	-0.859347	-0.201012
H455	H	1.408697	-0.609347	0.048988
H456	H	1.658697	-0.359347	0.298988
H457	H	0.902204	-0.937224	-0.402041
H458	H	1.152204	-0.687224	-0.152041
H459	H	1.402204	-0.437224	0.097959
H460	H	1.652204	-0.187224	0.347959
C461	C	0.895105	-0.860929	-0.409079
C462	C	1.145105	-0.610929	-0.159079
C463	C	1.395105	-0.360929	0.090921
C464	C	1.645105	-0.110929	0.340921
H465	H	0.870629	-0.828589	-0.433505
H466	H	1.120629	-0.578589	-0.183505
H467	H	1.370629	-0.328589	0.066495
H468	H	1.620629	-0.078589	0.316495
H469	H	0.864465	-0.889590	-0.384342
H470	H	1.114465	-0.639590	-0.134342
H471	H	1.364465	-0.389590	0.115658
H472	H	1.614465	-0.139590	0.365658
H473	H	0.919822	-0.889496	-0.439775
H474	H	1.169822	-0.639496	-0.189775
H475	H	1.419822	-0.389496	0.060225
H476	H	1.669822	-0.139496	0.310225
C477	C	0.856348	-0.749276	-0.447726
C478	C	1.106348	-0.499276	-0.197726
C479	C	1.356348	-0.249276	0.052274
C480	C	1.606348	0.000724	0.302274
H481	H	0.831878	-0.716931	-0.472153
H482	H	1.081878	-0.466931	-0.222153
H483	H	1.331878	-0.216931	0.027847
H484	H	1.581878	0.033069	0.277847
H485	H	0.825702	-0.777933	-0.422992
H486	H	1.075702	-0.527933	-0.172992
H487	H	1.325702	-0.277933	0.077008
H488	H	1.575702	-0.027933	0.327008
H489	H	0.881063	-0.777845	-0.478422
H490	H	1.131063	-0.527845	-0.228422
H491	H	1.381063	-0.277845	0.021578
H492	H	1.631063	-0.027845	0.271578
H493	H	0.882374	-0.419695	-0.957430
H494	H	1.132374	-0.169695	-0.707430
H495	H	1.382374	0.080305	-0.457430
H496	H	1.632374	0.330305	-0.207430
C497	C	0.869436	-0.432569	-0.740520
C498	C	1.119436	-0.182569	-0.490520
C499	C	1.369436	0.067431	-0.240520
C500	C	1.619436	0.317431	0.009480
H501	H	0.842533	-0.459320	-0.710433
H502	H	1.092533	-0.209320	-0.460433
H503	H	1.342533	0.040680	-0.210433
H504	H	1.592533	0.290680	0.039567
H505	H	0.894056	-0.463167	-0.769349
H506	H	1.144056	-0.213167	-0.519349
H507	H	1.394056	0.036833	-0.269349
H508	H	1.644056	0.286833	-0.019349
H509	H	0.841066	-0.405689	-0.766992
H510	H	1.091066	-0.155689	-0.516992
H511	H	1.341066	0.094311	-0.266992
H512	H	1.591066	0.344311	-0.016992
H513	H	0.874577	-0.605726	-0.429447
H514	H	1.124577	-0.355726	-0.179447
H515	H	1.374577	-0.105726	0.070553
H516	H	1.624577	0.144274	0.320553
H517	H	0.882310	-0.419762	-0.601663
H518	H	1.132310	-0.169762	-0.351663
H519	H	1.382310	0.080238	-0.101663
H520	H	1.632310	0.330238	0.148337
