data_functionalizedCrystal
_audit_creation_method	'MofGen! by Chris Wilmer'
_symmetry_space_group_name_H-M	'P1'
_symmetry_Int_Tables_number	1
_symmetry_cell_setting	triclinic
loop_
_symmetry_equiv_pos_as_xyz
  x,y,z
_cell_length_a	16.992694
_cell_length_b	16.109301
_cell_length_c	15.186229
_cell_angle_alpha	90.005167
_cell_angle_beta	89.997727
_cell_angle_gamma	87.064852
loop_
_atom_site_label
_atom_site_type_symbol
_atom_site_fract_x
_atom_site_fract_y
_atom_site_fract_z
O1	O	-1.040345	-0.176288	-0.073123
O2	O	-0.812060	-0.174354	-0.073149
O3	O	-0.932474	-0.054708	-0.073126
O4	O	-0.919931	-0.295934	-0.073146
O5	O	-0.932466	-0.054706	0.073331
O6	O	-0.812052	-0.174352	0.073308
O7	O	-1.040337	-0.176286	0.073334
Zn8	Zn	-0.926193	-0.175318	0.096574
Zn9	Zn	-0.926204	-0.175321	-0.096389
O10	O	-0.919923	-0.295931	0.073312
C11	C	-0.782844	-0.171865	0.000076
C12	C	-0.695802	-0.164441	0.000067
C13	C	-0.931962	-0.023699	0.000103
C14	C	-0.930439	0.068698	0.000104
C15	C	-1.069553	-0.178775	0.000107
C16	C	-1.156595	-0.186198	0.000111
C17	C	-0.645543	-0.236067	0.000062
C18	C	-0.563758	-0.229087	0.000074
C19	C	-0.532234	-0.150481	0.000086
C20	C	-0.582499	-0.078849	0.000094
C21	C	-0.664282	-0.085830	0.000087
C22	C	-0.288644	-0.121548	0.000112
C23	C	-0.206854	-0.114572	0.000116
C24	C	-0.188119	-0.264811	0.000098
C25	C	-0.269904	-0.271785	0.000086
C26	C	-0.320163	-0.200154	0.000099
N27	N	-0.448637	-0.143344	0.000096
N28	N	-0.403758	-0.207291	0.000095
C29	C	-0.920435	-0.326941	0.000081
C30	C	-0.921959	-0.419338	0.000074
N31	N	-0.926192	-0.175316	0.228267
C32	C	-0.998348	0.286439	0.000097
C33	C	-0.996911	0.373256	0.000090
C34	C	-0.854044	0.362915	0.000077
C35	C	-0.855482	0.276100	0.000078
C36	C	-0.927636	0.237865	0.000093
C37	C	-0.924761	0.411496	0.000084
C38	C	-0.923202	0.505626	0.000076
C39	C	-0.929196	0.143729	0.000099
N40	N	-0.926212	-0.175317	-0.228082
C41	C	-0.979529	-0.122357	0.454000
C42	C	-0.979532	-0.122355	0.546190
C43	C	-0.872869	-0.228279	0.546179
C44	C	-0.872863	-0.228275	0.453991
C45	C	-0.926198	-0.175316	0.407904
C46	C	-0.926206	-0.175317	0.592281
C47	C	-0.926208	-0.175316	0.692237
C48	C	-0.926195	-0.175316	0.307941
H49	H	-0.671204	-0.300077	0.000052
H50	H	-1.022956	-0.079233	0.416478
H51	H	-0.181191	-0.050558	0.000124
H52	H	-0.705203	-0.027504	0.000091
H53	H	-1.022958	-0.079231	0.583719
C54	C	-0.778620	0.223499	0.000119
C55	C	-0.715122	0.275563	0.000136
C56	C	-0.644309	0.227136	0.000181
H57	H	-0.776103	0.189402	-0.050941
H58	H	-0.776168	0.189436	0.051211
H59	H	-0.717572	0.309611	-0.050951
H60	H	-0.717613	0.309659	0.051192
H61	H	-0.641858	0.193074	0.051274
H62	H	-0.641801	0.193042	-0.050879
H63	H	-0.601218	0.262454	0.000201
C64	C	-0.815047	-0.285919	0.403984
C65	C	-0.827755	-0.368473	0.426377
C66	C	-0.774518	-0.421593	0.380321
H67	H	-0.762689	-0.273494	0.419058
H68	H	-0.822685	-0.278387	0.342472
H69	H	-0.820111	-0.376002	0.487876
H70	H	-0.880102	-0.380924	0.411302
H71	H	-0.782155	-0.414061	0.318808
H72	H	-0.722163	-0.409160	0.395398
H73	H	-0.783137	-0.477612	0.395502
H74	H	-0.522840	-0.287413	0.000069
H75	H	-0.295565	-0.335795	0.000067
C76	C	-0.343161	-0.043747	-0.000063
C77	C	-0.328924	0.003256	-0.075419
C78	C	-0.379140	0.074931	-0.075617
H79	H	-0.333652	-0.011643	0.050953
H80	H	-0.396397	-0.059119	-0.000113
H81	H	-0.275700	0.018630	-0.075362
H82	H	-0.338438	-0.028822	-0.126447
H83	H	-0.432376	0.059559	-0.075666
H84	H	-0.369627	0.107027	-0.024597
H85	H	-0.369492	0.106827	-0.126748
C86	C	-0.133460	-0.342508	-0.000044
C87	C	-0.085938	-0.342883	-0.075377
C88	C	-0.035570	-0.414442	-0.075528
H89	H	-0.163849	-0.390385	-0.000095
H90	H	-0.101126	-0.342910	0.051006
H91	H	-0.118269	-0.342489	-0.126413
H92	H	-0.055532	-0.295023	-0.075341
H93	H	-0.003236	-0.414844	-0.024478
H94	H	-0.065965	-0.462313	-0.075577
H95	H	-0.003316	-0.414702	-0.126636
C96	C	-0.548382	0.006549	-0.000033
C97	C	-0.573941	0.050177	-0.075368
C98	C	-0.542538	0.128854	-0.075512
H99	H	-0.492479	0.000567	-0.000078
H100	H	-0.565660	0.036315	0.051016
H101	H	-0.556658	0.020418	-0.126403
H102	H	-0.629839	0.056182	-0.075338
H103	H	-0.559816	0.158619	-0.024464
H104	H	-0.486636	0.122863	-0.075555
H105	H	-0.559881	0.158468	-0.126621
C106	C	-0.815059	-0.285751	0.596377
C107	C	-0.826492	-0.274437	0.686979
C108	C	-0.773260	-0.327377	0.733246
H109	H	-0.762697	-0.273268	0.581381
H110	H	-0.823566	-0.341826	0.581310
H111	H	-0.817979	-0.218375	0.702040
H112	H	-0.878843	-0.286926	0.702001
H113	H	-0.781768	-0.383453	0.718179
H114	H	-0.720902	-0.314890	0.718243
H115	H	-0.781015	-0.319714	0.794724
H116	H	-1.057101	0.255311	0.000107
H117	H	-1.054491	0.412802	0.000092
H118	H	-0.795298	0.394057	0.000067
