data_functionalizedCrystal
_audit_creation_method	'MofGen! by Chris Wilmer'
_symmetry_space_group_name_H-M	'P1'
_symmetry_Int_Tables_number	1
_symmetry_cell_setting	triclinic
loop_
_symmetry_equiv_pos_as_xyz
  x,y,z
_cell_length_a	16.109301
_cell_length_b	10.489741
_cell_length_c	15.186229
_cell_angle_alpha	89.996534
_cell_angle_beta	89.999362
_cell_angle_gamma	84.000327
loop_
_atom_site_label
_atom_site_type_symbol
_atom_site_fract_x
_atom_site_fract_y
_atom_site_fract_z
O1	O	1.104141	0.163947	-0.073172
O2	O	0.862205	0.184350	-0.073186
O3	O	0.988678	-0.011529	-0.073174
O4	O	0.977668	0.359826	-0.073185
O5	O	0.988670	-0.011532	0.073284
O6	O	0.862196	0.184347	0.073271
O7	O	1.104133	0.163944	0.073285
Zn8	Zn	0.983163	0.174145	0.096531
Zn9	Zn	0.983174	0.174149	-0.096433
O10	O	0.977659	0.359823	0.073272
C11	C	0.831221	0.183522	0.000041
C12	C	0.738910	0.181044	0.000035
C13	C	0.517319	0.291514	0.000042
C14	C	0.430584	0.289175	0.000048
C15	C	0.449026	0.056771	0.000051
C16	C	0.535759	0.059111	0.000052
C17	C	0.569903	0.176486	0.000043
C18	C	0.396435	0.171808	0.000048
C19	C	0.302393	0.169272	0.000054
C20	C	0.663950	0.179022	0.000038
C21	C	0.987842	-0.059050	0.000054
C22	C	0.985354	-0.200644	0.000053
C23	C	0.904883	-0.267616	0.000042
C24	C	0.942893	-0.360292	0.072255
C25	C	0.942920	-0.360264	-0.072141
C26	C	1.023397	-0.291454	0.072325
C27	C	1.023413	-0.291417	-0.072135
C28	C	1.061482	-0.384066	0.000096
C29	C	1.135117	0.164772	0.000056
C30	C	1.227427	0.167250	0.000056
C31	C	0.978495	0.407344	0.000042
C32	C	0.980983	0.548938	0.000038
N33	N	0.983162	0.174142	0.228224
N34	N	0.983183	0.174142	-0.228125
C35	C	1.039183	0.087436	0.453952
C36	C	1.039186	0.087433	0.546142
C37	C	0.927155	0.260852	0.546140
C38	C	0.927149	0.260848	0.453952
C39	C	0.983168	0.174141	0.407860
C40	C	0.983176	0.174142	0.592238
C41	C	0.983179	0.174140	0.692194
C42	C	0.983165	0.174142	0.307898
H43	H	0.578575	-0.034565	0.000055
O44	O	0.550388	0.405606	-0.000076
C45	C	0.523599	0.475720	-0.075938
H46	H	0.463249	0.440979	-0.101226
H47	H	0.512193	0.581940	-0.058876
H48	H	0.573692	0.460938	-0.129052
H49	H	0.387773	0.382843	0.000049
H50	H	0.421215	-0.038791	0.000064
O51	O	0.825899	-0.207434	0.000159
C52	C	0.768200	-0.299656	0.000970
H53	H	0.799362	-0.393493	0.029062
H54	H	0.712321	-0.263852	0.043590
H55	H	0.746257	-0.316196	-0.069084
O56	O	0.902139	-0.396624	0.145018
C57	C	0.819606	-0.336722	0.144771
H58	H	0.800479	-0.309004	0.074499
H59	H	0.775817	-0.405716	0.172046
H60	H	0.815781	-0.247013	0.187569
O61	O	1.064057	-0.255137	0.145152
C62	C	1.134235	-0.194376	0.119390
H63	H	1.124471	-0.155259	0.049702
H64	H	1.142739	-0.112142	0.166506
H65	H	1.192240	-0.266591	0.121131
O66	O	1.093642	0.003354	0.409119
C67	C	1.145330	0.071629	0.355740
H68	H	1.147393	0.172211	0.383513
H69	H	1.211081	0.019554	0.354656
H70	H	1.119313	0.078330	0.285888
O71	O	0.872652	0.344907	0.409132
C72	C	0.820967	0.276573	0.355798
H73	H	0.818959	0.175985	0.383590
H74	H	0.755199	0.328588	0.354747
H75	H	0.846946	0.269888	0.285931
H76	H	1.127704	-0.434450	0.000140
H77	H	1.057437	-0.260865	-0.133185
H78	H	0.908865	-0.390732	-0.133197
H79	H	1.084798	0.016828	0.583667
O80	O	0.872826	0.345035	0.591051
C81	C	0.884829	0.326430	0.682303
H82	H	0.950642	0.278785	0.694891
H83	H	0.876162	0.423023	0.717332
H84	H	0.837392	0.262440	0.708475
