data_functionalizedCrystal
_audit_creation_method	'MofGen! by Chris Wilmer'
_symmetry_space_group_name_H-M	'P1'
_symmetry_Int_Tables_number	1
_symmetry_cell_setting	triclinic
loop_
_symmetry_equiv_pos_as_xyz
  x,y,z
_cell_length_a	12.759401
_cell_length_b	12.594516
_cell_length_c	12.594509
_cell_angle_alpha	89.973801
_cell_angle_beta	89.982176
_cell_angle_gamma	90.016214
loop_
_atom_site_label
_atom_site_type_symbol
_atom_site_fract_x
_atom_site_fract_y
_atom_site_fract_z
Zn1	Zn	1.606239	-0.423705	-0.601776
Zn2	Zn	1.606131	-0.601716	-0.423803
Zn3	Zn	1.430543	-0.423752	-0.423815
Zn4	Zn	1.430525	-0.601643	-0.601744
O5	O	1.518359	-0.512704	-0.512785
O6	O	1.753245	-0.447330	-0.578175
O7	O	1.582801	-0.578158	-0.274859
O8	O	1.453901	-0.274800	-0.447440
O9	O	1.753166	-0.578113	-0.447420
O10	O	1.582985	-0.274766	-0.578187
O11	O	1.453797	-0.447409	-0.274868
O12	O	1.283519	-0.447339	-0.447410
O13	O	1.453872	-0.577989	-0.750694
O14	O	1.283506	-0.578034	-0.578134
O15	O	1.582968	-0.447259	-0.750717
O16	O	1.582784	-0.750652	-0.447390
O17	O	1.453767	-0.750598	-0.578122
C18	C	1.245392	-0.512684	-0.512770
C19	C	1.128615	-0.512702	-0.512789
C20	C	1.518290	-0.789245	-0.512774
C21	C	1.518357	-0.907550	-0.512805
C22	C	1.073774	-0.580864	-0.580744
C23	C	0.964050	-0.580877	-0.580756
C24	C	0.964018	-0.444564	-0.444848
C25	C	1.073740	-0.444546	-0.444843
C26	C	1.073792	-0.659567	-0.659207
C27	C	0.964067	-0.659580	-0.659218
C28	C	1.448178	-0.976813	-0.583861
C29	C	1.422580	-1.047679	-0.486739
C30	C	1.544051	-1.047484	-0.609944
C31	C	1.492708	-0.976858	-0.415632
C32	C	1.614224	-0.976657	-0.538902
C33	C	1.588662	-1.047490	-0.441714
C34	C	1.792392	-0.512725	-0.512800
C35	C	1.909169	-0.512733	-0.512806
C36	C	1.518430	-0.512611	-0.790406
C37	C	1.518460	-0.512571	-0.908711
C38	C	1.518457	-0.235083	-0.512818
C39	C	1.518499	-0.116778	-0.512833
C40	C	1.448266	-0.583635	-0.977952
C41	C	1.544132	-0.609640	-1.048737
C42	C	1.422669	-0.486501	-1.048725
C43	C	1.614375	-0.538628	-0.977938
C44	C	1.492848	-0.415443	-0.977920
C45	C	1.588779	-0.441412	-1.048673
C46	C	1.518350	-0.512720	-0.236244
C47	C	1.518523	-0.512460	-0.117939
H48	H	1.118388	-0.389034	-0.389514
H49	H	1.648071	-1.078328	-0.381567
H50	H	1.695213	-0.945440	-0.560999
H51	H	1.470940	-0.945962	-0.333472
H52	H	1.341573	-1.078898	-0.464689
H53	H	1.565726	-1.078508	-0.692081
H54	H	1.648235	-0.381269	-1.079530
H55	H	0.919325	-0.389072	-0.389529
H56	H	0.930069	-0.630160	-0.737582
H57	H	1.103599	-0.637588	-0.741678
H58	H	1.565829	-0.691732	-1.079844
H59	H	0.934270	-0.741994	-0.637002
H60	H	1.388724	-0.945779	-0.643863
H61	H	1.471122	-0.333376	-0.946790
H62	H	1.107804	-0.737829	-0.629542
H63	H	1.341633	-0.464497	-1.079819
H64	H	1.388953	-0.643824	-0.946900
H65	H	1.695434	-0.560725	-0.946975
