data_functionalizedCrystal
_audit_creation_method	'MofGen! by Chris Wilmer'
_symmetry_space_group_name_H-M	'P1'
_symmetry_Int_Tables_number	1
_symmetry_cell_setting	triclinic
loop_
_symmetry_equiv_pos_as_xyz
  x,y,z
_cell_length_a	25.639243
_cell_length_b	25.639240
_cell_length_c	25.639234
_cell_angle_alpha	89.967912
_cell_angle_beta	89.976852
_cell_angle_gamma	90.035481
loop_
_atom_site_label
_atom_site_type_symbol
_atom_site_fract_x
_atom_site_fract_y
_atom_site_fract_z
Zn1	Zn	0.799284	-0.208145	-0.295630
Zn2	Zn	1.132617	0.125189	0.037704
Zn3	Zn	1.465950	0.458522	0.371037
Zn4	Zn	0.799205	-0.295573	-0.208183
Zn5	Zn	1.132539	0.037761	0.125150
Zn6	Zn	1.465872	0.371094	0.458484
Zn7	Zn	0.711849	-0.208157	-0.208203
Zn8	Zn	1.045182	0.125176	0.125130
Zn9	Zn	1.378516	0.458509	0.458463
Zn10	Zn	0.711814	-0.295555	-0.295582
Zn11	Zn	1.045147	0.037778	0.037751
Zn12	Zn	1.378481	0.371112	0.371084
O13	O	0.755538	-0.251857	-0.251900
O14	O	1.088871	0.081476	0.081434
O15	O	1.422205	0.414809	0.414767
O16	O	0.872438	-0.219744	-0.284041
O17	O	1.205772	0.113589	0.049292
O18	O	1.539105	0.446922	0.382626
O19	O	0.787599	-0.283990	-0.135020
O20	O	1.120932	0.049344	0.198313
O21	O	1.454266	0.382677	0.531646
O22	O	0.723495	-0.134990	-0.219829
O23	O	1.056828	0.198343	0.113505
O24	O	1.390162	0.531676	0.446838
O25	O	0.872381	-0.283977	-0.219794
O26	O	1.205714	0.049356	0.113539
O27	O	1.539048	0.382689	0.446872
O28	O	0.787733	-0.134981	-0.284061
O29	O	1.121066	0.198352	0.049273
O30	O	1.454399	0.531686	0.382606
O31	O	0.723419	-0.219766	-0.135035
O32	O	1.056752	0.113567	0.198298
O33	O	1.390085	0.446901	0.531631
O34	O	0.638679	-0.219749	-0.219783
O35	O	0.972013	0.113585	0.113550
O36	O	1.305346	0.446918	0.446884
O37	O	0.723435	-0.283947	-0.368754
O38	O	1.056769	0.049386	-0.035421
O39	O	1.390102	0.382720	0.297913
O40	O	0.638654	-0.283959	-0.283980
O41	O	0.971987	0.049374	0.049353
O42	O	1.305320	0.382707	0.382687
O43	O	0.787699	-0.219727	-0.368789
O44	O	1.121032	0.113606	-0.035455
O45	O	1.454366	0.446940	0.297878
O46	O	0.787565	-0.368736	-0.219749
O47	O	1.120899	-0.035402	0.113585
O48	O	1.454232	0.297931	0.446918
O49	O	0.723359	-0.368723	-0.283960
O50	O	1.056693	-0.035389	0.049373
O51	O	1.390026	0.297944	0.382706
C52	C	0.619695	-0.251854	-0.251879
C53	C	0.953029	0.081479	0.081454
C54	C	1.286362	0.414813	0.414788
C55	C	0.561581	-0.251865	-0.251882
C56	C	0.894915	0.081468	0.081451
C57	C	1.228248	0.414802	0.414784
C58	C	0.201243	-0.218464	-0.285409
C59	C	0.534576	0.114870	0.047925
C60	C	0.867909	0.448203	0.381258
C61	C	0.146638	-0.218463	-0.285412
C62	C	0.479972	0.114870	0.047922
C63	C	0.813305	0.448203	0.381255
O64	O	0.118423	-0.190055	-0.313891
O65	O	0.451756	0.143279	0.019442
O66	O	0.785089	0.476612	0.352776
N67	N	0.119299	-0.251856	-0.251914
N68	N	0.452632	0.081477	0.081419
N69	N	0.785966	0.414811	0.414753
C70	C	0.146567	-0.285247	-0.218407
C71	C	0.479900	0.048086	0.114926
C72	C	0.813233	0.381419	0.448260
O73	O	0.118298	-0.313650	-0.189914
O74	O	0.451632	0.019683	0.143419
O75	O	0.784965	0.353017	0.476752
C76	C	0.201170	-0.285245	-0.218401
C77	C	0.534503	0.048089	0.114932
C78	C	0.867837	0.381422	0.448265
C79	C	0.228507	-0.251854	-0.251905
C80	C	0.561840	0.081480	0.081428
C81	C	0.895173	0.414813	0.414761
C82	C	0.228580	-0.185075	-0.318909
C83	C	0.561913	0.148258	0.014424
C84	C	0.895246	0.481592	0.347757
C85	C	0.283180	-0.185076	-0.318907
C86	C	0.616513	0.148257	0.014427
C87	C	0.949847	0.481590	0.347760
C88	C	0.310444	-0.218466	-0.285403
C89	C	0.643777	0.114867	0.047930
C90	C	0.977111	0.448200	0.381263
C91	C	0.283107	-0.251855	-0.251903
C92	C	0.616440	0.081478	0.081431
C93	C	0.949774	0.414812	0.414764
C94	C	0.228437	-0.318633	-0.184892
C95	C	0.561770	0.014700	0.148441
C96	C	0.895103	0.348034	0.481775
C97	C	0.283044	-0.318627	-0.184889
C98	C	0.616377	0.014706	0.148444
C99	C	0.949710	0.348039	0.481777
C100	C	0.310380	-0.285236	-0.218393
C101	C	0.643714	0.048097	0.114940
C102	C	0.977047	0.381430	0.448274
C103	C	0.364971	-0.285246	-0.218396
C104	C	0.698305	0.048087	0.114937
C105	C	1.031638	0.381420	0.448270
N106	N	0.392311	-0.251854	-0.251894
N107	N	0.725644	0.081480	0.081439
N108	N	1.058978	0.414813	0.414772
C109	C	0.365047	-0.218464	-0.285398
C110	C	0.698381	0.114870	0.047936
C111	C	1.031714	0.448203	0.381269
C112	C	0.031896	-0.285250	-0.218420
C113	C	0.365229	0.048084	0.114913
C114	C	0.698563	0.381417	0.448246
C115	C	-0.022706	-0.285255	-0.218428
C116	C	0.310627	0.048078	0.114905
C117	C	0.643960	0.381411	0.448239
C118	C	-0.022631	-0.218470	-0.285432
C119	C	0.310703	0.114863	0.047901
C120	C	0.644036	0.448196	0.381234
C121	C	0.031973	-0.218468	-0.285427
C122	C	0.365306	0.114866	0.047906
C123	C	0.698639	0.448199	0.381240
C124	C	0.059235	-0.251857	-0.251918
C125	C	0.392569	0.081476	0.081415
C126	C	0.725902	0.414810	0.414748
C127	C	0.479712	-0.218469	-0.285390
C128	C	0.813046	0.114864	0.047943
C129	C	1.146379	0.448197	0.381277
C130	C	0.534318	-0.218475	-0.285386
C131	C	0.867651	0.114858	0.047948
C132	C	1.200984	0.448192	0.381281
C133	C	0.534237	-0.285258	-0.218380
C134	C	0.867571	0.048076	0.114954
C135	C	1.200904	0.381409	0.448287
C136	C	0.479637	-0.285254	-0.218386
C137	C	0.812970	0.048079	0.114948
C138	C	1.146303	0.381413	0.448281
C139	C	0.452375	-0.251856	-0.251892
C140	C	0.785709	0.081478	0.081441
C141	C	1.119042	0.414811	0.414774
O142	O	0.393222	-0.313639	-0.189930
O143	O	0.726555	0.019694	0.143403
O144	O	1.059889	0.353028	0.476736
O145	O	0.393322	-0.190061	-0.313881
O146	O	0.726656	0.143272	0.019453
O147	O	1.059989	0.476606	0.352786
C148	C	0.755464	-0.387700	-0.251859
C149	C	1.088797	-0.054367	0.081475
C150	C	1.422131	0.278967	0.414808
C151	C	0.755480	-0.445814	-0.251859
C152	C	1.088814	-0.112481	0.081475
C153	C	1.422147	0.220853	0.414808
C154	C	0.789003	-0.806134	-0.285405
C155	C	1.122337	-0.472800	0.047928
C156	C	1.455670	-0.139467	0.381261
C157	C	0.789019	-0.860738	-0.285416
C158	C	1.122352	-0.527405	0.047917
C159	C	1.455685	-0.194071	0.381251
O160	O	0.817433	-0.888938	-0.313897
O161	O	1.150767	-0.555605	0.019437
O162	O	1.484100	-0.222271	0.352770
N163	N	0.755611	-0.888096	-0.251950
N164	N	1.088944	-0.554763	0.081383
N165	N	1.422277	-0.221430	0.414717
C166	C	0.722181	-0.860848	-0.218475
C167	C	1.055514	-0.527514	0.114858
C168	C	1.388848	-0.194181	0.448192
O169	O	0.693766	-0.889132	-0.190011
O170	O	1.027099	-0.555799	0.143322
O171	O	1.360433	-0.222466	0.476656
C172	C	0.722163	-0.806244	-0.218468
C173	C	1.055497	-0.472911	0.114866
C174	C	1.388830	-0.139578	0.448199
C175	C	0.755578	-0.778889	-0.251932
C176	C	1.088911	-0.445556	0.081401
C177	C	1.422244	-0.112222	0.414735
C178	C	0.822414	-0.778778	-0.318868
C179	C	1.155748	-0.445445	0.014466
C180	C	1.489081	-0.112111	0.347799
C181	C	0.822399	-0.724178	-0.318856
C182	C	1.155733	-0.390844	0.014477
C183	C	1.489066	-0.057511	0.347811
C184	C	0.788974	-0.696933	-0.285383
C185	C	1.122307	-0.363599	0.047951
C186	C	1.455640	-0.030266	0.381284
C187	C	0.755563	-0.724288	-0.251920
C188	C	1.088896	-0.390955	0.081413
C189	C	1.422229	-0.057622	0.414746
C190	C	0.688732	-0.778997	-0.184996
C191	C	1.022065	-0.445663	0.148338
C192	C	1.355398	-0.112330	0.481671
C193	C	0.688717	-0.724390	-0.184991
C194	C	1.022050	-0.391056	0.148342
C195	C	1.355383	-0.057723	0.481676
C196	C	0.722131	-0.697034	-0.218455
C197	C	1.055464	-0.363701	0.114878
C198	C	1.388797	-0.030367	0.448211
C199	C	0.722122	-0.642443	-0.218435
C200	C	1.055455	-0.309110	0.114898
C201	C	1.388789	0.024224	0.448231
N202	N	0.755530	-0.615084	-0.251901
N203	N	1.088863	-0.281751	0.081432
N204	N	1.422197	0.051582	0.414765
C205	C	0.788956	-0.642329	-0.285375
C206	C	1.122289	-0.308996	0.047958
C207	C	1.455623	0.024337	0.381292
C208	C	0.722220	-0.975518	-0.218494
C209	C	1.055553	-0.642185	0.114839
C210	C	1.388887	-0.308852	0.448172
C211	C	0.722240	-1.030121	-0.218499
C212	C	1.055573	-0.696787	0.114835
C213	C	1.388907	-0.363454	0.448168
C214	C	0.789077	-1.030007	-0.285441
C215	C	1.122410	-0.696674	0.047893
C216	C	1.455744	-0.363341	0.381226
C217	C	0.789059	-0.975404	-0.285433
C218	C	1.122393	-0.642071	0.047900
C219	C	1.455726	-0.308737	0.381234
C220	C	0.755628	-0.948160	-0.251960
C221	C	1.088962	-0.614827	0.081373
C222	C	1.422295	-0.281493	0.414706
C223	C	0.788922	-0.527664	-0.285348
C224	C	1.122256	-0.194331	0.047985
C225	C	1.455589	0.139002	0.381319
C226	C	0.788906	-0.473059	-0.285332
C227	C	1.122240	-0.139726	0.048001
C228	C	1.455573	0.193608	0.381335
C229	C	0.722067	-0.473177	-0.218393
C230	C	1.055401	-0.139844	0.114941
C231	C	1.388734	0.193489	0.448274
C232	C	0.722085	-0.527778	-0.218406
C233	C	1.055419	-0.194444	0.114927
C234	C	1.388752	0.138889	0.448260
C235	C	0.755515	-0.555020	-0.251888
C236	C	1.088848	-0.221687	0.081445
C237	C	1.422181	0.111647	0.414778
O238	O	0.693720	-0.614208	-0.189971
O239	O	1.027054	-0.280875	0.143362
O240	O	1.360387	0.052458	0.476696
O241	O	0.817361	-0.614038	-0.313839
O242	O	1.150695	-0.280705	0.019494
O243	O	1.484028	0.052628	0.352828
C244	C	0.891911	-0.251861	-0.251921
C245	C	1.225244	0.081472	0.081413
C246	C	1.558578	0.414805	0.414746
C247	C	0.950025	-0.251863	-0.251930
C248	C	1.283358	0.081470	0.081404
C249	C	1.616692	0.414804	0.414737
C250	C	0.755572	-0.251834	-0.388273
C251	C	1.088905	0.081500	-0.054939
C252	C	1.422239	0.414833	0.278394
C253	C	0.755587	-0.251823	-0.446387
C254	C	1.088920	0.081510	-0.113053
C255	C	1.422253	0.414843	0.220280
C256	C	0.755626	-0.115484	-0.251952
C257	C	1.088960	0.217849	0.081381
C258	C	1.422293	0.551182	0.414715
C259	C	0.755664	-0.057370	-0.251975
C260	C	1.088997	0.275963	0.081359
C261	C	1.422331	0.609296	0.414692
C262	C	0.722183	-0.218320	-0.806763
C263	C	1.055516	0.115013	-0.473430
C264	C	1.388849	0.448347	-0.140096
C265	C	0.722185	-0.218310	-0.861367
C266	C	1.055519	0.115023	-0.528034
C267	C	1.388852	0.448356	-0.194701
O268	O	0.693758	-0.189882	-0.889615
O269	O	1.027091	0.143451	-0.556282
O270	O	1.360424	0.476785	-0.222949
N271	N	0.755604	-0.251741	-0.888669
N272	N	1.088937	0.081592	-0.555336
N273	N	1.422271	0.414925	-0.222003
C274	C	0.789018	-0.285188	-0.861364
C275	C	1.122351	0.048145	-0.528031
C276	C	1.455685	0.381479	-0.194697
O277	O	0.817443	-0.313623	-0.889601
O278	O	1.150776	0.019710	-0.556267
O279	O	1.484110	0.353044	-0.222934
C280	C	0.789012	-0.285200	-0.806761
C281	C	1.122345	0.048134	-0.473427
C282	C	1.455679	0.381467	-0.140094
C283	C	0.755595	-0.251763	-0.779462
C284	C	1.088929	0.081571	-0.446128
C285	C	1.422262	0.414904	-0.112795
C286	C	0.688768	-0.184886	-0.779464
C287	C	1.022101	0.148447	-0.446131
C288	C	1.355435	0.481781	-0.112797
C289	C	0.688766	-0.184895	-0.724863
C290	C	1.022099	0.148438	-0.391530
C291	C	1.355433	0.481772	-0.058197
C292	C	0.722179	-0.218338	-0.697562
C293	C	1.055512	0.114996	-0.364229
C294	C	1.388845	0.448329	-0.030895
C295	C	0.755593	-0.251772	-0.724861
C296	C	1.088927	0.081562	-0.391528
C297	C	1.422260	0.414895	-0.058194
C298	C	0.822423	-0.318648	-0.779457
C299	C	1.155757	0.014685	-0.446123
C300	C	1.489090	0.348018	-0.112790
C301	C	0.822414	-0.318657	-0.724849
C302	C	1.155748	0.014676	-0.391516
C303	C	1.489081	0.348009	-0.058183
C304	C	0.788997	-0.285220	-0.697550
C305	C	1.122331	0.048113	-0.364217
C306	C	1.455664	0.381446	-0.030884
C307	C	0.789004	-0.285223	-0.642959
C308	C	1.122337	0.048110	-0.309626
C309	C	1.455671	0.381443	0.023708
N310	N	0.755585	-0.251792	-0.615657
N311	N	1.088919	0.081541	-0.282324
N312	N	1.422252	0.414875	0.051009
C313	C	0.722173	-0.218349	-0.642959
C314	C	1.055506	0.114984	-0.309625
C315	C	1.388839	0.448317	0.023708
C316	C	0.789027	-0.285161	-0.976035
C317	C	1.122360	0.048172	-0.642701
C318	C	1.455694	0.381505	-0.309368
C319	C	0.789036	-0.285147	-1.030637
C320	C	1.122369	0.048186	-0.697304
C321	C	1.455703	0.381519	-0.363970
C322	C	0.722202	-0.218270	-1.030637
C323	C	1.055536	0.115063	-0.697303
C324	C	1.388869	0.448396	-0.363970
C325	C	0.722197	-0.218282	-0.976033
C326	C	1.055530	0.115051	-0.642700
C327	C	1.388863	0.448385	-0.309367
C328	C	0.755609	-0.251730	-0.948733
C329	C	1.088942	0.081603	-0.615400
C330	C	1.422275	0.414936	-0.282066
C331	C	0.722171	-0.218370	-0.528294
C332	C	1.055505	0.114963	-0.194960
C333	C	1.388838	0.448296	0.138373
C334	C	0.722174	-0.218381	-0.473688
C335	C	1.055507	0.114953	-0.140355
C336	C	1.388841	0.448286	0.192979
C337	C	0.789005	-0.285259	-0.473693
C338	C	1.122338	0.048074	-0.140360
C339	C	1.455672	0.381407	0.192973
C340	C	0.789005	-0.285247	-0.528294
C341	C	1.122338	0.048086	-0.194961
C342	C	1.455671	0.381419	0.138373
C343	C	0.755584	-0.251801	-0.555593
C344	C	1.088917	0.081532	-0.222259
C345	C	1.422250	0.414866	0.111074
O346	O	0.817415	-0.313639	-0.614676
O347	O	1.150749	0.019695	-0.281343
O348	O	1.484082	0.353028	0.051990
O349	O	0.693748	-0.189924	-0.614716
O350	O	1.027081	0.143409	-0.281382
O351	O	1.360414	0.476743	0.051951
C352	C	0.755534	-0.251843	-0.116057
C353	C	1.088868	0.081490	0.217276
C354	C	1.422201	0.414823	0.550610
C355	C	0.755621	-0.251706	-0.057943
C356	C	1.088954	0.081627	0.275390
C357	C	1.422288	0.414960	0.608723
H358	H	0.457378	-0.312450	-0.191110
H359	H	0.790711	0.020884	0.142223
H360	H	1.124045	0.354217	0.475557
O361	O	0.689651	-0.446731	-0.185806
O362	O	1.022984	-0.113398	0.147528
O363	O	1.356317	0.219936	0.480861
C364	C	0.701091	-0.460105	-0.133706
C365	C	1.034424	-0.126772	0.199628
C366	C	1.367758	0.206561	0.532961
H367	H	0.742865	-0.475079	-0.131099
H368	H	1.076199	-0.141746	0.202235
H369	H	1.409532	0.191587	0.535568
H370	H	0.696586	-0.424216	-0.107870
H371	H	1.029919	-0.090883	0.225464
H372	H	1.363253	0.242450	0.558797
H373	H	0.673074	-0.491834	-0.120020
H374	H	1.006407	-0.158501	0.213314
H375	H	1.339741	0.174832	0.546647
O376	O	0.309584	-0.351090	-0.152412
O377	O	0.642917	-0.017757	0.180921
O378	O	0.976250	0.315577	0.514255
C379	C	0.341150	-0.384912	-0.182110
C380	C	0.674484	-0.051578	0.151223
C381	C	1.007817	0.281755	0.484556
H382	H	0.349363	-0.366528	-0.221769
H383	H	0.682696	-0.033195	0.111565
H384	H	1.016029	0.300139	0.444898
H385	H	0.379532	-0.391891	-0.160797
H386	H	0.712866	-0.058558	0.172537
H387	H	1.046199	0.274776	0.505870
H388	H	0.320083	-0.423665	-0.187780
H389	H	0.653417	-0.090332	0.145553
H390	H	0.986750	0.243002	0.478886
H391	H	0.849606	-0.701908	-0.346107
H392	H	1.182940	-0.368574	-0.012774
H393	H	1.516273	-0.035241	0.320560
H394	H	0.305433	-0.157885	-0.346188
H395	H	0.638766	0.175448	-0.012855
H396	H	0.972099	0.508781	0.320479
H397	H	0.661522	-0.801260	-0.157745
H398	H	0.994856	-0.467927	0.175588
H399	H	1.328189	-0.134594	0.508922
H400	H	0.849633	-0.800955	-0.346129
H401	H	1.182967	-0.467622	-0.012795
H402	H	1.516300	-0.134288	0.320538
O403	O	0.689660	-0.185883	-0.447251
O404	O	1.022994	0.147450	-0.113918
O405	O	1.356327	0.480784	0.219415
C406	C	0.660179	-0.156357	-0.483062
C407	C	0.993512	0.176976	-0.149728
C408	C	1.326846	0.510309	0.183605
H409	H	0.658359	-0.177768	-0.521975
H410	H	0.991692	0.155565	-0.188642
H411	H	1.325026	0.488899	0.144692
H412	H	0.618986	-0.150782	-0.467275
H413	H	0.952320	0.182552	-0.133942
H414	H	1.285653	0.515885	0.199392
H415	H	0.679351	-0.116648	-0.488892
H416	H	1.012684	0.216686	-0.155559
H417	H	1.346017	0.550019	0.177774
O418	O	-0.049177	-0.186104	-0.318002
O419	O	0.284156	0.147229	0.015331
O420	O	0.617490	0.480563	0.348665
C421	C	-0.080755	-0.215919	-0.351723
C422	C	0.252578	0.117414	-0.018390
C423	C	0.585912	0.450747	0.314943
H424	H	-0.088963	-0.255518	-0.333208
H425	H	0.244370	0.077815	0.000125
H426	H	0.577703	0.411148	0.333458
H427	H	-0.119138	-0.194635	-0.358770
H428	H	0.214195	0.138698	-0.025436
H429	H	0.547529	0.472031	0.307897
H430	H	-0.059699	-0.221713	-0.390459
H431	H	0.273634	0.111620	-0.057126
H432	H	0.606967	0.444953	0.276208
O433	O	0.689781	-0.185854	-0.554864
O434	O	1.023114	0.147479	-0.221531
O435	O	1.356447	0.480812	0.111802
C436	C	0.719570	-0.152069	-0.586462
C437	C	1.052904	0.181264	-0.253129
C438	C	1.386237	0.514597	0.080205
H439	H	0.759180	-0.170510	-0.594656
H440	H	1.092513	0.162823	-0.261322
H441	H	1.425846	0.496156	0.072011
H442	H	0.698277	-0.145049	-0.624851
H443	H	1.031610	0.188284	-0.291518
H444	H	1.364943	0.521617	0.041815
H445	H	0.725344	-0.113330	-0.565431
H446	H	1.058677	0.220003	-0.232098
H447	H	1.392010	0.553337	0.101236
H448	H	0.556573	-0.191283	-0.312670
H449	H	0.889906	0.142050	0.020663
H450	H	1.223239	0.475383	0.353996
H451	H	0.816118	-0.450788	-0.312583
H452	H	1.149451	-0.117454	0.020751
H453	H	1.482784	0.215879	0.354084
H454	H	0.694986	-0.191054	-0.953810
H455	H	1.028319	0.142279	-0.620477
H456	H	1.361653	0.475612	-0.287143
H457	H	0.661552	-0.157669	-0.702641
H458	H	0.994886	0.175664	-0.369308
H459	H	1.328219	0.508998	-0.035975
H460	H	0.661491	-0.702210	-0.157734
H461	H	0.994825	-0.368877	0.175599
H462	H	1.328158	-0.035544	0.508933
H463	H	0.694881	-0.550052	-0.191153
H464	H	1.028214	-0.216719	0.142181
H465	H	1.361548	0.116615	0.475514
H466	H	0.816268	-0.953134	-0.312683
H467	H	1.149601	-0.619801	0.020651
H468	H	1.482934	-0.286467	0.353984
O469	O	0.656293	-0.152346	-0.805899
O470	O	0.989626	0.180987	-0.472565
O471	O	1.322959	0.514320	-0.139232
C472	C	0.626794	-0.122854	-0.770084
C473	C	0.960127	0.210479	-0.436751
C474	C	1.293461	0.543813	-0.103417
H475	H	0.648211	-0.121063	-0.731170
H476	H	0.981545	0.212271	-0.397837
H477	H	1.314878	0.545604	-0.064504
H478	H	0.621247	-0.081653	-0.785864
H479	H	0.954580	0.251681	-0.452531
H480	H	1.287914	0.585014	-0.119198
H481	H	0.587071	-0.141998	-0.764257
H482	H	0.920404	0.191335	-0.430924
H483	H	1.253737	0.524669	-0.097591
O484	O	0.689681	-0.185863	-1.057184
O485	O	1.023015	0.147470	-0.723851
O486	O	1.356348	0.480804	-0.390517
C487	C	0.655908	-0.215632	-1.088753
C488	C	0.989242	0.117701	-0.755419
C489	C	1.322575	0.451035	-0.422086
H490	H	0.652658	-0.256813	-1.072277
H491	H	0.985992	0.076521	-0.738943
H492	H	1.319325	0.409854	-0.405610
H493	H	0.615681	-0.196728	-1.089367
H494	H	0.949014	0.136606	-0.756034
H495	H	1.282347	0.469939	-0.422701
H496	H	0.672076	-0.217427	-1.130140
H497	H	1.005409	0.115906	-0.796807
H498	H	1.338742	0.449239	-0.463474
O499	O	0.821518	-0.317673	-1.057071
O500	O	1.154851	0.015660	-0.723738
O501	O	1.488185	0.348994	-0.390405
C502	C	0.851016	-0.347179	-1.021259
C503	C	1.184349	-0.013846	-0.687925
C504	C	1.517683	0.319487	-0.354592
H505	H	0.829594	-0.348992	-0.982329
H506	H	1.162928	-0.015659	-0.648995
H507	H	1.496261	0.317674	-0.315662
H508	H	0.856569	-0.388373	-1.037017
H509	H	1.189903	-0.055039	-0.703684
H510	H	1.523236	0.278294	-0.370350
H511	H	0.890736	-0.328034	-1.015471
H512	H	1.224070	0.005299	-0.682138
H513	H	1.557403	0.338633	-0.348805
O514	O	0.821595	-1.056397	-0.317978
O515	O	1.154928	-0.723064	0.015356
O516	O	1.488261	-0.389731	0.348689
C517	C	0.851072	-1.020548	-0.347526
C518	C	1.184406	-0.687215	-0.014193
C519	C	1.517739	-0.353882	0.319140
H520	H	0.852889	-0.981637	-0.326109
H521	H	1.186223	-0.648304	0.007224
H522	H	1.519556	-0.314971	0.340557
H523	H	0.892266	-1.036288	-0.353148
H524	H	1.225600	-0.702955	-0.019815
H525	H	1.558933	-0.369621	0.313519
H526	H	0.831900	-1.014731	-0.387215
H527	H	1.165233	-0.681397	-0.053882
H528	H	1.498567	-0.348064	0.279452
O529	O	0.821517	-0.317577	-0.949460
O530	O	1.154850	0.015756	-0.616126
O531	O	1.488184	0.349089	-0.282793
C532	C	0.855314	-0.287819	-0.917907
C533	C	1.188647	0.045515	-0.584574
C534	C	1.521980	0.378848	-0.251240
H535	H	0.836897	-0.248199	-0.909729
H536	H	1.170231	0.085135	-0.576395
H537	H	1.503564	0.418468	-0.243062
H538	H	0.862309	-0.309127	-0.879507
H539	H	1.195642	0.024206	-0.546174
H540	H	1.528976	0.357540	-0.212841
H541	H	0.894063	-0.282067	-0.938969
H542	H	1.227396	0.051267	-0.605636
H543	H	1.560729	0.384600	-0.272302
H544	H	0.849635	-0.345877	-0.801674
H545	H	1.182968	-0.012543	-0.468341
H546	H	1.516301	0.320790	-0.135007
O547	O	0.202181	-0.152622	-0.351508
O548	O	0.535515	0.180711	-0.018175
O549	O	0.868848	0.514045	0.315159
C550	C	0.238029	-0.123147	-0.381060
C551	C	0.571363	0.210186	-0.047727
C552	C	0.904696	0.543520	0.285606
H553	H	0.276939	-0.144568	-0.382815
H554	H	0.610272	0.188765	-0.049482
H555	H	0.943605	0.522099	0.283851
H556	H	0.222285	-0.117629	-0.422271
H557	H	0.555619	0.215704	-0.088937
H558	H	0.888952	0.549038	0.244396
H559	H	0.243851	-0.083410	-0.361993
H560	H	0.577184	0.249923	-0.028660
H561	H	0.910517	0.583257	0.304674
H562	H	0.816140	-0.549838	-0.312616
H563	H	1.149474	-0.216505	0.020717
H564	H	1.482807	0.116828	0.354051
H565	H	0.849626	-0.345892	-0.702624
H566	H	1.182960	-0.012559	-0.369291
H567	H	1.516293	0.320774	-0.035958
O568	O	0.689736	-1.056610	-0.185971
O569	O	1.023070	-0.723277	0.147363
O570	O	1.356403	-0.389943	0.480696
C571	C	0.660244	-1.020847	-0.156416
C572	C	0.993577	-0.687514	0.176917
C573	C	1.326910	-0.354180	0.510250
H574	H	0.658414	-0.981911	-0.177825
H575	H	0.991747	-0.648578	0.155508
H576	H	1.325081	-0.315244	0.488841
H577	H	0.619055	-1.036661	-0.150800
H578	H	0.952389	-0.703327	0.182533
H579	H	1.285722	-0.369994	0.515866
H580	H	0.679412	-1.015051	-0.116725
H581	H	1.012745	-0.681718	0.216608
H582	H	1.346079	-0.348385	0.549941
O583	O	0.821486	-0.317772	-0.554735
O584	O	1.154819	0.015561	-0.221401
O585	O	1.488152	0.348894	0.111932
C586	C	0.850988	-0.347279	-0.518926
C587	C	1.184321	-0.013946	-0.185592
C588	C	1.517654	0.319388	0.147741
H589	H	0.829571	-0.349092	-0.479993
H590	H	1.162904	-0.015759	-0.146660
H591	H	1.496237	0.317574	0.186674
H592	H	0.856539	-0.388472	-0.534685
H593	H	1.189872	-0.055139	-0.201351
H594	H	1.523206	0.278194	0.131982
H595	H	0.890709	-0.328134	-0.513143
H596	H	1.224042	0.005199	-0.179810
H597	H	1.557376	0.338533	0.153523
O598	O	0.560808	-0.317641	-0.185852
O599	O	0.894141	0.015693	0.147482
O600	O	1.227474	0.349026	0.480815
C601	C	0.614863	-0.310484	-0.193045
C602	C	0.948196	0.022849	0.140289
C603	C	1.281529	0.356182	0.473622
H604	H	0.622347	-0.270160	-0.210252
H605	H	0.955680	0.063174	0.123082
H606	H	1.289013	0.396507	0.456415
H607	H	0.635597	-0.313969	-0.153874
H608	H	0.968931	0.019365	0.179459
H609	H	1.302264	0.352698	0.512792
H610	H	0.630354	-0.341537	-0.220823
H611	H	0.963687	-0.008203	0.112510
H612	H	1.297021	0.325130	0.445843
O613	O	0.453317	-0.186013	-0.317990
O614	O	0.786650	0.147321	0.015343
O615	O	1.119983	0.480654	0.348677
C616	C	0.489163	-0.156539	-0.347546
C617	C	0.822496	0.176794	-0.014212
C618	C	1.155829	0.510128	0.319121
H619	H	0.528072	-0.177961	-0.349304
H620	H	0.861405	0.155372	-0.015971
H621	H	1.194738	0.488706	0.317363
H622	H	0.473416	-0.151021	-0.388755
H623	H	0.806749	0.182312	-0.055421
H624	H	1.140082	0.515646	0.277912
H625	H	0.494987	-0.116802	-0.328479
H626	H	0.828320	0.216531	0.004854
H627	H	1.161654	0.549865	0.338188
H628	H	0.054227	-0.191277	-0.312708
H629	H	0.387560	0.142057	0.020626
H630	H	0.720893	0.475390	0.353959
O631	O	-0.049177	-0.317712	-0.185837
O632	O	0.284156	0.015621	0.147496
O633	O	0.617489	0.348954	0.480829
C634	C	-0.013398	-0.347191	-0.156279
C635	C	0.319936	-0.013857	0.177054
C636	C	0.653269	0.319476	0.510388
H637	H	0.025537	-0.325770	-0.154511
H638	H	0.358870	0.007563	0.178822
H639	H	0.692203	0.340897	0.512155
H640	H	-0.029192	-0.352713	-0.115073
H641	H	0.304141	-0.019380	0.218260
H642	H	0.637474	0.313953	0.551593
H643	H	-0.007605	-0.386925	-0.175349
H644	H	0.325728	-0.053592	0.157984
H645	H	0.659062	0.279741	0.491317
O646	O	0.689821	-0.948998	-0.185945
O647	O	1.023154	-0.615665	0.147388
O648	O	1.356487	-0.282332	0.480721
C649	C	0.719596	-0.917421	-0.152189
C650	C	1.052929	-0.584087	0.181144
C651	C	1.386263	-0.250754	0.514478
H652	H	0.759204	-0.909184	-0.170668
H653	H	1.092537	-0.575851	0.162666
H654	H	1.425871	-0.242517	0.495999
H655	H	0.698288	-0.879051	-0.145150
H656	H	1.031621	-0.545718	0.188183
H657	H	1.364954	-0.212385	0.521517
H658	H	0.725373	-0.938491	-0.113455
H659	H	1.058707	-0.605157	0.219879
H660	H	1.392040	-0.271824	0.553212
O661	O	0.821383	-0.317801	-0.447142
O662	O	1.154717	0.015532	-0.113809
O663	O	1.488050	0.348866	0.219525
C664	C	0.791582	-0.351559	-0.415526
C665	C	1.124916	-0.018226	-0.082193
C666	C	1.458249	0.315108	0.251140
H667	H	0.750405	-0.354780	-0.431973
H668	H	1.083738	-0.021447	-0.098640
H669	H	1.417071	0.311887	0.234693
H670	H	0.810460	-0.391799	-0.414890
H671	H	1.143794	-0.058466	-0.081557
H672	H	1.477127	0.274868	0.251776
H673	H	0.789784	-0.335396	-0.374151
H674	H	1.123118	-0.002063	-0.040818
H675	H	1.456451	0.331271	0.292516
O676	O	0.058435	-0.317718	-0.185946
O677	O	0.391768	0.015615	0.147387
O678	O	0.725101	0.348948	0.480720
C679	C	0.090003	-0.351538	-0.215646
C680	C	0.423336	-0.018204	0.117688
C681	C	0.756669	0.315129	0.451021
H682	H	0.098219	-0.333150	-0.255301
H683	H	0.431552	0.000184	0.078032
H684	H	0.764886	0.333517	0.411365
H685	H	0.128382	-0.358521	-0.194329
H686	H	0.461716	-0.025188	0.139004
H687	H	0.795049	0.308146	0.472337
H688	H	0.068934	-0.390289	-0.221322
H689	H	0.402268	-0.056956	0.112011
H690	H	0.735601	0.276377	0.445344
H691	H	0.206188	-0.345823	-0.157609
H692	H	0.539522	-0.012490	0.175724
H693	H	0.872855	0.320843	0.509058
