data_functionalizedCrystal
_audit_creation_method	'MofGen! by Chris Wilmer'
_symmetry_space_group_name_H-M	'P1'
_symmetry_Int_Tables_number	1
_symmetry_cell_setting	triclinic
loop_
_symmetry_equiv_pos_as_xyz
  x,y,z
_cell_length_a	14.908571
_cell_length_b	19.121063
_cell_length_c	14.908308
_cell_angle_alpha	95.554627
_cell_angle_beta	90.175053
_cell_angle_gamma	89.303906
loop_
_atom_site_label
_atom_site_type_symbol
_atom_site_fract_x
_atom_site_fract_y
_atom_site_fract_z
Zn1	Zn	1.324072	-0.366417	-0.606393
Zn2	Zn	1.326220	-0.477475	-0.461735
Zn3	Zn	1.183168	-0.352931	-0.446699
Zn4	Zn	1.167296	-0.476641	-0.603344
O5	O	1.250189	-0.418366	-0.529543
O6	O	1.449836	-0.387142	-0.594773
O7	O	1.314785	-0.455659	-0.333644
O8	O	1.207604	-0.256469	-0.462866
O9	O	1.451414	-0.468736	-0.488493
O10	O	1.311125	-0.266377	-0.580193
O11	O	1.209686	-0.364157	-0.322597
O12	O	1.055584	-0.363348	-0.459909
O13	O	1.180551	-0.467315	-0.729845
O14	O	1.043922	-0.454238	-0.574995
O15	O	1.295734	-0.386334	-0.732085
O16	O	1.299394	-0.575616	-0.485536
O17	O	1.182633	-0.575003	-0.589576
C18	C	1.017218	-0.407239	-0.515490
C19	C	0.917550	-0.402497	-0.509501
C20	C	0.718169	-0.488362	-0.617938
C21	C	0.624521	-0.483909	-0.612314
C22	C	0.636605	-0.389134	-0.492633
C23	C	0.730253	-0.393588	-0.498257
C24	C	0.771031	-0.443204	-0.560911
C25	C	0.864680	-0.447660	-0.566530
C26	C	0.876762	-0.352883	-0.446854
C27	C	0.783115	-0.348429	-0.441230
C28	C	1.239548	-0.600787	-0.538878
C29	C	1.235075	-0.678833	-0.542906
C30	C	1.293807	-0.715799	-0.490682
C31	C	1.289606	-0.789131	-0.494476
C32	C	1.226668	-0.825496	-0.550491
C33	C	1.167934	-0.788525	-0.602722
C34	C	1.172140	-0.715194	-0.598932
C35	C	1.210929	-1.046893	-0.564648
C36	C	1.206726	-1.120229	-0.568432
C37	C	1.328400	-1.120830	-0.460187
C38	C	1.332596	-1.047498	-0.456398
C39	C	1.273865	-1.010533	-0.508632
C40	C	1.222371	-0.900454	-0.554369
C41	C	1.278168	-0.935578	-0.504758
C42	C	1.484070	-0.429537	-0.543650
C43	C	1.583736	-0.434297	-0.549662
C44	C	1.236132	-0.428235	-0.764574
C45	C	1.230142	-0.432441	-0.864731
C46	C	1.260895	-0.235235	-0.520192
C47	C	1.265458	-0.157195	-0.516207
C48	C	1.338824	-0.356002	-1.055270
C49	C	1.333199	-0.359951	-1.149376
C50	C	1.213262	-0.444285	-1.147051
C51	C	1.218888	-0.440335	-1.052945
C52	C	1.281672	-0.396193	-1.007057
C53	C	1.287301	-0.392248	-0.912950
C54	C	1.167360	-0.476578	-0.910626
C55	C	1.161735	-0.480527	-1.004732
C56	C	1.264246	-0.408487	-0.295425
C57	C	1.270421	-0.404092	-0.195270
H58	H	0.581483	-0.520680	-0.658753
H59	H	1.383845	-1.017891	-0.410786
H60	H	0.919813	-0.316113	-0.400417
C61	C	1.347396	-0.895582	-0.443144
H62	H	1.381779	-0.928098	-0.412583
H63	H	1.317111	-0.863724	-0.400317
H64	H	1.386021	-0.870252	-0.478527
C65	C	0.591742	-0.334556	-0.423727
H66	H	0.636636	-0.308293	-0.390571
H67	H	0.555985	-0.357976	-0.383591
H68	H	0.554937	-0.303717	-0.454516
C69	C	1.393004	-1.161493	-0.402743
H70	H	1.381492	-1.210375	-0.413026
H71	H	1.384243	-1.146337	-0.340780
H72	H	1.453143	-1.152860	-0.418999
C73	C	1.137491	-1.160233	-0.630048
H74	H	1.143392	-1.209199	-0.624813
H75	H	1.147632	-1.151359	-0.690771
H76	H	1.078731	-1.144826	-0.612553
H77	H	1.163106	-1.016803	-0.607177
C78	C	1.356356	-0.343695	-0.862471
H79	H	1.351529	-0.347102	-0.799519
H80	H	1.345064	-0.296542	-0.874691
H81	H	1.415085	-0.357496	-0.882053
H82	H	1.389949	-0.320063	-1.017908
H83	H	1.120825	-0.509307	-0.871362
H84	H	0.751371	-0.528765	-0.668948
H85	H	1.379736	-0.327221	-1.188626
C86	C	1.144204	-0.492834	-1.197532
H87	H	1.110964	-0.516204	-1.155342
H88	H	1.174522	-0.526600	-1.237880
H89	H	1.104506	-0.465643	-1.230509
H90	H	1.110617	-0.516465	-1.042106
H91	H	1.116692	-0.818140	-0.648335
C92	C	0.909536	-0.502232	-0.635448
H93	H	0.864637	-0.528483	-0.668612
H94	H	0.946349	-0.533074	-0.604680
H95	H	0.945283	-0.478801	-0.675588
H96	H	1.124315	-0.685097	-0.641460
C97	C	1.153139	-0.940454	-0.615981
H98	H	1.118761	-0.907939	-0.646548
H99	H	1.114523	-0.965790	-0.580605
H100	H	1.183430	-0.972307	-0.658818
H101	H	0.749900	-0.308032	-0.390222
H102	H	1.345054	-0.686195	-0.445064
H103	H	1.337431	-0.819226	-0.451949
