data_functionalizedCrystal
_audit_creation_method	'MofGen! by Chris Wilmer'
_symmetry_space_group_name_H-M	'P1'
_symmetry_Int_Tables_number	1
_symmetry_cell_setting	triclinic
loop_
_symmetry_equiv_pos_as_xyz
  x,y,z
_cell_length_a	18.101398
_cell_length_b	19.121063
_cell_length_c	18.101390
_cell_angle_alpha	92.404924
_cell_angle_beta	89.975319
_cell_angle_gamma	92.464489
loop_
_atom_site_label
_atom_site_type_symbol
_atom_site_fract_x
_atom_site_fract_y
_atom_site_fract_z
Zn1	Zn	1.119561	-0.279674	-0.431399
Zn2	Zn	1.452895	0.053659	-0.098066
Zn3	Zn	1.786228	0.386993	0.235267
Zn4	Zn	1.114180	-0.397138	-0.312833
Zn5	Zn	1.447514	-0.063805	0.020500
Zn6	Zn	1.780847	0.269529	0.353833
Zn7	Zn	0.995718	-0.279696	-0.307561
Zn8	Zn	1.329052	0.053637	0.025772
Zn9	Zn	1.662385	0.386970	0.359105
Zn10	Zn	0.990397	-0.397078	-0.436619
Zn11	Zn	1.323731	-0.063745	-0.103286
Zn12	Zn	1.657064	0.269588	0.230047
O13	O	1.054964	-0.338397	-0.372103
O14	O	1.388298	-0.005063	-0.038770
O15	O	1.721631	0.328270	0.294563
O16	O	1.222480	-0.295271	-0.415693
O17	O	1.555813	0.038062	-0.082360
O18	O	1.889146	0.371395	0.250974
O19	O	1.098441	-0.381594	-0.208503
O20	O	1.431774	-0.048260	0.124831
O21	O	1.765107	0.285073	0.458164
O22	O	1.016625	-0.181409	-0.319598
O23	O	1.349959	0.151924	0.013735
O24	O	1.683292	0.485257	0.347069
O25	O	1.218526	-0.381572	-0.328583
O26	O	1.551859	-0.048239	0.004750
O27	O	1.885193	0.285095	0.338084
O28	O	1.107612	-0.181393	-0.410581
O29	O	1.440946	0.151940	-0.077248
O30	O	1.774279	0.485274	0.256085
O31	O	1.011407	-0.295310	-0.204629
O32	O	1.344741	0.038024	0.128704
O33	O	1.678074	0.371357	0.462037
O34	O	0.891380	-0.295252	-0.324660
O35	O	1.224714	0.038082	0.008674
O36	O	1.558047	0.371415	0.342007
O37	O	1.007556	-0.381470	-0.539558
O38	O	1.340890	-0.048137	-0.206225
O39	O	1.674223	0.285197	0.127108
O40	O	0.887471	-0.381492	-0.419478
O41	O	1.220804	-0.048158	-0.086144
O42	O	1.554138	0.285175	0.247189
O43	O	1.102453	-0.295213	-0.535723
O44	O	1.435786	0.038120	-0.202390
O45	O	1.769119	0.371453	0.130943
O46	O	1.093281	-0.495414	-0.333645
O47	O	1.426615	-0.162081	-0.000311
O48	O	1.759948	0.171253	0.333022
O49	O	1.002339	-0.495370	-0.424590
O50	O	1.335672	-0.162037	-0.091256
O51	O	1.669005	0.171296	0.242077
C52	C	0.862555	-0.338368	-0.372063
C53	C	1.195888	-0.005035	-0.038730
C54	C	1.529222	0.328298	0.294603
C55	C	0.780241	-0.338373	-0.372065
C56	C	1.113574	-0.005040	-0.038731
C57	C	1.446907	0.328294	0.294602
C58	C	0.481148	-0.338417	-0.372129
C59	C	0.814481	-0.005083	-0.038796
C60	C	1.147814	0.328250	0.294538
C61	C	0.514920	-0.283886	-0.312739
C62	C	0.848254	0.049448	0.020594
C63	C	1.181587	0.382781	0.353928
C64	C	0.600532	-0.284032	-0.312502
C65	C	0.933865	0.049301	0.020831
C66	C	1.267198	0.382635	0.354164
C67	C	0.629531	-0.338394	-0.372097
C68	C	0.962865	-0.005061	-0.038764
C69	C	1.296198	0.328272	0.294570
C70	C	0.595090	-0.412381	-0.354095
C71	C	0.928423	-0.079048	-0.020762
C72	C	1.261756	0.254286	0.312571
C73	C	0.509458	-0.412078	-0.353686
C74	C	0.842792	-0.078745	-0.020352
C75	C	1.176125	0.254589	0.312981
C76	C	0.513608	-0.319604	-0.449683
C77	C	0.846941	0.013729	-0.116350
C78	C	1.180275	0.347062	0.216983
C79	C	0.599333	-0.317957	-0.449182
C80	C	0.932666	0.015377	-0.115848
C81	C	1.265999	0.348710	0.217485
C82	C	0.713391	-0.338386	-0.372080
C83	C	1.046725	-0.005053	-0.038747
C84	C	1.380058	0.328280	0.294586
C85	C	0.397288	-0.338430	-0.372144
C86	C	0.730621	-0.005096	-0.038810
C87	C	1.063954	0.328237	0.294523
C88	C	1.046669	-0.520876	-0.380272
C89	C	1.380002	-0.187543	-0.046938
C90	C	1.713335	0.145791	0.286395
C91	C	1.043188	-0.598942	-0.383791
C92	C	1.376521	-0.265608	-0.050458
C93	C	1.709854	0.067725	0.282876
C94	C	1.088938	-0.635616	-0.338133
C95	C	1.422271	-0.302283	-0.004800
C96	C	1.755605	0.031050	0.328533
C97	C	1.085668	-0.708967	-0.341448
C98	C	1.419002	-0.375634	-0.008114
C99	C	1.752335	-0.042301	0.325219
C100	C	1.036644	-0.745642	-0.390416
C101	C	1.369977	-0.412308	-0.057083
C102	C	1.703311	-0.078975	0.276251
C103	C	0.990892	-0.708962	-0.436079
C104	C	1.324225	-0.375628	-0.102745
C105	C	1.657558	-0.042295	0.230588
C106	C	0.994166	-0.635612	-0.432768
C107	C	1.327499	-0.302279	-0.099434
C108	C	1.660832	0.031054	0.233899
C109	C	1.024392	-0.967110	-0.402783
C110	C	1.357725	-0.633776	-0.069450
C111	C	1.691058	-0.300443	0.263883
C112	C	1.021120	-1.040464	-0.406089
C113	C	1.354453	-0.707131	-0.072756
C114	C	1.687786	-0.373798	0.260577
C115	C	1.115898	-1.040465	-0.311459
C116	C	1.449231	-0.707131	0.021875
C117	C	1.782564	-0.373798	0.355208
C118	C	1.119164	-0.967114	-0.308149
C119	C	1.452497	-0.633781	0.025184
C120	C	1.785831	-0.300447	0.358518
C121	C	1.073415	-0.930440	-0.353814
C122	C	1.406748	-0.597107	-0.020481
C123	C	1.740081	-0.263774	0.312852
C124	C	1.033299	-0.820618	-0.393803
C125	C	1.366632	-0.487285	-0.060470
C126	C	1.699966	-0.153951	0.272863
C127	C	1.076764	-0.855465	-0.350430
C128	C	1.410097	-0.522132	-0.017097
C129	C	1.743430	-0.188799	0.316236
C130	C	1.248125	-0.338426	-0.372144
C131	C	1.581458	-0.005092	-0.038811
C132	C	1.914792	0.328241	0.294523
C133	C	1.330438	-0.338438	-0.372161
C134	C	1.663772	-0.005105	-0.038828
C135	C	1.997105	0.328228	0.294506
C136	C	1.055011	-0.338333	-0.565262
C137	C	1.388345	-0.004999	-0.231929
C138	C	1.721678	0.328334	0.101404
C139	C	1.055031	-0.338305	-0.647575
C140	C	1.388365	-0.004972	-0.314242
C141	C	1.721698	0.328361	0.019091
C142	C	1.063313	-0.155205	-0.363919
C143	C	1.396646	0.178129	-0.030586
C144	C	1.729979	0.511462	0.302747
C145	C	1.066870	-0.077139	-0.360432
C146	C	1.400203	0.256194	-0.027098
C147	C	1.733537	0.589527	0.306235
C148	C	1.055073	-0.338261	-0.946665
C149	C	1.388407	-0.004928	-0.613331
C150	C	1.721740	0.328405	-0.279998
C151	C	1.114959	-0.284182	-0.912935
C152	C	1.448292	0.049151	-0.579602
C153	C	1.781626	0.382484	-0.246268
C154	C	1.114789	-0.283981	-0.827308
C155	C	1.448122	0.049352	-0.493974
C156	C	1.781456	0.382685	-0.160641
C157	C	1.055053	-0.338283	-0.798283
C158	C	1.388386	-0.004950	-0.464950
C159	C	1.721720	0.328384	-0.131616
C160	C	0.977940	-0.318168	-0.828446
C161	C	1.311273	0.015165	-0.495113
C162	C	1.644606	0.348498	-0.161779
C163	C	0.978302	-0.317763	-0.914073
C164	C	1.311635	0.015571	-0.580740
C165	C	1.644969	0.348904	-0.247406
C166	C	1.071607	-0.412595	-0.918417
C167	C	1.404940	-0.079261	-0.585084
C168	C	1.738274	0.254072	-0.251750
C169	C	1.073336	-0.412216	-0.832750
C170	C	1.406670	-0.078882	-0.499417
C171	C	1.740003	0.254451	-0.166083
C172	C	1.055037	-0.338297	-0.714424
C173	C	1.388370	-0.004963	-0.381091
C174	C	1.721703	0.328370	-0.047757
C175	C	1.055084	-0.338246	-1.030523
C176	C	1.388418	-0.004913	-0.697190
C177	C	1.721751	0.328420	-0.363857
C178	C	1.054963	-0.338410	-0.179693
C179	C	1.388296	-0.005077	0.153640
C180	C	1.721629	0.328257	0.486973
C181	C	1.055095	-0.338239	-0.097372
C182	C	1.388428	-0.004906	0.235961
C183	C	1.721762	0.328427	0.569295
H184	H	0.622122	-0.263511	-0.462816
H185	H	0.955456	0.069823	-0.129482
H186	H	1.288789	0.403156	0.203851
F187	F	0.486020	-0.299946	-0.237972
F188	F	0.819353	0.033387	0.095362
F189	F	1.152686	0.366720	0.428695
F190	F	1.164587	-1.079501	-0.262865
F191	F	1.497920	-0.746167	0.070468
F192	F	1.831254	-0.412834	0.403801
F193	F	0.981125	-0.859656	-0.445917
F194	F	1.314458	-0.526323	-0.112584
F195	F	1.647791	-0.192990	0.220749
F196	F	0.482362	-0.432928	-0.279709
F197	F	0.815695	-0.099595	0.053624
F198	F	1.149029	0.233738	0.386958
H199	H	0.932253	-0.356344	-0.809778
H200	H	1.265587	-0.023010	-0.476444
H201	H	1.598920	0.310323	-0.143111
H202	H	0.491568	-0.359323	-0.493894
H203	H	0.824901	-0.025989	-0.160560
H204	H	1.158234	0.307344	0.172773
F205	F	1.014540	-0.465262	-0.947235
F206	F	1.347874	-0.131928	-0.613902
F207	F	1.681207	0.201405	-0.280568
F208	F	1.171350	-0.928087	-0.256038
F209	F	1.504684	-0.594754	0.077295
F210	F	1.838017	-0.261421	0.410629
F211	F	0.958674	-0.247932	-0.797275
F212	F	1.292008	0.085401	-0.463942
F213	F	1.625341	0.418735	-0.130608
F214	F	1.020118	-0.467714	-0.807250
F215	F	1.353451	-0.134380	-0.473917
F216	F	1.686785	0.198953	-0.140584
F217	F	1.190094	-0.300440	-0.940603
F218	F	1.523427	0.032893	-0.607269
F219	F	1.856760	0.366226	-0.273936
F220	F	0.945474	-0.596581	-0.481365
F221	F	1.278807	-0.263247	-0.148032
F222	F	1.612140	0.070086	0.185302
H223	H	0.619084	-0.354780	-0.495534
H224	H	0.952418	-0.021446	-0.162201
H225	H	1.285751	0.311887	0.171133
H226	H	1.104108	-0.228914	-0.804361
H227	H	1.437442	0.104419	-0.471027
H228	H	1.770775	0.437753	-0.137694
F229	F	0.968931	-1.079495	-0.458203
F230	F	1.302265	-0.746161	-0.124870
F231	F	1.635598	-0.412828	0.208464
H232	H	0.486850	-0.454084	-0.395237
H233	H	0.820183	-0.120751	-0.061904
H234	H	1.153516	0.212583	0.271430
H235	H	1.128855	-0.605761	-0.298255
H236	H	1.462189	-0.272427	0.035079
H237	H	1.795522	0.060906	0.368412
H238	H	0.950978	-0.738828	-0.475953
H239	H	1.284312	-0.405495	-0.142620
H240	H	1.617645	-0.072161	0.190714
H241	H	1.116682	-0.825603	-0.310563
H242	H	1.450015	-0.492269	0.022770
H243	H	1.783349	-0.158936	0.356104
F244	F	1.189668	-0.300438	-0.800592
F245	F	1.523001	0.032895	-0.467259
F246	F	1.856334	0.366228	-0.133926
H247	H	1.122922	-0.738825	-0.304268
H248	H	1.456256	-0.405491	0.029066
H249	H	1.789589	-0.072158	0.362399
F250	F	1.101201	-0.212606	-0.937869
F251	F	1.434535	0.120728	-0.604536
F252	F	1.767868	0.454061	-0.271203
F253	F	0.975700	-0.928088	-0.451384
F254	F	1.309033	-0.594755	-0.118051
F255	F	1.642367	-0.261422	0.215282
F256	F	0.959444	-0.246748	-0.937014
F257	F	1.292778	0.086585	-0.603681
F258	F	1.626111	0.419918	-0.270347
F259	F	0.626539	-0.300285	-0.237299
F260	F	0.959872	0.033049	0.096034
F261	F	1.293206	0.366382	0.429367
F262	F	0.918225	-0.366998	-0.943348
F263	F	1.251559	-0.033664	-0.610015
F264	F	1.584892	0.299669	-0.276681
H265	H	0.494417	-0.266592	-0.466691
H266	H	0.827751	0.066741	-0.133357
H267	H	1.161084	0.400075	0.199976
H268	H	0.613581	-0.454100	-0.396144
H269	H	0.946914	-0.120766	-0.062811
H270	H	1.280247	0.212567	0.270523
H271	H	0.615775	-0.428611	-0.298129
H272	H	0.949109	-0.095277	0.035204
H273	H	1.282442	0.238056	0.368537
F274	F	1.143617	-0.436508	-0.947737
F275	F	1.476950	-0.103175	-0.614404
F276	F	1.810284	0.230159	-0.281071
H277	H	0.624037	-0.229168	-0.323405
H278	H	0.957370	0.104166	0.009928
H279	H	1.290703	0.437499	0.343262
F280	F	0.491265	-0.211953	-0.326785
F281	F	0.824599	0.121380	0.006548
F282	F	1.157932	0.454714	0.339882
F283	F	1.147492	-0.432041	-0.807107
F284	F	1.480825	-0.098707	-0.473773
F285	F	1.814158	0.234626	-0.140440
