data_functionalizedCrystal
_audit_creation_method	'MofGen! by Chris Wilmer'
_symmetry_space_group_name_H-M	'P1'
_symmetry_Int_Tables_number	1
_symmetry_cell_setting	triclinic
loop_
_symmetry_equiv_pos_as_xyz
  x,y,z
_cell_length_a	18.050591
_cell_length_b	18.050582
_cell_length_c	17.638516
_cell_angle_alpha	101.180263
_cell_angle_beta	101.240668
_cell_angle_gamma	89.979078
loop_
_atom_site_label
_atom_site_type_symbol
_atom_site_fract_x
_atom_site_fract_y
_atom_site_fract_z
Zn1	Zn	1.075471	-0.479776	-0.314825
Zn2	Zn	1.408805	-0.146443	0.018509
Zn3	Zn	1.742138	0.186891	0.351842
Zn4	Zn	1.050267	-0.380669	-0.447001
Zn5	Zn	1.383600	-0.047336	-0.113668
Zn6	Zn	1.716933	0.285998	0.219666
Zn7	Zn	0.951290	-0.355588	-0.314828
Zn8	Zn	1.284623	-0.022254	0.018506
Zn9	Zn	1.617957	0.311079	0.351839
Zn10	Zn	0.926131	-0.504797	-0.446959
Zn11	Zn	1.259465	-0.171463	-0.113626
Zn12	Zn	1.592798	0.161870	0.219707
O13	O	1.000790	-0.430207	-0.380903
O14	O	1.334123	-0.096874	-0.047570
O15	O	1.667457	0.236459	0.285763
O16	O	1.176050	-0.466655	-0.332374
O17	O	1.509383	-0.133321	0.000959
O18	O	1.842716	0.200012	0.334292
O19	O	1.037118	-0.273421	-0.429487
O20	O	1.370451	0.059912	-0.096154
O21	O	1.703785	0.393246	0.237180
O22	O	0.988840	-0.351093	-0.204213
O23	O	1.322174	-0.017760	0.129120
O24	O	1.655507	0.315573	0.462453
O25	O	1.157532	-0.393841	-0.429484
O26	O	1.490865	-0.060508	-0.096150
O27	O	1.824198	0.272825	0.237183
O28	O	1.080076	-0.442334	-0.204211
O29	O	1.413409	-0.109001	0.129122
O30	O	1.746743	0.224333	0.462456
O31	O	0.964400	-0.254994	-0.332380
O32	O	1.297734	0.078340	0.000954
O33	O	1.631067	0.411673	0.334287
O34	O	0.844031	-0.375355	-0.332339
O35	O	1.177365	-0.042022	0.000994
O36	O	1.510698	0.291312	0.334328
O37	O	0.945961	-0.605399	-0.429413
O38	O	1.279294	-0.272065	-0.096079
O39	O	1.612627	0.061268	0.237254
O40	O	0.825547	-0.484978	-0.429416
O41	O	1.158880	-0.151645	-0.096082
O42	O	1.492214	0.181688	0.237251
O43	O	1.055680	-0.587016	-0.332334
O44	O	1.389014	-0.253683	0.001000
O45	O	1.722347	0.079651	0.334333
O46	O	1.012723	-0.418103	-0.557609
O47	O	1.346056	-0.084770	-0.224276
O48	O	1.679389	0.248564	0.109057
O49	O	0.921521	-0.509299	-0.557579
O50	O	1.254854	-0.175966	-0.224245
O51	O	1.588187	0.157368	0.109088
C52	C	0.807843	-0.430161	-0.380874
C53	C	1.141177	-0.096827	-0.047540
C54	C	1.474510	0.236506	0.285793
C55	C	0.725296	-0.430162	-0.380880
C56	C	1.058630	-0.096829	-0.047547
C57	C	1.391963	0.236505	0.285786
C58	C	0.535887	-0.370651	-0.328029
C59	C	0.869221	-0.037318	0.005305
C60	C	1.202554	0.296015	0.338638
C61	C	0.472769	-0.366057	-0.400125
C62	C	0.806102	-0.032724	-0.066791
C63	C	1.139435	0.300610	0.266542
C64	C	0.574161	-0.430200	-0.380904
C65	C	0.907495	-0.096867	-0.047571
C66	C	1.240828	0.236467	0.285763
C67	C	0.490194	-0.434797	-0.308833
C68	C	0.823527	-0.101464	0.024500
C69	C	1.156861	0.231869	0.357833
C70	C	0.428173	-0.430234	-0.380921
C71	C	0.761506	-0.096901	-0.047588
C72	C	1.094840	0.236432	0.285746
C73	C	0.512123	-0.425578	-0.453038
C74	C	0.845456	-0.092244	-0.119705
C75	C	1.178789	0.241089	0.213629
C76	C	0.529561	-0.494340	-0.361698
C77	C	0.862895	-0.161007	-0.028365
C78	C	1.196228	0.172327	0.304969
C79	C	0.466455	-0.489781	-0.433844
C80	C	0.799789	-0.156448	-0.100510
C81	C	1.133122	0.176886	0.232823
C82	C	0.658262	-0.430178	-0.380893
C83	C	0.991595	-0.096845	-0.047560
C84	C	1.324928	0.236488	0.285773
C85	C	0.344073	-0.430258	-0.380940
C86	C	0.677406	-0.096924	-0.047607
C87	C	1.010740	0.236409	0.285727
C88	C	1.000826	-0.623906	-0.380868
C89	C	1.334159	-0.290573	-0.047535
C90	C	1.667492	0.042760	0.285799
C91	C	1.000841	-0.706449	-0.380853
C92	C	1.334174	-0.373116	-0.047520
C93	C	1.667508	-0.039783	0.285813
C94	C	0.941227	-0.915883	-0.433573
C95	C	1.274560	-0.582550	-0.100239
C96	C	1.607894	-0.249216	0.233094
C97	C	1.005310	-0.968949	-0.452900
C98	C	1.338643	-0.635616	-0.119566
C99	C	1.671977	-0.302282	0.213767
C100	C	1.000889	-0.857568	-0.380793
C101	C	1.334222	-0.524235	-0.047460
C102	C	1.667556	-0.190902	0.285874
C103	C	0.936847	-0.951580	-0.361444
C104	C	1.270181	-0.618247	-0.028111
C105	C	1.603514	-0.284913	0.305223
C106	C	1.000929	-1.003543	-0.380736
C107	C	1.334263	-0.670209	-0.047403
C108	C	1.667596	-0.336876	0.285931
C109	C	1.065000	-0.909554	-0.400158
C110	C	1.398333	-0.576221	-0.066824
C111	C	1.731667	-0.242888	0.266509
C112	C	0.996499	-0.892175	-0.308668
C113	C	1.329832	-0.558841	0.024665
C114	C	1.663165	-0.225508	0.357998
C115	C	1.060633	-0.945213	-0.327968
C116	C	1.393967	-0.611880	0.005365
C117	C	1.727300	-0.278546	0.338699
C118	C	1.000864	-0.773477	-0.380828
C119	C	1.334198	-0.440143	-0.047494
C120	C	1.667531	-0.106810	0.285839
C121	C	1.000961	-1.087633	-0.380701
C122	C	1.334295	-0.754299	-0.047368
C123	C	1.667628	-0.420966	0.285965
C124	C	1.194490	-0.430255	-0.380933
C125	C	1.527823	-0.096921	-0.047600
C126	C	1.861156	0.236412	0.285733
C127	C	1.277033	-0.430275	-0.380946
C128	C	1.610366	-0.096942	-0.047613
C129	C	1.943700	0.236392	0.285721
C130	C	0.961677	-0.469154	-0.586275
C131	C	1.295010	-0.135821	-0.252942
C132	C	1.628343	0.197513	0.080392
C133	C	0.945012	-0.485840	-0.674134
C134	C	1.278345	-0.152507	-0.340801
C135	C	1.611679	0.180826	-0.007467
C136	C	1.000808	-0.237251	-0.380881
C137	C	1.334141	0.096082	-0.047548
C138	C	1.667475	0.429416	0.285786
C139	C	1.000979	-0.154666	-0.380673
C140	C	1.334312	0.178667	-0.047340
C141	C	1.667645	0.512000	0.285993
C142	C	1.127837	-0.303499	-0.963033
C143	C	1.461171	0.029834	-0.629700
C144	C	1.794504	0.363168	-0.296367
C145	C	1.112165	-0.319191	-1.045590
C146	C	1.445499	0.014143	-0.712257
C147	C	1.778832	0.347476	-0.378924
C148	C	1.017117	-0.414078	-1.045603
C149	C	1.350450	-0.080745	-0.712270
C150	C	1.683783	0.252589	-0.378936
C151	C	1.032778	-0.398392	-0.963044
C152	C	1.366112	-0.065058	-0.629711
C153	C	1.699445	0.268275	-0.296378
C154	C	1.088140	-0.343102	-0.921766
C155	C	1.421473	-0.009769	-0.588433
C156	C	1.754807	0.323564	-0.255099
C157	C	0.993081	-0.437995	-0.921777
C158	C	1.326414	-0.104661	-0.588444
C159	C	1.659748	0.228672	-0.255110
C160	C	1.008744	-0.422312	-0.839226
C161	C	1.342078	-0.088979	-0.505892
C162	C	1.675411	0.244354	-0.172559
C163	C	1.064105	-0.367027	-0.797942
C164	C	1.397438	-0.033694	-0.464608
C165	C	1.730771	0.299640	-0.131275
C166	C	1.103803	-0.327420	-0.839215
C167	C	1.437136	0.005914	-0.505881
C168	C	1.770470	0.339247	-0.172548
C169	C	0.937723	-0.493288	-0.963057
C170	C	1.271057	-0.159954	-0.629724
C171	C	1.604390	0.173379	-0.296390
C172	C	0.898026	-0.532891	-0.921790
C173	C	1.231359	-0.199558	-0.588456
C174	C	1.564693	0.133776	-0.255123
C175	C	0.913685	-0.517205	-0.839237
C176	C	1.247019	-0.183872	-0.505903
C177	C	1.580352	0.149462	-0.172570
C178	C	0.969046	-0.461920	-0.797953
C179	C	1.302379	-0.128586	-0.464619
C180	C	1.635713	0.204747	-0.131286
C181	C	0.873987	-0.556812	-0.797964
C182	C	1.207320	-0.223479	-0.464630
C183	C	1.540654	0.109855	-0.131297
C184	C	0.889650	-0.541130	-0.715412
C185	C	1.222984	-0.207796	-0.382079
C186	C	1.556317	0.125537	-0.048746
C187	C	0.984709	-0.446237	-0.715401
C188	C	1.318043	-0.112904	-0.382068
C189	C	1.651376	0.220429	-0.048735
C190	C	1.040076	-0.391125	-0.174729
C191	C	1.373409	-0.057792	0.158604
C192	C	1.706743	0.275542	0.491937
C193	C	1.056817	-0.374470	-0.086870
C194	C	1.390151	-0.041137	0.246463
C195	C	1.723484	0.292196	0.579796
H196	H	0.436426	-0.540164	-0.478617
H197	H	0.769760	-0.206830	-0.145284
H198	H	1.103093	0.126503	0.188049
H199	H	0.992738	-0.858890	-0.247716
H200	H	1.326071	-0.525557	0.085617
H201	H	1.659404	-0.192224	0.418950
H202	H	1.111153	-0.958279	-0.283310
H203	H	1.444486	-0.624946	0.050024
H204	H	1.777820	-0.291612	0.383357
H205	H	0.882672	-0.970167	-0.345102
H206	H	1.216005	-0.636833	-0.011769
H207	H	1.549339	-0.303500	0.321564
H208	H	0.828917	-0.601834	-0.831585
H209	H	1.162250	-0.268501	-0.498251
H210	H	1.495584	0.064833	-0.164918
H211	H	0.554410	-0.548545	-0.345419
H212	H	0.887744	-0.215211	-0.012085
H213	H	1.221077	0.118122	0.321248
Cl214	Cl	0.839746	-0.590918	-0.663529
Cl215	Cl	1.173079	-0.257585	-0.330196
Cl216	Cl	1.506413	0.075748	0.003137
H217	H	0.480067	-0.438649	-0.247885
H218	H	0.813401	-0.105316	0.085448
H219	H	1.146734	0.228018	0.418782
Cl220	Cl	0.863374	-0.895505	-0.502570
Cl221	Cl	1.196708	-0.562171	-0.169237
Cl222	Cl	1.530041	-0.228838	0.164096
Cl223	Cl	1.054294	-0.376715	-0.663502
Cl224	Cl	1.387627	-0.043382	-0.330169
Cl225	Cl	1.720961	0.289952	0.003164
Cl226	Cl	1.083863	-0.347376	-0.694161
Cl227	Cl	1.417197	-0.014043	-0.360828
Cl228	Cl	1.750530	0.319290	-0.027495
Cl229	Cl	1.197422	-0.233977	-0.911134
Cl230	Cl	1.530755	0.099356	-0.577801
Cl231	Cl	1.864089	0.432690	-0.244468
Cl232	Cl	0.434435	-0.282339	-0.425225
Cl233	Cl	0.767768	0.050995	-0.091892
Cl234	Cl	1.101101	0.384328	0.241441
Cl235	Cl	0.582433	-0.292850	-0.259066
Cl236	Cl	0.915766	0.040484	0.074267
Cl237	Cl	1.249100	0.373817	0.407601
Cl238	Cl	0.947524	-0.483584	-1.097503
Cl239	Cl	1.280858	-0.150251	-0.764170
Cl240	Cl	1.614191	0.183082	-0.430836
H241	H	1.009047	-1.002220	-0.513869
H242	H	1.342381	-0.668887	-0.180536
H243	H	1.675714	-0.335553	0.152797
Cl244	Cl	1.148645	-0.881026	-0.425504
Cl245	Cl	1.481979	-0.547693	-0.092171
Cl246	Cl	1.815312	-0.214359	0.241162
H247	H	1.148879	-0.282392	-0.805605
H248	H	1.482212	0.050941	-0.472271
H249	H	1.815545	0.384275	-0.138938
Cl250	Cl	0.527545	-0.419495	-0.547178
Cl251	Cl	0.860879	-0.086162	-0.213844
Cl252	Cl	1.194212	0.247171	0.119489
H253	H	1.144498	-0.286939	-1.079187
H254	H	1.477832	0.046394	-0.745854
H255	H	1.811165	0.379727	-0.412520
Cl256	Cl	0.917723	-0.512692	-1.066836
Cl257	Cl	1.251057	-0.179359	-0.733503
Cl258	Cl	1.584390	0.153974	-0.400170
Cl259	Cl	0.828434	-0.602397	-0.973690
Cl260	Cl	1.161767	-0.269064	-0.640356
Cl261	Cl	1.495100	0.064269	-0.307023
