data_functionalizedCrystal
_audit_creation_method	'MofGen! by Chris Wilmer'
_symmetry_space_group_name_H-M	'P1'
_symmetry_Int_Tables_number	1
_symmetry_cell_setting	triclinic
loop_
_symmetry_equiv_pos_as_xyz
  x,y,z
_cell_length_a	9.065218
_cell_length_b	19.188924
_cell_length_c	8.140239
_cell_angle_alpha	89.994423
_cell_angle_beta	89.997198
_cell_angle_gamma	84.078925
loop_
_atom_site_label
_atom_site_type_symbol
_atom_site_fract_x
_atom_site_fract_y
_atom_site_fract_z
O1	O	1.956841	0.102370	-0.136627
O2	O	2.456841	0.602370	0.363373
O3	O	1.527265	0.110767	-0.136630
O4	O	2.027265	0.610767	0.363370
O5	O	1.754455	0.005009	-0.136609
O6	O	2.254455	0.505009	0.363391
O7	O	1.729651	0.208128	-0.136648
O8	O	2.229651	0.708128	0.363352
O9	O	1.754442	0.005007	0.136618
O10	O	2.254442	0.505007	0.636618
O11	O	1.527252	0.110765	0.136597
O12	O	2.027252	0.610765	0.636597
O13	O	1.956829	0.102368	0.136601
O14	O	2.456829	0.602368	0.636601
Zn15	Zn	1.742038	0.106567	0.179980
Zn16	Zn	2.242038	0.606567	0.679980
Zn17	Zn	1.742055	0.106568	-0.180009
Zn18	Zn	2.242055	0.606568	0.319991
O19	O	1.729638	0.208127	0.136580
O20	O	2.229638	0.708127	0.636580
C21	C	1.472300	0.109959	-0.000016
C22	C	1.972300	0.609959	0.499984
C23	C	1.308541	0.107546	-0.000017
C24	C	1.808541	0.607546	0.499983
C25	C	1.753647	-0.021009	0.000006
C26	C	2.253647	0.478991	0.500006
C27	C	1.751241	-0.098533	0.000011
C28	C	2.251241	0.401467	0.500011
C29	C	1.750125	-0.134940	-0.148926
C30	C	2.250125	0.365060	0.351074
C31	C	1.747843	-0.207780	-0.148938
C32	C	2.247843	0.292220	0.351062
C33	C	1.746707	-0.244213	-0.000006
C34	C	2.246707	0.255787	0.499994
C35	C	1.747815	-0.207796	0.148950
C36	C	2.247815	0.292204	0.648950
C37	C	1.750082	-0.134957	0.148959
C38	C	2.250082	0.365043	0.648959
N39	N	1.827093	-0.363252	0.110842
N40	N	2.327093	0.136748	0.610842
N41	N	1.824943	-0.432447	0.110824
N42	N	2.324943	0.067553	0.610824
C43	C	1.739874	-0.463675	-0.000022
C44	C	2.239874	0.036325	0.499978
N45	N	1.657055	-0.423095	-0.110873
N46	N	2.157055	0.076905	0.389127
N47	N	1.659212	-0.353894	-0.110860
N48	N	2.159212	0.146106	0.389140
C49	C	1.744248	-0.323195	0.000002
C50	C	2.244248	0.176805	0.500002
C51	C	1.736281	-0.579064	-0.148982
C52	C	2.236281	-0.079064	0.351018
C53	C	1.733990	-0.651905	-0.148988
C54	C	2.233990	-0.151905	0.351012
C55	C	1.733978	-0.651920	0.148905
C56	C	2.233978	-0.151920	0.648905
C57	C	1.736254	-0.579080	0.148907
C58	C	2.236254	-0.079080	0.648907
C59	C	1.737413	-0.542656	-0.000041
C60	C	2.237413	-0.042656	0.499959
C61	C	2.011793	0.103176	-0.000016
C62	C	2.511793	0.603176	0.499984
C63	C	2.175552	0.105589	-0.000027
C64	C	2.675552	0.605589	0.499973
C65	C	1.730446	0.234144	-0.000039
C66	C	2.230446	0.734144	0.499961
C67	C	1.732852	0.311668	-0.000054
C68	C	2.232852	0.811668	0.499946
N69	N	1.742038	0.106565	0.425662
N70	N	2.242038	0.606565	0.925662
N71	N	1.742067	0.106564	-0.425691
N72	N	2.242067	0.606564	0.074309
H73	H	1.746925	-0.237428	-0.270224
H74	H	2.246925	0.262572	0.229776
N75	N	1.746599	-0.247087	0.309587
N76	N	2.246599	0.252913	0.809587
H77	H	1.745004	-0.298756	0.286984
H78	H	2.245004	0.201244	0.786984
H79	H	1.838427	-0.239437	0.374620
H80	H	2.338427	0.260563	0.874620
N81	N	1.732737	-0.691204	0.309544
N82	N	2.232737	-0.191204	0.809544
H83	H	1.731126	-0.742872	0.286942
H84	H	2.231126	-0.242872	0.786942
H85	H	1.824560	-0.683560	0.374591
H86	H	2.324560	-0.183560	0.874591
N87	N	1.751400	-0.095666	-0.309583
N88	N	2.251400	0.404334	0.190417
H89	H	1.843785	-0.070538	-0.316198
H90	H	2.343785	0.429462	0.183802
H91	H	1.750303	-0.129837	-0.403823
H92	H	2.250303	0.370163	0.096177
H93	H	1.737175	-0.549438	0.270187
H94	H	2.237175	-0.049438	0.770187
H95	H	1.750985	-0.105314	0.270244
H96	H	2.250985	0.394686	0.770244
H97	H	1.737216	-0.549405	-0.270264
H98	H	2.237216	-0.049405	0.229736
H99	H	1.733074	-0.681546	-0.270275
H100	H	2.233074	-0.181546	0.229725
