data_functionalizedCrystal
_audit_creation_method	'MofGen! by Chris Wilmer'
_symmetry_space_group_name_H-M	'P1'
_symmetry_Int_Tables_number	1
_symmetry_cell_setting	triclinic
loop_
_symmetry_equiv_pos_as_xyz
  x,y,z
_cell_length_a	16.109302
_cell_length_b	17.038272
_cell_length_c	15.500346
_cell_angle_alpha	87.025623
_cell_angle_beta	86.815375
_cell_angle_gamma	87.286668
loop_
_atom_site_label
_atom_site_type_symbol
_atom_site_fract_x
_atom_site_fract_y
_atom_site_fract_z
O1	O	1.113947	0.103726	-0.071983
O2	O	1.613947	0.603726	0.428017
O3	O	0.872773	0.116232	-0.071977
O4	O	1.372773	0.616232	0.428023
O5	O	0.991926	-0.003837	-0.071973
O6	O	1.491926	0.496163	0.428027
O7	O	0.994794	0.223795	-0.071987
O8	O	1.494794	0.723795	0.428013
O9	O	0.984562	-0.010292	0.071914
O10	O	1.484562	0.489708	0.571914
O11	O	0.865409	0.109776	0.071910
O12	O	1.365409	0.609776	0.571910
O13	O	1.106583	0.097271	0.071903
O14	O	1.606583	0.597271	0.571903
Cu15	Cu	0.985324	0.102934	0.085045
Cu16	Cu	1.485324	0.602934	0.585045
Cu17	Cu	0.994033	0.110569	-0.085118
Cu18	Cu	1.494033	0.610569	0.414882
O19	O	0.987430	0.217339	0.071900
O20	O	1.487430	0.717339	0.571900
C21	C	0.838080	0.112497	-0.000032
C22	C	1.338080	0.612497	0.499968
C23	C	0.745677	0.110978	-0.000030
C24	C	1.245677	0.610978	0.499970
C25	C	0.529073	0.103947	0.078395
C26	C	1.029073	0.603947	0.578395
C27	C	0.442251	0.102512	0.078392
C28	C	0.942251	0.602512	0.578392
C29	C	0.450290	0.109554	-0.078482
C30	C	0.950290	0.609554	0.421518
C31	C	0.537111	0.110984	-0.078478
C32	C	1.037111	0.610984	0.421522
C33	C	0.576500	0.108184	-0.000037
C34	C	1.076500	0.608184	0.499963
C35	C	0.402857	0.105319	-0.000044
C36	C	0.902857	0.605319	0.499956
C37	C	0.308721	0.103762	-0.000048
C38	C	0.808721	0.603762	0.499952
C39	C	0.670642	0.109739	-0.000033
C40	C	1.170642	0.609739	0.499967
C41	C	0.985637	-0.036193	-0.000030
C42	C	1.485637	0.463807	0.499970
C43	C	0.977858	-0.122985	-0.000030
C44	C	1.477858	0.377015	0.499970
C45	C	1.049279	-0.173100	-0.000031
C46	C	1.549279	0.326900	0.499969
C47	C	1.041965	-0.254650	-0.000039
C48	C	1.541965	0.245350	0.499961
C49	C	0.963229	-0.286084	-0.000040
C50	C	1.463229	0.213916	0.499960
C51	C	0.891804	-0.235963	-0.000041
C52	C	1.391804	0.264037	0.499959
C53	C	0.899118	-0.154414	-0.000039
C54	C	1.399118	0.345586	0.499961
C55	C	0.937388	-0.531842	-0.000051
C56	C	1.437388	-0.031842	0.499949
C57	C	0.930078	-0.613397	-0.000050
C58	C	1.430078	-0.113397	0.499950
C59	C	1.080240	-0.632078	-0.000049
C60	C	1.580240	-0.132078	0.499951
C61	C	1.087548	-0.550527	-0.000042
C62	C	1.587548	-0.050527	0.499958
C63	C	1.016122	-0.500413	-0.000048
C64	C	1.516122	-0.000413	0.499952
C65	C	0.955752	-0.369442	-0.000045
C66	C	1.455752	0.130558	0.499955
C67	C	1.023601	-0.417057	-0.000049
C68	C	1.523601	0.082943	0.499951
C69	C	1.141276	0.101005	-0.000043
C70	C	1.641276	0.601005	0.499957
C71	C	1.233680	0.102525	-0.000051
C72	C	1.733680	0.602525	0.499949
C73	C	0.993719	0.249695	-0.000045
C74	C	1.493719	0.749695	0.499955
C75	C	1.001499	0.336488	-0.000051
C76	C	1.501499	0.836488	0.499949
N77	N	0.979205	0.097564	0.204728
N78	N	1.479205	0.597564	0.704728
N79	N	1.000158	0.115933	-0.204801
N80	N	1.500158	0.615933	0.295199
C81	C	0.948697	0.070544	0.749909
C82	C	1.448697	0.570544	1.249909
C83	C	0.953322	0.074636	0.659337
C84	C	1.453322	0.574636	1.159337
C85	C	1.009404	0.124120	0.614057
C86	C	1.509404	0.624120	1.114057
C87	C	1.060870	0.169511	0.659353
C88	C	1.560870	0.669511	1.159353
C89	C	1.056249	0.165414	0.749923
C90	C	1.556249	0.665414	1.249923
C91	C	1.026050	0.138858	0.340594
C92	C	1.526050	0.638858	0.840594
C93	C	1.030665	0.142953	0.250018
C94	C	1.530665	0.642953	0.750018
C95	C	0.923117	0.048076	0.250008
C96	C	1.423117	0.548076	0.750008
C97	C	0.918498	0.043988	0.340580
C98	C	1.418498	0.543988	0.840580
C99	C	0.969967	0.089375	0.385868
C100	C	1.469967	0.589375	0.885868
C101	C	1.014130	0.128306	0.521478
C102	C	1.514130	0.628306	1.021478
C103	C	0.965244	0.085185	0.478445
C104	C	1.465244	0.585185	0.978445
H105	H	0.403640	0.099062	0.142259
H106	H	0.903640	0.599062	0.642259
H107	H	0.881215	0.011124	0.213125
H108	H	1.381215	0.511124	0.713125
H109	H	0.903025	0.030252	0.786770
H110	H	1.403025	0.530252	1.286770
H111	H	1.100124	-0.295451	-0.000038
H112	H	1.600124	0.204549	0.499962
H113	H	0.561140	0.101668	0.142266
H114	H	1.061140	0.601668	0.642266
H115	H	0.911419	0.037673	0.622466
H116	H	1.411419	0.537673	1.122466
H117	H	1.151663	-0.524940	-0.000042
H118	H	1.651663	-0.024940	0.499958
H119	H	1.087708	-0.391459	-0.000068
H120	H	1.587708	0.108541	0.499932
H121	H	0.872831	0.003691	0.377441
H122	H	1.372831	0.503691	0.877441
H123	H	0.891644	-0.395045	-0.000044
H124	H	1.391644	0.104955	0.499956
H125	H	1.076333	0.183255	0.213153
H126	H	1.576333	0.683255	0.713153
H127	H	1.106537	0.209799	0.622478
H128	H	1.606537	0.709799	1.122478
H129	H	0.840960	-0.113611	-0.000039
H130	H	1.340960	0.386389	0.499961
H131	H	1.067960	0.175816	0.377457
H132	H	1.567960	0.675816	0.877457
H133	H	1.098155	0.202374	0.786797
H134	H	1.598155	0.702374	1.286797
H135	H	0.919585	0.044892	0.515316
H136	H	1.419585	0.544892	1.015316
H137	H	0.418209	0.111834	-0.142345
H138	H	0.918209	0.611834	0.357655
H139	H	1.059792	0.168597	0.484601
H140	H	1.559792	0.668597	0.984601
H141	H	1.138391	-0.672889	-0.000046
H142	H	1.638391	-0.172889	0.499954
H143	H	0.575728	0.114432	-0.142350
H144	H	1.075728	0.614432	0.357650
H145	H	1.113393	-0.147513	-0.000025
H146	H	1.613393	0.352487	0.499975
H147	H	0.865958	-0.638988	-0.000037
H148	H	1.365958	-0.138988	0.499963
H149	H	0.879227	-0.491048	-0.000056
H150	H	1.379227	0.008952	0.499944
H151	H	0.827695	-0.261563	-0.000047
H152	H	1.327695	0.238437	0.499953
