data_functionalizedCrystal
_audit_creation_method	'MofGen! by Chris Wilmer'
_symmetry_space_group_name_H-M	'P1'
_symmetry_Int_Tables_number	1
_symmetry_cell_setting	triclinic
loop_
_symmetry_equiv_pos_as_xyz
  x,y,z
_cell_length_a	19.077068
_cell_length_b	19.805407
_cell_length_c	19.805399
_cell_angle_alpha	89.980427
_cell_angle_beta	87.730571
_cell_angle_gamma	87.672914
loop_
_atom_site_label
_atom_site_type_symbol
_atom_site_fract_x
_atom_site_fract_y
_atom_site_fract_z
Zn1	Zn	-0.280218	-1.023904	0.393534
Zn2	Zn	-0.397917	-1.019269	0.284888
Zn3	Zn	-0.280237	-0.910718	0.280359
Zn4	Zn	-0.397880	-0.906134	0.398033
O5	O	-0.339063	-0.965006	0.339204
O6	O	-0.295839	-1.118005	0.379134
O7	O	-0.382330	-1.004848	0.189571
O8	O	-0.181744	-0.929590	0.291594
O9	O	-0.382312	-1.114600	0.299312
O10	O	-0.181729	-1.012748	0.374743
O11	O	-0.295872	-0.925096	0.186244
O12	O	-0.295835	-0.815394	0.295957
O13	O	-0.382248	-0.921778	0.492152
O14	O	-0.382267	-0.812026	0.382411
O15	O	-0.295802	-1.008303	0.488846
O16	O	-0.496403	-1.000404	0.303675
O17	O	-0.496376	-0.917284	0.386802
C18	C	-0.339050	-0.789151	0.339181
C19	C	-0.339061	-0.713918	0.339188
C20	C	-0.521927	-0.957862	0.346233
C21	C	-0.600157	-0.954867	0.349263
C22	C	-0.339019	-0.965046	0.515745
C23	C	-0.339000	-0.965063	0.590976
C24	C	-0.636901	-0.996770	0.307443
C25	C	-0.710406	-0.993957	0.310296
C26	C	-0.747167	-0.949238	0.354968
C27	C	-0.710418	-0.907333	0.396793
C28	C	-0.636914	-0.910150	0.393942
C29	C	-0.967002	-0.936174	0.368135
C30	C	-1.040511	-0.933359	0.370981
C31	C	-1.040494	-1.019984	0.284485
C32	C	-0.966989	-1.022794	0.281635
C33	C	-0.930246	-0.980892	0.323463
N34	N	-0.822301	-0.946361	0.357884
N35	N	-0.855113	-0.983773	0.320549
C36	C	-0.155485	-0.972197	0.332161
C37	C	-0.077255	-0.975262	0.329160
C38	C	-0.339077	-1.141548	0.339226
C39	C	-0.339083	-1.216780	0.339236
C40	C	-0.384133	-0.676836	0.384138
C41	C	-0.384135	-0.606147	0.384147
C42	C	-0.339066	-0.572543	0.339204
C43	C	-0.293989	-0.609630	0.294252
C44	C	-0.293985	-0.680318	0.294246
C45	C	-0.294004	-0.324556	0.294275
C46	C	-0.294014	-0.253864	0.294283
C47	C	-0.384154	-0.250386	0.384176
C48	C	-0.384150	-0.321073	0.384170
C49	C	-0.339070	-0.358155	0.339221
C50	C	-0.339069	-0.434804	0.339212
C51	C	-0.339071	-0.495895	0.339209
C52	C	-0.339056	-0.965008	0.163347
C53	C	-0.338877	-0.965130	0.088109
C54	C	-0.293985	-1.010118	0.624600
C55	C	-0.293965	-1.010125	0.695288
C56	C	-0.338963	-0.965081	0.732350
C57	C	-0.383980	-0.920022	0.698721
C58	C	-0.383996	-0.920011	0.628035
C59	C	-0.383914	-0.920062	0.983792
C60	C	-0.383896	-0.920078	1.054484
C61	C	-0.293883	-1.010177	1.051045
C62	C	-0.293899	-1.010166	0.980358
C63	C	-0.338913	-0.965104	0.946736
C64	C	-0.338934	-0.965096	0.870088
C65	C	-0.338947	-0.965093	0.808997
H66	H	-0.606975	-1.033182	0.271063
Cl67	Cl	-0.237326	-0.567385	0.237755
Cl68	Cl	-1.086689	-1.072662	0.231909
H69	H	-0.420644	-0.883316	0.600659
Cl70	Cl	-0.756632	-0.851118	0.452956
H71	H	-0.606998	-0.876029	0.427998
Cl72	Cl	-0.237318	-0.726936	0.237738
H73	H	-0.420836	-0.704191	0.420734
Cl74	Cl	-0.440800	-0.559532	0.440658
Cl75	Cl	-1.086724	-0.877127	0.427135
H76	H	-0.420852	-0.348430	0.420766
Cl77	Cl	-0.440827	-0.203765	0.440685
H78	H	-0.257311	-1.046815	0.722661
H79	H	-0.257309	-0.226505	0.257684
H80	H	-0.257345	-1.046800	0.594428
Cl81	Cl	-0.237291	-1.066824	1.093318
H82	H	-0.257260	-1.046848	0.950185
H83	H	-0.420540	-0.883394	1.084658
H84	H	-0.740320	-1.028079	0.276241
Cl85	Cl	-0.237331	-0.371164	0.237770
Cl86	Cl	-0.920781	-1.079024	0.225484
H87	H	-0.937092	-0.902054	0.402191
H88	H	-0.420577	-0.883380	0.956426
H89	H	-0.420615	-0.883343	0.728903
