data_functionalizedCrystal
_audit_creation_method	'MofGen! by Chris Wilmer'
_symmetry_space_group_name_H-M	'P1'
_symmetry_Int_Tables_number	1
_symmetry_cell_setting	triclinic
loop_
_symmetry_equiv_pos_as_xyz
  x,y,z
_cell_length_a	6.817900
_cell_length_b	12.850253
_cell_length_c	14.025144
_cell_angle_alpha	123.056728
_cell_angle_beta	91.009835
_cell_angle_gamma	91.777524
loop_
_atom_site_label
_atom_site_type_symbol
_atom_site_fract_x
_atom_site_fract_y
_atom_site_fract_z
V1	V	-3.842574	-0.393752	-0.144978
O2	O	-3.890320	-0.307929	0.018727
O3	O	-3.740793	-0.466392	-0.298778
O4	O	-3.738733	-0.531112	-0.137588
O5	O	-3.892394	-0.242761	-0.143579
V6	V	-4.340303	-0.366541	-0.126007
O7	O	-4.072671	-0.453442	-0.186593
O8	O	-4.560403	-0.306851	-0.084392
O9	O	-4.218877	-0.293901	0.027793
O10	O	-4.409954	-0.452365	-0.289712
O11	O	-4.407879	-0.517533	-0.127406
O12	O	-4.220937	-0.229181	-0.133397
C13	C	-3.574602	-0.479619	-0.336432
C14	C	-3.572302	-0.539926	-0.462132
C15	C	-3.570432	-0.588892	-0.564213
C16	C	-3.568103	-0.650328	-0.692279
C17	C	-3.571988	-0.562172	-0.130813
C18	C	-3.567942	-0.677078	-0.125692
V19	V	-3.825903	-0.869052	-0.127757
O20	O	-3.867717	-0.958856	-0.294209
O21	O	-3.729311	-0.787584	0.032126
O22	O	-3.732004	-0.722878	-0.129074
O23	O	-3.865005	-1.024010	-0.131893
V24	V	-4.320222	-0.940453	-0.177157
O25	O	-4.059413	-0.830014	-0.100360
O26	O	-4.535524	-1.019538	-0.232129
O27	O	-4.194294	-1.002067	-0.323369
O28	O	-4.395443	-0.861092	-0.017896
O29	O	-4.398156	-0.795938	-0.180212
O30	O	-4.191600	-1.066772	-0.162169
C31	C	-4.048409	-0.280675	0.065441
C32	C	-4.029944	-0.220375	0.191140
C33	C	-3.996092	-0.109942	0.421282
C34	C	-4.014922	-0.171395	0.293215
C35	C	-4.033933	-0.083242	-0.145340
C36	C	-4.051046	-0.198130	-0.140191
C37	C	-3.564505	-0.759616	0.079931
C38	C	-3.566262	-0.699295	0.205647
C39	C	-4.023476	-1.000089	-0.350549
C40	C	-4.001018	-1.058562	-0.474992
