data_functionalizedCrystal
_audit_creation_method	'MofGen! by Chris Wilmer'
_symmetry_space_group_name_H-M	'P1'
_symmetry_Int_Tables_number	1
_symmetry_cell_setting	triclinic
loop_
_symmetry_equiv_pos_as_xyz
  x,y,z
_cell_length_a	15.944551
_cell_length_b	12.837942
_cell_length_c	11.295483
_cell_angle_alpha	85.469583
_cell_angle_beta	85.890183
_cell_angle_gamma	90.836161
loop_
_atom_site_label
_atom_site_type_symbol
_atom_site_fract_x
_atom_site_fract_y
_atom_site_fract_z
O1	O	1.130324	-0.126707	-0.099142
O2	O	1.630324	0.373293	0.400858
O3	O	0.887092	-0.143192	-0.099119
O4	O	1.387092	0.356808	0.400881
O5	O	1.003314	0.015953	-0.099122
O6	O	1.503314	0.515953	0.400878
O7	O	1.014102	-0.285852	-0.099138
O8	O	1.514102	0.214148	0.400862
O9	O	0.993105	0.001997	0.098929
O10	O	1.493105	0.501997	0.598929
O11	O	0.876882	-0.157149	0.098932
O12	O	1.376882	0.342851	0.598932
O13	O	1.120114	-0.140664	0.098909
O14	O	1.620114	0.359336	0.598909
Cu15	Cu	0.997566	-0.150180	0.117005
Cu16	Cu	1.497566	0.349820	0.617005
Cu17	Cu	1.009640	-0.133675	-0.117214
Cu18	Cu	1.509640	0.366325	0.382786
O19	O	1.003892	-0.299809	0.098913
O20	O	1.503892	0.200191	0.598913
C21	C	0.850638	-0.149486	-0.000090
C22	C	1.350638	0.350514	0.499910
C23	C	0.757228	-0.147435	-0.000081
C24	C	1.257228	0.352565	0.499919
C25	C	0.994566	0.047596	-0.000097
C26	C	1.494566	0.547596	0.499903
C27	C	0.983698	0.162674	-0.000098
C28	C	1.483698	0.662674	0.499902
C29	C	1.156568	-0.134369	-0.000122
C30	C	1.656568	0.365631	0.499878
C31	C	1.249979	-0.136420	-0.000139
C32	C	1.749979	0.363580	0.499861
C33	C	1.473118	-0.239970	-0.000117
C34	C	1.973118	0.260030	0.499883
C35	C	1.535326	-0.185004	-0.097763
C36	C	2.035326	0.314996	0.402237
C37	C	1.421001	-0.140132	-0.000121
C38	C	1.921001	0.359868	0.499879
C39	C	1.525236	-0.198741	0.097500
C40	C	2.025236	0.301259	0.597500
C41	C	1.586200	-0.143726	-0.000100
C42	C	2.086200	0.356274	0.499900
C43	C	1.481982	-0.085133	-0.097848
C44	C	1.981982	0.414867	0.402152
C45	C	1.471883	-0.098890	0.097502
C46	C	1.971883	0.401110	0.597502
C47	C	1.534068	-0.043850	-0.000167
C48	C	2.034068	0.456150	0.499833
C49	C	1.325834	-0.138065	-0.000135
C50	C	1.825834	0.361935	0.499865
C51	C	1.681366	-0.145785	-0.000095
C52	C	2.181366	0.354215	0.499905
C53	C	1.012641	-0.331451	-0.000115
C54	C	1.512641	0.168549	0.499885
C55	C	1.023509	-0.446528	-0.000122
C56	C	1.523509	0.053472	0.499878
N57	N	0.989080	-0.161789	0.281741
N58	N	1.489080	0.338211	0.781741
C59	C	1.114352	0.403626	-0.000135
C60	C	1.614352	0.903626	0.499865
C61	C	1.104145	0.511752	-0.000136
C62	C	1.604145	1.011752	0.499864
C63	C	0.953077	0.487056	-0.000110
C64	C	1.453077	0.987056	0.499890
C65	C	0.963284	0.378930	-0.000109
C66	C	1.463284	0.878930	0.499891
C67	C	1.043924	0.337218	-0.000120
C68	C	1.543924	0.837218	0.499880
C69	C	1.054130	0.229089	-0.000110
C70	C	1.554130	0.729089	0.499890
C71	C	0.903064	0.204396	-0.000092
C72	C	1.403064	0.704396	0.499908
C73	C	0.892856	0.312522	-0.000093
C74	C	1.392856	0.812522	0.499907
N75	N	1.018133	-0.122059	-0.281950
N76	N	1.518133	0.377941	0.218050
C77	C	1.079217	-0.038438	0.531028
C78	C	1.579217	0.461562	1.031028
C79	C	1.072811	-0.047218	0.655692
C80	C	1.572811	0.452782	1.155692
C81	C	0.969856	-0.188122	0.655735
C82	C	1.469856	0.311878	1.155735
C83	C	0.976263	-0.179343	0.531071
C84	C	1.476263	0.320657	1.031071
C85	C	1.030946	-0.104499	0.468722
C86	C	1.530946	0.395501	0.968722
C87	C	1.037357	-0.095725	0.344056
C88	C	1.537357	0.404275	0.844056
C89	C	0.934398	-0.236624	0.344101
C90	C	1.434398	0.263376	0.844101
C91	C	0.927991	-0.245403	0.468765
C92	C	1.427991	0.254597	0.968765
H93	H	1.446447	-0.322834	-0.000218
H94	H	1.946447	0.177166	0.499782
H95	H	1.444118	-0.062517	0.180064
H96	H	1.944118	0.437483	0.680064
H97	H	0.925328	-0.249051	0.706516
H98	H	1.425328	0.250949	1.206516
H99	H	0.845716	0.150314	-0.000070
H100	H	1.345716	0.650314	0.499930
N101	N	0.869010	-0.326119	0.536016
N102	N	1.369010	0.173881	1.036016
H103	H	0.872274	-0.321657	0.624445
H104	H	1.372274	0.178343	1.124445
H105	H	0.885722	-0.398131	0.514221
H106	H	1.385722	0.101869	1.014221
H107	H	0.895095	-0.290418	0.293358
H108	H	1.395095	0.209582	0.793358
H109	H	1.563074	-0.221416	-0.180317
H110	H	2.063074	0.278584	0.319683
H111	H	0.887423	0.521038	-0.000113
H112	H	1.387423	1.021038	0.499887
H113	H	1.180012	0.369663	-0.000133
H114	H	1.680012	0.869663	0.499867
N115	N	1.138188	0.042298	0.463793
N116	N	1.638188	0.542298	0.963793
H117	H	1.105067	0.091862	0.412094
H118	H	1.605067	0.591862	0.912094
H119	H	1.181203	0.006239	0.412114
H120	H	1.681203	0.506239	0.912114
H121	H	1.112117	0.006577	0.706418
H122	H	1.612117	0.506577	1.206418
N123	N	1.456681	-0.021534	-0.207323
N124	N	1.956681	0.478466	0.292677
H125	H	1.480363	-0.053766	-0.280989
H126	H	1.980363	0.446234	0.219011
H127	H	1.479410	0.052330	-0.207547
H128	H	1.979410	0.552330	0.292453
H129	H	1.544444	-0.246803	0.180052
H130	H	2.044444	0.253197	0.680052
N131	N	1.569193	0.066023	-0.000208
N132	N	2.069193	0.566023	0.499792
H133	H	1.553516	0.108789	-0.073992
H134	H	2.053516	0.608789	0.426008
H135	H	1.632449	0.063927	0.000545
H136	H	2.132449	0.563927	0.500545
N137	N	0.805885	0.357517	-0.000066
N138	N	1.305885	0.857517	0.499934
H139	H	0.762817	0.299037	-0.000052
H140	H	1.262817	0.799037	0.499948
H141	H	0.802136	0.407010	-0.073485
H142	H	1.302136	0.907010	0.426515
N143	N	1.141101	0.184095	-0.000114
N144	N	1.641101	0.684095	0.499886
H145	H	1.184167	0.242575	-0.000128
H146	H	1.684167	0.742575	0.499872
H147	H	1.152409	0.144938	-0.073533
H148	H	1.652409	0.644938	0.426467
H149	H	1.161495	0.565818	-0.000153
H150	H	1.661495	1.065818	0.499847
H151	H	1.081885	-0.034787	0.293292
H152	H	1.581885	0.465213	0.793292
