data_functionalizedCrystal
_audit_creation_method	'MofGen! by Chris Wilmer'
_symmetry_space_group_name_H-M	'P1'
_symmetry_Int_Tables_number	1
_symmetry_cell_setting	triclinic
loop_
_symmetry_equiv_pos_as_xyz
  x,y,z
_cell_length_a	33.510554
_cell_length_b	33.509711
_cell_length_c	33.506470
_cell_angle_alpha	60.004186
_cell_angle_beta	60.008358
_cell_angle_gamma	59.994760
loop_
_atom_site_label
_atom_site_type_symbol
_atom_site_fract_x
_atom_site_fract_y
_atom_site_fract_z
O1	O	0.055430	-0.583081	0.487524
O2	O	0.020931	-0.453975	0.392819
O3	O	0.102693	-0.535652	0.392731
O4	O	-0.026332	-0.501404	0.487613
O5	O	0.129823	-0.508526	0.419767
O6	O	0.048062	-0.426850	0.419856
O7	O	0.082561	-0.555956	0.514561
Cu8	Cu	0.067789	-0.488926	0.469677
Cu9	Cu	0.035703	-0.521005	0.437703
O10	O	0.000799	-0.474279	0.514649
N11	N	0.090357	-0.466366	0.492168
N12	N	0.013139	-0.543569	0.415212
C13	C	0.143028	-0.279707	0.544737
C14	C	0.143165	-0.413746	0.678712
C15	C	0.143043	-0.413725	0.544739
C16	C	0.277090	-0.413694	0.544637
C17	C	0.157791	-0.323929	0.559462
C18	C	0.157869	-0.398994	0.634489
C19	C	0.232865	-0.398963	0.559407
C20	C	0.157801	-0.398982	0.559463
C21	C	0.124237	-0.223419	0.525994
C22	C	0.124262	-0.432490	0.525997
C23	C	0.176583	-0.380217	0.578205
C24	C	0.358938	-0.399566	0.501510
C25	C	0.410104	-0.416609	0.484423
C26	C	0.410135	-0.499402	0.515995
C27	C	0.358969	-0.482358	0.533084
C28	C	0.136554	-0.197822	0.475693
C29	C	0.119469	-0.146653	0.458657
C30	C	0.077755	-0.146680	0.542223
C31	C	0.094840	-0.197850	0.559260
C32	C	0.073954	-0.420144	0.538396
C33	C	0.056884	-0.437203	0.521352
C34	C	0.140427	-0.478952	0.479524
C35	C	0.157498	-0.461894	0.496561
C36	C	0.074158	-0.420182	0.760618
C37	C	0.057149	-0.437256	0.811786
C38	C	0.140732	-0.479014	0.811717
C39	C	0.157740	-0.461942	0.760547
C40	C	0.124452	-0.432525	0.734999
C41	C	0.333372	-0.432439	0.525839
C42	C	-0.020612	-0.577650	0.170305
C43	C	-0.020943	-0.788098	0.380897
C44	C	-0.020912	-0.577638	0.380991
C45	C	-0.231336	-0.577418	0.380585
C46	C	-0.129735	-0.611383	0.346870
C47	C	-0.054722	-0.611464	0.347017
C48	C	-0.073450	-0.630202	0.328195
C49	C	-0.087616	-0.712029	0.371239
C50	C	-0.070599	-0.763199	0.388315
C51	C	0.012191	-0.763282	0.356872
C52	C	-0.004828	-0.712113	0.339795
C53	C	-0.155381	-0.623711	0.397158
C54	C	-0.206547	-0.606601	0.414133
C55	C	-0.206417	-0.564839	0.330529
C56	C	-0.155251	-0.581949	0.313554
C57	C	-0.067051	-0.561160	0.334643
C58	C	-0.050026	-0.544131	0.351759
C59	C	-0.008343	-0.627704	0.393612
C60	C	-0.025368	-0.644736	0.376502
C61	C	-0.066922	-0.561168	0.246303
C62	C	-0.049794	-0.544141	0.195134
C63	C	-0.008048	-0.627719	0.195183
C64	C	-0.025175	-0.644745	0.246352
C65	C	-0.054614	-0.611468	0.271911
C66	C	-0.054732	-0.686488	0.346980
C67	C	-0.002117	-0.558258	0.114025
C68	C	-0.002879	-0.844379	0.399940
C69	C	-0.002504	-0.558243	0.399473
C70	C	-0.287615	-0.558285	0.398601
N71	N	0.434975	-0.466279	0.491900
O72	O	0.591199	-0.470749	0.375150
O73	O	0.591395	-0.565767	0.504116
O74	O	0.591311	-0.565550	0.422329
O75	O	0.591283	-0.470966	0.456937
O76	O	0.510024	-0.538522	0.449509
O77	O	0.510108	-0.538739	0.531297
O78	O	0.509913	-0.443721	0.402330
Cu79	Cu	0.502588	-0.488762	0.469295
Cu80	Cu	0.598719	-0.520726	0.437151
O81	O	0.509997	-0.443938	0.484117
N82	N	0.666332	-0.543209	0.414541
N83	N	0.090323	-0.121809	0.492157
O84	O	-0.026342	0.034503	0.487582
O85	O	0.102626	0.034543	0.392540
O86	O	0.020797	0.034507	0.392812
O87	O	0.055487	0.034539	0.487310
O88	O	0.047933	-0.046785	0.419900
O89	O	0.129763	-0.046749	0.419628
O90	O	0.000794	-0.046789	0.514670
Cu91	Cu	0.067756	-0.054192	0.469623
Cu92	Cu	0.035664	0.041946	0.437588
O93	O	0.082623	-0.046753	0.514399
N94	N	0.013091	0.109564	0.415054
N95	N	0.090671	-0.466416	0.836606
O96	O	0.086120	-0.583065	0.992910
O97	O	-0.008880	-0.454051	0.992954
O98	O	-0.008658	-0.535864	0.992931
O99	O	0.085897	-0.501252	0.992933
O100	O	0.018407	-0.508749	0.911642
O101	O	0.018185	-0.426936	0.911665
O102	O	0.113185	-0.555949	0.911621
Cu103	Cu	0.068156	-0.488967	0.904221
Cu104	Cu	0.036148	-0.521034	1.000355
O105	O	0.112963	-0.474136	0.911644
N106	N	0.013633	-0.543590	1.067970
C107	C	0.031262	-0.424144	0.393290
C108	C	0.132513	-0.525291	0.393180
C109	C	0.072229	-0.585787	0.514090
C110	C	-0.029022	-0.484640	0.514200
C111	C	0.550775	-0.565338	0.533954
C112	C	0.550672	-0.565070	0.432670
C113	C	0.550530	-0.444149	0.372492
C114	C	0.550635	-0.444418	0.473776
C115	C	0.132408	-0.005998	0.392963
C116	C	0.031106	-0.006142	0.393333
C117	C	-0.029021	-0.006147	0.514213
C118	C	0.072314	-0.006104	0.513878
C119	C	-0.008430	-0.424240	0.952316
C120	C	-0.008150	-0.525550	0.952271
C121	C	0.112735	-0.585760	0.952260
C122	C	0.112461	-0.484444	0.952286
H123	H	0.047048	-0.396226	0.739820
C124	C	-0.047816	-0.535319	0.952250
C125	C	-0.089683	-0.493615	0.952263
C126	C	-0.126235	-0.502598	0.952250
H127	H	-0.036580	-0.543048	0.923896
H128	H	-0.055454	-0.561970	0.980594
H129	H	-0.082045	-0.466972	0.923921
H130	H	-0.100933	-0.485879	0.980614
H131	H	-0.133873	-0.529249	0.980595
H132	H	-0.114994	-0.510328	0.923896
H133	H	-0.154647	-0.474305	0.952264
C134	C	0.550711	-0.604762	0.422886
C135	C	0.550793	-0.646642	0.464570
C136	C	0.550835	-0.683219	0.455574
H137	H	0.522354	-0.593559	0.415178
H138	H	0.579050	-0.612375	0.396219
H139	H	0.522457	-0.639030	0.491229
H140	H	0.579149	-0.657860	0.472285
H141	H	0.579174	-0.690831	0.428906
H142	H	0.522477	-0.672011	0.447864
H143	H	0.550895	-0.711640	0.483853
C144	C	0.181921	-0.535110	0.353468
C145	C	0.190560	-0.574403	0.342305
C146	C	0.236071	-0.583467	0.305730
H147	H	0.182051	-0.506857	0.325030
H148	H	0.206806	-0.542867	0.364674
H149	H	0.165681	-0.566644	0.331097
H150	H	0.190440	-0.602664	0.370732
H151	H	0.260956	-0.591224	0.316936
H152	H	0.236197	-0.555211	0.277294
H153	H	0.241941	-0.610130	0.298154
H154	H	0.550467	-0.414317	0.335455
H155	H	0.550826	-0.595166	0.570996
H156	H	0.550629	-0.414708	0.481180
H157	H	0.169370	-0.005761	0.363053
H158	H	-0.066059	-0.006159	0.544050
H159	H	0.023675	-0.006147	0.363643
C160	C	-0.234065	-0.532952	0.294307
C161	C	-0.221584	-0.558653	0.264941
C162	C	-0.247038	-0.529291	0.231565
H163	H	-0.268217	-0.524513	0.311560
H164	H	-0.225637	-0.504042	0.274326
H165	H	-0.230015	-0.587554	0.284920
H166	H	-0.187436	-0.567092	0.247678
H167	H	-0.238610	-0.500381	0.211584
H168	H	-0.281189	-0.520853	0.248822
H169	H	-0.238570	-0.546723	0.211634
H170	H	0.079602	-0.622875	0.543835
C171	C	-0.127649	-0.655748	0.433304
C172	C	-0.098295	-0.700933	0.425997
C173	C	-0.072747	-0.730460	0.459291
H174	H	-0.107647	-0.640213	0.428458
H175	H	-0.150236	-0.660670	0.465695
H176	H	-0.075710	-0.696010	0.393614
H177	H	-0.118285	-0.716481	0.430847
H178	H	-0.095334	-0.735381	0.491682
H179	H	-0.052747	-0.714921	0.454442
H180	H	-0.052830	-0.761122	0.454341
H181	H	0.016194	-0.427197	0.832639
H182	H	0.079744	-0.006095	0.543566
C183	C	-0.048147	-0.374813	0.952358
C184	C	-0.030638	-0.344647	0.952376
C185	C	-0.067213	-0.299113	0.952422
H186	H	-0.057065	-0.360123	0.924022
H187	H	-0.075917	-0.379078	0.980720
H188	H	-0.002876	-0.340380	0.924017
H189	H	-0.021723	-0.359321	0.980710
H190	H	-0.094983	-0.303379	0.980784
H191	H	-0.076129	-0.284429	0.924085
H192	H	-0.055340	-0.278641	0.952439
C193	C	0.152437	-0.635203	0.952264
C194	C	0.134919	-0.665377	0.952268
C195	C	0.171477	-0.710928	0.952277
H196	H	0.180224	-0.630984	0.923922
H197	H	0.161324	-0.649859	0.980620
H198	H	0.126039	-0.650724	0.923915
H199	H	0.107137	-0.669610	0.980609
H200	H	0.180364	-0.725584	0.980632
H201	H	0.199262	-0.706704	0.923934
H202	H	0.159595	-0.731408	0.952284
C203	C	-0.078456	-0.474811	0.553876
C204	C	-0.108585	-0.427110	0.536301
C205	C	-0.154124	-0.418035	0.572839
H206	H	-0.093167	-0.497359	0.562816
H207	H	-0.074197	-0.478457	0.581644
H208	H	-0.112845	-0.423468	0.508541
H209	H	-0.093889	-0.404551	0.527364
H210	H	-0.149865	-0.421681	0.600607
H211	H	-0.168830	-0.440586	0.581776
H212	H	-0.174570	-0.385668	0.560921
C213	C	0.152089	-0.474510	0.952178
C214	C	0.163191	-0.435204	0.910356
C215	C	0.199698	-0.426042	0.910235
H216	H	0.140858	-0.466724	0.980495
H217	H	0.180559	-0.502745	0.952139
H218	H	0.134726	-0.406974	0.910399
H219	H	0.174430	-0.442979	0.882031
H220	H	0.228169	-0.454278	0.910197
H221	H	0.188463	-0.418258	0.938555
H222	H	0.207238	-0.399375	0.881858
C223	C	0.176951	-0.510966	0.839367
C224	C	0.224638	-0.518131	0.805980
C225	C	0.258014	-0.547573	0.831433
H226	H	0.172117	-0.495391	0.859332
H227	H	0.172082	-0.541658	0.859312
H228	H	0.229504	-0.487444	0.786044
H229	H	0.229487	-0.533711	0.786015
H230	H	0.253146	-0.578265	0.851378
H231	H	0.253176	-0.531995	0.851397
H232	H	0.290373	-0.552442	0.808784
H233	H	0.198696	-0.471996	0.739692
H234	H	0.015920	-0.427139	0.531437
C235	C	0.037790	-0.388202	0.570324
C236	C	-0.009920	-0.381029	0.577518
C237	C	-0.043247	-0.351600	0.606924
H238	H	0.042669	-0.403790	0.601009
H239	H	0.042664	-0.357511	0.554700
H240	H	-0.014792	-0.411714	0.593143
H241	H	-0.014815	-0.365435	0.546843
H242	H	-0.038374	-0.320909	0.591300
H243	H	-0.038364	-0.367192	0.637606
H244	H	-0.075622	-0.346726	0.611805
C245	C	0.021375	-0.374718	0.353609
C246	C	-0.017926	-0.366114	0.342480
C247	C	-0.027043	-0.320591	0.305924
H248	H	0.013605	-0.349827	0.364807
H249	H	0.049621	-0.374570	0.325157
H250	H	-0.046165	-0.366258	0.370926
H251	H	-0.010166	-0.390993	0.331275
H252	H	0.001202	-0.320444	0.277472
H253	H	-0.034812	-0.295704	0.317125
H254	H	-0.053707	-0.314749	0.298365
H255	H	0.167497	-0.502899	0.455559
H256	H	0.338156	-0.509129	0.552896
C257	C	0.212132	-0.475263	0.482999
C258	C	0.233142	-0.457855	0.432097
C259	C	0.283468	-0.470165	0.419584
H260	H	0.217602	-0.460898	0.497312
H261	H	0.226550	-0.509790	0.494720
H262	H	0.218728	-0.423335	0.420381
H263	H	0.227685	-0.472217	0.417772
H264	H	0.297887	-0.504692	0.431305
H265	H	0.288934	-0.455800	0.433900
H266	H	0.297731	-0.458360	0.385046
C267	C	0.437838	-0.553621	0.523926
C268	C	0.404498	-0.578765	0.548901
C269	C	0.430002	-0.628713	0.556220
H270	H	0.457779	-0.558426	0.493209
H271	H	0.457810	-0.565642	0.542677
H272	H	0.384534	-0.566748	0.530150
H273	H	0.384556	-0.573974	0.579623
H274	H	0.449975	-0.640735	0.574971
H275	H	0.449942	-0.633513	0.525501
H276	H	0.407385	-0.645780	0.573170
H277	H	0.430920	-0.389838	0.464614
H278	H	0.338097	-0.358917	0.495611
H279	H	0.129496	-0.125810	0.417697
C280	C	0.168443	-0.225494	0.439498
C281	C	0.175557	-0.192124	0.391799
C282	C	0.204925	-0.217599	0.358444
H283	H	0.199152	-0.245449	0.444322
H284	H	0.152822	-0.245452	0.444399
H285	H	0.191178	-0.172174	0.386899
H286	H	0.144856	-0.172168	0.386959
H287	H	0.189304	-0.237557	0.363346
H288	H	0.235632	-0.237553	0.363273
H289	H	0.209752	-0.194961	0.326077
H290	H	0.053825	-0.125861	0.569312
H291	H	-0.059824	-0.503179	0.174290
C292	C	0.081435	-0.225551	0.613891
C293	C	0.052042	-0.192203	0.639375
C294	C	0.039688	-0.217705	0.689703
H295	H	0.064056	-0.245522	0.622358
H296	H	0.110375	-0.245495	0.622280
H297	H	0.023107	-0.172268	0.630990
H298	H	0.069411	-0.172231	0.630923
H299	H	0.068628	-0.237649	0.698092
H300	H	0.022311	-0.237675	0.698165
H301	H	0.019748	-0.195083	0.707000
H302	H	-0.090896	-0.534066	0.267110
H303	H	0.015913	-0.654818	0.174378
H304	H	-0.015148	-0.685706	0.267200
C305	C	-0.063428	-0.489497	0.338239
C306	C	-0.092760	-0.464002	0.308737
C307	C	-0.105104	-0.413673	0.296262
H308	H	-0.080846	-0.481010	0.367118
H309	H	-0.034481	-0.481135	0.320902
H310	H	-0.121702	-0.472359	0.326074
H311	H	-0.075351	-0.472473	0.279853
H312	H	-0.076157	-0.405312	0.278925
H313	H	-0.122520	-0.405192	0.325143
H314	H	-0.125003	-0.396369	0.276240
H315	H	0.015562	-0.654800	0.417614
C316	C	-0.011910	-0.699370	0.389964
C317	C	0.017452	-0.724865	0.419437
C318	C	0.029867	-0.775194	0.431840
H319	H	-0.040815	-0.707792	0.407301
H320	H	0.005509	-0.707795	0.361044
H321	H	0.000033	-0.716443	0.448351
H322	H	0.046364	-0.716458	0.402110
H323	H	0.047286	-0.783619	0.402921
H324	H	0.000959	-0.783611	0.449175
H325	H	0.049794	-0.792498	0.451835
H326	H	-0.090949	-0.534065	0.310634
H327	H	0.021953	-0.691318	0.320042
H328	H	-0.097376	-0.783993	0.408060
C329	C	0.066396	-0.791019	0.349004
C330	C	0.091556	-0.757698	0.324092
C331	C	0.141489	-0.783231	0.316828
H332	H	0.071164	-0.810980	0.379738
H333	H	0.078435	-0.810974	0.330232
H334	H	0.079520	-0.737751	0.342864
H335	H	0.086802	-0.737736	0.293354
H336	H	0.153529	-0.803187	0.298056
H337	H	0.146253	-0.803192	0.347564
H338	H	0.158567	-0.760627	0.299921
H339	H	-0.128252	-0.691169	0.377093
H340	H	-0.134369	-0.571905	0.272603
C341	C	-0.234308	-0.620063	0.468754
C342	C	-0.201010	-0.649514	0.494297
C343	C	-0.226564	-0.661933	0.544613
H344	H	-0.254271	-0.591160	0.477196
H345	H	-0.254261	-0.637421	0.477118
H346	H	-0.181065	-0.632156	0.485936
H347	H	-0.181045	-0.678423	0.485870
H348	H	-0.246517	-0.679292	0.552978
H349	H	-0.246527	-0.633028	0.553050
H350	H	-0.203975	-0.681921	0.561951
