data_functionalizedCrystal
_audit_creation_method	'MofGen! by Chris Wilmer'
_symmetry_space_group_name_H-M	'P1'
_symmetry_Int_Tables_number	1
_symmetry_cell_setting	triclinic
loop_
_symmetry_equiv_pos_as_xyz
  x,y,z
_cell_length_a	13.897449
_cell_length_b	21.295417
_cell_length_c	13.897441
_cell_angle_alpha	90.035375
_cell_angle_beta	90.020733
_cell_angle_gamma	90.030982
loop_
_atom_site_label
_atom_site_type_symbol
_atom_site_fract_x
_atom_site_fract_y
_atom_site_fract_z
Zn1	Zn	1.474622	-0.250568	0.545349
Zn2	Zn	1.807955	0.082766	0.878682
Zn3	Zn	2.141289	0.416099	1.212016
Zn4	Zn	1.474482	-0.355847	0.384037
Zn5	Zn	1.807816	-0.022513	0.717370
Zn6	Zn	2.141149	0.310820	1.050704
Zn7	Zn	1.313311	-0.250598	0.384068
Zn8	Zn	1.646645	0.082736	0.717401
Zn9	Zn	1.979978	0.416069	1.050734
Zn10	Zn	1.313259	-0.355805	0.545290
Zn11	Zn	1.646592	-0.022472	0.878623
Zn12	Zn	1.979926	0.310861	1.211956
O13	O	1.393919	-0.303204	0.464686
O14	O	1.727252	0.030129	0.798019
O15	O	2.060585	0.363462	1.131353
O16	O	1.609585	-0.264538	0.523963
O17	O	1.942919	0.068795	0.857296
O18	O	2.276252	0.402129	1.190630
O19	O	1.453066	-0.341915	0.249059
O20	O	1.786399	-0.008582	0.582393
O21	O	2.119733	0.324752	0.915726
O22	O	1.334790	-0.162504	0.405499
O23	O	1.668123	0.170829	0.738833
O24	O	2.001456	0.504162	1.072166
O25	O	1.609482	-0.341886	0.405448
O26	O	1.942816	-0.008553	0.738781
O27	O	2.276149	0.324781	1.072114
O28	O	1.453304	-0.162482	0.523992
O29	O	1.786638	0.170851	0.857326
O30	O	2.119971	0.504184	1.190659
O31	O	1.334654	-0.264589	0.249082
O32	O	1.667988	0.068744	0.582415
O33	O	2.001321	0.402078	0.915748
O34	O	1.178323	-0.264549	0.405442
O35	O	1.511656	0.068784	0.738775
O36	O	1.844989	0.402118	1.072108
O37	O	1.334701	-0.341815	0.680279
O38	O	1.668034	-0.008482	1.013613
O39	O	2.001368	0.324851	1.346946
O40	O	1.178284	-0.341844	0.523891
O41	O	1.511618	-0.008511	0.857224
O42	O	1.844951	0.324822	1.190558
O43	O	1.453254	-0.264498	0.680323
O44	O	1.786587	0.068836	1.013656
O45	O	2.119920	0.402169	1.346990
O46	O	1.453015	-0.443931	0.405390
O47	O	1.786349	-0.110597	0.738723
O48	O	2.119682	0.222736	1.072057
O49	O	1.334565	-0.443900	0.523862
O50	O	1.667899	-0.110567	0.857195
O51	O	2.001232	0.222767	1.190528
C52	C	1.143304	-0.303196	0.464664
C53	C	1.476638	0.030137	0.797997
C54	C	1.809971	0.363471	1.131331
C55	C	1.036090	-0.303207	0.464677
C56	C	1.369424	0.030126	0.798011
C57	C	1.702757	0.363459	1.131344
C58	C	0.839795	-0.303210	0.464703
C59	C	1.173129	0.030124	0.798036
C60	C	1.506462	0.363457	1.131369
C61	C	0.949028	-0.303207	0.464686
C62	C	1.282361	0.030127	0.798019
C63	C	1.615694	0.363460	1.131353
C64	C	1.393796	-0.466756	0.464637
C65	C	1.727129	-0.133423	0.797970
C66	C	2.060462	0.199911	1.131304
C67	C	1.393831	-0.536724	0.464648
C68	C	1.727165	-0.203391	0.797982
C69	C	2.060498	0.129943	1.131315
C70	C	1.455507	-0.569522	0.526392
C71	C	1.788840	-0.236189	0.859725
C72	C	2.122173	0.097145	1.193058
C73	C	1.455541	-0.635265	0.526416
C74	C	1.788874	-0.301931	0.859749
C75	C	2.122207	0.031402	1.193082
C76	C	1.393910	-0.668207	0.464679
C77	C	1.727243	-0.334873	0.798012
C78	C	2.060576	-0.001540	1.131345
C79	C	1.332223	-0.635401	0.402931
C80	C	1.665556	-0.302067	0.736264
C81	C	1.998889	0.031266	1.069598
C82	C	1.332183	-0.569659	0.402916
C83	C	1.665517	-0.236326	0.736249
C84	C	1.998850	0.097007	1.069583
N85	N	1.386620	-0.771473	0.380261
N86	N	1.719954	-0.438140	0.713595
N87	N	2.053287	-0.104806	1.046928
N88	N	1.386663	-0.833925	0.380279
N89	N	1.719997	-0.500591	0.713612
N90	N	2.053330	-0.167258	1.046945
C91	C	1.394022	-0.866281	0.464722
C92	C	1.727356	-0.532948	0.798056
C93	C	2.060689	-0.199615	1.131389
N94	N	1.401356	-0.833827	0.549150
N95	N	1.734689	-0.500494	0.882483
N96	N	2.068022	-0.167160	1.215817
N97	N	1.401318	-0.771370	0.549132
N98	N	1.734651	-0.438037	0.882465
N99	N	2.067985	-0.104703	1.215798
C100	C	1.393945	-0.739492	0.464689
C101	C	1.727278	-0.406159	0.798022
C102	C	2.060611	-0.072825	1.131355
C103	C	1.455738	-0.970365	0.526497
C104	C	1.789071	-0.637031	0.859830
C105	C	2.122404	-0.303698	1.193163
C106	C	1.455765	-1.036108	0.526522
C107	C	1.789098	-0.702775	0.859855
C108	C	2.122432	-0.369442	1.193189
C109	C	1.332452	-1.036243	0.403029
C110	C	1.665785	-0.702910	0.736362
C111	C	1.999119	-0.369577	1.069696
C112	C	1.332420	-0.970501	0.403012
C113	C	1.665753	-0.637167	0.736346
C114	C	1.999086	-0.303834	1.069679
C115	C	1.394068	-0.937565	0.464745
C116	C	1.727401	-0.604232	0.798078
C117	C	2.060734	-0.270899	1.131411
C118	C	1.645512	-0.303213	0.464708
C119	C	1.978845	0.030120	0.798042
C120	C	2.312178	0.363453	1.131375
C121	C	1.752726	-0.303217	0.464718
C122	C	2.086059	0.030116	0.798051
C123	C	2.419392	0.363450	1.131385
C124	C	1.393987	-0.303149	0.716279
C125	C	1.727320	0.030185	1.049612
C126	C	2.060654	0.363518	1.382946
C127	C	1.394016	-0.303125	0.823493
C128	C	1.727350	0.030208	1.156826
C129	C	2.060683	0.363542	1.490160
C130	C	1.394068	-0.139014	0.464756
C131	C	1.727402	0.194319	0.798089
C132	C	2.060735	0.527653	1.131423
C133	C	1.394132	-0.069046	0.464786
C134	C	1.727466	0.264287	0.798119
C135	C	2.060799	0.597621	1.131453
C136	C	1.393906	-0.303214	0.214072
C137	C	1.727239	0.030119	0.547405
C138	C	2.060573	0.363452	0.880738
C139	C	1.394064	-0.303061	0.106858
C140	C	1.727397	0.030273	0.440191
C141	C	2.060730	0.363606	0.773525
C142	C	1.394043	-0.303082	1.019788
C143	C	1.727376	0.030251	1.353122
C144	C	2.060709	0.363584	1.686455
C145	C	1.394025	-0.303108	0.910556
C146	C	1.727358	0.030226	1.243889
C147	C	2.060692	0.363559	1.577222
H148	H	1.505756	-0.661974	0.576706
H149	H	1.839089	-0.328641	0.910039
H150	H	2.172423	0.004693	1.243372
H151	H	1.282040	-0.662226	0.352667
H152	H	1.615373	-0.328893	0.686000
H153	H	1.948707	0.004441	1.019333
N154	N	1.265662	-0.534280	0.336317
N155	N	1.598995	-0.200946	0.669650
N156	N	1.932329	0.132387	1.002983
H157	H	1.226621	-0.565121	0.297210
H158	H	1.559954	-0.231788	0.630543
H159	H	1.893287	0.101545	0.963876
H160	H	1.304938	-0.507004	0.291706
H161	H	1.638271	-0.173671	0.625040
H162	H	1.971605	0.159662	0.958373
N163	N	1.522222	-0.934836	0.593077
N164	N	1.855556	-0.601502	0.926411
N165	N	2.188889	-0.268169	1.259744
H166	H	1.561295	-0.965592	0.632202
H167	H	1.894628	-0.632258	0.965536
H168	H	2.227961	-0.298925	1.298869
H169	H	1.482919	-0.907558	0.637672
H170	H	1.816253	-0.574224	0.971005
H171	H	2.149586	-0.240891	1.304338
H172	H	1.505988	-1.062811	0.576805
H173	H	1.839321	-0.729478	0.910139
H174	H	2.172655	-0.396145	1.243472
N175	N	1.521987	-0.534003	0.592985
N176	N	1.855321	-0.200670	0.926318
N177	N	2.188654	0.132663	1.259651
H178	H	1.482745	-0.506730	0.637644
H179	H	1.816079	-0.173397	0.970977
H180	H	2.149412	0.159937	1.304310
H181	H	1.566681	-0.506755	0.553754
H182	H	1.900014	-0.173421	0.887087
H183	H	2.233348	0.159912	1.220420
N184	N	1.265969	-1.071764	0.336447
N185	N	1.599302	-0.738430	0.669780
N186	N	1.932636	-0.405097	1.003114
H187	H	1.275349	-1.118388	0.345827
H188	H	1.608682	-0.785055	0.679160
H189	H	1.942016	-0.451721	1.012493
H190	H	1.281011	-1.060300	0.267567
H191	H	1.614344	-0.726966	0.600900
H192	H	1.947677	-0.393633	0.934234
H193	H	1.282202	-0.943795	0.352731
H194	H	1.615535	-0.610461	0.686064
H195	H	1.948869	-0.277128	1.019398
