data_functionalizedCrystal
_audit_creation_method	'MofGen! by Chris Wilmer'
_symmetry_space_group_name_H-M	'P1'
_symmetry_Int_Tables_number	1
_symmetry_cell_setting	triclinic
loop_
_symmetry_equiv_pos_as_xyz
  x,y,z
_cell_length_a	12.759401
_cell_length_b	12.759393
_cell_length_c	12.759393
_cell_angle_alpha	89.972500
_cell_angle_beta	90.020938
_cell_angle_gamma	89.983648
loop_
_atom_site_label
_atom_site_type_symbol
_atom_site_fract_x
_atom_site_fract_y
_atom_site_fract_z
Zn1	Zn	1.606265	0.418173	0.594042
Zn2	Zn	1.606156	0.593889	0.418371
Zn3	Zn	1.430564	0.418229	0.418377
Zn4	Zn	1.430556	0.593815	0.594009
O5	O	1.518385	0.506026	0.506200
O6	O	1.753272	0.441489	0.570750
O7	O	1.582821	0.570641	0.271351
O8	O	1.453921	0.271200	0.441696
O9	O	1.753192	0.570587	0.441686
O10	O	1.583008	0.271159	0.570756
O11	O	1.453815	0.441585	0.271355
O12	O	1.283542	0.441513	0.441663
O13	O	1.453906	0.570462	0.741034
O14	O	1.283536	0.570516	0.570699
O15	O	1.582999	0.441418	0.741059
O16	O	1.582813	0.740900	0.441653
O17	O	1.453800	0.740846	0.570693
C18	C	1.245418	0.506014	0.506179
C19	C	1.128641	0.506033	0.506195
C20	C	1.073804	0.573307	0.573278
C21	C	0.964080	0.573311	0.573299
C22	C	0.964041	0.438765	0.439144
C23	C	1.073763	0.438756	0.439130
C24	C	1.518322	0.778994	0.506192
C25	C	1.518392	0.895771	0.506224
C26	C	1.652834	0.895773	0.371955
C27	C	1.720082	0.950636	0.304837
C28	C	1.720143	1.060357	0.304873
C29	C	1.652952	1.115219	0.372036
C30	C	1.585703	1.060357	0.439154
C31	C	1.585647	0.950633	0.439109
C32	C	1.451268	1.060354	0.573427
C33	C	1.451200	0.950632	0.573387
C34	C	1.384076	1.115216	0.640590
C35	C	1.316821	1.060354	0.707705
C36	C	1.316762	0.950626	0.707666
C37	C	1.383951	0.895770	0.640506
C38	C	1.792419	0.506040	0.506221
C39	C	1.909195	0.506046	0.506230
C40	C	1.518464	0.505925	0.780233
C41	C	1.518497	0.505883	0.897010
C42	C	1.518477	1.231993	0.506247
C43	C	1.518517	1.115216	0.506308
C44	C	1.518368	0.506051	0.233232
C45	C	1.518538	0.505798	0.116456
C46	C	1.585721	0.438679	0.951886
C47	C	1.585739	0.438633	1.061611
C48	C	1.451306	0.573005	1.061572
C49	C	1.451284	0.573044	0.951850
H50	H	1.652777	0.806432	0.371906
H51	H	1.118413	0.383967	0.384502
O52	O	1.792573	0.891467	0.232417
H53	H	1.781237	0.805953	0.243665
O54	O	1.132986	0.645852	0.645634
H55	H	1.183008	0.598876	0.699151
O56	O	1.792669	1.119541	0.232481
H57	H	1.839377	1.062964	0.185767
H58	H	1.396535	0.627768	0.907168
H59	H	1.653017	1.204560	0.372068
H60	H	0.919436	0.628091	0.627926
O61	O	1.378814	0.645440	1.120722
H62	H	1.425823	0.698886	1.170708
O63	O	0.904852	0.366237	0.366776
H64	H	0.819342	0.377561	0.378038
O65	O	1.384128	1.233559	0.640627
H66	H	1.442166	1.262494	0.582663
H67	H	1.262004	0.905962	0.762326
O68	O	1.244350	1.119530	0.780126
H69	H	1.291375	1.169440	0.833631
O70	O	1.383868	0.777428	0.640470
H71	H	1.463081	0.748404	0.661763
O72	O	1.658204	0.366237	0.892732
H73	H	1.704944	0.319492	0.949330
H74	H	1.640478	0.383908	1.106286
