data_functionalizedCrystal
_audit_creation_method	'MofGen! by Chris Wilmer'
_symmetry_space_group_name_H-M	'P1'
_symmetry_Int_Tables_number	1
_symmetry_cell_setting	triclinic
loop_
_symmetry_equiv_pos_as_xyz
  x,y,z
_cell_length_a	13.897449
_cell_length_b	12.594516
_cell_length_c	13.897441
_cell_angle_alpha	89.971947
_cell_angle_beta	89.979267
_cell_angle_gamma	90.013095
loop_
_atom_site_label
_atom_site_type_symbol
_atom_site_fract_x
_atom_site_fract_y
_atom_site_fract_z
Zn1	Zn	1.474742	-0.423672	-0.545398
Zn2	Zn	1.974742	0.076328	-0.045398
Zn3	Zn	1.474653	-0.601683	-0.384107
Zn4	Zn	1.974653	-0.101683	0.115893
Zn5	Zn	1.313431	-0.423722	-0.384117
Zn6	Zn	1.813431	0.076278	0.115883
Zn7	Zn	1.313429	-0.601613	-0.545359
Zn8	Zn	1.813429	-0.101613	-0.045359
O9	O	1.394064	-0.512672	-0.464745
O10	O	1.894064	-0.012672	0.035255
O11	O	1.609712	-0.447293	-0.524015
O12	O	2.109712	0.052707	-0.024015
O13	O	1.453229	-0.578126	-0.249126
O14	O	1.953229	-0.078126	0.250874
O15	O	1.334868	-0.274770	-0.405531
O16	O	1.834868	0.225230	0.094469
O17	O	1.609646	-0.578077	-0.405515
O18	O	2.109646	-0.078077	0.094485
O19	O	1.453382	-0.274733	-0.524024
O20	O	1.953382	0.225267	-0.024024
O21	O	1.334781	-0.447380	-0.249134
O22	O	1.834781	0.052620	0.250866
O23	O	1.178449	-0.447312	-0.405494
O24	O	1.678449	0.052688	0.094506
O25	O	1.334865	-0.577958	-0.680346
O26	O	1.834865	-0.077958	-0.180346
O27	O	1.178448	-0.578007	-0.523958
O28	O	1.678448	-0.078007	-0.023958
O29	O	1.453380	-0.447226	-0.680375
O30	O	1.953380	0.052774	-0.180375
O31	O	1.453228	-0.750619	-0.405477
O32	O	1.953228	-0.250619	0.094523
O33	O	1.334778	-0.750568	-0.523949
O34	O	1.834778	-0.250568	-0.023949
C35	C	1.143449	-0.512658	-0.464723
C36	C	1.643449	-0.012658	0.035277
C37	C	1.036236	-0.512678	-0.464737
C38	C	1.536236	-0.012678	0.035263
C39	C	0.839940	-0.512681	-0.464762
C40	C	1.339940	-0.012681	0.035238
C41	C	0.949173	-0.512676	-0.464745
C42	C	1.449173	-0.012676	0.035255
C43	C	1.394019	-0.789213	-0.464729
C44	C	1.894019	-0.289213	0.035271
C45	C	1.394088	-0.907519	-0.464754
C46	C	1.894088	-0.407519	0.035246
C47	C	1.458588	-0.976761	-0.400386
C48	C	1.958588	-0.476761	0.099614
C49	C	1.482161	-1.047457	-0.488426
C50	C	1.982161	-0.547457	0.011574
C51	C	1.370635	-1.047622	-0.376769
C52	C	1.870635	-0.547622	0.123231
C53	C	1.417707	-0.976656	-0.552841
C54	C	1.917707	-0.476656	-0.052841
C55	C	1.306140	-0.976815	-0.441124
C56	C	1.806140	-0.476815	0.058876
C57	C	1.329680	-1.047479	-0.529225
C58	C	1.829680	-0.547479	-0.029225
C59	C	1.645657	-0.512687	-0.464768
C60	C	2.145657	-0.012687	0.035232
C61	C	1.752871	-0.512694	-0.464778
C62	C	2.252871	-0.012694	0.035222
C63	C	1.394132	-0.512578	-0.716338
C64	C	1.894132	-0.012578	-0.216338
C65	C	1.394161	-0.512538	-0.823552
C66	C	1.894161	-0.012538	-0.323552
C67	C	1.394135	-0.235052	-0.464783
C68	C	1.894135	0.264948	0.035217
C69	C	1.394165	-0.116746	-0.464799
C70	C	1.894165	0.383254	0.035201
C71	C	1.394188	-0.512466	-1.019848
C72	C	1.894188	-0.012466	-0.519848
C73	C	1.394170	-0.512509	-0.910615
C74	C	1.894170	-0.012509	-0.410615
C75	C	1.394051	-0.512689	-0.214131
C76	C	1.894051	-0.012689	0.285869
C77	C	1.394209	-0.512430	-0.106918
C78	C	1.894209	-0.012430	0.393082
H79	H	1.556570	-1.078490	-0.508439
H80	H	2.056570	-0.578490	-0.008439
H81	H	1.437501	-0.945617	-0.627331
H82	H	1.937501	-0.445617	-0.127331
O83	O	1.264755	-1.084248	-0.594388
O84	O	1.764755	-0.584248	-0.094388
C85	C	1.289867	-1.047866	-0.687017
C86	C	1.789867	-0.547866	-0.187017
H87	H	1.369887	-1.028047	-0.688920
H88	H	1.869887	-0.528047	-0.188920
H89	H	1.246350	-0.973713	-0.704876
H90	H	1.746350	-0.473713	-0.204876
C91	C	1.169705	-1.159407	-0.759169
C92	C	1.669705	-0.659407	-0.259169
C93	C	1.267989	-1.135074	-0.761508
C94	C	1.767989	-0.635074	-0.261508
H95	H	1.156207	-1.213198	-0.805120
H96	H	1.656207	-0.713198	-0.305120
H97	H	1.152784	-1.183916	-0.696764
H98	H	1.652784	-0.683916	-0.196764
H99	H	1.133453	-1.097606	-0.774049
H100	H	1.633453	-0.597606	-0.274049
H101	H	1.304239	-1.196871	-0.746617
H102	H	1.804239	-0.696871	-0.246617
H103	H	1.284916	-1.110577	-0.823913
H104	H	1.784916	-0.610577	-0.323913
H105	H	1.231752	-0.945760	-0.421085
H106	H	1.731752	-0.445760	0.078915
H107	H	1.350767	-1.078793	-0.302342
H108	H	1.850767	-0.578793	0.197658
H109	H	1.513142	-0.945709	-0.346001
H110	H	2.013142	-0.445709	0.153999
