data_functionalizedCrystal
_audit_creation_method	'MofGen! by Chris Wilmer'
_symmetry_space_group_name_H-M	'P1'
_symmetry_Int_Tables_number	1
_symmetry_cell_setting	triclinic
loop_
_symmetry_equiv_pos_as_xyz
  x,y,z
_cell_length_a	17.639115
_cell_length_b	17.640280
_cell_length_c	17.637464
_cell_angle_alpha	87.849458
_cell_angle_beta	65.693103
_cell_angle_gamma	70.389850
loop_
_atom_site_label
_atom_site_type_symbol
_atom_site_fract_x
_atom_site_fract_y
_atom_site_fract_z
Zn1	Zn	-1.315909	0.592772	-0.060680
Zn2	Zn	-1.371575	0.702708	0.104965
Zn3	Zn	-1.194721	0.548372	0.037967
Zn4	Zn	-1.205946	0.702697	-0.060715
O5	O	-1.272038	0.636637	0.005384
O6	O	-1.443327	0.625941	-0.010653
O7	O	-1.366713	0.663658	0.206700
O8	O	-1.182802	0.443668	-0.003144
O9	O	-1.484225	0.706710	0.111046
O10	O	-1.271838	0.476288	-0.075619
O11	O	-1.236779	0.550268	0.157476
O12	O	-1.076176	0.550258	-0.003178
O13	O	-1.201934	0.706693	-0.171333
O14	O	-1.084423	0.663640	-0.075679
O15	O	-1.282723	0.625931	-0.171307
O16	O	-1.377598	0.813301	0.111012
O17	O	-1.255912	0.813293	-0.010713
C18	C	-1.049176	0.602131	-0.046703
C19	C	-0.953837	0.587391	-0.068999
C20	C	-0.798174	0.524658	-0.163840
C21	C	-0.887762	0.538513	-0.142882
C22	C	-0.930342	0.622429	-0.016044
C23	C	-0.840755	0.608577	-0.036990
C24	C	-0.774677	0.559692	-0.110889
C25	C	-0.817258	0.643611	0.015961
C26	C	-0.727679	0.629763	-0.004985
C27	C	-0.661597	0.580882	-0.078883
C28	C	-0.685098	0.545844	-0.131836
C29	C	-0.883338	0.692500	0.089857
C30	C	-0.859841	0.727534	0.142808
C31	C	-0.770260	0.713682	0.121865
C32	C	-0.704178	0.664801	0.047968
C33	C	-0.746759	0.748720	0.174818
C34	C	-0.657180	0.734873	0.153871
C35	C	-0.614599	0.650954	0.027021
C36	C	-1.237372	0.671263	-0.200805
C37	C	-1.222599	0.686019	-0.288670
C38	C	-1.324034	0.841979	0.057404
C39	C	-1.346352	0.929842	0.079650
C40	C	-0.495767	0.671266	0.057678
C41	C	-0.591103	0.685988	0.079972
C42	C	-1.219859	0.430500	-0.046851
C43	C	-1.197623	0.342657	-0.069110
C44	C	-1.102791	1.218843	-0.163823
C45	C	-1.123769	1.301399	-0.142894
C46	C	-1.250532	1.301369	-0.016228
C47	C	-1.229568	1.218812	-0.037149
C48	C	-1.155696	1.177555	-0.110947
C49	C	-1.282472	1.177525	0.015727
C50	C	-1.261507	1.094974	-0.005190
C51	C	-1.187637	1.053711	-0.078983
C52	C	-1.134730	1.095004	-0.131864
C53	C	-1.356340	1.218782	0.089528
C54	C	-1.409245	1.177494	0.142404
C55	C	-1.388283	1.094943	0.121484
C56	C	-1.314413	1.053680	0.047691
C57	C	-1.441190	1.053650	0.174365
C58	C	-1.420224	0.971099	0.153448
C59	C	-1.293448	0.971129	0.026774
C60	C	-1.159720	0.748861	-0.412527
C61	C	-1.173606	0.734991	-0.329964
C62	C	-1.257730	0.650901	-0.329928
C63	C	-1.243855	0.664767	-0.412491
C64	C	-1.194849	0.713747	-0.453784
C65	C	-1.278984	0.629653	-0.453749
C66	C	-1.265106	0.643515	-0.536306
C67	C	-1.216100	0.692491	-0.577606
C68	C	-1.180971	0.727609	-0.536342
C69	C	-1.327985	0.580668	-0.412456
C70	C	-1.363114	0.545554	-0.453713
C71	C	-1.349242	0.559421	-0.536270
C72	C	-1.300235	0.608397	-0.577570
C73	C	-1.384370	0.524302	-0.577534
C74	C	-1.370492	0.538164	-0.660092
C75	C	-1.286357	0.622259	-0.660127
C76	C	-1.306604	0.602097	0.210768
C77	C	-1.321486	0.587145	0.298615
H78	H	-0.956276	0.703759	0.106918
H79	H	-1.170563	0.986490	-0.096008
N80	N	-1.307782	0.600862	-0.287759
N81	N	-1.282089	0.528605	-0.316789
H82	H	-1.317440	0.493265	-0.287009
N83	N	-0.617606	0.495921	-0.207335
N84	N	-0.638594	0.464652	-0.254616
H85	H	-0.590929	0.429404	-0.307941
N86	N	-1.413163	0.495521	-0.411520
N87	N	-1.425546	0.483147	-0.337811
H88	H	-1.460895	0.447811	-0.308011
N89	N	-1.109641	0.798881	-0.454708
N90	N	-1.078267	0.830221	-0.417869
H91	H	-1.042890	0.865536	-0.447663
N92	N	-1.484692	1.219651	0.217784
N93	N	-1.503402	1.293356	0.236454
H94	H	-1.556689	1.323129	0.289692
H95	H	-0.588657	0.569611	-0.095938
N96	N	-1.342183	0.566509	-0.328121
N97	N	-1.385939	0.522777	-0.291260
H98	H	-1.395970	0.512778	-0.231697
N99	N	-1.434412	0.474264	-0.535342
N100	N	-1.446788	0.461886	-0.461635
H101	H	-1.482129	0.426544	-0.431836
H102	H	-1.144976	0.763571	-0.296383
H103	H	-0.744368	0.484840	-0.224010
H104	H	-1.246458	0.662149	-0.693748
N105	N	-1.325980	1.343526	0.059152
N106	N	-1.344689	1.417231	0.077822
H107	H	-1.397976	1.447004	0.131060
N108	N	-0.911764	0.502708	-0.196961
N109	N	-0.953633	0.455368	-0.170313
H110	H	-0.970587	0.430082	-0.208505
N111	N	-1.516634	1.095783	0.249757
N112	N	-1.520927	1.073453	0.319054
H113	H	-1.574209	1.103208	0.372303
N114	N	-1.201939	0.706654	-0.661933
N115	N	-1.266838	0.739722	-0.678953
H116	H	-1.256839	0.749726	-0.738509
N117	N	-1.406370	0.502283	-0.702232
N118	N	-1.450119	0.458550	-0.665356
H119	H	-1.475454	0.433203	-0.695120
N120	N	-0.997852	0.672366	0.059432
N121	N	-1.077830	0.684728	0.078125
H122	H	-1.125510	0.719996	0.131432
N123	N	-1.218003	0.928980	-0.048620
N124	N	-1.213705	0.951296	-0.117923
H125	H	-1.160426	0.921527	-0.171168
H126	H	-0.913653	0.767339	0.202976
N127	N	-0.547098	0.601039	-0.048480
N128	N	-0.546216	0.620212	-0.117709
H129	H	-0.498541	0.584971	-0.171034
N130	N	-1.059281	1.052840	-0.207248
N131	N	-1.069241	1.019866	-0.262274
H132	H	-1.015957	0.990085	-0.315511
H133	H	-1.042643	1.185252	-0.223922
N134	N	-1.069708	1.343559	-0.196915
N135	N	-1.003752	1.306708	-0.262797
H136	H	-0.965569	1.336482	-0.300948
N137	N	-1.130892	0.777629	-0.578523
N138	N	-1.099518	0.808969	-0.541684
H139	H	-1.064140	0.844284	-0.571478
N140	N	-1.377751	1.303102	0.110908
N141	N	-1.323014	1.326863	0.121198
H142	H	-1.338135	1.386414	0.136299
N143	N	-1.474267	0.928930	0.207470
N144	N	-1.540220	0.965775	0.273357
H145	H	-1.578387	0.935992	0.311515
H146	H	-0.800572	0.788529	0.234983
H147	H	-0.638050	0.763403	0.196988
