data_functionalizedCrystal
_audit_creation_method	'MofGen! by Chris Wilmer'
_symmetry_space_group_name_H-M	'P1'
_symmetry_Int_Tables_number	1
_symmetry_cell_setting	triclinic
loop_
_symmetry_equiv_pos_as_xyz
  x,y,z
_cell_length_a	21.395364
_cell_length_b	17.640280
_cell_length_c	21.395355
_cell_angle_alpha	78.784922
_cell_angle_beta	89.975273
_cell_angle_gamma	78.798629
loop_
_atom_site_label
_atom_site_type_symbol
_atom_site_fract_x
_atom_site_fract_y
_atom_site_fract_z
Zn1	Zn	1.008380	-0.314779	-0.303890
Zn2	Zn	1.341713	0.018554	0.029444
Zn3	Zn	1.675047	0.351887	0.362777
Zn4	Zn	1.029492	-0.446928	-0.177964
Zn5	Zn	1.362825	-0.113595	0.155369
Zn6	Zn	1.696159	0.219739	0.488703
Zn7	Zn	0.903594	-0.314776	-0.199127
Zn8	Zn	1.236928	0.018558	0.134207
Zn9	Zn	1.570261	0.351891	0.467540
Zn10	Zn	0.924770	-0.446904	-0.282708
Zn11	Zn	1.258103	-0.113570	0.050625
Zn12	Zn	1.591436	0.219763	0.383959
O13	O	0.966559	-0.380847	-0.240922
O14	O	1.299892	-0.047513	0.092411
O15	O	1.633226	0.285820	0.425745
O16	O	1.098860	-0.332321	-0.287193
O17	O	1.432194	0.001012	0.046140
O18	O	1.765527	0.334346	0.379473
O19	O	1.012765	-0.429406	-0.093092
O20	O	1.346098	-0.096073	0.240241
O21	O	1.679431	0.237260	0.573575
O22	O	0.899797	-0.204175	-0.230745
O23	O	1.233130	0.129158	0.102589
O24	O	1.566464	0.462491	0.435922
O25	O	1.114371	-0.429410	-0.194676
O26	O	1.447704	-0.096077	0.138657
O27	O	1.781038	0.237257	0.471990
O28	O	0.976783	-0.204178	-0.307714
O29	O	1.310116	0.129155	0.025620
O30	O	1.643449	0.462489	0.358953
O31	O	0.920268	-0.332315	-0.108640
O32	O	1.253602	0.001019	0.224693
O33	O	1.586935	0.334352	0.558027
O34	O	0.818724	-0.332291	-0.210206
O35	O	1.152057	0.001042	0.123128
O36	O	1.485390	0.334376	0.456461
O37	O	0.935887	-0.429369	-0.373197
O38	O	1.269221	-0.096035	-0.039864
O39	O	1.602554	0.237298	0.293470
O40	O	0.834281	-0.429365	-0.271613
O41	O	1.167614	-0.096032	0.061721
O42	O	1.500948	0.237302	0.395054
O43	O	0.997315	-0.332297	-0.388759
O44	O	1.330649	0.001036	-0.055426
O45	O	1.663982	0.334369	0.277908
O46	O	1.033298	-0.557525	-0.174137
O47	O	1.366631	-0.224192	0.159196
O48	O	1.699964	0.109141	0.492529
O49	O	0.956359	-0.557508	-0.251092
O50	O	1.289692	-0.224174	0.082241
O51	O	1.623025	0.109159	0.415574
C52	C	0.803768	-0.380826	-0.240907
C53	C	1.137101	-0.047492	0.092426
C54	C	1.470435	0.285841	0.425759
C55	C	0.734128	-0.380836	-0.240913
C56	C	1.067462	-0.047502	0.092420
C57	C	1.400795	0.285831	0.425754
C58	C	0.240466	-0.431486	-0.272843
C59	C	0.573799	-0.098152	0.060490
C60	C	0.907133	0.235181	0.393824
C61	C	0.305901	-0.431486	-0.272836
C62	C	0.639235	-0.098152	0.060497
C63	C	0.972568	0.235181	0.393830
C64	C	0.330495	-0.380864	-0.240939
C65	C	0.663828	-0.047531	0.092394
C66	C	0.997161	0.285803	0.425728
C67	C	0.289649	-0.330252	-0.209032
C68	C	0.622982	0.003081	0.124301
C69	C	0.956315	0.336414	0.457634
C70	C	0.224216	-0.330259	-0.209035
C71	C	0.557549	0.003074	0.124299
C72	C	0.890882	0.336407	0.457632
C73	C	0.422752	-0.309636	-0.247487
C74	C	0.756085	0.023697	0.085847
C75	C	1.089418	0.357030	0.419180
C76	C	0.488183	-0.309628	-0.247489
C77	C	0.821517	0.023705	0.085844
C78	C	1.154850	0.357039	0.419178
C79	C	0.532312	-0.380843	-0.240929
C80	C	0.865645	-0.047510	0.092405
C81	C	1.198979	0.285823	0.425738
C82	C	0.511001	-0.452069	-0.234379
C83	C	0.844335	-0.118735	0.098955
C84	C	1.177668	0.214598	0.432288
C85	C	0.445568	-0.452076	-0.234381
C86	C	0.778902	-0.118742	0.098952
C87	C	1.112235	0.214591	0.432286
C88	C	0.401445	-0.380851	-0.240933
C89	C	0.734778	-0.047518	0.092400
C90	C	1.068112	0.285815	0.425734
C91	C	0.644103	-0.431456	-0.272823
C92	C	0.977436	-0.098122	0.060511
C93	C	1.310769	0.235211	0.393844
C94	C	0.709540	-0.431457	-0.272811
C95	C	1.042873	-0.098124	0.060522
C96	C	1.376206	0.235210	0.393855
C97	C	0.693284	-0.330217	-0.209012
C98	C	1.026618	0.003117	0.124322
C99	C	1.359951	0.336450	0.457655
C100	C	0.627850	-0.330222	-0.209019
C101	C	0.961183	0.003111	0.124315
C102	C	1.294517	0.336444	0.457648
C103	C	0.603263	-0.380841	-0.240927
C104	C	0.936596	-0.047507	0.092406
C105	C	1.269930	0.285826	0.425739
C106	C	0.999434	-0.586194	-0.208034
C107	C	1.332767	-0.252861	0.125300
C108	C	1.666101	0.080473	0.458633
C109	C	1.013555	-0.674043	-0.193985
C110	C	1.346888	-0.340709	0.139349
C111	C	1.680222	-0.007376	0.472682
C112	C	0.859538	-0.963056	-0.347878
C113	C	1.192871	-0.629723	-0.014544
C114	C	1.526205	-0.296390	0.318789
C115	C	0.872808	-1.045604	-0.334657
C116	C	1.206142	-0.712270	-0.001323
C117	C	1.539475	-0.378937	0.332010
C118	C	0.952975	-1.045557	-0.254605
C119	C	1.286308	-0.712223	0.078729
C120	C	1.619641	-0.378890	0.412062
C121	C	0.939713	-0.963008	-0.267821
C122	C	1.273046	-0.629675	0.065512
C123	C	1.606380	-0.296341	0.398845
C124	C	0.892994	-0.921764	-0.314458
C125	C	1.226327	-0.588431	0.018875
C126	C	1.559660	-0.255098	0.352209
C127	C	0.973169	-0.921716	-0.234401
C128	C	1.306502	-0.588382	0.098932
C129	C	1.639835	-0.255049	0.432265
C130	C	0.959906	-0.839174	-0.247615
C131	C	1.293239	-0.505841	0.085719
C132	C	1.626573	-0.172508	0.419052
C133	C	0.913187	-0.797925	-0.294248
C134	C	1.246521	-0.464592	0.039086
C135	C	1.579854	-0.131258	0.372419
C136	C	0.879731	-0.839223	-0.327671
C137	C	1.213064	-0.505889	0.005662
C138	C	1.546397	-0.172556	0.338996
C139	C	1.019885	-0.962961	-0.187762
C140	C	1.353218	-0.629628	0.145572
C141	C	1.686552	-0.296294	0.478905
C142	C	1.053341	-0.921669	-0.154342
C143	C	1.386674	-0.588335	0.178991
C144	C	1.720007	-0.255002	0.512325
C145	C	1.040081	-0.839126	-0.167558
C146	C	1.373414	-0.505792	0.165775
C147	C	1.706748	-0.172459	0.499109
C148	C	0.993362	-0.797876	-0.214191
C149	C	1.326696	-0.464543	0.119142
C150	C	1.660029	-0.131210	0.452475
C151	C	1.073538	-0.797828	-0.134135
C152	C	1.406871	-0.464494	0.199199
C153	C	1.740204	-0.131161	0.532532
C154	C	1.060275	-0.715286	-0.147348
C155	C	1.393608	-0.381953	0.185985
C156	C	1.726941	-0.048620	0.519319
C157	C	0.980099	-0.715335	-0.227405
C158	C	1.313433	-0.382001	0.105929
C159	C	1.646766	-0.048668	0.439262
C160	C	1.129986	-0.380868	-0.240937
C161	C	1.463319	-0.047535	0.092396
C162	C	1.796652	0.285798	0.425730
C163	C	1.199628	-0.380878	-0.240943
C164	C	1.532962	-0.047544	0.092390
C165	C	1.866295	0.285789	0.425723
C166	C	0.966608	-0.380831	-0.404348
C167	C	1.299942	-0.047497	-0.071015
C168	C	1.633275	0.285836	0.262319
C169	C	0.966630	-0.380824	-0.473990
C170	C	1.299963	-0.047491	-0.140657
C171	C	1.633296	0.285843	0.192676
C172	C	0.933573	-0.174697	-0.273953
C173	C	1.266906	0.158636	0.059381
C174	C	1.600240	0.491969	0.392714
C175	C	0.919516	-0.086849	-0.288028
C176	C	1.252849	0.246484	0.045305
C177	C	1.586183	0.579818	0.378638
C178	C	0.998613	-0.330277	-0.514808
C179	C	1.331946	0.003057	-0.181475
C180	C	1.665280	0.336390	0.151859
C181	C	0.998607	-0.330243	-0.580249
C182	C	1.331940	0.003091	-0.246916
C183	C	1.665273	0.336424	0.086418
C184	C	0.966626	-0.380770	-0.604867
C185	C	1.299959	-0.047437	-0.271534
C186	C	1.633292	0.285897	0.061799
C187	C	0.934635	-0.431321	-0.564041
C188	C	1.267968	-0.097987	-0.230708
C189	C	1.601302	0.235346	0.102625
C190	C	0.934637	-0.431348	-0.498603
C191	C	1.267970	-0.098014	-0.165269
C192	C	1.601304	0.235319	0.168064
C193	C	0.973071	-0.451935	-0.697144
C194	C	1.306405	-0.118601	-0.363811
C195	C	1.639738	0.214732	-0.030478
C196	C	0.973074	-0.451909	-0.762581
C197	C	1.306408	-0.118576	-0.429248
C198	C	1.639741	0.214758	-0.095915
C199	C	0.966616	-0.380687	-0.806702
C200	C	1.299950	-0.047353	-0.473368
C201	C	1.633283	0.285980	-0.140035
C202	C	0.960168	-0.309487	-0.785377
C203	C	1.293502	0.023846	-0.452044
C204	C	1.626835	0.357179	-0.118710
C205	C	0.960170	-0.309514	-0.719938
C206	C	1.293504	0.023819	-0.386605
C207	C	1.626837	0.357152	-0.053272
C208	C	0.966620	-0.380746	-0.675824
C209	C	1.299953	-0.047413	-0.342490
C210	C	1.633286	0.285921	-0.009157
C211	C	0.998594	-0.330098	-0.918478
C212	C	1.331928	0.003235	-0.585145
C213	C	1.665261	0.336568	-0.251812
C214	C	0.998584	-0.330063	-0.983921
C215	C	1.331917	0.003270	-0.650587
C216	C	1.665250	0.336604	-0.317254
C217	C	0.934616	-0.431148	-0.967711
C218	C	1.267949	-0.097815	-0.634377
C219	C	1.601283	0.235519	-0.301044
C220	C	0.934623	-0.431176	-0.902271
C221	C	1.267956	-0.097843	-0.568937
C222	C	1.601289	0.235490	-0.235604
C223	C	0.966615	-0.380652	-0.877658
C224	C	1.299949	-0.047319	-0.544325
C225	C	1.633282	0.286014	-0.210992
C226	C	0.966537	-0.380806	-0.078141
C227	C	1.299870	-0.047472	0.255192
C228	C	1.633203	0.285861	0.588526
C229	C	0.966601	-0.380590	-0.008535
C230	C	1.299935	-0.047256	0.324799
C231	C	1.633268	0.286077	0.658132
H232	H	0.386826	-0.251641	-0.252819
H233	H	0.720159	0.081692	0.080515
H234	H	1.053492	0.415025	0.413848
C235	C	0.754462	-0.487137	-0.307902
C236	C	1.087796	-0.153803	0.025432
C237	C	1.421129	0.179530	0.358765
N238	N	0.788299	-0.529076	-0.334332
N239	N	1.121632	-0.195743	-0.000999
N240	N	1.454966	0.137591	0.332334
C241	C	1.033780	-0.274515	-0.891404
C242	C	1.367113	0.058819	-0.558070
C243	C	1.700447	0.392152	-0.224737
N244	N	1.060281	-0.232647	-0.871013
N245	N	1.393614	0.100686	-0.537680
N246	N	1.726947	0.434019	-0.204347
H247	H	0.821499	-0.929474	-0.385859
H248	H	1.154832	-0.596141	-0.052525
H249	H	1.488165	-0.262808	0.280808
H250	H	0.902385	-0.730714	-0.305001
H251	H	1.235718	-0.397381	0.028333
H252	H	1.569052	-0.064048	0.361666
C253	C	0.559539	-0.530412	-0.227161
C254	C	0.892872	-0.197079	0.106172
C255	C	1.226206	0.136255	0.439505
N256	N	0.596100	-0.589418	-0.221727
N257	N	0.929434	-0.256085	0.111607
N258	N	1.262767	0.077249	0.444940
C259	C	1.104728	-0.967046	-0.103040
C260	C	1.438061	-0.633713	0.230293
C261	C	1.771395	-0.300379	0.563626
N262	N	1.143434	-1.001223	-0.064400
N263	N	1.476768	-0.667890	0.268934
N264	N	1.810101	-0.334557	0.602267
H265	H	0.624083	-0.472673	-0.298804
H266	H	0.957416	-0.139340	0.034530
H267	H	1.290750	0.193994	0.367863
C268	C	0.511618	-0.231279	-0.254695
C269	C	0.844952	0.102054	0.078639
C270	C	1.178285	0.435388	0.411972
N271	N	0.529268	-0.172264	-0.260121
N272	N	0.862601	0.161069	0.073212
N273	N	1.195935	0.494402	0.406545
C274	C	1.033768	-0.274452	-1.028821
C275	C	1.367102	0.058881	-0.695488
C276	C	1.700435	0.392214	-0.362155
N277	N	1.060271	-0.232566	-1.062641
N278	N	1.393605	0.100767	-0.729308
N279	N	1.726938	0.434100	-0.395974
H280	H	0.220452	-0.472706	-0.298823
H281	H	0.553786	-0.139373	0.034510
H282	H	0.887119	0.193961	0.367844
H283	H	1.111572	-0.831421	-0.096159
H284	H	1.444905	-0.498087	0.237174
H285	H	1.778239	-0.164754	0.570508
H286	H	0.309677	-0.289037	-0.183060
H287	H	0.643010	0.044296	0.150273
H288	H	0.976343	0.377630	0.483606
H289	H	0.978328	-0.509884	-0.779938
H290	H	1.311662	-0.176550	-0.446605
H291	H	1.644995	0.156783	-0.113271
H292	H	0.841692	-0.805641	-0.365652
H293	H	1.175025	-0.472307	-0.032319
H294	H	1.508358	-0.138974	0.301015
C295	C	0.720333	-0.274534	-0.173922
C296	C	1.053667	0.058799	0.159411
C297	C	1.387000	0.392133	0.492745
N298	N	0.740710	-0.232594	-0.147490
N299	N	1.074043	0.100740	0.185843
N300	N	1.407377	0.434073	0.519177
C301	C	0.899437	-0.486729	-0.994787
C302	C	1.232770	-0.153396	-0.661454
C303	C	1.566104	0.179937	-0.328120
N304	N	0.872939	-0.528595	-1.015184
N305	N	1.206272	-0.195261	-0.681850
N306	N	1.539605	0.138072	-0.348517
C307	C	0.928697	-0.669962	-0.278699
C308	C	1.262030	-0.336629	0.054634
C309	C	1.595364	-0.003296	0.387968
N310	N	0.889978	-0.635787	-0.317327
N311	N	1.223311	-0.302454	0.016006
N312	N	1.556644	0.030879	0.349339
C313	C	0.980189	-0.530291	-0.648617
C314	C	1.313522	-0.196958	-0.315283
C315	C	1.646855	0.136375	0.018050
N316	N	0.985554	-0.589309	-0.612067
N317	N	1.318887	-0.255975	-0.278733
N318	N	1.652220	0.077358	0.054600
H319	H	1.087517	-0.681666	-0.120133
H320	H	1.420851	-0.348333	0.213200
H321	H	1.754184	-0.014999	0.546533
C322	C	0.899441	-0.486786	-0.857369
C323	C	1.232774	-0.153453	-0.524035
C324	C	1.566108	0.179880	-0.190702
N325	N	0.872938	-0.528672	-0.823548
N326	N	1.206272	-0.195339	-0.490215
N327	N	1.539605	0.137994	-0.156882
H328	H	0.845569	-1.079221	-0.361882
H329	H	1.178902	-0.745887	-0.028549
H330	H	1.512235	-0.412554	0.304784
C331	C	0.179291	-0.274578	-0.173947
C332	C	0.512625	0.058755	0.159387
C333	C	0.845958	0.392088	0.492720
N334	N	0.145453	-0.232636	-0.147521
N335	N	0.478786	0.100698	0.185813
N336	N	0.812119	0.434031	0.519146
H337	H	0.991012	-1.079148	-0.216631
H338	H	1.324345	-0.745815	0.116702
H339	H	1.657678	-0.412482	0.450035
H340	H	0.908593	-0.472458	-0.584090
H341	H	1.241927	-0.139125	-0.250757
H342	H	1.575260	0.194209	0.082577
C343	C	1.034475	-1.053760	-0.173230
C344	C	1.367809	-0.720426	0.160103
C345	C	1.701142	-0.387093	0.493436
N346	N	1.045466	-1.122149	-0.162287
N347	N	1.378799	-0.788816	0.171046
N348	N	1.712133	-0.455483	0.504379
C349	C	1.033796	-0.274688	-0.487740
C350	C	1.367129	0.058645	-0.154407
C351	C	1.700463	0.391978	0.178927
N352	N	1.060293	-0.232815	-0.467352
N353	N	1.393626	0.100518	-0.134019
N354	N	1.726960	0.433851	0.199314
H355	H	0.908589	-0.472508	-0.465368
H356	H	1.241922	-0.139175	-0.132035
H357	H	1.575256	0.194159	0.201298
C358	C	1.033797	-0.274640	-0.625156
C359	C	1.367130	0.058694	-0.291822
C360	C	1.700464	0.392027	0.041511
N361	N	1.060305	-0.232761	-0.658977
N362	N	1.393638	0.100572	-0.325644
N363	N	1.726971	0.433905	0.007689
H364	H	0.954918	-0.251542	-0.702579
H365	H	1.288252	0.081792	-0.369246
H366	H	1.621585	0.415125	-0.035912
H367	H	0.954911	-0.251491	-0.821299
H368	H	1.288244	0.081842	-0.487966
H369	H	1.621577	0.415175	-0.154633
H370	H	0.339157	-0.472697	-0.298815
H371	H	0.672491	-0.139364	0.034518
H372	H	1.005824	0.193970	0.367852
H373	H	0.428220	-0.510070	-0.229046
H374	H	0.761554	-0.176736	0.104287
H375	H	1.094887	0.156597	0.437620
H376	H	0.594598	-0.289009	-0.183045
H377	H	0.927932	0.044324	0.150288
H378	H	1.261265	0.377658	0.483622
