data_functionalizedCrystal
_audit_creation_method	'MofGen! by Chris Wilmer'
_symmetry_space_group_name_H-M	'P1'
_symmetry_Int_Tables_number	1
_symmetry_cell_setting	triclinic
loop_
_symmetry_equiv_pos_as_xyz
  x,y,z
_cell_length_a	23.532407
_cell_length_b	23.532407
_cell_length_c	15.186229
_cell_angle_alpha	89.991614
_cell_angle_beta	89.999328
_cell_angle_gamma	82.848712
loop_
_atom_site_label
_atom_site_type_symbol
_atom_site_fract_x
_atom_site_fract_y
_atom_site_fract_z
O1	O	0.755259	0.069135	-0.073182
O2	O	1.088592	0.402468	0.260151
O3	O	1.421925	0.735801	0.593485
O4	O	0.589395	0.079138	-0.073197
O5	O	0.922729	0.412471	0.260136
O6	O	1.256062	0.745804	0.593470
O7	O	0.677329	-0.008796	-0.073173
O8	O	1.010662	0.324538	0.260160
O9	O	1.343995	0.657871	0.593494
O10	O	0.667325	0.157068	-0.073206
O11	O	1.000659	0.490401	0.260127
O12	O	1.333992	0.823734	0.593461
O13	O	0.677323	-0.008797	0.073284
O14	O	1.010656	0.324537	0.406618
O15	O	1.343989	0.657870	0.739951
O16	O	0.589389	0.079136	0.073260
O17	O	0.922723	0.412470	0.406594
O18	O	1.256056	0.745803	0.739927
O19	O	0.755253	0.069133	0.073275
O20	O	1.088586	0.402467	0.406609
O21	O	1.421919	0.735800	0.739942
Zn22	Zn	0.672320	0.074135	0.096521
Zn23	Zn	1.005653	0.407468	0.429854
Zn24	Zn	1.338987	0.740801	0.763188
Zn25	Zn	0.672328	0.074136	-0.096443
Zn26	Zn	1.005661	0.407470	0.236891
Zn27	Zn	1.338994	0.740803	0.570224
O28	O	0.667319	0.157067	0.073251
O29	O	1.000653	0.490400	0.406585
O30	O	1.333986	0.823733	0.739918
C31	C	0.568176	0.078882	0.000030
C32	C	0.901510	0.412216	0.333363
C33	C	1.234843	0.745549	0.666697
C34	C	0.504959	0.078116	0.000025
C35	C	0.838293	0.411450	0.333358
C36	C	1.171626	0.744783	0.666691
C37	C	0.238792	0.022921	0.000060
C38	C	0.572125	0.356254	0.333393
C39	C	0.905458	0.689588	0.666726
C40	C	0.298192	0.023632	0.000059
C41	C	0.631525	0.356966	0.333393
C42	C	0.964859	0.690299	0.666726
O43	O	0.334937	-0.020153	0.000099
O44	O	0.668270	0.313180	0.333432
O45	O	1.001603	0.646513	0.666765
N46	N	0.320818	0.075909	0.000043
N47	N	0.654152	0.409242	0.333376
N48	N	0.987485	0.742575	0.666710
C49	C	0.284041	0.127477	0.000036
C50	C	0.617374	0.460810	0.333369
C51	C	0.950707	0.794144	0.666703
O52	O	0.308740	0.172007	0.000023
O53	O	0.642074	0.505341	0.333356
O54	O	0.975407	0.838674	0.666689
C55	C	0.224642	0.126765	0.000043
C56	C	0.557975	0.460098	0.333376
C57	C	0.891308	0.793432	0.666709
C58	C	0.202019	0.074485	0.000050
C59	C	0.535352	0.407819	0.333383
C60	C	0.868686	0.741152	0.666717
C61	C	0.216169	-0.029354	0.000068
C62	C	0.549502	0.303979	0.333402
C63	C	0.882835	0.637312	0.666735
C64	C	0.156772	-0.030066	0.000067
C65	C	0.490106	0.303268	0.333400
C66	C	0.823439	0.636601	0.666734
C67	C	0.119999	0.021499	0.000057
C68	C	0.453333	0.354832	0.333391
C69	C	0.786666	0.688165	0.666724
C70	C	0.142623	0.073774	0.000049
C71	C	0.475956	0.407107	0.333382
C72	C	0.809289	0.740441	0.666715
C73	C	0.187865	0.178333	0.000042
C74	C	0.521199	0.511666	0.333375
C75	C	0.854532	0.844999	0.666708
C76	C	0.128463	0.177616	0.000049
C77	C	0.461796	0.510949	0.333382
C78	C	0.795129	0.844283	0.666716
C79	C	0.105840	0.125336	0.000057
C80	C	0.439173	0.458670	0.333390
C81	C	0.772507	0.792003	0.666723
C82	C	0.046454	0.124627	0.000038
C83	C	0.379787	0.457960	0.333371
C84	C	0.713120	0.791294	0.666704
N85	N	0.023828	0.072351	0.000054
N86	N	0.357161	0.405684	0.333388
N87	N	0.690494	0.739017	0.666721
C88	C	0.060600	0.020787	0.000064
C89	C	0.393934	0.354120	0.333397
C90	C	0.727267	0.687453	0.666731
C91	C	0.408783	0.128968	0.000023
C92	C	0.742117	0.462302	0.333357
C93	C	1.075450	0.795635	0.666690
C94	C	0.468181	0.129681	0.000010
C95	C	0.801514	0.463014	0.333344
C96	C	1.134848	0.796348	0.666677
C97	C	0.482328	0.025836	0.000036
C98	C	0.815662	0.359170	0.333369
C99	C	1.148995	0.692503	0.666702
C100	C	0.422929	0.025124	0.000042
C101	C	0.756263	0.358457	0.333376
C102	C	1.089596	0.691791	0.666709
C103	C	0.386157	0.076692	0.000040
C104	C	0.719490	0.410025	0.333373
C105	C	1.052824	0.743359	0.666706
C106	C	-0.064136	0.019297	0.000060
C107	C	0.269197	0.352630	0.333394
C108	C	0.602530	0.685964	0.666727
C109	C	-0.123538	0.018590	0.000056
C110	C	0.209795	0.351924	0.333389
C111	C	0.543128	0.685257	0.666722
C112	C	-0.137680	0.122435	0.000035
C113	C	0.195653	0.455768	0.333368
C114	C	0.528986	0.789101	0.666702
C115	C	-0.078284	0.123142	0.000035
C116	C	0.255050	0.456475	0.333369
C117	C	0.588383	0.789808	0.666702
C118	C	-0.041512	0.071568	0.000051
C119	C	0.291821	0.404901	0.333384
C120	C	0.625154	0.738235	0.666718
O121	O	0.009675	0.168390	0.000002
O122	O	0.343008	0.501723	0.333335
O123	O	0.676341	0.835057	0.666669
O124	O	0.035892	-0.023737	0.000089
O125	O	0.369226	0.309597	0.333422
O126	O	0.702559	0.642930	0.666755
C127	C	0.677071	-0.030012	0.000058
C128	C	1.010404	0.303321	0.333391
C129	C	1.343738	0.636654	0.666725
C130	C	0.676305	-0.093229	0.000065
C131	C	1.009638	0.240104	0.333398
C132	C	1.342972	0.573437	0.666731
C133	C	0.723538	-0.492332	0.000021
C134	C	1.056872	-0.158999	0.333354
C135	C	1.390205	0.174334	0.666687
C136	C	0.722827	-0.551733	0.000014
C137	C	1.056160	-0.218399	0.333347
C138	C	1.389494	0.114934	0.666681
O139	O	0.766613	-0.588477	-0.000015
O140	O	1.099946	-0.255144	0.333319
O141	O	1.433280	0.078190	0.666652
N142	N	0.670551	-0.574359	0.000010
N143	N	1.003884	-0.241025	0.333343
N144	N	1.337217	0.092308	0.666677
C145	C	0.618982	-0.537581	0.000003
C146	C	0.952316	-0.204248	0.333337
C147	C	1.285649	0.129085	0.666670
O148	O	0.574452	-0.562281	-0.000001
O149	O	0.907785	-0.228948	0.333332
O150	O	1.241119	0.104386	0.666665
C151	C	0.619695	-0.478182	0.000004
C152	C	0.953028	-0.144849	0.333337
C153	C	1.286361	0.188485	0.666671
C154	C	0.671974	-0.455559	0.000017
C155	C	1.005308	-0.122226	0.333350
C156	C	1.338641	0.211107	0.666684
C157	C	0.775814	-0.469709	0.000033
C158	C	1.109147	-0.136376	0.333366
C159	C	1.442481	0.196958	0.666699
C160	C	0.776525	-0.410313	0.000041
C161	C	1.109858	-0.076980	0.333375
C162	C	1.443192	0.256354	0.666708
C163	C	0.724961	-0.373540	0.000038
C164	C	1.058294	-0.040207	0.333371
C165	C	1.391628	0.293127	0.666704
C166	C	0.672685	-0.396163	0.000025
C167	C	1.006019	-0.062830	0.333359
C168	C	1.339352	0.270503	0.666692
C169	C	0.568127	-0.441406	-0.000009
C170	C	0.901460	-0.108072	0.333325
C171	C	1.234794	0.225261	0.666658
C172	C	0.568843	-0.382003	-0.000009
C173	C	0.902177	-0.048670	0.333324
C174	C	1.235510	0.284663	0.666658
C175	C	0.621123	-0.359381	0.000004
C176	C	0.954457	-0.026047	0.333337
C177	C	1.287790	0.307286	0.666671
C178	C	0.621832	-0.299994	0.000030
C179	C	0.955166	0.033339	0.333363
C180	C	1.288499	0.366672	0.666697
N181	N	0.674109	-0.277368	0.000034
N182	N	1.007442	0.055965	0.333368
N183	N	1.340775	0.389299	0.666701
C184	C	0.725673	-0.314141	0.000038
C185	C	1.059006	0.019192	0.333371
C186	C	1.392340	0.352526	0.666705
C187	C	0.617491	-0.662324	0.000001
C188	C	0.950824	-0.328990	0.333334
C189	C	1.284158	0.004343	0.666668
C190	C	0.616778	-0.721722	0.000007
C191	C	0.950112	-0.388388	0.333340
C192	C	1.283445	-0.055055	0.666674
C193	C	0.720623	-0.735869	0.000016
C194	C	1.053957	-0.402536	0.333349
C195	C	1.387290	-0.069202	0.666682
C196	C	0.721335	-0.676470	0.000016
C197	C	1.054669	-0.343137	0.333349
C198	C	1.388002	-0.009803	0.666683
C199	C	0.669767	-0.639698	0.000005
C200	C	1.003101	-0.306364	0.333338
C201	C	1.336434	0.026969	0.666672
C202	C	0.727163	-0.189404	0.000056
C203	C	1.060496	0.143929	0.333390
C204	C	1.393829	0.477262	0.666723
C205	C	0.727869	-0.130002	0.000068
C206	C	1.061203	0.203331	0.333402
C207	C	1.394536	0.536664	0.666735
C208	C	0.624025	-0.115860	0.000055
C209	C	0.957358	0.217473	0.333388
C210	C	1.290691	0.550807	0.666722
C211	C	0.623318	-0.175257	0.000047
C212	C	0.956651	0.158076	0.333381
C213	C	1.289984	0.491410	0.666714
C214	C	0.674891	-0.212028	0.000045
C215	C	1.008225	0.121305	0.333379
C216	C	1.341558	0.454639	0.666712
O217	O	0.578069	-0.263215	0.000055
O218	O	0.911403	0.070118	0.333388
O219	O	1.244736	0.403452	0.666722
O220	O	0.770196	-0.289433	0.000031
O221	O	1.103529	0.043900	0.333365
O222	O	1.436863	0.377234	0.666698
C223	C	0.776472	0.069389	0.000047
C224	C	1.109805	0.402722	0.333380
C225	C	1.443138	0.736055	0.666713
C226	C	0.839689	0.070155	0.000046
C227	C	1.173022	0.403488	0.333379
C228	C	1.506355	0.736821	0.666712
C229	C	0.667577	0.178283	0.000018
C230	C	1.000910	0.511617	0.333352
C231	C	1.334244	0.844950	0.666685
C232	C	0.668343	0.241500	0.000006
C233	C	1.001676	0.574834	0.333339
C234	C	1.335010	0.908167	0.666673
N235	N	0.672319	0.074133	0.228214
N236	N	1.005652	0.407467	0.561547
N237	N	1.338986	0.740800	0.894880
N238	N	0.672333	0.074133	-0.228135
N239	N	1.005667	0.407467	0.105198
N240	N	1.339000	0.740800	0.438531
C241	C	0.711269	0.035209	0.453947
C242	C	1.044602	0.368543	0.787281
C243	C	1.377936	0.701876	1.120614
C244	C	0.711271	0.035208	0.546137
C245	C	1.044604	0.368541	0.879470
C246	C	1.377938	0.701875	1.212804
C247	C	0.633379	0.113059	0.546125
C248	C	0.966713	0.446392	0.879458
C249	C	1.300046	0.779726	1.212791
C250	C	0.633375	0.113057	0.453937
C251	C	0.966709	0.446390	0.787270
C252	C	1.300042	0.779724	1.120603
C253	C	0.672323	0.074133	0.407850
C254	C	1.005657	0.407466	0.741184
C255	C	1.338990	0.740800	1.074517
C256	C	0.672329	0.074133	0.592228
C257	C	1.005663	0.407467	0.925561
C258	C	1.338996	0.740800	1.258895
C259	C	0.672331	0.074132	0.692184
C260	C	1.005664	0.407466	1.025517
C261	C	1.338998	0.740799	1.358851
C262	C	0.672321	0.074133	0.307888
C263	C	1.005654	0.407467	0.641221
C264	C	1.338988	0.740800	0.974555
H265	H	0.246104	-0.071347	0.000079
H266	H	0.579437	0.261987	0.333412
H267	H	0.912771	0.595320	0.666746
O268	O	0.753268	-0.006777	0.404235
O269	O	1.086602	0.326556	0.737569
O270	O	1.419935	0.659890	1.070902
H271	H	0.780345	-0.033847	0.451781
H272	H	1.113679	0.299486	0.785115
H273	H	1.447012	0.632819	1.118448
O274	O	0.591382	0.155047	0.595838
O275	O	0.924715	0.488380	0.929171
O276	O	1.258049	0.821713	1.262504
H277	H	0.564298	0.182111	0.548293
H278	H	0.897631	0.515444	0.881626
H279	H	1.230965	0.848777	1.214960
H280	H	0.574207	-0.740135	0.000011
H281	H	0.907540	-0.406802	0.333345
H282	H	1.240874	-0.073469	0.666678
O283	O	0.753283	-0.006766	0.595859
O284	O	1.086617	0.326567	0.929193
O285	O	1.419950	0.659900	1.262526
H286	H	0.780368	-0.033827	0.548322
H287	H	1.113701	0.299507	0.881655
H288	H	1.447035	0.632840	1.214988
H289	H	0.601658	0.144754	0.416402
H290	H	0.934992	0.478087	0.749735
H291	H	1.268325	0.811420	1.083069
H292	H	-0.141954	-0.023984	0.000059
H293	H	0.191379	0.309349	0.333393
H294	H	0.524713	0.642683	0.666726
O295	O	0.212258	0.234720	0.000038
O296	O	0.545592	0.568053	0.333372
O297	O	0.878925	0.901386	0.666705
H298	H	0.238985	0.237523	0.059729
H299	H	0.572318	0.570856	0.393063
H300	H	0.905651	0.904189	0.726396
H301	H	-0.034204	-0.022699	0.000073
H302	H	0.299130	0.310634	0.333406
H303	H	0.632463	0.643967	0.666740
H304	H	0.098525	0.219610	0.000051
H305	H	0.431858	0.552943	0.333384
H306	H	0.765191	0.886277	0.666718
H307	H	0.404515	-0.017447	0.000049
H308	H	0.737848	0.315887	0.333382
H309	H	1.071181	0.649220	0.666716
H310	H	0.769159	-0.219337	0.000051
H311	H	1.102492	0.113996	0.333384
H312	H	1.435825	0.447330	0.666718
O313	O	0.511737	-0.465794	-0.000030
O314	O	0.845071	-0.132461	0.333303
O315	O	1.178404	0.200873	0.666637
H316	H	0.508914	-0.492520	0.059663
H317	H	0.842247	-0.159187	0.392997
H318	H	1.175581	0.174147	0.726330
O319	O	0.492579	0.186068	-0.000010
O320	O	0.825913	0.519401	0.333323
O321	O	1.159246	0.852735	0.666656
H322	H	0.519305	0.188876	0.059680
H323	H	0.852639	0.522209	0.393013
H324	H	1.185972	0.855542	0.726346
H325	H	-0.059864	0.165712	0.000028
H326	H	0.273470	0.499045	0.333362
H327	H	0.606803	0.832379	0.666695
O328	O	0.561867	-0.622663	0.000002
O329	O	0.895201	-0.289330	0.333335
O330	O	1.228534	0.044004	0.666669
H331	H	0.559708	-0.595267	0.059694
H332	H	0.893041	-0.261934	0.393028
H333	H	1.226374	0.071400	0.726361
O334	O	0.568410	-0.076193	0.000050
O335	O	0.901743	0.257140	0.333383
O336	O	1.235076	0.590473	0.666716
H337	H	0.577693	-0.031090	0.000047
H338	H	0.911026	0.302243	0.333381
H339	H	1.244359	0.635576	0.666714
H340	H	-0.167631	0.164417	0.000023
H341	H	0.165702	0.497750	0.333356
H342	H	0.499035	0.831084	0.666689
H343	H	0.512280	-0.016150	0.000044
H344	H	0.845613	0.317183	0.333377
H345	H	1.178947	0.650516	0.666710
O346	O	0.132375	-0.086453	0.000098
O347	O	0.465708	0.246880	0.333431
O348	O	0.799041	0.580214	0.666764
H349	H	0.167932	-0.122184	0.000118
H350	H	0.501265	0.211149	0.333451
H351	H	0.834598	0.544483	0.666784
O352	O	0.369121	0.184591	0.000006
O353	O	0.702455	0.517924	0.333339
O354	O	1.035788	0.851258	0.666673
H355	H	0.394839	0.221057	-0.000015
H356	H	0.728172	0.554391	0.333319
H357	H	1.061506	0.887724	0.666652
O358	O	0.832915	-0.385921	0.000030
O359	O	1.166249	-0.052588	0.333364
O360	O	1.499582	0.280746	0.666697
H361	H	0.857681	-0.400728	0.059716
H362	H	1.191014	-0.067395	0.393049
H363	H	1.524347	0.265939	0.726383
O364	O	0.784258	-0.105601	0.000069
O365	O	1.117592	0.227733	0.333402
O366	O	1.450925	0.561066	0.666735
H367	H	0.819993	-0.141154	0.000057
H368	H	1.153326	0.192179	0.333390
H369	H	1.486660	0.525513	0.666723
O370	O	0.831434	-0.509368	0.000049
O371	O	1.164767	-0.176034	0.333383
O372	O	1.498101	0.157299	0.666716
H373	H	0.867898	-0.483647	0.000067
H374	H	1.201231	-0.150314	0.333400
H375	H	1.534565	0.183020	0.666733
H376	H	0.762610	-0.765821	0.000015
H377	H	1.095943	-0.432487	0.333349
H378	H	1.429276	-0.099154	0.666682
O379	O	0.777721	-0.652070	0.000014
O380	O	1.111055	-0.318737	0.333347
O381	O	1.444388	0.014597	0.666680
H382	H	0.813454	-0.687625	0.000009
H383	H	1.146788	-0.354292	0.333342
H384	H	1.480121	-0.020959	0.666676
H385	H	0.526850	-0.352065	-0.000019
H386	H	0.860183	-0.018732	0.333314
H387	H	1.193516	0.314601	0.666647
O388	O	0.566933	-0.199663	0.000036
O389	O	0.900266	0.133670	0.333370
O390	O	1.233600	0.467003	0.666703
H391	H	0.531197	-0.164111	0.000031
H392	H	0.864530	0.169222	0.333365
H393	H	1.197864	0.502556	0.666698
