data_functionalizedCrystal
_audit_creation_method	'MofGen! by Chris Wilmer'
_symmetry_space_group_name_H-M	'P1'
_symmetry_Int_Tables_number	1
_symmetry_cell_setting	triclinic
loop_
_symmetry_equiv_pos_as_xyz
  x,y,z
_cell_length_a	16.109302
_cell_length_b	19.188930
_cell_length_c	15.186229
_cell_angle_alpha	90.005403
_cell_angle_beta	90.007553
_cell_angle_gamma	83.303281
loop_
_atom_site_label
_atom_site_type_symbol
_atom_site_fract_x
_atom_site_fract_y
_atom_site_fract_z
O1	O	1.102836	0.089743	0.073278
O2	O	0.860737	0.100910	0.073273
O3	O	0.988773	-0.006313	0.073258
O4	O	0.974800	0.196966	0.073292
O5	O	0.988758	-0.006307	-0.073199
O6	O	0.860722	0.100917	-0.073185
O7	O	1.102821	0.089749	-0.073179
Zn8	Zn	0.981769	0.095334	-0.096435
Zn9	Zn	0.981789	0.095326	0.096529
O10	O	0.974785	0.196972	-0.073165
C11	C	0.829756	0.100461	0.000043
C12	C	0.737466	0.099105	0.000040
C13	C	0.525127	0.095971	-0.079786
C14	C	0.438411	0.094689	-0.079783
C15	C	0.438438	0.094686	0.079893
C16	C	0.525153	0.095963	0.079889
C17	C	0.568495	0.096609	0.000047
C18	C	0.395064	0.094050	0.000054
C19	C	0.301043	0.092660	0.000058
C20	C	0.662522	0.097998	0.000043
C21	C	0.988313	-0.032322	0.000027
C22	C	0.986955	-0.109830	0.000020
C23	C	1.062082	-0.154578	0.000017
C24	C	1.060806	-0.227404	0.000031
C25	C	0.984398	-0.255480	0.000030
C26	C	0.909261	-0.210722	0.000037
C27	C	0.910539	-0.137897	0.000032
N28	N	0.925989	-0.363619	-0.049814
N29	N	0.924779	-0.432801	-0.049810
C30	C	0.980542	-0.474897	0.000048
N31	N	1.037573	-0.445201	0.049892
N32	N	1.038784	-0.376013	0.049885
C33	C	0.983004	-0.334446	0.000036
C34	C	1.054291	-0.598613	0.000062
C35	C	1.053012	-0.671441	0.000081
C36	C	0.901465	-0.654757	0.000079
C37	C	0.902746	-0.581931	0.000068
C38	C	0.979162	-0.553864	0.000055
C39	C	1.133802	0.090198	0.000052
C40	C	1.226093	0.091555	0.000061
C41	C	0.975245	0.222981	0.000068
C42	C	0.976604	0.300489	0.000082
N43	N	0.981762	0.095339	-0.228128
C44	C	1.032045	0.137687	-0.453842
C45	C	1.032054	0.137682	-0.546032
C46	C	0.931518	0.052962	-0.546058
C47	C	0.931514	0.052963	-0.453870
C48	C	0.981776	0.095330	-0.407764
C49	C	0.981789	0.095323	-0.592142
C50	C	0.981798	0.095318	-0.692098
C51	C	0.981768	0.095335	-0.307802
N52	N	0.981803	0.095315	0.228221
H53	H	0.403138	0.094161	0.144897
H54	H	0.890595	0.018469	-0.583609
F55	F	1.143410	-0.124711	0.000023
H56	H	0.560413	0.096497	-0.144798
H57	H	0.890577	0.018467	-0.416353
H58	H	1.072990	0.172173	-0.583544
F59	F	0.392260	0.094011	-0.164752
F60	F	0.571311	0.096638	0.164863
F61	F	0.820145	-0.684632	0.000082
F62	F	1.140770	-0.275038	0.000030
H63	H	0.847049	-0.233585	0.000038
F64	F	1.135618	-0.568740	0.000044
F65	F	0.830575	-0.090270	0.000035
F66	F	1.085544	0.182774	-0.404776
H67	H	1.114192	-0.707875	0.000084
H68	H	0.841569	-0.545495	0.000065
