data_functionalizedCrystal
_audit_creation_method	'MofGen! by Chris Wilmer'
_symmetry_space_group_name_H-M	'P1'
_symmetry_Int_Tables_number	1
_symmetry_cell_setting	triclinic
loop_
_symmetry_equiv_pos_as_xyz
  x,y,z
_cell_length_a	18.050589
_cell_length_b	13.897449
_cell_length_c	13.897441
_cell_angle_alpha	89.979267
_cell_angle_beta	90.027873
_cell_angle_gamma	89.970500
loop_
_atom_site_label
_atom_site_type_symbol
_atom_site_fract_x
_atom_site_fract_y
_atom_site_fract_z
Zn1	Zn	-0.295610	-1.474632	0.545399
Zn2	Zn	-0.045610	-1.224632	0.795399
Zn3	Zn	0.204390	-0.974632	1.045399
Zn4	Zn	0.454390	-0.724632	1.295399
Zn5	Zn	-0.419815	-1.474496	0.384108
Zn6	Zn	-0.169815	-1.224496	0.634108
Zn7	Zn	0.080185	-0.974496	0.884108
Zn8	Zn	0.330185	-0.724496	1.134108
Zn9	Zn	-0.295646	-1.313321	0.384118
Zn10	Zn	-0.045646	-1.063321	0.634118
Zn11	Zn	0.204354	-0.813321	0.884118
Zn12	Zn	0.454354	-0.563321	1.134118
Zn13	Zn	-0.419766	-1.313273	0.545361
Zn14	Zn	-0.169766	-1.063273	0.795361
Zn15	Zn	0.080234	-0.813273	1.045361
Zn16	Zn	0.330234	-0.563273	1.295361
O17	O	-0.357709	-1.393931	0.464747
O18	O	-0.107709	-1.143931	0.714747
O19	O	0.142291	-0.893931	0.964747
O20	O	0.392291	-0.643931	1.214747
O21	O	-0.312092	-1.609596	0.524016
O22	O	-0.062092	-1.359596	0.774016
O23	O	0.187908	-1.109596	1.024016
O24	O	0.437908	-0.859596	1.274016
O25	O	-0.403379	-1.453079	0.249128
O26	O	-0.153379	-1.203079	0.499128
O27	O	0.096621	-0.953079	0.749128
O28	O	0.346621	-0.703079	0.999128
O29	O	-0.191716	-1.334796	0.405532
O30	O	0.058284	-1.084796	0.655532
O31	O	0.308284	-0.834796	0.905532
O32	O	0.558284	-0.584796	1.155532
O33	O	-0.403344	-1.609496	0.405516
O34	O	-0.153344	-1.359496	0.655516
O35	O	0.096656	-1.109496	0.905516
O36	O	0.346656	-0.859496	1.155516
O37	O	-0.191690	-1.453311	0.524025
O38	O	0.058310	-1.203311	0.774025
O39	O	0.308310	-0.953311	1.024025
O40	O	0.558310	-0.703311	1.274025
O41	O	-0.312152	-1.334665	0.249135
O42	O	-0.062152	-1.084665	0.499135
O43	O	0.187848	-0.834665	0.749135
O44	O	0.437848	-0.584665	0.999135
O45	O	-0.312105	-1.178333	0.405495
O46	O	-0.062105	-0.928333	0.655495
O47	O	0.187895	-0.678333	0.905495
O48	O	0.437895	-0.428333	1.155495
O49	O	-0.403261	-1.334715	0.680348
O50	O	-0.153261	-1.084715	0.930348
O51	O	0.096739	-0.834715	1.180348
O52	O	0.346739	-0.584715	1.430348
O53	O	-0.403295	-1.178298	0.523960
O54	O	-0.153295	-0.928298	0.773960
O55	O	0.096705	-0.678298	1.023960
O56	O	0.346705	-0.428298	1.273960
O57	O	-0.312045	-1.453264	0.680376
O58	O	-0.062045	-1.203264	0.930376
O59	O	0.187955	-0.953264	1.180376
O60	O	0.437955	-0.703264	1.430376
O61	O	-0.523733	-1.453033	0.405479
O62	O	-0.273733	-1.203033	0.655479
O63	O	-0.023733	-0.953033	0.905479
O64	O	0.226267	-0.703033	1.155479
O65	O	-0.523697	-1.334583	0.523951
O66	O	-0.273697	-1.084583	0.773951
O67	O	-0.023697	-0.834583	1.023951
O68	O	0.226303	-0.584583	1.273951
C69	C	-0.357699	-1.143316	0.464725
C70	C	-0.107699	-0.893316	0.714725
C71	C	0.142301	-0.643316	0.964725
C72	C	0.392301	-0.393316	1.214725
C73	C	-0.357713	-1.036102	0.464738
C74	C	-0.107713	-0.786102	0.714738
C75	C	0.142287	-0.536102	0.964738
C76	C	0.392287	-0.286102	1.214738
C77	C	-0.357644	-1.393999	0.716340
C78	C	-0.107644	-1.143999	0.966340
C79	C	0.142356	-0.893999	1.216340
C80	C	0.392356	-0.643999	1.466340
C81	C	-0.357616	-1.394028	0.823554
C82	C	-0.107616	-1.144028	1.073554
C83	C	0.142384	-0.894028	1.323554
C84	C	0.392384	-0.644028	1.573554
C85	C	-0.550661	-1.393814	0.464731
C86	C	-0.300661	-1.143814	0.714731
C87	C	-0.050661	-0.893814	0.964731
C88	C	0.199339	-0.643814	1.214731
C89	C	-0.633207	-1.393853	0.464756
C90	C	-0.383207	-1.143853	0.714756
C91	C	-0.133207	-0.893853	0.964756
C92	C	0.116793	-0.643853	1.214756
C93	C	-0.832665	-1.329503	0.529158
C94	C	-0.582665	-1.079503	0.779158
C95	C	-0.332665	-0.829503	1.029158
C96	C	-0.082665	-0.579503	1.279158
C97	C	-0.882111	-1.305986	0.441140
C98	C	-0.632111	-1.055986	0.691140
C99	C	-0.382111	-0.805986	0.941140
C100	C	-0.132111	-0.555986	1.191140
C101	C	-0.784337	-1.393947	0.464769
C102	C	-0.534337	-1.143947	0.714769
C103	C	-0.284337	-0.893947	0.964769
C104	C	-0.034337	-0.643947	1.214769
C105	C	-0.881973	-1.417512	0.552797
C106	C	-0.631973	-1.167512	0.802797
C107	C	-0.381973	-0.917512	1.052797
C108	C	-0.131973	-0.667512	1.302797
C109	C	-0.930323	-1.394037	0.464789
C110	C	-0.680323	-1.144037	0.714789
C111	C	-0.430323	-0.894037	0.964789
C112	C	-0.180323	-0.644037	1.214789
C113	C	-0.832696	-1.370384	0.376703
C114	C	-0.582696	-1.120384	0.626703
C115	C	-0.332696	-0.870384	0.876703
C116	C	-0.082696	-0.620384	1.126703
C117	C	-0.832554	-1.481951	0.488420
C118	C	-0.582554	-1.231951	0.738420
C119	C	-0.332554	-0.981951	0.988420
C120	C	-0.082554	-0.731951	1.238420
C121	C	-0.881977	-1.458467	0.400341
C122	C	-0.631977	-1.208467	0.650341
C123	C	-0.381977	-0.958467	0.900341
C124	C	-0.131977	-0.708467	1.150341
C125	C	-0.700239	-1.393893	0.464758
C126	C	-0.450239	-1.143893	0.714758
C127	C	-0.200239	-0.893893	0.964758
C128	C	0.049761	-0.643893	1.214758
C129	C	-1.014419	-1.394092	0.464789
C130	C	-0.764419	-1.144092	0.714789
C131	C	-0.514419	-0.894092	0.964789
C132	C	-0.264419	-0.644092	1.214789
C133	C	-0.164004	-1.394074	0.464784
C134	C	0.085996	-1.144074	0.714784
C135	C	0.335996	-0.894074	0.964784
C136	C	0.585996	-0.644074	1.214784
C137	C	-0.081458	-1.394135	0.464800
C138	C	0.168542	-1.144135	0.714800
C139	C	0.418542	-0.894135	0.964800
C140	C	0.668542	-0.644135	1.214800
C141	C	-0.357720	-1.645524	0.464769
C142	C	-0.107720	-1.395524	0.714769
C143	C	0.142280	-1.145524	0.964769
C144	C	0.392280	-0.895524	1.214769
C145	C	-0.357724	-1.752738	0.464779
C146	C	-0.107724	-1.502738	0.714779
C147	C	0.142276	-1.252738	0.964779
C148	C	0.392276	-1.002738	1.214779
C149	C	-0.357716	-0.839807	0.464763
C150	C	-0.107716	-0.589807	0.714763
C151	C	0.142284	-0.339807	0.964763
C152	C	0.392284	-0.089807	1.214763
C153	C	-0.357712	-0.949040	0.464747
C154	C	-0.107712	-0.699040	0.714747
C155	C	0.142288	-0.449040	0.964747
C156	C	0.392288	-0.199040	1.214747
C157	C	-0.357721	-1.393918	0.214132
C158	C	-0.107721	-1.143918	0.464132
C159	C	0.142279	-0.893918	0.714132
C160	C	0.392279	-0.643918	0.964132
C161	C	-0.357540	-1.394076	0.106919
C162	C	-0.107540	-1.144076	0.356919
C163	C	0.142460	-0.894076	0.606919
C164	C	0.392460	-0.644076	0.856919
C165	C	-0.357565	-1.394055	1.019849
C166	C	-0.107565	-1.144055	1.269849
C167	C	0.142435	-0.894055	1.519849
C168	C	0.392435	-0.644055	1.769849
C169	C	-0.357595	-1.394037	0.910616
C170	C	-0.107595	-1.144037	1.160616
C171	C	0.142405	-0.894037	1.410616
C172	C	0.392405	-0.644037	1.660616
H173	H	-0.811012	-1.274924	0.583534
H174	H	-0.561012	-1.024924	0.833534
H175	H	-0.311012	-0.774924	1.083534
H176	H	-0.061012	-0.524924	1.333534
H177	H	-0.810772	-1.556314	0.508449
H178	H	-0.560772	-1.306314	0.758449
H179	H	-0.310772	-1.056314	1.008449
H180	H	-0.060772	-0.806314	1.258449
H181	H	-0.903619	-1.437407	0.627234
H182	H	-0.653619	-1.187407	0.877234
H183	H	-0.403619	-0.937407	1.127234
H184	H	-0.153619	-0.687407	1.377234
H185	H	-0.903895	-1.231606	0.421153
H186	H	-0.653895	-0.981606	0.671153
H187	H	-0.403895	-0.731606	0.921153
H188	H	-0.153895	-0.481606	1.171153
H189	H	-0.811140	-1.350403	0.302246
H190	H	-0.561140	-1.100403	0.552246
H191	H	-0.311140	-0.850403	0.802246
H192	H	-0.061140	-0.600403	1.052246
Br193	Br	-0.917839	-1.549372	0.309499
Br194	Br	-0.667839	-1.299372	0.559499
Br195	Br	-0.417839	-1.049372	0.809499
Br196	Br	-0.167839	-0.799372	1.059499
