data_functionalizedCrystal
_audit_creation_method	'MofGen! by Chris Wilmer'
_symmetry_space_group_name_H-M	'P1'
_symmetry_Int_Tables_number	1
_symmetry_cell_setting	triclinic
loop_
_symmetry_equiv_pos_as_xyz
  x,y,z
_cell_length_a	16.959455
_cell_length_b	16.959454
_cell_length_c	12.759387
_cell_angle_alpha	90.030080
_cell_angle_beta	90.022150
_cell_angle_gamma	90.019503
loop_
_atom_site_label
_atom_site_type_symbol
_atom_site_fract_x
_atom_site_fract_y
_atom_site_fract_z
Zn1	Zn	1.208442	-0.314652	0.594056
Zn2	Zn	1.208347	-0.446852	0.418379
Zn3	Zn	1.076253	-0.314690	0.418388
Zn4	Zn	1.076235	-0.446791	0.594013
O5	O	1.142319	-0.380746	0.506209
O6	O	1.319040	-0.332198	0.570767
O7	O	1.190793	-0.429362	0.271359
O8	O	1.093836	-0.204074	0.441713
O9	O	1.318971	-0.429325	0.441697
O10	O	1.190954	-0.204046	0.570776
O11	O	1.093744	-0.332263	0.271366
O12	O	0.965640	-0.332204	0.441671
O13	O	1.093805	-0.429221	0.741040
O14	O	0.965627	-0.429258	0.570702
O15	O	1.190936	-0.332139	0.741072
O16	O	1.190775	-0.557455	0.441655
O17	O	1.093713	-0.557410	0.570693
C18	C	0.936953	-0.380729	0.506183
C19	C	0.849096	-0.380741	0.506197
C20	C	1.142253	-0.586113	0.506191
C21	C	1.142297	-0.673969	0.506219
C22	C	0.807784	-0.431238	0.438901
C23	C	0.807855	-0.330249	0.573501
C24	C	0.725309	-0.330256	0.573514
C25	C	0.683997	-0.380753	0.506218
C26	C	0.725231	-0.431244	0.438909
C27	C	0.684069	-0.279760	0.640814
C28	C	0.601518	-0.279763	0.640828
C29	C	0.560205	-0.330265	0.573537
C30	C	0.601444	-0.380759	0.506226
C31	C	0.560131	-0.431257	0.438930
C32	C	0.601369	-0.481755	0.371624
C33	C	0.683917	-0.481746	0.371618
C34	C	0.477656	-0.330274	0.573543
C35	C	0.477578	-0.431263	0.438938
C36	C	1.091852	-1.045451	0.573392
C37	C	1.193006	-1.045438	0.439133
C38	C	1.192979	-0.962892	0.439124
C39	C	1.142386	-0.921622	0.506248
C40	C	1.091822	-0.962898	0.573382
C41	C	1.243537	-0.921610	0.371984
C42	C	1.243511	-0.839059	0.371970
C43	C	1.192922	-0.797788	0.439101
C44	C	1.142356	-0.839069	0.506238
C45	C	1.091763	-0.797798	0.573362
C46	C	1.041200	-0.839078	0.640506
C47	C	1.041232	-0.921626	0.640512
C48	C	1.192890	-0.715239	0.439094
C49	C	1.091732	-0.715245	0.573353
C50	C	1.348488	-0.380764	0.506236
C51	C	1.436344	-0.380772	0.506247
C52	C	1.142379	-0.380669	0.780243
C53	C	1.142404	-0.380636	0.897019
C54	C	1.142407	-0.174578	0.506250
C55	C	1.142445	-0.086721	0.506267
C56	C	1.142305	-0.380766	0.233242
C57	C	1.142433	-0.380577	0.116465
C58	C	1.243555	-0.279551	0.897072
C59	C	1.294141	-0.228997	0.951960
C60	C	1.294160	-0.228968	1.061681
C61	C	1.243586	-0.279497	1.116518
C62	C	1.193000	-0.330051	1.061631
C63	C	1.192988	-0.330076	0.951907
C64	C	1.091847	-0.431131	1.061578
C65	C	1.091830	-0.431165	0.951856
C66	C	1.041273	-0.481660	1.116415
C67	C	0.990690	-0.532220	1.061528
C68	C	0.990673	-0.532247	0.951799
C69	C	1.041244	-0.481719	0.896969
H70	H	0.443947	-0.472388	0.384141
H71	H	1.284721	-0.955219	0.317327
H72	H	0.717711	-0.238644	0.695599
H73	H	0.567950	-0.238646	0.695634
H74	H	0.444084	-0.289153	0.628335
H75	H	0.717500	-0.522858	0.316818
H76	H	1.050688	-1.079065	0.628061
C77	C	1.041149	-0.481902	0.777842
C78	C	0.986042	-0.537006	0.741506
C79	C	0.985945	-0.537205	0.631772
H80	H	1.027480	-0.430947	0.752888
H81	H	1.092136	-0.495630	0.753007
H82	H	0.935066	-0.523274	0.766330
H83	H	0.999698	-0.587969	0.766431
H84	H	1.036932	-0.550932	0.606936
H85	H	0.972278	-0.486246	0.606828
H86	H	0.948561	-0.574596	0.607103
H87	H	1.050536	-0.681648	0.628018
H88	H	1.335347	-0.187797	1.106370
C89	C	1.243745	-0.279372	1.235645
C90	C	1.298879	-0.224294	1.271976
C91	C	1.299052	-0.224165	1.381710
H92	H	1.192793	-0.265661	1.260584
H93	H	1.257430	-0.330362	1.260501
H94	H	1.285188	-0.173316	1.247132
H95	H	1.349838	-0.237993	1.247067
H96	H	1.312738	-0.275155	1.406565
H97	H	1.248098	-0.210455	1.406638
H98	H	1.336465	-0.186801	1.406374
C99	C	0.556368	-0.536550	0.298675
C100	C	0.475251	-0.525752	0.313108
C101	C	0.433770	-0.576220	0.245938
H102	H	0.569780	-0.524976	0.228064
H103	H	0.569835	-0.589689	0.313947
H104	H	0.461790	-0.472624	0.297829
H105	H	0.461816	-0.537331	0.383706
H106	H	0.447236	-0.629359	0.261210
H107	H	0.447187	-0.564642	0.175332
H108	H	0.378727	-0.568905	0.255729
C109	C	1.349023	-0.174230	0.892233
C110	C	1.338201	-0.185089	0.784395
C111	C	1.388752	-0.134660	0.729346
H112	H	1.337541	-0.121080	0.910095
H113	H	1.402144	-0.185817	0.910168
H114	H	1.285092	-0.173496	0.766466
H115	H	1.349688	-0.238227	0.766501
H116	H	1.441872	-0.146247	0.747282
H117	H	1.377266	-0.081514	0.747218
H118	H	1.381421	-0.142026	0.656173
C119	C	1.041297	-0.481800	1.235542
C120	C	1.061406	-0.557056	1.271825
C121	C	1.061427	-0.557221	1.381558
H122	H	1.078665	-0.444518	1.260515
H123	H	0.990293	-0.468158	1.260395
H124	H	1.112403	-0.570689	1.246982
H125	H	1.024045	-0.594351	1.246881
H126	H	1.010422	-0.543578	1.406412
H127	H	1.098795	-0.519936	1.406521
H128	H	1.075063	-0.608283	1.406190
H129	H	0.949512	-0.573352	1.106185
C130	C	0.935726	-0.587230	0.892401
C131	C	0.891462	-0.631487	0.963913
C132	C	0.840847	-0.682157	0.909238
H133	H	0.901224	-0.557095	0.849585
H134	H	0.965927	-0.621730	0.849627
H135	H	0.861263	-0.596992	1.006668
H136	H	0.925943	-0.661638	1.006731
H137	H	0.871048	-0.716657	0.866465
H138	H	0.806350	-0.652015	0.866425
H139	H	0.810813	-0.712196	0.957751
H140	H	1.000004	-0.805466	0.695154
H141	H	0.841496	-0.289133	0.628286
C142	C	0.852653	-0.486108	0.365998
C143	C	0.900063	-0.536805	0.425372
C144	C	0.941416	-0.587355	0.358250
H145	H	0.816316	-0.516257	0.325897
H146	H	0.884896	-0.455854	0.320301
H147	H	0.867823	-0.567056	0.471051
H148	H	0.936415	-0.506678	0.465472
H149	H	0.973659	-0.557101	0.312553
H150	H	0.905073	-0.617498	0.318152
H151	H	0.973594	-0.621754	0.398525
H152	H	1.000066	-0.955243	0.695176
C153	C	1.298498	-0.794388	0.299044
C154	C	1.342824	-0.848200	0.240282
C155	C	1.393496	-0.807077	0.173105
H156	H	1.268361	-0.762221	0.253133
H157	H	1.332954	-0.762164	0.339254
H158	H	1.308373	-0.880411	0.200075
H159	H	1.372978	-0.880369	0.286164
H160	H	1.427952	-0.774853	0.213315
H161	H	1.363352	-0.774912	0.127201
H162	H	1.423582	-0.843582	0.133234
C163	C	1.247962	-1.090100	0.366143
C164	C	1.292225	-1.036282	0.307332
C165	C	1.342854	-1.077399	0.240071
H166	H	1.282466	-1.122265	0.406262
H167	H	1.217772	-1.122326	0.320275
H168	H	1.322413	-1.004070	0.353194
H169	H	1.257742	-1.004116	0.267192
H170	H	1.312664	-1.109625	0.194203
H171	H	1.377352	-1.109563	0.280198
H172	H	1.372887	-1.040890	0.200153
C173	C	1.247646	-0.670379	0.366074
C174	C	1.202894	-0.623063	0.298665
C175	C	1.253311	-0.581735	0.231372
H176	H	1.282077	-0.638070	0.406176
H177	H	1.277765	-0.706754	0.326032
H178	H	1.172789	-0.586692	0.338702
H179	H	1.168466	-0.655353	0.258538
H180	H	1.283430	-0.618110	0.191330
H181	H	1.287739	-0.549431	0.271483
H182	H	1.222954	-0.549632	0.185620
H183	H	1.243552	-0.279577	0.807731
