data_functionalizedCrystal
_audit_creation_method	'MofGen! by Chris Wilmer'
_symmetry_space_group_name_H-M	'P1'
_symmetry_Int_Tables_number	1
_symmetry_cell_setting	triclinic
loop_
_symmetry_equiv_pos_as_xyz
  x,y,z
_cell_length_a	10.967926
_cell_length_b	27.732048
_cell_length_c	10.065875
_cell_angle_alpha	98.710990
_cell_angle_beta	93.120479
_cell_angle_gamma	83.701151
loop_
_atom_site_label
_atom_site_type_symbol
_atom_site_fract_x
_atom_site_fract_y
_atom_site_fract_z
O1	O	1.611328	0.084260	0.265460
O2	O	1.261258	0.085640	0.183123
O3	O	1.447161	0.014784	0.226874
O4	O	1.425425	0.155117	0.221709
O5	O	1.411711	0.028352	0.445520
O6	O	1.225808	0.099208	0.401769
O7	O	1.575877	0.097828	0.484106
Zn8	Zn	1.395214	0.100672	0.477652
Zn9	Zn	1.441921	0.082796	0.189577
O10	O	1.389974	0.168685	0.440355
C11	C	1.198760	0.091298	0.281916
C12	C	1.065352	0.087939	0.250539
C13	C	0.987510	0.093470	0.349815
C14	C	0.849626	0.089997	0.317388
C15	C	1.428979	0.003551	0.336093
C16	C	1.427603	-0.050132	0.335781
C17	C	1.528820	-0.386821	0.359517
C18	C	1.523723	-0.588590	0.358299
O19	O	1.616278	-0.617901	0.380009
N20	N	1.413488	-0.610033	0.332373
C21	C	1.304520	-0.581031	0.306741
O22	O	1.210643	-0.603900	0.284647
C23	C	1.309619	-0.379264	0.307949
C24	C	1.419860	-0.357823	0.333891
C25	C	1.639052	-0.365380	0.385455
C26	C	1.640323	-0.314941	0.385766
C27	C	1.531364	-0.285942	0.360140
C28	C	1.421132	-0.307384	0.334202
C29	C	1.200655	-0.350264	0.282308
C30	C	1.201940	-0.299820	0.282609
C31	C	1.312180	-0.278379	0.308550
C32	C	1.313444	-0.227946	0.308887
N33	N	1.423679	-0.206503	0.334813
C34	C	1.532639	-0.235501	0.360440
C35	C	1.301850	-0.686961	0.306110
C36	C	1.300575	-0.737403	0.305811
C37	C	1.519779	-0.744958	0.357367
C38	C	1.521051	-0.694515	0.357676
C39	C	1.412086	-0.665518	0.332037
C40	C	1.535302	-0.129574	0.361093
C41	C	1.536563	-0.079130	0.361407
C42	C	1.317360	-0.071579	0.309844
C43	C	1.316097	-0.122019	0.309536
C44	C	1.425078	-0.151016	0.335158
O45	O	1.220941	-0.198606	0.287174
O46	O	1.626507	-0.212625	0.382501
C47	C	1.527548	-0.437261	0.359206
C48	C	1.417316	-0.458702	0.333268
C49	C	1.308356	-0.429704	0.307641
C50	C	1.416041	-0.509144	0.332968
C51	C	1.525001	-0.538142	0.358595
C52	C	1.635236	-0.516699	0.384521
C53	C	1.636508	-0.466259	0.384832
C54	C	1.198121	-0.451147	0.281715
C55	C	1.196858	-0.501587	0.281407
C56	C	1.305818	-0.530585	0.307034
C57	C	1.638376	0.092170	0.385311
C58	C	1.771785	0.095529	0.416679
C59	C	1.408157	0.179917	0.331133
C60	C	1.409534	0.233599	0.331437
N61	N	1.363346	0.112873	0.674258
N62	N	1.473799	0.070592	-0.007027
C63	C	1.430826	0.087038	0.757918
C64	C	1.406309	0.096431	0.909315
H65	H	1.626337	-0.061675	0.382536
F66	F	1.019043	0.078386	0.108064
H67	H	1.330377	0.125504	0.949766
F68	F	1.651292	-0.160428	0.388362
F69	F	1.033822	0.103017	0.492290
H70	H	1.727786	-0.388986	0.406319
F71	F	0.803322	0.080444	0.174906
F72	F	1.573242	0.032673	0.940154
F73	F	1.529852	0.048948	0.704992
H74	H	1.287419	0.141943	0.714715
H75	H	1.113205	-0.276213	0.261728
H76	H	1.109391	-0.427542	0.260843
H77	H	0.807214	0.102834	0.525687
H78	H	1.730093	-0.297488	0.406885
H79	H	1.226325	-0.139475	0.288449
F80	F	1.635743	-0.775828	0.384638
F81	F	1.638383	-0.671701	0.385286
H82	H	1.210802	-0.754854	0.284709
H83	H	1.213112	-0.663356	0.285231
F84	F	1.201404	-0.040709	0.282572
H85	H	1.110886	-0.367713	0.261176
H86	H	1.726277	-0.448807	0.405956
H87	H	1.723954	-0.540317	0.405393
H88	H	1.107078	-0.519039	0.260293
