data_functionalizedCrystal
_audit_creation_method	'MofGen! by Chris Wilmer'
_symmetry_space_group_name_H-M	'P1'
_symmetry_Int_Tables_number	1
_symmetry_cell_setting	triclinic
loop_
_symmetry_equiv_pos_as_xyz
  x,y,z
_cell_length_a	16.992694
_cell_length_b	12.811415
_cell_length_c	16.053802
_cell_angle_alpha	87.154093
_cell_angle_beta	87.249047
_cell_angle_gamma	87.341347
loop_
_atom_site_label
_atom_site_type_symbol
_atom_site_fract_x
_atom_site_fract_y
_atom_site_fract_z
O1	O	1.045189	0.217501	-0.085790
O2	O	1.545189	0.717501	0.414210
O3	O	0.816888	0.215068	-0.085630
O4	O	1.316888	0.715068	0.414370
O5	O	0.936237	0.064659	-0.074225
O6	O	1.436237	0.564659	0.425775
O7	O	0.925840	0.367910	-0.097194
O8	O	1.425840	0.867910	0.402806
O9	O	0.929667	0.072902	0.064009
O10	O	1.429667	0.572902	0.564009
O11	O	0.810318	0.223311	0.052604
O12	O	1.310318	0.723311	0.552604
O13	O	1.038619	0.225744	0.052444
O14	O	1.538619	0.725744	0.552444
Zn15	Zn	0.923426	0.225836	0.074472
Zn16	Zn	1.423426	0.725836	0.574472
Zn17	Zn	0.932081	0.214976	-0.107657
Zn18	Zn	1.432081	0.714976	0.392343
O19	O	0.919271	0.376153	0.041040
O20	O	1.419271	0.876153	0.541040
C21	C	0.784369	0.216062	-0.016279
C22	C	1.284369	0.716062	0.483721
C23	C	0.697261	0.206729	-0.015582
C24	C	1.197261	0.706729	0.484418
C25	C	0.932168	0.029798	-0.002158
C26	C	1.432168	0.529798	0.497842
C27	C	0.929823	-0.086357	0.006634
C28	C	1.429823	0.413643	0.506634
C29	C	0.647640	0.296772	-0.022401
C30	C	1.147640	0.796772	0.477599
C31	C	0.565792	0.287998	-0.021725
C32	C	1.065792	0.787998	0.478275
C33	C	0.533568	0.189179	-0.014236
C34	C	1.033568	0.689179	0.485764
C35	C	0.583196	0.099129	-0.007413
C36	C	1.083196	0.599129	0.492587
C37	C	0.665042	0.107905	-0.008084
C38	C	1.165042	0.607905	0.491916
C39	C	0.289720	0.152808	-0.011459
C40	C	0.789720	0.652808	0.488541
C41	C	0.207868	0.144039	-0.010791
C42	C	0.707868	0.644039	0.489209
C43	C	0.190469	0.332909	-0.025102
C44	C	0.690469	0.832909	0.474898
C45	C	0.272318	0.341676	-0.025777
C46	C	0.772318	0.841676	0.474223
C47	C	0.321938	0.251626	-0.018950
C48	C	0.821938	0.751626	0.481050
N49	N	0.449907	0.180208	-0.013547
N50	N	0.949907	0.680208	0.486453
N51	N	0.405597	0.260598	-0.019633
N52	N	0.905597	0.760598	0.480367
C53	C	0.932565	-0.313602	-0.127565
C54	C	1.432565	0.186398	0.372435
C55	C	0.930362	-0.422741	-0.119308
C56	C	1.430362	0.077259	0.380692
C57	C	0.923208	-0.413775	0.031403
C58	C	1.423208	0.086225	0.531403
C59	C	0.925411	-0.304636	0.023147
C60	C	1.425411	0.195364	0.523147
C61	C	0.930091	-0.254554	-0.056340
C62	C	1.430091	0.245446	0.443660
C63	C	0.932300	-0.145414	-0.064596
C64	C	1.432300	0.354586	0.435404
C65	C	0.925140	-0.136449	0.086115
C66	C	1.425140	0.363551	0.586115
C67	C	0.922937	-0.245588	0.094371
C68	C	1.422937	0.254412	0.594371
C69	C	1.071138	0.224750	-0.016908
C70	C	1.571138	0.724750	0.483092
C71	C	1.158246	0.234083	-0.017611
C72	C	1.658246	0.734083	0.482389
C73	C	0.923339	0.411014	-0.031030
C74	C	1.423339	0.911014	0.468970
C75	C	0.925685	0.527169	-0.039827
C76	C	1.425685	1.027169	0.460173
N77	N	0.917524	0.233247	0.198770
N78	N	1.417524	0.733247	0.698770
N79	N	0.937989	0.207557	-0.231955
N80	N	1.437989	0.707557	0.268045
C81	C	0.968326	0.169274	0.247315
C82	C	1.468326	0.669274	0.747315
C83	C	0.964205	0.174469	0.334328
C84	C	1.464205	0.674469	0.834328
C85	C	0.909286	0.243643	0.372794
C86	C	1.409286	0.743643	0.872794
C87	C	0.858479	0.307619	0.324243
C88	C	1.358479	0.807619	0.824243
C89	C	0.862596	0.302418	0.237232
C90	C	1.362596	0.802418	0.737232
C91	C	0.891299	0.266332	0.632483
C92	C	1.391299	0.766332	1.132483
C93	C	0.887187	0.271530	0.719500
C94	C	1.387187	0.771530	1.219500
C95	C	0.992913	0.138378	0.729579
C96	C	1.492913	0.638378	1.229579
C97	C	0.997029	0.133187	0.642566
C98	C	1.497029	0.633187	1.142566
C99	C	0.946219	0.197159	0.594023
C100	C	1.446219	0.697159	1.094023
N101	N	0.905074	0.248957	0.461735
N102	N	1.405074	0.748957	0.961735
N103	N	0.950428	0.191839	0.505084
N104	N	1.450428	0.691839	1.005084
H105	H	0.673870	0.377241	-0.028501
H106	H	1.173870	0.877241	0.471499
F107	F	0.932993	-0.485581	-0.195116
F108	F	1.432993	0.014419	0.304884
F109	F	0.937556	-0.260300	-0.212159
F110	F	1.437556	0.239700	0.287841
H111	H	1.005572	0.122376	0.373853
H112	H	1.505572	0.622376	0.873853
F113	F	1.026783	0.095653	0.206384
F114	F	1.526783	0.595653	0.706384
H115	H	0.813758	0.363939	0.355567
H116	H	1.313758	0.863939	0.855567
H117	H	0.919391	-0.454570	0.096118
H118	H	1.419391	0.045430	0.596118
H119	H	0.150060	0.406222	-0.030658
H120	H	0.650060	0.906222	0.469342
H121	H	0.330111	0.079483	-0.005899
H122	H	0.830111	0.579483	0.494101
H123	H	0.821227	0.354511	0.197707
H124	H	1.321227	0.854511	0.697707
H125	H	0.298548	0.422144	-0.031885
H126	H	0.798548	0.922144	0.468115
H127	H	0.556953	0.018669	-0.001303
H128	H	1.056953	0.518669	0.498697
H129	H	0.525393	0.361321	-0.027279
H130	H	1.025393	0.861321	0.472721
F131	F	1.055481	0.059566	0.601628
F132	F	1.555481	0.559566	1.101628
F133	F	0.917950	-0.298899	0.178962
F134	F	1.417950	0.201101	0.678962
H135	H	0.705444	0.034582	-0.002531
H136	H	1.205444	0.534582	0.497469
F137	F	0.937283	-0.092115	-0.149192
F138	F	1.437283	0.407885	0.350808
H139	H	0.181635	0.063565	-0.004693
H140	H	0.681635	0.563565	0.495307
H141	H	1.034280	0.086293	0.769111
H142	H	1.534280	0.586293	1.269111
F143	F	0.922513	-0.073598	0.161923
F144	F	1.422513	0.426402	0.661923
H145	H	0.842463	0.327865	0.750814
H146	H	1.342463	0.827865	1.250814
F147	F	0.837226	0.334418	0.580827
F148	F	1.337226	0.834418	1.080827
