data_functionalizedCrystal
_audit_creation_method	'MofGen! by Chris Wilmer'
_symmetry_space_group_name_H-M	'P1'
_symmetry_Int_Tables_number	1
_symmetry_cell_setting	triclinic
loop_
_symmetry_equiv_pos_as_xyz
  x,y,z
_cell_length_a	12.759400
_cell_length_b	12.827893
_cell_length_c	12.827885
_cell_angle_alpha	90.019272
_cell_angle_beta	90.030494
_cell_angle_gamma	90.014655
loop_
_atom_site_label
_atom_site_type_symbol
_atom_site_fract_x
_atom_site_fract_y
_atom_site_fract_z
Zn1	Zn	-0.418216	1.597675	0.590844
Zn2	Zn	-0.593932	1.597571	0.416102
Zn3	Zn	-0.418267	1.422916	0.416117
Zn4	Zn	-0.593854	1.422904	0.590802
O5	O	-0.506067	1.510266	0.503466
O6	O	-0.441537	1.743897	0.567675
O7	O	-0.570684	1.574365	0.269868
O8	O	-0.271240	1.446147	0.439319
O9	O	-0.570634	1.743821	0.439293
O10	O	-0.271202	1.574541	0.567690
O11	O	-0.441624	1.446046	0.269879
O12	O	-0.441548	1.276678	0.439278
O13	O	-0.570501	1.446125	0.737043
O14	O	-0.570550	1.276669	0.567618
O15	O	-0.441461	1.574529	0.737074
O16	O	-0.740942	1.574352	0.439252
O17	O	-0.740885	1.446025	0.567603
C18	C	-0.506047	1.238756	0.503446
C19	C	-0.506064	1.122603	0.503462
C20	C	-0.569998	1.070842	0.566871
C21	C	-0.570017	0.950791	0.566889
C22	C	-0.779035	1.510204	0.503444
C23	C	-0.895811	1.510273	0.503470
C24	C	-0.950668	1.577168	0.436711
C25	C	-1.060392	1.577232	0.436743
C26	C	-1.060393	1.443499	0.570296
C27	C	-0.950671	1.443440	0.570268
C28	C	-0.895809	1.644001	0.369913
C29	C	-0.950666	1.710899	0.303148
C30	C	-1.060390	1.710964	0.303180
C31	C	-1.115257	1.644129	0.369977
C32	C	-0.232034	1.510357	0.503511
C33	C	-0.115257	1.510396	0.503530
C34	C	-0.505966	1.510337	0.776036
C35	C	-0.505923	1.510368	0.892190
C36	C	-0.506088	1.782836	0.503487
C37	C	-0.506097	1.898990	0.503495
C38	C	-0.506092	1.510256	0.231956
C39	C	-0.505839	1.510428	0.115803
C40	C	-0.442058	1.573913	0.943989
C41	C	-0.442012	1.573946	1.064040
H42	H	-0.624717	1.115403	0.621148
H43	H	-0.560523	1.456025	1.071264
H44	H	-0.906006	1.388970	0.624630
O45	O	-0.440646	0.951963	0.438774
C46	C	-0.335939	0.925412	0.461786
H47	H	-0.333746	0.846159	0.501906
H48	H	-0.288739	0.921754	0.386443
H49	H	-0.300662	0.986852	0.515616
H50	H	-0.560560	1.455982	0.936718
H51	H	-0.387338	1.628352	1.108587
O52	O	-0.635222	0.897534	0.631623
C53	C	-0.620737	0.789527	0.617218
H54	H	-0.539606	0.774716	0.583118
H55	H	-0.627925	0.748009	0.695449
H56	H	-0.682967	0.758519	0.561439
O57	O	-0.440932	1.069411	0.438589
C58	C	-0.500743	1.006222	0.371078
H59	H	-0.583448	1.039167	0.364464
H60	H	-0.462662	1.004851	0.290717
H61	H	-0.504481	0.923554	0.403461
H62	H	-1.204602	1.644195	0.370006
O63	O	-0.376817	1.638647	0.890760
C64	C	-0.309017	1.579101	0.827649
H65	H	-0.346082	1.499873	0.811397
H66	H	-0.295046	1.621580	0.750856
H67	H	-0.231101	1.567701	0.869658
H68	H	-0.806466	1.643953	0.369876
H69	H	-0.905988	1.765320	0.248770
O70	O	-1.113517	1.775982	0.238234
C71	C	-1.041564	1.834973	0.179295
H72	H	-0.963389	1.792126	0.175621
H73	H	-1.073323	1.846179	0.096977
H74	H	-1.029797	1.914314	0.217625
H75	H	-1.105074	1.389084	0.624678
