data_functionalizedCrystal
_audit_creation_method	'MofGen! by Chris Wilmer'
_symmetry_space_group_name_H-M	'P1'
_symmetry_Int_Tables_number	1
_symmetry_cell_setting	triclinic
loop_
_symmetry_equiv_pos_as_xyz
  x,y,z
_cell_length_a	19.077267
_cell_length_b	19.077068
_cell_length_c	19.076919
_cell_angle_alpha	85.529249
_cell_angle_beta	85.333063
_cell_angle_gamma	89.936033
loop_
_atom_site_label
_atom_site_type_symbol
_atom_site_fract_x
_atom_site_fract_y
_atom_site_fract_z
Zn1	Zn	-1.047524	0.337166	-0.369401
Zn2	Zn	-0.714190	0.670499	-0.036067
Zn3	Zn	-0.380857	1.003832	0.297266
Zn4	Zn	-1.047437	0.450316	-0.256249
Zn5	Zn	-0.714103	0.783649	0.077085
Zn6	Zn	-0.380770	1.116982	0.410418
Zn7	Zn	-0.934761	0.328092	-0.255885
Zn8	Zn	-0.601428	0.661426	0.077448
Zn9	Zn	-0.268095	0.994759	0.410782
Zn10	Zn	-0.924869	0.450276	-0.378825
Zn11	Zn	-0.591536	0.783609	-0.045492
Zn12	Zn	-0.258203	1.116942	0.287842
O13	O	-0.988648	0.391462	-0.315090
O14	O	-0.655314	0.724796	0.018243
O15	O	-0.321981	1.058129	0.351577
O16	O	-1.145999	0.355990	-0.350599
O17	O	-0.812665	0.689323	-0.017266
O18	O	-0.479332	1.022656	0.316068
O19	O	-1.036593	0.430322	-0.157395
O20	O	-0.703260	0.763655	0.175938
O21	O	-0.369927	1.096989	0.509272
O22	O	-0.953896	0.230808	-0.266847
O23	O	-0.620562	0.564141	0.066487
O24	O	-0.287229	0.897475	0.399820
O25	O	-1.145935	0.439120	-0.267467
O26	O	-0.812601	0.772454	0.065867
O27	O	-0.479268	1.105787	0.399200
O28	O	-1.036742	0.237474	-0.350246
O29	O	-0.703408	0.570808	-0.016913
O30	O	-0.370075	0.904141	0.316420
O31	O	-0.953811	0.340525	-0.157128
O32	O	-0.620478	0.673858	0.176206
O33	O	-0.287145	1.007192	0.509539
O34	O	-0.834963	0.340486	-0.275985
O35	O	-0.501629	0.673819	0.057348
O36	O	-0.168296	1.007153	0.390682
O37	O	-0.937037	0.439052	-0.476380
O38	O	-0.603703	0.772385	-0.143047
O39	O	-0.270370	1.105719	0.190286
O40	O	-0.827695	0.430254	-0.366309
O41	O	-0.494362	0.763587	-0.032975
O42	O	-0.161029	1.096920	0.300358
O43	O	-1.027150	0.355951	-0.469456
O44	O	-0.693817	0.689284	-0.136123
O45	O	-0.360483	1.022617	0.197210
O46	O	-1.027002	0.548798	-0.276605
O47	O	-0.693668	0.882132	0.056728
O48	O	-0.360335	1.215465	0.390061
O49	O	-0.936952	0.548769	-0.366662
O50	O	-0.603619	0.882102	-0.033328
O51	O	-0.270285	1.215436	0.300005
C52	C	-0.805793	0.384381	-0.322130
C53	C	-0.472459	0.717715	0.011203
C54	C	-0.139126	1.051048	0.344536
C55	C	-0.727565	0.381370	-0.325160
C56	C	-0.394232	0.714703	0.008173
C57	C	-0.060898	1.048036	0.341507
C58	C	-0.690783	0.423161	-0.283230
C59	C	-0.357450	0.756494	0.050103
C60	C	-0.024116	1.089828	0.383436
C61	C	-0.617280	0.420332	-0.286086
C62	C	-0.283946	0.753665	0.047247
C63	C	0.049387	1.086998	0.380581
C64	C	-0.580559	0.375707	-0.330868
C65	C	-0.247226	0.709040	0.002465
C66	C	0.086107	1.042374	0.335798
C67	C	-0.617346	0.333914	-0.372803
C68	C	-0.284013	0.667248	-0.039469
C69	C	0.049320	1.000581	0.293864
C70	C	-0.690848	0.336748	-0.369950
C71	C	-0.357515	0.670081	-0.036617
C72	C	-0.024182	1.003415	0.296717
C73	C	-0.360735	0.362603	-0.344052
C74	C	-0.027402	0.695937	-0.010719
C75	C	0.305932	1.029270	0.322615
C76	C	-0.287228	0.359772	-0.346900
C77	C	0.046105	0.693105	-0.013567
C78	C	0.379438	1.026438	0.319767
C79	C	-0.287166	0.446190	-0.260184
C80	C	0.046167	0.779523	0.073149
C81	C	0.379500	1.112857	0.406483
C82	C	-0.360670	0.449016	-0.257332
C83	C	-0.027337	0.782350	0.076001
C84	C	0.305997	1.115683	0.409334
C85	C	-0.397450	0.407226	-0.299269
C86	C	-0.064117	0.740560	0.034064
C87	C	0.269216	1.073893	0.367397
N88	N	-0.505427	0.372813	-0.333787
N89	N	-0.172094	0.706146	-0.000453
N90	N	0.161240	1.039479	0.332880
N91	N	-0.472581	0.410125	-0.296354
N92	N	-0.139248	0.743459	0.036979
N93	N	0.194086	1.076792	0.370313
C94	C	-0.980913	0.574322	-0.322710
C95	C	-0.647579	0.907655	0.010623
C96	C	-0.314246	1.240988	0.343956
C97	C	-0.977667	0.652553	-0.325991
C98	C	-0.644333	0.985887	0.007342
C99	C	-0.311000	1.319220	0.340675
C100	C	-0.981000	0.398509	-0.499254
C101	C	-0.647666	0.731842	-0.165921
C102	C	-0.314333	1.065176	0.167413
C103	C	-0.977740	0.401512	-0.577734
C104	C	-0.644407	0.734845	-0.244400
C105	C	-0.311074	1.068179	0.088933
C106	C	-0.172218	0.398562	-0.308012
C107	C	0.161116	0.731895	0.025321
C108	C	0.494449	1.065229	0.358654
C109	C	-0.250446	0.401563	-0.304970
C110	C	0.082887	0.734896	0.028363
C111	C	0.416220	1.068229	0.361696
C112	C	-0.996432	0.207890	-0.307455
C113	C	-0.663098	0.541224	0.025879
C114	C	-0.329765	0.874557	0.359212
C115	C	-0.999749	0.129663	-0.304201
C116	C	-0.666416	0.462996	0.029132
C117	C	-0.333082	0.796329	0.362466
C118	C	-1.023059	0.689301	-0.280681
C119	C	-0.689726	1.022635	0.052652
C120	C	-0.356393	1.355968	0.385985
C121	C	-1.020010	0.762808	-0.283771
C122	C	-0.686677	1.096142	0.049562
C123	C	-0.353344	1.429475	0.382895
C124	C	-0.971565	0.799566	-0.332168
C125	C	-0.638232	1.132899	0.001165
C126	C	-0.304899	1.466232	0.334498
C127	C	-0.926171	0.762813	-0.377483
C128	C	-0.592837	1.096146	-0.044150
C129	C	-0.259504	1.429479	0.289183
C130	C	-0.929223	0.689307	-0.374396
C131	C	-0.595890	1.022641	-0.041063
C132	C	-0.262557	1.355974	0.292271
C133	C	-0.957407	1.019404	-0.346429
C134	C	-0.624074	1.352738	-0.013095
C135	C	-0.290740	1.686071	0.320238
C136	C	-0.954356	1.092915	-0.349511
C137	C	-0.621023	1.426248	-0.016177
C138	C	-0.287690	1.759581	0.317156
C139	C	-1.048197	1.092905	-0.255799
C140	C	-0.714864	1.426239	0.077534
C141	C	-0.381531	1.759572	0.410867
C142	C	-1.051243	1.019398	-0.252714
C143	C	-0.717910	1.352732	0.080620
C144	C	-0.384576	1.686065	0.413953
C145	C	-1.005851	0.982652	-0.298031
C146	C	-0.672518	1.315985	0.035302
C147	C	-0.339184	1.649319	0.368636
N148	N	-0.968446	0.874702	-0.335327
N149	N	-0.635113	1.208035	-0.001993
N150	N	-0.301779	1.541368	0.331340
N151	N	-1.008974	0.907518	-0.294876
N152	N	-0.675641	1.240851	0.038458
N153	N	-0.342307	1.574184	0.371791
C154	C	-1.023124	0.359658	-0.611000
C155	C	-0.689791	0.692991	-0.277667
C156	C	-0.356457	1.026325	0.055667
C157	C	-1.020053	0.362477	-0.684740
C158	C	-0.686720	0.695810	-0.351407
C159	C	-0.353387	1.029143	-0.018074
C160	C	-0.971602	0.407153	-0.725213
C161	C	-0.638268	0.740486	-0.391880
C162	C	-0.304935	1.073820	-0.058546
C163	C	-0.926213	0.449008	-0.691942
C164	C	-0.592880	0.782342	-0.358608
C165	C	-0.259546	1.115675	-0.025275
C166	C	-0.929281	0.446186	-0.618203
C167	C	-0.595948	0.779519	-0.284869
C168	C	-0.262614	1.112852	0.048464
C169	C	-0.957392	0.420231	-0.946136
C170	C	-0.624059	0.753564	-0.612802
C171	C	-0.290725	1.086897	-0.279469
C172	C	-0.954329	0.423052	-1.019879
C173	C	-0.620996	0.756385	-0.686546
C174	C	-0.287662	1.089719	-0.353213
C175	C	-1.048169	0.336519	-1.012673
C176	C	-0.714835	0.669852	-0.679340
C177	C	-0.381502	1.003185	-0.346006
C178	C	-1.051235	0.333703	-0.938933
C179	C	-0.717902	0.667037	-0.605599
C180	C	-0.384569	1.000370	-0.272266
C181	C	-1.005844	0.375556	-0.905668
C182	C	-0.672511	0.708889	-0.572335
C183	C	-0.339178	1.042222	-0.239001
N184	N	-0.968463	0.410037	-0.800587
N185	N	-0.635130	0.743370	-0.467254
N186	N	-0.301796	1.076703	-0.133921
N187	N	-1.008980	0.372668	-0.830295
N188	N	-0.675647	0.706001	-0.496961
N189	N	-0.342313	1.039335	-0.163628
C190	C	-0.996309	0.384394	-0.131639
C191	C	-0.662976	0.717727	0.201695
C192	C	-0.329642	1.051061	0.535028
C193	C	-0.999713	0.381198	-0.053146
C194	C	-0.666379	0.714531	0.280188
C195	C	-0.333046	1.047865	0.613521
H196	H	-0.390673	0.328576	-0.378201
H197	H	-0.057339	0.661909	-0.044868
H198	H	0.275994	0.995242	0.288466
H199	H	-1.057011	0.328397	-0.711822
H200	H	-0.723678	0.661730	-0.378489
H201	H	-0.390345	0.995063	-0.045155
H202	H	-0.886728	0.792747	-0.416892
H203	H	-0.553395	1.126080	-0.083559
H204	H	-0.220062	1.459413	0.249775
H205	H	-0.892261	0.659388	-0.411293
H206	H	-0.558928	0.992721	-0.077960
H207	H	-0.225594	1.326054	0.255374
H208	H	-0.257333	0.323427	-0.383365
H209	H	0.076000	0.656760	-0.050031
H210	H	0.409334	0.990094	0.283302
H211	H	-0.914914	1.122841	-0.388934
H212	H	-0.581581	1.456175	-0.055600
H213	H	-0.248248	1.789508	0.277733
H214	H	-0.920446	0.989491	-0.383326
H215	H	-0.587113	1.322824	-0.049993
H216	H	-0.253779	1.656158	0.283340
H217	H	-0.720795	0.302716	-0.404093
H218	H	-0.387462	0.636050	-0.070760
H219	H	-0.054129	0.969383	0.262574
H220	H	-1.062581	0.323280	-0.578052
H221	H	-0.729248	0.656613	-0.244719
H222	H	-0.395914	0.989947	0.088615
H223	H	-1.090692	0.297325	-0.905985
H224	H	-0.757358	0.630658	-0.572651
H225	H	-0.424025	0.963992	-0.239318
Cl226	Cl	-1.105225	0.283905	-1.054496
Cl227	Cl	-0.771892	0.617238	-0.721162
Cl228	Cl	-0.438559	0.950572	-0.387829
H229	H	-0.257212	0.480214	-0.226043
H230	H	0.076121	0.813548	0.107291
H231	H	0.409455	1.146881	0.440624
H232	H	-1.085154	1.122832	-0.218906
H233	H	-0.751821	1.456166	0.114428
H234	H	-0.418487	1.789499	0.447761
Cl235	Cl	-1.083961	0.643099	-0.219832
Cl236	Cl	-0.750628	0.976432	0.113502
Cl237	Cl	-0.417294	1.309766	0.446835
H238	H	-0.886760	0.485382	-0.724901
H239	H	-0.553427	0.818715	-0.391567
H240	H	-0.220094	1.152049	-0.058234
Cl241	Cl	-0.893410	0.479217	-1.070759
Cl242	Cl	-0.560077	0.812550	-0.737426
Cl243	Cl	-0.226743	1.145883	-0.404092
H244	H	-0.587443	0.297584	-0.409268
H245	H	-0.254109	0.630917	-0.075935
H246	H	0.079224	0.964250	0.257398
H247	H	-0.390563	0.485354	-0.220865
H248	H	-0.057229	0.818687	0.112468
H249	H	0.276104	1.152020	0.445801
Cl250	Cl	-1.077080	0.809003	-0.226810
Cl251	Cl	-0.743747	1.142336	0.106524
Cl252	Cl	-0.410414	1.475670	0.439857
Cl253	Cl	-0.736938	0.479262	-0.226928
Cl254	Cl	-0.403605	0.812595	0.106405
Cl255	Cl	-0.070272	1.145928	0.439738
H256	H	-0.920441	0.454321	-0.919061
H257	H	-0.587108	0.787654	-0.585727
H258	H	-0.253775	1.120988	-0.252394
H259	H	-0.892318	0.480260	-0.591119
H260	H	-0.558985	0.813593	-0.257785
H261	H	-0.225651	1.146927	0.075548
H262	H	-0.587335	0.454362	-0.251943
H263	H	-0.254002	0.787696	0.081391
H264	H	0.079332	1.121029	0.414724
H265	H	-1.090691	0.989472	-0.213305
H266	H	-0.757358	1.322805	0.120028
H267	H	-0.424024	1.656139	0.453362
