data_functionalizedCrystal
_audit_creation_method	'MofGen! by Chris Wilmer'
_symmetry_space_group_name_H-M	'P1'
_symmetry_Int_Tables_number	1
_symmetry_cell_setting	triclinic
loop_
_symmetry_equiv_pos_as_xyz
  x,y,z
_cell_length_a	16.704493
_cell_length_b	20.875641
_cell_length_c	20.875641
_cell_angle_alpha	60.089808
_cell_angle_beta	85.843777
_cell_angle_gamma	59.975206
loop_
_atom_site_label
_atom_site_type_symbol
_atom_site_fract_x
_atom_site_fract_y
_atom_site_fract_z
Zr1	Zr	0.811919	0.691004	-0.151207
O2	O	0.694011	0.817730	-0.247872
O3	O	0.843652	0.559618	-0.118051
O4	O	0.855501	0.683593	-0.252186
O5	O	0.677834	0.701227	-0.011936
O6	O	0.987906	0.683048	-0.259596
O7	O	0.682162	0.693756	-0.113737
O8	O	0.966711	0.461280	-0.019652
O9	O	0.699029	0.922995	-0.251879
O10	O	0.961328	0.614979	-0.113696
O11	O	0.859286	0.620961	-0.032193
O12	O	0.873237	0.766925	-0.190120
O13	O	0.771194	0.772908	-0.108617
Zr14	Zr	1.016186	0.702051	-0.000663
Zr15	Zr	1.023089	0.690135	-0.163024
Zr16	Zr	0.805016	0.702920	0.011155
Zr17	Zr	0.819922	0.858889	-0.157597
Zr18	Zr	1.008182	0.534166	0.005728
O19	O	0.984453	0.833437	-0.033818
O20	O	0.994268	0.816494	-0.264675
O21	O	0.684195	0.834673	-0.017015
O22	O	1.134094	0.575325	0.096003
O23	O	1.143909	0.558382	-0.134854
O24	O	0.833837	0.576561	0.112806
O25	O	1.150271	0.691828	-0.139933
O26	O	0.972604	0.709462	0.100317
O27	O	0.840199	0.710007	0.107727
O28	O	1.145943	0.699300	-0.038132
O29	O	0.866881	0.922303	-0.261273
O30	O	0.961224	0.470752	0.109403
O31	O	1.129076	0.470061	0.100010
O32	O	1.134563	0.460589	-0.029046
O33	O	0.693542	0.932466	-0.122824
O34	O	0.861394	0.931775	-0.132217
O35	O	0.954868	0.626130	0.038251
O36	O	1.056911	0.620147	-0.043252
O37	O	0.968819	0.772094	-0.119676
O38	O	0.866776	0.778076	-0.038173
C39	C	0.904041	0.486529	-0.067941
C40	C	0.900643	0.415258	-0.065228
C41	C	0.952309	0.378652	-0.106497
C42	C	0.949119	0.311680	-0.103941
C43	C	0.894256	0.281321	-0.060119
C44	C	0.842589	0.317930	-0.018846
C45	C	0.845785	0.384896	-0.021398
C46	C	0.878990	0.081372	-0.047920
C47	C	0.875795	0.014403	-0.045372
C48	C	0.982328	0.008157	-0.130467
C49	C	0.985515	0.075128	-0.133019
C50	C	0.933851	0.111728	-0.091742
N51	N	0.890992	0.212867	-0.057507
N52	N	0.937122	0.180176	-0.094350
C53	C	0.649910	0.697615	-0.061153
C54	C	0.560263	0.697984	-0.056136
C55	C	0.396583	0.690429	-0.158881
C56	C	0.312352	0.690775	-0.154170
C57	C	0.307570	0.699018	-0.042001
C58	C	0.391802	0.698671	-0.046712
C59	C	0.436305	0.694378	-0.105155
C60	C	0.520534	0.694037	-0.109868
C61	C	0.515755	0.702273	0.002304
C62	C	0.431523	0.702620	0.007014
C63	C	1.178194	0.695440	-0.090716
C64	C	1.267842	0.695071	-0.095733
C65	C	0.922687	0.681623	-0.279024
C66	C	0.925618	0.676564	-0.347951
C67	C	0.924064	0.906526	-0.083928
C68	C	0.927462	0.977797	-0.086641
C69	C	0.881013	0.753500	-0.420225
C70	C	0.883779	0.748742	-0.484987
C71	C	0.931144	0.667047	-0.477472
C72	C	0.975755	0.590105	-0.405190
C73	C	0.972994	0.594864	-0.340431
C74	C	0.944337	0.644308	-0.666877
C75	C	0.947092	0.639555	-0.731644
C76	C	0.855117	0.798192	-0.811436
C77	C	0.852356	0.802944	-0.746671
C78	C	0.896971	0.726003	-0.674395
N79	N	0.933970	0.662181	-0.543668
N80	N	0.894150	0.730869	-0.608202
C81	C	0.905418	0.711432	0.127155
C82	C	0.902487	0.716491	0.196081
C83	C	1.168183	0.485442	-0.082723
C84	C	1.254433	0.413801	-0.085027
C85	C	0.895406	0.501434	0.135148
C86	C	0.889078	0.435221	0.206788
C87	C	1.159548	0.500347	0.120366
C88	C	1.242867	0.433765	0.186989
C89	C	0.668556	0.892708	-0.272236
C90	C	0.585237	0.959290	-0.338859
C91	C	0.659922	0.907613	-0.069146
C92	C	0.573672	0.979254	-0.066842
C93	C	0.932698	0.891621	-0.287017
C94	C	0.939027	0.957834	-0.358657
C95	C	1.245044	0.377460	-0.122886
C96	C	1.326078	0.310154	-0.125066
C97	C	1.416499	0.279187	-0.089381
C98	C	1.425886	0.315535	-0.051521
C99	C	1.344854	0.382844	-0.049346
C100	C	0.935999	0.406826	0.277208
C101	C	0.930049	0.344621	0.344527
C102	C	0.877184	0.310809	0.341424
C103	C	0.830257	0.339211	0.270996
C104	C	0.836202	0.401419	0.203679
C105	C	1.335269	0.399374	0.175732
C106	C	1.413565	0.336822	0.238324
C107	C	1.399457	0.308657	0.312173
C108	C	1.307046	0.343054	0.323429
C109	C	1.228752	0.405610	0.260838
C110	C	0.492836	0.993689	-0.327601
C111	C	0.414541	1.056262	-0.390194
C112	C	0.428649	1.084430	-0.464044
C113	C	0.521060	1.050029	-0.475300
C114	C	0.599353	0.987462	-0.412708
C115	C	0.583062	1.015602	-0.028990
C116	C	0.502030	1.082925	-0.026829
C117	C	0.411609	1.113894	-0.062516
C118	C	0.402221	1.077543	-0.100373
C119	C	0.483253	1.010225	-0.102539
C120	C	0.991900	0.991626	-0.355529
C121	C	0.997865	1.053832	-0.422837
C122	C	0.950950	1.082248	-0.493271
C123	C	0.898075	1.048449	-0.496397
C124	C	0.892116	0.986240	-0.429090
H125	H	1.024391	-0.021650	-0.164072
O126	O	1.353856	0.418119	-0.012492
C127	C	1.305108	0.405990	0.046365
H128	H	1.248000	0.396688	0.033219
H129	H	1.270360	0.465961	0.051021
H130	H	1.357542	0.345517	0.102449
O131	O	0.789207	0.288572	0.023727
C132	C	0.693156	0.358276	-0.002471
H133	H	0.689108	0.423189	-0.033645
H134	H	0.659102	0.351844	0.047985
H135	H	0.653590	0.356161	-0.042936
H136	H	0.797996	0.424530	0.146343
H137	H	0.475594	0.980632	-0.133360
H138	H	0.813789	0.869469	-0.752799
O139	O	0.828946	0.116853	-0.007741
C140	C	0.892011	0.104323	0.044823
H141	H	0.966297	0.046389	0.057454
H142	H	0.866550	0.090575	0.099708
H143	H	0.894183	0.165872	0.019814
O144	O	1.049214	1.086725	-0.419927
C145	C	1.044406	1.147740	-0.494431
H146	H	1.026729	1.133674	-0.535886
H147	H	1.115913	1.142055	-0.497508
H148	H	0.986691	1.216828	-0.510145
O149	O	0.563823	0.689708	-0.166571
C150	C	0.588362	0.611936	-0.161638
H151	H	0.594344	0.561775	-0.101033
H152	H	0.659506	0.584541	-0.177451
H153	H	0.531083	0.626602	-0.202441
H154	H	0.432813	0.686942	-0.206472
H155	H	1.030105	0.968500	-0.298185
H156	H	0.872351	0.260156	0.396244
O157	O	0.811874	0.872843	-0.881702
C158	C	0.824444	0.851130	-0.937251
H159	H	0.889673	0.782209	-0.913225
H160	H	0.834978	0.899817	-0.989515
H161	H	0.758847	0.853807	-0.953931
O162	O	0.999326	0.276248	-0.144106
C163	C	1.048446	0.317394	-0.183322
H164	H	1.011561	0.384861	-0.191492
H165	H	1.048661	0.324719	-0.241214
H166	H	1.124834	0.275877	-0.148971
H167	H	1.482473	0.224379	-0.091157
H168	H	1.499518	0.290312	-0.022468
H169	H	1.171426	0.402671	-0.151955
H170	H	0.532536	1.072972	-0.535435
H171	H	0.280014	0.687558	-0.197919
H172	H	0.509691	1.112511	0.004002
O173	O	0.264209	0.703334	0.014675
C174	C	0.171641	0.779121	-0.017148
H175	H	0.167842	0.829356	-0.076885
H176	H	0.153896	0.808059	0.019790
H177	H	0.118332	0.761232	-0.020081
H178	H	0.985662	0.573026	-0.725517
O179	O	0.778999	0.306229	0.268123
C180	C	0.783814	0.245243	0.342644
H181	H	0.850247	0.218853	0.382778
H182	H	0.787103	0.188806	0.343762
H183	H	0.717989	0.278753	0.361653
O184	O	0.987681	0.569485	-0.596729
C185	C	1.030092	0.496362	-0.603989
H186	H	0.993240	0.516333	-0.660433
H187	H	1.022606	0.442422	-0.555202
H188	H	1.108724	0.471203	-0.602202
H189	H	0.328590	1.102768	-0.129428
H190	H	0.979047	0.434349	0.279749
H191	H	1.346774	0.422296	0.115605
H192	H	1.030188	0.099845	-0.168702
H193	H	1.463217	0.257720	0.363133
O194	O	0.352696	1.145223	-0.524927
C195	C	0.384951	1.162695	-0.592527
H196	H	0.461187	1.145028	-0.581330
H197	H	0.337271	1.235245	-0.638160
H198	H	0.382477	1.121942	-0.612753
H199	H	1.488803	0.308822	0.229146
H200	H	0.395282	0.706112	0.054599
O201	O	0.956845	1.142567	-0.558675
C202	C	0.998122	1.106507	-0.603131
H203	H	1.042173	1.031991	-0.564945
H204	H	1.045987	1.130696	-0.632905
H205	H	0.939587	1.127673	-0.647491
H206	H	0.548104	0.705492	0.046050
O207	O	1.316774	0.274918	-0.161844
C208	C	1.219589	0.316695	-0.192877
H209	H	1.174680	0.346751	-0.160297
H210	H	1.205355	0.266668	-0.188169
H211	H	1.200144	0.370447	-0.255256
H212	H	0.968267	0.321504	0.401865
O213	O	0.834994	0.832931	-0.427666
C214	C	0.796200	0.899815	-0.505346
H215	H	0.836985	0.873064	-0.541228
H216	H	0.802091	0.956505	-0.516713
H217	H	0.718155	0.923961	-0.520911
H218	H	0.859879	1.071596	-0.553754
O219	O	1.293517	0.315562	0.395220
C220	C	1.382443	0.252987	0.448042
H221	H	1.437941	0.221639	0.420775
H222	H	1.376728	0.200302	0.500181
H223	H	1.404567	0.286420	0.465882
O224	O	0.324843	1.089548	-0.379115
C225	C	0.329191	1.051271	-0.300511
H226	H	0.399657	0.985621	-0.267612
H227	H	0.267851	1.040634	-0.287659
H228	H	0.323579	1.096604	-0.282700
H229	H	0.847459	0.811391	-0.543834
H230	H	1.014326	0.523587	-0.399077
H231	H	0.674588	0.959454	-0.421882
O232	O	1.016177	0.520189	-0.270175
C233	C	0.948025	0.518469	-0.226456
H234	H	0.884580	0.588142	-0.250102
H235	H	0.981134	0.488182	-0.164903
H236	H	0.923251	0.477692	-0.229010
O237	O	0.332994	1.179262	-0.060304
C238	C	0.360684	1.204709	-0.019253
H239	H	0.433854	1.148727	0.020559
H240	H	0.306770	1.221209	0.015485
H241	H	0.363819	1.264769	-0.060607
H242	H	0.656679	0.990393	0.000076
H243	H	0.849057	0.958733	-0.431647
H244	H	0.996980	0.403369	-0.142185
O245	O	1.138932	0.439124	0.271644
C246	C	1.072840	0.500360	0.200571
H247	H	1.108863	0.526381	0.154678
H248	H	1.010539	0.557005	0.202790
H249	H	1.045674	0.467212	0.186773
O250	O	0.822623	-0.015124	-0.002626
C251	C	0.777763	0.031495	0.033304
H252	H	0.819122	0.059624	0.037705
H253	H	0.775917	-0.014607	0.092730
H254	H	0.701978	0.087163	-0.001466
O255	O	0.795535	0.420608	0.018576
C256	C	0.729768	0.511001	-0.031860
H257	H	0.755018	0.535479	-0.086354
H258	H	0.723961	0.547836	-0.004064
H259	H	0.657144	0.522781	-0.045946
O260	O	0.479246	0.966354	-0.255835
C261	C	0.523960	0.985468	-0.219188
H262	H	0.582815	0.991745	-0.247449
H263	H	0.555873	0.930408	-0.156690
H264	H	0.469350	1.049705	-0.223789
