data_functionalizedCrystal
_audit_creation_method	'MofGen! by Chris Wilmer'
_symmetry_space_group_name_H-M	'P1'
_symmetry_Int_Tables_number	1
_symmetry_cell_setting	triclinic
loop_
_symmetry_equiv_pos_as_xyz
  x,y,z
_cell_length_a	12.759401
_cell_length_b	14.908520
_cell_length_c	14.908308
_cell_angle_alpha	96.360765
_cell_angle_beta	93.279723
_cell_angle_gamma	93.322137
loop_
_atom_site_label
_atom_site_type_symbol
_atom_site_fract_x
_atom_site_fract_y
_atom_site_fract_z
Zn1	Zn	1.544174	-0.389838	-0.532530
Zn2	Zn	2.044174	0.110162	-0.032530
Zn3	Zn	1.544055	-0.532484	-0.389900
Zn4	Zn	2.044055	-0.032484	0.110100
Zn5	Zn	1.379242	-0.381145	-0.381192
Zn6	Zn	1.879242	0.118855	0.118808
Zn7	Zn	1.357688	-0.541161	-0.541214
Zn8	Zn	1.857688	-0.041161	-0.041214
O9	O	1.456290	-0.461157	-0.461209
O10	O	1.956290	0.038843	0.038791
O11	O	1.691178	-0.408767	-0.513620
O12	O	2.191178	0.091233	-0.013620
O13	O	1.531163	-0.505138	-0.262084
O14	O	2.031163	-0.005138	0.237916
O15	O	1.410191	-0.255633	-0.393988
O16	O	1.910191	0.244367	0.106012
O17	O	1.691090	-0.513568	-0.408831
O18	O	2.191090	-0.013568	0.091169
O19	O	1.531366	-0.262020	-0.505176
O20	O	2.031366	0.237980	-0.005176
O21	O	1.410075	-0.393950	-0.255686
O22	O	1.910075	0.106050	0.244314
O23	O	1.229363	-0.402364	-0.402409
O24	O	1.729363	0.097636	0.097591
O25	O	1.373455	-0.528357	-0.666722
O26	O	1.873455	-0.028357	-0.166722
O27	O	1.213527	-0.519927	-0.519976
O28	O	1.713527	-0.019927	-0.019976
O29	O	1.510466	-0.417181	-0.660343
O30	O	2.010466	0.082819	-0.160343
O31	O	1.510262	-0.660300	-0.417251
O32	O	2.010262	-0.160300	0.082749
O33	O	1.373339	-0.666675	-0.528420
O34	O	1.873339	-0.166675	-0.028420
C35	C	1.183324	-0.461145	-0.461190
C36	C	1.683324	0.038855	0.038810
C37	C	1.066546	-0.461163	-0.461205
C38	C	1.566546	0.038837	0.038795
C39	C	1.003466	-0.522461	-0.522336
C40	C	1.503466	-0.022461	-0.022336
C41	C	0.893740	-0.522465	-0.522354
C42	C	1.393740	-0.022465	-0.022354
C43	C	0.910185	-0.399871	-0.400102
C44	C	1.410185	0.100129	0.099898
C45	C	1.019908	-0.399863	-0.400089
C46	C	1.519908	0.100137	0.099911
C47	C	1.439476	-0.696331	-0.474743
C48	C	1.939476	-0.196331	0.025257
C49	C	1.432377	-0.796941	-0.480563
C50	C	1.932377	-0.296941	0.019437
C51	C	1.561747	-0.979305	-0.375832
C52	C	2.061747	-0.479305	0.124168
C53	C	1.555081	-1.073837	-0.381298
C54	C	2.055081	-0.573837	0.118702
C55	C	1.412384	-1.080540	-0.496964
C56	C	1.912384	-0.580540	0.003036
C57	C	1.419050	-0.986008	-0.491498
C58	C	1.919050	-0.486008	0.008502
C59	C	1.493733	-0.935393	-0.430929
C60	C	1.993733	-0.435393	0.069071
C61	C	1.500394	-0.840859	-0.425460
C62	C	2.000394	-0.340859	0.074540
C63	C	1.357703	-0.847564	-0.541130
C64	C	1.857703	-0.347564	-0.041130
C65	C	1.351037	-0.942096	-0.546595
C66	C	1.851037	-0.442096	-0.046595
C67	C	1.730321	-0.461170	-0.461228
C68	C	2.230321	0.038830	0.038772
C69	C	1.847096	-0.461175	-0.461236
C70	C	2.347096	0.038825	0.038764
C71	C	1.439569	-0.474707	-0.697293
C72	C	1.939569	0.025293	-0.197293
C73	C	1.432444	-0.480481	-0.797897
C74	C	1.932444	0.019519	-0.297897
C75	C	1.473196	-0.225065	-0.447642
C76	C	1.973196	0.274935	0.052358
C77	C	1.480401	-0.124457	-0.441860
C78	C	1.980401	0.375543	0.058140
C79	C	1.561723	-0.375543	-0.980301
C80	C	2.061723	0.124457	-0.480301
C81	C	1.555032	-0.380966	-1.074828
C82	C	2.055032	0.119034	-0.574828
C83	C	1.412366	-0.496743	-1.081480
C84	C	1.912366	0.003257	-0.581480
C85	C	1.419057	-0.491321	-0.986953
C86	C	1.919057	0.008679	-0.486953
C87	C	1.493739	-0.430720	-0.936367
C88	C	1.993739	0.069280	-0.436367
C89	C	1.500435	-0.425303	-0.841838
C90	C	2.000435	0.074697	-0.341838
C91	C	1.357765	-0.541075	-0.848491
C92	C	1.857765	-0.041075	-0.348491
C93	C	1.351074	-0.546498	-0.943018
C94	C	1.851074	-0.046498	-0.443018
C95	C	1.473010	-0.447594	-0.226040
C96	C	1.973010	0.052406	0.273960
C97	C	1.480357	-0.441565	-0.125421
C98	C	1.980357	0.058435	0.374579
H99	H	0.842384	-0.572379	-0.572135
H100	H	1.342384	-0.072379	-0.072135
Br101	Br	1.663087	-0.293315	-0.911646
Br102	Br	2.163087	0.206685	-0.411646
Br103	Br	1.249692	-1.010795	-0.628796
Br104	Br	1.749692	-0.510795	-0.128796
H105	H	1.351564	-0.546081	-1.122683
H106	H	1.851564	-0.046081	-0.622683
H107	H	1.561246	-0.375959	-0.800653
H108	H	2.061246	0.124041	-0.300653
Br109	Br	1.311054	-1.149246	-0.579172
Br110	Br	1.811054	-0.649246	-0.079172
Br111	Br	0.846884	-0.316682	-0.317163
Br112	Br	1.346884	0.183318	0.182837
H113	H	1.622550	-0.938093	-0.326508
H114	H	2.122550	-0.438093	0.173492
Br115	Br	1.066756	-0.605651	-0.605281
Br116	Br	1.566756	-0.105651	-0.105281
Br117	Br	1.647394	-1.133429	-0.306525
Br118	Br	2.147394	-0.633429	0.193475
H119	H	1.610388	-0.336033	-1.110596
H120	H	2.110388	0.163967	-0.610596
Br121	Br	1.105525	-0.316658	-0.317127
Br122	Br	1.605525	0.183342	0.182873
H123	H	1.561202	-0.799649	-0.376139
H124	H	2.061202	-0.299649	0.123861
H125	H	1.290268	-0.595835	-0.984218
H126	H	1.790268	-0.095835	-0.484218
Br127	Br	1.265510	-0.615976	-0.788862
Br128	Br	1.765510	-0.115976	-0.288862
H129	H	1.302318	-0.811801	-0.585991
H130	H	1.802318	-0.311801	-0.085991
