data_functionalizedCrystal
_audit_creation_method	'MofGen! by Chris Wilmer'
_symmetry_space_group_name_H-M	'P1'
_symmetry_Int_Tables_number	1
_symmetry_cell_setting	triclinic
loop_
_symmetry_equiv_pos_as_xyz
  x,y,z
_cell_length_a	14.586319
_cell_length_b	16.109301
_cell_length_c	16.109301
_cell_angle_alpha	96.538519
_cell_angle_beta	90.007381
_cell_angle_gamma	90.002176
loop_
_atom_site_label
_atom_site_type_symbol
_atom_site_fract_x
_atom_site_fract_y
_atom_site_fract_z
O1	O	0.076185	-1.103127	0.106869
O2	O	0.076200	-0.861065	0.120168
O3	O	0.076183	-0.988746	-0.007512
O4	O	0.076203	-0.975446	0.234550
O5	O	-0.076298	-0.988745	-0.007520
O6	O	-0.076281	-0.861064	0.120160
O7	O	-0.076295	-1.103126	0.106861
Cu8	Cu	-0.090211	-0.982095	0.113510
Cu9	Cu	0.090115	-0.982096	0.113520
O10	O	-0.076278	-0.975445	0.234542
C11	C	-0.000038	-0.830090	0.119626
C12	C	-0.000033	-0.737794	0.118011
N13	N	0.216947	-0.982097	0.113520
C14	C	-0.000058	-0.988206	-0.038491
C15	C	-0.000059	-0.986591	-0.130786
N16	N	-0.217042	-0.982100	0.113503
C17	C	0.451946	-1.038743	0.057093
C18	C	0.547927	-1.038746	0.057091
C19	C	0.547952	-0.925451	0.169936
C20	C	0.451972	-0.925453	0.169942
C21	C	0.403972	-0.982099	0.113515
C22	C	0.595933	-0.982099	0.113508
C23	C	0.700000	-0.982101	0.113506
C24	C	0.299898	-0.982098	0.113518
C25	C	-0.000055	-1.134101	0.107404
C26	C	-0.000054	-1.226397	0.109019
C27	C	-0.000038	-0.515522	0.190018
C28	C	-0.000044	-0.428801	0.188494
C29	C	-0.000052	-0.448676	0.037006
C30	C	-0.000053	-0.535394	0.038530
C31	C	-0.000041	-0.568815	0.115039
C32	C	-0.000046	-0.395376	0.111990
C33	C	-0.000053	-0.301350	0.110337
C34	C	-0.000036	-0.662847	0.116693
C35	C	-0.000049	-1.058599	-0.353059
C36	C	-0.000041	-1.057075	-0.439779
C37	C	-0.000036	-0.905586	-0.419905
C38	C	-0.000037	-0.907111	-0.333186
C39	C	-0.000048	-0.983620	-0.299766
C40	C	-0.000039	-0.980571	-0.473205
C41	C	-0.000031	-0.978918	-0.567231
C42	C	-0.000055	-0.985273	-0.205734
C43	C	-0.000035	-0.975984	0.265521
C44	C	-0.000028	-0.977600	0.357816
H45	H	0.412866	-1.084869	0.011148
Cl46	Cl	-0.000061	-1.154781	-0.311047
Cl47	Cl	0.608234	-1.109962	-0.013842
H48	H	-0.000035	-0.542730	0.252317
H49	H	-0.000058	-0.578788	-0.022530
Cl50	Cl	0.608300	-0.854240	0.240866
Cl51	Cl	-0.000061	-0.406655	-0.059172
H52	H	0.412909	-0.879326	0.215891
Cl53	Cl	-0.000027	-0.812844	-0.266184
Cl54	Cl	-0.000022	-0.809409	-0.461926
H55	H	-0.000043	-0.385413	0.249550
Cl56	Cl	-0.000041	-1.151339	-0.506773
