data_functionalizedCrystal
_audit_creation_method	'MofGen! by Chris Wilmer'
_symmetry_space_group_name_H-M	'P1'
_symmetry_Int_Tables_number	1
_symmetry_cell_setting	triclinic
loop_
_symmetry_equiv_pos_as_xyz
  x,y,z
_cell_length_a	8.497374
_cell_length_b	13.032831
_cell_length_c	13.032721
_cell_angle_alpha	89.097115
_cell_angle_beta	97.169095
_cell_angle_gamma	97.172717
loop_
_atom_site_label
_atom_site_type_symbol
_atom_site_fract_x
_atom_site_fract_y
_atom_site_fract_z
Zn1	Zn	1.299749	1.519982	0.609635
Zn2	Zn	1.064703	1.498071	0.781567
Zn3	Zn	0.998870	1.348061	0.587743
Zn4	Zn	1.291326	1.326132	0.759681
O5	O	1.163662	1.423062	0.684657
O6	O	1.299646	1.660983	0.650764
O7	O	0.835209	1.478179	0.755853
O8	O	1.014756	1.389213	0.446737
O9	O	1.126959	1.644885	0.777081
O10	O	1.235810	1.515523	0.462821
O11	O	0.786842	1.367967	0.613452
O12	O	1.006589	1.201245	0.592230
O13	O	1.513205	1.351839	0.739780
O14	O	1.221455	1.185134	0.718552
O15	O	1.519393	1.494260	0.629542
O16	O	1.118792	1.456916	0.922574
O17	O	1.285291	1.330593	0.906494
C18	C	1.105965	1.155876	0.650641
C19	C	1.081324	1.041569	0.636114
C20	C	1.208312	1.389026	0.951852
C21	C	1.227486	1.374559	1.066171
C22	C	1.176523	0.982652	0.692239
C23	C	1.151057	0.864510	0.677225
C24	C	1.575141	1.423054	0.684657
C25	C	1.753788	1.423055	0.684668
C26	C	1.221586	1.691291	0.718806
C27	C	1.246269	1.805594	0.733358
C28	C	1.118879	1.457259	0.416421
C29	C	1.099795	1.471831	0.302116
C30	C	1.153738	1.430666	1.125067
C31	C	1.173554	1.415716	1.243222
H32	H	1.050699	0.827493	0.618052
H33	H	1.346641	0.842611	0.792522
H34	H	1.075935	1.489775	1.088019
H35	H	0.980973	1.004548	0.576944
H36	H	1.305302	1.315459	1.103223
C37	C	1.277183	1.336917	1.292799
C38	C	1.276194	1.337729	1.400132
C39	C	1.371619	1.265146	1.445837
H40	H	1.383576	1.354036	1.277228
H41	H	1.236167	1.270000	1.266576
H42	H	1.317215	1.404631	1.426346
H43	H	1.169825	1.320599	1.415733
H44	H	1.330604	1.198230	1.419613
H45	H	1.478006	1.282272	1.430257
H46	H	1.370949	1.265681	1.518665
C47	C	0.995791	1.550483	1.252657
C48	C	0.871760	1.500048	1.183668
C49	C	0.775909	1.572464	1.138099
H50	H	1.058678	1.600562	1.216309
H51	H	0.951991	1.583729	1.304897
H52	H	0.915558	1.466819	1.131435
H53	H	0.808834	1.449975	1.219991
H54	H	0.732109	1.605710	1.190339
H55	H	0.838810	1.622539	1.101756
H56	H	0.691736	1.538253	1.091292
C57	C	1.310434	1.032159	0.770982
C58	C	1.415157	1.101259	0.720640
C59	C	1.538525	1.146892	0.793149
H60	H	1.367040	0.979991	0.804288
H61	H	1.266469	1.068427	0.821005
H62	H	1.459119	1.064992	0.670636
H63	H	1.358599	1.153446	0.687339
H64	H	1.494560	1.183160	0.843172
H65	H	1.595118	1.094717	0.826451
H66	H	1.609586	1.193788	0.759004
