data_functionalizedCrystal
_audit_creation_method	'MofGen! by Chris Wilmer'
_symmetry_space_group_name_H-M	'P1'
_symmetry_Int_Tables_number	1
_symmetry_cell_setting	triclinic
loop_
_symmetry_equiv_pos_as_xyz
  x,y,z
_cell_length_a	18.215407
_cell_length_b	13.897447
_cell_length_c	18.215399
_cell_angle_alpha	89.974944
_cell_angle_beta	89.983101
_cell_angle_gamma	90.016989
loop_
_atom_site_label
_atom_site_type_symbol
_atom_site_fract_x
_atom_site_fract_y
_atom_site_fract_z
Zn1	Zn	1.125099	-0.384090	-0.416073
Zn2	Zn	1.625099	0.115910	0.083927
Zn3	Zn	1.125019	-0.545400	-0.293013
Zn4	Zn	1.625019	-0.045400	0.206987
Zn5	Zn	1.002032	-0.384113	-0.293027
Zn6	Zn	1.502032	0.115887	0.206973
Zn7	Zn	1.002009	-0.545338	-0.416044
Zn8	Zn	1.502009	-0.045338	0.083956
O9	O	1.063540	-0.464735	-0.354539
O10	O	1.563540	0.035265	0.145461
O11	O	1.228073	-0.405505	-0.399755
O12	O	1.728073	0.094495	0.100245
O13	O	1.108681	-0.524041	-0.190030
O14	O	1.608681	-0.024041	0.309970
O15	O	1.018400	-0.249129	-0.309367
O16	O	1.518400	0.250871	0.190633
O17	O	1.228014	-0.524018	-0.309343
O18	O	1.728014	-0.024018	0.190657
O19	O	1.108817	-0.249112	-0.399769
O20	O	1.608817	0.250888	0.100231
O21	O	1.018322	-0.405544	-0.190041
O22	O	1.518322	0.094456	0.309959
O23	O	0.899045	-0.405484	-0.309339
O24	O	1.399045	0.094516	0.190661
O25	O	1.018361	-0.523912	-0.519032
O26	O	1.518361	-0.023912	-0.019032
O27	O	0.899028	-0.523935	-0.399719
O28	O	1.399028	-0.023935	0.100281
O29	O	1.108795	-0.405444	-0.519054
O30	O	1.608795	0.094556	-0.019054
O31	O	1.108659	-0.680373	-0.309315
O32	O	1.608659	-0.180373	0.190685
O33	O	1.018284	-0.680328	-0.399706
O34	O	1.518284	-0.180328	0.100294
C35	C	0.872334	-0.464706	-0.354528
C36	C	1.372334	0.035294	0.145472
C37	C	0.790535	-0.464716	-0.354541
C38	C	1.290535	0.035284	0.145459
C39	C	1.063480	-0.715350	-0.354522
C40	C	1.563480	-0.215350	0.145478
C41	C	1.063522	-0.822564	-0.354539
C42	C	1.563522	-0.322564	0.145461
C43	C	0.525488	-0.526514	-0.401536
C44	C	1.025488	-0.026514	0.098464
C45	C	0.602347	-0.526506	-0.401532
C46	C	1.102347	-0.026506	0.098468
C47	C	0.602333	-0.402978	-0.307556
C48	C	1.102333	0.097022	0.192444
C49	C	0.525476	-0.402992	-0.307556
C50	C	1.025476	0.097008	0.192444
C51	C	0.487055	-0.464758	-0.354550
C52	C	0.987055	0.035242	0.145450
C53	C	0.640771	-0.464736	-0.354546
C54	C	1.140771	0.035264	0.145454
C55	C	0.724105	-0.464727	-0.354542
C56	C	1.224105	0.035273	0.145458
C57	C	0.403716	-0.464769	-0.354554
C58	C	0.903716	0.035231	0.145446
C59	C	1.063557	-0.909633	-0.354556
C60	C	1.563557	-0.409633	0.145444
C61	C	1.063609	-1.018866	-0.354575
C62	C	1.563609	-0.518866	0.145425
C63	C	1.255493	-0.464766	-0.354551
C64	C	1.755493	0.035234	0.145449
C65	C	1.337292	-0.464779	-0.354556
C66	C	1.837292	0.035221	0.145444
C67	C	1.063585	-0.464669	-0.546492
C68	C	1.563585	0.035331	-0.046492
C69	C	1.063604	-0.464640	-0.628291
C70	C	1.563604	0.035360	-0.128291
C71	C	1.063620	-0.213142	-0.354572
C72	C	1.563620	0.286858	0.145428
C73	C	1.063654	-0.105928	-0.354587
C74	C	1.563654	0.394072	0.145413
C75	C	1.110710	-0.402897	-0.816497
C76	C	1.610710	0.097103	-0.316497
C77	C	1.110718	-0.402868	-0.893356
C78	C	1.610718	0.097132	-0.393356
C79	C	1.016550	-0.526235	-0.893323
C80	C	1.516550	-0.026235	-0.393323
C81	C	1.016538	-0.526258	-0.816465
C82	C	1.516538	-0.026258	-0.316465
C83	C	1.063622	-0.464590	-0.778055
C84	C	1.563622	0.035410	-0.278055
C85	C	1.063643	-0.464539	-0.931771
C86	C	1.563643	0.035461	-0.431771
C87	C	1.063652	-0.464509	-1.015105
C88	C	1.563652	0.035491	-0.515105
C89	C	1.063612	-0.464618	-0.694716
C90	C	1.563612	0.035382	-0.194716
C91	C	1.063538	-0.464732	-0.163333
C92	C	1.563538	0.035268	0.336667
C93	C	1.063661	-0.464489	-0.081534
C94	C	1.563661	0.035511	0.418466
H95	H	0.633635	-0.576794	-0.439792
H96	H	1.133635	-0.076794	0.060208
H97	H	0.494208	-0.576809	-0.439801
H98	H	0.994208	-0.076809	0.060199
C99	C	0.644598	-0.335032	-0.255873
C100	C	1.144598	0.164968	0.244127
H101	H	0.695877	-0.343860	-0.262607
H102	H	1.195877	0.156140	0.237393
H103	H	0.631988	-0.349067	-0.206408
H104	H	1.131988	0.150933	0.293592
H105	H	0.632011	-0.270239	-0.266733
H106	H	1.132011	0.229761	0.233267
H107	H	0.494183	-0.352702	-0.269291
H108	H	0.994183	0.147298	0.230709
C109	C	1.162490	-0.335053	-0.774248
C110	C	1.662490	0.164947	-0.274248
H111	H	1.190529	-0.298300	-0.808154
H112	H	1.690529	0.201700	-0.308154
H113	H	1.194543	-0.371956	-0.744262
H114	H	1.694543	0.128044	-0.244262
H115	H	1.134337	-0.293029	-0.744272
H116	H	1.634337	0.206971	-0.244272
C117	C	1.162518	-0.335010	-0.935640
C118	C	1.662518	0.164990	-0.435640
H119	H	1.190560	-0.298294	-0.901754
H120	H	1.690560	0.201706	-0.401754
H121	H	1.134387	-0.292967	-0.965625
H122	H	1.634387	0.207033	-0.465625
H123	H	1.194579	-0.371912	-0.965620
H124	H	1.694579	0.128088	-0.465620
H125	H	0.978218	-0.576445	-0.924606
H126	H	1.478218	-0.076445	-0.424606
C127	C	0.964744	-0.594130	-0.774176
C128	C	1.464744	-0.094130	-0.274176
H129	H	0.936713	-0.630865	-0.808058
H130	H	1.436713	-0.130865	-0.308058
H131	H	0.932685	-0.557240	-0.744193
H132	H	1.432685	-0.057240	-0.244193
H133	H	0.992888	-0.636170	-0.744193
H134	H	1.492888	-0.136170	-0.244193
