data_functionalizedCrystal
_audit_creation_method	'MofGen! by Chris Wilmer'
_symmetry_space_group_name_H-M	'P1'
_symmetry_Int_Tables_number	1
_symmetry_cell_setting	triclinic
loop_
_symmetry_equiv_pos_as_xyz
  x,y,z
_cell_length_a	18.215405
_cell_length_b	11.169417
_cell_length_c	11.169409
_cell_angle_alpha	90.021683
_cell_angle_beta	89.960202
_cell_angle_gamma	89.976177
loop_
_atom_site_label
_atom_site_type_symbol
_atom_site_fract_x
_atom_site_fract_y
_atom_site_fract_z
Zn1	Zn	-0.292946	-1.834841	-0.678540
Zn2	Zn	0.040388	-1.501508	-0.345207
Zn3	Zn	0.373721	-1.168174	-0.011873
Zn4	Zn	-0.416037	-1.834679	-0.477831
Zn5	Zn	-0.082703	-1.501346	-0.144497
Zn6	Zn	0.250630	-1.168013	0.188836
Zn7	Zn	-0.292986	-1.634127	-0.477868
Zn8	Zn	0.040347	-1.300794	-0.144535
Zn9	Zn	0.373680	-0.967460	0.188799
Zn10	Zn	-0.415973	-1.634083	-0.678469
Zn11	Zn	-0.082639	-1.300750	-0.345136
Zn12	Zn	0.250694	-0.967417	-0.011802
O13	O	-0.354485	-1.734433	-0.578177
O14	O	-0.021152	-1.401099	-0.244844
O15	O	0.312181	-1.067766	0.088490
O16	O	-0.309284	-2.002769	-0.651930
O17	O	0.024050	-1.669436	-0.318596
O18	O	0.357383	-1.336103	0.014737
O19	O	-0.399758	-1.808026	-0.309886
O20	O	-0.066424	-1.474693	0.023448
O21	O	0.266909	-1.141360	0.356781
O22	O	-0.189997	-1.660838	-0.504533
O23	O	0.143337	-1.327505	-0.171199
O24	O	0.476670	-0.994171	0.162134
O25	O	-0.399718	-2.002651	-0.504469
O26	O	-0.066385	-1.669317	-0.171136
O27	O	0.266949	-1.335984	0.162197
O28	O	-0.189967	-1.808302	-0.651966
O29	O	0.143367	-1.474968	-0.318632
O30	O	0.476700	-1.141635	0.014701
O31	O	-0.309353	-1.660681	-0.309913
O32	O	0.023980	-1.327348	0.023420
O33	O	0.357314	-0.994014	0.356754
O34	O	-0.309291	-1.466171	-0.504464
O35	O	0.024042	-1.132838	-0.171131
O36	O	0.357376	-0.799505	0.162203
O37	O	-0.399609	-1.660764	-0.846428
O38	O	-0.066276	-1.327430	-0.513095
O39	O	0.267058	-0.994097	-0.179762
O40	O	-0.399648	-1.466140	-0.651845
O41	O	-0.066315	-1.132806	-0.318511
O42	O	0.267018	-0.799473	0.014822
O43	O	-0.309221	-1.808260	-0.846480
O44	O	0.024112	-1.474926	-0.513147
O45	O	0.357445	-1.141593	-0.179814
O46	O	-0.519012	-1.807984	-0.504401
O47	O	-0.185679	-1.474651	-0.171067
O48	O	0.147654	-1.141317	0.162266
O49	O	-0.518965	-1.660607	-0.651809
O50	O	-0.185632	-1.327274	-0.318475
O51	O	0.147701	-0.993940	0.014858
C52	C	-0.354468	-1.422608	-0.578151
C53	C	-0.021134	-1.089275	-0.244818
C54	C	0.312199	-0.755941	0.088515
C55	C	-0.354478	-1.289208	-0.578169
C56	C	-0.021144	-0.955875	-0.244836
C57	C	0.312189	-0.622541	0.088498
C58	C	-0.545692	-1.734306	-0.578119
C59	C	-0.212358	-1.400973	-0.244786
C60	C	0.120975	-1.067639	0.088547
C61	C	-0.627490	-1.734362	-0.578135
C62	C	-0.294157	-1.401028	-0.244801
C63	C	0.039176	-1.067695	0.088532
C64	C	-0.815684	-1.811281	-0.501520
C65	C	-0.482351	-1.477948	-0.168187
C66	C	-0.149018	-1.144614	0.165146
C67	C	-0.892543	-1.811335	-0.501550
C68	C	-0.559210	-1.478001	-0.168216
C69	C	-0.225876	-1.144668	0.165117
C70	C	-0.892534	-1.657738	-0.654920
C71	C	-0.559201	-1.324405	-0.321586
C72	C	-0.225867	-0.991071	0.011747
C73	C	-0.815677	-1.657691	-0.654896
C74	C	-0.482343	-1.324358	-0.321562
C75	C	-0.149010	-0.991025	0.011771
C76	C	-0.777254	-1.734461	-0.578189
C77	C	-0.443921	-1.401128	-0.244856
C78	C	-0.110587	-1.067794	0.088477
C79	C	-0.930970	-1.734561	-0.578242
C80	C	-0.597637	-1.401228	-0.244909
C81	C	-0.264303	-1.067895	0.088424
C82	C	-1.014304	-1.734619	-0.578274
C83	C	-0.680970	-1.401286	-0.244941
C84	C	-0.347637	-1.067952	0.088392
C85	C	-0.693915	-1.734405	-0.578159
C86	C	-0.360582	-1.401072	-0.244825
C87	C	-0.027248	-1.067739	0.088508
C88	C	-0.162532	-1.734593	-0.578261
C89	C	0.170801	-1.401259	-0.244928
C90	C	0.504134	-1.067926	0.088406
C91	C	-0.080733	-1.734661	-0.578297
C92	C	0.252600	-1.401327	-0.244964
C93	C	0.585933	-1.067994	0.088370
C94	C	-0.354404	-1.734525	-0.891220
C95	C	-0.021070	-1.401192	-0.557886
C96	C	0.312263	-1.067858	-0.224553
C97	C	-0.354369	-1.734564	-1.024620
C98	C	-0.021035	-1.401231	-0.691286
C99	C	0.312298	-1.067897	-0.357953
C100	C	-0.354497	-1.047475	-0.578194
C101	C	-0.021164	-0.714142	-0.244860
C102	C	0.312169	-0.380808	0.088473
C103	C	-0.354487	-1.180875	-0.578177
C104	C	-0.021153	-0.847542	-0.244843
C105	C	0.312180	-0.514208	0.088490
C106	C	-0.354514	-1.734410	-0.266352
C107	C	-0.021180	-1.401077	0.066981
C108	C	0.312153	-1.067743	0.400314
C109	C	-0.354341	-1.734603	-0.132953
C110	C	-0.021008	-1.401270	0.200381
C111	C	0.312326	-1.067937	0.533714
H112	H	-0.923830	-1.873891	-0.439120
H113	H	-0.590496	-1.540558	-0.105786
H114	H	-0.257163	-1.207224	0.227547
H115	H	-0.784402	-1.873793	-0.439063
H116	H	-0.451069	-1.540460	-0.105730
H117	H	-0.117736	-1.207127	0.227603
H118	H	-0.923827	-1.595233	-0.717369
H119	H	-0.590494	-1.261900	-0.384036
H120	H	-0.257161	-0.928566	-0.050703
H121	H	-0.784385	-1.595135	-0.717335
H122	H	-0.451051	-1.261802	-0.384001
H123	H	-0.117718	-0.928468	-0.050668
