data_functionalizedCrystal
_audit_creation_method	'MofGen! by Chris Wilmer'
_symmetry_space_group_name_H-M	'P1'
_symmetry_Int_Tables_number	1
_symmetry_cell_setting	triclinic
loop_
_symmetry_equiv_pos_as_xyz
  x,y,z
_cell_length_a	16.992694
_cell_length_b	11.026607
_cell_length_c	16.053802
_cell_angle_alpha	93.134017
_cell_angle_beta	87.249047
_cell_angle_gamma	99.627120
loop_
_atom_site_label
_atom_site_type_symbol
_atom_site_fract_x
_atom_site_fract_y
_atom_site_fract_z
O1	O	1.079834	0.256038	-0.069317
O2	O	0.851145	0.253175	-0.069342
O3	O	0.946536	0.076115	-0.069328
O4	O	0.984443	0.433098	-0.069330
O5	O	0.941279	0.085818	0.069530
O6	O	0.845889	0.262878	0.069516
O7	O	1.074577	0.265741	0.069541
Zn8	Zn	0.959398	0.265850	0.091575
Zn9	Zn	0.966324	0.253066	-0.091376
O10	O	0.979186	0.442801	0.069528
C11	C	0.818785	0.254344	0.000084
C12	C	0.730190	0.243357	0.000075
C13	C	0.694911	0.349355	0.000075
C14	C	0.611666	0.339026	0.000086
C15	C	0.563702	0.222698	0.000092
C16	C	0.598986	0.116693	0.000094
C17	C	0.682229	0.127024	0.000089
C18	C	0.314060	0.179883	0.000114
C19	C	0.230811	0.169561	0.000117
C20	C	0.243497	0.391895	0.000111
C21	C	0.326741	0.402215	0.000100
C22	C	0.362018	0.296210	0.000107
N23	N	0.478612	0.212138	0.000101
N24	N	0.447107	0.306772	0.000104
C25	C	0.936914	0.035078	0.000099
C26	C	0.916068	-0.101658	0.000094
C27	C	0.973629	-0.169881	0.000099
C28	C	0.952085	-0.311205	0.000093
C29	C	1.106937	0.264572	0.000113
C30	C	1.195532	0.275558	0.000117
C31	C	0.988808	0.483838	0.000099
C32	C	1.009655	0.620574	0.000098
N33	N	0.954677	0.274575	0.216435
N34	N	0.971050	0.244332	-0.216236
C35	C	0.995289	0.199266	0.260135
C36	C	0.991996	0.205382	0.347541
C37	C	0.948095	0.286813	0.391246
C38	C	0.907478	0.362124	0.347540
C39	C	0.910767	0.356002	0.260136
C40	C	0.933722	0.313521	0.652654
C41	C	0.930438	0.319641	0.740065
C42	C	1.014955	0.162896	0.740059
C43	C	1.018244	0.156786	0.652653
C44	C	0.977624	0.232093	0.608955
N45	N	0.944729	0.293068	0.480589
N46	N	0.980985	0.225830	0.519613
H47	H	0.582946	0.425341	0.000085
O48	O	0.720284	0.012698	0.000095
H49	H	0.760049	0.008129	-0.056497
H50	H	1.031042	0.132962	0.224556
O51	O	0.205443	0.506220	0.000111
H52	H	0.252782	0.588843	0.000102
O53	O	1.035810	0.124157	0.394664
H54	H	0.992411	0.063851	0.434488
O55	O	0.865671	-0.372406	0.000081
H56	H	0.833523	-0.340192	0.056672
H57	H	0.191760	0.074828	0.000121
O58	O	0.378475	0.527683	0.000116
H59	H	0.339956	0.599658	0.000130
H60	H	0.733959	0.444081	0.000069
O61	O	1.096069	-0.318232	0.000112
H62	H	1.099433	-0.216834	0.000121
O63	O	1.060039	-0.108680	0.000109
H64	H	1.063401	-0.007282	0.000117
O65	O	0.829657	-0.162860	0.000090
H66	H	0.826295	-0.264257	0.000095
O67	O	0.860135	0.449962	0.394680
H68	H	0.832444	0.501296	0.349606
O69	O	0.352105	0.065556	0.000121
H70	H	0.304765	-0.017066	0.000119
O71	O	1.065586	0.068946	0.605513
H72	H	1.093267	0.017596	0.650585
H73	H	0.559926	0.021977	0.000111
H74	H	1.048025	0.101583	0.775646
H75	H	0.894687	0.385957	0.775645
H76	H	0.900649	0.374842	0.617082
O77	O	0.866970	0.437232	0.212996
H78	H	0.835896	0.494894	0.258069
