data_functionalizedCrystal
_audit_creation_method	'MofGen! by Chris Wilmer'
_symmetry_space_group_name_H-M	'P1'
_symmetry_Int_Tables_number	1
_symmetry_cell_setting	triclinic
loop_
_symmetry_equiv_pos_as_xyz
  x,y,z
_cell_length_a	6.817900
_cell_length_b	16.305597
_cell_length_c	16.305550
_cell_angle_alpha	95.371930
_cell_angle_beta	103.455250
_cell_angle_gamma	103.455834
loop_
_atom_site_label
_atom_site_type_symbol
_atom_site_fract_x
_atom_site_fract_y
_atom_site_fract_z
V1	V	-4.026184	-0.117429	-0.263322
O2	O	-4.013844	0.004910	-0.258012
O3	O	-3.977574	-0.232137	-0.261808
O4	O	-3.977591	-0.115944	-0.378036
O5	O	-4.013827	-0.112087	-0.140980
V6	V	-4.509864	-0.102758	-0.248654
O7	O	-4.287097	-0.149611	-0.295498
O8	O	-4.699147	-0.070575	-0.216479
O9	O	-4.335267	0.011951	-0.250169
O10	O	-4.639601	-0.225097	-0.253965
O11	O	-4.639617	-0.108099	-0.370997
O12	O	-4.335250	-0.104243	-0.133941
C13	C	-3.822530	-0.260091	-0.257728
C14	C	-3.864072	-0.353868	-0.257254
C15	C	-4.015199	-0.694622	-0.255573
C16	C	-3.779480	-0.653779	-0.250966
C17	C	-3.735942	-0.556181	-0.251124
C18	C	-3.940222	-0.525570	-0.256407
C19	C	-4.023196	-0.550725	-0.177802
C20	C	-4.065002	-0.648256	-0.177220
C21	C	-4.153223	-0.674025	-0.338559
C22	C	-4.106392	-0.576516	-0.340014
C23	C	-3.897858	-0.430029	-0.256876
C24	C	-4.057566	-0.790162	-0.255098
C25	C	-3.822550	-0.111874	-0.405987
C26	C	-3.864102	-0.111419	-0.499768
C27	C	-4.015190	-0.109655	-0.840509
C28	C	-3.779145	-0.104421	-0.799567
C29	C	-3.735951	-0.105243	-0.702074
C30	C	-3.940232	-0.110530	-0.671463
C31	C	-4.107221	-0.193843	-0.722296
C32	C	-4.149085	-0.193372	-0.819844
C33	C	-4.069986	-0.032242	-0.794473
C34	C	-4.022057	-0.031583	-0.696629
C35	C	-3.897882	-0.111027	-0.575926
C36	C	-4.057549	-0.109164	-0.936046
C37	C	-4.153653	0.039900	-0.254247
C38	C	-4.091350	0.133676	-0.254726
C39	C	-4.153633	-0.108316	-0.105985
C40	C	-4.091320	-0.108767	-0.012204
H41	H	-3.733628	-0.684409	-0.306909
N42	N	-4.206875	-0.030257	-0.669891
N43	N	-4.208430	0.031801	-0.619085
H44	H	-4.338993	0.032733	-0.600221
H45	H	-3.674445	-0.667116	-0.191115
N46	N	-3.955333	0.046954	-0.811024
N47	N	-3.833368	0.101345	-0.750522
H48	H	-3.752375	0.157275	-0.762209
N49	N	-4.369803	-0.707894	-0.343846
N50	N	-4.487003	-0.659102	-0.345356
H51	H	-4.639959	-0.683027	-0.349090
N52	N	-3.870237	0.045719	-0.653306
N53	N	-3.702361	0.042746	-0.604067
H54	H	-3.595135	0.097339	-0.573461
H55	H	-4.242049	-0.035336	-0.821297
N56	N	-4.118483	-0.715020	-0.413336
N57	N	-3.991561	-0.759922	-0.406372
H58	H	-3.967002	-0.788875	-0.459178
N59	N	-3.645906	-0.028966	-0.814913
N60	N	-3.526394	0.025004	-0.753510
H61	H	-3.432259	0.078281	-0.764365
N62	N	-3.875192	-0.505862	-0.100147
N63	N	-3.912520	-0.517189	-0.029946
H64	H	-3.807984	-0.485508	0.024898
H65	H	-3.669495	-0.161503	-0.685920
H66	H	-4.051756	-0.252463	-0.705629
H67	H	-4.047529	-0.560983	-0.398178
N68	N	-3.577258	-0.030116	-0.657932
N69	N	-3.518112	-0.017878	-0.578205
H70	H	-3.406018	0.035179	-0.547032
H71	H	-3.669702	-0.539416	-0.307294
H72	H	-3.734025	-0.160039	-0.831217
H73	H	-3.609149	-0.521585	-0.191100
N74	N	-4.297505	-0.551663	-0.350966
N75	N	-4.314430	-0.495752	-0.297087
H76	H	-4.449409	-0.478199	-0.304815
N77	N	-4.211372	-0.525805	-0.178859
N78	N	-4.218250	-0.474722	-0.118111
H79	H	-4.351148	-0.457119	-0.118858
H80	H	-3.966022	-0.659587	-0.114785
N81	N	-4.103707	-0.266894	-0.858133
N82	N	-4.041396	-0.318195	-0.812764
H83	H	-4.009342	-0.370122	-0.839801
H84	H	-4.235016	-0.675100	-0.177167
H85	H	-4.260373	-0.200725	-0.703400
N86	N	-4.367149	-0.202524	-0.854973
N87	N	-4.487963	-0.209245	-0.807432
H88	H	-4.641971	-0.215712	-0.832239
