data_functionalizedCrystal
_audit_creation_method	'MofGen! by Chris Wilmer'
_symmetry_space_group_name_H-M	'P1'
_symmetry_Int_Tables_number	1
_symmetry_cell_setting	triclinic
loop_
_symmetry_equiv_pos_as_xyz
  x,y,z
_cell_length_a	29.839135
_cell_length_b	29.839131
_cell_length_c	19.120904
_cell_angle_alpha	87.590850
_cell_angle_beta	87.580563
_cell_angle_gamma	90.043950
loop_
_atom_site_label
_atom_site_type_symbol
_atom_site_fract_x
_atom_site_fract_y
_atom_site_fract_z
Zn1	Zn	0.675899	-0.189671	0.397159
Zn2	Zn	1.009232	0.143663	0.730493
Zn3	Zn	1.342566	0.476996	1.063826
Zn4	Zn	0.679031	-0.261593	0.279706
Zn5	Zn	1.012365	0.071740	0.613040
Zn6	Zn	1.345698	0.405073	0.946373
Zn7	Zn	0.603982	-0.186482	0.279719
Zn8	Zn	0.937315	0.146851	0.613052
Zn9	Zn	1.270648	0.480185	0.946386
Zn10	Zn	0.600731	-0.264776	0.397107
Zn11	Zn	0.934064	0.068557	0.730441
Zn12	Zn	1.267398	0.401890	1.063774
O13	O	0.639911	-0.225631	0.338423
O14	O	0.973244	0.107703	0.671756
O15	O	1.306577	0.441036	1.005090
O16	O	0.739181	-0.199214	0.381595
O17	O	1.072515	0.134119	0.714929
O18	O	1.405848	0.467453	1.048262
O19	O	0.671747	-0.248963	0.181426
O20	O	1.005080	0.084370	0.514759
O21	O	1.338414	0.417704	0.848093
O22	O	0.613571	-0.124038	0.295325
O23	O	0.946904	0.209295	0.628658
O24	O	1.280238	0.542628	0.961991
O25	O	0.741482	-0.252055	0.295303
O26	O	1.074816	0.081278	0.628636
O27	O	1.408149	0.414611	0.961970
O28	O	0.666409	-0.126381	0.381608
O29	O	0.999742	0.206952	0.714941
O30	O	1.333075	0.540285	1.048274
O31	O	0.616608	-0.193779	0.181435
O32	O	0.949942	0.139554	0.514769
O33	O	1.283275	0.472888	0.848102
O34	O	0.540684	-0.196865	0.295274
O35	O	0.874017	0.136468	0.628608
O36	O	1.207350	0.469801	0.961941
O37	O	0.608031	-0.257480	0.495396
O38	O	0.941364	0.075853	0.828730
O39	O	1.274698	0.409187	1.162063
O40	O	0.538296	-0.254388	0.381519
O41	O	0.871629	0.078945	0.714853
O42	O	1.204962	0.412279	1.048186
O43	O	0.663257	-0.202300	0.495434
O44	O	0.996590	0.131033	0.828768
O45	O	1.329923	0.464366	1.162101
O46	O	0.668595	-0.324882	0.295253
O47	O	1.001928	0.008451	0.628586
O48	O	1.335262	0.341785	0.961919
O49	O	0.611068	-0.327221	0.381507
O50	O	0.944402	0.006113	0.714840
O51	O	1.277735	0.339446	1.048174
C52	C	0.523189	-0.225626	0.338393
C53	C	0.856522	0.107707	0.671726
C54	C	1.189856	0.441040	1.005060
C55	C	0.473254	-0.225636	0.338397
C56	C	0.806588	0.107698	0.671730
C57	C	1.139921	0.441031	1.005064
C58	C	0.162407	-0.198162	0.383422
C59	C	0.495741	0.135172	0.716755
C60	C	0.829074	0.468505	1.050088
C61	C	-0.025266	-0.198165	0.383442
C62	C	0.308067	0.135168	0.716775
C63	C	0.641400	0.468502	1.050108
O64	O	-0.050554	-0.174794	0.421690
O65	O	0.282780	0.158539	0.755023
O66	O	0.616113	0.491872	1.088357
N67	N	-0.047532	-0.225632	0.338449
N68	N	0.285801	0.107702	0.671782
N69	N	0.619135	0.441035	1.005115
C70	C	-0.022876	-0.253097	0.293445
C71	C	0.310457	0.080236	0.626778
C72	C	0.643790	0.413569	0.960111
O73	O	-0.046121	-0.276456	0.255171
O74	O	0.287212	0.056877	0.588504
O75	O	0.620546	0.390211	0.921838
C76	C	0.164796	-0.253091	0.293422
C77	C	0.498130	0.080242	0.626755
C78	C	0.831463	0.413576	0.960088
C79	C	0.187060	-0.225626	0.338422
C80	C	0.520393	0.107707	0.671756
C81	C	0.853726	0.441041	1.005089
C82	C	0.184671	-0.170698	0.428418
C83	C	0.518004	0.162635	0.761751
C84	C	0.851337	0.495968	1.095085
C85	C	0.231586	-0.170699	0.428415
C86	C	0.564919	0.162634	0.761749
C87	C	0.898253	0.495967	1.095082
C88	C	0.256238	-0.198164	0.383416
C89	C	0.589572	0.135169	0.716749
C90	C	0.922905	0.468503	1.050083
C91	C	0.233975	-0.225627	0.338420
C92	C	0.567308	0.107706	0.671753
C93	C	0.900642	0.441040	1.005086
C94	C	0.189451	-0.280554	0.248414
C95	C	0.522785	0.052780	0.581748
C96	C	0.856118	0.386113	0.915081
C97	C	0.236372	-0.280549	0.248411
C98	C	0.569706	0.052784	0.581745
C99	C	0.903039	0.386118	0.915078
C100	C	0.258636	-0.253084	0.293412
C101	C	0.591969	0.080249	0.626745
C102	C	0.925302	0.413583	0.960079
C103	C	0.305543	-0.253093	0.293418
C104	C	0.638876	0.080241	0.626751
C105	C	0.972210	0.413574	0.960084
N106	N	0.327809	-0.225626	0.338410
N107	N	0.661142	0.107707	0.671744
N108	N	0.994475	0.441041	1.005077
C109	C	0.303156	-0.198162	0.383410
C110	C	0.636490	0.135172	0.716743
C111	C	0.969823	0.468505	1.050076
C112	C	-0.121407	-0.253099	0.293461
C113	C	0.211926	0.080234	0.626794
C114	C	0.545259	0.413567	0.960127
C115	C	-0.168325	-0.253102	0.293467
C116	C	0.165008	0.080232	0.626801
C117	C	0.498341	0.413565	0.960134
C118	C	-0.170712	-0.198169	0.383464
C119	C	0.162621	0.135165	0.716797
C120	C	0.495955	0.468498	1.050130
C121	C	-0.123793	-0.198169	0.383460
C122	C	0.209540	0.135164	0.716793
C123	C	0.542873	0.468498	1.050127
C124	C	-0.099142	-0.225633	0.338454
C125	C	0.234192	0.107701	0.671787
C126	C	0.567525	0.441034	1.005120
C127	C	0.401682	-0.198166	0.383401
C128	C	0.735016	0.135167	0.716734
C129	C	1.068349	0.468500	1.050067
C130	C	0.448602	-0.198171	0.383396
C131	C	0.781936	0.135162	0.716729
C132	C	1.115269	0.468495	1.050063
C133	C	0.450985	-0.253102	0.293398
C134	C	0.784318	0.080231	0.626731
C135	C	1.117651	0.413564	0.960064
C136	C	0.404069	-0.253099	0.293405
C137	C	0.737402	0.080234	0.626738
C138	C	1.070736	0.413567	0.960071
C139	C	0.379419	-0.225628	0.338409
C140	C	0.712752	0.107706	0.671742
C141	C	1.046086	0.441039	1.005075
O142	O	0.330859	-0.276447	0.255184
O143	O	0.664192	0.056886	0.588517
O144	O	0.997525	0.390219	0.921850
O145	O	0.326410	-0.174799	0.421667
O146	O	0.659743	0.158534	0.755000
O147	O	0.993076	0.491868	1.088333
C148	C	0.115492	-0.198160	0.383424
C149	C	0.448825	0.135173	0.716758
C150	C	0.782158	0.468506	1.050091
C151	C	0.093228	-0.225624	0.338428
C152	C	0.426562	0.107710	0.671761
C153	C	0.759895	0.441043	1.005094
C154	C	0.117881	-0.253088	0.293429
C155	C	0.451214	0.080245	0.626762
C156	C	0.784547	0.413579	0.960095
C157	C	0.046310	-0.225626	0.338434
C158	C	0.379644	0.107708	0.671768
C159	C	0.712977	0.441041	1.005101
C160	C	0.021658	-0.198161	0.383434
C161	C	0.354992	0.135172	0.716767
C162	C	0.688325	0.468505	1.050100
C163	C	0.043924	-0.170695	0.428426
C164	C	0.377257	0.162639	0.761760
C165	C	0.710591	0.495972	1.095093
C166	C	0.090840	-0.170696	0.428424
C167	C	0.424173	0.162637	0.761757
C168	C	0.757506	0.495971	1.095090
C169	C	0.095615	-0.280555	0.248436
C170	C	0.428948	0.052779	0.581769
C171	C	0.762282	0.386112	0.915102
C172	C	0.048699	-0.280552	0.248443
C173	C	0.382033	0.052782	0.581776
C174	C	0.715366	0.386115	0.915109
C175	C	0.024047	-0.253087	0.293442
C176	C	0.357380	0.080246	0.626775
C177	C	0.690714	0.413580	0.960109
C178	C	0.639831	-0.342352	0.338388
C179	C	0.973164	-0.009019	0.671722
C180	C	1.306497	0.324314	1.005055
C181	C	0.639837	-0.392287	0.338397
C182	C	0.973170	-0.058954	0.671730
C183	C	1.306503	0.274380	1.005063
C184	C	0.669915	-0.700702	0.293576
C185	C	1.003249	-0.367369	0.626909
C186	C	1.336582	-0.034036	0.960243
C187	C	0.669970	-0.888376	0.293603
C188	C	1.003303	-0.555043	0.626937
C189	C	1.336637	-0.221710	0.960270
O190	O	0.695480	-0.911596	0.255468
O191	O	1.028814	-0.578263	0.588802
O192	O	1.362147	-0.244930	0.922135
N193	N	0.640002	-0.913074	0.338476
N194	N	0.973336	-0.579741	0.671809
N195	N	1.306669	-0.246407	1.005143
C196	C	0.610021	-0.890851	0.383348
C197	C	0.943354	-0.557517	0.716682
C198	C	1.276688	-0.224184	1.050015
O199	O	0.584536	-0.916164	0.421521
O200	O	0.917869	-0.582831	0.754854
O201	O	1.251203	-0.249498	1.088188
C202	C	0.609969	-0.703178	0.383324
C203	C	0.943302	-0.369845	0.716657
C204	C	1.276635	-0.036511	1.049991
C205	C	0.639935	-0.678482	0.338443
C206	C	0.973269	-0.345149	0.671777
C207	C	1.306602	-0.011816	1.005110
C208	C	0.699880	-0.676007	0.248700
C209	C	1.033213	-0.342674	0.582033
C210	C	1.366546	-0.009340	0.915366
C211	C	0.699864	-0.629091	0.248691
C212	C	1.033198	-0.295758	0.582024
C213	C	1.366531	0.037575	0.915357
C214	C	0.669884	-0.606871	0.293558
C215	C	1.003217	-0.273538	0.626891
C216	C	1.336551	0.059796	0.960225
C217	C	0.639920	-0.631567	0.338434
C218	C	0.973253	-0.298233	0.671768
C219	C	1.306586	0.035100	1.005101
C220	C	0.579990	-0.680956	0.428199
C221	C	0.913323	-0.347622	0.761533
C222	C	1.246656	-0.014289	1.094866
C223	C	0.579980	-0.634034	0.428190
C224	C	0.913314	-0.300701	0.761524
C225	C	1.246647	0.032632	1.094857
C226	C	0.609947	-0.609339	0.383310
C227	C	0.943280	-0.276005	0.716643
C228	C	1.276613	0.057328	1.049977
C229	C	0.609924	-0.562431	0.383293
C230	C	0.943257	-0.229097	0.716626
C231	C	1.276591	0.104236	1.049959
N232	N	0.639892	-0.537733	0.338420
N233	N	0.973225	-0.204400	0.671753
N234	N	1.306558	0.128934	1.005087
C235	C	0.669872	-0.559953	0.293553
C236	C	1.003205	-0.226620	0.626886
C237	C	1.336538	0.106714	0.960219
C238	C	0.610050	-0.989382	0.383357
C239	C	0.943383	-0.656048	0.716690
C240	C	1.276717	-0.322715	1.050023
C241	C	0.610062	-1.036300	0.383362
C242	C	0.943396	-0.702966	0.716695
C243	C	1.276729	-0.369633	1.050029
C244	C	0.670012	-1.033822	0.293618
C245	C	1.003345	-0.700488	0.626951
C246	C	1.336679	-0.367155	0.960285
C247	C	0.669997	-0.986903	0.293610
C248	C	1.003331	-0.653570	0.626943
C249	C	1.336664	-0.320236	0.960276
C250	C	0.640018	-0.964684	0.338484
C251	C	0.973351	-0.631350	0.671818
C252	C	1.306684	-0.298017	1.005151
C253	C	0.669836	-0.461427	0.293537
C254	C	1.003170	-0.128093	0.626870
C255	C	1.336503	0.205240	0.960203
C256	C	0.669817	-0.414507	0.293530
C257	C	1.003150	-0.081174	0.626863
C258	C	1.336483	0.252160	0.960196
C259	C	0.609869	-0.416989	0.383276
C260	C	0.943202	-0.083656	0.716609
C261	C	1.276535	0.249678	1.049943
C262	C	0.609886	-0.463905	0.383281
C263	C	0.943220	-0.130571	0.716614
C264	C	1.276553	0.202762	1.049947
C265	C	0.639874	-0.486122	0.338409
C266	C	0.973207	-0.152789	0.671742
C267	C	1.306541	0.180544	1.005075
O268	O	0.584430	-0.539181	0.421413
O269	O	0.917764	-0.205848	0.754746
O270	O	1.251097	0.127485	1.088080
O271	O	0.695360	-0.534632	0.255397
O272	O	1.028693	-0.201299	0.588730
O273	O	1.362026	0.132035	0.922063
C274	C	0.669931	-0.747618	0.293585
C275	C	1.003264	-0.414285	0.626919
C276	C	1.336598	-0.080951	0.960252
C277	C	0.639967	-0.772314	0.338462
C278	C	0.973300	-0.438980	0.671795
C279	C	1.306633	-0.105647	1.005128
C280	C	0.609986	-0.750094	0.383329
C281	C	0.943320	-0.416760	0.716662
C282	C	1.276653	-0.083427	1.049996
C283	C	0.639979	-0.819232	0.338467
C284	C	0.973312	-0.485898	0.671800
C285	C	1.306646	-0.152565	1.005134
C286	C	0.669959	-0.841452	0.293600
C287	C	1.003292	-0.508118	0.626933
C288	C	1.336626	-0.174785	0.960266
C289	C	0.699927	-0.816754	0.248727
C290	C	1.033260	-0.483421	0.582060
C291	C	1.366593	-0.150087	0.915394
C292	C	0.699911	-0.769838	0.248718
C293	C	1.033244	-0.436505	0.582051
C294	C	1.366578	-0.103172	0.915385
C295	C	0.580019	-0.774791	0.428201
C296	C	0.913352	-0.441458	0.761535
C297	C	1.246685	-0.108125	1.094868
C298	C	0.580037	-0.821707	0.428206
C299	C	0.913370	-0.488374	0.761540
C300	C	1.246703	-0.155040	1.094873
C301	C	0.610017	-0.843927	0.383339
C302	C	0.943350	-0.510594	0.716672
C303	C	1.276683	-0.177260	1.050006
C304	C	0.757088	-0.225635	0.338454
C305	C	1.090422	0.107698	0.671787
C306	C	1.423755	0.441031	1.005120
C307	C	0.807022	-0.225637	0.338467
C308	C	1.140356	0.107696	0.671800
C309	C	1.473689	0.441029	1.005133
C310	C	0.634932	-0.230601	0.521611
C311	C	0.968265	0.102732	0.854945
C312	C	1.301599	0.436066	1.188278
C313	C	0.632810	-0.232719	0.599675
C314	C	0.966144	0.100614	0.933009
C315	C	1.299477	0.433948	1.266342
C316	C	0.640003	-0.108454	0.338473
C317	C	0.973336	0.224880	0.671807
C318	C	1.306670	0.558213	1.005140
C319	C	0.640042	-0.058520	0.338495
C320	C	0.973376	0.274814	0.671828
C321	C	1.306709	0.608147	1.005162
C322	C	0.644896	-0.220647	0.155947
C323	C	0.978229	0.112686	0.489281
C324	C	1.311563	0.446020	0.822614
C325	C	0.647105	-0.218402	0.077884
C326	C	0.980438	0.114931	0.411217
C327	C	1.313771	0.448264	0.744551
C328	C	0.660565	-0.204986	0.636371
C329	C	0.993898	0.128347	0.969704
C330	C	1.327232	0.461680	1.303037
C331	C	0.658566	-0.206975	0.709720
C332	C	0.991899	0.126359	1.043054
C333	C	1.325233	0.459692	1.376387
C334	C	0.628814	-0.236699	0.746373
C335	C	0.962148	0.096635	1.079706
C336	C	1.295481	0.429968	1.413039
C337	C	0.601056	-0.264432	0.709672
C338	C	0.934390	0.068901	1.043005
C339	C	1.267723	0.402234	1.376339
C340	C	0.603053	-0.262441	0.636324
C341	C	0.936387	0.070892	0.969657
C342	C	1.269720	0.404225	1.302991
C343	C	0.621344	-0.244145	0.967835
C344	C	0.954677	0.089188	1.301169
C345	C	1.288011	0.422521	1.634502
C346	C	0.619350	-0.246135	1.041188
C347	C	0.952683	0.087198	1.374522
C348	C	1.286017	0.420531	1.707855
C349	C	0.676859	-0.188677	1.041232
C350	C	1.010193	0.144657	1.374565
C351	C	1.343526	0.477990	1.707898
C352	C	0.678856	-0.186690	0.967882
C353	C	1.012189	0.146643	1.301215
C354	C	1.345522	0.479976	1.634549
C355	C	0.651096	-0.214422	0.931188
C356	C	0.984429	0.118911	1.264521
C357	C	1.317763	0.452244	1.597854
C358	C	0.626771	-0.238733	0.821347
C359	C	0.960105	0.094601	1.154681
C360	C	1.293438	0.427934	1.488014
C361	C	0.653137	-0.212386	0.856214
C362	C	0.986470	0.120948	1.189548
C363	C	1.319804	0.454281	1.522881
H364	H	0.256442	-0.302913	0.211760
H365	H	0.589775	0.030420	0.545093
H366	H	0.923108	0.363754	0.878426
Br367	Br	0.478814	-0.160897	0.444476
Br368	Br	0.812147	0.172436	0.777809
Br369	Br	1.145480	0.505770	1.111143
Br370	Br	0.539328	-0.744643	0.489101
Br371	Br	0.872661	-0.411310	0.822434
Br372	Br	1.205995	-0.077976	1.155767
H373	H	0.602549	-0.262936	0.851198
H374	H	0.935883	0.070397	1.184531
H375	H	1.269216	0.403731	1.517865
Br376	Br	0.696256	-0.169357	0.759519
Br377	Br	1.029589	0.163977	1.092852
Br378	Br	1.362923	0.497310	1.426186
H379	H	0.381618	-0.175795	0.420045
H380	H	0.714951	0.157538	0.753379
H381	H	1.048285	0.490872	1.086712
Br382	Br	0.560676	-0.304770	0.759414
Br383	Br	0.894009	0.028564	1.092747
Br384	Br	1.227342	0.361897	1.426080
Br385	Br	0.710488	-0.380994	0.232615
Br386	Br	1.043821	-0.047661	0.565948
Br387	Br	1.377154	0.285673	0.899281
H388	H	0.699459	-0.166098	1.071116
H389	H	1.032792	0.167235	1.404449
H390	H	1.366126	0.500568	1.737783
Br391	Br	0.539293	-0.603883	0.489098
Br392	Br	0.872626	-0.270549	0.822431
Br393	Br	1.205959	0.062784	1.155765
Br394	Br	0.700948	-0.164648	0.586635
Br395	Br	1.034281	0.168685	0.919969
Br396	Br	1.367615	0.502018	1.253302
H397	H	0.598747	-0.266733	0.937968
H398	H	0.932080	0.066600	1.271301
H399	H	1.265413	0.399933	1.604634
Br400	Br	0.710698	-1.063986	0.232724
Br401	Br	1.044031	-0.730653	0.566058
Br402	Br	1.377364	-0.397320	0.899391
Br403	Br	0.373853	-0.290389	0.232356
Br404	Br	0.707186	0.042944	0.565689
Br405	Br	1.040520	0.376277	0.899022
H406	H	0.595121	-0.270341	1.071029
H407	H	0.928454	0.062992	1.404362
H408	H	1.261788	0.396326	1.737695
Br409	Br	0.569385	-1.069809	0.444263
Br410	Br	0.902719	-0.736476	0.777597
Br411	Br	1.236052	-0.403142	1.110930
Br412	Br	-0.198534	-0.290383	0.232401
Br413	Br	0.134799	0.042950	0.565735
Br414	Br	0.468133	0.376284	0.899068
Br415	Br	0.710667	-0.953392	0.232698
Br416	Br	1.044000	-0.620059	0.566031
Br417	Br	1.377334	-0.286726	0.899365
Br418	Br	-0.087958	-0.290370	0.232366
Br419	Br	0.245375	0.042964	0.565700
Br420	Br	0.578709	0.376297	0.899033
Br421	Br	0.719236	-0.146351	0.918144
Br422	Br	1.052569	0.186983	1.251478
Br423	Br	1.385903	0.520316	1.584811
Br424	Br	0.261793	-0.133422	0.489490
Br425	Br	0.595126	0.199911	0.822823
Br426	Br	0.928460	0.533244	1.156156
H427	H	0.030577	-0.302921	0.211799
H428	H	0.363910	0.030412	0.545132
H429	H	0.697243	0.363745	0.878466
H430	H	0.585487	-0.484013	0.419828
H431	H	0.918820	-0.150680	0.753162
H432	H	1.252153	0.182654	1.086495
H433	H	0.164604	-0.148331	0.465062
H434	H	0.497937	0.185002	0.798395
H435	H	0.831270	0.518336	1.131729
Br436	Br	0.159249	-0.317821	0.187324
Br437	Br	0.492583	0.015512	0.520657
Br438	Br	0.825916	0.348846	0.853990
Br439	Br	-0.093584	-0.160894	0.444534
Br440	Br	0.239749	0.172440	0.777867
Br441	Br	0.573083	0.505773	1.111201
H442	H	0.585458	-0.398890	0.419804
H443	H	0.918791	-0.065557	0.753138
H444	H	1.252125	0.267777	1.086471
Br445	Br	0.010458	-0.133425	0.489500
Br446	Br	0.343791	0.199909	0.822833
Br447	Br	0.677125	0.533242	1.156167
H448	H	0.580448	-0.285020	0.606447
H449	H	0.913781	0.048313	0.939781
H450	H	1.247115	0.381647	1.273114
H451	H	0.471065	-0.275464	0.256762
H452	H	0.804398	0.057869	0.590095
H453	H	1.137732	0.391203	0.923429
H454	H	-0.190792	-0.175806	0.420104
H455	H	0.142541	0.157527	0.753437
H456	H	0.475875	0.490860	1.086771
H457	H	0.108962	-0.148331	0.465067
H458	H	0.442295	0.185003	0.798401
H459	H	0.775629	0.518336	1.131734
H460	H	0.677359	-0.188183	0.826369
H461	H	1.010692	0.145151	1.159702
H462	H	1.344026	0.478484	1.493035
H463	H	0.115682	-0.302919	0.211790
H464	H	0.449016	0.030414	0.545124
H465	H	0.782349	0.363747	0.878457
H466	H	0.724313	-0.749734	0.212172
H467	H	1.057646	-0.416401	0.545505
H468	H	1.390979	-0.083068	0.878839
Br469	Br	0.710534	-0.491572	0.232639
Br470	Br	1.043867	-0.158239	0.565972
Br471	Br	1.377201	0.175095	0.899305
H472	H	0.724267	-0.608987	0.212147
H473	H	1.057600	-0.275653	0.545481
H474	H	1.390933	0.057680	0.878814
Br475	Br	0.740574	-0.706154	0.187802
Br476	Br	1.073907	-0.372820	0.521135
Br477	Br	1.407240	-0.039487	0.854468
H478	H	0.724336	-0.834854	0.212192
H479	H	1.057670	-0.501520	0.545526
H480	H	1.391003	-0.168187	0.878859
H481	H	0.585636	-0.971294	0.419900
H482	H	0.918969	-0.637961	0.753233
H483	H	1.252302	-0.304627	1.086567
H484	H	0.555586	-0.701055	0.464743
H485	H	0.888919	-0.367721	0.798076
H486	H	1.222252	-0.034388	1.131409
H487	H	0.555630	-0.841810	0.464753
H488	H	0.888964	-0.508477	0.798086
H489	H	1.222297	-0.175144	1.131420
