data_functionalizedCrystal
_audit_creation_method	'MofGen! by Chris Wilmer'
_symmetry_space_group_name_H-M	'P1'
_symmetry_Int_Tables_number	1
_symmetry_cell_setting	triclinic
loop_
_symmetry_equiv_pos_as_xyz
  x,y,z
_cell_length_a	10.489741
_cell_length_b	17.038272
_cell_length_c	9.565339
_cell_angle_alpha	89.999972
_cell_angle_beta	89.999100
_cell_angle_gamma	87.825365
loop_
_atom_site_label
_atom_site_type_symbol
_atom_site_fract_x
_atom_site_fract_y
_atom_site_fract_z
O1	O	1.704376	0.110370	-0.116175
O2	O	2.204376	0.610370	0.383825
O3	O	1.334150	0.120730	-0.116197
O4	O	1.834150	0.620730	0.383803
O5	O	1.517063	0.001722	-0.116175
O6	O	2.017063	0.501722	0.383825
O7	O	1.521463	0.229378	-0.116197
O8	O	2.021463	0.729378	0.383803
O9	O	1.517048	0.001729	0.116345
O10	O	2.017048	0.501729	0.616345
O11	O	1.334135	0.120738	0.116323
O12	O	1.834135	0.620738	0.616323
O13	O	1.704362	0.110377	0.116345
O14	O	2.204362	0.610377	0.616345
Zn15	Zn	1.519246	0.115558	0.153252
Zn16	Zn	2.019246	0.615558	0.653252
Zn17	Zn	1.519265	0.115549	-0.153103
Zn18	Zn	2.019265	0.615549	0.346897
O19	O	1.521449	0.229385	0.116324
O20	O	2.021449	0.729385	0.616324
C21	C	1.286537	0.119951	0.000061
C22	C	1.786537	0.619951	0.500061
C23	C	1.144689	0.117610	0.000053
C24	C	1.644689	0.617610	0.500053
C25	C	1.069466	0.041889	0.000073
C26	C	1.569466	0.541889	0.500073
C27	C	0.980692	0.077655	-0.114572
C28	C	1.480692	0.577655	0.385428
C29	C	0.980714	0.077680	0.114675
C30	C	1.480714	0.577680	0.614675
C31	C	1.057783	0.153408	-0.114687
C32	C	1.557783	0.653408	0.385313
C33	C	1.057813	0.153423	0.114662
C34	C	1.557813	0.653423	0.614662
C35	C	0.969072	0.189244	-0.000011
C36	C	1.469072	0.689244	0.499989
C37	C	1.513053	-0.027426	0.000085
C38	C	2.013053	0.472574	0.500085
C39	C	1.501111	-0.114288	0.000084
C40	C	2.001111	0.385712	0.500084
C41	C	1.610749	-0.163767	0.000092
C42	C	2.110749	0.336233	0.500092
C43	C	1.599521	-0.245383	0.000078
C44	C	2.099521	0.254617	0.500078
C45	C	1.478654	-0.277518	0.000066
C46	C	1.978654	0.222482	0.500066
C47	C	1.369007	-0.228032	0.000054
C48	C	1.869007	0.271968	0.500054
C49	C	1.380237	-0.146418	0.000058
C50	C	1.880237	0.353582	0.500058
C51	C	1.438983	-0.523505	0.000044
C52	C	1.938983	-0.023505	0.500044
C53	C	1.427762	-0.605126	0.000045
C54	C	1.927762	-0.105126	0.500045
C55	C	1.658277	-0.622471	0.000066
C56	C	2.158277	-0.122471	0.500066
C57	C	1.669495	-0.540855	0.000078
C58	C	2.169495	-0.040855	0.500078
C59	C	1.559849	-0.491376	0.000059
C60	C	2.059849	0.008624	0.500059
C61	C	1.467174	-0.360942	0.000056
C62	C	1.967174	0.139058	0.500056
C63	C	1.571330	-0.407954	0.000059
C64	C	2.071330	0.092046	0.500059
C65	C	1.751974	0.111156	0.000085
C66	C	2.251974	0.611156	0.500085
C67	C	1.893822	0.113497	0.000084
C68	C	2.393822	0.613497	0.500084
C69	C	1.525458	0.258533	0.000061
C70	C	2.025458	0.758533	0.500061
C71	C	1.537400	0.345395	0.000053
C72	C	2.037400	0.845395	0.500053
N73	N	1.519242	0.115565	0.362331
N74	N	2.019242	0.615565	0.862331
N75	N	1.519279	0.115536	-0.362183
N76	N	2.019279	0.615536	0.137817
C77	C	1.434621	0.170584	0.453524
C78	C	1.934621	0.670584	0.953524
C79	C	1.551599	0.186413	0.546708
C80	C	2.051599	0.686413	1.046708
C81	C	1.402315	0.099741	0.546703
C82	C	1.902315	0.599741	1.046703
C83	C	1.636281	0.131430	0.453464
C84	C	2.136281	0.631430	0.953464
C85	C	1.486918	0.044727	0.453450
C86	C	1.986918	0.544727	0.953450
C87	C	1.603976	0.060527	0.546592
C88	C	2.103976	0.560527	1.046592
H89	H	1.113334	-0.020359	-0.000064
H90	H	1.613334	0.479641	0.499936
F91	F	1.716214	-0.298039	0.000089
F92	F	2.216214	0.201961	0.500089
H93	H	1.303417	0.086370	0.587662
H94	H	1.803417	0.586370	1.087662
F95	F	0.936247	0.035776	-0.241256
F96	F	1.436247	0.535776	0.258744
F97	F	1.101994	0.195249	-0.241518
F98	F	1.601994	0.695249	0.258482
F99	F	0.912085	0.270691	-0.000097
F100	F	1.412085	0.770691	0.499903
H101	H	1.735209	0.144873	0.412680
H102	H	2.235209	0.644873	0.912680
H103	H	1.091847	0.185439	0.211587
H104	H	1.591847	0.685439	0.711587
H105	H	0.946731	0.045630	0.211599
H106	H	1.446731	0.545630	0.711599
F107	F	1.322286	-0.470857	0.000020
F108	F	1.822286	0.029143	0.500020
F109	F	1.587369	0.264697	0.600252
F110	F	2.087369	0.764697	1.100252
F111	F	1.739394	-0.129575	0.000118
F112	F	2.239394	0.370425	0.500118
F113	F	1.798139	-0.506661	0.000056
F114	F	2.298139	-0.006661	0.500056
H115	H	1.747544	-0.662765	0.000079
H116	H	2.247544	-0.162765	0.500079
F117	F	1.299113	-0.639323	0.000039
F118	F	1.799113	-0.139323	0.500039
F119	F	1.697637	-0.000306	0.599676
F120	F	2.197637	0.499694	1.099676
F121	F	1.240371	-0.262234	0.000025
F122	F	1.740371	0.237766	0.500025
F123	F	1.451107	-0.033535	0.399862
F124	F	1.951107	0.466465	0.899862
H125	H	1.290957	-0.106132	0.000051
H126	H	1.790957	0.393868	0.500051
H127	H	1.669740	-0.381786	0.000038
H128	H	2.169740	0.118214	0.500038
H129	H	1.368763	-0.387115	0.000050
H130	H	1.868763	0.112885	0.500050
H131	H	1.363135	0.217155	0.412661
H132	H	1.863135	0.717155	0.912661
