data_functionalizedCrystal
_audit_creation_method	'MofGen! by Chris Wilmer'
_symmetry_space_group_name_H-M	'P1'
_symmetry_Int_Tables_number	1
_symmetry_cell_setting	triclinic
loop_
_symmetry_equiv_pos_as_xyz
  x,y,z
_cell_length_a	19.805407
_cell_length_b	19.805405
_cell_length_c	10.685453
_cell_angle_alpha	94.393285
_cell_angle_beta	85.627406
_cell_angle_gamma	90.026410
loop_
_atom_site_label
_atom_site_type_symbol
_atom_site_fract_x
_atom_site_fract_y
_atom_site_fract_z
Zn1	Zn	-1.005268	0.240199	-0.713530
Zn2	Zn	-0.505268	0.740199	-0.213530
Zn3	Zn	-1.013898	0.362047	-0.502495
Zn4	Zn	-0.513898	0.862047	-0.002495
Zn5	Zn	-0.900797	0.248876	-0.502525
Zn6	Zn	-0.400797	0.748876	-0.002525
Zn7	Zn	-0.892049	0.353355	-0.713446
Zn8	Zn	-0.392049	0.853355	-0.213446
O9	O	-0.953003	0.301119	-0.607999
O10	O	-0.453003	0.801119	-0.107999
O11	O	-1.101128	0.256369	-0.685558
O12	O	-0.601128	0.756369	-0.185558
O13	O	-1.006168	0.354304	-0.325909
O14	O	-0.506168	0.854304	0.174091
O15	O	-0.914704	0.153007	-0.530563
O16	O	-0.414704	0.653007	-0.030563
O17	O	-1.107469	0.345890	-0.530511
O18	O	-0.607469	0.845890	-0.030511
O19	O	-0.991458	0.146632	-0.685588
O20	O	-0.491458	0.646632	-0.185588
O21	O	-0.923072	0.271158	-0.325931
O22	O	-0.423072	0.771158	0.174069
O23	O	-0.804921	0.262729	-0.530482
O24	O	-0.304921	0.762729	-0.030482
O25	O	-0.899796	0.331075	-0.890048
O26	O	-0.399796	0.831075	-0.390048
O27	O	-0.798494	0.339489	-0.685445
O28	O	-0.298494	0.839489	-0.185445
O29	O	-0.982977	0.247940	-0.890109
O30	O	-0.482977	0.747940	-0.390109
O31	O	-0.997686	0.455613	-0.530430
O32	O	-0.497686	0.955613	-0.030430
O33	O	-0.908164	0.449226	-0.685416
O34	O	-0.408164	0.949226	-0.185416
C35	C	-0.777149	0.301108	-0.607958
C36	C	-0.277149	0.801108	-0.107958
C37	C	-0.701916	0.301118	-0.607971
C38	C	-0.201916	0.801118	-0.107971
C39	C	-0.952929	0.476978	-0.607938
C40	C	-0.452929	0.976978	-0.107938
C41	C	-0.952958	0.552209	-0.607954
C42	C	-0.452958	1.052209	-0.107954
C43	C	-0.939448	0.287570	-0.937147
C44	C	-0.439448	0.787570	-0.437147
C45	C	-0.933671	0.281796	-1.077410
C46	C	-0.433671	0.781796	-0.577410
C47	C	-1.129544	0.301131	-0.608041
C48	C	-0.629544	0.801131	-0.108041
C49	C	-1.204775	0.301136	-0.608059
C50	C	-0.704775	0.801136	-0.108059
C51	C	-0.663249	0.341158	-0.688529
C52	C	-0.163249	0.841158	-0.188529
C53	C	-0.592560	0.341158	-0.688547
C54	C	-0.092560	0.841158	-0.188547
C55	C	-0.560539	0.301122	-0.607999
C56	C	-0.060539	0.801122	-0.107999
C57	C	-0.599212	0.261078	-0.527437
C58	C	-0.099212	0.761078	-0.027437
C59	C	-0.669900	0.261075	-0.527426
C60	C	-0.169900	0.761075	-0.027426
C61	C	-0.314137	0.261092	-0.527479
C62	C	0.185863	0.761092	-0.027479
C63	C	-0.243444	0.261100	-0.527493
C64	C	0.256556	0.761100	-0.027493
C65	C	-0.236797	0.341175	-0.688599
C66	C	0.263203	0.841175	-0.188599
C67	C	-0.307485	0.341171	-0.688589
C68	C	0.192515	0.841171	-0.188589
C69	C	-0.346151	0.301125	-0.608032
C70	C	0.153849	0.801125	-0.108032
C71	C	-0.422800	0.301124	-0.608015
C72	C	0.077200	0.801124	-0.108015
C73	C	-0.483892	0.301127	-0.608008
C74	C	0.016108	0.801127	-0.108008
C75	C	-0.953094	0.124573	-0.608088
C76	C	-0.453094	0.624573	-0.108088
C77	C	-0.953133	0.049339	-0.608126
C78	C	-0.453133	0.549339	-0.108126
C79	C	-0.999611	0.590853	-0.527338
C80	C	-0.499611	1.090853	-0.027338
C81	C	-0.999638	0.661540	-0.527366
C82	C	-0.499638	1.161540	-0.027366
C83	C	-0.953010	0.693583	-0.608005
C84	C	-0.453010	1.193583	-0.108005
C85	C	-0.906355	0.654934	-0.688630
C86	C	-0.406355	1.154934	-0.188630
C87	C	-0.906331	0.584248	-0.688607
C88	C	-0.406331	1.084248	-0.188607
C89	C	-0.906451	0.940003	-0.688723
C90	C	-0.406451	1.440003	-0.188723
C91	C	-0.906477	1.010695	-0.688737
C92	C	-0.406477	1.510695	-0.188737
C93	C	-0.999758	1.017296	-0.527482
C94	C	-0.499758	1.517296	-0.027482
C95	C	-0.999734	0.946609	-0.527459
C96	C	-0.499734	1.446609	-0.027459
C97	C	-0.953082	0.907967	-0.608089
C98	C	-0.453082	1.407967	-0.108089
C99	C	-0.953054	0.831319	-0.608059
C100	C	-0.453054	1.331319	-0.108059
C101	C	-0.953034	0.770229	-0.608029
C102	C	-0.453034	1.270229	-0.108029
C103	C	-0.966545	0.314567	-0.280132
C104	C	-0.466545	0.814567	0.219868
C105	C	-0.972452	0.320150	-0.139870
C106	C	-0.472452	0.820150	0.360130
H107	H	-0.689314	0.373762	-0.754117
H108	H	-0.189314	0.873762	-0.254117
Br109	Br	-0.366603	0.206739	-0.418158
Br110	Br	0.133397	0.706739	0.081842
H111	H	-0.895952	0.244686	-0.131240
H112	H	-0.395952	0.744686	0.368760
H113	H	-0.561080	0.373763	-0.754145
H114	H	-0.061080	0.873763	-0.254145
Br115	Br	-0.350937	0.395512	-0.797900
Br116	Br	0.149063	0.895512	-0.297900
Br117	Br	-1.062959	0.713982	-0.417961
Br118	Br	-0.562959	1.213982	0.082039
H119	H	-1.037747	1.048767	-0.461834
H120	H	-0.537747	1.548767	0.038166
Br121	Br	-0.184318	0.395527	-0.797927
Br122	Br	0.315682	0.895527	-0.297927
Br123	Br	-1.063017	0.903127	-0.418015
Br124	Br	-0.563017	1.403127	0.081985
Br125	Br	-0.199989	0.206762	-0.418169
Br126	Br	0.300011	0.706762	0.081831
Br127	Br	-0.555756	0.206736	-0.418132
Br128	Br	-0.055756	0.706736	0.081868
Br129	Br	-0.843018	0.531801	-0.798028
Br130	Br	-0.343018	1.031801	-0.298028
H131	H	-0.701382	0.228467	-0.461834
H132	H	-0.201382	0.728467	0.038166
H133	H	-1.010180	0.357257	-0.086033
H134	H	-0.510180	0.857257	0.413967
H135	H	-1.037578	0.564769	-0.461667
H136	H	-0.537578	1.064769	0.038333
Br137	Br	-0.843191	1.054181	-0.798182
Br138	Br	-0.343191	1.554181	-0.298182
H139	H	-0.868464	0.908546	-0.754372
H140	H	-0.368464	1.408546	-0.254372
H141	H	-0.868392	0.681028	-0.754293
H142	H	-0.368392	1.181028	-0.254293
