data_functionalizedCrystal
_audit_creation_method	'MofGen! by Chris Wilmer'
_symmetry_space_group_name_H-M	'P1'
_symmetry_Int_Tables_number	1
_symmetry_cell_setting	triclinic
loop_
_symmetry_equiv_pos_as_xyz
  x,y,z
_cell_length_a	10.654550
_cell_length_b	14.044220
_cell_length_c	9.730223
_cell_angle_alpha	89.994583
_cell_angle_beta	89.999957
_cell_angle_gamma	88.836904
loop_
_atom_site_label
_atom_site_type_symbol
_atom_site_fract_x
_atom_site_fract_y
_atom_site_fract_z
O1	O	1.681228	0.133232	-0.114191
O2	O	1.317025	0.145925	-0.114216
O3	O	1.493659	0.001558	-0.114190
O4	O	1.504593	0.277599	-0.114217
O5	O	1.493647	0.001554	0.114390
O6	O	1.317012	0.145921	0.114364
O7	O	1.681215	0.133228	0.114389
Zn8	Zn	1.499111	0.139574	0.150668
Zn9	Zn	1.499128	0.139579	-0.150496
O10	O	1.504580	0.277595	0.114363
C11	C	1.270127	0.144991	0.000070
C12	C	1.130403	0.142202	0.000061
C13	C	1.059459	0.227204	0.000057
C14	C	0.928175	0.224578	0.000081
C15	C	0.938790	0.051942	0.000108
C16	C	1.070072	0.054569	0.000094
C17	C	1.488867	-0.033790	0.000100
C18	C	1.474592	-0.139110	0.000101
C19	C	1.448493	-0.331943	0.000079
C20	C	1.549741	-0.388910	0.000082
C21	C	1.535219	-0.496209	0.000070
C22	C	1.463013	-0.224634	0.000091
C23	C	1.728113	0.134162	0.000099
C24	C	1.867836	0.136950	0.000100
C25	C	1.509372	0.312943	0.000070
C26	C	1.523648	0.418262	0.000060
N27	N	1.499109	0.139570	0.356205
N28	N	1.499140	0.139576	-0.356032
C29	C	1.577355	0.075671	0.428142
C30	C	1.577367	0.075671	0.572025
C31	C	1.420885	0.203477	0.572021
C32	C	1.420867	0.203471	0.428140
H33	H	1.108577	0.298560	0.000041
C34	C	1.679974	-0.346683	0.000044
C35	C	1.770534	-0.420333	0.000019
C36	C	1.890512	-0.381465	-0.000027
H37	H	1.689997	-0.308529	0.079742
H38	H	1.689916	-0.308521	-0.079690
H39	H	1.760597	-0.458479	0.079745
H40	H	1.760552	-0.458493	-0.079673
H41	H	1.900453	-0.343304	-0.079762
H42	H	1.900521	-0.343312	0.079672
H43	H	1.951971	-0.431430	-0.000057
H44	H	0.870417	0.293795	0.000080
H45	H	0.889652	-0.019406	0.000143
H46	H	1.350913	-0.363754	0.000069
H47	H	1.127837	-0.014653	0.000101
C48	C	1.662334	0.006181	0.350288
C49	C	1.730835	-0.049796	0.444091
C50	C	1.809117	-0.113833	0.372427
H51	H	1.718571	0.040557	0.294138
H52	H	1.612723	-0.033678	0.294206
H53	H	1.780442	-0.009942	0.500149
H54	H	1.674630	-0.084193	0.500244
H55	H	1.759506	-0.153692	0.316346
H56	H	1.865346	-0.079448	0.316280
H57	H	1.855595	-0.151826	0.436061
H58	H	1.357144	0.255506	0.369565
C59	C	1.662110	0.006186	0.650201
C60	C	1.588677	-0.052372	0.732794
C61	C	1.666699	-0.116405	0.804814
H62	H	1.718269	0.040568	0.706429
H63	H	1.708677	-0.031925	0.586791
H64	H	1.542131	-0.014266	0.796197
H65	H	1.532520	-0.086775	0.676600
H66	H	1.713266	-0.154516	0.741404
H67	H	1.722855	-0.082016	0.861034
H68	H	1.616886	-0.156150	0.860852
H69	H	1.357184	0.255506	0.630605
