data_functionalizedCrystal
_audit_creation_method	'MofGen! by Chris Wilmer'
_symmetry_space_group_name_H-M	'P1'
_symmetry_Int_Tables_number	1
_symmetry_cell_setting	triclinic
loop_
_symmetry_equiv_pos_as_xyz
  x,y,z
_cell_length_a	11.792241
_cell_length_b	11.792254
_cell_length_c	11.295483
_cell_angle_alpha	94.123239
_cell_angle_beta	85.870734
_cell_angle_gamma	84.196007
loop_
_atom_site_label
_atom_site_type_symbol
_atom_site_fract_x
_atom_site_fract_y
_atom_site_fract_z
O1	O	1.514505	0.147979	-0.098909
O2	O	1.847838	0.481313	0.234424
O3	O	2.181171	0.814646	0.567757
O4	O	1.184167	0.164010	-0.098937
O5	O	1.517500	0.497343	0.234396
O6	O	1.850833	0.830677	0.567730
O7	O	1.357344	-0.009174	-0.098914
O8	O	1.690677	0.324159	0.234419
O9	O	2.024011	0.657492	0.567753
O10	O	1.341327	0.321163	-0.098932
O11	O	1.674661	0.654497	0.234401
O12	O	2.007994	0.987830	0.567734
O13	O	1.342133	0.006013	0.099135
O14	O	1.675467	0.339347	0.432468
O15	O	2.008800	0.672680	0.765801
O16	O	1.168956	0.179198	0.099112
O17	O	1.502289	0.512531	0.432445
O18	O	1.835623	0.845864	0.765778
O19	O	1.499294	0.163167	0.099140
O20	O	1.832627	0.496500	0.432473
O21	O	2.165961	0.829833	0.765806
Cu22	Cu	1.332736	0.172569	0.117209
Cu23	Cu	1.666069	0.505902	0.450542
Cu24	Cu	1.999403	0.839236	0.783876
Cu25	Cu	1.350725	0.154608	-0.117007
Cu26	Cu	1.684058	0.487941	0.216327
Cu27	Cu	2.017391	0.821274	0.549660
O28	O	1.326117	0.336351	0.099117
O29	O	1.659450	0.669684	0.432450
O30	O	1.992783	1.003018	0.765783
C31	C	1.134271	0.170596	0.000084
C32	C	1.467604	0.503930	0.333417
C33	C	1.800937	0.837263	0.666751
C34	C	1.008257	0.167581	0.000073
C35	C	1.341591	0.500914	0.333407
C36	C	1.674924	0.834248	0.666740
C37	C	0.777542	0.162041	0.000108
C38	C	1.110876	0.495374	0.333441
C39	C	1.444209	0.828708	0.666775
C40	C	0.905929	0.165119	0.000089
C41	C	1.239262	0.498453	0.333422
C42	C	1.572596	0.831786	0.666756
C43	C	1.348730	-0.043871	0.000110
C44	C	1.682063	0.289462	0.333443
C45	C	2.015396	0.622795	0.666777
C46	C	1.345710	-0.169884	0.000109
C47	C	1.679043	0.163449	0.333442
C48	C	2.012376	0.496782	0.666775
C49	C	1.343256	-0.272221	0.000104
C50	C	1.676589	0.061112	0.333437
C51	C	2.009923	0.394445	0.666771
C52	C	1.340188	-0.400609	0.000093
C53	C	1.673522	-0.067275	0.333426
C54	C	2.006855	0.266058	0.666760
C55	C	1.549190	0.156580	0.000116
C56	C	1.882524	0.489914	0.333449
C57	C	2.215857	0.823247	0.666783
C58	C	1.675204	0.159595	0.000119
C59	C	2.008537	0.492928	0.333452
C60	C	2.341871	0.826261	0.666785
C61	C	1.334731	0.371048	0.000090
C62	C	1.668065	0.704381	0.333423
C63	C	2.001398	1.037714	0.666757
C64	C	1.337752	0.497060	0.000083
C65	C	1.671085	0.830394	0.333417
C66	C	2.004419	1.163727	0.666750
N67	N	1.320092	0.185201	0.281944
N68	N	1.653426	0.518534	0.615277
N69	N	1.986759	0.851868	0.948610
N70	N	1.363377	0.141967	-0.281741
N71	N	1.696711	0.475300	0.051592
N72	N	2.030044	0.808633	0.384925
C73	C	1.454394	0.050970	0.531251
C74	C	1.787727	0.384303	0.864584
C75	C	2.121061	0.717636	1.197918
C76	C	1.444847	0.060524	0.655913
C77	C	1.778180	0.393857	0.989247
C78	C	2.111514	0.727191	1.322580
C79	C	1.291447	0.213858	0.655933
C80	C	1.624780	0.547191	0.989266
C81	C	1.958113	0.880525	1.322600
C82	C	1.300994	0.204304	0.531271
C83	C	1.634327	0.537637	0.864604
C84	C	1.967660	0.870970	1.197937
C85	C	1.382471	0.122858	0.468934
C86	C	1.715804	0.456191	0.802267
C87	C	2.049138	0.789525	1.135601
C88	C	1.392023	0.113310	0.344269
C89	C	1.725356	0.446643	0.677603
C90	C	2.058689	0.779977	1.010936
C91	C	1.238618	0.266638	0.344291
C92	C	1.571951	0.599971	0.677625
C93	C	1.905284	0.933304	1.010958
C94	C	1.229071	0.276192	0.468954
C95	C	1.562404	0.609525	0.802287
C96	C	1.895738	0.942859	1.135620
H97	H	1.458368	0.046996	0.293516
H98	H	1.791702	0.380329	0.626849
H99	H	2.125035	0.713663	0.960183
H100	H	1.225102	0.280162	0.706704
H101	H	1.558436	0.613495	1.040037
H102	H	1.891769	0.946828	1.373371
H103	H	1.180057	0.325177	0.293539
H104	H	1.513390	0.658510	0.626872
H105	H	1.846723	0.991844	0.960205
H106	H	1.162730	0.342501	0.519723
H107	H	1.496064	0.675834	0.853056
H108	H	1.829397	1.009167	1.186389
Cl109	Cl	1.535266	-0.029856	0.734251
Cl110	Cl	1.868600	0.303477	1.067585
Cl111	Cl	2.201933	0.636810	1.400918
H112	H	1.520744	-0.015339	0.480496
H113	H	1.854077	0.317994	0.813829
H114	H	2.187410	0.651328	1.147162
