data_functionalizedCrystal
_audit_creation_method	'MofGen! by Chris Wilmer'
_symmetry_space_group_name_H-M	'P1'
_symmetry_Int_Tables_number	1
_symmetry_cell_setting	triclinic
loop_
_symmetry_equiv_pos_as_xyz
  x,y,z
_cell_length_a	12.759401
_cell_length_b	18.101397
_cell_length_c	12.759393
_cell_angle_alpha	90.037652
_cell_angle_beta	90.019404
_cell_angle_gamma	90.020387
loop_
_atom_site_label
_atom_site_type_symbol
_atom_site_fract_x
_atom_site_fract_y
_atom_site_fract_z
Zn1	Zn	1.606213	-0.294787	0.593962
Zn2	Zn	1.606090	-0.418649	0.418264
Zn3	Zn	1.430515	-0.294826	0.418299
Zn4	Zn	1.430486	-0.418591	0.593902
O5	O	1.518326	-0.356713	0.506107
O6	O	1.753218	-0.311226	0.570666
O7	O	1.582760	-0.402264	0.271247
O8	O	1.453886	-0.191188	0.441641
O9	O	1.753127	-0.402227	0.441581
O10	O	1.582970	-0.191160	0.570700
O11	O	1.453766	-0.311291	0.271273
O12	O	1.283490	-0.311235	0.441583
O13	O	1.453836	-0.402129	0.740932
O14	O	1.283469	-0.402166	0.570598
O15	O	1.582942	-0.311170	0.740976
O16	O	1.582732	-0.522274	0.441523
O17	O	1.453717	-0.522232	0.570564
C18	C	1.245359	-0.356699	0.506088
C19	C	1.128582	-0.356711	0.506105
C20	C	0.963976	-0.309315	0.439059
C21	C	1.073700	-0.309301	0.439046
C22	C	1.073735	-0.404133	0.573188
C23	C	0.964013	-0.404143	0.573205
C24	C	0.963956	-0.254567	0.361609
C25	C	1.073680	-0.254553	0.361597
C26	C	1.518236	-0.549124	0.506056
C27	C	1.518294	-0.631438	0.506069
C28	C	1.518428	-0.930529	0.506165
C29	C	1.599375	-0.899200	0.424759
C30	C	1.599655	-0.813581	0.424970
C31	C	1.518362	-0.782146	0.506117
C32	C	1.548380	-0.813144	0.616858
C33	C	1.549006	-0.898789	0.616415
C34	C	1.407247	-0.899040	0.477789
C35	C	1.407796	-0.813391	0.475317
C36	C	1.518322	-0.698287	0.506096
C37	C	1.518470	-1.014388	0.506193
C38	C	1.792359	-0.356728	0.506126
C39	C	1.909136	-0.356735	0.506134
C40	C	1.518400	-0.356639	0.780140
C41	C	1.518431	-0.356607	0.896917
C42	C	1.518445	-0.163551	0.506181
C43	C	1.518496	-0.081237	0.506213
C44	C	1.518313	-0.356734	0.233140
C45	C	1.518486	-0.356558	0.116363
C46	C	1.585666	-0.309240	0.951804
C47	C	1.585691	-0.309214	1.061528
C48	C	1.451243	-0.403926	1.061469
C49	C	1.451214	-0.403949	0.951747
C50	C	1.663291	-0.254561	0.951839
C51	C	1.663316	-0.254534	1.061563
H52	H	1.118429	-0.442729	0.627796
O53	O	0.904780	-0.455283	0.645491
H54	H	0.854765	-0.492885	0.598301
O55	O	1.378747	-0.454987	1.120605
H56	H	1.390063	-0.447016	1.206124
O57	O	1.656654	-0.925175	0.648255
H58	H	1.658167	-0.986483	0.648263
O59	O	1.771087	-0.274890	1.101022
H60	H	1.823827	-0.284884	1.033323
O61	O	1.378683	-0.455030	0.892551
H62	H	1.389944	-0.447089	0.807042
H63	H	1.641531	-0.197209	0.922091
H64	H	0.934209	-0.197230	0.383550
H65	H	0.929879	-0.275053	0.284269
H66	H	1.103415	-0.269847	0.280184
O67	O	1.118815	-0.182405	0.400356
H68	H	1.054010	-0.144164	0.420911
H69	H	1.740560	-0.275122	0.917801
O70	O	1.323605	-0.785058	0.548103
H71	H	1.246635	-0.808158	0.524163
H72	H	1.580874	-0.792627	0.342856
O73	O	1.575434	-0.927140	0.315823
H74	H	1.505504	-0.963578	0.318510
O75	O	1.624786	-0.182350	1.106690
H76	H	1.604343	-0.144099	1.041881
O77	O	1.474318	-0.926247	0.699505
H78	H	1.437917	-0.878351	0.739832
H79	H	1.681281	-0.920666	0.443317
O80	O	1.708742	-0.786356	0.449838
H81	H	1.761498	-0.834363	0.461773
H82	H	1.491225	-0.792779	0.679143
H83	H	1.628739	-0.791635	0.641302
H84	H	1.385161	-0.793140	0.393820
O85	O	1.371077	-0.927725	0.372669
H86	H	1.366561	-0.988934	0.375200
H87	H	1.346936	-0.919301	0.537081
