data_functionalizedCrystal
_audit_creation_method	'MofGen! by Chris Wilmer'
_symmetry_space_group_name_H-M	'P1'
_symmetry_Int_Tables_number	1
_symmetry_cell_setting	triclinic
loop_
_symmetry_equiv_pos_as_xyz
  x,y,z
_cell_length_a	21.295420
_cell_length_b	21.295417
_cell_length_c	21.295411
_cell_angle_alpha	89.979403
_cell_angle_beta	89.975408
_cell_angle_gamma	90.025484
loop_
_atom_site_label
_atom_site_type_symbol
_atom_site_fract_x
_atom_site_fract_y
_atom_site_fract_z
Zn1	Zn	0.962359	-0.250752	-0.355917
Zn2	Zn	1.462359	0.249248	0.144083
Zn3	Zn	0.962263	-0.356004	-0.250644
Zn4	Zn	1.462263	0.143996	0.249356
Zn5	Zn	0.857082	-0.250744	-0.250661
Zn6	Zn	1.357082	0.249256	0.249339
Zn7	Zn	0.857053	-0.355979	-0.355875
Zn8	Zn	1.357053	0.144021	0.144125
O9	O	0.909689	-0.303370	-0.303274
O10	O	1.409689	0.196630	0.196726
O11	O	1.050435	-0.264727	-0.341962
O12	O	1.550435	0.235273	0.158038
O13	O	0.948282	-0.342048	-0.162557
O14	O	1.448282	0.157952	0.337443
O15	O	0.871100	-0.162656	-0.264648
O16	O	1.371100	0.337344	0.235352
O17	O	1.050365	-0.342055	-0.264618
O18	O	1.550365	0.157945	0.235382
O19	O	0.948446	-0.162661	-0.341979
O20	O	1.448446	0.337339	0.158021
O21	O	0.871006	-0.264714	-0.162570
O22	O	1.371006	0.235286	0.337430
O23	O	0.768989	-0.264691	-0.264609
O24	O	1.268989	0.235309	0.235391
O25	O	0.871050	-0.342014	-0.443970
O26	O	1.371050	0.157986	0.056030
O27	O	0.768967	-0.342006	-0.341909
O28	O	1.268967	0.157994	0.158091
O29	O	0.948418	-0.264703	-0.444000
O30	O	1.448418	0.235297	0.056000
O31	O	0.948254	-0.444090	-0.264578
O32	O	1.448254	0.055910	0.235422
O33	O	0.870957	-0.444072	-0.341892
O34	O	1.370957	0.055928	0.158108
C35	C	0.746138	-0.303346	-0.303257
C36	C	1.246138	0.196654	0.196743
C37	C	0.676169	-0.303351	-0.303264
C38	C	1.176169	0.196649	0.196736
C39	C	0.176748	-0.263200	-0.343622
C40	C	0.676748	0.236800	0.156378
C41	C	0.242490	-0.263195	-0.343622
C42	C	0.742490	0.236805	0.156378
C43	C	0.275330	-0.303389	-0.303289
C44	C	0.775330	0.196611	0.196711
C45	C	0.242422	-0.343602	-0.262965
C46	C	0.742422	0.156398	0.237035
C47	C	0.176681	-0.343610	-0.262970
C48	C	0.676681	0.156390	0.237030
N49	N	0.378520	-0.308125	-0.248169
N50	N	0.878520	0.191875	0.251831
N51	N	0.440971	-0.308113	-0.248166
N52	N	0.940971	0.191887	0.251834
C53	C	0.473405	-0.303368	-0.303270
C54	C	0.973405	0.196632	0.196730
N55	N	0.441027	-0.298623	-0.358380
N56	N	0.941027	0.201377	0.141620
N57	N	0.378570	-0.298631	-0.358383
N58	N	0.878570	0.201369	0.141617
C59	C	0.346615	-0.303385	-0.303279
C60	C	0.846615	0.196615	0.196721
C61	C	0.577590	-0.263156	-0.343595
C62	C	1.077590	0.236844	0.156405
C63	C	0.643334	-0.263156	-0.343596
C64	C	1.143334	0.236844	0.156404
C65	C	0.643265	-0.343559	-0.262933
C66	C	1.143265	0.156441	0.237067
C67	C	0.577522	-0.343562	-0.262938
C68	C	1.077522	0.156438	0.237062
C69	C	0.544689	-0.303358	-0.303268
C70	C	1.044689	0.196642	0.196732
C71	C	0.909609	-0.466921	-0.303242
C72	C	1.409609	0.033079	0.196758
C73	C	0.909632	-0.536890	-0.303250
C74	C	1.409632	-0.036890	0.196750
C75	C	0.949883	-0.569702	-0.343545
C76	C	1.449883	-0.069702	0.156455
C77	C	0.949906	-0.635444	-0.343560
C78	C	1.449906	-0.135444	0.156440
C79	C	0.909683	-0.668372	-0.303270
C80	C	1.409683	-0.168372	0.196730
C81	C	0.869424	-0.635552	-0.262972
C82	C	1.369424	-0.135552	0.237028
C83	C	0.869399	-0.569811	-0.262962
C84	C	1.369399	-0.069811	0.237038
N85	N	0.904924	-0.771624	-0.248179
N86	N	1.404924	-0.271624	0.251821
N87	N	0.904952	-0.834075	-0.248190
N88	N	1.404952	-0.334075	0.251810
C89	C	0.909757	-0.866447	-0.303298
C90	C	1.409757	-0.366447	0.196702
N91	N	0.914545	-0.834007	-0.358396
N92	N	1.414545	-0.334007	0.141604
N93	N	0.914520	-0.771550	-0.358384
N94	N	1.414520	-0.271550	0.141616
C95	C	0.909706	-0.739657	-0.303276
C96	C	1.409706	-0.239657	0.196724
C97	C	0.950034	-0.970544	-0.343613
C98	C	1.450034	-0.470544	0.156387
C99	C	0.950052	-1.036288	-0.343630
C100	C	1.450052	-0.536288	0.156370
C101	C	0.869574	-1.036394	-0.263036
C102	C	1.369574	-0.536394	0.236964
C103	C	0.869553	-0.970652	-0.263025
C104	C	1.369553	-0.470652	0.236975
C105	C	0.909786	-0.937731	-0.303313
C106	C	1.409786	-0.437731	0.196687
C107	C	1.073879	-0.303394	-0.303293
C108	C	1.573879	0.196606	0.196707
C109	C	1.143847	-0.303405	-0.303300
C110	C	1.643847	0.196595	0.196700
C111	C	0.909741	-0.303357	-0.467465
C112	C	1.409741	0.196643	0.032535
C113	C	0.909764	-0.303351	-0.537433
C114	C	1.409764	0.196649	-0.037433
C115	C	0.909787	-0.139180	-0.303320
C116	C	1.409787	0.360820	0.196680
C117	C	0.909828	-0.069211	-0.303340
C118	C	1.409828	0.430789	0.196660
C119	C	0.950047	-0.263094	-0.570316
C120	C	1.450047	0.236906	-0.070316
C121	C	0.950046	-0.263066	-0.636059
C122	C	1.450046	0.236934	-0.136059
C123	C	0.909769	-0.303308	-0.668915
C124	C	1.409769	0.196692	-0.168915
C125	C	0.869477	-0.343568	-0.636024
C126	C	1.369477	0.156432	-0.136024
C127	C	0.869475	-0.343589	-0.570283
C128	C	1.369475	0.156411	-0.070283
N129	N	0.904913	-0.358375	-0.772132
N130	N	1.404913	0.141625	-0.272132
N131	N	0.904919	-0.358353	-0.834583
N132	N	1.404919	0.141647	-0.334583
C133	C	0.909773	-0.303244	-0.866990
C134	C	1.409773	0.196756	-0.366990
N135	N	0.914632	-0.248157	-0.834586
N136	N	1.414632	0.251843	-0.334586
N137	N	0.914630	-0.248180	-0.772129
N138	N	1.414630	0.251820	-0.272129
C139	C	0.909766	-0.303288	-0.740201
C140	C	1.409766	0.196712	-0.240201
C141	C	0.950057	-0.262953	-0.971159
C142	C	1.450057	0.237047	-0.471159
C143	C	0.950052	-0.262925	-1.036903
C144	C	1.450052	0.237075	-0.536903
C145	C	0.869486	-0.343432	-1.036867
C146	C	1.369486	0.156568	-0.536867
C147	C	0.869488	-0.343455	-0.971125
C148	C	1.369488	0.156545	-0.471125
C149	C	0.909777	-0.303216	-0.938275
C150	C	1.409777	0.196784	-0.438275
C151	C	0.909673	-0.303338	-0.139723
C152	C	1.409673	0.196662	0.360277
C153	C	0.909773	-0.303166	-0.069755
C154	C	1.409773	0.196834	0.430245
H155	H	0.550735	-0.376299	-0.230101
H156	H	1.050735	0.123701	0.269899
C157	C	0.278187	-0.387172	-0.219197
C158	C	0.778187	0.112828	0.280803
C159	C	0.342803	-0.378547	-0.227809
C160	C	0.842803	0.121453	0.272191
C161	C	0.375768	-0.418671	-0.187497
C162	C	0.875768	0.081329	0.312503
H163	H	0.267481	-0.429507	-0.228296
H164	H	0.767481	0.070493	0.271704
H165	H	0.267429	-0.377895	-0.176906
H166	H	0.767429	0.122105	0.323094
H167	H	0.353557	-0.387829	-0.270091
H168	H	0.853557	0.112171	0.229909
H169	H	0.353527	-0.336220	-0.218706
H170	H	0.853527	0.163780	0.281294
H171	H	0.365010	-0.409394	-0.145205
H172	H	0.865010	0.090606	0.354795
H173	H	0.365058	-0.461004	-0.196599
H174	H	0.865058	0.038996	0.303401
H175	H	0.419613	-0.412820	-0.193330
H176	H	0.919613	0.087180	0.306670
H177	H	0.150019	-0.230465	-0.376464
H178	H	0.650019	0.269535	0.123536
H179	H	0.982855	-0.230139	-1.063675
H180	H	1.482855	0.269861	-0.563675
H181	H	0.836685	-0.376191	-1.063618
H182	H	1.336685	0.123809	-0.563618
H183	H	0.836820	-1.063204	-0.230235
H184	H	1.336820	-0.563204	0.269765
H185	H	0.982853	-0.230328	-0.543574
H186	H	1.482853	0.269672	-0.043574
H187	H	0.982678	-0.662165	-0.376380
H188	H	1.482678	-0.162165	0.123620
H189	H	0.982849	-0.230281	-0.662838
H190	H	1.482849	0.269719	-0.162838
H191	H	0.982793	-0.943739	-0.376420
H192	H	1.482793	-0.443739	0.123580
H193	H	0.149894	-0.376351	-0.230135
H194	H	0.649894	0.123649	0.269865
H195	H	0.550856	-0.230419	-0.376434
H196	H	1.050856	0.269581	0.123566
H197	H	0.982642	-0.542899	-0.376351
H198	H	1.482642	-0.042899	0.123649
C199	C	0.678944	-0.219433	-0.387401
C200	C	1.178944	0.280567	0.112599
C201	C	0.636115	-0.184215	-0.422706
C202	C	1.136115	0.315785	0.077294
C203	C	0.668896	-0.143924	-0.463059
C204	C	1.168896	0.356076	0.036941
H205	H	0.704597	-0.243476	-0.414843
H206	H	1.204597	0.256524	0.085157
H207	H	0.704574	-0.191937	-0.363379
H208	H	1.204574	0.308063	0.136621
H209	H	0.610496	-0.211707	-0.446726
H210	H	1.110496	0.288293	0.053274
H211	H	0.610461	-0.160159	-0.395280
H212	H	1.110461	0.339841	0.104720
H213	H	0.694526	-0.116428	-0.439037
H214	H	1.194526	0.383572	0.060963
H215	H	0.694548	-0.167972	-0.490497
H216	H	1.194548	0.332028	0.009503
H217	H	0.639842	-0.120020	-0.487014
H218	H	1.139842	0.379980	0.012986
H219	H	0.836668	-0.376371	-0.543509
H220	H	1.336668	0.123629	-0.043509
C221	C	0.679025	-0.387132	-0.219168
C222	C	1.179025	0.112868	0.280832
C223	C	0.743641	-0.378512	-0.227784
C224	C	1.243641	0.121488	0.272216
C225	C	0.776605	-0.418639	-0.187474
C226	C	1.276605	0.081361	0.312526
H227	H	0.668316	-0.429467	-0.228267
H228	H	1.168316	0.070533	0.271733
H229	H	0.668270	-0.377855	-0.176876
H230	H	1.168270	0.122145	0.323124
H231	H	0.754391	-0.387794	-0.270066
H232	H	1.254391	0.112206	0.229934
H233	H	0.754369	-0.336186	-0.218680
H234	H	1.254369	0.163814	0.281320
H235	H	0.765851	-0.409362	-0.145182
H236	H	1.265851	0.090638	0.354818
H237	H	0.765891	-0.460971	-0.196576
H238	H	1.265891	0.039029	0.303424
H239	H	0.820451	-0.412792	-0.193310
H240	H	1.320451	0.087208	0.306690
H241	H	0.836779	-0.943934	-0.230211
H242	H	1.336779	-0.443934	0.269789
C243	C	0.825822	-0.671412	-0.219252
C244	C	1.325822	-0.171412	0.280748
C245	C	0.834472	-0.736009	-0.227871
C246	C	1.334472	-0.236009	0.272129
C247	C	0.794319	-0.769062	-0.187602
C248	C	1.294319	-0.269062	0.312398
H249	H	0.783493	-0.660746	-0.228385
H250	H	1.283493	-0.160746	0.271615
H251	H	0.835057	-0.660687	-0.176949
H252	H	1.335057	-0.160687	0.323051
H253	H	0.825233	-0.746730	-0.270164
H254	H	1.325233	-0.246730	0.229836
H255	H	0.876793	-0.746694	-0.218734
H256	H	1.376793	-0.246694	0.281266
H257	H	0.803553	-0.758337	-0.145300
H258	H	1.303553	-0.258337	0.354700
H259	H	0.751992	-0.758391	-0.196739
H260	H	1.251992	-0.258391	0.303261
H261	H	0.800186	-0.812895	-0.193441
H262	H	1.300186	-0.312895	0.306559
C263	C	0.825817	-0.387237	-0.671807
C264	C	1.325817	0.112763	-0.171807
C265	C	0.834454	-0.378616	-0.736420
C266	C	1.334454	0.121384	-0.236420
C267	C	0.794248	-0.418838	-0.769402
C268	C	1.294248	0.081162	-0.269402
H269	H	0.783500	-0.378062	-0.661095
H270	H	1.283500	0.121938	-0.161095
H271	H	0.835011	-0.429550	-0.661070
H272	H	1.335011	0.070450	-0.161070
H273	H	0.825256	-0.336312	-0.747153
H274	H	1.325256	0.163688	-0.247153
H275	H	0.876762	-0.387795	-0.747151
H276	H	1.376762	0.112205	-0.247151
H277	H	0.803442	-0.461152	-0.758664
H278	H	1.303442	0.038848	-0.258664
H279	H	0.751935	-0.409660	-0.758685
H280	H	1.251935	0.090340	-0.258685
H281	H	0.800107	-0.412999	-0.813245
H282	H	1.300107	0.087001	-0.313245
C283	C	0.278107	-0.219473	-0.387426
C284	C	0.778107	0.280527	0.112574
C285	C	0.235282	-0.184257	-0.422737
C286	C	0.735282	0.315743	0.077263
C287	C	0.268067	-0.143969	-0.463090
C288	C	0.768067	0.356031	0.036910
H289	H	0.303762	-0.243518	-0.414864
H290	H	0.803762	0.256482	0.085136
H291	H	0.303735	-0.191977	-0.363403
H292	H	0.803735	0.308023	0.136597
H293	H	0.209664	-0.211750	-0.446758
H294	H	0.709664	0.288250	0.053242
H295	H	0.209626	-0.160199	-0.395315
H296	H	0.709626	0.339801	0.104685
H297	H	0.293695	-0.116472	-0.439067
H298	H	0.793695	0.383528	0.060933
H299	H	0.293721	-0.168019	-0.490524
H300	H	0.793721	0.331981	0.009476
H301	H	0.239015	-0.120066	-0.487049
H302	H	0.739015	0.379934	0.012951
H303	H	0.982860	-0.230185	-0.944411
H304	H	1.482860	0.269815	-0.444411
H305	H	0.836688	-0.376240	-0.944351
H306	H	1.336688	0.123760	-0.444351
H307	H	0.982829	-1.063003	-0.376445
H308	H	1.482829	-0.563003	0.123555
H309	H	0.836621	-0.543094	-0.230149
H310	H	1.336621	-0.043094	0.269851
