data_functionalizedCrystal
_audit_creation_method	'MofGen! by Chris Wilmer'
_symmetry_space_group_name_H-M	'P1'
_symmetry_Int_Tables_number	1
_symmetry_cell_setting	triclinic
loop_
_symmetry_equiv_pos_as_xyz
  x,y,z
_cell_length_a	19.288864
_cell_length_b	14.750522
_cell_length_c	15.625325
_cell_angle_alpha	93.451921
_cell_angle_beta	96.280490
_cell_angle_gamma	104.253501
loop_
_atom_site_label
_atom_site_type_symbol
_atom_site_fract_x
_atom_site_fract_y
_atom_site_fract_z
O1	O	0.928156	0.038096	-0.120764
O2	O	0.725108	0.033126	-0.134852
O3	O	0.839198	0.078082	-0.005810
O4	O	0.814066	-0.006859	-0.249806
O5	O	0.814151	-0.070321	0.026546
O6	O	0.700061	-0.115277	-0.102495
O7	O	0.903109	-0.110307	-0.088408
Zn8	Zn	0.797608	-0.136354	-0.090314
Zn9	Zn	0.830609	0.059173	-0.132945
O10	O	0.789019	-0.155262	-0.217449
C11	C	0.686732	-0.040925	-0.118218
C12	C	0.609699	-0.040475	-0.116851
C13	C	0.560833	-0.066820	-0.192574
C14	C	0.488458	-0.066365	-0.191296
C15	C	0.464956	-0.039544	-0.114296
C16	C	0.513831	-0.013200	-0.038562
C17	C	0.586203	-0.013665	-0.039840
C18	C	0.368809	0.033551	-0.065105
C19	C	0.296439	0.034020	-0.063832
C20	C	0.241737	-0.038113	-0.110351
C21	C	0.259414	-0.110709	-0.158161
C22	C	0.331786	-0.111174	-0.159438
C23	C	0.386482	-0.039038	-0.112902
C24	C	0.114393	-0.063968	-0.184694
C25	C	0.042017	-0.063518	-0.183412
C26	C	0.067393	-0.010343	-0.030678
C27	C	0.139766	-0.010804	-0.031960
C28	C	0.163262	-0.037613	-0.108971
N29	N	0.775091	-0.269796	-0.061219
C30	C	0.915959	-0.684912	-0.243315
C31	C	0.900198	-0.778320	-0.222914
C32	C	0.821805	-0.743042	-0.121533
C33	C	0.837557	-0.649630	-0.141929
C34	C	0.884635	-0.620573	-0.202820
C35	C	0.806232	-0.585291	-0.101433
C36	C	0.821986	-0.491887	-0.121824
C37	C	0.869064	-0.462822	-0.182710
C38	C	0.900389	-0.527169	-0.223210
C39	C	0.759158	-0.614348	-0.040538
C40	C	0.727834	-0.550009	-0.000043
C41	C	0.743584	-0.456604	-0.020438
C42	C	0.790662	-0.427539	-0.081324
C43	C	0.712259	-0.392257	0.020062
C44	C	0.728013	-0.298853	-0.000329
C45	C	0.806415	-0.334135	-0.101715
C46	C	0.941485	-0.036253	-0.105042
C47	C	1.018519	-0.036698	-0.106410
C48	C	0.828019	0.014749	0.041583
C49	C	0.832015	0.047133	0.134596
N50	N	0.853131	0.192618	-0.162034
C51	C	0.800199	-0.091927	-0.264844
C52	C	0.796203	-0.124306	-0.357857
C53	C	0.776911	-0.250844	0.528691
C54	C	0.780672	-0.220399	0.616087
C55	C	0.807976	-0.058619	0.580804
C56	C	0.804214	-0.089051	0.493402
C57	C	0.788682	-0.185164	0.467353
C58	C	0.815986	-0.023372	0.432065
C59	C	0.812228	-0.053801	0.344671
C60	C	0.796698	-0.149910	0.318615
C61	C	0.784924	-0.215594	0.379960
C62	C	0.831523	0.072742	0.458116
C63	C	0.843294	0.138421	0.396779
C64	C	0.839531	0.107992	0.309383
C65	C	0.824002	0.011883	0.283327
C66	C	0.851305	0.173676	0.248038
C67	C	0.847547	0.143246	0.160645
C68	C	0.820244	-0.018547	0.195933
H69	H	0.214875	-0.169448	-0.196041
H70	H	0.179555	0.010655	0.029701
C71	C	0.803154	-0.124270	0.167268
H72	H	0.802598	-0.132982	0.106434
H73	H	0.839015	-0.150239	0.195376
H74	H	0.757294	-0.154808	0.182297
H75	H	0.834584	0.097514	0.529279
C76	C	0.767832	-0.321318	0.351298
H77	H	0.761360	-0.356081	0.400345
H78	H	0.724941	-0.338834	0.311400
H79	H	0.806662	-0.334262	0.324479
H80	H	0.673933	-0.415928	0.069646
C81	C	0.759819	-0.356568	0.500029
H82	H	0.753346	-0.391331	0.549076
H83	H	0.716928	-0.374084	0.460131
H84	H	0.798649	-0.369512	0.473210
C85	C	0.140241	-0.093466	-0.269398
H86	H	0.100768	-0.109105	-0.314312
H87	H	0.176696	-0.042999	-0.284357
H88	H	0.159195	-0.146508	-0.261786
H89	H	0.844743	-0.310479	-0.151307
H90	H	0.746338	-0.690403	-0.023933
C91	C	0.434695	-0.095342	-0.274592
H92	H	0.388227	-0.091229	-0.262799
H93	H	0.450095	-0.054587	-0.317460
H94	H	0.432586	-0.158098	-0.294898
C95	C	0.952177	-0.495199	-0.290187
H96	H	0.968582	-0.546893	-0.311383
H97	H	0.927630	-0.472234	-0.336785
H98	H	0.992281	-0.446753	-0.263697
H99	H	0.771082	-0.273891	0.666027
H100	H	0.925709	-0.830705	-0.255896
H101	H	0.863959	0.251932	0.269263
H102	H	0.783476	-0.766712	-0.071953
C103	C	0.676048	-0.581979	0.066929
H104	H	0.671148	-0.646824	0.073270
H105	H	0.694844	-0.546678	0.120955
H106	H	0.630194	-0.572173	0.047865
C107	C	0.860494	0.215490	0.093171
H108	H	0.870276	0.277089	0.121200
H109	H	0.900454	0.209271	0.064883
H110	H	0.818731	0.204689	0.051808
C111	C	0.886403	-0.360078	-0.205138
H112	H	0.918932	-0.351987	-0.247195
H113	H	0.843167	-0.345167	-0.227567
H114	H	0.907822	-0.319693	-0.154484
H115	H	0.820625	0.019637	0.602026
H116	H	0.855943	0.216677	0.418001
C117	C	0.693566	-0.228071	0.044219
H118	H	0.709699	-0.168279	0.023361
H119	H	0.642550	-0.248864	0.031858
H120	H	0.707214	-0.223388	0.104930
C121	C	0.586673	-0.096326	-0.277279
H122	H	0.547199	-0.111961	-0.322192
H123	H	0.623132	-0.045867	-0.292240
H124	H	0.605620	-0.149373	-0.269663
C125	C	0.487982	0.016307	0.046135
H126	H	0.437883	0.012821	0.036049
H127	H	0.496301	-0.024596	0.088588
H128	H	0.513811	0.078912	0.066014
C129	C	0.967748	-0.652942	-0.310291
H130	H	0.984152	-0.704636	-0.331488
H131	H	0.943200	-0.629977	-0.356890
H132	H	1.007851	-0.604496	-0.283802
H133	H	0.346174	-0.170287	-0.198363
H134	H	0.048267	0.011550	0.032005
C135	C	-0.011737	-0.092499	-0.266711
H136	H	0.012627	-0.108523	-0.312757
H137	H	-0.049248	-0.145177	-0.258110
H138	H	-0.031743	-0.041664	-0.280666
C139	C	0.276997	0.113873	-0.011252
H140	H	0.226062	0.103828	-0.017163
H141	H	0.294972	0.114816	0.047962
H142	H	0.297955	0.172245	-0.032132
C143	C	0.428976	0.112908	-0.013938
H144	H	0.408085	0.156217	0.014704
H145	H	0.456496	0.087033	0.027570
H146	H	0.459459	0.144445	-0.052534
C147	C	0.639959	0.015327	0.043456
H148	H	0.615600	0.031371	0.089499
H149	H	0.659973	-0.035496	0.057417
H150	H	0.677467	0.068012	0.034843
H151	H	0.793641	-0.174684	0.247453
