data_functionalizedCrystal
_audit_creation_method	'MofGen! by Chris Wilmer'
_symmetry_space_group_name_H-M	'P1'
_symmetry_Int_Tables_number	1
_symmetry_cell_setting	triclinic
loop_
_symmetry_equiv_pos_as_xyz
  x,y,z
_cell_length_a	18.760487
_cell_length_b	14.560438
_cell_length_c	18.760492
_cell_angle_alpha	60.001861
_cell_angle_beta	90.036694
_cell_angle_gamma	60.019919
loop_
_atom_site_label
_atom_site_type_symbol
_atom_site_fract_x
_atom_site_fract_y
_atom_site_fract_z
Zr1	Zr	0.686679	1.005277	-0.093108
O2	O	0.572859	1.196878	-0.206992
O3	O	0.721571	0.813676	-0.058198
O4	O	0.721567	1.005276	-0.206903
O5	O	0.572866	1.005279	0.059015
O6	O	0.838870	1.005276	-0.206830
O7	O	0.572863	1.005278	-0.058287
O8	O	0.838877	0.662538	0.059175
O9	O	0.572859	1.348017	-0.206990
O10	O	0.823993	0.892484	-0.043254
O11	O	0.736453	0.892485	0.044234
O12	O	0.736449	1.118070	-0.130847
O13	O	0.648909	1.118071	-0.043359
Zr14	Zr	0.873768	1.005279	0.094091
Zr15	Zr	0.873763	1.005277	-0.092993
Zr16	Zr	0.686683	1.005279	0.093976
Zr17	Zr	0.686678	1.246326	-0.093105
Zr18	Zr	0.873768	0.764230	0.094088
O19	O	0.838876	1.196880	0.059181
O20	O	0.838870	1.196877	-0.206828
O21	O	0.572865	1.196881	0.059017
O22	O	0.987587	0.813678	0.207974
O23	O	0.987581	0.813676	-0.058034
O24	O	0.721577	0.813679	0.207811
O25	O	0.987581	1.005277	-0.058032
O26	O	0.838879	1.005280	0.207885
O27	O	0.721576	1.005280	0.207813
O28	O	0.987583	1.005278	0.059270
O29	O	0.721566	1.348016	-0.206899
O30	O	0.838880	0.662540	0.207881
O31	O	0.987587	0.662539	0.207973
O32	O	0.987584	0.662538	0.059266
O33	O	0.572862	1.348018	-0.058284
O34	O	0.721570	1.348018	-0.058192
O35	O	0.823997	0.892486	0.131829
O36	O	0.911537	0.892485	0.044341
O37	O	0.823993	1.118071	-0.043251
O38	O	0.736453	1.118072	0.044236
C39	C	0.780224	0.703763	0.000488
C40	C	0.780224	0.601431	0.000487
C41	C	0.825916	0.553356	-0.045182
C42	C	0.825918	0.457199	-0.045176
C43	C	0.734529	0.457204	0.046170
C44	C	0.734533	0.553353	0.046168
C45	C	0.878675	0.553357	-0.097923
C46	C	0.878677	0.457199	-0.097917
C47	C	0.546209	1.005278	0.000347
C48	C	0.466787	1.005279	0.000298
C49	C	0.085272	1.123036	-0.045079
C50	C	0.176675	0.887521	0.046369
C51	C	0.251297	0.887519	0.046294
C52	C	0.242909	1.005277	0.000531
C53	C	0.159900	1.123038	-0.045158
C54	C	0.334311	0.769760	0.091974
C55	C	0.408939	0.769754	0.091900
C56	C	0.400553	0.887514	0.046141
C57	C	0.317537	1.005279	0.000452
C58	C	0.309150	1.123037	-0.045311
C59	C	0.226135	1.240804	-0.090996
C60	C	0.151513	1.240798	-0.090917
C61	C	0.475174	0.887520	0.046062
C62	C	0.383777	1.123039	-0.045390
C63	C	1.014237	1.005278	0.000635
C64	C	1.093660	1.005277	0.000684
C65	C	0.780218	1.005276	-0.233522
C66	C	0.780216	1.005275	-0.312944
C67	C	0.780223	1.306793	0.000495
C68	C	0.780222	1.409125	0.000496
C69	C	0.825913	0.887517	-0.304533
C70	C	0.734524	1.123032	-0.395983
C71	C	0.734524	1.123036	-0.470606
C72	C	0.780221	1.005278	-0.462195
C73	C	0.825917	0.887517	-0.379161
C74	C	0.688836	1.240795	-0.553645
C75	C	0.688836	1.240803	-0.628274
C76	C	0.734528	1.123044	-0.619863
C77	C	0.780225	1.005278	-0.536823
C78	C	0.825922	0.887520	-0.528412
C79	C	0.871615	0.769753	-0.445372
C80	C	0.871609	0.769758	-0.370750
C81	C	0.734533	1.123039	-0.694485
C82	C	0.825926	0.887520	-0.603040
C83	C	0.780228	1.005280	0.234504
C84	C	0.780230	1.005281	0.313926
C85	C	1.014238	0.703762	0.000632
C86	C	1.093661	0.601431	0.000680
C87	C	0.780229	0.703765	0.234501
C88	C	0.780231	0.601434	0.313922
C89	C	1.014243	0.703765	0.234645
C90	C	1.093668	0.601434	0.314115
C91	C	0.546203	1.306791	-0.233663
C92	C	0.466779	1.409122	-0.313132
C93	C	0.546208	1.306794	0.000351
C94	C	0.466786	1.409125	0.000303
C95	C	0.780217	1.306791	-0.233519
C96	C	0.780215	1.409122	-0.312939
C97	C	1.085261	0.553374	-0.045030
C98	C	1.159880	0.457236	-0.045002
C99	C	1.242897	0.409150	0.000740
C100	C	1.251295	0.457216	0.046451
C101	C	1.176677	0.553359	0.046418
C102	C	0.825929	0.553379	0.396950
C103	C	0.825927	0.457242	0.471582
C104	C	0.780233	0.409155	0.463183
C105	C	0.734529	0.457220	0.380145
C106	C	0.734526	0.553362	0.305516
C107	C	1.176669	0.553378	0.305767
C108	C	1.251304	0.457240	0.380430
C109	C	1.242935	0.409154	0.463440
C110	C	1.159925	0.457220	0.471786
C111	C	1.085292	0.553362	0.397124
C112	C	0.383777	1.457190	-0.304784
C113	C	0.309143	1.553357	-0.379447
C114	C	0.317511	1.601448	-0.462457
C115	C	0.400521	1.553376	-0.470804
C116	C	0.475154	1.457218	-0.396141
C117	C	0.475185	1.457192	0.046004
C118	C	0.400566	1.553356	0.045956
C119	C	0.317549	1.601446	0.000212
C120	C	0.309151	1.553376	-0.045496
C121	C	0.383769	1.457219	-0.045452
C122	C	0.825919	1.457178	-0.304512
C123	C	0.825934	1.553316	-0.379129
C124	C	0.780240	1.601402	-0.462173
C125	C	0.734535	1.553336	-0.470598
C126	C	0.734526	1.457194	-0.395982
H127	H	0.946243	0.361423	-0.063063
Cl128	Cl	0.883348	0.739475	-0.200146
H129	H	1.303649	0.330863	0.000760
Cl130	Cl	0.883383	0.613808	0.407532
Cl131	Cl	0.883391	0.396833	0.575960
Cl132	Cl	1.355666	0.396744	0.103956
H133	H	1.017671	0.592526	-0.082289
H134	H	0.697316	0.592476	0.237913
Cl135	Cl	0.780247	0.288287	0.557013
H136	H	0.697329	0.418047	0.083362
Cl137	Cl	1.149419	0.396753	0.576148
Cl138	Cl	0.513293	0.621708	0.149335
H139	H	0.542735	1.418081	-0.402949
H140	H	1.153026	0.418113	-0.082225
Cl141	Cl	1.187252	0.613752	0.103894
Cl142	Cl	0.677090	0.396751	0.369601
H143	H	0.863134	0.791626	-0.596180
H144	H	1.183499	0.592515	0.238183
H145	H	0.908811	0.673878	-0.303135
Cl146	Cl	1.355648	0.396829	0.369918
Cl147	Cl	0.631390	1.388850	-0.732658
Cl148	Cl	1.336769	0.288286	0.557294
Cl149	Cl	0.986553	0.494958	-0.052547
Cl150	Cl	0.677108	0.613763	0.103602
Cl151	Cl	0.980951	0.613756	0.407634
H152	H	0.407325	1.592545	-0.538399
Cl153	Cl	0.631399	1.388823	-0.564212
Cl154	Cl	0.373234	1.396752	-0.200438
H155	H	0.241560	1.592481	-0.372635
Cl156	Cl	0.677054	1.396804	-0.406591
Cl157	Cl	0.223677	1.722333	-0.556311
Cl158	Cl	0.579527	0.739484	0.103483
Cl159	Cl	0.579541	1.396762	0.103515
Cl160	Cl	0.883372	1.396745	-0.200124
Cl161	Cl	0.411143	1.613762	0.103426
Cl162	Cl	0.833354	0.515588	-0.205816
H163	H	0.697325	1.218905	-0.402825
H164	H	0.256797	1.679743	0.000183
Cl165	Cl	0.373195	1.396796	-0.102905
Cl166	Cl	0.204780	1.613840	-0.102995
Cl167	Cl	0.929065	0.621721	-0.434809
Cl168	Cl	0.215602	1.388837	-0.148526
Cl169	Cl	0.883391	1.613729	-0.368518
Cl170	Cl	0.677104	1.271076	-0.798869
H171	H	0.780255	1.679688	-0.522923
H172	H	0.083918	1.336677	-0.128110
Cl173	Cl	0.824915	0.701234	-0.202261
Cl174	Cl	-0.019084	1.271078	-0.102504
Cl175	Cl	0.373223	1.271088	-0.102919
H176	H	0.183497	0.791647	0.083624
Cl177	Cl	0.344848	0.621732	0.149498
Cl178	Cl	0.677086	1.613814	-0.575002
