data_functionalizedCrystal
_audit_creation_method	'MofGen! by Chris Wilmer'
_symmetry_space_group_name_H-M	'P1'
_symmetry_Int_Tables_number	1
_symmetry_cell_setting	triclinic
loop_
_symmetry_equiv_pos_as_xyz
  x,y,z
_cell_length_a	18.101395
_cell_length_b	18.101398
_cell_length_c	11.169409
_cell_angle_alpha	90.032299
_cell_angle_beta	89.964326
_cell_angle_gamma	89.973721
loop_
_atom_site_label
_atom_site_type_symbol
_atom_site_fract_x
_atom_site_fract_y
_atom_site_fract_z
Zn1	Zn	-0.294865	-1.132152	-0.678914
Zn2	Zn	-0.418731	-1.132038	-0.478219
Zn3	Zn	-0.294898	-1.008301	-0.478205
Zn4	Zn	-0.418659	-1.008261	-0.678821
O5	O	-0.356788	-1.070188	-0.578540
O6	O	-0.311313	-1.235769	-0.652337
O7	O	-0.402349	-1.115594	-0.310268
O8	O	-0.191260	-1.024795	-0.504863
O9	O	-0.402317	-1.235686	-0.504887
O10	O	-0.191236	-1.115787	-0.652323
O11	O	-0.311369	-1.024685	-0.310257
O12	O	-0.311298	-0.904663	-0.504772
O13	O	-0.402193	-1.024726	-0.846783
O14	O	-0.402225	-0.904634	-0.652163
O15	O	-0.311242	-1.115748	-0.846852
O16	O	-0.522355	-1.115555	-0.504796
O17	O	-0.522301	-1.024616	-0.652177
C18	C	-0.356758	-0.877778	-0.578456
C19	C	-0.356763	-0.795464	-0.578449
C20	C	-0.356771	-0.644755	-0.578489
C21	C	-0.299479	-0.613395	-0.485906
C22	C	-0.299260	-0.527777	-0.486202
C23	C	-0.356779	-0.496373	-0.578526
C24	C	-0.335936	-0.527518	-0.705156
C25	C	-0.335515	-0.613163	-0.704599
C26	C	-0.435053	-0.613150	-0.545556
C27	C	-0.434637	-0.527498	-0.542789
C28	C	-0.356785	-0.412513	-0.578555
C29	C	-0.356763	-0.728615	-0.578469
C30	C	-0.549199	-1.070089	-0.578504
C31	C	-0.631513	-1.070114	-0.578529
C32	C	-0.930604	-1.070277	-0.578594
C33	C	-0.899276	-1.013194	-0.671552
C34	C	-0.813658	-1.012922	-0.671262
C35	C	-0.782221	-1.070196	-0.578563
C36	C	-0.813382	-1.049061	-0.452069
C37	C	-0.899027	-1.048693	-0.452625
C38	C	-0.898951	-1.148620	-0.611017
C39	C	-0.813300	-1.148160	-0.613791
C40	C	-0.698362	-1.070152	-0.578538
C41	C	-1.014463	-1.070319	-0.578611
C42	C	-0.163626	-1.070308	-0.578602
C43	C	-0.081312	-1.070359	-0.578628
C44	C	-0.356706	-1.070245	-0.891582
C45	C	-0.356671	-1.070269	-1.024983
C46	C	-0.356808	-0.263350	-0.578600
C47	C	-0.356788	-0.345664	-0.578566
C48	C	-0.356817	-1.070174	-0.266715
C49	C	-0.356643	-1.070293	-0.133316
H50	H	-0.312265	-0.506716	-0.392323
Br51	Br	-0.506198	-0.646972	-0.657916
Br52	Br	-0.202582	-0.493667	-0.522639
H53	H	-0.479585	-0.506113	-0.605257
H54	H	-0.919068	-0.991425	-0.425162
H55	H	-0.793232	-0.954853	-0.649783
Br56	Br	-0.240158	-0.646512	-0.750998
Br57	Br	-0.933579	-1.114975	-0.333241
Br58	Br	-0.241631	-0.491819	-0.752372
H59	H	-0.312338	-0.633932	-0.391719
H60	H	-0.919211	-1.191149	-0.543312
Br61	Br	-0.466777	-0.649076	-0.394227
H62	H	-0.450360	-0.507138	-0.449595
H63	H	-0.793022	-1.089330	-0.380918
H64	H	-0.792586	-1.026146	-0.765055
Br65	Br	-0.402068	-0.647751	-0.823548
H66	H	-0.241802	-0.634944	-0.507490
Br67	Br	-0.777741	-0.954619	-0.405471
Br68	Br	-0.934854	-1.180736	-0.762137
H69	H	-0.919816	-1.026286	-0.765650
H70	H	-0.920859	-0.955477	-0.650345
H71	H	-0.376391	-0.507181	-0.776043
H72	H	-0.792930	-1.164097	-0.706884
H73	H	-0.791897	-1.192940	-0.551021
