data_functionalizedCrystal
_audit_creation_method	'MofGen! by Chris Wilmer'
_symmetry_space_group_name_H-M	'P1'
_symmetry_Int_Tables_number	1
_symmetry_cell_setting	triclinic
loop_
_symmetry_equiv_pos_as_xyz
  x,y,z
_cell_length_a	16.992694
_cell_length_b	11.792241
_cell_length_c	16.053802
_cell_angle_alpha	92.583059
_cell_angle_beta	87.249047
_cell_angle_gamma	87.430819
loop_
_atom_site_label
_atom_site_type_symbol
_atom_site_fract_x
_atom_site_fract_y
_atom_site_fract_z
O1	O	1.044699	0.236280	-0.069325
O2	O	1.544699	0.736280	0.430675
O3	O	0.816403	0.233637	-0.069350
O4	O	1.316403	0.733637	0.430650
O5	O	0.936091	0.070242	-0.069331
O6	O	1.436091	0.570242	0.430669
O7	O	0.925011	0.399675	-0.069344
O8	O	1.425011	0.899675	0.430656
O9	O	0.929503	0.079196	0.069527
O10	O	1.429503	0.579196	0.569527
O11	O	0.809815	0.242591	0.069508
O12	O	1.309815	0.742591	0.569508
O13	O	1.038111	0.245234	0.069533
O14	O	1.538111	0.745234	0.569533
Zn15	Zn	0.922917	0.245334	0.091567
Zn16	Zn	1.422917	0.745334	0.591567
Zn17	Zn	0.931597	0.233537	-0.091384
Zn18	Zn	1.431597	0.733537	0.408616
O19	O	0.918423	0.408630	0.069514
O20	O	1.418423	0.908630	0.569514
C21	C	0.783882	0.234716	0.000076
C22	C	1.283882	0.734716	0.500076
C23	C	0.696796	0.224578	0.000067
C24	C	1.196796	0.724578	0.500067
C25	C	0.646971	0.322395	0.000064
C26	C	1.146971	0.822395	0.500064
C27	C	0.565143	0.312864	0.000076
C28	C	1.065143	0.812864	0.500076
C29	C	0.533142	0.205513	0.000085
C30	C	1.033142	0.705513	0.500085
C31	C	0.582973	0.107688	0.000091
C32	C	1.082973	0.607688	0.500091
C33	C	0.664799	0.117221	0.000085
C34	C	1.164799	0.617221	0.500085
C35	C	0.289375	0.166002	0.000109
C36	C	0.789375	0.666002	0.500109
C37	C	0.207543	0.156476	0.000112
C38	C	0.707543	0.656476	0.500112
C39	C	0.189719	0.361652	0.000099
C40	C	0.689719	0.861652	0.500099
C41	C	0.271548	0.371176	0.000088
C42	C	0.771548	0.871176	0.500088
C43	C	0.321371	0.273351	0.000098
C44	C	0.821371	0.773351	0.500098
N45	N	0.449501	0.195767	0.000094
N46	N	0.949501	0.695767	0.500094
N47	N	0.405010	0.283098	0.000095
N48	N	0.905010	0.783098	0.500095
C49	C	0.932101	0.032371	0.000098
C50	C	1.432101	0.532371	0.500098
C51	C	0.930018	-0.093813	0.000097
C52	C	1.430018	0.406187	0.500097
C53	C	0.926188	-0.324840	0.000082
C54	C	1.426188	0.175160	0.500082
C55	C	0.928316	-0.196280	0.000090
C56	C	1.428316	0.303720	0.500090
C57	C	1.070632	0.244155	0.000105
C58	C	1.570632	0.744155	0.500105
C59	C	1.157719	0.254293	0.000109
C60	C	1.657719	0.754293	0.500109
C61	C	0.922413	0.446500	0.000084
C62	C	1.422413	0.946500	0.500084
C63	C	0.924497	0.572684	0.000079
C64	C	1.424497	1.072684	0.500079
N65	N	0.916999	0.253386	0.216427
N66	N	1.416999	0.753386	0.716427
N67	N	0.937521	0.225477	-0.216243
N68	N	1.437521	0.725477	0.283757
C69	C	0.967945	0.183889	0.260129
C70	C	1.467945	0.683889	0.760129
C71	C	0.963812	0.189532	0.347535
C72	C	1.463812	0.689532	0.847535
C73	C	0.908737	0.264679	0.391237
C74	C	1.408737	0.764679	0.891237
C75	C	0.857785	0.334179	0.347529
C76	C	1.357785	0.834179	0.847529
C77	C	0.861915	0.328529	0.260125
C78	C	1.361915	0.828529	0.760125
C79	C	0.890699	0.289327	0.652644
C80	C	1.390699	0.789327	1.152644
C81	C	0.886575	0.294974	0.740055
C82	C	1.386575	0.794974	1.240055
C83	C	0.992602	0.150325	0.740054
C84	C	1.492602	0.650325	1.240054
C85	C	0.996729	0.144687	0.652648
C86	C	1.496729	0.644687	1.152648
C87	C	0.945775	0.214182	0.608948
C88	C	1.445775	0.714182	1.108948
N89	N	0.904513	0.270452	0.480580
N90	N	1.404513	0.770452	0.980580
N91	N	0.949996	0.208403	0.519606
N92	N	1.449996	0.708403	1.019606
H93	H	0.329932	0.086345	0.000118
H94	H	0.829932	0.586345	0.500118
H95	H	0.820428	0.385119	0.224543
H96	H	1.320428	0.885119	0.724543
H97	H	0.149145	0.441295	0.000092
H98	H	0.649145	0.941295	0.500092
H99	H	0.849212	0.345915	0.617070
H100	H	1.349212	0.845915	1.117070
C101	C	0.770544	0.004315	-0.071296
C102	C	1.270544	0.504315	0.428704
C103	C	0.719573	0.009700	0.000085
C104	C	1.219573	0.509700	0.500085
H105	H	0.804361	-0.062063	-0.071289
H106	H	1.304361	0.437937	0.428711
H107	H	0.740543	0.001729	-0.119709
H108	H	1.240543	0.501729	0.380291
H109	H	0.801306	0.069621	-0.071292
H110	H	1.301306	0.569621	0.428708
H111	H	0.688806	-0.055602	0.000078
H112	H	1.188806	0.444398	0.500078
H113	H	0.749577	0.012276	0.048510
H114	H	1.249577	0.512276	0.548510
H115	H	0.181491	0.069053	0.000119
H116	H	0.681491	0.569053	0.500119
H117	H	0.673020	0.409812	0.000056
H118	H	1.173020	0.909812	0.500056
C119	C	1.079207	0.162588	0.161779
C120	C	1.579207	0.662588	0.661779
C121	C	1.028450	0.101252	0.212073
C122	C	1.528450	0.601252	0.712073
H123	H	1.116551	0.111557	0.132111
H124	H	1.616551	0.611557	0.632111
H125	H	1.049455	0.203188	0.123261
H126	H	1.549455	0.703188	0.623261
H127	H	1.106046	0.214606	0.195860
H128	H	1.606046	0.714606	0.695860
H129	H	1.001607	0.049240	0.177991
H130	H	1.501607	0.549240	0.677991
H131	H	1.058206	0.060633	0.250595
H132	H	1.558206	0.560633	0.750595
C133	C	1.069049	0.046021	0.338755
C134	C	1.569049	0.546021	0.838755
C135	C	1.019826	0.113157	0.395572
C136	C	1.519826	0.613157	0.895572
H137	H	1.103635	-0.001123	0.368413
H138	H	1.603635	0.498877	0.868413
H139	H	1.037843	-0.000026	0.304679
H140	H	1.537843	0.499974	0.804679
H141	H	1.099059	0.093685	0.304649
H142	H	1.599059	0.593685	0.804649
H143	H	0.989811	0.065493	0.429674
H144	H	1.489811	0.565493	0.929674
H145	H	1.051035	0.159209	0.429662
H146	H	1.551035	0.659209	0.929662
C147	C	1.101109	0.002262	0.661430
C148	C	1.601109	0.502262	1.161430
C149	C	1.057266	0.062076	0.604613
C150	C	1.557266	0.562076	1.104613
H151	H	1.138479	-0.048741	0.631773
H152	H	1.638479	0.451259	1.131773
H153	H	1.127912	0.054309	0.695509
H154	H	1.627912	0.554309	1.195509
H155	H	1.066668	-0.039363	0.695533
H156	H	1.566668	0.460637	1.195533
H157	H	1.091706	0.103707	0.570514
H158	H	1.591706	0.603707	1.070514
H159	H	1.030461	0.010021	0.570520
H160	H	1.530461	0.510021	1.070520
H161	H	0.524579	0.392517	0.000072
H162	H	1.024579	0.892517	0.500072
H163	H	0.556910	0.020281	0.000110
H164	H	1.056910	0.520281	0.500110
C165	C	1.004321	0.003711	0.838358
C166	C	1.504321	0.503711	1.338358
C167	C	1.048599	0.073927	0.788093
C168	C	1.548599	0.573927	1.288093
H169	H	1.038893	-0.043462	0.868011
H170	H	1.538893	0.456538	1.368011
H171	H	0.970939	0.049278	0.876889
H172	H	1.470939	0.549278	1.376889
H173	H	0.973112	-0.042316	0.804260
H174	H	1.473112	0.457684	1.304260
H175	H	1.079804	0.119961	0.822192
H176	H	1.579804	0.619961	1.322192
H177	H	1.081995	0.028356	0.749557
H178	H	1.581995	0.528356	1.249557
C179	C	0.245706	0.573028	0.000090
C180	C	0.745706	1.073028	0.500090
C181	C	0.306720	0.489180	0.000086
C182	C	0.806720	0.989180	0.500086
H183	H	0.267422	0.645878	0.000092
H184	H	0.767422	1.145878	0.500092
H185	H	0.216454	0.561923	-0.048328
H186	H	0.716454	1.061923	0.451672
H187	H	0.211870	0.568157	0.048518
H188	H	0.711870	1.068157	0.548518
H189	H	0.340553	0.494046	-0.048345
H190	H	0.840553	0.994046	0.451655
H191	H	0.335985	0.500289	0.048509
H192	H	0.835985	1.000289	0.548509
H193	H	0.841724	0.356172	0.775633
H194	H	1.341724	0.856172	1.275633
C195	C	0.804383	0.407077	0.481513
C196	C	1.304383	0.907077	0.981513
C197	C	0.797247	0.416785	0.395565
C198	C	1.297247	0.916785	0.895565
H199	H	0.767012	0.458084	0.511165
H200	H	1.267012	0.958084	1.011165
H201	H	0.794866	0.331456	0.495845
H202	H	1.294866	0.831456	0.995845
H203	H	0.856111	0.425127	0.495817
H204	H	1.356111	0.925127	0.995817
H205	H	0.745521	0.398727	0.381260
H206	H	1.245521	0.898727	0.881260
H207	H	0.806758	0.492424	0.381227
H208	H	1.306758	0.992424	0.881227
