data_functionalizedCrystal
_audit_creation_method	'MofGen! by Chris Wilmer'
_symmetry_space_group_name_H-M	'P1'
_symmetry_Int_Tables_number	1
_symmetry_cell_setting	triclinic
loop_
_symmetry_equiv_pos_as_xyz
  x,y,z
_cell_length_a	14.853567
_cell_length_b	19.288865
_cell_length_c	18.366186
_cell_angle_alpha	89.989632
_cell_angle_beta	89.993887
_cell_angle_gamma	83.385589
loop_
_atom_site_label
_atom_site_type_symbol
_atom_site_fract_x
_atom_site_fract_y
_atom_site_fract_z
O1	O	-1.195855	-0.090684	0.060508
O2	O	-0.695855	0.409316	0.560508
O3	O	-0.933334	-0.101487	0.060522
O4	O	-0.433334	0.398513	0.560522
O5	O	-1.072180	0.005019	0.060500
O6	O	-0.572180	0.505019	0.560500
O7	O	-1.057009	-0.197190	0.060530
O8	O	-0.557009	0.302810	0.560530
O9	O	-1.072156	0.005022	-0.060599
O10	O	-0.572156	0.505022	0.439401
O11	O	-0.933310	-0.101484	-0.060578
O12	O	-0.433310	0.398516	0.439422
O13	O	-1.195831	-0.090681	-0.060591
O14	O	-0.695831	0.409319	0.439409
Zn15	Zn	-1.064567	-0.096082	-0.079812
Zn16	Zn	-0.564567	0.403918	0.420188
Zn17	Zn	-1.064598	-0.096086	0.079742
Zn18	Zn	-0.564598	0.403914	0.579742
O19	O	-1.056985	-0.197187	-0.060570
O20	O	-0.556985	0.302813	0.439430
C21	C	-0.899736	-0.100996	-0.000027
C22	C	-0.399736	0.399004	0.499973
C23	C	-0.799661	-0.099529	-0.000022
C24	C	-0.299661	0.400471	0.499978
C25	C	-1.229429	-0.091172	-0.000041
C26	C	-0.729429	0.408828	0.499959
C27	C	-1.329504	-0.092639	-0.000041
C28	C	-0.829504	0.407361	0.499959
C29	C	-1.071680	0.030899	-0.000052
C30	C	-0.571680	0.530899	0.499948
C31	C	-1.070215	0.108008	-0.000058
C32	C	-0.570215	0.608008	0.499942
C33	C	-0.387522	-0.030061	-0.000048
C34	C	0.112478	0.469939	0.499952
C35	C	-0.365522	-0.156593	-0.000029
C36	C	0.134478	0.343407	0.499971
C37	C	-0.459547	-0.157972	-0.000027
C38	C	0.040453	0.342028	0.499973
C39	C	-0.517565	-0.095395	-0.000034
C40	C	-0.017565	0.404605	0.499966
C41	C	-0.481557	-0.031439	-0.000044
C42	C	0.018443	0.468561	0.499956
C43	C	-0.495563	-0.221927	-0.000009
C44	C	0.004437	0.278073	0.499991
C45	C	-0.589594	-0.223309	-0.000006
C46	C	-0.089594	0.276691	0.499994
C47	C	-0.647614	-0.160731	-0.000019
C48	C	-0.147614	0.339269	0.499981
C49	C	-0.611600	-0.096772	-0.000029
C50	C	-0.111600	0.403228	0.499971
C51	C	-0.669618	-0.034195	-0.000037
C52	C	-0.169618	0.465805	0.499963
C53	C	-0.633606	0.029764	-0.000052
C54	C	-0.133606	0.529764	0.499948
C55	C	-0.539577	0.031139	-0.000056
C56	C	-0.039577	0.531139	0.499944
C57	C	-0.741643	-0.162106	-0.000015
C58	C	-0.241643	0.337894	0.499985
C59	C	-0.763653	-0.035572	-0.000032
C60	C	-0.263653	0.464428	0.499968
C61	C	-1.057485	-0.223067	-0.000016
C62	C	-0.557485	0.276933	0.499984
C63	C	-1.058951	-0.300175	-0.000005
C64	C	-0.558951	0.199825	0.499995
N65	N	-1.064552	-0.096079	-0.188703
N66	N	-0.564552	0.403921	0.311297
C67	C	-1.151683	0.152429	-0.000066
C68	C	-0.651683	0.652429	0.499934
C69	C	-1.150307	0.224881	-0.000054
C70	C	-0.650307	0.724881	0.499946
C71	C	-1.067457	0.252908	-0.000050
C72	C	-0.567457	0.752908	0.499950
C73	C	-0.985977	0.208477	-0.000038
C74	C	-0.485977	0.708477	0.499962
C75	C	-0.987356	0.136027	-0.000042
C76	C	-0.487356	0.636027	0.499958
C77	C	-1.002319	0.361416	-0.042465
C78	C	-0.502319	0.861416	0.457535
C79	C	-1.000943	0.433865	-0.042465
C80	C	-0.500943	0.933865	0.457535
C81	C	-1.063200	0.476368	-0.000033
C82	C	-0.563200	0.976368	0.499967
C83	C	-1.126848	0.446414	0.042390
C84	C	-0.626848	0.946414	0.542390
C85	C	-1.128227	0.373964	0.042385
C86	C	-0.628227	0.873964	0.542385
C87	C	-1.065952	0.331467	-0.000044
C88	C	-0.565952	0.831467	0.499956
C89	C	-1.143181	0.599350	-0.000027
C90	C	-0.643181	1.099350	0.499973
C91	C	-1.141801	0.671803	-0.000011
C92	C	-0.641801	1.171803	0.499989
C93	C	-0.977470	0.655397	-0.000002
C94	C	-0.477470	1.155397	0.499998
C95	C	-0.978852	0.582946	-0.000011
C96	C	-0.478852	1.082946	0.499989
C97	C	-1.061710	0.554927	-0.000027
C98	C	-0.561710	1.054927	0.499973
C99	C	-1.119049	-0.138286	-0.226794
C100	C	-0.619049	0.361714	0.273206
C101	C	-1.119064	-0.138285	-0.303021
C102	C	-0.619064	0.361715	0.196979
C103	C	-1.064565	-0.096083	-0.341156
C104	C	-0.564565	0.403917	0.158844
C105	C	-1.010064	-0.053867	-0.303056
C106	C	-0.510064	0.446133	0.196944
C107	C	-1.010058	-0.053864	-0.226829
C108	C	-0.510058	0.446136	0.273171
C109	C	-0.983299	-0.094052	-0.461933
C110	C	-0.483299	0.405948	0.038067
C111	C	-0.983303	-0.094059	-0.538158
C112	C	-0.483303	0.405941	-0.038158
C113	C	-1.064585	-0.096085	-0.576263
C114	C	-0.564585	0.403915	-0.076263
C115	C	-1.145864	-0.098119	-0.538134
C116	C	-0.645864	0.401881	-0.038134
C117	C	-1.145857	-0.098117	-0.461907
C118	C	-0.645857	0.401883	0.038093
C119	C	-1.064566	-0.096080	-0.423810
C120	C	-0.564566	0.403920	0.076190
C121	C	-1.119103	-0.138293	-0.697009
C122	C	-0.619103	0.361707	-0.197009
C123	C	-1.119119	-0.138286	-0.773238
C124	C	-0.619119	0.361714	-0.273238
C125	C	-1.010111	-0.053872	-0.773271
C126	C	-0.510111	0.446128	-0.273271
C127	C	-1.010103	-0.053875	-0.697043
C128	C	-0.510103	0.446125	-0.197043
C129	C	-1.064597	-0.096089	-0.658916
C130	C	-0.564597	0.403911	-0.158916
N131	N	-1.064621	-0.096083	0.188633
N132	N	-0.564621	0.403917	0.688633
H133	H	-0.680856	0.080715	-0.000053
H134	H	-0.180856	0.580715	0.499947
H135	H	-1.180049	0.349578	0.076929
H136	H	-0.680049	0.849578	0.576929
O137	O	-0.348686	0.038921	-0.000072
O138	O	0.151314	0.538921	0.499928
H139	H	-0.372015	0.068997	0.049279
H140	H	0.127985	0.568997	0.549279
H141	H	-1.212037	-0.099771	-0.430866
H142	H	-0.712037	0.400229	0.069134
O143	O	-1.177901	-0.183812	-0.814328
O144	O	-0.677901	0.316188	-0.314328
H145	H	-1.215784	-0.213169	-0.775006
H146	H	-0.715784	0.286831	-0.275006
O147	O	-0.500732	0.100118	-0.000067
O148	O	-0.000732	0.600118	0.499933
H149	H	-0.524041	0.130190	-0.049433
H150	H	-0.024041	0.630190	0.450567
O151	O	-0.951323	-0.008357	-0.655944
O152	O	-0.451323	0.491643	-0.155944
H153	H	-0.879206	-0.023370	-0.670571
H154	H	-0.379206	0.476630	-0.170571
O155	O	-0.826226	0.031924	-0.000047
O156	O	-0.326226	0.531924	0.499953
H157	H	-0.869600	0.034325	0.049310
H158	H	-0.369600	0.534325	0.549310
O159	O	-0.935170	0.315579	-0.088241
O160	O	-0.435170	0.815579	0.411759
H161	H	-0.893298	0.278323	-0.052464
H162	H	-0.393298	0.778323	0.447536
O163	O	-0.895669	-0.091738	-0.579282
O164	O	-0.395669	0.408262	-0.079282
H165	H	-0.839159	-0.090267	-0.539981
H166	H	-0.339159	0.409733	-0.039981
H167	H	-0.318279	-0.207540	-0.000017
H168	H	0.181721	0.292460	0.499983
H169	H	-0.917104	-0.092406	-0.430914
H170	H	-0.417104	0.407594	0.069086
H171	H	-0.448319	-0.272874	0.000004
H172	H	0.051681	0.227126	0.500004
H173	H	-1.219153	0.129621	-0.000076
H174	H	-0.719153	0.629621	0.499924
H175	H	-1.163426	-0.172658	-0.195756
H176	H	-0.663426	0.327342	0.304244
O177	O	-0.628435	-0.292289	-0.000007
O178	O	-0.128435	0.207711	0.499993
H179	H	-0.572294	-0.335570	-0.000011
H180	H	-0.072294	0.164430	0.499989
O181	O	-0.951276	-0.008351	-0.344179
O182	O	-0.451276	0.491649	0.155821
H183	H	-0.960427	-0.015449	-0.403584
H184	H	-0.460427	0.484551	0.096416
O185	O	-1.194015	0.492250	0.088145
O186	O	-0.694015	0.992250	0.588145
H187	H	-1.238511	0.459251	0.117633
H188	H	-0.738511	0.959251	0.617633
H189	H	-0.770960	-0.214181	-0.000003
H190	H	-0.270960	0.285819	0.499997
O191	O	-1.238178	0.272806	-0.000072
O192	O	-0.738178	0.772806	0.499928
H193	H	-1.296025	0.241151	-0.000090
H194	H	-0.796025	0.741151	0.499910
H195	H	-1.210650	0.576536	-0.000037
H196	H	-0.710650	1.076536	0.499963
H197	H	-0.921013	0.099858	-0.000036
H198	H	-0.421013	0.599858	0.499964
H199	H	-1.208146	0.707971	-0.000013
H200	H	-0.708146	1.207971	0.499987
H201	H	-0.965738	-0.019510	-0.804319
H202	H	-0.465738	0.480490	-0.304319
O203	O	-0.951268	-0.008345	-0.185738
O204	O	-0.451268	0.491655	0.314262
H205	H	-0.913368	0.020999	-0.225058
H206	H	-0.413368	0.520999	0.274942
H207	H	-0.912511	0.546777	-0.000008
H208	H	-0.412511	1.046777	0.499992
H209	H	-0.910012	0.678216	0.000006
H210	H	-0.410012	1.178216	0.500006
H211	H	-0.949113	0.458247	-0.077004
H212	H	-0.449113	0.958247	0.422996
O213	O	-0.896615	0.238699	-0.000041
O214	O	-0.396615	0.738699	0.499959
H215	H	-0.909342	0.296542	-0.000049
H216	H	-0.409342	0.796542	0.499951
H217	H	-1.212050	-0.099773	-0.569157
H218	H	-0.712050	0.400227	-0.069157
O219	O	-1.177879	-0.183816	-0.655876
O220	O	-0.677879	0.316184	-0.155876
H221	H	-1.249997	-0.168799	-0.670489
H222	H	-0.749997	0.331201	-0.170489
O223	O	-1.177837	-0.183816	-0.344120
O224	O	-0.677837	0.316184	0.155880
H225	H	-1.215723	-0.213173	-0.304802
H226	H	-0.715723	0.286827	0.195198
