data_functionalizedCrystal
_audit_creation_method	'MofGen! by Chris Wilmer'
_symmetry_space_group_name_H-M	'P1'
_symmetry_Int_Tables_number	1
_symmetry_cell_setting	triclinic
loop_
_symmetry_equiv_pos_as_xyz
  x,y,z
_cell_length_a	17.699077
_cell_length_b	10.723024
_cell_length_c	16.776229
_cell_angle_alpha	89.994545
_cell_angle_beta	89.993415
_cell_angle_gamma	83.874223
loop_
_atom_site_label
_atom_site_type_symbol
_atom_site_fract_x
_atom_site_fract_y
_atom_site_fract_z
O1	O	1.005076	0.157762	-0.066276
O2	O	0.784827	0.178299	-0.066279
O3	O	0.900032	-0.013633	-0.066274
O4	O	0.889871	0.349694	-0.066280
O5	O	0.900017	-0.013645	0.066302
O6	O	0.784811	0.178287	0.066297
O7	O	1.005061	0.157750	0.066301
Zn8	Zn	0.894934	0.168017	0.087348
Zn9	Zn	0.894954	0.168032	-0.087327
O10	O	0.889856	0.349682	0.066296
C11	C	0.756618	0.177559	0.000009
C12	C	0.672585	0.175355	0.000007
C13	C	0.633103	0.174310	0.072275
C14	C	0.554147	0.172219	0.072276
C15	C	0.514675	0.171182	0.000008
C16	C	0.554163	0.172223	-0.072266
C17	C	0.633118	0.174305	-0.072266
C18	C	0.235747	0.163826	-0.072267
C19	C	0.156786	0.161748	-0.072262
C20	C	0.156776	0.161740	0.072275
C21	C	0.235731	0.163822	0.072275
C22	C	0.275213	0.164856	0.000002
C23	C	0.360826	0.167121	0.000001
C24	C	0.429062	0.168927	0.000007
C25	C	0.899285	-0.060126	0.000013
C26	C	0.897073	-0.198642	0.000010
C27	C	0.961535	-0.274732	0.000010
C28	C	0.959250	-0.417896	0.000007
C29	C	1.033270	0.158490	0.000011
C30	C	1.117303	0.160694	0.000008
C31	C	0.890603	0.396175	0.000007
C32	C	0.892815	0.534691	0.000005
N33	N	0.894925	0.168005	0.206560
N34	N	0.894969	0.168034	-0.206538
C35	C	0.945954	0.083053	0.248279
C36	C	0.945958	0.083052	0.331731
C37	C	0.894937	0.168010	0.373463
C38	C	0.843903	0.252967	0.331737
C39	C	0.843895	0.252961	0.248287
C40	C	0.843930	0.252992	0.668285
C41	C	0.843943	0.252993	0.751741
C42	C	0.945993	0.083082	0.751729
C43	C	0.945986	0.083076	0.668278
C44	C	0.894949	0.168028	0.626561
C45	C	0.894944	0.168026	0.536072
C46	C	0.894945	0.168019	0.463949
H47	H	0.124649	0.160903	-0.131115
H48	H	0.665235	0.175164	0.131125
O49	O	0.826901	-0.387505	0.000038
C50	C	0.690052	-0.371033	-0.000018
C51	C	0.764640	-0.459299	-0.000037
H52	H	0.639694	-0.429043	-0.000095
H53	H	0.687567	-0.309382	0.055479
H54	H	0.687679	-0.309315	-0.055487
H55	H	0.767062	-0.521096	0.055395
H56	H	0.767094	-0.520864	-0.055571
O57	O	1.029444	-0.226168	0.000115
C58	C	1.147760	-0.211829	0.068819
C59	C	1.070884	-0.266927	0.068792
H60	H	1.181278	-0.244739	0.124347
H61	H	1.181391	-0.244822	0.013373
H62	H	1.137496	-0.105049	0.068780
H63	H	1.081078	-0.373708	0.068859
H64	H	1.037278	-0.233836	0.124233
O65	O	0.995545	0.000402	0.207868
C66	C	1.096797	-0.168087	0.216674
C67	C	1.040665	-0.074567	0.262535
H68	H	1.133302	-0.228707	0.260852
H69	H	1.063837	-0.230445	0.177639
H70	H	1.134847	-0.114273	0.177569
H71	H	1.002602	-0.128280	0.301682
H72	H	1.073672	-0.012210	0.301519
H73	H	0.987548	0.013905	0.785704
H74	H	0.665263	0.175158	-0.131114
H75	H	1.014435	-0.483277	0.000011
O76	O	0.995428	0.000408	0.372288
C77	C	1.010687	-0.170000	0.466544
C78	C	0.954575	-0.076491	0.420653
H79	H	0.977680	-0.232179	0.505671
H80	H	1.047143	-0.230802	0.422414
H81	H	1.048788	-0.116175	0.505565
H82	H	0.916426	-0.130214	0.381631
H83	H	0.918173	-0.015690	0.464826
H84	H	0.987535	0.013899	0.634303
O85	O	0.794300	0.335567	0.792157
C86	C	0.693095	0.504134	0.783368
C87	C	0.749258	0.410677	0.737498
H88	H	0.656675	0.564903	0.739196
H89	H	0.654968	0.450395	0.822431
H90	H	0.726106	0.566354	0.822445
H91	H	0.716308	0.348433	0.698377
H92	H	0.787384	0.464494	0.698485
O93	O	0.515942	0.171172	-0.142539
C94	C	0.524284	0.171499	-0.285905
C95	C	0.567663	0.172652	-0.206377
H96	H	0.566080	0.172721	-0.337539
H97	H	0.493814	0.083219	-0.289577
H98	H	0.480827	0.257800	-0.289472
H99	H	0.611156	0.086410	-0.202757
H100	H	0.598081	0.260988	-0.202738
H101	H	0.124621	0.160892	0.131124
O102	O	0.794467	0.335580	0.627684
C103	C	0.779235	0.506101	0.533508
C104	C	0.835335	0.412607	0.579426
H105	H	0.812254	0.568419	0.494494
H106	H	0.741147	0.452392	0.494396
H107	H	0.742765	0.566767	0.577692
H108	H	0.871855	0.351917	0.535299
H109	H	0.873370	0.466393	0.618550
H110	H	0.267883	0.164665	-0.131117
H111	H	0.802342	0.322137	0.214320
O112	O	0.515907	0.171270	0.142549
C113	C	0.524233	0.171424	0.285915
C114	C	0.567631	0.172531	0.206385
H115	H	0.566036	0.172416	0.337547
H116	H	0.480809	0.257759	0.289578
H117	H	0.493725	0.083176	0.289492
H118	H	0.598185	0.260720	0.202754
H119	H	0.611012	0.086136	0.202756
O120	O	0.794264	0.335539	0.372149
C121	C	0.693065	0.504115	0.363347
C122	C	0.749229	0.410649	0.317484
H123	H	0.656650	0.564883	0.319170
H124	H	0.654933	0.450382	0.402407
H125	H	0.726075	0.566334	0.402425
H126	H	0.716280	0.348406	0.278362
H127	H	0.787361	0.464460	0.278474
O128	O	0.273961	0.164769	0.142548
C129	C	0.265611	0.164606	0.285914
C130	C	0.222226	0.163508	0.206387
H131	H	0.223800	0.163613	0.337549
H132	H	0.309033	0.078267	0.289581
H133	H	0.296122	0.252851	0.289482
H134	H	0.191670	0.075321	0.202765
H135	H	0.178847	0.249905	0.202753
H136	H	0.840192	-0.239487	0.000004
