data_functionalizedCrystal
_audit_creation_method	'MofGen! by Chris Wilmer'
_symmetry_space_group_name_H-M	'P1'
_symmetry_Int_Tables_number	1
_symmetry_cell_setting	triclinic
loop_
_symmetry_equiv_pos_as_xyz
  x,y,z
_cell_length_a	12.645331
_cell_length_b	21.295417
_cell_length_c	12.645323
_cell_angle_alpha	89.966008
_cell_angle_beta	89.977324
_cell_angle_gamma	90.029485
loop_
_atom_site_label
_atom_site_type_symbol
_atom_site_fract_x
_atom_site_fract_y
_atom_site_fract_z
Zn1	Zn	1.620637	-0.250621	-0.599379
Zn2	Zn	1.620479	-0.355896	-0.422091
Zn3	Zn	1.443351	-0.250643	-0.422123
Zn4	Zn	1.443294	-0.355855	-0.599306
O5	O	1.531940	-0.303254	-0.510725
O6	O	1.768963	-0.264595	-0.575878
O7	O	1.596941	-0.341960	-0.273748
O8	O	1.466959	-0.162550	-0.445681
O9	O	1.768847	-0.341939	-0.445625
O10	O	1.597210	-0.162535	-0.575910
O11	O	1.466806	-0.264631	-0.273772
O12	O	1.294996	-0.264591	-0.445610
O13	O	1.466860	-0.341869	-0.747663
O14	O	1.294954	-0.341890	-0.575786
O15	O	1.597154	-0.264555	-0.747717
O16	O	1.596884	-0.443980	-0.445555
O17	O	1.466707	-0.443950	-0.575754
C18	C	1.256510	-0.303239	-0.510694
C19	C	1.138680	-0.303247	-0.510706
C20	C	1.531801	-0.466805	-0.510666
C21	C	1.531839	-0.536773	-0.510677
C22	C	0.971108	-0.254395	-0.429265
C23	C	1.093667	-0.254521	-0.428906
C24	C	1.094135	-0.369560	-0.480174
C25	C	0.971537	-0.369293	-0.479618
C26	C	0.971537	-0.286418	-0.622995
C27	C	1.094144	-0.284937	-0.622372
C28	C	1.599682	-0.569635	-0.442951
C29	C	1.599732	-0.635377	-0.442975
C30	C	1.531919	-0.668256	-0.510713
C31	C	1.464071	-0.635386	-0.578452
C32	C	1.464031	-0.569645	-0.578433
N33	N	1.439183	-0.771521	-0.518784
N34	N	1.439224	-0.833972	-0.518796
C35	C	1.532038	-0.866331	-0.510774
N36	N	1.624811	-0.833879	-0.502720
N37	N	1.624768	-0.771421	-0.502703
C38	C	1.531956	-0.739541	-0.510741
C39	C	1.599941	-0.970478	-0.443071
C40	C	1.599993	-1.036221	-0.443102
C41	C	1.464322	-1.036229	-0.578573
C42	C	1.464280	-0.970487	-0.578547
C43	C	1.532088	-0.937615	-0.510791
C44	C	1.808445	-0.303269	-0.510756
C45	C	1.926275	-0.303276	-0.510770
C46	C	1.532018	-0.303205	-0.787230
C47	C	1.532052	-0.303184	-0.905061
C48	C	1.532109	-0.139063	-0.510807
C49	C	1.532180	-0.069095	-0.510842
C50	C	1.449831	-0.351594	-1.072591
C51	C	1.450046	-0.351833	-0.950031
C52	C	1.643744	-0.321189	-0.949576
C53	C	1.643293	-0.321492	-1.072174
C54	C	1.503635	-0.236500	-1.072276
C55	C	1.501143	-0.236899	-0.949670
C56	C	1.531923	-0.303257	-0.235295
C57	C	1.532096	-0.303100	-0.117466
H58	H	1.123787	-0.205348	-0.448045
N59	N	0.934339	-0.416532	-0.550836
N60	N	0.998926	-0.449595	-0.600785
H61	H	0.972660	-0.482960	-0.651078
N62	N	1.394970	-0.936925	-0.647733
N63	N	1.334430	-0.966286	-0.708214
H64	H	1.285479	-0.942584	-0.757083
H65	H	0.940256	-0.265413	-0.346591
H66	H	1.123290	-0.406953	-0.537674
H67	H	1.409112	-1.062998	-0.633731
N68	N	0.935567	-0.387212	-0.376699
N69	N	0.838690	-0.390251	-0.357677
H70	H	0.813289	-0.402904	-0.284987
N71	N	1.346141	-0.337696	-0.912281
N72	N	1.272958	-0.327585	-0.976480
H73	H	1.199569	-0.317603	-0.949825
N74	N	1.669284	-1.069789	-0.373902
N75	N	1.632038	-1.106523	-0.306328
H76	H	1.680975	-1.130230	-0.257452
H77	H	1.408859	-0.662160	-0.633606
H78	H	1.124785	-0.384101	-0.399012
H79	H	1.366761	-0.340435	-1.102068
H80	H	1.468434	-0.400659	-1.103397
N81	N	1.130399	-0.268492	-0.324578
N82	N	1.106073	-0.233447	-0.249140
H83	H	1.132013	-0.243314	-0.175453
H84	H	1.556685	-0.198859	-0.919059
H85	H	0.940659	-0.238907	-0.650759
H86	H	1.408783	-0.542889	-0.633585
H87	H	1.123266	-0.236138	-0.645395
H88	H	1.468832	-0.401207	-0.920704
N89	N	1.132518	-0.326379	-0.702609
N90	N	1.193588	-0.370280	-0.678694
H91	H	1.220662	-0.399566	-0.735353
N92	N	1.669208	-0.936905	-0.373857
N93	N	1.729787	-0.966257	-0.313396
H94	H	1.778708	-0.942548	-0.264512
H95	H	1.668285	-0.369365	-0.918874
N96	N	1.673569	-0.382568	-1.108040
N97	N	1.694882	-0.424674	-1.042528
H98	H	1.716267	-0.467811	-1.067853
N99	N	1.578781	-0.191169	-1.108702
N100	N	1.548690	-0.145299	-1.162550
H101	H	1.601764	-0.113288	-1.188281
N102	N	1.668925	-0.536049	-0.373736
N103	N	1.668868	-0.477352	-0.373710
H104	H	1.717762	-0.453629	-0.324818
H105	H	1.706664	-0.287705	-1.101861
N106	N	1.722690	-0.278278	-0.913036
N107	N	1.697453	-0.233842	-0.853636
H108	H	1.753206	-0.203535	-0.827828
H109	H	1.423608	-0.220088	-1.103185
N110	N	0.935186	-0.331094	-0.699164
N111	N	0.876202	-0.375175	-0.671065
H112	H	0.850531	-0.406733	-0.724849
H113	H	1.418947	-0.223321	-0.920574
H114	H	0.941662	-0.205074	-0.448199
H115	H	1.654982	-0.662138	-0.387825
