data_functionalizedCrystal
_audit_creation_method	'MofGen! by Chris Wilmer'
_symmetry_space_group_name_H-M	'P1'
_symmetry_Int_Tables_number	1
_symmetry_cell_setting	triclinic
loop_
_symmetry_equiv_pos_as_xyz
  x,y,z
_cell_length_a	10.723024
_cell_length_b	23.532407
_cell_length_c	9.798715
_cell_angle_alpha	89.992208
_cell_angle_beta	89.996609
_cell_angle_gamma	83.658273
loop_
_atom_site_label
_atom_site_type_symbol
_atom_site_fract_x
_atom_site_fract_y
_atom_site_fract_z
O1	O	1.654699	0.079871	-0.113498
O2	O	1.291309	0.087516	-0.113504
O3	O	1.483962	0.000833	-0.113476
O4	O	1.462046	0.166554	-0.113526
O5	O	1.483948	0.000833	0.113507
O6	O	1.291294	0.087516	0.113478
O7	O	1.654685	0.079871	0.113484
Zn8	Zn	1.472987	0.083693	0.149520
Zn9	Zn	1.473006	0.083693	-0.149539
O10	O	1.462032	0.166554	0.113456
C11	C	1.244819	0.086960	-0.000013
C12	C	1.106317	0.085295	-0.000014
C13	C	1.483397	-0.020387	0.000019
C14	C	1.481719	-0.083615	0.000029
C15	C	1.029823	0.133798	-0.000030
C16	C	0.886673	0.132079	-0.000031
C17	C	1.585203	-0.482046	-0.000044
C18	C	1.583644	-0.541457	-0.000054
O19	O	1.679575	-0.577579	-0.000103
N20	N	1.469112	-0.564826	-0.000055
C21	C	1.356131	-0.528782	-0.000059
O22	O	1.258569	-0.554114	-0.000062
C23	C	1.357691	-0.469373	-0.000059
C24	C	1.472230	-0.446007	-0.000044
C25	C	1.699733	-0.458680	-0.000030
C26	C	1.701291	-0.399274	-0.000017
C27	C	1.588319	-0.363234	-0.000018
C28	C	1.473789	-0.386600	-0.000031
C29	C	1.244711	-0.433329	-0.000073
C30	C	1.246281	-0.373917	-0.000073
C31	C	1.360821	-0.350551	-0.000059
C32	C	1.362374	-0.291154	-0.000018
N33	N	1.476907	-0.267785	-0.000018
C34	C	1.589879	-0.303825	-0.000017
C35	C	1.352863	-0.653545	-0.000063
C36	C	1.351302	-0.712953	-0.000054
C37	C	1.578816	-0.725625	-0.000051
C38	C	1.580376	-0.666215	-0.000051
C39	C	1.467395	-0.630176	-0.000062
C40	C	1.593143	-0.179067	0.000011
C41	C	1.594691	-0.119655	0.000030
C42	C	1.367178	-0.106989	0.000020
C43	C	1.365629	-0.166396	0.000008
C44	C	1.478622	-0.202434	-0.000001
O45	O	1.266494	-0.254997	0.000025
O46	O	1.687425	-0.278484	-0.000032
C47	C	1.701174	0.080427	-0.000009
C48	C	1.839677	0.082092	-0.000017
C49	C	1.462597	0.187774	-0.000041
C50	C	1.464275	0.251001	-0.000061
N51	N	1.472984	0.083693	0.353619
N52	N	1.473020	0.083689	-0.353639
C53	C	1.553878	0.047136	0.421408
C54	C	1.553899	0.047134	0.578571
H55	H	0.820947	0.173602	-0.000050
H56	H	1.403737	0.114986	0.411934
H57	H	0.905395	0.040567	-0.000012
O58	O	1.636342	0.009797	0.351672
C59	C	1.569686	-0.025498	0.269027
H60	H	1.471830	-0.003119	0.247805
H61	H	1.621738	-0.034278	0.168470
H62	H	1.561591	-0.067639	0.323976
H63	H	1.673644	-0.647195	-0.000040
H64	H	1.065828	0.042497	-0.000036
H65	H	1.623161	0.015839	0.636866
H66	H	1.154276	-0.344576	-0.000085
O67	O	1.705992	-0.096985	-0.000204
C68	C	1.774830	-0.115361	-0.117745
H69	H	1.707843	-0.127975	-0.199914
H70	H	1.827462	-0.079164	-0.157197
H71	H	1.844848	-0.153801	-0.091174
O72	O	1.078175	0.184845	-0.000283
C73	C	1.152582	0.188800	-0.117818
H74	H	1.122086	0.158946	-0.199978
H75	H	1.140473	0.234652	-0.157287
H76	H	1.255353	0.176002	-0.091231
O77	O	1.702821	-0.214127	0.000191
C78	C	1.708740	-0.248869	0.117760
H79	H	1.609739	-0.252279	0.156941
H80	H	1.755808	-0.293323	0.091320
H81	H	1.765457	-0.229102	0.200086
O82	O	1.812666	-0.376675	-0.000075
C83	C	1.912029	-0.421233	-0.000045
H84	H	1.877553	-0.461718	-0.043018
H85	H	1.992047	-0.408503	-0.065945
H86	H	1.946836	-0.429509	0.108849
O87	O	1.390511	0.121110	0.576896
C88	C	1.410394	0.177539	0.611722
H89	H	1.510290	0.178121	0.651070
H90	H	1.395927	0.206034	0.517687
H91	H	1.341046	0.194091	0.694566
O92	O	1.809402	-0.493743	0.000154
C93	C	1.815322	-0.528482	0.117729
H94	H	1.716322	-0.531890	0.156913
H95	H	1.862392	-0.572936	0.091298
H96	H	1.872039	-0.508711	0.200051
O97	O	1.688446	-0.760722	-0.000128
C98	C	1.662495	-0.818166	-0.000106
H99	H	1.564515	-0.820823	-0.043070
H100	H	1.734542	-0.844789	-0.066018
H101	H	1.667445	-0.835337	0.108784
O102	O	1.239928	-0.735553	-0.000114
C103	C	1.140560	-0.690997	-0.000074
H104	H	1.175034	-0.650505	-0.043037
H105	H	1.060549	-0.703720	-0.065978
H106	H	1.105743	-0.682738	0.108821
H107	H	1.260855	-0.624205	-0.000061
O108	O	1.133522	-0.456083	-0.000284
C109	C	1.125808	-0.490044	-0.117868
H110	H	1.224344	-0.504454	-0.157039
H111	H	1.076536	-0.529134	-0.091453
H112	H	1.070306	-0.464007	-0.200192
O113	O	1.254258	-0.189003	-0.000062
C114	C	1.154882	-0.144450	-0.000019
H115	H	1.189351	-0.103954	-0.042965
H116	H	1.074880	-0.157173	-0.065937
H117	H	1.120055	-0.136198	0.108875
H118	H	1.275199	-0.077635	0.000024
