data_functionalizedCrystal
_audit_creation_method	'MofGen! by Chris Wilmer'
_symmetry_space_group_name_H-M	'P1'
_symmetry_Int_Tables_number	1
_symmetry_cell_setting	triclinic
loop_
_symmetry_equiv_pos_as_xyz
  x,y,z
_cell_length_a	6.817900
_cell_length_b	16.418049
_cell_length_c	19.453114
_cell_angle_alpha	95.881320
_cell_angle_beta	101.709288
_cell_angle_gamma	103.389670
loop_
_atom_site_label
_atom_site_type_symbol
_atom_site_fract_x
_atom_site_fract_y
_atom_site_fract_z
V1	V	-4.006364	-0.116759	-0.219248
O2	O	-3.994760	0.004713	-0.214820
O3	O	-3.957546	-0.230651	-0.217993
O4	O	-3.949285	-0.115357	-0.314758
O5	O	-4.003078	-0.111378	-0.117385
V6	V	-4.491171	-0.102183	-0.207035
O7	O	-4.264806	-0.148733	-0.246039
O8	O	-4.682926	-0.070209	-0.180244
O9	O	-4.316783	0.011708	-0.208290
O10	O	-4.620172	-0.223655	-0.211463
O11	O	-4.611854	-0.107564	-0.308898
O12	O	-4.325044	-0.103585	-0.111525
C13	C	-3.802725	-0.258403	-0.214598
C14	C	-3.844039	-0.351513	-0.214209
C15	C	-4.120832	-0.570013	-0.216840
C16	C	-4.159639	-0.657501	-0.216480
C17	C	-3.796061	-0.648929	-0.209448
C18	C	-3.757260	-0.561443	-0.209812
C19	C	-3.919651	-0.521987	-0.213505
C20	C	-3.997258	-0.696960	-0.212781
C21	C	-4.039333	-0.791818	-0.212391
C22	C	-3.877575	-0.427123	-0.213896
C23	C	-3.792187	-0.111333	-0.338030
C24	C	-3.826798	-0.110940	-0.416112
C25	C	-4.024826	-0.114960	-0.456377
C26	C	-4.057348	-0.114591	-0.529743
C27	C	-3.891839	-0.110219	-0.562843
C28	C	-3.693782	-0.106194	-0.522567
C29	C	-3.661261	-0.106554	-0.449201
N30	N	-3.831933	-0.154452	-0.681726
N31	N	-3.862840	-0.154112	-0.751421
C32	C	-3.989809	-0.109130	-0.783889
N33	N	-4.084741	-0.064513	-0.744031
N34	N	-4.053840	-0.064857	-0.674330
C35	C	-3.927082	-0.109827	-0.642395
C36	C	-4.223112	-0.112748	-0.903706
C37	C	-4.255625	-0.112374	-0.977073
C38	C	-3.892057	-0.103985	-0.969896
C39	C	-3.859546	-0.104352	-0.896530
C40	C	-4.025084	-0.108737	-0.863440
C41	C	-4.134946	0.039456	-0.211683
C42	C	-4.072870	0.132565	-0.212077
C43	C	-4.145485	-0.107612	-0.088249
C44	C	-4.090112	-0.108001	-0.010167
H45	H	-3.593427	-0.522340	-0.207099
C46	C	-4.136428	-0.119252	-0.347105
C47	C	-4.206780	-0.119779	-0.420005
H48	H	-4.248765	-0.122233	-0.324652
H49	H	-4.031510	-0.068491	-0.327092
H50	H	-4.081329	-0.166683	-0.340134
H51	H	-4.261865	-0.072344	-0.426976
H52	H	-4.311734	-0.170545	-0.440024
C53	C	-4.434220	-0.190401	-0.834977
C54	C	-4.405055	-0.117559	-0.867326
H55	H	-4.546552	-0.193370	-0.812522
H56	H	-4.311637	-0.188059	-0.800497
H57	H	-4.464285	-0.239174	-0.869976
H58	H	-4.374974	-0.068785	-0.832325
H59	H	-4.527666	-0.119893	-0.901809
H60	H	-3.499998	-0.103275	-0.416416
H61	H	-4.218613	-0.117868	-0.562535
C62	C	-3.465730	-0.657033	-0.142653
C63	C	-3.617562	-0.692299	-0.205379
H64	H	-3.355525	-0.683804	-0.140143
H65	H	-3.524823	-0.665320	-0.102881
H66	H	-3.413848	-0.598057	-0.142404
H67	H	-3.669455	-0.751274	-0.205626
H68	H	-3.558461	-0.684019	-0.245162
C69	C	-3.582215	-0.101930	-0.631848
C70	C	-3.511851	-0.101392	-0.558948
H71	H	-3.469892	-0.098967	-0.654306
H72	H	-3.637291	-0.054501	-0.638824
H73	H	-3.687163	-0.152695	-0.651855
H74	H	-3.406914	-0.050623	-0.538939
H75	H	-3.456744	-0.148824	-0.551966
H76	H	-4.416883	-0.115641	-1.009856
H77	H	-3.698297	-0.101087	-0.863746
C78	C	-4.255745	-0.465085	-0.160642
C79	C	-4.299330	-0.526642	-0.220904
H80	H	-4.365955	-0.438316	-0.163152
H81	H	-4.130393	-0.423965	-0.158713
H82	H	-4.241365	-0.491232	-0.119192
H83	H	-4.313695	-0.500493	-0.262353
H84	H	-4.424717	-0.567768	-0.222840
C85	C	-3.780476	-0.099708	-1.079170
C86	C	-3.710118	-0.099178	-1.006271
H87	H	-3.668150	-0.096742	-1.101627
H88	H	-3.835552	-0.052279	-1.086143
H89	H	-3.885422	-0.150472	-1.099181
H90	H	-3.605182	-0.048410	-0.986258
H91	H	-3.655011	-0.146611	-0.999293
H92	H	-4.323459	-0.696600	-0.219197
