data_functionalizedCrystal
_audit_creation_method	'MofGen! by Chris Wilmer'
_symmetry_space_group_name_H-M	'P1'
_symmetry_Int_Tables_number	1
_symmetry_cell_setting	triclinic
loop_
_symmetry_equiv_pos_as_xyz
  x,y,z
_cell_length_a	14.971482
_cell_length_b	23.532357
_cell_length_c	13.448316
_cell_angle_alpha	89.987857
_cell_angle_beta	89.993798
_cell_angle_gamma	83.220450
loop_
_atom_site_label
_atom_site_type_symbol
_atom_site_fract_x
_atom_site_fract_y
_atom_site_fract_z
O1	O	1.186145	0.074208	-0.082691
O2	O	0.925648	0.083098	-0.082698
O3	O	1.063775	-0.004247	-0.082674
O4	O	1.048017	0.161553	-0.082715
O5	O	1.063757	-0.004252	0.082710
O6	O	0.925630	0.083093	0.082686
O7	O	1.186127	0.074203	0.082692
Cu8	Cu	1.055877	0.078647	0.097790
Cu9	Cu	1.055898	0.078654	-0.097795
O10	O	1.048000	0.161548	0.082669
C11	C	0.892318	0.082698	-0.000006
C12	C	0.793034	0.081508	-0.000008
C13	C	0.746386	0.080944	0.090144
C14	C	0.653100	0.079817	0.090145
C15	C	0.606462	0.079257	-0.000006
C16	C	0.653117	0.079819	-0.090165
C17	C	0.746403	0.080942	-0.090165
C18	C	0.458681	0.077479	-0.090158
C19	C	0.365389	0.076356	-0.090158
C20	C	0.365378	0.076353	0.090153
C21	C	0.458663	0.077477	0.090152
C22	C	0.505312	0.078040	-0.000007
C23	C	1.063372	-0.025468	0.000021
C24	C	1.062187	-0.088692	0.000030
C25	C	1.054757	-0.480732	-0.090174
C26	C	1.053631	-0.540136	-0.090180
O27	O	1.053026	-0.570852	-0.166850
N28	N	1.053063	-0.569852	-0.000031
C29	C	1.053612	-0.540161	0.090131
O30	O	1.053025	-0.570892	0.166809
C31	C	1.054732	-0.480757	0.090135
C32	C	1.055309	-0.451044	-0.000020
C33	C	1.055333	-0.451019	-0.180322
C34	C	1.056461	-0.391619	-0.180316
C35	C	1.057013	-0.361932	-0.090162
C36	C	1.056437	-0.391644	-0.000014
C37	C	1.055275	-0.451066	0.180295
C38	C	1.056394	-0.391658	0.180292
C39	C	1.056971	-0.361946	0.090137
C40	C	1.058117	-0.302557	0.090146
N41	N	1.058685	-0.272841	-0.000003
C42	C	1.058133	-0.302528	-0.090157
C43	C	1.051258	-0.664913	0.090114
C44	C	1.050145	-0.724316	0.090110
C45	C	1.050162	-0.724286	-0.090201
C46	C	1.051282	-0.664883	-0.090196
C47	C	1.051826	-0.635196	-0.000036
C48	C	1.060503	-0.177784	-0.090138
C49	C	1.061635	-0.118379	-0.090124
C50	C	1.061613	-0.118413	0.090186
C51	C	1.060486	-0.177813	0.090173
C52	C	1.059928	-0.207497	0.000003
O53	O	1.058719	-0.271803	0.166777
O54	O	1.058709	-0.271789	-0.166823
C55	C	1.219456	0.074603	-0.000001
C56	C	1.318741	0.075793	-0.000006
C57	C	1.048403	0.182769	-0.000029
C58	C	1.049588	0.245992	-0.000044
N59	N	1.055870	0.078642	0.235354
N60	N	1.055913	0.078654	-0.235360
C61	C	1.117051	0.039982	0.287405
C62	C	1.117056	0.039981	0.391508
C63	C	1.055884	0.078645	0.443559
C64	C	0.994696	0.117307	0.391501
C65	C	0.994687	0.117304	0.287399
C66	C	0.994721	0.117311	0.608481
C67	C	0.994731	0.117314	0.712589
C68	C	1.117090	0.039988	0.712590
C69	C	1.117081	0.039985	0.608489
C70	C	1.055894	0.078648	0.556438
H71	H	0.784351	0.081405	0.163556
O72	O	1.056970	-0.362844	-0.267983
C73	C	1.056909	-0.369110	-0.446825
C74	C	1.056317	-0.401762	-0.347609
H75	H	1.056401	-0.400563	-0.511228
H76	H	0.994814	-0.336141	-0.451403
H77	H	1.120024	-0.346454	-0.451288
H78	H	0.993244	-0.424452	-0.343079
H79	H	1.118454	-0.434698	-0.343072
H80	H	0.944917	0.148797	0.754964
H81	H	1.166896	0.008506	0.566109
O82	O	1.176585	0.002412	0.441916
C83	C	1.297934	-0.074294	0.430931
C84	C	1.230574	-0.031769	0.373722
H85	H	1.341589	-0.101948	0.375820
H86	H	1.342446	-0.049678	0.479615
H87	H	1.259584	-0.102765	0.479722
H88	H	1.268851	-0.003287	0.324876
H89	H	1.186063	-0.056420	0.325100
H90	H	1.049689	-0.748504	0.163524
H91	H	1.166911	0.008507	0.754976
H92	H	0.944893	0.148793	0.566104
O93	O	0.607896	0.079355	-0.177801
C94	C	0.568730	0.128340	-0.331891
C95	C	0.619999	0.128927	-0.232689
H96	H	0.578482	0.168421	-0.376287
H97	H	0.595636	0.088765	-0.376413
H98	H	0.494053	0.127416	-0.316379
H99	H	0.694683	0.129872	-0.248111
H100	H	0.593019	0.168498	-0.188198
O101	O	1.051698	-0.635954	-0.177714
C102	C	0.975396	-0.562516	-0.282395
C103	C	0.974840	-0.595217	-0.183227
H104	H	0.913254	-0.529582	-0.286893
H105	H	1.038474	-0.539826	-0.286947
H106	H	0.974847	-0.593965	-0.346799
H107	H	0.975357	-0.563807	-0.118767
H108	H	0.911768	-0.617916	-0.178761
H109	H	0.615125	0.079349	0.163556
O110	O	0.791779	0.081392	-0.177714
C111	C	0.907735	0.033379	-0.282323
C112	C	0.856406	0.032796	-0.183145
H113	H	0.960010	-0.005900	-0.286737
H114	H	0.858426	0.032751	-0.346795
H115	H	0.942812	0.073748	-0.286828
H116	H	0.821327	-0.007566	-0.178542
H117	H	0.905756	0.033454	-0.118720
H118	H	1.062107	-0.094189	-0.163542
O119	O	1.059987	-0.206527	-0.177817
C120	C	1.060038	-0.200206	-0.356657
C121	C	1.060649	-0.167586	-0.257436
H122	H	1.060553	-0.168735	-0.421055
H123	H	1.122123	-0.233182	-0.361258
H124	H	0.996913	-0.222851	-0.361109
H125	H	1.123732	-0.144906	-0.252917
H126	H	0.998522	-0.134643	-0.252877
O127	O	1.054641	-0.479864	-0.267880
C128	C	0.975931	-0.540534	-0.372542
C129	C	0.976582	-0.507887	-0.273351
H130	H	0.912836	-0.563208	-0.376989
H131	H	0.976477	-0.509104	-0.437002
H132	H	1.038044	-0.573491	-0.377040
H133	H	0.914480	-0.474930	-0.268757
H134	H	0.976082	-0.539351	-0.208939
H135	H	1.049709	-0.748468	-0.163609
O136	O	1.051835	-0.636169	0.177791
C137	C	1.051644	-0.642475	0.356632
C138	C	1.051015	-0.675095	0.257412
H139	H	1.050962	-0.673931	0.421032
H140	H	1.114787	-0.619854	0.361220
H141	H	0.989578	-0.609478	0.361093
H142	H	1.113037	-0.708120	0.252885
H143	H	0.987831	-0.697677	0.252866
H144	H	1.054807	-0.475248	0.253710
H145	H	0.327393	0.075895	0.163564
H146	H	1.056825	-0.367489	0.253713
H147	H	0.496632	0.077936	0.163562
H148	H	1.060024	-0.202007	0.163585
O149	O	0.935183	0.154884	0.441905
C150	C	0.813849	0.231600	0.430909
C151	C	0.881186	0.189065	0.373706
H152	H	0.770188	0.259254	0.375795
H153	H	0.769340	0.206992	0.479640
H154	H	0.852218	0.260069	0.479652
H155	H	0.842890	0.160585	0.324909
H156	H	0.925693	0.213708	0.325037
O157	O	0.320226	0.075791	-0.177819
C158	C	0.330067	0.075953	-0.356663
C159	C	0.381328	0.076576	-0.257460
H160	H	0.379442	0.076599	-0.421078
H161	H	0.294967	0.035596	-0.361227
H162	H	0.277822	0.115246	-0.361119
H163	H	0.433615	0.037310	-0.252937
H164	H	0.416366	0.116959	-0.252937
O165	O	0.504055	0.077927	-0.177714
C166	C	0.620012	0.029922	-0.282331
C167	C	0.568685	0.029333	-0.183153
H168	H	0.672289	-0.009356	-0.286751
H169	H	0.570701	0.029295	-0.346803
H170	H	0.655085	0.070292	-0.286832
H171	H	0.533609	-0.011031	-0.178555
H172	H	0.618036	0.029990	-0.118728
H173	H	1.062067	-0.094231	0.163588
H174	H	0.944866	0.148785	0.245021
H175	H	1.166868	0.008500	0.245033
