data_functionalizedCrystal
_audit_creation_method	'MofGen! by Chris Wilmer'
_symmetry_space_group_name_H-M	'P1'
_symmetry_Int_Tables_number	1
_symmetry_cell_setting	triclinic
loop_
_symmetry_equiv_pos_as_xyz
  x,y,z
_cell_length_a	29.839134
_cell_length_b	25.639239
_cell_length_c	25.639234
_cell_angle_alpha	90.021106
_cell_angle_beta	89.979276
_cell_angle_gamma	89.966453
loop_
_atom_site_label
_atom_site_type_symbol
_atom_site_fract_x
_atom_site_fract_y
_atom_site_fract_z
Zn1	Zn	0.686723	0.208274	-0.295756
Zn2	Zn	0.686660	0.295696	-0.208320
Zn3	Zn	0.611607	0.208269	-0.208318
Zn4	Zn	0.611557	0.295672	-0.295708
O5	O	0.649137	0.251978	-0.252026
O6	O	0.749581	0.219883	-0.284178
O7	O	0.676699	0.284107	-0.135155
O8	O	0.621619	0.135104	-0.219936
O9	O	0.749535	0.284112	-0.219939
O10	O	0.676806	0.135108	-0.284176
O11	O	0.621558	0.219874	-0.135153
O12	O	0.548733	0.219851	-0.219890
O13	O	0.621533	0.284071	-0.368880
O14	O	0.548696	0.284066	-0.284095
O15	O	0.676757	0.219860	-0.368915
O16	O	0.676650	0.368858	-0.219893
O17	O	0.621472	0.368841	-0.284097
C18	C	0.532414	0.251956	-0.251988
C19	C	0.482480	0.251959	-0.251984
C20	C	0.649061	0.387820	-0.252002
C21	C	0.649070	0.445934	-0.252009
C22	C	0.649146	0.251963	-0.388399
C23	C	0.649150	0.251957	-0.446513
C24	C	0.172826	0.285464	-0.285416
C25	C	-0.014847	0.285479	-0.285439
O26	O	-0.039120	0.313941	-0.313842
N27	N	-0.038306	0.251997	-0.252065
C28	C	-0.014843	0.218507	-0.218685
O29	O	-0.039103	0.190025	-0.190302
C30	C	0.172829	0.218490	-0.218664
C31	C	0.196285	0.251977	-0.252037
C32	C	0.196283	0.318948	-0.318787
C33	C	0.243198	0.318946	-0.318779
C34	C	0.266657	0.285460	-0.285400
C35	C	0.243201	0.251975	-0.252029
C36	C	0.196290	0.184997	-0.185287
C37	C	0.243211	0.184995	-0.185286
C38	C	0.266668	0.218483	-0.218659
C39	C	0.313575	0.218487	-0.218642
N40	N	0.337034	0.251969	-0.252017
C41	C	0.313575	0.285455	-0.285396
C42	C	-0.113374	0.218519	-0.218697
C43	C	-0.160292	0.218524	-0.218701
C44	C	-0.160292	0.285495	-0.285457
C45	C	-0.113373	0.285492	-0.285449
C46	C	-0.089915	0.252001	-0.252071
C47	C	0.412101	0.285449	-0.285376
C48	C	0.459021	0.285445	-0.285363
C49	C	0.459017	0.218472	-0.218609
C50	C	0.412101	0.218477	-0.218620
C51	C	0.388644	0.251967	-0.252007
O52	O	0.337877	0.190035	-0.190258
O53	O	0.337843	0.313924	-0.313782
C54	C	0.125911	0.285466	-0.285424
C55	C	0.102454	0.251981	-0.252054
C56	C	0.125913	0.218495	-0.218675
C57	C	0.055537	0.251986	-0.252058
C58	C	0.032078	0.285473	-0.285437
C59	C	0.055537	0.318955	-0.318811
C60	C	0.102452	0.318953	-0.318803
C61	C	0.102455	0.185013	-0.185300
C62	C	0.055539	0.185018	-0.185311
C63	C	0.032080	0.218505	-0.218690
C64	C	0.766315	0.252000	-0.252064
C65	C	0.816249	0.252010	-0.252080
C66	C	0.649225	0.115605	-0.252061
C67	C	0.649262	0.057491	-0.252076
C68	C	0.677943	0.806294	-0.218652
C69	C	0.677960	0.860898	-0.218659
O70	O	0.702431	0.889132	-0.190271
N71	N	0.649216	0.888217	-0.252060
C72	C	0.620455	0.860928	-0.285461
O73	O	0.596007	0.889179	-0.313872
C74	C	0.620440	0.806325	-0.285456
C75	C	0.649183	0.779009	-0.252048
C76	C	0.706684	0.778978	-0.185247
C77	C	0.706666	0.724378	-0.185240
C78	C	0.677906	0.697093	-0.218636
C79	C	0.649165	0.724409	-0.252041
C80	C	0.591682	0.779037	-0.318859
C81	C	0.591670	0.724430	-0.318852
C82	C	0.620413	0.697115	-0.285444
C83	C	0.620388	0.642523	-0.285430
N84	N	0.649132	0.615205	-0.252029
C85	C	0.677892	0.642490	-0.218632
C86	C	0.620489	0.975599	-0.285469
C87	C	0.620501	1.030201	-0.285471
C88	C	0.678007	1.030168	-0.218670
C89	C	0.677992	0.975564	-0.218665
C90	C	0.649233	0.948280	-0.252067
C91	C	0.677851	0.527825	-0.218618
C92	C	0.677829	0.473219	-0.218612
C93	C	0.620325	0.473258	-0.285415
C94	C	0.620345	0.527858	-0.285420
C95	C	0.649112	0.555140	-0.252019
O96	O	0.595931	0.614255	-0.313805
O97	O	0.702339	0.614233	-0.190230
C98	C	0.620425	0.285326	-0.697682
C99	C	0.620417	0.285338	-0.643078
O100	O	0.595951	0.313761	-0.614821
N101	N	0.649167	0.251915	-0.615787
C102	C	0.677924	0.218474	-0.643102
O103	O	0.702377	0.190046	-0.614875
C104	C	0.677929	0.218460	-0.697706
C105	C	0.649180	0.251889	-0.724994
C106	C	0.591678	0.318752	-0.724971
C107	C	0.591687	0.318740	-0.779572
C108	C	0.620442	0.285303	-0.806884
C109	C	0.649189	0.251878	-0.779595
C110	C	0.706683	0.185017	-0.725020
C111	C	0.706686	0.185005	-0.779627
C112	C	0.677937	0.218434	-0.806916
C113	C	0.677953	0.218429	-0.861507
N114	N	0.649203	0.251852	-0.888799
C115	C	0.620447	0.285289	-0.861487
C116	C	0.677910	0.218505	-0.528432
C117	C	0.677908	0.218521	-0.473829
C118	C	0.620400	0.285385	-0.473809
C119	C	0.620405	0.285371	-0.528412
C120	C	0.649160	0.251928	-0.555723
C121	C	0.620468	0.285264	-0.976152
C122	C	0.620480	0.285251	-1.030757
C123	C	0.677986	0.218386	-1.030773
C124	C	0.677976	0.218400	-0.976173
C125	C	0.649213	0.251841	-0.948863
O126	O	0.702406	0.190018	-0.889799
O127	O	0.595994	0.313708	-0.889721
C128	C	0.649153	0.251955	-0.116183
C129	C	0.649236	0.251814	-0.058069
H130	H	0.478117	0.312717	-0.312540
O131	O	-0.183091	0.186077	-0.186214
C132	C	-0.210259	0.215801	-0.152400
H133	H	-0.196142	0.256977	-0.149107
H134	H	-0.245815	0.217621	-0.168554
C135	C	-0.228312	0.139619	-0.102131
C136	C	-0.210971	0.190190	-0.098084
H137	H	-0.228753	0.123820	-0.068627
H138	H	-0.210010	0.119592	-0.124913
H139	H	-0.257941	0.141142	-0.115595
H140	H	-0.181341	0.188666	-0.084626
H141	H	-0.229268	0.210215	-0.075298
O142	O	0.265979	0.152519	-0.152784
C143	C	0.254476	0.163863	-0.100657
H144	H	0.241557	0.205628	-0.097944
H145	H	0.227248	0.135813	-0.087046
C146	C	0.312007	0.106429	-0.069096
C147	C	0.296144	0.157728	-0.065764
H148	H	0.337709	0.102642	-0.047571
H149	H	0.319756	0.098784	-0.104215
H150	H	0.289314	0.083060	-0.057755
H151	H	0.318835	0.181095	-0.077111
H152	H	0.288400	0.165376	-0.030646
H153	H	0.701398	0.953327	-0.191462
O154	O	0.592596	0.317710	-1.057346
C155	C	0.598760	0.310526	-1.111398
H156	H	0.633441	0.293406	-1.118868
H157	H	0.572131	0.282679	-1.126894
C158	C	0.552020	0.384452	-1.130243
C159	C	0.594618	0.363428	-1.139418
H160	H	0.549464	0.417084	-1.147528
H161	H	0.547866	0.389291	-1.093827
H162	H	0.529834	0.361241	-1.143156
H163	H	0.616803	0.386636	-1.126498
H164	H	0.598776	0.358594	-1.175832
O165	O	0.563748	0.805482	-0.351363
C166	C	0.538359	0.769680	-0.380827
H167	H	0.556752	0.730738	-0.382647
H168	H	0.504248	0.763918	-0.361640
C169	C	0.509269	0.838789	-0.434237
C170	C	0.531861	0.790961	-0.436476
H171	H	0.505258	0.851917	-0.468563
H172	H	0.526372	0.862910	-0.414385
H173	H	0.480845	0.833981	-0.418246
H174	H	0.560286	0.795772	-0.452461
H175	H	0.514762	0.766842	-0.456331
O176	O	0.734697	0.805403	-0.152828
C177	C	0.779453	0.791990	-0.164335
H178	H	0.780335	0.752343	-0.184452
H179	H	0.794589	0.822695	-0.191226
C180	C	0.805620	0.838110	-0.088698
C181	C	0.806704	0.789413	-0.113402
H182	H	0.822431	0.836523	-0.057281
H183	H	0.775468	0.847149	-0.080946
H184	H	0.818233	0.863692	-0.111112
H185	H	0.794087	0.763833	-0.090990
H186	H	0.836855	0.780370	-0.121149
O187	O	0.389382	0.185903	-0.186182
C188	C	0.420151	0.156359	-0.156708
H189	H	0.453607	0.154581	-0.178119
H190	H	0.425112	0.175448	-0.116963
C191	C	0.360776	0.102884	-0.122979
C192	C	0.401866	0.100697	-0.149279
H193	H	0.349497	0.068550	-0.118394
H194	H	0.340046	0.122789	-0.142834
H195	H	0.364916	0.118794	-0.089861
H196	H	0.397725	0.084793	-0.182398
H197	H	0.422595	0.080787	-0.129429
H198	H	0.393008	0.312718	-0.312564
H199	H	0.036445	0.157749	-0.158130
H200	H	0.478125	0.191210	-0.191432
H201	H	0.730100	0.157769	-0.801861
O202	O	-0.090659	0.185968	-0.186220
C203	C	-0.121431	0.156412	-0.156777
H204	H	-0.154883	0.177834	-0.154936
H205	H	-0.126399	0.116732	-0.175995
C206	C	-0.062058	0.122484	-0.103400
C207	C	-0.103144	0.148796	-0.101136
H208	H	-0.050777	0.117783	-0.069079
H209	H	-0.041326	0.142394	-0.123237
H210	H	-0.066204	0.089419	-0.119417
H211	H	-0.098997	0.181862	-0.085125
H212	H	-0.123875	0.128891	-0.081294
O213	O	0.592401	0.317837	-0.447330
C214	C	0.547634	0.306387	-0.460650
H215	H	0.546719	0.286284	-0.500301
H216	H	0.532520	0.279505	-0.429921
C217	C	0.521507	0.382041	-0.414450
C218	C	0.520384	0.357354	-0.463152
H219	H	0.504697	0.413478	-0.415991
H220	H	0.551667	0.389754	-0.405474
H221	H	0.508913	0.359634	-0.388847
H222	H	0.532982	0.379758	-0.488752
H223	H	0.490225	0.349645	-0.472132
O224	O	-0.090540	0.317946	-0.317897
C225	C	-0.063386	0.288225	-0.351729
H226	H	-0.056344	0.248576	-0.333361
H227	H	-0.081455	0.282537	-0.390485
C228	C	-0.027479	0.365701	-0.383707
C229	C	-0.018827	0.317005	-0.361145
H230	H	0.000006	0.383455	-0.389518
H231	H	-0.045774	0.385726	-0.360915
H232	H	-0.042537	0.360954	-0.416001
H233	H	-0.003774	0.321753	-0.328849
H234	H	-0.000528	0.296982	-0.383932
H235	H	0.262292	0.346215	-0.345956
H236	H	0.597091	1.052437	-0.312670
O237	O	0.705734	0.554384	-0.186154
C238	C	0.680195	0.586009	-0.152345
H239	H	0.646138	0.594220	-0.170737
H240	H	0.675280	0.564992	-0.113587
C241	C	0.746770	0.627766	-0.120334
C242	C	0.704942	0.637855	-0.142926
H243	H	0.762035	0.659746	-0.114521
H244	H	0.763977	0.606458	-0.143110
H245	H	0.742668	0.610251	-0.088039
H246	H	0.709044	0.655363	-0.175223
H247	H	0.687736	0.659167	-0.120154
O248	O	0.592504	0.949178	-0.317930
C249	C	0.567147	0.985004	-0.347418
H250	H	0.565621	1.023937	-0.326000
H251	H	0.583575	0.990777	-0.387148
C252	C	0.521196	0.915930	-0.381197
C253	C	0.519317	0.963747	-0.354889
H254	H	0.491692	0.902817	-0.385808
H255	H	0.538280	0.891793	-0.361332
H256	H	0.534887	0.920748	-0.414303
H257	H	0.505631	0.958927	-0.321781
H258	H	0.502230	0.987883	-0.374748
H259	H	0.701426	1.052393	-0.191478
O260	O	0.563797	0.697903	-0.351354
C261	C	0.589343	0.666263	-0.385143
H262	H	0.624730	0.682676	-0.388416
H263	H	0.590886	0.624886	-0.368974
C264	C	0.523901	0.645265	-0.435448
C265	C	0.567362	0.665426	-0.439472
H266	H	0.510342	0.644746	-0.468961
H267	H	0.506689	0.666579	-0.412683
H268	H	0.525192	0.610786	-0.421972
H269	H	0.566070	0.699907	-0.452941
H270	H	0.584574	0.644117	-0.462241
O271	O	0.592520	0.317803	-0.949710
C272	C	0.567147	0.347294	-0.985513
H273	H	0.585554	0.349085	-1.024440
H274	H	0.533037	0.328148	-0.991313
C275	C	0.538037	0.400749	-0.916395
C276	C	0.560646	0.402953	-0.964204
H277	H	0.534024	0.435082	-0.903250
H278	H	0.555129	0.380880	-0.892273
H279	H	0.509613	0.384792	-0.921234
H280	H	0.589071	0.418904	-0.959363
H281	H	0.543558	0.422826	-0.988325
O282	O	0.125169	0.152467	-0.152824
C283	C	0.094398	0.122909	-0.123383
H284	H	0.060944	0.144328	-0.121545
H285	H	0.089434	0.083228	-0.142600
C286	C	0.153770	0.088987	-0.070001
C287	C	0.112683	0.115296	-0.067740
H288	H	0.165050	0.084288	-0.035678
H289	H	0.174502	0.108899	-0.089837
H290	H	0.149628	0.055922	-0.086018
H291	H	0.116826	0.148363	-0.051729
H292	H	0.091952	0.095389	-0.047900
H293	H	0.568275	0.345960	-0.801785
H294	H	0.701400	0.191164	-1.053020
O295	O	0.705795	0.446766	-0.186142
C296	C	0.731174	0.482562	-0.156660
H297	H	0.732728	0.521472	-0.178085
H298	H	0.714750	0.488409	-0.116931
C299	C	0.777079	0.413415	-0.122867
C300	C	0.778990	0.461203	-0.149184
H301	H	0.806574	0.400240	-0.118252
H302	H	0.759980	0.389298	-0.142728
H303	H	0.763390	0.418294	-0.089762
H304	H	0.792674	0.456323	-0.182290
H305	H	0.796093	0.485319	-0.129328
H306	H	0.177200	0.157730	-0.158110
H307	H	0.121546	0.346221	-0.345979
H308	H	0.730094	0.157796	-0.702811
H309	H	0.596941	0.550100	-0.312625
O310	O	0.173569	0.351531	-0.351229
C311	C	0.204342	0.381069	-0.380687
H312	H	0.237776	0.382835	-0.359260
H313	H	0.209356	0.361982	-0.420431
C314	C	0.144956	0.434564	-0.414438
C315	C	0.186019	0.436737	-0.388119
H316	H	0.133654	0.468901	-0.419024
H317	H	0.124223	0.414662	-0.394593
H318	H	0.149140	0.418655	-0.447555
H319	H	0.181834	0.452638	-0.355000
H320	H	0.206751	0.456642	-0.407958
O321	O	0.563730	0.351286	-0.698526
C322	C	0.538354	0.380770	-0.734332
H323	H	0.556762	0.382565	-0.773258
H324	H	0.504246	0.361618	-0.740132
C325	C	0.509234	0.434222	-0.665215
C326	C	0.531845	0.436429	-0.713024
H327	H	0.505216	0.468554	-0.652071
H328	H	0.526328	0.414357	-0.641092
H329	H	0.480813	0.418260	-0.670056
H330	H	0.560267	0.452386	-0.708182
H331	H	0.514754	0.456299	-0.737146
O332	O	0.705870	0.186094	-0.555018
C333	C	0.734879	0.215857	-0.586598
H334	H	0.719010	0.255474	-0.594774
H335	H	0.768165	0.221616	-0.565560
C336	C	0.762533	0.138417	-0.628426
C337	C	0.743040	0.187073	-0.638471
H338	H	0.767569	0.120661	-0.660423
H339	H	0.742990	0.118364	-0.607149
H340	H	0.790268	0.143223	-0.610893
H341	H	0.715303	0.182266	-0.655998
H342	H	0.762578	0.207124	-0.659752
O343	O	0.705852	0.186003	-0.447405
C344	C	0.731241	0.156502	-0.483227
H345	H	0.712844	0.154683	-0.522145
H346	H	0.765348	0.175655	-0.489040
C347	C	0.760347	0.103093	-0.414133
C348	C	0.737749	0.100856	-0.461932
H349	H	0.764364	0.068769	-0.400997
H350	H	0.743244	0.122970	-0.389999
H351	H	0.788767	0.119057	-0.418984
H352	H	0.709327	0.084899	-0.457079
H353	H	0.754848	0.080975	-0.486065
H354	H	0.701388	0.191183	-0.953953
H355	H	-0.179400	0.312761	-0.312635
H356	H	0.036428	0.346222	-0.345988
H357	H	0.730072	0.702141	-0.158038
H358	H	0.596908	0.451034	-0.312605
H359	H	0.596995	0.312591	-0.550627
