data_functionalizedCrystal
_audit_creation_method	'MofGen! by Chris Wilmer'
_symmetry_space_group_name_H-M	'P1'
_symmetry_Int_Tables_number	1
_symmetry_cell_setting	triclinic
loop_
_symmetry_equiv_pos_as_xyz
  x,y,z
_cell_length_a	19.121063
_cell_length_b	15.298073
_cell_length_c	19.121278
_cell_angle_alpha	96.881791
_cell_angle_beta	89.864274
_cell_angle_gamma	77.498461
loop_
_atom_site_label
_atom_site_type_symbol
_atom_site_fract_x
_atom_site_fract_y
_atom_site_fract_z
Zn1	Zn	-0.074078	-1.343379	-0.581643
Zn2	Zn	-0.196414	-1.342717	-0.469315
Zn3	Zn	-0.099381	-1.198564	-0.445733
Zn4	Zn	-0.213369	-1.185658	-0.566244
O5	O	-0.145810	-1.267580	-0.515734
O6	O	-0.072621	-1.469627	-0.583056
O7	O	-0.187036	-1.328719	-0.368743
O8	O	0.002878	-1.223453	-0.460338
O9	O	-0.162501	-1.469140	-0.500529
O10	O	0.021468	-1.329848	-0.560190
O11	O	-0.115746	-1.222811	-0.351417
O12	O	-0.132186	-1.070517	-0.445406
O13	O	-0.191398	-1.201457	-0.665731
O14	O	-0.215933	-1.061035	-0.533945
O15	O	-0.089062	-1.317333	-0.677045
O16	O	-0.297566	-1.316204	-0.485597
O17	O	-0.310022	-1.200814	-0.556811
C18	C	-0.178646	-1.033019	-0.485446
C19	C	-0.192709	-0.932671	-0.472506
C20	C	-0.045442	-0.650792	-0.608192
C21	C	-0.032231	-0.745074	-0.620354
C22	C	-0.072349	-0.791978	-0.583393
C23	C	-0.125681	-0.744591	-0.534268
C24	C	-0.138898	-0.650300	-0.522109
C25	C	-0.165805	-0.791485	-0.497309
C26	C	-0.219137	-0.744098	-0.448184
C27	C	-0.232351	-0.649816	-0.436027
C28	C	-0.192233	-0.602913	-0.472988
C29	C	-0.152588	-0.885777	-0.509469
C30	C	-0.246044	-0.885284	-0.423385
C31	C	-0.259255	-0.791002	-0.411223
C32	C	-0.329434	-1.257060	-0.522110
C33	C	-0.407977	-1.252642	-0.524872
C34	C	-0.438360	-1.310686	-0.489135
C35	C	-0.512159	-1.306535	-0.491737
C36	C	-0.555574	-1.244335	-0.530072
C37	C	-0.525186	-1.186288	-0.565814
C38	C	-0.451388	-1.190444	-0.563215
C39	C	-0.778722	-1.228783	-0.539774
C40	C	-0.852526	-1.224630	-0.542368
C41	C	-0.839493	-1.344879	-0.468292
C42	C	-0.765695	-1.349025	-0.465694
C43	C	-0.735313	-1.290982	-0.501438
C44	C	-0.631009	-1.240089	-0.532731
C45	C	-0.659878	-1.295233	-0.498783
C46	C	0.038535	-1.278164	-0.509351
C47	C	0.117091	-1.282674	-0.506631
C48	C	-0.139299	-1.258029	-0.697360
C49	C	-0.136524	-1.253959	-0.774759
C50	C	-0.112842	-0.503057	-0.546134
C51	C	-0.098777	-0.603405	-0.559072
C52	C	-0.118975	-1.228179	-1.212057
C53	C	-0.121579	-1.232007	-1.139333
C54	C	-0.160002	-1.289057	-1.111991
C55	C	-0.195818	-1.342288	-1.157376
C56	C	-0.193209	-1.338464	-1.230099
C57	C	-0.169731	-1.303367	-0.892867
C58	C	-0.172339	-1.307185	-0.820138
C59	C	-0.098099	-1.196904	-0.802101
C60	C	-0.095497	-1.193081	-0.874825
C61	C	-0.131309	-1.246316	-0.920205
C62	C	-0.162666	-1.292969	-1.037655
C63	C	-0.128640	-1.242408	-0.994539
C64	C	-0.152238	-1.277148	-0.334819
C65	C	-0.154789	-1.281404	-0.257437
H66	H	-0.012788	-0.612594	-0.638285
H67	H	-0.092416	-1.188664	-1.102387
H68	H	-0.064212	-1.146621	-0.897081
H69	H	-0.202991	-0.526140	-0.463093
H70	H	-0.068941	-1.153565	-0.765145
C71	C	-0.545577	-1.370384	-0.452418
N72	N	-0.570748	-1.418476	-0.422800
H73	H	-0.203612	-1.353663	-0.797881
H74	H	-0.864238	-1.392136	-0.439193
H75	H	-0.403016	-1.361332	-0.457914
C76	C	-0.900281	-1.156208	-0.584547
N77	N	-0.936249	-1.104675	-0.616316
H78	H	-0.426651	-1.143179	-0.592317
C79	C	-0.745304	-1.164977	-0.579136
N80	N	-0.720128	-1.116931	-0.608801
C81	C	-0.572946	-1.117864	-0.607980
N82	N	-0.608919	-1.066322	-0.639738
C83	C	-0.717947	-1.417428	-0.423501
N84	N	-0.681985	-1.468940	-0.391711
C85	C	-0.209134	-1.361919	-0.942775
N86	N	-0.238815	-1.406022	-0.980368
H87	H	-0.624527	-1.345880	-0.467573
H88	H	-0.222372	-1.381808	-1.267047
C89	C	-0.076705	-1.165420	-1.242126
N90	N	-0.044863	-1.118151	-1.264773
C91	C	0.026438	-0.797193	-0.674385
N92	N	0.070634	-0.836450	-0.715081
C93	C	-0.093919	-0.937892	-0.563501
N94	N	-0.049724	-0.977144	-0.604199
C95	C	-0.086376	-1.179655	-1.024618
N96	N	-0.054545	-1.132385	-1.047280
H97	H	-0.061587	-0.868747	-0.593296
C98	C	-0.238084	-1.405044	-1.127297
N99	N	-0.269922	-1.452310	-1.104641
H100	H	-0.275783	-0.611236	-0.396031
H101	H	-0.302680	-0.752406	-0.371225
H102	H	-0.278715	-0.923472	-0.393291
H103	H	-0.666366	-1.189443	-0.563942
H104	H	-0.193952	-1.339418	-1.015385
