data_functionalizedCrystal
_audit_creation_method	'MofGen! by Chris Wilmer'
_symmetry_space_group_name_H-M	'P1'
_symmetry_Int_Tables_number	1
_symmetry_cell_setting	triclinic
loop_
_symmetry_equiv_pos_as_xyz
  x,y,z
_cell_length_a	15.995350
_cell_length_b	15.995350
_cell_length_c	15.072220
_cell_angle_alpha	90.001101
_cell_angle_beta	89.991149
_cell_angle_gamma	83.492375
loop_
_atom_site_label
_atom_site_type_symbol
_atom_site_fract_x
_atom_site_fract_y
_atom_site_fract_z
O1	O	1.110996	0.107921	-0.073703
O2	O	1.610996	0.607921	0.426297
O3	O	0.867221	0.121249	-0.073721
O4	O	1.367221	0.621249	0.426279
O5	O	0.995772	-0.007303	-0.073710
O6	O	1.495772	0.492697	0.426290
O7	O	0.982444	0.236472	-0.073713
O8	O	1.482444	0.736472	0.426287
O9	O	0.995740	-0.007296	0.073855
O10	O	1.495740	0.492704	0.573855
O11	O	0.867189	0.121256	0.073844
O12	O	1.367189	0.621256	0.573844
O13	O	1.110964	0.107928	0.073862
O14	O	1.610964	0.607928	0.573862
Zn15	Zn	0.989071	0.114593	0.097283
Zn16	Zn	1.489071	0.614593	0.597283
Zn17	Zn	0.989113	0.114584	-0.097141
Zn18	Zn	1.489113	0.614584	0.402859
O19	O	0.982413	0.236480	0.073852
O20	O	1.482413	0.736480	0.573852
C21	C	0.836010	0.120701	0.000060
C22	C	1.336010	0.620701	0.500060
C23	C	0.743060	0.119049	0.000053
C24	C	1.243060	0.619049	0.500053
C25	C	0.405312	0.113117	0.000071
C26	C	0.905312	0.613117	0.500071
C27	C	0.452746	0.021565	0.000401
C28	C	0.952746	0.521565	0.500401
C29	C	0.549436	0.023217	0.000063
C30	C	1.049436	0.523217	0.500063
C31	C	0.572873	0.116060	0.000063
C32	C	1.072873	0.616060	0.500063
C33	C	0.531804	0.161212	-0.084201
C34	C	1.031804	0.661212	0.415799
C35	C	0.435168	0.158912	-0.084266
C36	C	0.935168	0.658912	0.415734
C37	C	0.434793	0.160812	0.083543
C38	C	0.934793	0.660812	0.583543
C39	C	0.531738	0.160790	0.084651
C40	C	1.031738	0.660790	0.584651
C41	C	0.667570	0.117727	0.000055
C42	C	1.167570	0.617727	0.500055
C43	C	0.310614	0.111452	0.000073
C44	C	0.810614	0.611452	0.500073
C45	C	0.995205	-0.038494	0.000070
C46	C	1.495205	0.461506	0.500070
C47	C	0.993553	-0.131444	0.000065
C48	C	1.493553	0.368556	0.500065
C49	C	0.987621	-0.469192	0.000068
C50	C	1.487621	0.030808	0.500068
C51	C	0.896069	-0.421758	-0.000270
C52	C	1.396069	0.078242	0.499730
C53	C	0.897721	-0.325068	0.000063
C54	C	1.397721	0.174932	0.500063
C55	C	0.990564	-0.301631	0.000066
C56	C	1.490564	0.198369	0.500066
C57	C	1.035702	-0.342705	0.084335
C58	C	1.535702	0.157295	0.584335
C59	C	1.033402	-0.439341	0.084405
C60	C	1.533402	0.060659	0.584405
C61	C	1.035330	-0.439707	-0.083404
C62	C	1.535330	0.060293	0.416596
C63	C	1.035308	-0.342761	-0.084518
C64	C	1.535308	0.157239	0.415482
C65	C	0.992231	-0.206934	0.000068
C66	C	1.492231	0.293066	0.500068
C67	C	0.985956	-0.563890	0.000072
C68	C	1.485956	-0.063890	0.500072
C69	C	1.142175	0.108476	0.000080
C70	C	1.642175	0.608476	0.500080
C71	C	1.235125	0.110127	0.000081
C72	C	1.735125	0.610127	0.500081
C73	C	0.982980	0.267671	0.000069
C74	C	1.482980	0.767671	0.500069
C75	C	0.984631	0.360621	0.000069
C76	C	1.484631	0.860621	0.500069
N77	N	0.989049	0.114599	0.229971
N78	N	1.489049	0.614599	0.729971
N79	N	0.989142	0.114571	-0.229830
N80	N	1.489142	0.614571	0.270170
C81	C	0.989112	0.114580	0.589173
C82	C	1.489112	0.614580	1.089173
C83	C	0.920095	0.183135	0.551560
C84	C	1.420095	0.683135	1.051560
C85	C	0.920254	0.183385	0.448735
C86	C	1.420254	0.683385	0.948735
C87	C	0.989080	0.114590	0.410969
C88	C	1.489080	0.614590	0.910969
C89	C	1.076445	0.133671	0.448266
C90	C	1.576445	0.633671	0.948266
C91	C	1.076058	0.134159	0.551124
C92	C	1.576058	0.634159	1.051124
C93	C	0.971542	0.026741	0.551272
C94	C	1.471542	0.526741	1.051272
C95	C	0.969537	0.027327	0.448409
C96	C	1.469537	0.527327	0.948409
C97	C	0.989067	0.114593	0.310255
C98	C	1.489067	0.614593	0.810255
C99	C	0.989130	0.114579	0.689886
C100	C	1.489130	0.614579	1.189886
H101	H	0.545929	0.229421	-0.087335
H102	H	1.045929	0.729421	0.412665
H103	H	1.004325	-0.314320	0.147042
H104	H	1.504325	0.185680	0.647042
C105	C	0.410451	0.114412	-0.169356
C106	C	0.910451	0.614412	0.330644
N107	N	0.391840	0.080890	-0.233447
N108	N	0.891840	0.580890	0.266553
C109	C	1.147486	0.068013	0.415214
C110	C	1.647486	0.568013	0.915214
N111	N	1.200994	0.018558	0.390317
N112	N	1.700994	0.518558	0.890317
H113	H	0.560191	0.129845	-0.146912
H114	H	1.060191	0.629845	0.353088
C115	C	0.935041	0.270702	0.586466
C116	C	1.435041	0.770702	1.086466
N117	N	0.946301	0.336657	0.612758
N118	N	1.446301	0.836657	1.112758
H119	H	0.559041	0.127829	0.146989
H120	H	1.059041	0.627829	0.646989
H121	H	0.854945	0.171953	0.576317
H122	H	1.354945	0.671953	1.076317
H123	H	0.855314	0.172016	0.423519
H124	H	1.355314	0.672016	0.923519
C125	C	0.994907	-0.467455	-0.169691
C126	C	1.494907	0.032545	0.330309
N127	N	0.964452	-0.488353	-0.234677
N128	N	1.464452	0.011647	0.265323
H129	H	0.861974	-0.297200	0.060568
H130	H	1.361974	0.202800	0.560568
H131	H	0.547102	0.228494	0.089741
H132	H	1.047102	0.728494	0.589741
C133	C	1.097856	0.219234	0.413467
C134	C	1.597856	0.719234	0.913467
N135	N	1.113977	0.283685	0.387261
N136	N	1.613977	0.783685	0.887261
C137	C	0.846845	-0.448198	0.080926
C138	C	1.346845	0.051802	0.580926
N139	N	0.809775	-0.468106	0.142091
N140	N	1.309775	0.031894	0.642091
H141	H	0.403031	0.228312	0.084113
H142	H	0.903031	0.728312	0.584113
C143	C	0.935415	0.271446	0.415479
C144	C	1.435415	0.771446	0.915479
N145	N	0.946840	0.337775	0.390432
N146	N	1.446840	0.837775	0.890432
C147	C	0.407041	0.120375	0.169830
C148	C	0.907041	0.620375	0.669830
N149	N	0.386139	0.089909	0.234816
N150	N	0.886139	0.589909	0.734816
C151	C	1.096957	0.220707	0.583525
C152	C	1.596957	0.720707	1.083525
N153	N	1.112693	0.285901	0.607925
N154	N	1.612693	0.785901	1.107925
C155	C	1.147540	0.069290	0.584737
C156	C	1.647540	0.569290	1.084737
N157	N	1.201389	0.020443	0.610051
N158	N	1.701389	0.520443	1.110051
H159	H	0.862238	-0.296649	-0.060344
H160	H	1.362238	0.203351	0.439656
H161	H	1.103910	-0.328579	0.087471
H162	H	1.603910	0.171421	0.587471
C163	C	0.846645	-0.446806	-0.081903
C164	C	1.346645	0.053194	0.418097
N165	N	0.809416	-0.465681	-0.143390
N166	N	1.309416	0.034319	0.356610
C167	C	0.990766	-0.305906	-0.168739
C168	C	1.490766	0.194094	0.331261
N169	N	0.957209	-0.278149	-0.232174
N170	N	1.457209	0.221851	0.267826
C171	C	0.988890	-0.464062	0.169496
C172	C	1.488890	0.035938	0.669496
N173	N	0.955358	-0.482677	0.233587
N174	N	1.455358	0.017323	0.733587
H175	H	0.909219	0.008392	0.577258
H176	H	1.409219	0.508392	1.077258
H177	H	1.103014	-0.327400	-0.089603
H178	H	1.603014	0.172600	0.410397
H179	H	0.433165	-0.014865	-0.059694
H180	H	0.933165	0.485135	0.440306
H181	H	1.100617	-0.471588	0.088231
H182	H	1.600617	0.028412	0.588231
C183	C	0.391601	0.249715	-0.089451
C184	C	0.891601	0.749715	0.410549
N185	N	0.358790	0.318106	-0.093366
N186	N	0.858790	0.818106	0.406634
C187	C	1.126518	-0.482619	-0.084170
C188	C	1.626518	0.017381	0.415830
N189	N	1.195198	-0.514946	-0.084742
N190	N	1.695198	-0.014946	0.415258
C191	C	0.882713	0.007764	0.415483
C192	C	1.382713	0.507764	0.915483
N193	N	0.817315	-0.006967	0.390680
N194	N	1.317315	0.493033	0.890680
C195	C	1.033049	-0.044821	0.413702
C196	C	1.533049	0.455179	0.913702
N197	N	1.080899	-0.099161	0.387569
N198	N	1.580899	0.400839	0.887569
H199	H	1.021872	-0.024275	0.575595
H200	H	1.521872	0.475725	1.075595
H201	H	0.577852	-0.012275	0.060467
H202	H	1.077852	0.487725	0.560467
H203	H	0.577307	-0.012521	-0.060446
H204	H	1.077307	0.487479	0.439554
C205	C	0.427697	-0.027871	0.082036
C206	C	0.927697	0.472129	0.582036
N207	N	0.408823	-0.065108	0.143525
N208	N	0.908823	0.434892	0.643525
