data_functionalizedCrystal
_audit_creation_method	'MofGen! by Chris Wilmer'
_symmetry_space_group_name_H-M	'P1'
_symmetry_Int_Tables_number	1
_symmetry_cell_setting	triclinic
loop_
_symmetry_equiv_pos_as_xyz
  x,y,z
_cell_length_a	14.044190
_cell_length_b	17.699083
_cell_length_c	16.176319
_cell_angle_alpha	90.002740
_cell_angle_beta	89.998355
_cell_angle_gamma	91.762604
loop_
_atom_site_label
_atom_site_type_symbol
_atom_site_fract_x
_atom_site_fract_y
_atom_site_fract_z
O1	O	0.119833	-1.012345	0.068631
O2	O	0.135425	-0.793043	0.068661
O3	O	-0.010348	-0.899399	0.068630
O4	O	0.265606	-0.905988	0.068662
O5	O	-0.010322	-0.899390	-0.068863
O6	O	0.135452	-0.793033	-0.068832
O7	O	0.119859	-1.012336	-0.068862
Cu8	Cu	0.127658	-0.902684	-0.081402
Cu9	Cu	0.127627	-0.902695	0.081200
O10	O	0.265633	-0.905979	-0.068832
C11	C	0.134880	-0.764802	-0.000082
C12	C	0.133204	-0.680669	-0.000071
C13	C	0.218770	-0.637952	-0.000062
C14	C	0.217189	-0.558900	-0.000072
C15	C	0.130042	-0.522565	-0.000086
C16	C	0.044469	-0.565288	-0.000098
C17	C	0.046051	-0.644339	-0.000094
C18	C	0.038089	-0.246485	-0.000117
C19	C	0.036514	-0.167428	-0.000119
C20	C	0.209227	-0.161045	-0.000095
C21	C	0.210809	-0.240096	-0.000090
C22	C	0.125237	-0.282812	-0.000107
C23	C	0.126952	-0.368529	-0.000098
C24	C	0.128326	-0.436849	-0.000090
C25	C	-0.045643	-0.896512	-0.000119
C26	C	-0.150849	-0.887914	-0.000125
C27	C	-0.401240	-0.933175	-0.000099
C28	C	-0.343470	-0.872207	-0.000096
C29	C	-0.236286	-0.880949	-0.000112
C30	C	-0.508434	-0.924434	-0.000083
C31	C	0.300927	-0.908866	-0.000081
C32	C	0.406133	-0.917464	-0.000070
C33	C	0.120405	-0.040576	-0.000116
C34	C	0.122081	-0.124710	-0.000115
N35	N	0.127679	-0.902681	-0.195767
C36	C	0.070196	-0.852924	-0.761157
C37	C	0.070204	-0.852923	-0.674610
C38	C	0.127618	-0.902697	-0.631342
C39	C	0.185022	-0.952481	-0.674626
C40	C	0.185009	-0.952485	-0.761171
C41	C	0.185075	-0.952466	-0.325598
C42	C	0.185086	-0.952457	-0.239046
C43	C	0.070270	-0.852904	-0.239036
C44	C	0.070257	-0.852908	-0.325582
C45	C	0.127657	-0.902694	-0.368858
C46	C	0.127647	-0.902696	-0.462702
C47	C	0.127634	-0.902693	-0.537500
N48	N	0.127598	-0.902703	0.195565
H49	H	-0.023626	-0.679118	-0.000102
N50	N	0.011583	-0.802056	-0.630416
N51	N	-0.039656	-0.757605	-0.669058
H52	H	-0.081053	-0.721672	-0.637847
H53	H	0.023530	-0.812367	-0.203790
H54	H	0.231843	-0.992992	-0.203820
N55	N	-0.049311	-0.290119	-0.000136
N56	N	-0.067690	-0.334945	-0.058095
H57	H	-0.129421	-0.365765	-0.058109
H58	H	0.231751	-0.993021	-0.796407
N59	N	-0.044543	-0.528164	-0.000122
N60	N	-0.045945	-0.457583	-0.000125
H61	H	-0.108812	-0.431365	-0.000139
H62	H	0.231765	-0.993012	-0.639390
H63	H	0.023508	-0.812374	-0.360806
N64	N	0.304602	-0.515277	-0.000066
N65	N	0.382406	-0.547727	-0.000050
H66	H	0.444146	-0.516920	-0.000047
N67	N	0.307799	-0.675051	-0.000039
N68	N	0.384190	-0.636898	-0.000032
H69	H	0.447071	-0.663096	-0.000019
H70	H	0.281773	-0.269675	-0.000075
H71	H	0.278904	-0.126257	-0.000085
H72	H	-0.370201	-0.991931	-0.000115
H73	H	0.231814	-0.993005	-0.360823
N74	N	-0.052519	-0.130324	-0.000131
N75	N	-0.128915	-0.168470	-0.000146
H76	H	-0.191792	-0.142266	-0.000153
H77	H	-0.374510	-0.813446	-0.000083
H78	H	0.023448	-0.812388	-0.796380
