data_functionalizedCrystal
_audit_creation_method	'MofGen! by Chris Wilmer'
_symmetry_space_group_name_H-M	'P1'
_symmetry_Int_Tables_number	1
_symmetry_cell_setting	triclinic
loop_
_symmetry_equiv_pos_as_xyz
  x,y,z
_cell_length_a	15.297475
_cell_length_b	17.640280
_cell_length_c	17.638161
_cell_angle_alpha	70.377761
_cell_angle_beta	89.720045
_cell_angle_gamma	67.467946
loop_
_atom_site_label
_atom_site_type_symbol
_atom_site_fract_x
_atom_site_fract_y
_atom_site_fract_z
Zn1	Zn	1.340818	-0.403561	-0.568485
Zn2	Zn	1.840818	0.096439	-0.068485
Zn3	Zn	1.417314	-0.578837	-0.412468
Zn4	Zn	1.917314	-0.078837	0.087532
Zn5	Zn	1.228276	-0.417162	-0.416514
Zn6	Zn	1.728276	0.082838	0.083486
Zn7	Zn	1.228173	-0.527071	-0.526446
Zn8	Zn	1.728173	-0.027071	-0.026446
O9	O	1.303646	-0.481658	-0.480978
O10	O	1.803646	0.018342	0.019022
O11	O	1.477220	-0.442784	-0.563689
O12	O	1.977220	0.057216	-0.063689
O13	O	1.424295	-0.584748	-0.301704
O14	O	1.924295	-0.084748	0.198296
O15	O	1.211234	-0.296007	-0.455961
O16	O	1.711234	0.203993	0.044039
O17	O	1.533422	-0.571559	-0.449064
O18	O	2.033422	-0.071559	0.050936
O19	O	1.293918	-0.286014	-0.567613
O20	O	1.793918	0.213986	-0.067613
O21	O	1.285410	-0.465966	-0.304678
O22	O	1.785410	0.034034	0.195322
O23	O	1.102008	-0.415770	-0.415197
O24	O	1.602008	0.084230	0.084803
O25	O	1.211059	-0.483331	-0.643322
O26	O	1.711059	0.016669	-0.143322
O27	O	1.101932	-0.496520	-0.495963
O28	O	1.601932	0.003480	0.004037
O29	O	1.293818	-0.392588	-0.674208
O30	O	1.793818	0.107412	-0.174208
O31	O	1.424195	-0.691322	-0.408300
O32	O	1.924195	-0.191322	0.091700
O33	O	1.285234	-0.653289	-0.492039
O34	O	1.785234	-0.153289	0.007961
C35	C	1.069233	-0.452004	-0.451458
C36	C	1.569233	0.047996	0.048542
C37	C	0.968951	-0.439334	-0.438844
C38	C	1.468951	0.060666	0.061156
C39	C	0.686398	-0.572220	-0.571129
C40	C	1.186398	-0.072220	-0.071129
C41	C	0.780620	-0.584131	-0.582977
C42	C	1.280620	-0.084131	-0.082977
C43	C	0.827708	-0.547932	-0.546945
C44	C	1.327708	-0.047932	-0.046945
C45	C	0.780563	-0.499821	-0.499063
C46	C	1.280563	0.000179	0.000937
C47	C	0.686334	-0.487915	-0.487209
C48	C	1.186334	0.012085	0.012791
C49	C	0.827643	-0.463627	-0.463025
C50	C	1.327643	0.036373	0.036975
C51	C	0.780499	-0.415516	-0.415142
C52	C	1.280499	0.084484	0.084858
C53	C	0.686279	-0.403611	-0.403291
C54	C	1.186279	0.096389	0.096709
C55	C	0.639191	-0.439810	-0.439323
C56	C	1.139191	0.060190	0.060677
C57	C	0.921873	-0.475534	-0.474879
C58	C	1.421873	0.024466	0.025121
C59	C	0.921809	-0.391229	-0.390958
C60	C	1.421809	0.108771	0.109042
C61	C	0.827586	-0.379318	-0.379111
C62	C	1.327586	0.120682	0.120889
C63	C	1.363024	-0.703251	-0.445189
C64	C	1.863024	-0.203251	0.054811
C65	C	1.388501	-0.798053	-0.429915
C66	C	1.888501	-0.298053	0.070085
C67	C	1.110385	-1.011017	-0.597347
C68	C	1.610385	-0.511017	-0.097347
C69	C	1.134334	-1.100105	-0.582970
C70	C	1.634334	-0.600105	-0.082970
C71	C	1.279075	-1.139626	-0.495884
C72	C	1.779075	-0.639626	0.004116
C73	C	1.255141	-1.050540	-0.510257
C74	C	1.755141	-0.550540	-0.010257
C75	C	1.170794	-0.986242	-0.560989
C76	C	1.670794	-0.486242	-0.060989
C77	C	1.315550	-1.025765	-0.473899
C78	C	1.815550	-0.525765	0.026101
C79	C	1.291615	-0.936686	-0.488268
C80	C	1.791615	-0.436686	0.011732
C81	C	1.207271	-0.872384	-0.538995
C82	C	1.707271	-0.372384	-0.038995
C83	C	1.146859	-0.897164	-0.575357
C84	C	1.646859	-0.397164	-0.075357
C85	C	1.399894	-1.090065	-0.423163
C86	C	1.899894	-0.590065	0.076837
C87	C	1.460303	-1.065289	-0.386805
C88	C	1.960303	-0.565289	0.113195
C89	C	1.436372	-0.976209	-0.401178
C90	C	1.936372	-0.476209	0.098822
C91	C	1.352027	-0.911907	-0.451905
C92	C	1.852027	-0.411907	0.048095
C93	C	1.496783	-0.951429	-0.364815
C94	C	1.996783	-0.451429	0.135185
C95	C	1.472848	-0.862351	-0.379184
C96	C	1.972848	-0.362351	0.120816
C97	C	1.328092	-0.822828	-0.466274
C98	C	1.828092	-0.322828	0.033726
C99	C	1.538973	-0.511428	-0.510614
C100	C	2.038973	-0.011428	-0.010614
C101	C	1.639255	-0.524115	-0.523243
C102	C	2.139255	-0.024115	-0.023243
C103	C	1.243894	-0.430668	-0.688431
C104	C	1.743894	0.069332	-0.188431
C105	C	1.218432	-0.408939	-0.776835
C106	C	1.718432	0.091061	-0.276835
C107	C	1.244055	-0.259199	-0.516928
C108	C	1.744055	0.240801	-0.016928
C109	C	1.218661	-0.164400	-0.532247
C110	C	1.718661	0.335600	-0.032247
C111	C	1.363200	-0.532395	-0.274349
C112	C	1.863200	-0.032395	0.225651
C113	C	1.388772	-0.553906	-0.186006
C114	C	1.888772	-0.053906	0.313994
C115	C	1.109745	-0.317111	0.097189
C116	C	1.609745	0.182889	0.597189
C117	C	1.133796	-0.337338	0.180200
C118	C	1.633796	0.162662	0.680200
C119	C	1.279049	-0.460345	0.183129
C120	C	1.779049	0.039655	0.683129
C121	C	1.255008	-0.440131	0.100117
C122	C	1.755008	0.059869	0.600117
C123	C	1.170356	-0.368512	0.057154
C124	C	1.670356	0.131488	0.557154
C125	C	1.315619	-0.491532	0.060082
C126	C	1.815619	0.008468	0.560082
C127	C	1.291582	-0.471317	-0.022923
C128	C	1.791582	0.028683	0.477077
C129	C	1.206935	-0.399700	-0.065893
C130	C	1.706935	0.100300	0.434107
C131	C	1.146319	-0.348297	-0.025852
C132	C	1.646319	0.151703	0.474148
C133	C	1.400274	-0.563146	0.103046
C134	C	1.900274	-0.063146	0.603046
C135	C	1.460885	-0.614548	0.063011
C136	C	1.960885	-0.114548	0.563011
C137	C	1.436845	-0.594336	-0.019995
C138	C	1.936845	-0.094336	0.480005
C139	C	1.352198	-0.522720	-0.062965
C140	C	1.852198	-0.022720	0.437035
C141	C	1.497461	-0.645739	-0.060036
C142	C	1.997461	-0.145739	0.439964
C143	C	1.473425	-0.625524	-0.143042
C144	C	1.973425	-0.125524	0.356958
C145	C	1.328162	-0.502504	-0.145970
C146	C	1.828162	-0.002504	0.354030
H147	H	0.819000	-0.623305	-0.621961
H148	H	1.319000	-0.123305	-0.121961
F149	F	0.636110	-0.352414	-0.352324
F150	F	1.136110	0.147586	0.147676
F151	F	1.181356	-0.378181	-0.154238
F152	F	1.681356	0.121819	0.345762
H153	H	1.077385	-0.289980	-0.060835
H154	H	1.577385	0.210020	0.439165
F155	F	1.057092	-0.828726	-0.629359
F156	F	1.557092	-0.328726	-0.129359
H157	H	0.648054	-0.601694	-0.600456
H158	H	1.148054	-0.101694	-0.100456
H159	H	0.960249	-0.514706	-0.513865
H160	H	1.460249	-0.014706	-0.013865
H161	H	1.084436	-0.295472	0.212793
H162	H	1.584436	0.204528	0.712793
F163	F	0.538905	-0.427129	-0.426721
F164	F	1.038905	0.072871	0.073279
H165	H	1.187780	-0.799852	-0.550686
H166	H	1.687780	-0.299852	-0.050686
H167	H	1.259227	-0.444188	-0.180954
H168	H	1.759227	0.055812	0.319046
F169	F	1.019657	-0.240876	0.051455
F170	F	1.519657	0.259124	0.551455
H171	H	0.789188	-0.340145	-0.340124
H172	H	1.289188	0.159855	0.159876
H173	H	1.041706	-0.958661	-0.638664
H174	H	1.541706	-0.458661	-0.138664
F175	F	1.070024	-1.126468	-0.621663
F176	F	1.570024	-0.626468	-0.121663
F177	F	1.368842	-1.208065	-0.441895
F178	F	1.868842	-0.708065	0.058105
H179	H	1.347974	-0.518654	0.218121
H180	H	1.847974	-0.018654	0.718121
H181	H	0.960148	-0.361755	-0.361617
H182	H	1.460148	0.138245	0.138383
H183	H	1.259413	-0.770472	-0.507591
H184	H	1.759413	-0.270472	-0.007591
F185	F	1.425856	-0.584657	0.191388
F186	F	1.925856	-0.084657	0.691388
F187	F	1.425385	-1.184868	-0.407897
F188	F	1.925385	-0.684868	0.092103
H189	H	1.528976	-1.117653	-0.345497
H190	H	2.028976	-0.617653	0.154503
F191	F	0.927987	-0.560609	-0.559557
F192	F	1.427987	-0.060609	-0.059557
H193	H	1.565454	-1.003794	-0.323504
H194	H	2.065454	-0.503794	0.176496
H195	H	1.522039	-0.842181	-0.349576
H196	H	2.022039	-0.342181	0.150424
H197	H	1.566389	-0.704046	-0.025045
H198	H	2.066389	-0.204046	0.474955
F199	F	1.550978	-0.690763	0.108743
F200	F	2.050978	-0.190763	0.608743
H201	H	1.522781	-0.667379	-0.175640
H202	H	2.022781	-0.167379	0.324360
