data_functionalizedCrystal
_audit_creation_method	'MofGen! by Chris Wilmer'
_symmetry_space_group_name_H-M	'P1'
_symmetry_Int_Tables_number	1
_symmetry_cell_setting	triclinic
loop_
_symmetry_equiv_pos_as_xyz
  x,y,z
_cell_length_a	10.908937
_cell_length_b	17.019294
_cell_length_c	9.482900
_cell_angle_alpha	95.509088
_cell_angle_beta	83.036371
_cell_angle_gamma	71.768120
loop_
_atom_site_label
_atom_site_type_symbol
_atom_site_fract_x
_atom_site_fract_y
_atom_site_fract_z
O1	O	1.721315	-0.134751	-0.104070
O2	O	1.348599	-0.074078	-0.111658
O3	O	1.543014	-0.218840	-0.093533
O4	O	1.526900	0.010011	-0.122196
O5	O	1.503525	-0.189338	0.144566
O6	O	1.309111	-0.044576	0.126440
O7	O	1.681827	-0.105249	0.134028
Cu8	Cu	1.491863	-0.072219	0.151975
Cu9	Cu	1.538563	-0.107108	-0.129605
O10	O	1.487412	0.039513	0.115903
C11	C	1.281121	-0.053657	0.006682
C12	C	1.138888	-0.036771	0.004571
C13	C	0.941715	-0.080943	0.010077
C14	C	1.088717	-0.098394	0.012281
C15	C	1.521880	-0.232927	0.029125
C16	C	1.517724	-0.318854	0.039879
C17	C	1.537299	-0.375300	-0.084856
C18	C	1.533385	-0.456035	-0.074748
C19	C	1.509905	-0.480324	0.060096
C20	C	1.490324	-0.423871	0.184840
C21	C	1.494229	-0.343136	0.174730
C22	C	1.497029	-0.723286	0.097113
C23	C	1.493129	-0.804029	0.107214
C24	C	1.536187	-0.836187	-0.152376
C25	C	1.540098	-0.755450	-0.162473
C26	C	1.520511	-0.699003	-0.037730
C27	C	1.505907	-0.562849	0.070431
C28	C	1.524499	-0.616478	-0.048066
C29	C	1.749305	-0.125671	0.015685
C30	C	1.891540	-0.142558	0.017786
C31	C	1.508546	0.053600	-0.006758
C32	C	1.512704	0.139525	-0.017521
N33	N	1.459027	-0.047682	0.350022
N34	N	1.571409	-0.131653	-0.327651
C35	C	1.528868	-0.099874	0.428757
C36	C	1.501557	-0.079453	0.593617
H37	H	1.154587	-0.164070	0.020504
H38	H	1.549331	-0.501992	-0.176321
H39	H	1.486794	-0.582635	0.180222
H40	H	1.421534	-0.019650	0.648254
Cl41	Cl	1.037204	0.064627	-0.008146
H42	H	1.651423	-0.191461	0.617713
H43	H	1.379009	0.012118	0.404665
H44	H	0.875844	-0.015274	0.001838
Cl45	Cl	1.652113	-0.192341	0.344421
Cl46	Cl	0.993233	-0.243953	0.030485
H47	H	1.556426	-0.355532	-0.194661
H48	H	1.552132	-0.882154	-0.253935
Cl49	Cl	1.463616	-0.834564	0.276745
Cl50	Cl	1.569621	-0.724922	-0.331999
Cl51	Cl	1.472384	-0.652330	0.253935
H52	H	1.471198	-0.443652	0.294633
Cl53	Cl	1.554023	-0.585942	-0.217579
Cl54	Cl	1.469617	-0.272174	0.331547
