data_functionalizedCrystal
_audit_creation_method	'MofGen! by Chris Wilmer'
_symmetry_space_group_name_H-M	'P1'
_symmetry_Int_Tables_number	1
_symmetry_cell_setting	triclinic
loop_
_symmetry_equiv_pos_as_xyz
  x,y,z
_cell_length_a	10.489716
_cell_length_b	11.792241
_cell_length_c	10.868271
_cell_angle_alpha	90.005281
_cell_angle_beta	89.996064
_cell_angle_gamma	95.638724
loop_
_atom_site_label
_atom_site_type_symbol
_atom_site_fract_x
_atom_site_fract_y
_atom_site_fract_z
O1	O	1.693526	-0.160005	-0.102313
O2	O	2.193526	0.339995	0.397687
O3	O	1.322275	-0.175065	-0.102318
O4	O	1.822275	0.324935	0.397682
O5	O	1.516910	-0.002388	-0.102307
O6	O	2.016910	0.497612	0.397693
O7	O	1.498892	-0.332682	-0.102324
O8	O	1.998892	0.167318	0.397676
O9	O	1.516894	-0.002381	0.102338
O10	O	2.016894	0.497619	0.602338
O11	O	1.322259	-0.175058	0.102327
O12	O	1.822259	0.324942	0.602327
O13	O	1.693510	-0.159998	0.102332
O14	O	2.193510	0.340002	0.602332
Zn15	Zn	1.507882	-0.167527	0.134821
Zn16	Zn	2.007882	0.332473	0.634821
Zn17	Zn	1.507903	-0.167536	-0.134807
Zn18	Zn	2.007903	0.332464	0.365193
O19	O	1.498875	-0.332675	0.102321
O20	O	1.998875	0.167325	0.602321
C21	C	1.274739	-0.173930	0.000004
C22	C	1.774739	0.326070	0.500004
C23	C	1.133119	-0.170545	0.000003
C24	C	1.633119	0.329455	0.500003
C25	C	1.035085	-0.276436	-0.000006
C26	C	1.535085	0.223564	0.499994
C27	C	0.957921	-0.220477	0.100903
C28	C	1.457921	0.279523	0.600903
C29	C	0.957944	-0.220459	-0.100860
C30	C	1.457944	0.279541	0.399140
C31	C	1.057822	-0.114631	0.100995
C32	C	1.557822	0.385369	0.600995
C33	C	1.057849	-0.114628	-0.100859
C34	C	1.557849	0.385372	0.399141
C35	C	0.980735	-0.058592	0.000074
C36	C	1.480735	0.441408	0.500074
C37	C	1.515770	0.039909	0.000015
C38	C	2.015770	0.539909	0.500015
C39	C	1.512382	0.165932	0.000014
C40	C	2.012382	0.665932	0.500014
C41	C	1.741047	-0.161133	0.000007
C42	C	2.241047	0.338867	0.500007
C43	C	1.882666	-0.164518	0.000001
C44	C	2.382666	0.335482	0.500001
C45	C	1.500015	-0.374972	-0.000004
C46	C	2.000015	0.125028	0.499996
C47	C	1.503403	-0.500995	-0.000011
C48	C	2.003403	-0.000995	0.499989
N49	N	1.507877	-0.167520	0.318835
N50	N	2.007877	0.332480	0.818835
C51	C	1.506153	0.396660	-0.000006
C52	C	2.006153	0.896660	0.499994
C53	C	1.509614	0.268266	0.000005
C54	C	2.009614	0.768266	0.500005
N55	N	1.507919	-0.167534	-0.318821
N56	N	2.007919	0.332466	0.181179
C57	C	1.507897	-0.167534	0.569841
C58	C	2.007897	0.332466	1.069841
C59	C	1.507882	-0.167529	0.430164
C60	C	2.007882	0.332471	0.930164
H61	H	0.914315	-0.265185	-0.186159
H62	H	1.414315	0.234815	0.313841
H63	H	0.956619	0.033585	0.000138
H64	H	1.456619	0.533585	0.500138
O65	O	0.900106	-0.279683	0.213896
O66	O	1.400106	0.220317	0.713896
H67	H	0.941691	-0.236571	0.297563
H68	H	1.441691	0.263429	0.797563
H69	H	1.059440	-0.368545	0.000083
H70	H	1.559440	0.131455	0.500083
O71	O	1.115371	-0.055465	0.214126
O72	O	1.615371	0.444535	0.714126
H73	H	1.220787	-0.058519	0.213265
H74	H	1.720787	0.441481	0.713265
H75	H	1.101504	-0.069964	-0.186168
H76	H	1.601504	0.430036	0.313832
