data_functionalizedCrystal
_audit_creation_method	'MofGen! by Chris Wilmer'
_symmetry_space_group_name_H-M	'P1'
_symmetry_Int_Tables_number	1
_symmetry_cell_setting	triclinic
loop_
_symmetry_equiv_pos_as_xyz
  x,y,z
_cell_length_a	21.395362
_cell_length_b	16.959454
_cell_length_c	21.395355
_cell_angle_alpha	90.012996
_cell_angle_beta	90.043940
_cell_angle_gamma	90.035955
loop_
_atom_site_label
_atom_site_type_symbol
_atom_site_fract_x
_atom_site_fract_y
_atom_site_fract_z
Zn1	Zn	0.957906	-0.314438	0.354610
Zn2	Zn	1.457906	0.185562	0.854610
Zn3	Zn	0.957828	-0.446599	0.249842
Zn4	Zn	1.457828	0.053401	0.749842
Zn5	Zn	0.853121	-0.314475	0.249811
Zn6	Zn	1.353121	0.185525	0.749811
Zn7	Zn	0.853109	-0.446615	0.354547
Zn8	Zn	1.353109	0.053385	0.854547
O9	O	0.905491	-0.380532	0.302202
O10	O	1.405491	0.119468	0.802202
O11	O	1.045573	-0.331947	0.340751
O12	O	1.545573	0.168053	0.840751
O13	O	0.943910	-0.429081	0.162160
O14	O	1.443910	0.070919	0.662160
O15	O	0.867058	-0.203859	0.263726
O16	O	1.367058	0.296141	0.763726
O17	O	1.045516	-0.429045	0.263779
O18	O	1.545516	0.070955	0.763779
O19	O	0.944043	-0.203832	0.340721
O20	O	1.444043	0.296168	0.840721
O21	O	0.866982	-0.332010	0.162137
O22	O	1.366982	0.167990	0.662137
O23	O	0.765441	-0.332026	0.263665
O24	O	1.265441	0.167974	0.763665
O25	O	0.867039	-0.429073	0.442233
O26	O	1.367039	0.070927	0.942233
O27	O	0.765433	-0.429109	0.340614
O28	O	1.265433	0.070891	0.840614
O29	O	0.944032	-0.331963	0.442279
O30	O	1.444032	0.168037	0.942279
O31	O	0.943899	-0.557212	0.263718
O32	O	1.443899	-0.057212	0.763718
O33	O	0.866963	-0.557224	0.340645
O34	O	1.366963	-0.057224	0.840645
C35	C	0.742703	-0.380574	0.302130
C36	C	1.242703	0.119426	0.802130
C37	C	0.673062	-0.380610	0.302114
C38	C	1.173062	0.119390	0.802114
C39	C	0.640361	-0.431228	0.342121
C40	C	1.140361	0.068772	0.842121
C41	C	0.574925	-0.431209	0.342149
C42	C	1.074925	0.068791	0.842149
C43	C	0.542194	-0.380580	0.302158
C44	C	1.042194	0.119420	0.802158
C45	C	0.574903	-0.329952	0.262148
C46	C	1.074903	0.170048	0.762148
C47	C	0.640337	-0.329967	0.262126
C48	C	1.140337	0.170033	0.762126
C49	C	0.438468	-0.374212	0.245752
C50	C	0.938468	0.125788	0.745752
C51	C	0.373035	-0.374203	0.245774
C52	C	0.873035	0.125797	0.745774
C53	C	0.340373	-0.380528	0.302227
C54	C	0.840373	0.119472	0.802227
C55	C	0.373152	-0.386881	0.358661
C56	C	0.873152	0.113119	0.858661
C57	C	0.438586	-0.386896	0.358639
C58	C	0.938586	0.113104	0.858639
C59	C	0.471241	-0.380557	0.302178
C60	C	0.971241	0.119443	0.802178
C61	C	0.236719	-0.431128	0.342268
C62	C	0.736719	0.068872	0.842268
C63	C	0.171283	-0.431103	0.342297
C64	C	0.671283	0.068897	0.842297
C65	C	0.171261	-0.329850	0.262291
C66	C	0.671261	0.170150	0.762291
C67	C	0.236697	-0.329871	0.262267
C68	C	0.736697	0.170129	0.762267
C69	C	0.269422	-0.380514	0.302255
C70	C	0.769422	0.119486	0.802255
C71	C	0.905438	-0.585898	0.302192
C72	C	1.405438	-0.085898	0.802192
C73	C	0.905473	-0.673755	0.302208
C74	C	1.405473	-0.173755	0.802208
C75	C	0.865488	-1.045266	0.342254
C76	C	1.365488	-0.545266	0.842254
C77	C	0.945668	-1.045194	0.262215
C78	C	1.445668	-0.545194	0.762215
C79	C	0.945646	-0.962648	0.262209
C80	C	1.445646	-0.462648	0.762209
C81	C	0.905544	-0.921407	0.302226
C82	C	1.405544	-0.421407	0.802226
C83	C	0.865464	-0.962713	0.342248
C84	C	1.365464	-0.462713	0.842248
C85	C	0.985721	-0.921337	0.222184
C86	C	1.485721	-0.421337	0.722184
C87	C	0.985700	-0.838786	0.222176
C88	C	1.485700	-0.338786	0.722176
C89	C	0.945601	-0.797544	0.262196
C90	C	1.445601	-0.297544	0.762196
C91	C	0.905520	-0.838854	0.302220
C92	C	1.405520	-0.338854	0.802220
C93	C	0.865418	-0.797613	0.342236
C94	C	1.365418	-0.297613	0.842236
C95	C	0.825339	-0.838922	0.382264
C96	C	1.325339	-0.338922	0.882264
C97	C	0.825365	-0.921471	0.382268
C98	C	1.325365	-0.421471	0.882268
C99	C	0.945575	-0.714995	0.262192
C100	C	1.445575	-0.214995	0.762192
C101	C	0.865393	-0.715060	0.342230
C102	C	1.365393	-0.215060	0.842230
C103	C	1.068914	-0.380490	0.302276
C104	C	1.568914	0.119510	0.802276
C105	C	1.138555	-0.380473	0.302307
C106	C	1.638555	0.119527	0.802307
C107	C	0.905543	-0.380516	0.465626
C108	C	1.405543	0.119484	0.965626
C109	C	0.905565	-0.380509	0.535267
C110	C	1.405565	0.119491	1.035267
C111	C	0.905561	-0.174363	0.302227
C112	C	1.405561	0.325637	0.802227
C113	C	0.905590	-0.086507	0.302237
C114	C	1.405590	0.413493	0.802237
C115	C	0.905475	-0.380491	0.139415
C116	C	1.405475	0.119509	0.639415
C117	C	0.905574	-0.380275	0.069774
C118	C	1.405574	0.119725	0.569774
C119	C	0.945654	-0.329942	0.568005
C120	C	1.445654	0.170058	1.068005
C121	C	0.945653	-0.329908	0.633441
C122	C	1.445653	0.170092	1.133441
C123	C	0.905570	-0.380455	0.666135
C124	C	1.405570	0.119545	1.166135
C125	C	0.865473	-0.431026	0.633389
C126	C	1.365473	0.068974	1.133389
C127	C	0.865471	-0.431053	0.567955
C128	C	1.365471	0.068947	1.067955
C129	C	0.900604	-0.451628	0.769805
C130	C	1.400604	0.048372	1.269805
C131	C	0.900611	-0.451602	0.835238
C132	C	1.400611	0.048398	1.335238
C133	C	0.905574	-0.380371	0.867956
C134	C	1.405574	0.119629	1.367956
C135	C	0.910543	-0.309164	0.835234
C136	C	1.410543	0.190836	1.335234
C137	C	0.910540	-0.309191	0.769800
C138	C	1.410540	0.190809	1.269800
C139	C	0.905568	-0.380431	0.737088
C140	C	1.405568	0.119569	1.237088
C141	C	0.945664	-0.329763	0.971647
C142	C	1.445664	0.170237	1.471647
C143	C	0.945659	-0.329728	1.037084
C144	C	1.445659	0.170272	1.537084
C145	C	0.865482	-0.430853	1.037031
C146	C	1.365482	0.069147	1.537031
C147	C	0.865484	-0.430881	0.971596
C148	C	1.365484	0.069119	1.471596
C149	C	0.905578	-0.380337	0.938908
C150	C	1.405578	0.119663	1.438908
H151	H	0.144659	-0.472321	0.374880
H152	H	0.644659	0.027679	0.874880
C153	C	0.538903	-0.274260	0.218159
C154	C	1.038903	0.225740	0.718159
H155	H	0.567753	-0.244110	0.194331
H156	H	1.067753	0.255890	0.694331
H157	H	0.513328	-0.304437	0.190826
H158	H	1.013328	0.195563	0.690826
H159	H	0.513427	-0.239857	0.242187
H160	H	1.013427	0.260143	0.742187
C161	C	0.989775	-1.090552	0.218198
C162	C	1.489775	-0.590552	0.718198
H163	H	1.013638	-1.054128	0.194358
H164	H	1.513638	-0.554128	0.694358
H165	H	1.017070	-1.122715	0.242200
H166	H	1.517070	-0.622715	0.742200
H167	H	0.965824	-1.122791	0.190867
H168	H	1.465824	-0.622791	0.690867
C169	C	0.989765	-0.274111	1.073099
C170	C	1.489765	0.225889	1.573099
H171	H	0.984022	-0.281329	1.116751
H172	H	1.484022	0.218671	1.616751
H173	H	1.031855	-0.285687	1.062405
H174	H	1.531855	0.214313	1.562405
H175	H	0.980620	-0.221003	1.062366
H176	H	1.480620	0.278997	1.562366
H177	H	1.018335	-0.805157	0.189584
H178	H	1.518335	-0.305157	0.689584
C179	C	0.821283	-0.669698	0.386249
C180	C	1.321283	-0.169698	0.886249
H181	H	0.827009	-0.614618	0.380517
H182	H	1.327009	-0.114618	0.880517
H183	H	0.779193	-0.683285	0.377032
H184	H	1.279193	-0.183285	0.877032
H185	H	0.830443	-0.683197	0.428361
H186	H	1.330443	-0.183197	0.928361
C187	C	0.821391	-0.486512	0.935582
C188	C	1.321391	0.013488	1.435582
H189	H	0.797521	-0.516616	0.964424
H190	H	1.297521	-0.016616	1.464424
H191	H	0.794101	-0.456293	0.910033
H192	H	1.294101	0.043707	1.410033
H193	H	0.845349	-0.520960	0.910078
H194	H	1.345349	-0.020960	1.410078
C195	C	0.676309	-0.274290	0.218112
C196	C	1.176309	0.225710	0.718112
H197	H	0.647446	-0.244135	0.194296
H198	H	1.147446	0.255865	0.694296
H199	H	0.701887	-0.239903	0.242116
H200	H	1.201887	0.260097	0.742116
H201	H	0.701782	-0.304488	0.190760
H202	H	1.201782	0.195512	0.690760
C203	C	1.029827	-0.966697	0.178166
C204	C	1.529827	-0.466697	0.678166
H205	H	1.053687	-0.930274	0.154323
H206	H	1.553687	-0.430274	0.654323
H207	H	1.057125	-0.998855	0.202169
H208	H	1.557125	-0.498855	0.702169
H209	H	1.005876	-0.998940	0.150840
H210	H	1.505876	-0.498940	0.650840
H211	H	0.896569	-0.509584	0.861875
H212	H	1.396569	-0.009584	1.361875
H213	H	0.548295	-0.472428	0.374730
H214	H	1.048295	0.027572	0.874730
H215	H	0.792685	-0.805335	0.414843
H216	H	1.292685	-0.305335	0.914843
H217	H	0.896396	-0.509618	0.743171
H218	H	1.396396	-0.009618	1.243171
H219	H	0.792734	-0.955112	0.414855
H220	H	1.292734	-0.455112	0.914855
C221	C	0.821404	-1.090701	0.386279
C222	C	1.321404	-0.590701	0.886279
H223	H	0.827157	-1.145771	0.380551
H224	H	1.327157	-0.645771	0.880551
H225	H	0.830546	-1.077140	0.428387
H226	H	1.330546	-0.577140	0.928387
H227	H	0.779305	-1.077229	0.377049
H228	H	1.279305	-0.577229	0.877049
H229	H	0.978297	-0.288725	0.660101
H230	H	1.478297	0.211275	1.160101
C231	C	0.915995	-0.230869	0.733807
C232	C	1.415995	0.269131	1.233807
H233	H	0.918947	-0.188439	0.762660
H234	H	1.418947	0.311561	1.262660
H235	H	0.952310	-0.231894	0.708305
H236	H	1.452310	0.268106	1.208305
H237	H	0.880082	-0.223949	0.708258
H238	H	1.380082	0.276051	1.208258
H239	H	0.832835	-0.472179	0.660014
H240	H	1.332835	0.027821	1.160014
H241	H	0.465056	-0.369058	0.199778
H242	H	0.965056	0.130942	0.699778
C243	C	0.989748	-0.274339	0.532049
C244	C	1.489748	0.225661	1.032049
H245	H	0.984009	-0.281599	0.488389
H246	H	1.484009	0.218401	0.988389
H247	H	0.980597	-0.221229	0.542764
H248	H	1.480597	0.278771	1.042764
H249	H	1.031844	-0.285897	0.542803
H250	H	1.531844	0.214103	1.042803
C251	C	0.135264	-0.274149	0.218310
C252	C	0.635264	0.225851	0.718310
H253	H	0.091610	-0.281389	0.224052
H254	H	0.591610	0.218611	0.724052
H255	H	0.146037	-0.221064	0.227553
H256	H	0.646037	0.278936	0.727553
H257	H	0.145929	-0.285639	0.176188
H258	H	0.645929	0.214361	0.676188
C259	C	0.821380	-0.486690	0.531942
C260	C	1.321380	0.013310	1.031942
H261	H	0.797510	-0.516795	0.560783
H262	H	1.297510	-0.016795	1.060783
H263	H	0.794090	-0.456479	0.506388
H264	H	1.294090	0.043521	1.006388
H265	H	0.845346	-0.521137	0.506443
H266	H	1.345346	-0.021137	1.006443
H267	H	0.914585	-0.251161	0.861872
H268	H	1.414585	0.248839	1.361872
C269	C	0.989754	-0.274155	0.935687
C270	C	1.489754	0.225845	1.435687
H271	H	1.013622	-0.244023	0.964560
H272	H	1.513622	0.255977	1.464560
H273	H	1.017045	-0.304389	0.910183
H274	H	1.517045	0.195611	1.410183
H275	H	0.965788	-0.239733	0.910143
H276	H	1.465788	0.260267	1.410143
C277	C	0.989656	-0.669559	0.218168
C278	C	1.489656	-0.169559	0.718168
H279	H	1.013543	-0.705943	0.194338
H280	H	1.513543	-0.205943	0.694338
H281	H	0.965692	-0.637394	0.190838
H282	H	1.465692	-0.137394	0.690838
H283	H	1.016939	-0.637316	0.242171
H284	H	1.516939	-0.137316	0.742171
H285	H	0.832839	-0.472002	1.063651
H286	H	1.332839	0.027998	1.563651
H287	H	0.465272	-0.392066	0.404590
H288	H	0.965272	0.107934	0.904590
C289	C	0.676355	-0.486925	0.386113
C290	C	1.176355	0.013075	0.886113
H291	H	0.647504	-0.517063	0.409948
H292	H	1.147504	-0.017063	0.909948
H293	H	0.701835	-0.521326	0.362094
H294	H	1.201835	-0.021326	0.862094
H295	H	0.701927	-0.456738	0.413448
H296	H	1.201927	0.043262	0.913448
H297	H	0.263322	-0.288656	0.229686
H298	H	0.763322	0.211344	0.729686
H299	H	0.346560	-0.392030	0.404632
H300	H	0.846560	0.107970	0.904632
H301	H	0.263366	-0.472361	0.374832
H302	H	0.763366	0.027639	0.874832
H303	H	0.346351	-0.369035	0.199822
H304	H	0.846351	0.130965	0.699822
