data_functionalizedCrystal
_audit_creation_method	'MofGen! by Chris Wilmer'
_symmetry_space_group_name_H-M	'P1'
_symmetry_Int_Tables_number	1
_symmetry_cell_setting	triclinic
loop_
_symmetry_equiv_pos_as_xyz
  x,y,z
_cell_length_a	10.723023
_cell_length_b	10.723024
_cell_length_c	9.130313
_cell_angle_alpha	89.999893
_cell_angle_beta	89.999886
_cell_angle_gamma	84.467709
loop_
_atom_site_label
_atom_site_type_symbol
_atom_site_fract_x
_atom_site_fract_y
_atom_site_fract_z
O1	O	1.657182	0.175017	-0.121791
O2	O	1.294029	0.191771	-0.121795
O3	O	1.483982	0.001818	-0.121787
O4	O	1.467229	0.364970	-0.121798
O5	O	1.483980	0.001823	0.121811
O6	O	1.294027	0.191776	0.121804
O7	O	1.657180	0.175022	0.121808
Cu8	Cu	1.475603	0.183400	0.144048
Cu9	Cu	1.475606	0.183394	-0.144035
O10	O	1.467227	0.364975	0.121800
C11	C	1.247529	0.190555	0.000004
C12	C	1.108974	0.186908	0.000003
C13	C	1.482762	-0.044679	0.000010
C14	C	1.479114	-0.183233	0.000005
C15	C	0.904005	0.181515	0.126189
C16	C	1.047208	0.185284	0.126193
C17	C	1.585402	-0.258216	0.000004
C18	C	1.581634	-0.401420	-0.000001
C19	C	1.703680	0.176239	0.000005
C20	C	1.842235	0.179886	-0.000003
C21	C	1.468447	0.411473	-0.000001
C22	C	1.472095	0.550027	-0.000005
N23	N	1.475610	0.183403	0.346671
N24	N	1.475609	0.183380	-0.346658
C25	C	1.559743	0.099321	0.423326
C26	C	1.559740	0.099306	0.576663
C27	C	1.391467	0.267467	0.576676
C28	C	1.391465	0.267475	0.423342
C29	C	1.656898	0.002238	0.423320
C30	C	1.656895	0.002223	0.576657
H31	H	0.850871	0.180125	0.234223
H32	H	1.752788	0.023590	0.618273
H33	H	1.679188	-0.216394	0.000014
H34	H	1.055862	0.185504	-0.108040
Cl35	Cl	1.624024	-0.145841	0.359054
H36	H	1.672625	-0.465852	0.000004
Cl37	Cl	1.331599	-0.350508	0.000008
H38	H	0.895367	0.181290	-0.108037
Cl39	Cl	1.129217	0.187437	0.293004
Cl40	Cl	1.285679	0.373164	0.326974
H41	H	1.385328	-0.225055	-0.000005
Cl42	Cl	1.796765	0.049157	0.349881
H43	H	1.626590	-0.088414	0.624206
Cl44	Cl	1.285689	0.373151	0.673071
