data_functionalizedCrystal
_audit_creation_method	'MofGen! by Chris Wilmer'
_symmetry_space_group_name_H-M	'P1'
_symmetry_Int_Tables_number	1
_symmetry_cell_setting	triclinic
loop_
_symmetry_equiv_pos_as_xyz
  x,y,z
_cell_length_a	10.908891
_cell_length_b	9.482900
_cell_length_c	16.109304
_cell_angle_alpha	80.665414
_cell_angle_beta	108.226637
_cell_angle_gamma	83.038147
loop_
_atom_site_label
_atom_site_type_symbol
_atom_site_fract_x
_atom_site_fract_y
_atom_site_fract_z
O1	O	-1.723927	0.120891	-0.144212
O2	O	-1.350037	0.120892	-0.079282
O3	O	-1.547252	0.120892	-0.234196
O4	O	-1.526713	0.120891	0.010702
O5	O	-1.507193	-0.120900	-0.202625
O6	O	-1.309978	-0.120901	-0.047712
O7	O	-1.683869	-0.120902	-0.112641
Cu8	Cu	-1.493266	-0.142979	-0.077294
Cu9	Cu	-1.540640	0.142969	-0.114630
O10	O	-1.486654	-0.120902	0.042273
C11	C	-1.282164	-0.000004	-0.057429
C12	C	-1.139604	-0.000003	-0.039358
C13	C	-1.090622	-0.000003	-0.105293
C14	C	-0.943279	-0.000002	-0.086618
N15	N	-1.459955	-0.344099	-0.051036
C16	C	-1.530806	-0.416298	-0.106888
C17	C	-1.503100	-0.583715	-0.085035
C18	C	-0.751742	-0.000004	-0.134494
C19	C	-0.894302	-0.000001	-0.152562
C20	C	-1.526390	-0.000001	-0.249271
C21	C	-1.523896	0.000009	-0.341223
N22	N	-1.573961	0.344089	-0.140896
C23	C	-1.539964	0.131805	-0.569972
C24	C	-1.537606	0.131804	-0.656367
C25	C	-1.493939	-0.131812	-0.621945
C26	C	-1.496287	-0.131809	-0.535550
C27	C	-1.519307	0.000004	-0.509568
C28	C	-1.514601	-0.000001	-0.682357
C29	C	-1.512045	-0.000003	-0.776030
C30	C	-1.521861	0.000007	-0.415889
C31	C	-1.507516	-0.000006	0.057347
C32	C	-1.510012	-0.000006	0.149298
H33	H	-0.961445	0.000010	-0.222845
H34	H	-1.558704	0.239135	-0.548821
H35	H	-1.421920	-0.645840	-0.021038
H36	H	-1.611971	-0.354170	-0.170886
H37	H	-1.157770	0.000005	-0.175570
O38	O	-0.862996	-0.000063	-0.002815
C39	C	-0.733759	-0.000021	-0.002827
H40	H	-0.721193	-0.045798	-0.061478
H41	H	-0.661337	-0.070216	0.062486
H42	H	-0.714243	0.115981	-0.009499
H43	H	-1.479457	-0.239144	-0.486363
O44	O	-1.557442	0.259797	-0.715026
C45	C	-1.446247	0.267670	-0.741258
H46	H	-1.356874	0.192875	-0.688130
H47	H	-1.428224	0.384245	-0.749139
H48	H	-1.463726	0.232259	-0.807715
H49	H	-1.072458	0.000002	0.030917
O50	O	-1.670510	-0.581800	-0.217393
C51	C	-1.615759	-0.494012	-0.270401
H52	H	-1.519238	-0.471235	-0.226111
H53	H	-1.686939	-0.386962	-0.305176
H54	H	-1.596829	-0.552848	-0.322779
O55	O	-1.471516	-0.259978	-0.647031
C56	C	-1.453818	-0.376309	-0.575194
H57	H	-1.421255	-0.337669	-0.509594
H58	H	-1.375563	-0.468499	-0.574227
H59	H	-1.550320	-0.416829	-0.583672
H60	H	-1.378780	-0.406229	0.012957
