data_functionalizedCrystal
_audit_creation_method	'MofGen! by Chris Wilmer'
_symmetry_space_group_name_H-M	'P1'
_symmetry_Int_Tables_number	1
_symmetry_cell_setting	triclinic
loop_
_symmetry_equiv_pos_as_xyz
  x,y,z
_cell_length_a	14.044220
_cell_length_b	14.044220
_cell_length_c	12.503572
_cell_angle_alpha	93.843168
_cell_angle_beta	93.839745
_cell_angle_gamma	86.811123
loop_
_atom_site_label
_atom_site_type_symbol
_atom_site_fract_x
_atom_site_fract_y
_atom_site_fract_z
O1	O	1.282207	-0.225110	0.089324
O2	O	1.005535	-0.216804	0.089326
O3	O	1.139717	-0.082622	0.089314
O4	O	1.148024	-0.359292	0.089336
O5	O	1.129628	-0.092731	-0.089327
O6	O	0.995445	-0.226913	-0.089315
O7	O	1.272117	-0.235219	-0.089317
Cu8	Cu	1.132860	-0.231989	-0.105627
Cu9	Cu	1.144792	-0.220034	0.105636
O10	O	1.137934	-0.369402	-0.089305
C11	C	1.131037	-0.052055	-0.000007
C12	C	1.120192	0.054088	-0.000008
C13	C	0.964868	-0.218223	0.000006
C14	C	0.858726	-0.207378	0.000007
C15	C	1.312784	-0.233800	0.000005
C16	C	1.418927	-0.244644	0.000012
C17	C	1.613264	-0.264470	0.000012
C18	C	1.664394	-0.187556	0.000006
C19	C	1.772530	-0.198588	0.000006
C20	C	1.505118	-0.253440	0.000012
C21	C	1.146615	-0.399968	0.000018
C22	C	1.157460	-0.506111	0.000026
N23	N	1.124474	-0.240398	-0.254219
C24	C	1.100367	0.248427	0.000008
C25	C	1.177281	0.299557	0.000010
C26	C	1.166250	0.407693	0.000019
C27	C	1.111396	0.140280	-0.000001
C28	C	1.112139	-0.252777	-0.473333
C29	C	1.165517	-0.199243	-0.526665
C30	C	1.158653	-0.206130	-0.648587
C31	C	1.119001	-0.245890	-0.351399
N32	N	1.153185	-0.211618	0.254228
H33	H	1.650702	-0.338598	0.000019
O34	O	1.226210	-0.138319	-0.472072
C35	C	1.274515	-0.089919	-0.545672
H36	H	1.230830	-0.090029	-0.625875
H37	H	1.347447	-0.127506	-0.557578
C38	C	1.341425	0.014007	-0.403137
C39	C	1.287766	0.013879	-0.501642
H40	H	1.349604	0.078033	-0.375976
H41	H	1.308885	-0.018603	-0.353550
H42	H	1.402196	-0.017320	-0.413072
H43	H	1.226992	0.045195	-0.491703
H44	H	1.320297	0.046497	-0.551226
H45	H	1.626959	-0.113419	0.000078
H46	H	1.061291	-0.303778	-0.519236
O47	O	1.265651	0.254745	-0.000049
C48	C	1.257140	0.155187	-0.000031
H49	H	1.182667	0.136313	-0.033844
H50	H	1.268914	0.131906	0.085669
C51	C	1.424010	0.126564	-0.028572
C52	C	1.332543	0.103381	-0.070110
H53	H	1.470524	0.094606	-0.071796
H54	H	1.429746	0.193638	-0.028580
H55	H	1.433808	0.107162	0.042844
H56	H	1.322742	0.122794	-0.141519
H57	H	1.326807	0.036309	-0.070116
O58	O	1.011997	0.293231	-0.000043
C59	C	1.020520	0.392790	-0.000011
H60	H	1.091176	0.407839	-0.033822
H61	H	1.018430	0.425752	0.085692
C62	C	0.850428	0.418205	-0.028549
C63	C	0.937206	0.436688	-0.070084
H64	H	0.799035	0.445285	-0.071768
H65	H	0.844685	0.351130	-0.028566
H66	H	0.848700	0.445674	0.042870
H67	H	0.938938	0.409209	-0.141496
H68	H	0.942948	0.503760	-0.070080
