data_functionalizedCrystal
_audit_creation_method	'MofGen! by Chris Wilmer'
_symmetry_space_group_name_H-M	'P1'
_symmetry_Int_Tables_number	1
_symmetry_cell_setting	triclinic
loop_
_symmetry_equiv_pos_as_xyz
  x,y,z
_cell_length_a	27.732048
_cell_length_b	10.723023
_cell_length_c	9.198806
_cell_angle_alpha	89.996513
_cell_angle_beta	89.995410
_cell_angle_gamma	96.444899
loop_
_atom_site_label
_atom_site_type_symbol
_atom_site_fract_x
_atom_site_fract_y
_atom_site_fract_z
O1	O	-0.067787	1.654383	-0.120850
O2	O	-0.074276	1.290962	-0.120853
O3	O	-0.000705	1.483960	-0.120871
O4	O	-0.141359	1.461385	-0.120832
O5	O	-0.000705	1.483944	0.120914
O6	O	-0.074276	1.290947	0.120932
O7	O	-0.067787	1.654368	0.120935
Cu8	Cu	-0.071032	1.472656	0.143010
Cu9	Cu	-0.071032	1.472674	-0.142929
O10	O	-0.141358	1.461370	0.120953
C11	C	-0.073804	1.244474	0.000038
C12	C	-0.072392	1.105978	0.000036
C13	C	-0.071762	1.044225	0.125286
C14	C	-0.070302	0.901082	0.125286
C15	C	-0.159368	1.461852	0.000065
C16	C	-0.213032	1.463279	0.000079
C17	C	-0.551195	1.358213	0.000008
C18	C	-0.752887	1.363507	-0.000009
O19	O	-0.783546	1.267431	-0.000074
N20	N	-0.772722	1.477946	-0.000006
C21	C	-0.742129	1.591070	-0.000008
O22	O	-0.763627	1.688530	-0.000021
C23	C	-0.540438	1.585775	-0.000001
C24	C	-0.520606	1.471328	0.000010
C25	C	-0.531363	1.243775	0.000018
C26	C	-0.480943	1.242453	0.000030
C27	C	-0.450354	1.355568	0.000033
C28	C	-0.470186	1.470006	0.000023
C29	C	-0.509846	1.698898	-0.000013
C30	C	-0.459421	1.697564	-0.000015
C31	C	-0.439589	1.583117	-0.000004
C32	C	-0.389178	1.581799	0.000037
N33	N	-0.369343	1.467359	0.000034
C34	C	-0.399932	1.354244	0.000032
C35	C	-0.848021	1.593843	-0.000009
C36	C	-0.898443	1.595167	-0.000008
C37	C	-0.909198	1.367602	-0.000012
C38	C	-0.858774	1.366280	-0.000002
C39	C	-0.828186	1.479403	-0.000012
C40	C	-0.294045	1.351475	0.000059
C41	C	-0.243620	1.350163	0.000077
C42	C	-0.232870	1.577727	0.000073
C43	C	-0.283291	1.579040	0.000063
C44	C	-0.313878	1.465904	0.000050
O45	O	-0.358490	1.677823	0.000085
O46	O	-0.378424	1.256799	0.000012
C47	C	-0.601615	1.359535	-0.000004
C48	C	-0.621447	1.473973	-0.000014
C49	C	-0.590858	1.587088	-0.000012
C50	C	-0.671869	1.475297	-0.000013
C51	C	-0.702458	1.362181	-0.000016
C52	C	-0.682623	1.247742	-0.000019
C53	C	-0.632203	1.246419	-0.000007
C54	C	-0.610693	1.701528	-0.000008
C55	C	-0.661113	1.702841	-0.000019
C56	C	-0.691702	1.589725	-0.000021
C57	C	0.017305	1.483478	0.000014
C58	C	0.070968	1.482051	-0.000010
C59	C	-0.068259	1.700856	0.000040
C60	C	-0.069672	1.839351	0.000034
N61	N	-0.071031	1.472652	0.344124
N62	N	-0.071029	1.472687	-0.344042
C63	C	-0.040005	1.553692	0.416314
C64	C	-0.040003	1.553712	0.583726
H65	H	-0.069763	0.847974	0.232518
O66	O	-0.070385	0.902803	-0.127813
C67	C	-0.112946	0.963118	-0.135592
H68	H	-0.127075	0.977500	-0.021124
H69	H	-0.104483	1.058049	-0.191239
H70	H	-0.141695	0.902581	-0.200702
O71	O	-0.071728	1.042839	-0.128029
C72	C	-0.072611	1.128045	-0.244487
H73	H	-0.058281	1.226306	-0.205994
H74	H	-0.048803	1.098722	-0.336622
H75	H	-0.111460	1.128005	-0.285017
O76	O	-0.072470	1.107402	0.253314
C77	C	-0.113939	1.060775	0.333541
H78	H	-0.126908	0.961275	0.296209
H79	H	-0.104496	1.059806	0.454119
H80	H	-0.143945	1.123539	0.315173
H81	H	-0.013441	1.623056	0.354182
H82	H	-0.013441	1.623098	0.645806
H83	H	-0.464801	1.149258	0.000027
H84	H	-0.299438	1.672232	0.000074
O85	O	-0.224437	1.238873	0.000018
C86	C	-0.262252	1.139323	0.000044
H87	H	-0.296614	1.173632	-0.045737
H88	H	-0.251443	1.059367	-0.070151
H89	H	-0.269275	1.104471	0.116039
O90	O	-0.323802	1.241658	0.000247
C91	C	-0.353287	1.235586	0.125485
H92	H	-0.356180	1.334568	0.167224
H93	H	-0.391017	1.188343	0.097320
H94	H	-0.336508	1.178936	0.213177
O95	O	-0.712273	1.137746	0.000038
C96	C	-0.683962	1.036439	-0.000000
H97	H	-0.646444	1.068829	0.045789
H98	H	-0.702302	0.957241	0.070183
H99	H	-0.680248	1.001328	-0.115999
H100	H	-0.097595	1.403307	0.593887
H101	H	-0.097591	1.403281	0.406259
H102	H	-0.556264	1.151657	0.000011
O103	O	-0.839592	1.254997	-0.000069
C104	C	-0.877408	1.155452	-0.000029
H105	H	-0.911772	1.189766	-0.045796
H106	H	-0.866605	1.075493	-0.070231
H107	H	-0.884427	1.120600	0.115968
H108	H	-0.934112	1.275500	-0.000007
H109	H	-0.677255	1.796044	-0.000017
H110	H	-0.914585	1.688361	0.000006
H111	H	-0.823120	1.685967	-0.000014
O112	O	-0.529022	1.810183	-0.000094
C113	C	-0.491203	1.909721	-0.000064
H114	H	-0.456838	1.875400	-0.045829
H115	H	-0.502000	1.989686	-0.070273
H116	H	-0.484189	1.944565	0.115929
H117	H	-0.434518	1.789685	-0.000031
O118	O	-0.203131	1.687568	-0.000185
C119	C	-0.173631	1.693580	-0.125389
H120	H	-0.191880	1.629416	-0.212905
H121	H	-0.168294	1.794195	-0.167435
H122	H	-0.136865	1.661993	-0.097073
O123	O	-0.612886	1.135323	-0.000202
C124	C	-0.584048	1.127733	-0.125442
H125	H	-0.571816	1.226323	-0.167185
H126	H	-0.550873	1.078626	-0.097281
H127	H	-0.606136	1.072113	-0.213132
H128	H	-0.585792	1.793642	-0.000008
