data_functionalizedCrystal
_audit_creation_method	'MofGen! by Chris Wilmer'
_symmetry_space_group_name_H-M	'P1'
_symmetry_Int_Tables_number	1
_symmetry_cell_setting	triclinic
loop_
_symmetry_equiv_pos_as_xyz
  x,y,z
_cell_length_a	9.065215
_cell_length_b	17.038272
_cell_length_c	8.140239
_cell_angle_alpha	89.996147
_cell_angle_beta	89.997810
_cell_angle_gamma	88.063127
loop_
_atom_site_label
_atom_site_type_symbol
_atom_site_fract_x
_atom_site_fract_y
_atom_site_fract_z
O1	O	1.971909	0.114731	-0.136597
O2	O	1.543568	0.124145	-0.136604
O3	O	1.755193	0.005604	-0.136587
O4	O	1.760285	0.233272	-0.136613
O5	O	1.755180	0.005603	0.136640
O6	O	1.543556	0.124144	0.136623
O7	O	1.971897	0.114729	0.136631
Zn8	Zn	1.757724	0.119436	0.180007
Zn9	Zn	1.757741	0.119438	-0.179981
O10	O	1.760272	0.233270	0.136614
C11	C	1.488485	0.123240	0.000009
C12	C	1.324370	0.120536	0.000006
C13	C	1.750556	-0.023558	0.000026
C14	C	1.736740	-0.110451	0.000025
C15	C	1.863588	-0.159650	0.000029
C16	C	1.850597	-0.241294	0.000013
C17	C	1.710758	-0.273738	0.000005
C18	C	1.583900	-0.224532	-0.000004
C19	C	1.596892	-0.142890	0.000000
C20	C	1.664860	-0.519827	-0.000018
C21	C	1.651877	-0.601476	-0.000017
C22	C	1.918576	-0.618232	-0.000003
C23	C	1.931556	-0.536587	0.000011
C24	C	1.804698	-0.487389	-0.000007
C25	C	1.697476	-0.357191	-0.000006
C26	C	1.817981	-0.403937	-0.000008
C27	C	2.026980	0.115634	0.000014
C28	C	2.191095	0.118338	0.000006
C29	C	1.764909	0.262433	-0.000003
C30	C	1.778725	0.349325	-0.000013
N31	N	1.757724	0.119435	0.425690
N32	N	1.757752	0.119434	-0.425664
H33	H	1.977460	-0.133241	0.000046
C34	C	2.058694	-0.719756	-0.140470
C35	C	2.058013	-0.672311	-0.000007
H36	H	2.144787	-0.753137	-0.140479
H37	H	1.973565	-0.750760	-0.140458
H38	H	2.058217	-0.687543	-0.235735
H39	H	2.058479	-0.704523	0.095259
H40	H	2.143165	-0.641304	-0.000004
H41	H	1.931838	-0.377518	-0.000037
C42	C	1.528170	-0.439288	-0.140453
C43	C	1.543768	-0.392861	0.000003
H44	H	1.433281	-0.461314	-0.140441
H45	H	1.538762	-0.407779	-0.235713
H46	H	1.601878	-0.480266	-0.140443
H47	H	1.470066	-0.351879	-0.000013
H48	H	1.533161	-0.424371	0.095287
H49	H	2.045428	-0.510178	0.000017
C50	C	1.990682	-0.342848	0.140456
C51	C	1.990025	-0.295380	0.000014
H52	H	2.076759	-0.376242	0.140443
H53	H	1.990213	-0.310657	0.235725
H54	H	1.905529	-0.373846	0.140427
H55	H	2.075174	-0.264377	0.000049
H56	H	1.990509	-0.327574	-0.095280
C57	C	1.414586	-0.306626	-0.140463
C58	C	1.430186	-0.260196	-0.000012
H59	H	1.319690	-0.328645	-0.140456
H60	H	1.425192	-0.275121	-0.235726
H61	H	1.488283	-0.347609	-0.140442
H62	H	1.356495	-0.219209	-0.000039
H63	H	1.419565	-0.291702	0.095275
C64	C	1.389548	-0.576716	-0.000081
C65	C	1.498154	-0.637139	-0.000052
H66	H	1.294653	-0.598736	-0.000115
H67	H	1.400135	-0.545226	0.095196
H68	H	1.400189	-0.545217	-0.095365
H69	H	1.487519	-0.668636	0.095238
H70	H	1.487562	-0.668643	-0.095340
H71	H	1.561562	-0.479779	-0.000032
H72	H	1.493598	-0.102832	-0.000003
