data_functionalizedCrystal
_audit_creation_method	'MofGen! by Chris Wilmer'
_symmetry_space_group_name_H-M	'P1'
_symmetry_Int_Tables_number	1
_symmetry_cell_setting	triclinic
loop_
_symmetry_equiv_pos_as_xyz
  x,y,z
_cell_length_a	11.169417
_cell_length_b	11.169416
_cell_length_c	11.169409
_cell_angle_alpha	90.029517
_cell_angle_beta	90.019513
_cell_angle_gamma	90.005487
loop_
_atom_site_label
_atom_site_type_symbol
_atom_site_fract_x
_atom_site_fract_y
_atom_site_fract_z
Zn1	Zn	1.835013	-0.477670	0.678556
Zn2	Zn	2.335013	0.022330	1.178556
Zn3	Zn	1.834924	-0.678410	0.477883
Zn4	Zn	2.334924	-0.178410	0.977883
Zn5	Zn	1.634299	-0.477744	0.477892
Zn6	Zn	2.134299	0.022256	0.977892
Zn7	Zn	1.634328	-0.678314	0.678529
Zn8	Zn	2.134328	-0.178314	1.178529
O9	O	1.734641	-0.578035	0.578215
O10	O	2.234641	-0.078035	1.078215
O11	O	2.002951	-0.504308	0.651944
O12	O	2.502951	-0.004308	1.151944
O13	O	1.808261	-0.651863	0.309934
O14	O	2.308261	-0.151863	0.809934
O15	O	1.660950	-0.309785	0.504525
O16	O	2.160950	0.190215	1.004525
O17	O	2.002885	-0.651791	0.504511
O18	O	2.502885	-0.151791	1.004511
O19	O	1.808413	-0.309730	0.651953
O20	O	2.308413	0.190270	1.151953
O21	O	1.660863	-0.504435	0.309941
O22	O	2.160863	-0.004435	0.809941
O23	O	1.466353	-0.504341	0.504499
O24	O	1.966353	-0.004341	1.004499
O25	O	1.660999	-0.651627	0.846483
O26	O	2.160999	-0.151627	1.346483
O27	O	1.466374	-0.651699	0.651906
O28	O	1.966374	-0.151699	1.151906
O29	O	1.808441	-0.504214	0.846503
O30	O	2.308441	-0.004214	1.346503
O31	O	1.808289	-0.846347	0.504484
O32	O	2.308289	-0.346347	1.004484
O33	O	1.660912	-0.846277	0.651898
O34	O	2.160912	-0.346277	1.151898
C35	C	1.422816	-0.578019	0.578201
C36	C	1.922816	-0.078019	1.078201
C37	C	1.289416	-0.578040	0.578224
C38	C	1.789416	-0.078040	1.078224
C39	C	1.734627	-0.889859	0.578213
C40	C	2.234627	-0.389859	1.078213
C41	C	1.734730	-1.023259	0.578253
C42	C	2.234730	-0.523259	1.078253
C43	C	1.734688	-0.264992	0.578243
C44	C	2.234688	0.235008	1.078243
C45	C	1.734708	-0.131592	0.578255
C46	C	2.234708	0.368408	1.078255
C47	C	2.047683	-0.578052	0.578230
C48	C	2.547683	-0.078052	1.078230
C49	C	2.181083	-0.578059	0.578236
C50	C	2.681083	-0.078059	1.078236
C51	C	1.734733	-0.577901	0.891258
C52	C	2.234733	-0.077901	1.391258
C53	C	1.734772	-0.577845	1.024658
C54	C	2.234772	-0.077845	1.524658
C55	C	1.734618	-0.578081	0.266390
C56	C	2.234618	-0.078081	0.766390
C57	C	1.734811	-0.577800	0.132991
C58	C	2.234811	-0.077800	0.632991
