data_functionalizedCrystal
_audit_creation_method	'MofGen! by Chris Wilmer'
_symmetry_space_group_name_H-M	'P1'
_symmetry_Int_Tables_number	1
_symmetry_cell_setting	triclinic
loop_
_symmetry_equiv_pos_as_xyz
  x,y,z
_cell_length_a	15.995292
_cell_length_b	17.019294
_cell_length_c	14.472310
_cell_angle_alpha	86.119952
_cell_angle_beta	89.985801
_cell_angle_gamma	83.431263
loop_
_atom_site_label
_atom_site_type_symbol
_atom_site_fract_x
_atom_site_fract_y
_atom_site_fract_z
O1	O	1.110907	0.101455	-0.084937
O2	O	1.610907	0.601455	0.415063
O3	O	0.867110	0.114059	-0.085936
O4	O	1.367110	0.614059	0.414064
O5	O	0.995808	-0.007076	-0.076295
O6	O	1.495808	0.492924	0.423705
O7	O	0.982209	0.222591	-0.094578
O8	O	1.482209	0.722591	0.405422
O9	O	0.995775	-0.007069	0.077386
O10	O	1.495775	0.492931	0.577386
O11	O	0.867077	0.114066	0.067745
O12	O	1.367077	0.614066	0.567745
O13	O	1.110874	0.101463	0.068744
O14	O	1.610874	0.601463	0.568744
Cu15	Cu	0.988972	0.107765	0.082277
Cu16	Cu	1.488972	0.607765	0.582277
Cu17	Cu	0.989011	0.107757	-0.099469
Cu18	Cu	1.489011	0.607757	0.400531
O19	O	0.982176	0.222598	0.059103
O20	O	1.482176	0.722598	0.559103
C21	C	0.835899	0.113550	-0.009054
C22	C	1.335899	0.613550	0.490946
C23	C	0.742947	0.112012	-0.008930
C24	C	1.242947	0.612012	0.491070
C25	C	0.405216	0.106358	-0.008491
C26	C	0.905216	0.606358	0.491509
C27	C	0.428425	0.193791	-0.015794
C28	C	0.928425	0.693791	0.484206
C29	C	0.525098	0.195452	-0.015576
C30	C	1.025098	0.695452	0.484424
C31	C	0.572768	0.109164	-0.008709
C32	C	1.072768	0.609164	0.491291
C33	C	0.543699	0.065456	0.082527
C34	C	1.043699	0.565456	0.582527
C35	C	0.446910	0.064403	0.082680
C36	C	0.946910	0.564403	0.582680
C37	C	0.447094	0.062610	-0.091942
C38	C	0.947094	0.562610	0.408058
C39	C	0.543583	0.065850	-0.093356
C40	C	1.043583	0.565850	0.406644
C41	C	0.667462	0.110745	-0.008830
C42	C	1.167462	0.610745	0.491170
C43	C	0.310522	0.104775	-0.008364
C44	C	0.810522	0.604775	0.491636
C45	C	0.995275	-0.036461	0.002883
C46	C	1.495275	0.463539	0.502883
C47	C	0.993727	-0.124031	0.009848
C48	C	1.493727	0.375969	0.509848
C49	C	0.993020	-0.165171	-0.070650
C50	C	1.493020	0.334829	0.429350
C51	C	0.991560	-0.247451	-0.064103
C52	C	1.491560	0.252549	0.435897
C53	C	0.990813	-0.288591	0.022945
C54	C	1.490813	0.211409	0.522945
C55	C	0.991518	-0.247445	0.103449
C56	C	1.491518	0.252555	0.603449
C57	C	0.992972	-0.165166	0.096901
C58	C	1.492972	0.334834	0.596901
C59	C	0.986416	-0.537022	0.046908
C60	C	1.486416	-0.037022	0.546908
C61	C	0.984964	-0.619307	0.053450
C62	C	1.484964	-0.119307	0.553450
C63	C	0.985004	-0.619307	-0.114103
C64	C	1.485004	-0.119307	0.385897
C65	C	0.986464	-0.537027	-0.120643
C66	C	1.486464	-0.037027	0.379357
C67	C	0.987164	-0.495888	-0.040139
C68	C	1.487164	0.004112	0.459861
C69	C	0.989323	-0.372695	0.029639
C70	C	1.489323	0.127305	0.529639
C71	C	0.988648	-0.411784	-0.046834
C72	C	1.488648	0.088216	0.453166
C73	C	1.142085	0.101972	-0.008140
C74	C	1.642085	0.601972	0.491860
C75	C	1.235036	0.103510	-0.008270
C76	C	1.735036	0.603510	0.491730
C77	C	0.982708	0.251983	-0.020077
C78	C	1.482708	0.751983	0.479923
C79	C	0.984257	0.339553	-0.027049
C80	C	1.484257	0.839553	0.472951
N81	N	0.988951	0.107770	0.210108
N82	N	1.488951	0.607770	0.710108
N83	N	0.989040	0.107745	-0.227299
N84	N	1.489040	0.607745	0.272701
C85	C	0.989010	0.107754	0.584200
C86	C	1.489010	0.607754	1.084200
C87	C	0.919916	0.172354	0.539893
C88	C	1.419916	0.672354	1.039893
C89	C	0.920075	0.172589	0.432786
C90	C	1.420075	0.672589	0.932786
C91	C	0.988980	0.107762	0.398608
C92	C	1.488980	0.607762	0.898608
C93	C	1.076326	0.125722	0.436014
C94	C	1.576326	0.625722	0.936014
C95	C	1.075938	0.126181	0.543099
C96	C	1.575938	0.626181	1.043099
C97	C	0.971539	0.025002	0.551317
C98	C	1.471539	0.525002	1.051317
C99	C	0.969534	0.025554	0.444146
C100	C	1.469534	0.525554	0.944146
C101	C	0.988969	0.107765	0.293720
C102	C	1.488969	0.607765	0.793720
C103	C	0.989028	0.107752	0.689088
C104	C	1.489028	0.607752	1.189088
H105	H	0.399353	0.227307	0.044119
H106	H	0.899353	0.727307	0.544119
Cl107	Cl	0.870334	0.004506	0.406636
Cl108	Cl	1.370334	0.504506	0.906636
Cl109	Cl	0.988380	-0.424420	0.139067
Cl110	Cl	1.488380	0.075580	0.639067
Cl111	Cl	0.405425	0.111151	0.180240
Cl112	Cl	0.905425	0.611151	0.680240
Cl113	Cl	0.553435	0.248623	0.077487
Cl114	Cl	1.053435	0.748623	0.577487
H115	H	0.984352	-0.652800	0.124338
H116	H	1.484352	-0.152800	0.624338
H117	H	0.987073	-0.503536	-0.191527
H118	H	1.487073	-0.003536	0.308473
H119	H	0.562129	0.097674	-0.160811
H120	H	1.062129	0.597674	0.339189
H121	H	1.016598	-0.024769	0.421377
H122	H	1.516598	0.475231	0.921377
Cl123	Cl	0.990672	-0.299167	-0.165307
Cl124	Cl	1.490672	0.200833	0.334693
Cl125	Cl	0.574587	0.112325	0.179633
Cl126	Cl	1.074587	0.612325	0.679633
Cl127	Cl	0.984122	-0.671029	-0.215302
Cl128	Cl	1.484122	-0.171029	0.284698
Cl129	Cl	1.157601	0.055010	0.402304
Cl130	Cl	1.657601	0.555010	0.902304
Cl131	Cl	0.424556	-0.034565	0.096766
Cl132	Cl	0.924556	0.465435	0.596766
Cl133	Cl	0.937252	0.267409	0.385653
Cl134	Cl	1.437252	0.767409	0.885653
Cl135	Cl	0.593006	-0.032582	0.095366
Cl136	Cl	1.093006	0.467418	0.595366
H137	H	0.987003	-0.503538	0.112461
H138	H	1.487003	-0.003538	0.612461
H139	H	0.418749	0.089935	-0.160632
H140	H	0.918749	0.589935	0.339368
Cl141	Cl	0.594595	-0.031395	-0.093799
Cl142	Cl	1.094595	0.468605	0.406201
Cl143	Cl	0.819339	0.156099	0.580980
Cl144	Cl	1.319339	0.656099	1.080980
H145	H	1.021927	-0.023071	0.580470
H146	H	1.521927	0.476929	1.080470
H147	H	0.993632	-0.131681	-0.141534
H148	H	1.493632	0.368319	0.358466
H149	H	0.990905	-0.280947	0.174325
H150	H	1.490905	0.219053	0.674325
Cl151	Cl	0.554435	0.248300	-0.116907
Cl152	Cl	1.054435	0.748300	0.383093
Cl153	Cl	0.993860	-0.113447	0.198104
Cl154	Cl	1.493860	0.386553	0.698104
Cl155	Cl	0.936896	0.266635	0.573911
Cl156	Cl	1.436896	0.766635	1.073911
H157	H	0.989250	-0.378284	-0.117708
H158	H	1.489250	0.121716	0.382292
Cl159	Cl	0.819814	0.156124	0.393557
Cl160	Cl	1.319814	0.656124	0.893557
Cl161	Cl	1.099729	0.219356	0.574246
Cl162	Cl	1.599729	0.719356	1.074246
H163	H	1.128953	0.080984	0.572602
H164	H	1.628953	0.580984	1.072602
H165	H	1.092108	0.185384	0.404427
H166	H	1.592108	0.685384	0.904427
H167	H	0.400402	0.227488	-0.081411
H168	H	0.900402	0.727488	0.418589
Cl169	Cl	0.425613	-0.036752	-0.084950
Cl170	Cl	0.925613	0.463248	0.415050
H171	H	0.909234	0.007728	0.579761
H172	H	1.409234	0.507728	1.079761
