data_functionalizedCrystal
_audit_creation_method	'MofGen! by Chris Wilmer'
_symmetry_space_group_name_H-M	'P1'
_symmetry_Int_Tables_number	1
_symmetry_cell_setting	triclinic
loop_
_symmetry_equiv_pos_as_xyz
  x,y,z
_cell_length_a	14.044191
_cell_length_b	15.944493
_cell_length_c	13.101039
_cell_angle_alpha	93.367629
_cell_angle_beta	86.337551
_cell_angle_gamma	88.333410
loop_
_atom_site_label
_atom_site_type_symbol
_atom_site_fract_x
_atom_site_fract_y
_atom_site_fract_z
O1	O	1.262884	0.198294	-0.085140
O2	O	1.512884	0.448294	0.164860
O3	O	1.762884	0.698294	0.414860
O4	O	2.012884	0.948294	0.664860
O5	O	0.986917	0.190980	-0.085154
O6	O	1.236917	0.440980	0.164846
O7	O	1.486917	0.690980	0.414846
O8	O	1.736917	0.940980	0.664846
O9	O	1.132466	0.072925	-0.085155
O10	O	1.382466	0.322925	0.164845
O11	O	1.632466	0.572925	0.414845
O12	O	1.882466	0.822925	0.664845
O13	O	1.117335	0.316349	-0.085139
O14	O	1.367335	0.566349	0.164861
O15	O	1.617335	0.816349	0.414861
O16	O	1.867335	1.066349	0.664861
O17	O	1.122023	0.081411	0.085275
O18	O	1.372023	0.331411	0.335275
O19	O	1.622023	0.581411	0.585275
O20	O	1.872023	0.831411	0.835275
O21	O	0.976474	0.199466	0.085276
O22	O	1.226474	0.449466	0.335276
O23	O	1.476474	0.699466	0.585276
O24	O	1.726474	0.949466	0.835276
O25	O	1.252441	0.206780	0.085290
O26	O	1.502441	0.456780	0.335290
O27	O	1.752441	0.706780	0.585290
O28	O	2.002441	0.956780	0.835290
Zn29	Zn	1.112800	0.204470	0.112343
Zn30	Zn	1.362800	0.454470	0.362343
Zn31	Zn	1.612800	0.704470	0.612343
Zn32	Zn	1.862800	0.954470	0.862343
Zn33	Zn	1.126559	0.193290	-0.112206
Zn34	Zn	1.376559	0.443290	0.137794
Zn35	Zn	1.626559	0.693290	0.387794
Zn36	Zn	1.876559	0.943290	0.637794
O37	O	1.106892	0.324835	0.085291
O38	O	1.356892	0.574835	0.335291
O39	O	1.606892	0.824835	0.585291
O40	O	1.856892	1.074835	0.835291
C41	C	0.946382	0.192023	0.000059
C42	C	1.196382	0.442023	0.250059
C43	C	1.446382	0.692023	0.500059
C44	C	1.696382	0.942023	0.750059
C45	C	0.841158	0.182479	0.000053
C46	C	1.091158	0.432479	0.250053
C47	C	1.341158	0.682479	0.500053
C48	C	1.591158	0.932479	0.750053
C49	C	0.590862	0.232718	0.000067
C50	C	0.840862	0.482718	0.250067
C51	C	1.090862	0.732718	0.500067
C52	C	1.340862	0.982718	0.750067
C53	C	0.648503	0.165045	0.000061
C54	C	0.898503	0.415045	0.250061
C55	C	1.148503	0.665045	0.500061
C56	C	1.398503	0.915045	0.750061
C57	C	0.755706	0.174748	0.000056
C58	C	1.005706	0.424748	0.250056
C59	C	1.255706	0.674748	0.500056
C60	C	1.505706	0.924748	0.750056
C61	C	0.483649	0.223017	0.000071
C62	C	0.733649	0.473017	0.250071
C63	C	0.983649	0.723017	0.500071
C64	C	1.233649	0.973017	0.750071
C65	C	1.126626	0.045827	0.000056
C66	C	1.376626	0.295827	0.250056
C67	C	1.626626	0.545827	0.500056
C68	C	1.876626	0.795827	0.750056
C69	C	1.124773	-0.047561	0.000043
C70	C	1.374773	0.202439	0.250043
C71	C	1.624773	0.452439	0.500043
C72	C	1.874773	0.702439	0.750043
C73	C	1.210445	-0.276903	0.000066
C74	C	1.460445	-0.026903	0.250066
C75	C	1.710445	0.223097	0.500066
C76	C	1.960445	0.473097	0.750066
C77	C	1.169394	-0.335115	-0.083966
C78	C	1.419394	-0.085115	0.166034
C79	C	1.669394	0.164885	0.416034
C80	C	1.919394	0.414885	0.666034
C81	C	1.121337	-0.218539	0.000055
C82	C	1.371337	0.031461	0.250055
C83	C	1.621337	0.281461	0.500055
C84	C	1.871337	0.531461	0.750055
C85	C	1.159077	-0.326727	0.084064
C86	C	1.409077	-0.076727	0.334064
C87	C	1.659077	0.173273	0.584064
C88	C	1.909077	0.423273	0.834064
C89	C	1.118025	-0.383696	0.000071
C90	C	1.368025	-0.133696	0.250071
C91	C	1.618025	0.116304	0.500071
C92	C	1.868025	0.366304	0.750071
C93	C	1.080314	-0.275525	-0.084047
C94	C	1.330314	-0.025525	0.165953
C95	C	1.580314	0.224475	0.415953
C96	C	1.830314	0.474475	0.665953
C97	C	1.070006	-0.267128	0.084059
C98	C	1.320006	-0.017128	0.334059
C99	C	1.570006	0.232872	0.584059
C100	C	1.820006	0.482872	0.834059
C101	C	1.028890	-0.325314	0.000006
C102	C	1.278890	-0.075314	0.250006
C103	C	1.528890	0.174686	0.500006
C104	C	1.778890	0.424686	0.750006
C105	C	1.123248	-0.123397	0.000045
C106	C	1.373248	0.126603	0.250045
C107	C	1.623248	0.376603	0.500045
C108	C	1.873248	0.626603	0.750045
C109	C	1.116107	-0.478836	0.000074
C110	C	1.366107	-0.228836	0.250074
C111	C	1.616107	0.021164	0.500074
C112	C	1.866107	0.271164	0.750074
C113	C	1.292977	0.205737	0.000075
C114	C	1.542977	0.455737	0.250075
C115	C	1.792977	0.705737	0.500075
C116	C	2.042977	0.955737	0.750075
C117	C	1.398201	0.215280	0.000074
C118	C	1.648201	0.465280	0.250074
C119	C	1.898201	0.715280	0.500074
C120	C	2.148201	0.965280	0.750074
C121	C	1.112732	0.351933	0.000078
C122	C	1.362732	0.601933	0.250078
C123	C	1.612732	0.851933	0.500078
C124	C	1.862732	1.101933	0.750078
C125	C	1.114586	0.445321	0.000085
C126	C	1.364586	0.695321	0.250085
C127	C	1.614586	0.945321	0.500085
C128	C	1.864586	1.195321	0.750085
N129	N	1.103416	0.212100	0.265591
N130	N	1.353416	0.462100	0.515591
N131	N	1.603416	0.712100	0.765591
N132	N	1.853416	0.962100	1.015591
N133	N	1.135949	0.185654	-0.265455
N134	N	1.385949	0.435654	-0.015455
N135	N	1.635949	0.685654	0.234545
N136	N	1.885949	0.935654	0.484545
C137	C	1.090650	0.222489	0.474634
C138	C	1.340650	0.472489	0.724634
C139	C	1.590650	0.722489	0.974634
C140	C	1.840650	0.972489	1.224634
C141	C	1.148713	0.175267	0.525509
C142	C	1.398713	0.425267	0.775509
C143	C	1.648713	0.675267	1.025509
C144	C	1.898713	0.925267	1.275509
C145	C	1.141609	0.181048	0.641828
C146	C	1.391609	0.431048	0.891828
C147	C	1.641609	0.681048	1.141828
C148	C	1.891609	0.931048	1.391828
C149	C	1.097752	0.216710	0.358305
C150	C	1.347752	0.466710	0.608305
C151	C	1.597752	0.716710	0.858305
C152	C	1.847752	0.966710	1.108305
H153	H	0.617343	0.099818	-0.000016
H154	H	0.867343	0.349818	0.249984
H155	H	1.117343	0.599818	0.499984
H156	H	1.367343	0.849818	0.749984
H157	H	1.028053	-0.237447	0.155102
H158	H	1.278053	0.012553	0.405102
H159	H	1.528053	0.262553	0.655102
H160	H	1.778053	0.512553	0.905102
H161	H	1.192375	-0.349301	0.155103
H162	H	1.442375	-0.099301	0.405103
H163	H	1.692375	0.150699	0.655103
H164	H	1.942375	0.400699	0.905103
H165	H	1.203757	0.130499	0.481706
H166	H	1.453757	0.380499	0.731706
H167	H	1.703757	0.630499	0.981706
H168	H	1.953757	0.880499	1.231706
N169	N	1.036281	-0.245772	-0.178258
N170	N	1.286281	0.004228	0.071742
N171	N	1.536281	0.254228	0.321742
N172	N	1.786281	0.504228	0.571742
H173	H	1.073552	-0.271150	-0.241648
H174	H	1.323552	-0.021150	0.008352
H175	H	1.573552	0.228850	0.258352
H176	H	1.823552	0.478850	0.508352
H177	H	0.967934	-0.263775	-0.178459
H178	H	1.217934	-0.013775	0.071541
H179	H	1.467934	0.236225	0.321541
H180	H	1.717934	0.486225	0.571541
N181	N	1.017753	0.281798	0.532647
N182	N	1.267753	0.531798	0.782647
N183	N	1.517753	0.781798	1.032647
N184	N	1.767753	1.031798	1.282647
H185	H	0.979992	0.312513	0.482491
H186	H	1.229992	0.562513	0.732491
H187	H	1.479992	0.812513	0.982491
H188	H	1.729992	1.062513	1.232491
H189	H	0.973112	0.248724	0.577168
H190	H	1.223112	0.498724	0.827168
H191	H	1.473112	0.748724	1.077168
H192	H	1.723112	0.998724	1.327168
H193	H	1.287206	-0.255530	-0.000014
H194	H	1.537206	-0.005530	0.249986
H195	H	1.787206	0.244470	0.499986
H196	H	2.037206	0.494470	0.749986
H197	H	0.622024	0.297937	0.000068
H198	H	0.872024	0.547937	0.250068
H199	H	1.122024	0.797937	0.500068
H200	H	1.372024	1.047937	0.750068
H201	H	1.211378	-0.364780	-0.155007
H202	H	1.461378	-0.114780	0.094993
H203	H	1.711378	0.135220	0.344993
H204	H	1.961378	0.385220	0.594993
N205	N	0.927163	-0.353469	-0.000077
N206	N	1.177163	-0.103469	0.249923
N207	N	1.427163	0.146531	0.499923
N208	N	1.677163	0.396531	0.749923
H209	H	0.897527	-0.334816	-0.063586
H210	H	1.147527	-0.084816	0.186414
H211	H	1.397527	0.165184	0.436414
H212	H	1.647527	0.415184	0.686414
H213	H	0.926527	-0.416760	0.000557
H214	H	1.176527	-0.166760	0.250557
H215	H	1.426527	0.083240	0.500557
H216	H	1.676527	0.333240	0.750557
