data_functionalizedCrystal
_audit_creation_method	'MofGen! by Chris Wilmer'
_symmetry_space_group_name_H-M	'P1'
_symmetry_Int_Tables_number	1
_symmetry_cell_setting	triclinic
loop_
_symmetry_equiv_pos_as_xyz
  x,y,z
_cell_length_a	11.169417
_cell_length_b	25.639240
_cell_length_c	11.169417
_cell_angle_alpha	90.021742
_cell_angle_beta	90.000863
_cell_angle_gamma	90.033637
loop_
_atom_site_label
_atom_site_type_symbol
_atom_site_fract_x
_atom_site_fract_y
_atom_site_fract_z
Zn1	Zn	1.834551	-0.208224	0.678424
Zn2	Zn	2.334551	0.291776	1.178424
Zn3	Zn	1.834428	-0.295636	0.477692
Zn4	Zn	2.334428	0.204364	0.977692
Zn5	Zn	1.633903	-0.208218	0.477759
Zn6	Zn	2.133903	0.291782	0.977759
Zn7	Zn	1.633766	-0.295631	0.678336
Zn8	Zn	2.133766	0.204369	1.178336
O9	O	1.734162	-0.251927	0.578053
O10	O	2.234162	0.248073	1.078053
O11	O	2.002484	-0.219824	0.651805
O12	O	2.502484	0.280176	1.151805
O13	O	1.807834	-0.284040	0.309751
O14	O	2.307834	0.215960	0.809751
O15	O	1.660628	-0.135053	0.504442
O16	O	2.160628	0.364947	1.004442
O17	O	2.002394	-0.284045	0.504328
O18	O	2.502394	0.215955	1.004328
O19	O	1.808043	-0.135058	0.651870
O20	O	2.308043	0.364942	1.151870
O21	O	1.660509	-0.219814	0.309800
O22	O	2.160509	0.280186	0.809800
O23	O	1.465935	-0.219809	0.504357
O24	O	1.965935	0.280191	1.004357
O25	O	1.660394	-0.284037	0.846298
O26	O	2.160394	0.215963	1.346298
O27	O	1.465834	-0.284031	0.651721
O28	O	1.965834	0.215969	1.151721
O29	O	1.807910	-0.219819	0.846362
O30	O	2.307910	0.280181	1.346362
O31	O	1.807701	-0.368801	0.504243
O32	O	2.307701	0.131199	1.004243
O33	O	1.660275	-0.368797	0.651656
O34	O	2.160275	0.131203	1.151656
C35	C	1.422337	-0.251919	0.578037
C36	C	1.922337	0.248081	1.078037
C37	C	1.288937	-0.251929	0.578059
C38	C	1.788937	0.248071	1.078059
C39	C	1.733992	-0.387770	0.577959
C40	C	2.233992	0.112230	1.077959
C41	C	1.734029	-0.445884	0.577959
C42	C	2.234029	0.054116	1.077959
C43	C	1.810959	-0.806211	0.654957
C44	C	2.310959	-0.306211	1.154957
C45	C	1.810994	-0.860815	0.654981
C46	C	2.310994	-0.360815	1.154981
O47	O	1.876201	-0.889021	0.720352
O48	O	2.376201	-0.389021	1.220352
N49	N	1.734328	-0.888166	0.578169
N50	N	2.234328	-0.388166	1.078169
C51	C	1.657613	-0.860911	0.501335
C52	C	2.157613	-0.360911	1.001335
O53	O	1.592405	-0.889189	0.436003
O54	O	2.092405	-0.389189	0.936003
C55	C	1.657573	-0.806307	0.501318
C56	C	2.157573	-0.306307	1.001318
C57	C	1.734252	-0.778959	0.578127
C58	C	2.234252	-0.278959	1.078127
C59	C	1.887631	-0.778862	0.731761
C60	C	2.387631	-0.278862	1.231761
C61	C	1.887597	-0.724262	0.731735
C62	C	2.387597	-0.224262	1.231735
C63	C	1.810891	-0.697010	0.654905
C64	C	2.310891	-0.197010	1.154905
C65	C	1.734218	-0.724358	0.578101
C66	C	2.234218	-0.224358	1.078101
C67	C	1.580853	-0.779052	0.424491
C68	C	2.080853	-0.279052	0.924491
C69	C	1.580818	-0.724445	0.424481
C70	C	2.080818	-0.224445	0.924481
C71	C	1.657498	-0.697097	0.501290
C72	C	2.157498	-0.197097	1.001290
C73	C	1.657478	-0.642506	0.501244
C74	C	2.157478	-0.142506	1.001244
N75	N	1.734144	-0.615154	0.578057
N76	N	2.234144	-0.115154	1.078057
C77	C	1.810850	-0.642406	0.654887
C78	C	2.310850	-0.142406	1.154887
C79	C	1.657703	-0.975581	0.501379
C80	C	2.157703	-0.475581	1.001379
C81	C	1.657749	-1.030183	0.501390
C82	C	2.157749	-0.530183	1.001390
C83	C	1.811128	-1.030084	0.655038
C84	C	2.311128	-0.530084	1.155038
C85	C	1.811088	-0.975481	0.655020
C86	C	2.311088	-0.475481	1.155020
C87	C	1.734369	-0.948230	0.578192
C88	C	2.234369	-0.448230	1.078192
C89	C	1.810773	-0.527741	0.654825
C90	C	2.310773	-0.027741	1.154825
C91	C	1.810736	-0.473136	0.654789
C92	C	2.310736	0.026864	1.154789
C93	C	1.657352	-0.473240	0.501146
C94	C	2.157352	0.026760	1.001146
C95	C	1.657394	-0.527841	0.501177
C96	C	2.157394	-0.027841	1.001177
C97	C	1.734108	-0.555090	0.578027
C98	C	2.234108	-0.055090	1.078027
O99	O	1.592301	-0.614265	0.435911
O100	O	2.092301	-0.114265	0.935911
O101	O	1.876036	-0.614121	0.720219
O102	O	2.376036	-0.114121	1.220219
C103	C	2.047204	-0.251936	0.578069
C104	C	2.547204	0.248064	1.078069
C105	C	2.180604	-0.251939	0.578076
C106	C	2.680604	0.248061	1.078076
C107	C	1.734150	-0.251928	0.891095
C108	C	2.234150	0.248072	1.391095
C109	C	1.734145	-0.251928	1.024495
C110	C	2.234145	0.248072	1.524495
C111	C	1.734365	-0.115554	0.578173
C112	C	2.234365	0.384446	1.078173
C113	C	1.734451	-0.057440	0.578225
C114	C	2.234451	0.442560	1.078225
C115	C	1.734159	-0.251936	1.266228
C116	C	2.234159	0.248064	1.766228
C117	C	1.734149	-0.251929	1.132828
C118	C	2.234149	0.248071	1.632828
H119	H	1.873182	-0.450870	0.717336
H120	H	2.373182	0.049130	1.217336
H121	H	1.595321	-1.052446	0.438831
H122	H	2.095321	-0.552446	0.938831
N123	N	1.965968	-0.696335	0.810159
N124	N	2.465968	-0.196335	1.310159
N125	N	2.042481	-0.665863	0.767959
N126	N	2.542481	-0.165863	1.267959
H127	H	2.097852	-0.646146	0.823340
H128	H	2.597852	-0.146146	1.323340
H129	H	1.873233	-0.549921	0.717412
H130	H	2.373233	-0.049921	1.217412
H131	H	1.518412	-0.801310	0.361945
H132	H	2.018412	-0.301310	0.861945
H133	H	1.518340	-0.702260	0.361920
H134	H	2.018340	-0.202260	0.861920
H135	H	1.950095	-0.801045	0.794332
H136	H	2.450095	-0.301045	1.294332
H137	H	1.873526	-0.953217	0.717565
H138	H	2.373526	-0.453217	1.217565
N139	N	1.889482	-1.057935	0.733508
N140	N	2.389482	-0.557935	1.233508
N141	N	1.889497	-1.106688	0.733505
N142	N	2.389497	-0.606688	1.233505
H143	H	1.944833	-1.126360	0.788919
H144	H	2.444833	-0.626360	1.288919
H145	H	1.595233	-0.953396	0.438806
H146	H	2.095233	-0.453396	0.938806
H147	H	1.594965	-0.550109	0.438624
H148	H	2.094965	-0.050109	0.938624
H149	H	1.594902	-0.451043	0.438588
H150	H	2.094902	0.048957	0.938588
