data_functionalizedCrystal
_audit_creation_method	'MofGen! by Chris Wilmer'
_symmetry_space_group_name_H-M	'P1'
_symmetry_Int_Tables_number	1
_symmetry_cell_setting	triclinic
loop_
_symmetry_equiv_pos_as_xyz
  x,y,z
_cell_length_a	19.188925
_cell_length_b	19.188930
_cell_length_c	7.540329
_cell_angle_alpha	90.010644
_cell_angle_beta	90.001414
_cell_angle_gamma	83.143665
loop_
_atom_site_label
_atom_site_type_symbol
_atom_site_fract_x
_atom_site_fract_y
_atom_site_fract_z
O1	O	0.926143	0.087151	0.147540
O2	O	1.426143	0.587151	0.647540
O3	O	0.722831	0.098889	0.147538
O4	O	1.222831	0.598889	0.647538
O5	O	0.830354	-0.008636	0.147505
O6	O	1.330354	0.491364	0.647505
O7	O	0.818620	0.194676	0.147574
O8	O	1.318620	0.694676	0.647574
O9	O	0.830353	-0.008642	-0.147460
O10	O	1.330353	0.491358	0.352540
O11	O	0.722830	0.098883	-0.147427
O12	O	1.222830	0.598883	0.352573
O13	O	0.926142	0.087145	-0.147425
O14	O	1.426142	0.587145	0.352575
Cu15	Cu	0.824486	0.093013	-0.174358
Cu16	Cu	1.324486	0.593013	0.325642
Cu17	Cu	0.824487	0.093020	0.174472
Cu18	Cu	1.324487	0.593020	0.674472
O19	O	0.818619	0.194670	-0.147391
O20	O	1.318619	0.694670	0.352609
C21	C	0.696820	0.098507	0.000055
C22	C	1.196820	0.598507	0.500055
C23	C	0.619315	0.097367	0.000053
C24	C	1.119315	0.597367	0.500053
C25	C	0.057545	0.152831	0.000076
C26	C	0.557545	0.652831	0.500076
C27	C	0.130368	0.153908	0.000086
C28	C	0.630368	0.653908	0.500086
C29	C	0.175302	0.090816	0.000061
C30	C	0.675302	0.590816	0.500061
C31	C	0.147408	0.026642	0.000072
C32	C	0.647408	0.526642	0.500072
C33	C	0.074586	0.025568	0.000080
C34	C	0.574586	0.525568	0.500080
N35	N	0.295979	0.045138	-0.100363
N36	N	0.795979	0.545138	0.399637
N37	N	0.365157	0.046163	-0.100374
N38	N	0.865157	0.546163	0.399626
C39	C	0.394712	0.094050	0.000041
C40	C	0.894712	0.594050	0.500041
N41	N	0.352474	0.140884	0.100446
N42	N	0.852474	0.640884	0.600446
N43	N	0.283291	0.139860	0.100449
N44	N	0.783291	0.639860	0.600449
C45	C	0.254267	0.091974	0.000053
C46	C	0.754267	0.591974	0.500053
C47	C	0.501561	0.159386	0.000053
C48	C	1.001561	0.659386	0.500053
C49	C	0.574385	0.160460	0.000074
C50	C	1.074385	0.660460	0.500074
C51	C	0.591425	0.033193	0.000043
C52	C	1.091425	0.533193	0.500043
C53	C	0.518601	0.032121	0.000040
C54	C	1.018601	0.532121	0.500040
C55	C	0.473673	0.095220	0.000037
C56	C	0.973673	0.595220	0.500037
C57	C	0.829974	-0.034650	0.000017
C58	C	1.329974	0.465350	0.500017
C59	C	0.828833	-0.112154	0.000002
C60	C	1.328833	0.387846	0.500002
C61	C	0.891924	-0.157079	-0.000006
C62	C	1.391924	0.342921	0.499994
C63	C	0.890852	-0.229903	0.000022
C64	C	1.390852	0.270097	0.500022
C65	C	0.826686	-0.257799	0.000023
C66	C	1.326686	0.242201	0.500023
C67	C	0.763587	-0.212864	0.000041
C68	C	1.263587	0.287136	0.500041
C69	C	0.764660	-0.140041	0.000030
C70	C	1.264660	0.359959	0.500030
N71	N	0.777638	-0.365805	-0.100360
N72	N	1.277638	0.134195	0.399640
N73	N	0.776623	-0.434983	-0.100353
N74	N	1.276623	0.065017	0.399647
C75	C	0.823448	-0.477207	0.000059
C76	C	1.323448	0.022793	0.500059
N77	N	0.871338	-0.447641	0.100442
N78	N	1.371338	0.052359	0.600442
N79	N	0.872355	-0.378456	0.100428
N80	N	1.372355	0.121544	0.600428
C81	C	0.825515	-0.336761	0.000036
C82	C	1.325515	0.163239	0.500036
C83	C	0.885381	-0.601097	0.000084
C84	C	1.385381	-0.101097	0.500084
C85	C	0.884307	-0.673922	0.000124
C86	C	1.384307	-0.173922	0.500124
C87	C	0.757040	-0.656880	0.000124
C88	C	1.257040	-0.156880	0.500124
C89	C	0.758116	-0.584057	0.000103
C90	C	1.258116	-0.084057	0.500103
C91	C	0.822289	-0.556170	0.000074
C92	C	1.322289	-0.056170	0.500074
C93	C	0.952154	0.087527	0.000063
C94	C	1.452154	0.587527	0.500063
C95	C	1.029658	0.088666	0.000077
C96	C	1.529658	0.588666	0.500077
C97	C	0.819000	0.220684	0.000100
C98	C	1.319000	0.720684	0.500100
C99	C	0.820140	0.298188	0.000127
C100	C	1.320140	0.798188	0.500127
N101	N	0.824488	0.093020	0.419820
N102	N	1.324488	0.593020	0.919820
N103	N	0.824491	0.093008	-0.419707
N104	N	1.324491	0.593008	0.080293
H105	H	0.020968	0.204211	0.000082
H106	H	0.520968	0.704211	0.500082
H107	H	0.628010	-0.018178	0.000036
H108	H	1.128010	0.481822	0.500036
H109	H	0.944179	-0.134379	-0.000023
H110	H	1.444179	0.365621	0.499977
H111	H	0.704794	-0.679592	0.000134
H112	H	1.204794	-0.179592	0.500134
H113	H	0.706740	-0.547478	0.000099
H114	H	1.206740	-0.047478	0.500099
H115	H	0.711342	-0.235581	0.000045
H116	H	1.211342	0.264419	0.500045
H117	H	0.942230	-0.266488	0.000023
H118	H	1.442230	0.233512	0.500023
H119	H	0.464978	0.210765	0.000054
H120	H	0.964978	0.710765	0.500054
O121	O	0.191125	-0.034599	0.000281
O122	O	0.691125	0.465401	0.500281
C123	C	0.233752	-0.037786	0.153060
C124	C	0.733752	0.462214	0.653060
H125	H	0.237264	0.017625	0.203997
H126	H	0.737264	0.517625	0.703997
H127	H	0.209896	-0.069596	0.260032
H128	H	0.709896	0.430404	0.760032
C129	C	0.303481	-0.141201	0.044073
C130	C	0.803481	0.358799	0.544073
C131	C	0.307800	-0.073145	0.106627
C132	C	0.807800	0.426855	0.606627
H133	H	0.349157	-0.163015	0.015436
H134	H	0.849157	0.336985	0.515436
H135	H	0.274762	-0.139057	-0.058854
H136	H	0.774762	0.360943	0.441146
H137	H	0.283598	-0.167702	0.133227
H138	H	0.783598	0.332298	0.633227
H139	H	0.327675	-0.046643	0.017466
H140	H	0.827675	0.453357	0.517466
H141	H	0.336525	-0.075286	0.209538
H142	H	0.836525	0.424714	0.709538
H143	H	0.597088	0.212713	0.000088
H144	H	1.097088	0.712713	0.500088
H145	H	0.495896	-0.020129	0.000030
H146	H	0.995896	0.479871	0.500030
H147	H	0.713282	-0.103462	0.000036
H148	H	1.213282	0.396538	0.500036
O149	O	0.047578	-0.036809	0.000307
O150	O	0.547578	0.463191	0.500307
C151	C	0.070541	-0.075243	0.153087
C152	C	0.570541	0.424757	0.653087
H153	H	0.120992	-0.056369	0.204024
H154	H	0.620992	0.443631	0.704024
H155	H	0.028374	-0.067022	0.260058
H156	H	0.528374	0.432978	0.760058
C157	C	0.022468	-0.177011	0.044105
C158	C	0.522468	0.322989	0.544105
C159	C	0.084437	-0.153833	0.106658
C160	C	0.584437	0.346167	0.606658
H161	H	0.031037	-0.225490	0.015470
H162	H	0.531037	0.274510	0.515470
H163	H	0.006995	-0.151117	-0.058824
H164	H	0.506995	0.348883	0.441176
H165	H	-0.012665	-0.170154	0.133258
H166	H	0.487335	0.329846	0.633258
H167	H	0.119565	-0.160682	0.017497
H168	H	0.619565	0.339318	0.517497
H169	H	0.099916	-0.179731	0.209571
H170	H	0.599916	0.320269	0.709571
O171	O	0.157350	0.216302	-0.000003
O172	O	0.657350	0.716302	0.499997
C173	C	0.102080	0.271763	0.000047
C174	C	0.602080	0.771763	0.500047
H175	H	0.052664	0.252341	-0.055784
H176	H	0.552664	0.752341	0.444216
H177	H	0.091721	0.291226	0.141556
H178	H	0.591721	0.791226	0.641556
C179	C	0.183145	0.356142	-0.047068
C180	C	0.683145	0.856142	0.452932
C181	C	0.122453	0.332289	-0.115654
C182	C	0.622453	0.832289	0.384346
H183	H	0.195712	0.393479	-0.118429
H184	H	0.695712	0.893479	0.381571
H185	H	0.220382	0.318777	-0.047094
H186	H	0.720382	0.818777	0.452906
H187	H	0.174505	0.372356	0.070856
H188	H	0.674505	0.872356	0.570856
H189	H	0.131097	0.316067	-0.233566
H190	H	0.631097	0.816067	0.266434
H191	H	0.085218	0.369652	-0.115649
H192	H	0.585218	0.869652	0.384351
O193	O	0.947776	-0.574118	0.000167
O194	O	1.447776	-0.074118	0.500167
C195	C	1.003235	-0.629391	0.000147
C196	C	1.503235	-0.129391	0.500147
H197	H	0.983813	-0.678798	0.055994
H198	H	1.483813	-0.178798	0.555994
H199	H	1.022692	-0.639770	-0.141355
H200	H	1.522692	-0.139770	0.358645
C201	C	1.087620	-0.548324	0.047244
C202	C	1.587620	-0.048324	0.547244
C203	C	1.063768	-0.609005	0.115849
C204	C	1.563768	-0.109005	0.615849
H205	H	1.124962	-0.535749	0.118606
H206	H	1.624962	-0.035749	0.618606
H207	H	1.050258	-0.511085	0.047250
H208	H	1.550258	-0.011085	0.547250
H209	H	1.103830	-0.556981	-0.070674
H210	H	1.603830	-0.056981	0.429326
H211	H	1.047551	-0.600345	0.233755
H212	H	1.547551	-0.100345	0.733755
H213	H	1.101129	-0.646242	0.115865
H214	H	1.601129	-0.146242	0.615865
H215	H	0.935686	-0.710500	0.000127
H216	H	1.435686	-0.210500	0.500127
