data_functionalizedCrystal
_audit_creation_method	'MofGen! by Chris Wilmer'
_symmetry_space_group_name_H-M	'P1'
_symmetry_Int_Tables_number	1
_symmetry_cell_setting	triclinic
loop_
_symmetry_equiv_pos_as_xyz
  x,y,z
_cell_length_a	15.944551
_cell_length_b	27.732048
_cell_length_c	15.021413
_cell_angle_alpha	89.999048
_cell_angle_beta	89.997174
_cell_angle_gamma	83.070697
loop_
_atom_site_label
_atom_site_type_symbol
_atom_site_fract_x
_atom_site_fract_y
_atom_site_fract_z
O1	O	1.113714	0.062334	-0.073949
O2	O	1.363714	0.312334	0.176051
O3	O	1.613714	0.562334	0.426051
O4	O	1.863714	0.812334	0.676051
O5	O	0.869064	0.070020	-0.073973
O6	O	1.119064	0.320020	0.176027
O7	O	1.369064	0.570020	0.426027
O8	O	1.619064	0.820020	0.676027
O9	O	0.998987	-0.004187	-0.073943
O10	O	1.248987	0.245813	0.176057
O11	O	1.498987	0.495813	0.426057
O12	O	1.748987	0.745813	0.676057
O13	O	0.983790	0.136541	-0.073979
O14	O	1.233790	0.386541	0.176021
O15	O	1.483790	0.636541	0.426021
O16	O	1.733790	0.886541	0.676021
O17	O	0.998966	-0.004176	0.074121
O18	O	1.248966	0.245824	0.324121
O19	O	1.498966	0.495824	0.574121
O20	O	1.748966	0.745824	0.824121
O21	O	0.869043	0.070030	0.074092
O22	O	1.119043	0.320030	0.324092
O23	O	1.369043	0.570030	0.574092
O24	O	1.619043	0.820030	0.824092
O25	O	1.113693	0.062345	0.074115
O26	O	1.363693	0.312345	0.324115
O27	O	1.613693	0.562345	0.574115
O28	O	1.863693	0.812345	0.824115
Zn29	Zn	0.991365	0.066189	0.097612
Zn30	Zn	1.241365	0.316189	0.347612
Zn31	Zn	1.491365	0.566189	0.597612
Zn32	Zn	1.741365	0.816189	0.847612
Zn33	Zn	0.991392	0.066175	-0.097469
Zn34	Zn	1.241392	0.316175	0.152531
Zn35	Zn	1.491392	0.566175	0.402531
Zn36	Zn	1.741392	0.816175	0.652531
O37	O	0.983770	0.136551	0.074086
O38	O	1.233770	0.386551	0.324086
O39	O	1.483770	0.636551	0.574086
O40	O	1.733770	0.886551	0.824086
C41	C	0.837763	0.069706	0.000057
C42	C	1.087763	0.319706	0.250057
C43	C	1.337763	0.569706	0.500057
C44	C	1.587763	0.819706	0.750057
C45	C	0.744530	0.068749	0.000049
C46	C	0.994530	0.318749	0.250049
C47	C	1.244530	0.568749	0.500049
C48	C	1.494530	0.818749	0.750049
C49	C	0.998658	-0.022190	0.000091
C50	C	1.248658	0.227810	0.250091
C51	C	1.498658	0.477810	0.500091
C52	C	1.748658	0.727810	0.750091
C53	C	0.997697	-0.075849	0.000099
C54	C	1.247697	0.174151	0.250099
C55	C	1.497697	0.424151	0.500099
C56	C	1.747697	0.674151	0.750099
C57	C	0.530305	0.020466	0.000078
C58	C	0.780305	0.270466	0.250078
C59	C	1.030305	0.520466	0.500078
C60	C	1.280305	0.770466	0.750078
C61	C	0.469001	0.042882	-0.072931
C62	C	0.719001	0.292882	0.177069
C63	C	0.969001	0.542882	0.427069
C64	C	1.219001	0.792882	0.677069
C65	C	0.573827	0.067019	0.000060
C66	C	0.823827	0.317019	0.250060
C67	C	1.073827	0.567019	0.500060
C68	C	1.323827	0.817019	0.750060
C69	C	0.469003	0.042904	0.073049
C70	C	0.719003	0.292904	0.323049
C71	C	0.969003	0.542904	0.573049
C72	C	1.219003	0.792904	0.823049
C73	C	0.408936	0.065344	0.000074
C74	C	0.658936	0.315344	0.250074
C75	C	0.908936	0.565344	0.500074
C76	C	1.158936	0.815344	0.750074
C77	C	0.513752	0.089448	-0.073010
C78	C	0.763752	0.339448	0.176990
C79	C	1.013752	0.589448	0.426990
C80	C	1.263752	0.839448	0.676990
C81	C	0.513760	0.089463	0.073036
C82	C	0.763760	0.339463	0.323036
C83	C	1.013760	0.589463	0.573036
C84	C	1.263760	0.839463	0.823036
C85	C	0.452474	0.111912	0.000009
C86	C	0.702474	0.361912	0.250009
C87	C	0.952474	0.611912	0.500009
C88	C	1.202474	0.861912	0.750009
C89	C	0.668816	0.067983	0.000051
C90	C	0.918816	0.317983	0.250051
C91	C	1.168816	0.567983	0.500051
C92	C	1.418816	0.817983	0.750051
C93	C	0.313947	0.064384	0.000077
C94	C	0.563947	0.314384	0.250077
C95	C	0.813947	0.564384	0.500077
C96	C	1.063947	0.814384	0.750077
C97	C	1.068426	-0.414358	0.000060
C98	C	1.318426	-0.164358	0.250060
C99	C	1.568426	0.085642	0.500060
C100	C	1.818426	0.335642	0.750060
C101	C	1.064862	-0.616033	0.000047
C102	C	1.314862	-0.366033	0.250047
C103	C	1.564862	-0.116033	0.500047
C104	C	1.814862	0.133967	0.750047
O105	O	1.129539	-0.647008	0.000014
O106	O	1.379539	-0.397008	0.250014
O107	O	1.629539	-0.147008	0.500014
O108	O	1.879539	0.102992	0.750014
N109	N	0.987823	-0.635490	0.000040
N110	N	1.237823	-0.385490	0.250040
N111	N	1.487823	-0.135490	0.500040
N112	N	1.737823	0.114510	0.750040
C113	C	0.911669	-0.604525	0.000031
C114	C	1.161669	-0.354525	0.250031
C115	C	1.411669	-0.104525	0.500031
C116	C	1.661669	0.145475	0.750031
O117	O	0.846061	-0.625703	0.000016
O118	O	1.096061	-0.375703	0.250016
O119	O	1.346061	-0.125703	0.500016
O120	O	1.596061	0.124297	0.750016
C121	C	0.915234	-0.402851	0.000038
C122	C	1.165234	-0.152851	0.250038
C123	C	1.415234	0.097149	0.500038
C124	C	1.665234	0.347149	0.750038
C125	C	0.992278	-0.383397	0.000053
C126	C	1.242278	-0.133397	0.250053
C127	C	1.492278	0.116603	0.500053
C128	C	1.742278	0.366603	0.750053
C129	C	1.145464	-0.394903	0.000074
C130	C	1.395464	-0.144903	0.250074
C131	C	1.645464	0.105097	0.500074
C132	C	1.895464	0.355097	0.750074
C133	C	1.146354	-0.344487	0.000082
C134	C	1.396354	-0.094487	0.250082
C135	C	1.646354	0.155513	0.500082
C136	C	1.896354	0.405513	0.750082
C137	C	1.070206	-0.313526	0.000076
C138	C	1.320206	-0.063526	0.250076
C139	C	1.570206	0.186474	0.500076
C140	C	1.820206	0.436474	0.750076
C141	C	0.993168	-0.332981	0.000061
C142	C	1.243168	-0.082981	0.250061
C143	C	1.493168	0.167019	0.500061
C144	C	1.743168	0.417019	0.750061
C145	C	0.839081	-0.371887	0.000022
C146	C	1.089081	-0.121887	0.250022
C147	C	1.339081	0.128113	0.500022
C148	C	1.589081	0.378113	0.750022
C149	C	0.839979	-0.321466	0.000021
C150	C	1.089979	-0.071466	0.250021
C151	C	1.339979	0.178534	0.500021
C152	C	1.589979	0.428534	0.750021
C153	C	0.917024	-0.302012	0.000037
C154	C	1.167024	-0.052012	0.250037
C155	C	1.417024	0.197988	0.500037
C156	C	1.667024	0.447988	0.750037
C157	C	0.917911	-0.251604	0.000063
C158	C	1.167911	-0.001604	0.250063
C159	C	1.417911	0.248396	0.500063
C160	C	1.667911	0.498396	0.750063
N161	N	0.994950	-0.232147	0.000069
N162	N	1.244950	0.017853	0.250069
N163	N	1.494950	0.267853	0.500069
N164	N	1.744950	0.517853	0.750069
C165	C	1.071098	-0.263108	0.000076
C166	C	1.321098	-0.013108	0.250076
C167	C	1.571098	0.236892	0.500076
C168	C	1.821098	0.486892	0.750076
C169	C	0.909803	-0.710408	0.000030
C170	C	1.159803	-0.460408	0.250030
C171	C	1.409803	-0.210408	0.500030
C172	C	1.659803	0.039592	0.750030
C173	C	0.908912	-0.760826	0.000030
C174	C	1.158912	-0.510826	0.250030
C175	C	1.408912	-0.260826	0.500030
C176	C	1.658912	-0.010826	0.750030
C177	C	1.062105	-0.772330	0.000044
C178	C	1.312105	-0.522330	0.250044
C179	C	1.562105	-0.272330	0.500044
C180	C	1.812105	-0.022330	0.750044
C181	C	1.062995	-0.721911	0.000050
C182	C	1.312995	-0.471911	0.250050
C183	C	1.562995	-0.221911	0.500050
C184	C	1.812995	0.028089	0.750050
C185	C	0.986842	-0.690950	0.000036
C186	C	1.236842	-0.440950	0.250036
C187	C	1.486842	-0.190950	0.500036
C188	C	1.736842	0.059050	0.750036
C189	C	1.072961	-0.157231	0.000093
C190	C	1.322961	0.092769	0.250093
C191	C	1.572961	0.342769	0.500093
C192	C	1.822961	0.592769	0.750093
C193	C	1.073845	-0.106810	0.000105
C194	C	1.323845	0.143190	0.250105
C195	C	1.573845	0.393190	0.500105
C196	C	1.823845	0.643190	0.750105
C197	C	0.920652	-0.095310	0.000086
C198	C	1.170652	0.154690	0.250086
C199	C	1.420652	0.404690	0.500086
C200	C	1.670652	0.654690	0.750086
C201	C	0.919768	-0.145727	0.000079
C202	C	1.169768	0.104273	0.250079
C203	C	1.419768	0.354273	0.500079
C204	C	1.669768	0.604273	0.750079
C205	C	0.995930	-0.176686	0.000080
C206	C	1.245930	0.073314	0.250080
C207	C	1.495930	0.323314	0.500080
C208	C	1.745930	0.573314	0.750080
O209	O	0.853269	-0.220600	0.000085
O210	O	1.103269	0.029400	0.250085
O211	O	1.353269	0.279400	0.500085
O212	O	1.603269	0.529400	0.750085
O213	O	1.136697	-0.241921	0.000071
O214	O	1.386697	0.008079	0.250071
O215	O	1.636697	0.258079	0.500071
O216	O	1.886697	0.508079	0.750071
C217	C	1.067536	-0.464774	0.000052
C218	C	1.317536	-0.214774	0.250052
C219	C	1.567536	0.035226	0.500052
C220	C	1.817536	0.285226	0.750052
C221	C	0.990498	-0.484228	0.000037
C222	C	1.240498	-0.234228	0.250037
C223	C	1.490498	0.015772	0.500037
C224	C	1.740498	0.265772	0.750037
C225	C	0.914350	-0.453268	0.000031
C226	C	1.164350	-0.203268	0.250031
C227	C	1.414350	0.046732	0.500031
C228	C	1.664350	0.296732	0.750031
C229	C	0.989607	-0.534647	0.000037
C230	C	1.239607	-0.284647	0.250037
C231	C	1.489607	-0.034647	0.500037
C232	C	1.739607	0.215353	0.750037
C233	C	1.065754	-0.565608	0.000044
C234	C	1.315754	-0.315608	0.250044
C235	C	1.565754	-0.065608	0.500044
C236	C	1.815754	0.184392	0.750044
C237	C	1.142794	-0.546150	0.000050
C238	C	1.392794	-0.296150	0.250050
C239	C	1.642794	-0.046150	0.500050
C240	C	1.892794	0.203850	0.750050
C241	C	1.143684	-0.495734	0.000058
C242	C	1.393684	-0.245734	0.250058
C243	C	1.643684	0.004266	0.500058
C244	C	1.893684	0.254266	0.750058
C245	C	0.837311	-0.472725	0.000024
C246	C	1.087311	-0.222725	0.250024
C247	C	1.337311	0.027275	0.500024
C248	C	1.587311	0.277275	0.750024
C249	C	0.836427	-0.523141	0.000017
C250	C	1.086427	-0.273141	0.250017
C251	C	1.336427	-0.023141	0.500017
C252	C	1.586427	0.226859	0.750017
C253	C	0.912575	-0.554102	0.000023
C254	C	1.162575	-0.304102	0.250023
C255	C	1.412575	-0.054102	0.500023
C256	C	1.662575	0.195898	0.750023
C257	C	1.144993	0.062658	0.000084
C258	C	1.394993	0.312658	0.250084
C259	C	1.644993	0.562658	0.500084
C260	C	1.894993	0.812658	0.750084
C261	C	1.238227	0.063615	0.000086
C262	C	1.488227	0.313615	0.250086
C263	C	1.738227	0.563615	0.500086
C264	C	1.988227	0.813615	0.750086
C265	C	0.984099	0.154554	0.000049
C266	C	1.234099	0.404554	0.250049
C267	C	1.484099	0.654554	0.500049
C268	C	1.734099	0.904554	0.750049
C269	C	0.985059	0.208213	0.000036
C270	C	1.235059	0.458213	0.250036
C271	C	1.485059	0.708213	0.500036
C272	C	1.735059	0.958213	0.750036
N273	N	0.991352	0.066198	0.230749
N274	N	1.241352	0.316198	0.480749
N275	N	1.491352	0.566198	0.730749
N276	N	1.741352	0.816198	0.980749
N277	N	0.991411	0.066162	-0.230607
N278	N	1.241411	0.316162	0.019393
N279	N	1.491411	0.566162	0.269393
N280	N	1.741411	0.816162	0.519393
C281	C	0.931267	0.100495	0.470419
C282	C	1.181267	0.350495	0.720419
C283	C	1.431267	0.600495	0.970419
C284	C	1.681267	0.850495	1.220419
C285	C	1.007044	0.109879	0.529758
C286	C	1.257044	0.359879	0.779758
C287	C	1.507044	0.609879	1.029758
C288	C	1.757044	0.859879	1.279758
C289	C	0.991374	0.066186	0.412356
C290	C	1.241374	0.316186	0.662356
C291	C	1.491374	0.566186	0.912356
C292	C	1.741374	0.816186	1.162356
C293	C	0.915617	0.056813	0.529759
C294	C	1.165617	0.306813	0.779759
C295	C	1.415617	0.556813	1.029759
C296	C	1.665617	0.806813	1.279759
C297	C	0.991388	0.066176	0.587780
C298	C	1.241388	0.316176	0.837780
C299	C	1.491388	0.566176	1.087780
C300	C	1.741388	0.816176	1.337780
C301	C	1.067190	0.075592	0.470389
C302	C	1.317190	0.325592	0.720389
C303	C	1.567190	0.575592	0.970389
C304	C	1.817190	0.825592	1.220389
C305	C	0.975712	0.022507	0.470385
C306	C	1.225712	0.272507	0.720385
C307	C	1.475712	0.522507	0.970385
C308	C	1.725712	0.772507	1.220385
C309	C	1.051545	0.031872	0.529697
C310	C	1.301545	0.281872	0.779697
C311	C	1.551545	0.531872	1.029697
C312	C	1.801545	0.781872	1.279697
C313	C	0.991365	0.066194	0.311299
C314	C	1.241365	0.316194	0.561299
C315	C	1.491365	0.566194	0.811299
C316	C	1.741365	0.816194	1.061299
C317	C	0.991406	0.066168	0.688836
C318	C	1.241406	0.316168	0.938836
C319	C	1.491406	0.566168	1.188836
C320	C	1.741406	0.816168	1.438836
H321	H	0.564143	-0.018169	-0.000003
H322	H	0.814143	0.231831	0.249997
H323	H	1.064143	0.481831	0.499997
H324	H	1.314143	0.731831	0.749997
H325	H	0.962429	-0.014416	0.444285
H326	H	1.212429	0.235584	0.694285
H327	H	1.462429	0.485584	0.944285
H328	H	1.712429	0.735584	1.194285
F329	F	0.443065	0.017142	-0.153598
F330	F	0.693065	0.267142	0.096402
F331	F	0.943065	0.517142	0.346402
F332	F	1.193065	0.767142	0.596402
H333	H	0.533625	0.109141	0.134753
H334	H	0.783625	0.359141	0.384753
H335	H	1.033625	0.609141	0.634753
H336	H	1.283625	0.859141	0.884753
H337	H	0.851544	0.048890	0.555840
H338	H	1.101544	0.298890	0.805840
H339	H	1.351544	0.548890	1.055840
H340	H	1.601544	0.798890	1.305840
H341	H	1.102437	0.002852	0.555561
H342	H	1.352437	0.252852	0.805561
H343	H	1.602437	0.502852	1.055561
H344	H	1.852437	0.752852	1.305561
H345	H	0.418809	0.150587	-0.000042
H346	H	0.668809	0.400587	0.249958
H347	H	0.918809	0.650587	0.499958
H348	H	1.168809	0.900587	0.749958
F349	F	1.154021	-0.190173	0.000094
F350	F	1.404021	0.059827	0.250094
F351	F	1.654021	0.309827	0.500094
F352	F	1.904021	0.559827	0.750094
F353	F	1.150956	0.086005	0.436449
F354	F	1.400956	0.336005	0.686449
F355	F	1.650956	0.586005	0.936449
F356	F	1.900956	0.836005	1.186449
F357	F	1.143147	-0.805289	0.000049
F358	F	1.393147	-0.555289	0.250049
F359	F	1.643147	-0.305289	0.500049
F360	F	1.893147	-0.055289	0.750049
H361	H	0.449166	0.023209	0.134770
H362	H	0.699166	0.273209	0.384770
H363	H	0.949166	0.523209	0.634770
H364	H	1.199166	0.773209	0.884770
H365	H	0.847786	-0.685203	0.000018
H366	H	1.097786	-0.435203	0.250018
H367	H	1.347786	-0.185203	0.500018
H368	H	1.597786	0.064797	0.750018
F369	F	1.024377	0.158154	0.563847
F370	F	1.274377	0.408154	0.813847
F371	F	1.524377	0.658154	1.063847
F372	F	1.774377	0.908154	1.313847
F373	F	0.539548	0.115159	-0.153776
F374	F	0.789548	0.365159	0.096224
F375	F	1.039548	0.615159	0.346224
F376	F	1.289548	0.865159	0.596224
F377	F	1.155849	-0.086108	0.000121
F378	F	1.405849	0.163892	0.250121
F379	F	1.655849	0.413892	0.500121
F380	F	1.905849	0.663892	0.750121
H381	H	1.209091	-0.328652	0.000091
H382	H	1.459091	-0.078652	0.250091
H383	H	1.709091	0.171348	0.500091
H384	H	1.959091	0.421348	0.750091
F385	F	1.226518	-0.427847	0.000081
F386	F	1.476518	-0.177847	0.250081
F387	F	1.726518	0.072153	0.500081
F388	F	1.976518	0.322153	0.750081
F389	F	0.839614	-0.062351	0.000080
F390	F	1.089614	0.187649	0.250080
F391	F	1.339614	0.437649	0.500080
F392	F	1.589614	0.687649	0.750080
H393	H	0.846175	-0.776661	0.000032
H394	H	1.096175	-0.526661	0.250032
H395	H	1.346175	-0.276661	0.500032
H396	H	1.596175	-0.026661	0.750032
F397	F	1.144995	-0.701210	0.000066
F398	F	1.394995	-0.451210	0.250066
F399	F	1.644995	-0.201210	0.500066
F400	F	1.894995	0.048790	0.750066
H401	H	0.776344	-0.387718	0.000004
H402	H	1.026344	-0.137718	0.250004
H403	H	1.276344	0.112282	0.500004
H404	H	1.526344	0.362282	0.750004
H405	H	0.777965	-0.296260	0.000009
H406	H	1.027965	-0.046260	0.250009
H407	H	1.277965	0.203740	0.500009
H408	H	1.527965	0.453740	0.750009
H409	H	1.206421	-0.479900	0.000071
H410	H	1.456421	-0.229900	0.250071
H411	H	1.706421	0.020100	0.500071
H412	H	1.956421	0.270100	0.750071
F413	F	0.837770	-0.166432	0.000079
F414	F	1.087770	0.083568	0.250079
F415	F	1.337770	0.333568	0.500079
F416	F	1.587770	0.583568	0.750079
F417	F	1.223836	-0.579110	0.000062
F418	F	1.473836	-0.329110	0.250062
F419	F	1.723836	-0.079110	0.500062
F420	F	1.973836	0.170890	0.750062
F421	F	0.754420	-0.543840	0.000006
F422	F	1.004420	-0.293840	0.250006
F423	F	1.254420	-0.043840	0.500006
F424	F	1.504420	0.206160	0.750006
H425	H	0.880487	0.129533	0.444392
H426	H	1.130487	0.379533	0.694392
H427	H	1.380487	0.629533	0.944392
H428	H	1.630487	0.879533	1.194392
F429	F	0.756259	-0.439780	0.000014
F430	F	1.006259	-0.189780	0.250014
F431	F	1.256259	0.060220	0.500014
F432	F	1.506259	0.310220	0.750014
