data_functionalizedCrystal
_audit_creation_method	'MofGen! by Chris Wilmer'
_symmetry_space_group_name_H-M	'P1'
_symmetry_Int_Tables_number	1
_symmetry_cell_setting	triclinic
loop_
_symmetry_equiv_pos_as_xyz
  x,y,z
_cell_length_a	17.699092
_cell_length_b	19.288862
_cell_length_c	17.766277
_cell_angle_alpha	89.973950
_cell_angle_beta	90.003535
_cell_angle_gamma	96.789174
loop_
_atom_site_label
_atom_site_type_symbol
_atom_site_fract_x
_atom_site_fract_y
_atom_site_fract_z
O1	O	0.094407	-0.921469	0.062882
O2	O	0.594407	-0.421469	0.562882
O3	O	0.107146	-0.719223	0.062819
O4	O	0.607146	-0.219223	0.562819
O5	O	-0.009420	-0.826057	0.062851
O6	O	0.490580	-0.326057	0.562851
O7	O	0.210973	-0.814635	0.062850
O8	O	0.710973	-0.314635	0.562850
O9	O	-0.009424	-0.826038	-0.062338
O10	O	0.490576	-0.326038	0.437662
O11	O	0.107142	-0.719204	-0.062369
O12	O	0.607142	-0.219204	0.437631
O13	O	0.094404	-0.921450	-0.062307
O14	O	0.594404	-0.421450	0.437693
Cu15	Cu	0.100773	-0.820325	-0.073769
Cu16	Cu	0.600773	-0.320325	0.426231
Cu17	Cu	0.100777	-0.820348	0.074281
Cu18	Cu	0.600777	-0.320348	0.574281
O19	O	0.210970	-0.814616	-0.062338
O20	O	0.710970	-0.314616	0.437662
C21	C	0.106734	-0.693337	0.000217
C22	C	0.606734	-0.193337	0.500217
C23	C	0.105505	-0.616231	0.000193
C24	C	0.605505	-0.116231	0.500193
C25	C	0.173900	-0.571618	0.000203
C26	C	0.673900	-0.071618	0.500203
C27	C	0.172745	-0.499169	0.000207
C28	C	0.672745	0.000831	0.500207
C29	C	0.103191	-0.471338	0.000217
C30	C	0.603191	0.028662	0.500217
C31	C	0.034786	-0.515961	0.000203
C32	C	0.534786	-0.015961	0.500203
C33	C	0.035943	-0.588408	0.000191
C34	C	0.535943	-0.088408	0.500191
C35	C	0.048515	-0.363016	0.044096
C36	C	0.548515	0.136984	0.544096
C37	C	0.047361	-0.290570	0.044112
C38	C	0.547361	0.209430	0.544112
C39	C	0.099619	-0.247887	0.000251
C40	C	0.599619	0.252113	0.500251
C41	C	0.153044	-0.277658	-0.043618
C42	C	0.653044	0.222342	0.456382
C43	C	0.154202	-0.350105	-0.043630
C44	C	0.654202	0.149895	0.456370
C45	C	0.101928	-0.392782	0.000230
C46	C	0.601928	0.107218	0.500230
C47	C	0.166767	-0.124716	0.000264
C48	C	0.666767	0.375284	0.500264
C49	C	0.165609	-0.052267	0.000264
C50	C	0.665609	0.447733	0.500264
C51	C	0.027648	-0.069060	0.000268
C52	C	0.527648	0.430940	0.500268
C53	C	0.028808	-0.141508	0.000260
C54	C	0.528808	0.358492	0.500260
C55	C	0.098369	-0.169331	0.000262
C56	C	0.598369	0.330669	0.500262
C57	C	-0.037618	-0.825637	0.000257
C58	C	0.462382	-0.325637	0.500257
C59	C	-0.121634	-0.824406	0.000260
C60	C	0.378366	-0.324406	0.500260
C61	C	-0.161099	-0.823840	0.068501
C62	C	0.338901	-0.323840	0.568501
C63	C	-0.240041	-0.822679	0.068502
C64	C	0.259959	-0.322679	0.568502
C65	C	-0.279516	-0.822090	0.000261
C66	C	0.220484	-0.322090	0.500261
C67	C	-0.240046	-0.822654	-0.067985
C68	C	0.259954	-0.322654	0.432015
C69	C	-0.161105	-0.823810	-0.067985
C70	C	0.338895	-0.323810	0.432015
C71	C	-0.558404	-0.817991	-0.067988
C72	C	-0.058404	-0.317991	0.432012
C73	C	-0.637351	-0.816838	-0.067983
C74	C	-0.137351	-0.316838	0.432017
C75	C	-0.637340	-0.816861	0.068499
C76	C	-0.137340	-0.316861	0.568499
C77	C	-0.558399	-0.818017	0.068499
C78	C	-0.058399	-0.318017	0.568499
C79	C	-0.518935	-0.818577	0.000254
C80	C	-0.018935	-0.318577	0.500254
C81	C	-0.433337	-0.819835	0.000254
C82	C	0.066663	-0.319835	0.500254
C83	C	-0.365113	-0.820837	0.000260
C84	C	0.134887	-0.320837	0.500260
C85	C	0.239168	-0.815036	0.000257
C86	C	0.739168	-0.315036	0.500257
C87	C	0.323184	-0.816266	0.000259
C88	C	0.823184	-0.316266	0.500259
N89	N	0.100770	-0.820314	-0.177899
N90	N	0.600770	-0.320314	0.322101
C91	C	0.094817	0.052664	0.000284
C92	C	0.594817	0.552664	0.500284
C93	C	0.096054	-0.024440	0.000273
C94	C	0.596054	0.475560	0.500273
C95	C	0.146560	-0.862357	-0.217266
C96	C	0.646560	-0.362357	0.282734
C97	C	0.146558	-0.862368	-0.296068
C98	C	0.646558	-0.362368	0.203932
C99	C	0.100774	-0.820323	-0.335500
C100	C	0.600774	-0.320323	0.164500
C101	C	0.054974	-0.778278	-0.296123
C102	C	0.554974	-0.278278	0.203877
C103	C	0.054972	-0.778273	-0.217323
C104	C	0.554972	-0.278273	0.282677
C105	C	0.098860	-0.757708	-0.460378
C106	C	0.598860	-0.257708	0.039622
C107	C	0.098868	-0.757711	-0.539177
C108	C	0.598868	-0.257711	-0.039177
C109	C	0.100776	-0.820338	-0.578546
C110	C	0.600776	-0.320338	-0.078546
C111	C	0.102693	-0.882962	-0.539106
C112	C	0.602693	-0.382962	-0.039106
C113	C	0.102691	-0.882957	-0.460306
C114	C	0.602691	-0.382957	0.039694
C115	C	0.100771	-0.820324	-0.420945
C116	C	0.600771	-0.320324	0.079055
C117	C	0.146567	-0.862396	-0.703359
C118	C	0.646567	-0.362396	-0.203359
C119	C	0.146560	-0.862408	-0.782162
C120	C	0.646560	-0.362408	-0.282162
C121	C	0.054980	-0.778312	-0.782216
C122	C	0.554980	-0.278312	-0.282216
C123	C	0.054983	-0.778306	-0.703414
C124	C	0.554983	-0.278306	-0.203414
C125	C	0.100781	-0.820347	-0.663990
C126	C	0.600781	-0.320347	-0.163990
N127	N	0.100774	-0.820364	0.178412
N128	N	0.600774	-0.320364	0.678412
H129	H	0.221307	-0.015942	0.000268
H130	H	0.721307	0.484058	0.500268
H131	H	0.104250	-0.933948	-0.428197
H132	H	0.604250	-0.433948	0.071803
O133	O	-0.118534	-0.824428	-0.141587
O134	O	0.381466	-0.324428	0.358413
H135	H	-0.159246	-0.823832	-0.189040
H136	H	0.340754	-0.323832	0.310960
H137	H	-0.669489	-0.816356	-0.123557
H138	H	-0.169489	-0.316356	0.376443
O139	O	0.211815	-0.382203	-0.090960
O140	O	0.711815	0.117797	0.409040
H141	H	0.248035	-0.410885	-0.053989
H142	H	0.748035	0.089115	0.446011
H143	H	0.195598	-0.242907	-0.079334
H144	H	0.695598	0.257093	0.420666
O145	O	0.005558	-0.732942	-0.174861
O146	O	0.505558	-0.232942	0.325139
H147	H	0.013238	-0.740012	-0.113443
H148	H	0.513238	-0.240012	0.386557
H149	H	-0.526262	-0.818500	0.124068
H150	H	-0.026262	-0.318500	0.624068
H151	H	-0.526284	-0.818462	-0.123558
H152	H	-0.026284	-0.318462	0.376442
O153	O	0.248924	-0.601630	0.000183
O154	O	0.748924	-0.101630	0.500183
H155	H	0.296290	-0.558431	0.000179
H156	H	0.796290	-0.058431	0.500179
O157	O	0.195945	-0.907763	-0.824626
O158	O	0.695945	-0.407763	-0.324626
H159	H	0.236708	-0.874399	-0.860552
H160	H	0.736708	-0.374399	-0.360552
H161	H	0.017700	-0.744079	-0.814321
H162	H	0.517700	-0.244079	-0.314321
O163	O	-0.282589	-0.822040	0.142113
O164	O	0.217411	-0.322040	0.642113
H165	H	-0.274353	-0.869585	0.174865
H166	H	0.225647	-0.369585	0.674865
O167	O	0.195960	-0.907741	-0.660834
O168	O	0.695960	-0.407741	-0.160834
H169	H	0.188276	-0.900666	-0.599425
H170	H	0.688276	-0.400666	-0.099425
O171	O	-0.047371	-0.039046	0.000275
O172	O	0.452629	0.460954	0.500275
H173	H	-0.080220	-0.056945	-0.050756
H174	H	0.419780	0.443055	0.449244
O175	O	-0.282615	-0.822016	-0.141593
O176	O	0.217385	-0.322016	0.358407
H177	H	-0.274361	-0.869553	-0.174302
H178	H	0.225639	-0.369553	0.325698
H179	H	-0.026887	-0.177834	0.000257
H180	H	0.473113	0.322166	0.500257
O181	O	0.246517	-0.451036	0.000226
O182	O	0.746517	0.048964	0.500226
H183	H	0.295080	-0.482555	0.000230
H184	H	0.795080	0.017445	0.500230
H185	H	-0.669480	-0.816401	0.124068
H186	H	-0.169480	-0.316401	0.624068
O187	O	0.096756	-0.690161	-0.417924
O188	O	0.596756	-0.190161	0.082076
H189	H	0.097051	-0.700680	-0.356504
H190	H	0.597051	-0.200680	0.143496
H191	H	0.003862	-0.266336	0.079836
H192	H	0.503862	0.233664	0.579836
O193	O	-0.007848	-0.409051	0.091411
O194	O	0.492152	0.090949	0.591411
H195	H	-0.045182	-0.376179	0.121926
H196	H	0.454818	0.123821	0.621926
H197	H	0.183850	-0.896593	-0.185172
H198	H	0.683850	-0.396593	0.314828
O199	O	0.195955	-0.907710	-0.338543
O200	O	0.695955	-0.407710	0.161457
H201	H	0.227804	-0.936938	-0.297890
H202	H	0.727804	-0.436938	0.202110
H203	H	0.104251	-0.933958	-0.571158
H204	H	0.604251	-0.433958	-0.071158
O205	O	-0.040232	-0.485943	0.000210
O206	O	0.459768	0.014057	0.500210
H207	H	-0.087600	-0.529141	0.000194
H208	H	0.412400	-0.029141	0.500194
O209	O	-0.037828	-0.636534	0.000185
O210	O	0.462172	-0.136534	0.500185
H211	H	-0.086391	-0.605013	0.000194
H212	H	0.413609	-0.105013	0.500194
O213	O	0.005600	-0.732958	-0.660939
O214	O	0.505600	-0.232958	-0.160939
H215	H	0.022225	-0.677416	-0.676082
H216	H	0.522225	-0.177416	-0.176082
O217	O	0.241789	-0.154735	0.000251
O218	O	0.741789	0.345265	0.500251
H219	H	0.289156	-0.111537	0.000244
H220	H	0.789156	0.388463	0.500244
O221	O	0.096662	-0.690190	-0.581715
O222	O	0.596662	-0.190190	-0.081715
H223	H	0.095267	-0.646651	-0.541103
H224	H	0.595267	-0.146651	-0.041103
O225	O	0.005594	-0.732924	-0.338646
O226	O	0.505594	-0.232924	0.161354
H227	H	0.013295	-0.739984	-0.400056
H228	H	0.513295	-0.239984	0.099944
O229	O	-0.118521	-0.824470	0.142105
O230	O	0.381479	-0.324470	0.642105
H231	H	-0.159228	-0.823873	0.189556
H232	H	0.340772	-0.323873	0.689556
