data_functionalizedCrystal
_audit_creation_method	'MofGen! by Chris Wilmer'
_symmetry_space_group_name_H-M	'P1'
_symmetry_Int_Tables_number	1
_symmetry_cell_setting	triclinic
loop_
_symmetry_equiv_pos_as_xyz
  x,y,z
_cell_length_a	11.792241
_cell_length_b	27.732048
_cell_length_c	10.868271
_cell_angle_alpha	89.989927
_cell_angle_beta	89.999893
_cell_angle_gamma	83.418036
loop_
_atom_site_label
_atom_site_type_symbol
_atom_site_fract_x
_atom_site_fract_y
_atom_site_fract_z
O1	O	1.504789	0.066248	-0.102217
O2	O	1.174230	0.073076	-0.102248
O3	O	1.349776	-0.000675	-0.102208
O4	O	1.329243	0.139999	-0.102257
O5	O	1.349762	-0.000678	0.102437
O6	O	1.174215	0.073073	0.102397
O7	O	1.504775	0.066245	0.102427
Zn8	Zn	1.339493	0.069659	0.134904
Zn9	Zn	1.339512	0.069662	-0.134724
O10	O	1.329229	0.139996	0.102388
C11	C	1.131945	0.072645	0.000071
C12	C	1.005973	0.071362	0.000061
C13	C	0.775336	0.069001	0.000097
C14	C	0.903679	0.070313	0.000077
C15	C	1.349338	-0.018686	0.000118
C16	C	1.348040	-0.072348	0.000128
C17	C	1.443606	-0.410609	0.000073
C18	C	1.438790	-0.612297	0.000055
O19	O	1.526178	-0.643045	0.000010
N20	N	1.334698	-0.632024	0.000047
C21	C	1.231803	-0.601327	0.000035
O22	O	1.143157	-0.622734	0.000015
C23	C	1.236620	-0.399640	0.000044
C24	C	1.340718	-0.379915	0.000065
C25	C	1.547695	-0.390884	0.000093
C26	C	1.548898	-0.340465	0.000104
C27	C	1.446011	-0.309771	0.000095
C28	C	1.341921	-0.329496	0.000076
C29	C	1.133726	-0.368943	0.000023
C30	C	1.134940	-0.318519	0.000022
C31	C	1.239038	-0.298794	0.000043
C32	C	1.240237	-0.248384	0.000079
N33	N	1.344328	-0.228656	0.000087
C34	C	1.447215	-0.259350	0.000095
C35	C	1.229282	-0.707215	0.000033
C36	C	1.228077	-0.757637	0.000033
C37	C	1.435065	-0.768603	0.000051
C38	C	1.436268	-0.718181	0.000060
C39	C	1.333374	-0.687488	0.000041
C40	C	1.449733	-0.153466	0.000120
C41	C	1.450927	-0.103042	0.000136
C42	C	1.243941	-0.092080	0.000111
C43	C	1.242746	-0.142500	0.000102
C44	C	1.345652	-0.173192	0.000102
O45	O	1.152896	-0.217607	0.000111
O46	O	1.535849	-0.237933	0.000088
C47	C	1.442403	-0.461028	0.000062
C48	C	1.338313	-0.480753	0.000043
C49	C	1.235426	-0.450060	0.000034
C50	C	1.337108	-0.531175	0.000043
C51	C	1.439996	-0.561868	0.000051
C52	C	1.544087	-0.542141	0.000059
C53	C	1.545290	-0.491722	0.000070
C54	C	1.131334	-0.469787	0.000026
C55	C	1.130140	-0.520207	0.000016
C56	C	1.233027	-0.550900	0.000024
C57	C	1.547059	0.066676	0.000106
C58	C	1.673032	0.067959	0.000108
C59	C	1.329667	0.158007	0.000059
C60	C	1.330965	0.211669	0.000041
N61	N	1.339488	0.069656	0.318918
N62	N	1.339525	0.069662	-0.318738
C63	C	1.339506	0.069661	0.569924
C64	C	1.339492	0.069660	0.430246
H65	H	1.535700	-0.086985	0.000156
H66	H	1.157981	-0.158560	0.000119
O67	O	1.549798	-0.183207	0.000179
C68	C	1.755226	-0.188749	0.000140
C69	C	1.641989	-0.155013	0.000092
H70	H	1.829792	-0.165968	0.000044
H71	H	1.759915	-0.212627	0.085801
H72	H	1.759795	-0.212632	-0.085486
H73	H	1.637344	-0.131099	0.085660
H74	H	1.637347	-0.131167	-0.085626
O75	O	1.144032	-0.062239	-0.000118
C76	C	1.025339	0.001089	-0.106127
C77	C	1.138513	-0.032688	-0.106022
H78	H	1.020850	0.024997	-0.191728
H79	H	0.950679	-0.021641	-0.106223
H80	H	1.020737	0.024942	-0.020445
H81	H	1.143227	-0.056547	-0.191690
H82	H	1.213120	-0.009929	-0.105862
H83	H	1.631483	-0.415870	0.000095
O84	O	1.028910	-0.539284	-0.000057
C85	C	0.823737	-0.523071	-0.000026
C86	C	0.938292	-0.501404	0.000043
H87	H	0.750442	-0.492456	0.000080
H88	H	0.817928	-0.546375	-0.085700
H89	H	0.818039	-0.546429	0.085587
H90	H	0.944066	-0.478024	-0.085513
H91	H	0.944052	-0.478128	0.085773
O92	O	1.644063	-0.571942	0.000281
C93	C	1.820630	-0.596748	0.106262
C94	C	1.707447	-0.562976	0.106188
H95	H	1.871919	-0.589504	0.191865
H96	H	1.801943	-0.636181	0.106329
H97	H	1.871857	-0.589536	0.020582
H98	H	1.656164	-0.570144	0.191853
H99	H	1.726215	-0.523554	0.106057
H100	H	1.633666	-0.324410	0.000116
O101	O	1.646341	-0.472508	-0.000084
C102	C	1.767885	-0.421974	-0.106133
C103	C	1.653387	-0.443687	-0.106093
H104	H	1.773629	-0.398676	-0.191845
H105	H	1.773649	-0.398618	-0.020546
H106	H	1.841184	-0.452588	-0.106071
H107	H	1.580023	-0.413105	-0.106198
H108	H	1.647723	-0.467056	-0.191672
O109	O	1.537488	-0.699102	0.000013
C110	C	1.742662	-0.715315	0.000101
C111	C	1.628106	-0.736982	0.000131
H112	H	1.815956	-0.745930	0.000223
H113	H	1.748488	-0.691998	-0.085566
H114	H	1.748341	-0.691971	0.085721
H115	H	1.622350	-0.760348	-0.085430
H116	H	1.622328	-0.760271	0.085855
H117	H	1.518839	-0.793603	0.000058
O118	O	1.129219	-0.677472	0.000081
C119	C	0.923791	-0.671930	0.000004
C120	C	1.037028	-0.705666	-0.000030
H121	H	0.849225	-0.694711	-0.000111
H122	H	0.919092	-0.648065	0.085669
H123	H	0.919233	-0.648033	-0.085618
H124	H	1.041662	-0.729593	0.085534
H125	H	1.041680	-0.729497	-0.085752
H126	H	1.047549	-0.444801	0.000016
O127	O	1.127027	-0.776851	-0.000140
C128	C	1.005506	-0.827372	-0.106221
C129	C	1.120000	-0.805657	-0.106154
H130	H	0.999777	-0.850658	-0.191938
H131	H	0.999733	-0.850742	-0.020639
H132	H	0.932204	-0.796760	-0.106171
H133	H	1.193368	-0.836237	-0.106247
H134	H	1.125674	-0.782275	-0.191729
O135	O	1.034911	-0.288753	-0.000158
C136	C	0.858411	-0.263925	-0.106244
C137	C	0.971636	-0.297669	-0.106182
H138	H	0.807232	-0.271114	-0.191968
H139	H	0.807050	-0.271148	-0.020669
H140	H	0.877172	-0.224502	-0.106175
H141	H	0.952979	-0.337104	-0.106293
H142	H	1.022963	-0.290404	-0.191749
H143	H	1.048958	-0.384994	-0.000001
