data_functionalizedCrystal
_audit_creation_method	'MofGen! by Chris Wilmer'
_symmetry_space_group_name_H-M	'P1'
_symmetry_Int_Tables_number	1
_symmetry_cell_setting	triclinic
loop_
_symmetry_equiv_pos_as_xyz
  x,y,z
_cell_length_a	13.032831
_cell_length_b	12.645330
_cell_length_c	13.032268
_cell_angle_alpha	82.850170
_cell_angle_beta	89.113023
_cell_angle_gamma	82.817539
loop_
_atom_site_label
_atom_site_type_symbol
_atom_site_fract_x
_atom_site_fract_y
_atom_site_fract_z
Zn1	Zn	1.498542	-0.715935	0.780840
Zn2	Zn	1.998542	-0.215935	1.280840
Zn3	Zn	1.520298	-0.873883	0.608861
Zn4	Zn	2.020298	-0.373883	1.108861
Zn5	Zn	1.348397	-0.671650	0.587081
Zn6	Zn	1.848397	-0.171650	1.087081
Zn7	Zn	1.326546	-0.868151	0.758987
Zn8	Zn	1.826546	-0.368151	1.258987
O9	O	1.423446	-0.782405	0.683942
O10	O	1.923446	-0.282405	1.183942
O11	O	1.645351	-0.757820	0.776288
O12	O	2.145351	-0.257820	1.276288
O13	O	1.515745	-0.830921	0.462055
O14	O	2.015745	-0.330921	0.962055
O15	O	1.368353	-0.529186	0.612814
O16	O	1.868353	-0.029186	1.112814
O17	O	1.661335	-0.873863	0.649936
O18	O	2.161335	-0.373863	1.149936
O19	O	1.478665	-0.561723	0.755168
O20	O	1.978665	-0.061723	1.255168
O21	O	1.389449	-0.682341	0.446053
O22	O	1.889449	-0.182341	0.946053
O23	O	1.201576	-0.676784	0.591623
O24	O	1.701576	-0.176784	1.091623
O25	O	1.331112	-0.864094	0.905802
O26	O	1.831112	-0.364094	1.405802
O27	O	1.185522	-0.821152	0.717922
O28	O	1.685522	-0.321152	1.217922
O29	O	1.457477	-0.752262	0.921858
O30	O	1.957477	-0.252262	1.421858
O31	O	1.494557	-1.021461	0.628745
O32	O	1.994557	-0.521461	1.128745
O33	O	1.352208	-1.017250	0.739042
O34	O	1.852208	-0.517250	1.239042
C35	C	1.156231	-0.743541	0.650038
C36	C	1.656231	-0.243541	1.150038
C37	C	1.041913	-0.726944	0.635559
C38	C	1.541913	-0.226944	1.135559
C39	C	1.423397	-1.057824	0.683911
C40	C	1.923397	-0.557824	1.183911
C41	C	1.423466	-1.175668	0.683945
C42	C	1.923466	-0.675668	1.183945
C43	C	0.983042	-0.791068	0.691499
C44	C	1.483042	-0.291068	1.191499
C45	C	0.864888	-0.773915	0.676535
C46	C	1.364888	-0.273915	1.176535
C47	C	1.512911	-1.345800	0.614380
C48	C	2.012911	-0.845800	1.114380
C49	C	1.513145	-1.223299	0.614607
C50	C	2.013145	-0.723299	1.114607
C51	C	1.439086	-1.236505	0.796075
C52	C	1.939086	-0.736505	1.296075
C53	C	1.439769	-1.359147	0.795732
C54	C	1.939769	-0.859147	1.295732
C55	C	1.318235	-1.324073	0.642444
C56	C	1.818235	-0.824073	1.142444
C57	C	1.319065	-1.201271	0.640079
C58	C	1.819065	-0.701271	1.140079
C59	C	1.691704	-0.821421	0.717979
C60	C	2.191704	-0.321421	1.217979
C61	C	1.806019	-0.838047	0.732484
C62	C	2.306019	-0.338047	1.232484
C63	C	1.389430	-0.812479	0.952190
C64	C	1.889430	-0.312479	1.452190
C65	C	1.374935	-0.825295	1.066501
C66	C	1.874935	-0.325295	1.566501
C67	C	1.423520	-0.505916	0.683999
C68	C	1.923520	-0.005916	1.183999
C69	C	1.423551	-0.388094	0.684024
C70	C	1.923551	0.111906	1.184024
C71	C	1.457388	-0.752380	0.416746
C72	C	1.957388	-0.252380	0.916746
C73	C	1.472083	-0.739295	0.302461
C74	C	1.972083	-0.239295	0.802461
C75	C	1.430995	-0.775676	1.125408
C76	C	1.930995	-0.275676	1.625408
C77	C	1.416015	-0.788920	1.243555
C78	C	1.916015	-0.288920	1.743555
H79	H	1.020114	-0.858662	0.750474
H80	H	1.520114	-0.358662	1.250474
H81	H	1.004840	-0.659342	0.576591
H82	H	1.504840	-0.159342	1.076591
N83	N	1.502327	-1.168041	0.505050
N84	N	2.002327	-0.668041	1.005050
H85	H	1.497362	-1.223224	0.456172
H86	H	1.997362	-0.723224	0.956172
H87	H	1.564655	-1.129429	0.486587
H88	H	2.064655	-0.629429	0.986587
H89	H	0.827820	-0.706308	0.617564
H90	H	1.327820	-0.206308	1.117564
N91	N	0.855103	-0.927591	0.810613
N92	N	1.355103	-0.427591	1.310613
H93	H	0.932551	-0.927153	0.810233
H94	H	1.432551	-0.427153	1.310233
H95	H	0.838416	-0.998769	0.792124
H96	H	1.338416	-0.498769	1.292124
N97	N	1.356316	-1.396965	0.867792
N98	N	1.856316	-0.896965	1.367792
H99	H	1.370119	-1.381148	0.940044
H100	H	1.870119	-0.881148	1.440044
H101	H	1.356152	-1.476843	0.868045
H102	H	1.856152	-0.976843	1.368045
H103	H	1.356918	-0.841202	1.280584
H104	H	1.856918	-0.341202	1.780584
H105	H	1.514708	-1.219839	0.829971
H106	H	2.014708	-0.719839	1.329971
H107	H	1.531167	-0.686998	1.265432
H108	H	2.031167	-0.186998	1.765432
N109	N	1.616834	-1.202594	0.652494
N110	N	2.116834	-0.702594	1.152494
H111	H	1.617419	-1.122840	0.652796
H112	H	2.117419	-0.622840	1.152796
H113	H	1.673076	-1.230660	0.605113
H114	H	2.173076	-0.730660	1.105113
H115	H	1.504994	-1.363653	0.531462
H116	H	2.004994	-0.863653	1.031462
N117	N	1.616072	-1.404645	0.651900
N118	N	2.116072	-0.904645	1.151900
H119	H	1.605174	-1.458580	0.713815
H120	H	2.105174	-0.958580	1.213815
H121	H	1.661426	-1.351439	0.672135
H122	H	2.161426	-0.851439	1.172135
N123	N	1.541201	-1.415745	0.840239
N124	N	2.041201	-0.915745	1.340239
H125	H	1.585050	-1.360949	0.859897
H126	H	2.085050	-0.860949	1.359897
H127	H	1.578880	-1.457603	0.786927
H128	H	2.078880	-0.957603	1.286927
H129	H	1.315842	-0.877572	1.103534
H130	H	1.815842	-0.377572	1.603534
H131	H	1.375385	-1.206078	0.849946
H132	H	1.875385	-0.706078	1.349946
H133	H	1.490077	-0.723386	1.088373
H134	H	1.990077	-0.223386	1.588373
H135	H	1.301375	-1.342468	0.561384
H136	H	1.801375	-0.842468	1.061384
H137	H	1.307039	-1.160088	0.557493
H138	H	1.807039	-0.660088	1.057493
N139	N	1.227585	-1.156724	0.700850
N140	N	1.727585	-0.656724	1.200850
H141	H	1.252633	-1.119153	0.757938
H142	H	1.752633	-0.619153	1.257938
H143	H	1.188875	-1.217396	0.731891
H144	H	1.688875	-0.717396	1.231891
N145	N	1.230261	-1.359765	0.709403
N146	N	1.730261	-0.859765	1.209403
H147	H	1.258429	-1.417115	0.766392
H148	H	1.758429	-0.917115	1.266392
H149	H	1.180091	-1.389654	0.665802
H150	H	1.680091	-0.889654	1.165802
