data_functionalizedCrystal
_audit_creation_method	'MofGen! by Chris Wilmer'
_symmetry_space_group_name_H-M	'P1'
_symmetry_Int_Tables_number	1
_symmetry_cell_setting	triclinic
loop_
_symmetry_equiv_pos_as_xyz
  x,y,z
_cell_length_a	6.817900
_cell_length_b	9.514072
_cell_length_c	14.858572
_cell_angle_alpha	90.776379
_cell_angle_beta	104.524003
_cell_angle_gamma	118.843421
loop_
_atom_site_label
_atom_site_type_symbol
_atom_site_fract_x
_atom_site_fract_y
_atom_site_fract_z
V1	V	-4.123443	-0.223218	-0.290692
O2	O	-4.021919	0.009686	-0.284409
O3	O	-4.158163	-0.441603	-0.289425
O4	O	-4.078948	-0.220240	-0.417144
O5	O	-4.101682	-0.213208	-0.155806
V6	V	-4.595795	-0.195306	-0.274471
O7	O	-4.409207	-0.284445	-0.326274
O8	O	-4.760229	-0.134079	-0.238889
O9	O	-4.337869	0.023079	-0.275738
O10	O	-4.814717	-0.428210	-0.280754
O11	O	-4.734954	-0.205315	-0.409357
O12	O	-4.417084	-0.198283	-0.148019
C13	C	-4.023258	-0.494826	-0.285025
C14	C	-4.132958	-0.673362	-0.284832
C15	C	-3.922210	-0.212454	-0.447942
C16	C	-3.967663	-0.211465	-0.551322
C17	C	-4.134027	-0.207850	-0.929878
C18	C	-4.087731	-0.208856	-0.824552
C19	C	-4.050847	-0.209659	-0.740604
C20	C	-4.004547	-0.210662	-0.635271
C21	C	-4.136119	0.076294	-0.280135
C22	C	-4.005658	0.254828	-0.280334
C23	C	-4.237166	-0.206074	-0.117216
C24	C	-4.170948	-0.207055	-0.013835
H25	H	-3.812720	-0.670054	-0.276585
N26	N	-4.375002	-0.767611	-0.289520
N27	N	-4.466798	-0.917387	-0.289393
H28	H	-4.637740	-0.983953	-0.292703
