data_functionalizedCrystal
_audit_creation_method	'MofGen! by Chris Wilmer'
_symmetry_space_group_name_H-M	'P1'
_symmetry_Int_Tables_number	1
_symmetry_cell_setting	triclinic
loop_
_symmetry_equiv_pos_as_xyz
  x,y,z
_cell_length_a	29.839134
_cell_length_b	21.295419
_cell_length_c	21.295411
_cell_angle_alpha	89.995824
_cell_angle_beta	89.965732
_cell_angle_gamma	89.996921
loop_
_atom_site_label
_atom_site_type_symbol
_atom_site_fract_x
_atom_site_fract_y
_atom_site_fract_z
Zn1	Zn	0.686897	-0.250767	-0.356151
Zn2	Zn	0.686865	-0.356019	-0.250908
Zn3	Zn	0.611764	-0.250758	-0.250878
Zn4	Zn	0.611779	-0.355993	-0.356122
O5	O	0.649326	-0.303384	-0.303515
O6	O	0.749760	-0.264744	-0.342215
O7	O	0.676882	-0.342063	-0.162815
O8	O	0.621737	-0.162670	-0.264842
O9	O	0.749736	-0.342072	-0.264894
O10	O	0.676938	-0.162677	-0.342186
O11	O	0.621706	-0.264728	-0.162793
O12	O	0.548899	-0.264703	-0.264814
O13	O	0.621764	-0.342027	-0.444216
O14	O	0.548910	-0.342019	-0.342137
O15	O	0.676953	-0.264718	-0.444237
O16	O	0.676897	-0.444105	-0.264866
O17	O	0.621732	-0.444086	-0.342166
C18	C	0.532604	-0.303358	-0.303470
C19	C	0.482669	-0.303361	-0.303465
C20	C	0.649325	-0.466936	-0.303530
C21	C	0.649366	-0.536904	-0.303558
C22	C	0.649363	-0.303371	-0.467705
C23	C	0.649379	-0.303365	-0.537673
C24	C	0.173041	-0.343702	-0.343727
C25	C	-0.014632	-0.343720	-0.343755
O26	O	-0.038884	-0.377989	-0.377961
N27	N	-0.038116	-0.303407	-0.303562
C28	C	-0.014679	-0.263085	-0.263362
O29	O	-0.038960	-0.228792	-0.229181
C30	C	0.172993	-0.263064	-0.263338
C31	C	0.196475	-0.303384	-0.303529
C32	C	0.196523	-0.384018	-0.383916
C33	C	0.243438	-0.384015	-0.383906
C34	C	0.266872	-0.343697	-0.343708
C35	C	0.243390	-0.303381	-0.303519
C36	C	0.196430	-0.222739	-0.223142
C37	C	0.243351	-0.222736	-0.223140
C38	C	0.266832	-0.263056	-0.263331
C39	C	0.313740	-0.263061	-0.263311
N40	N	0.337224	-0.303373	-0.303504
C41	C	0.313790	-0.343691	-0.343703
C42	C	-0.113209	-0.263099	-0.263377
C43	C	-0.160127	-0.263105	-0.263382
C44	C	-0.160077	-0.343739	-0.343776
C45	C	-0.113158	-0.343736	-0.343768
C46	C	-0.089725	-0.303412	-0.303570
C47	C	0.412316	-0.343684	-0.343679
C48	C	0.459235	-0.343679	-0.343663
C49	C	0.459181	-0.263043	-0.263272
C50	C	0.412266	-0.263049	-0.263284
C51	C	0.388834	-0.303372	-0.303493
O52	O	0.338020	-0.228804	-0.229129
O53	O	0.338079	-0.377969	-0.377889
C54	C	0.126126	-0.343704	-0.343737
C55	C	0.102644	-0.303389	-0.303549
C56	C	0.126078	-0.263071	-0.263351
C57	C	0.055726	-0.303394	-0.303554
C58	C	0.032292	-0.343713	-0.343752
C59	C	0.055776	-0.384025	-0.383945
C60	C	0.102692	-0.384023	-0.383936
C61	C	0.102594	-0.222758	-0.223158
C62	C	0.055678	-0.222764	-0.223170
C63	C	0.032245	-0.263083	-0.263368
C64	C	0.766505	-0.303412	-0.303561
C65	C	0.816439	-0.303423	-0.303581
C66	C	0.649339	-0.139194	-0.303514
C67	C	0.649345	-0.069226	-0.303513
C68	C	0.620610	-0.036355	-0.263245
C69	C	0.620610	0.029388	-0.263253
C70	C	0.649352	0.062257	-0.303521
C71	C	0.678088	0.029378	-0.343797
C72	C	0.678085	-0.036364	-0.343793
N73	N	0.688683	0.165470	-0.308370
N74	N	0.688685	0.227921	-0.308371
C75	C	0.649363	0.260331	-0.303538
N76	N	0.610038	0.227931	-0.298692
N77	N	0.610037	0.165474	-0.298688
C78	C	0.649359	0.133542	-0.303531
C79	C	0.620626	0.364488	-0.263276
C80	C	0.620624	0.430232	-0.263288
C81	C	0.678107	0.430220	-0.343829
C82	C	0.678104	0.364478	-0.343820
C83	C	0.649364	0.331616	-0.303540
C84	C	0.678115	-0.263109	-0.570552
C85	C	0.678114	-0.263081	-0.636295
C86	C	0.649383	-0.303322	-0.669156
C87	C	0.620642	-0.343581	-0.636269
C88	C	0.620640	-0.343603	-0.570528
N89	N	0.645936	-0.358389	-0.772387
N90	N	0.645941	-0.358367	-0.834839
C91	C	0.649386	-0.303258	-0.867231
N92	N	0.652835	-0.248171	-0.834812
N93	N	0.652833	-0.248195	-0.772355
C94	C	0.649381	-0.303303	-0.740441
C95	C	0.678122	-0.262969	-0.971395
C96	C	0.678118	-0.262940	-1.037139
C97	C	0.620648	-0.343446	-1.037112
C98	C	0.620649	-0.343469	-0.971370
C99	C	0.649389	-0.303231	-0.938515
C100	C	0.649315	-0.303352	-0.139963
C101	C	0.649386	-0.303180	-0.069996
H102	H	0.393243	-0.376516	-0.376422
C103	C	0.269264	-0.428376	-0.428105
H104	H	0.300564	-0.422613	-0.422342
H105	H	0.261598	-0.419239	-0.470419
H106	H	0.261566	-0.470655	-0.418810
C107	C	0.589015	0.466390	-0.218990
H108	H	0.571903	0.437400	-0.194998
H109	H	0.569445	0.492039	-0.243060
H110	H	0.606201	0.492033	-0.191572
H111	H	0.597250	-0.376204	-1.063867
C112	C	0.709699	0.065528	-0.388099
H113	H	0.726809	0.036532	-0.412087
H114	H	0.729272	0.091173	-0.364037
H115	H	0.692513	0.091172	-0.415521
H116	H	0.701505	0.337714	-0.376607
H117	H	-0.094135	-0.230261	-0.230640
H118	H	0.701516	-0.230343	-0.543806
C119	C	0.170610	-0.178382	-0.178936
H120	H	0.191292	-0.154367	-0.155005
H121	H	0.152294	-0.202412	-0.151467
H122	H	0.152320	-0.150988	-0.203067
H123	H	0.597253	-0.376254	-0.944600
C124	C	0.709726	-0.218700	-0.935252
H125	H	0.726834	-0.194711	-0.964252
H126	H	0.729300	-0.242787	-0.909627
H127	H	0.692536	-0.191277	-0.909588
H128	H	0.177448	-0.416850	-0.416654
H129	H	0.597207	-0.063107	-0.230447
H130	H	0.597210	0.056156	-0.230461
C131	C	0.709698	-0.072523	-0.388084
H132	H	0.726818	-0.043535	-0.412067
H133	H	0.692519	-0.098170	-0.415502
H134	H	0.729268	-0.098168	-0.364003
H135	H	0.478352	-0.376515	-0.376392
C136	C	0.029854	-0.178409	-0.178958
H137	H	0.050534	-0.154394	-0.155023
H138	H	0.011536	-0.202441	-0.151493
H139	H	0.011565	-0.151014	-0.203091
C140	C	0.589012	0.328334	-0.218976
H141	H	0.593129	0.284472	-0.224734
H142	H	0.558829	0.339110	-0.228177
H143	H	0.595580	0.339109	-0.176683
C144	C	0.709728	-0.218803	-0.672469
H145	H	0.726846	-0.194845	-0.643486
H146	H	0.692550	-0.191361	-0.698097
H147	H	0.729300	-0.242890	-0.698132
H148	H	0.597247	-0.376344	-0.663029
C149	C	0.029993	-0.428372	-0.428164
H150	H	-0.001311	-0.422591	-0.422413
H151	H	0.037677	-0.470655	-0.418891
H152	H	0.037702	-0.419214	-0.470475
C153	C	0.709722	0.466368	-0.388124
H154	H	0.705611	0.510230	-0.382357
H155	H	0.703158	0.455595	-0.430415
H156	H	0.739906	0.455589	-0.378917
C157	C	0.589036	-0.387896	-0.534360
H158	H	0.571926	-0.411863	-0.563344
H159	H	0.569463	-0.363826	-0.508687
H160	H	0.606226	-0.415338	-0.508742
H161	H	-0.179242	-0.230279	-0.230648
C162	C	0.709733	-0.218664	-1.073308
H163	H	0.705617	-0.224410	-1.117168
H164	H	0.739915	-0.227898	-1.062559
H165	H	0.703167	-0.176366	-1.062520
C166	C	-0.185860	-0.388084	-0.387998
H167	H	-0.217165	-0.382305	-0.382245
H168	H	-0.178175	-0.430368	-0.378729
H169	H	-0.178152	-0.378922	-0.430308
C170	C	0.269124	-0.178378	-0.178922
H171	H	0.248417	-0.154371	-0.154987
H172	H	0.287437	-0.150985	-0.203042
H173	H	0.287414	-0.202416	-0.151448
C174	C	-0.087333	-0.388082	-0.387982
H175	H	-0.108013	-0.412090	-0.411924
H176	H	-0.069037	-0.415473	-0.363863
H177	H	-0.069022	-0.364036	-0.415450
H178	H	0.393146	-0.230219	-0.230556
H179	H	0.478269	-0.230219	-0.230541
H180	H	0.121807	-0.416855	-0.416664
H181	H	0.121669	-0.189925	-0.190423
