data_functionalizedCrystal
_audit_creation_method	'MofGen! by Chris Wilmer'
_symmetry_space_group_name_H-M	'P1'
_symmetry_Int_Tables_number	1
_symmetry_cell_setting	triclinic
loop_
_symmetry_equiv_pos_as_xyz
  x,y,z
_cell_length_a	19.077105
_cell_length_b	16.959454
_cell_length_c	16.959455
_cell_angle_alpha	90.005969
_cell_angle_beta	92.303322
_cell_angle_gamma	87.716588
loop_
_atom_site_label
_atom_site_type_symbol
_atom_site_fract_x
_atom_site_fract_y
_atom_site_fract_z
Zn1	Zn	1.075912	-0.363466	0.495441
Zn2	Zn	1.409245	-0.030133	0.828774
Zn3	Zn	1.742579	0.303201	1.162108
Zn4	Zn	1.075861	-0.495608	0.363268
Zn5	Zn	1.409194	-0.162275	0.696602
Zn6	Zn	1.742527	0.171059	1.029935
Zn7	Zn	0.958241	-0.358130	0.357973
Zn8	Zn	1.291575	-0.024797	0.691306
Zn9	Zn	1.624908	0.308536	1.024639
Zn10	Zn	0.958192	-0.490285	0.490101
Zn11	Zn	1.291526	-0.156951	0.823435
Zn12	Zn	1.624859	0.176382	1.156768
O13	O	1.017052	-0.426872	0.426696
O14	O	1.350385	-0.093539	0.760029
O15	O	1.683718	0.239794	1.093362
O16	O	1.174396	-0.385456	0.482359
O17	O	1.507729	-0.052122	0.815692
O18	O	1.841062	0.281211	1.149026
O19	O	1.060257	-0.477366	0.251955
O20	O	1.393591	-0.144033	0.585288
O21	O	1.726924	0.189300	0.918622
O22	O	0.973893	-0.248229	0.376227
O23	O	1.307226	0.085104	0.709560
O24	O	1.640559	0.418437	1.042893
O25	O	1.174358	-0.482540	0.385252
O26	O	1.507691	-0.149207	0.718586
O27	O	1.841025	0.184127	1.051919
O28	O	1.060345	-0.252149	0.477224
O29	O	1.393678	0.081184	0.810557
O30	O	1.727012	0.414517	1.143891
O31	O	0.973843	-0.376362	0.248064
O32	O	1.307176	-0.043029	0.581398
O33	O	1.640509	0.290305	0.914731
O34	O	0.859744	-0.371200	0.371049
O35	O	1.193078	-0.037867	0.704382
O36	O	1.526411	0.295467	1.037716
O37	O	0.973809	-0.473467	0.601420
O38	O	1.307142	-0.140134	0.934754
O39	O	1.640476	0.193200	1.268087
O40	O	0.859708	-0.468293	0.468123
O41	O	1.193042	-0.134960	0.801456
O42	O	1.526375	0.198373	1.134790
O43	O	1.060297	-0.380294	0.605343
O44	O	1.393631	-0.046960	0.938677
O45	O	1.726964	0.286373	1.272010
O46	O	1.060210	-0.605511	0.380075
O47	O	1.393543	-0.272178	0.713408
O48	O	1.726876	0.061156	1.046741
O49	O	0.973759	-0.601600	0.473258
O50	O	1.307093	-0.268266	0.806591
O51	O	1.640426	0.065067	1.139925
C52	C	0.834189	-0.418591	0.418432
C53	C	1.167522	-0.085257	0.751766
C54	C	1.500856	0.248076	1.085099
C55	C	0.755960	-0.415067	0.414916
C56	C	1.089293	-0.081733	0.748249
C57	C	1.422626	0.251600	1.081583
C58	C	0.719207	-0.464039	0.463726
C59	C	1.052540	-0.130705	0.797059
C60	C	1.385873	0.202628	1.130393
C61	C	0.645702	-0.460717	0.460426
C62	C	0.979035	-0.127384	0.793759
C63	C	1.312369	0.205950	1.127092
C64	C	0.608951	-0.408427	0.408311
C65	C	0.942284	-0.075094	0.741644
C66	C	1.275618	0.258239	1.074978
C67	C	0.645709	-0.359450	0.359499
C68	C	0.979042	-0.026117	0.692833
C69	C	1.312376	0.307217	1.026166
C70	C	0.719212	-0.362768	0.362804
C71	C	1.052546	-0.029435	0.696137
C72	C	1.385879	0.303899	1.029471
C73	C	0.389119	-0.393071	0.393020
C74	C	0.722452	-0.059738	0.726353
C75	C	1.055786	0.273596	1.059687
C76	C	0.315610	-0.389758	0.389717
C77	C	0.648944	-0.056425	0.723051
C78	C	0.982277	0.276908	1.056384
C79	C	0.315608	-0.491025	0.490645
C80	C	0.648942	-0.157691	0.823979
C81	C	0.982275	0.175642	1.157312
C82	C	0.389113	-0.494341	0.493942
C83	C	0.722447	-0.161008	0.827275
C84	C	1.055780	0.172325	1.160609
C85	C	0.425865	-0.445361	0.445133
C86	C	0.759198	-0.112028	0.778466
C87	C	1.092532	0.221305	1.111800
N88	N	0.533817	-0.405033	0.404935
N89	N	0.867151	-0.071699	0.738268
N90	N	1.200484	0.261634	1.071601
N91	N	0.500997	-0.448753	0.448514
N92	N	0.834331	-0.115419	0.781847
N93	N	1.167664	0.217914	1.115181
C94	C	1.016993	-0.632236	0.426680
C95	C	1.350326	-0.298903	0.760013
C96	C	1.683659	0.034431	1.093346
C97	C	1.017032	-0.720094	0.426702
C98	C	1.350365	-0.386761	0.760035
C99	C	1.683698	-0.053428	1.093369
C100	C	0.972102	-1.089567	0.475214
C101	C	1.305435	-0.756234	0.808547
C102	C	1.638769	-0.422900	1.141881
C103	C	1.062197	-1.093583	0.378267
C104	C	1.395530	-0.760250	0.711600
C105	C	1.728864	-0.426917	1.044934
C106	C	1.062173	-1.011036	0.378259
C107	C	1.395506	-0.677703	0.711592
C108	C	1.728839	-0.344370	1.044925
C109	C	1.017111	-0.967751	0.426728
C110	C	1.350445	-0.634417	0.760061
C111	C	1.683778	-0.301084	1.093394
C112	C	0.972075	-1.007012	0.475205
C113	C	1.305408	-0.673679	0.808539
C114	C	1.638741	-0.340346	1.141872
C115	C	1.107203	-0.971768	0.329776
C116	C	1.440537	-0.638435	0.663109
C117	C	1.773870	-0.305102	0.996443
C118	C	1.107180	-0.889216	0.329765
C119	C	1.440513	-0.555883	0.663098
C120	C	1.773847	-0.222550	0.996432
C121	C	1.062122	-0.845929	0.378239
C122	C	1.395455	-0.512596	0.711572
C123	C	1.728788	-0.179263	1.044906
C124	C	1.017084	-0.885196	0.426719
C125	C	1.350417	-0.551863	0.760052
C126	C	1.683750	-0.218529	1.093386
C127	C	0.972023	-0.841911	0.475188
C128	C	1.305356	-0.508577	0.808522
C129	C	1.638689	-0.175244	1.141855
C130	C	0.926988	-0.881176	0.523673
C131	C	1.260321	-0.547842	0.857007
C132	C	1.593654	-0.214509	1.190340
C133	C	0.927016	-0.963726	0.523679
C134	C	1.260350	-0.630392	0.857013
C135	C	1.593683	-0.297059	1.190346
C136	C	1.062093	-0.763380	0.378233
C137	C	1.395426	-0.430046	0.711566
C138	C	1.728760	-0.096713	1.044900
C139	C	0.971995	-0.759356	0.475180
C140	C	1.305328	-0.426022	0.808513
C141	C	1.638662	-0.092689	1.141846
C142	C	1.200628	-0.435187	0.434992
C143	C	1.533962	-0.101854	0.768325
C144	C	1.867295	0.231480	1.101659
C145	C	1.278858	-0.438730	0.438527
C146	C	1.612191	-0.105397	0.771861
C147	C	1.945524	0.227937	1.105194
C148	C	1.017054	-0.426882	0.632864
C149	C	1.350387	-0.093548	0.966197
C150	C	1.683720	0.239785	1.299531
C151	C	1.017054	-0.426886	0.720721
C152	C	1.350388	-0.093552	1.054054
C153	C	1.683721	0.239781	1.387387
C154	C	1.017130	-0.220708	0.426730
C155	C	1.350463	0.112626	0.760063
C156	C	1.683797	0.445959	1.093397
C157	C	1.017163	-0.132853	0.426745
C158	C	1.350497	0.200481	0.760078
C159	C	1.683830	0.533814	1.093411
C160	C	0.972025	-0.475399	0.759954
C161	C	1.305358	-0.142066	1.093287
C162	C	1.638692	0.191267	1.426620
C163	C	1.062080	-0.378371	0.764041
C164	C	1.395414	-0.045037	1.097374
C165	C	1.728747	0.288296	1.430708
C166	C	1.062080	-0.378369	0.846587
C167	C	1.395413	-0.045036	1.179920
C168	C	1.728747	0.288297	1.513254
C169	C	1.017051	-0.426883	0.885820
C170	C	1.350384	-0.093550	1.219153
C171	C	1.683717	0.239784	1.552487
C172	C	0.972022	-0.475398	0.842507
C173	C	1.305355	-0.142065	1.175840
C174	C	1.638688	0.191269	1.509174
C175	C	1.107103	-0.329850	0.889906
C176	C	1.440436	0.003484	1.223239
C177	C	1.773769	0.336817	1.556572
C178	C	1.107104	-0.329846	0.972457
C179	C	1.440437	0.003487	1.305790
C180	C	1.773770	0.336821	1.639123
C181	C	1.062077	-0.378364	1.011691
C182	C	1.395411	-0.045031	1.345025
C183	C	1.728744	0.288302	1.678358
C184	C	1.017047	-0.426882	0.968373
C185	C	1.350381	-0.093548	1.301707
C186	C	1.683714	0.239785	1.635040
C187	C	0.972018	-0.475396	1.007606
C188	C	1.305352	-0.142062	1.340940
C189	C	1.638685	0.191271	1.674273
C190	C	0.926991	-0.523918	0.964290
C191	C	1.260324	-0.190584	1.297623
C192	C	1.593658	0.142749	1.630957
C193	C	0.926996	-0.523916	0.881742
C194	C	1.260329	-0.190583	1.215075
C195	C	1.593662	0.142750	1.548408
C196	C	1.062073	-0.378366	1.094240
C197	C	1.395406	-0.045032	1.427573
C198	C	1.728740	0.288301	1.760906
C199	C	0.972015	-0.475394	1.090160
C200	C	1.305348	-0.142061	1.423493
C201	C	1.638682	0.191273	1.756826
C202	C	1.017044	-0.426881	1.221329
C203	C	1.350378	-0.093548	1.554663
C204	C	1.683711	0.239786	1.887996
C205	C	1.017044	-0.426879	1.133473
C206	C	1.350377	-0.093546	1.466806
C207	C	1.683710	0.239787	1.800139
H208	H	0.419031	-0.536923	0.536378
H209	H	0.752364	-0.203590	0.869711
H210	H	1.085698	0.129743	1.203044
Cl211	Cl	1.163668	-0.268820	0.840579
Cl212	Cl	1.497001	0.064513	1.173913
Cl213	Cl	1.830335	0.397847	1.507246
Cl214	Cl	1.118658	-0.317353	1.148690
Cl215	Cl	1.451991	0.015980	1.482023
Cl216	Cl	1.785324	0.349314	1.815356
Cl217	Cl	0.915424	-0.536397	0.705502
Cl218	Cl	1.248757	-0.203063	1.038835
Cl219	Cl	1.582090	0.130270	1.372169
H220	H	0.285690	-0.347168	0.347284
H221	H	0.619023	-0.013835	0.680617
H222	H	0.952357	0.319498	1.013951
Cl223	Cl	0.599502	-0.522285	0.521790
Cl224	Cl	0.932835	-0.188952	0.855123
Cl225	Cl	1.266168	0.144382	1.188457
Cl226	Cl	1.118661	-0.317357	0.714718
Cl227	Cl	1.451994	0.015976	1.048051
Cl228	Cl	1.785327	0.349310	1.381384
H229	H	0.285678	-0.530900	0.530384
H230	H	0.619011	-0.197567	0.863717
H231	H	0.952344	0.135766	1.197050
Cl232	Cl	1.163800	-0.839862	0.268821
Cl233	Cl	1.497133	-0.506529	0.602154
Cl234	Cl	1.830467	-0.173195	0.935488
Cl235	Cl	1.163724	-0.268867	1.026905
Cl236	Cl	1.497058	0.064466	1.360238
Cl237	Cl	1.830391	0.397799	1.693571
H238	H	1.143884	-1.007017	0.290309
H239	H	1.477218	-0.673684	0.623642
H240	H	1.810551	-0.340350	0.956976
Cl241	Cl	0.435311	-0.331493	0.331662
Cl242	Cl	0.768645	0.001840	0.664995
Cl243	Cl	1.101978	0.335174	0.998328
Cl244	Cl	0.765401	-0.529782	0.529241
Cl245	Cl	1.098734	-0.196449	0.862575
Cl246	Cl	1.432067	0.136885	1.195908
H247	H	0.615781	-0.316871	0.317070
H248	H	0.949114	0.016462	0.650403
H249	H	1.282447	0.349796	0.983736
H250	H	0.749136	-0.322886	0.323062
H251	H	1.082469	0.010448	0.656395
H252	H	1.415802	0.343781	0.989728
Cl253	Cl	0.870390	-0.584903	0.827282
Cl254	Cl	1.203723	-0.251570	1.160616
Cl255	Cl	1.537057	0.081764	1.493949
Cl256	Cl	0.870381	-0.584899	1.013621
Cl257	Cl	1.203714	-0.251565	1.346954
Cl258	Cl	1.537048	0.081768	1.680288
Cl259	Cl	0.915493	-1.138926	0.536167
Cl260	Cl	1.248826	-0.805593	0.869500
Cl261	Cl	1.582160	-0.472260	1.202834
H262	H	0.935303	-0.724118	0.514653
H263	H	1.268637	-0.390784	0.847986
H264	H	1.601970	-0.057451	1.181319
Cl265	Cl	1.118843	-1.148000	0.317338
Cl266	Cl	1.452176	-0.814666	0.650672
Cl267	Cl	1.785509	-0.481333	0.984005
H268	H	1.098756	-0.731414	0.338753
H269	H	1.432090	-0.398080	0.672087
H270	H	1.765423	-0.064747	1.005420
H271	H	0.890295	-0.845923	0.563134
H272	H	1.223629	-0.512590	0.896467
H273	H	1.556962	-0.179256	1.229800
Cl274	Cl	0.915407	-0.536391	1.139475
Cl275	Cl	1.248740	-0.203058	1.472808
Cl276	Cl	1.582074	0.130275	1.806141
H277	H	0.890351	-0.995703	0.563152
H278	H	1.223684	-0.662369	0.896486
H279	H	1.557017	-0.329036	1.229819
