data_functionalizedCrystal
_audit_creation_method	'MofGen! by Chris Wilmer'
_symmetry_space_group_name_H-M	'P1'
_symmetry_Int_Tables_number	1
_symmetry_cell_setting	triclinic
loop_
_symmetry_equiv_pos_as_xyz
  x,y,z
_cell_length_a	13.330367
_cell_length_b	17.699083
_cell_length_c	17.699083
_cell_angle_alpha	96.716985
_cell_angle_beta	90.005539
_cell_angle_gamma	89.998477
loop_
_atom_site_label
_atom_site_type_symbol
_atom_site_fract_x
_atom_site_fract_y
_atom_site_fract_z
O1	O	0.083285	-1.004079	0.095711
O2	O	0.583285	-0.504079	0.595711
O3	O	0.083318	-0.783701	0.108163
O4	O	0.583318	-0.283701	0.608163
O5	O	0.083292	-0.900116	-0.008252
O6	O	0.583292	-0.400116	0.491748
O7	O	0.083311	-0.887664	0.212126
O8	O	0.583311	-0.387664	0.712126
O9	O	-0.083555	-0.900099	-0.008255
O10	O	0.416445	-0.400099	0.491745
O11	O	-0.083529	-0.783684	0.108161
O12	O	0.416471	-0.283684	0.608161
O13	O	-0.083562	-1.004062	0.095708
O14	O	0.416438	-0.504062	0.595708
Cu15	Cu	-0.098780	-0.893872	0.101934
Cu16	Cu	0.401220	-0.393872	0.601934
Cu17	Cu	0.098536	-0.893892	0.101937
Cu18	Cu	0.598536	-0.393892	0.601937
O19	O	-0.083536	-0.887647	0.212124
O20	O	0.416464	-0.387647	0.712124
C21	C	-0.000101	-0.755495	0.107716
C22	C	0.499899	-0.255495	0.607716
C23	C	-0.000089	-0.671477	0.106377
C24	C	0.499911	-0.171477	0.606377
N25	N	-0.237562	-0.893863	0.101932
N26	N	0.262438	-0.393863	0.601932
C27	C	-0.000132	-0.899662	-0.036451
C28	C	0.499868	-0.399662	0.463549
C29	C	-0.000132	-0.898323	-0.120469
C30	C	0.499868	-0.398323	0.379531
C31	C	-0.710173	-0.842341	0.153466
C32	C	-0.210173	-0.342341	0.653466
C33	C	-0.710164	-0.945463	0.050403
C34	C	-0.210164	-0.445463	0.550403
C35	C	-0.605146	-0.945454	0.050400
C36	C	-0.105146	-0.445454	0.550400
C37	C	-0.552636	-0.893889	0.101932
C38	C	-0.052636	-0.393889	0.601932
C39	C	-0.605145	-0.842332	0.153466
C40	C	-0.105145	-0.342332	0.653466
C41	C	-0.552629	-0.997015	-0.001128
C42	C	-0.052629	-0.497015	0.498872
C43	C	-0.447605	-0.997009	-0.001132
C44	C	0.052395	-0.497009	0.498868
C45	C	-0.395093	-0.945440	0.050397
C46	C	0.104907	-0.445440	0.550397
C47	C	-0.447608	-0.893880	0.101933
C48	C	0.052392	-0.393880	0.601933
C49	C	-0.395098	-0.842315	0.153465
C50	C	0.104902	-0.342315	0.653465
C51	C	-0.447612	-0.790751	0.204998
C52	C	0.052388	-0.290751	0.704998
C53	C	-0.552633	-0.790762	0.204995
C54	C	-0.052633	-0.290762	0.704995
C55	C	-0.290071	-0.945429	0.050400
C56	C	0.209929	-0.445429	0.550400
C57	C	-0.290070	-0.842306	0.153466
C58	C	0.209930	-0.342306	0.653466
N59	N	0.237317	-0.893906	0.101934
N60	N	0.737317	-0.393906	0.601934
C61	C	-0.000141	-1.032268	0.096156
C62	C	0.499859	-0.532268	0.596156
C63	C	-0.000146	-1.116286	0.097494
C64	C	0.499854	-0.616286	0.597494
C65	C	-0.000083	-0.622856	0.174710
C66	C	0.499917	-0.122856	0.674710
C67	C	-0.000096	-0.543913	0.173448
C68	C	0.499904	-0.043913	0.673448
C69	C	-0.000108	-0.513592	0.103852
C70	C	0.499892	-0.013592	0.603852
C71	C	-0.000117	-0.562219	0.035513
C72	C	0.499883	-0.062219	0.535513
C73	C	-0.000111	-0.641161	0.036776
C74	C	0.499889	-0.141161	0.536776
C75	C	-0.000142	-0.243856	0.030418
C76	C	0.499858	0.256144	0.530418
C77	C	-0.000145	-0.164908	0.029160
C78	C	0.499855	0.335092	0.529160
C79	C	-0.000128	-0.146608	0.167090
C80	C	0.499872	0.353392	0.667090
C81	C	-0.000122	-0.225550	0.168353
C82	C	0.499878	0.274450	0.668353
C83	C	-0.000136	-0.274170	0.100015
C84	C	0.499864	0.225830	0.600015
C85	C	-0.000123	-0.359769	0.101384
C86	C	0.499877	0.140231	0.601384
C87	C	-0.000113	-0.427995	0.102481
C88	C	0.499887	0.072005	0.602481
C89	C	-0.000144	-0.966656	-0.169090
C90	C	0.499856	-0.466656	0.330910
C91	C	-0.000135	-0.965394	-0.248033
C92	C	0.499865	-0.465394	0.251967
C93	C	-0.000121	-0.895798	-0.278354
C94	C	0.499879	-0.395798	0.221646
C95	C	-0.000107	-0.827459	-0.229727
C96	C	0.499893	-0.327459	0.270273
C97	C	-0.000108	-0.828722	-0.150785
C98	C	0.499892	-0.328722	0.349215
C99	C	-0.000098	-0.822364	-0.548090
C100	C	0.499902	-0.322364	-0.048090
C101	C	-0.000099	-0.821106	-0.627038
C102	C	0.499901	-0.321106	-0.127038
C103	C	-0.000124	-0.959036	-0.645338
C104	C	0.499876	-0.459036	-0.145338
C105	C	-0.000126	-0.960299	-0.566396
C106	C	0.499874	-0.460299	-0.066396
C107	C	-0.000106	-0.891961	-0.517776
C108	C	0.499894	-0.391961	-0.017776
C109	C	-0.000114	-0.893330	-0.432177
C110	C	0.499886	-0.393330	0.067823
C111	C	-0.000121	-0.894427	-0.363951
C112	C	0.499879	-0.394427	0.136049
C113	C	-0.000110	-0.888102	0.240322
C114	C	0.499890	-0.388102	0.740322
C115	C	-0.000103	-0.889440	0.324340
C116	C	0.499897	-0.389440	0.824340
H117	H	-0.247323	-0.800312	0.195427
H118	H	0.252677	-0.300312	0.695427
H119	H	-0.404855	-1.038994	-0.043093
H120	H	0.095145	-0.538994	0.456907
H121	H	-0.404846	-0.748769	0.246959
H122	H	0.095154	-0.248769	0.746959
C123	C	-0.300617	-1.047365	-0.051468
C124	C	0.199383	-0.547365	0.448532
C125	C	-0.232349	-1.002101	-0.006240
C126	C	0.267651	-0.502101	0.493760
H127	H	-0.264980	-1.082350	-0.086440
H128	H	0.235020	-0.582350	0.413560
H129	H	-0.341565	-1.074530	-0.019994
H130	H	0.158435	-0.574530	0.480006
H131	H	-0.341594	-1.015912	-0.078654
H132	H	0.158406	-0.515912	0.421346
H133	H	-0.191377	-1.033554	0.020950
H134	H	0.308623	-0.533554	0.520950
H135	H	-0.191384	-0.974934	-0.037718
H136	H	0.308616	-0.474934	0.462282
C137	C	-0.000077	-0.596829	0.310925
C138	C	0.499923	-0.096829	0.810925
C139	C	-0.000073	-0.656181	0.251215
C140	C	0.499927	-0.156181	0.751215
H141	H	-0.000079	-0.617402	0.358156
H142	H	0.499921	-0.117402	0.858156
H143	H	0.058101	-0.566421	0.307566
H144	H	0.558101	-0.066421	0.807566
H145	H	-0.058266	-0.566421	0.307555
H146	H	0.441734	-0.066421	0.807555
H147	H	0.058121	-0.686586	0.254582
H148	H	0.558121	-0.186586	0.754582
H149	H	-0.058256	-0.686602	0.254576
H150	H	0.441744	-0.186602	0.754576
H151	H	-0.000156	-0.140225	-0.027517
H152	H	0.499844	0.359775	0.472483
C153	C	-0.742513	-0.990139	-0.080680
C154	C	-0.242513	-0.490139	0.419320
C155	C	-0.767884	-1.002135	-0.006243
C156	C	-0.267884	-0.502135	0.493757
H157	H	-0.778148	-1.025128	-0.115653
H158	H	-0.278148	-0.525128	0.384347
H159	H	-0.759734	-0.939648	-0.088821
H160	H	-0.259734	-0.439648	0.411179
H161	H	-0.672450	-0.997518	-0.088049
H162	H	-0.172450	-0.497518	0.411951
H163	H	-0.837947	-0.994750	0.001128
H164	H	-0.337947	-0.494750	0.501128
H165	H	-0.750670	-1.052637	0.001902
H166	H	-0.250670	-0.552637	0.501902
H167	H	-0.595396	-0.748782	0.246952
H168	H	-0.095396	-0.248782	0.746952
C169	C	-0.742518	-0.711237	0.198066
C170	C	-0.242518	-0.211237	0.698066
C171	C	-0.767893	-0.785662	0.210105
C172	C	-0.267893	-0.285662	0.710105
H173	H	-0.778159	-0.676247	0.233030
H174	H	-0.278159	-0.176247	0.733030
H175	H	-0.672464	-0.703860	0.205447
H176	H	-0.172464	-0.203860	0.705447
H177	H	-0.759738	-0.703128	0.147558
H178	H	-0.259738	-0.203128	0.647558
H179	H	-0.750666	-0.793773	0.260611
H180	H	-0.250666	-0.293773	0.760611
H181	H	-0.837962	-0.793042	0.202731
H182	H	-0.337962	-0.293042	0.702731
C183	C	0.085686	-0.444518	0.252043
C184	C	0.585686	0.055482	0.752043
C185	C	-0.000079	-0.490470	0.248563
C186	C	0.499921	0.009530	0.748563
H187	H	0.085692	-0.411523	0.298417
H188	H	0.585692	0.088477	0.798417
H189	H	0.143860	-0.475694	0.249665
H190	H	0.643860	0.024306	0.749665
H191	H	0.085660	-0.415164	0.210412
H192	H	0.585660	0.084836	0.710412
H193	H	-0.000050	-0.519829	0.290191
H194	H	0.499950	-0.019829	0.790191
H195	H	-0.058268	-0.459290	0.250949
H196	H	0.441732	0.040710	0.750949
H197	H	-0.000141	-0.537526	-0.021154
H198	H	0.499859	-0.037526	0.478846
C199	C	0.085624	-1.076234	-0.685230
C200	C	0.585624	-0.576234	-0.185230
C201	C	-0.000133	-1.034158	-0.698782
C202	C	0.499867	-0.534158	-0.198782
H203	H	0.085612	-1.122612	-0.718220
H204	H	0.585612	-0.622612	-0.218220
H205	H	0.143804	-1.047699	-0.694407
H206	H	0.643804	-0.547699	-0.194407
H207	H	0.085607	-1.086937	-0.633873
H208	H	0.585607	-0.586937	-0.133873
H209	H	-0.000112	-1.023450	-0.750138
H210	H	0.499888	-0.523450	-0.250138
H211	H	-0.058327	-1.062699	-0.689611
H212	H	0.441673	-0.562699	-0.189611
H213	H	-0.595386	-1.039002	-0.043080
H214	H	-0.095386	-0.539002	0.456920
H215	H	-0.000147	-1.021038	-0.287618
H216	H	0.499853	-0.521038	0.212382
H217	H	-0.000122	-0.107012	0.222734
H218	H	0.499878	0.392988	0.722734
C219	C	-0.000113	-0.651327	-0.099693
C220	C	0.499887	-0.151327	0.400307
C221	C	-0.000108	-0.694609	-0.038338
C222	C	0.499892	-0.194609	0.461662
H223	H	-0.000107	-0.684324	-0.146066
H224	H	0.499893	-0.184324	0.353934
H225	H	-0.058295	-0.620160	-0.097319
H226	H	0.441705	-0.120160	0.402681
H227	H	0.058072	-0.620152	-0.097309
H228	H	0.558072	-0.120152	0.402691
H229	H	-0.058297	-0.725780	-0.040719
H230	H	0.441703	-0.225780	0.459281
H231	H	0.058080	-0.725789	-0.040713
H232	H	0.558080	-0.225789	0.459287
C233	C	-0.000152	-1.102871	-0.195117
C234	C	0.499848	-0.602871	0.304883
C235	C	-0.000152	-1.043160	-0.135765
C236	C	0.499848	-0.543160	0.364235
H237	H	-0.000147	-1.150102	-0.174543
H238	H	0.499853	-0.650102	0.325457
H239	H	-0.058333	-1.099507	-0.225527
H240	H	0.441667	-0.599507	0.274473
H241	H	0.058035	-1.099505	-0.225523
H242	H	0.558035	-0.599505	0.274477
H243	H	-0.058343	-1.046523	-0.105361
H244	H	0.441657	-0.546523	0.394639
H245	H	0.058034	-1.046526	-0.105342
H246	H	0.558034	-0.546526	0.394658
H247	H	-0.000108	-0.250232	0.225025
H248	H	0.499892	0.249768	0.725025
H249	H	-0.000082	-0.766718	-0.508512
H250	H	0.499918	-0.266718	-0.008512
H251	H	-0.000154	-0.283434	-0.025228
H252	H	0.499846	0.216566	0.474772
H253	H	-0.000089	-0.770792	-0.254420
H254	H	0.499911	-0.270792	0.245580
C255	C	0.085630	-1.041741	-0.488228
C256	C	0.585630	-0.541741	0.011772
C257	C	-0.000138	-1.036800	-0.533067
C258	C	0.499862	-0.536800	-0.033067
H259	H	0.085620	-1.088969	-0.467650
H260	H	0.585620	-0.588969	0.032350
H261	H	0.143802	-1.038390	-0.518642
H262	H	0.643802	-0.538390	-0.018642
H263	H	0.085623	-1.001220	-0.447976
H264	H	0.585623	-0.501220	0.052024
H265	H	-0.000127	-1.077319	-0.573323
H266	H	0.499873	-0.577319	-0.073323
H267	H	-0.058325	-1.040159	-0.502651
H268	H	0.441675	-0.540159	-0.002651
C269	C	-0.000093	-0.769413	-0.021644
C270	C	0.499907	-0.269413	0.478356
C271	C	-0.000095	-0.753608	-0.097336
C272	C	0.499905	-0.253608	0.402664
H273	H	-0.000075	-0.723039	0.011351
H274	H	0.499925	-0.223039	0.511351
H275	H	-0.058279	-0.797943	-0.012474
H276	H	0.441721	-0.297943	0.487526
H277	H	0.058088	-0.797966	-0.012474
H278	H	0.558088	-0.297966	0.487526
H279	H	-0.058281	-0.725060	-0.106508
H280	H	0.441719	-0.225060	0.393492
H281	H	0.058097	-0.725066	-0.106510
H282	H	0.558097	-0.225066	0.393490
C283	C	0.085714	-0.703163	-0.635749
C284	C	0.585714	-0.203163	-0.135749
C285	C	-0.000071	-0.744601	-0.660369
C286	C	0.499929	-0.244601	-0.160369
H287	H	0.085732	-0.655938	-0.656332
H288	H	0.585732	-0.155938	-0.156332
H289	H	0.085710	-0.694132	-0.581782
H290	H	0.585710	-0.194132	-0.081782
H291	H	0.143880	-0.731315	-0.652447
H292	H	0.643880	-0.231315	-0.152447
H293	H	-0.058238	-0.716451	-0.643666
H294	H	0.441762	-0.216451	-0.143666
H295	H	-0.000076	-0.753629	-0.714347
H296	H	0.499924	-0.253629	-0.214347
