data_functionalizedCrystal
_audit_creation_method	'MofGen! by Chris Wilmer'
_symmetry_space_group_name_H-M	'P1'
_symmetry_Int_Tables_number	1
_symmetry_cell_setting	triclinic
loop_
_symmetry_equiv_pos_as_xyz
  x,y,z
_cell_length_a	23.096457
_cell_length_b	14.446369
_cell_length_c	14.446369
_cell_angle_alpha	60.000250
_cell_angle_beta	89.999594
_cell_angle_gamma	59.999322
loop_
_atom_site_label
_atom_site_type_symbol
_atom_site_fract_x
_atom_site_fract_y
_atom_site_fract_z
Zr1	Zr	0.557782	1.013214	-0.121539
O2	O	0.465333	1.206328	-0.269346
O3	O	0.586122	0.820096	-0.076222
O4	O	0.586123	1.013205	-0.269341
O5	O	0.465331	1.013228	0.076102
O6	O	0.681405	1.013201	-0.269344
O7	O	0.465331	1.013220	-0.076227
O8	O	0.681403	0.667765	0.076111
O9	O	0.465333	1.358664	-0.269353
O10	O	0.669317	0.899527	-0.056905
O11	O	0.598209	0.899536	0.056779
O12	O	0.598211	1.126896	-0.170594
O13	O	0.527102	1.126905	-0.056910
Zr14	Zr	0.709746	1.013221	0.121403
Zr15	Zr	0.709746	1.013208	-0.121544
Zr16	Zr	0.557782	1.013227	0.121408
Zr17	Zr	0.557783	1.256172	-0.121550
Zr18	Zr	0.709744	0.770263	0.121414
O19	O	0.681406	1.206339	0.076086
O20	O	0.681406	1.206320	-0.269353
O21	O	0.465332	1.206347	0.076093
O22	O	0.802195	0.820107	0.269210
O23	O	0.802195	0.820088	-0.076229
O24	O	0.586121	0.820115	0.269217
O25	O	0.802196	1.013207	-0.076238
O26	O	0.681405	1.013231	0.269205
O27	O	0.586122	1.013234	0.269208
O28	O	0.802196	1.013215	0.076091
O29	O	0.586125	1.358660	-0.269357
O30	O	0.681403	0.667776	0.269221
O31	O	0.802194	0.667771	0.269217
O32	O	0.802194	0.667760	0.076107
O33	O	0.465333	1.358675	-0.076243
O34	O	0.586125	1.358670	-0.076247
O35	O	0.669317	0.899539	0.170458
O36	O	0.740425	0.899530	0.056774
O37	O	0.669319	1.126900	-0.056915
O38	O	0.598210	1.126909	0.056769
C39	C	0.633762	0.709314	-0.000054
C40	C	0.633762	0.606172	-0.000049
C41	C	0.589128	0.459168	0.071979
C42	C	0.588886	0.566788	0.071688
C43	C	0.601045	0.655163	-0.123583
C44	C	0.600710	0.547930	-0.123209
C45	C	0.711142	0.372714	0.050393
C46	C	0.711028	0.478865	0.052913
C47	C	0.443680	1.013225	-0.000062
C48	C	0.379167	1.013227	-0.000059
C49	C	0.348864	1.013232	-0.083984
C50	C	0.288252	1.013220	-0.083984
C51	C	0.257936	1.013230	-0.000067
C52	C	0.288249	1.013217	0.083872
C53	C	0.348864	1.013216	0.083876
N54	N	0.139585	1.087346	0.025334
N55	N	0.082002	1.087350	0.025323
C56	C	0.075307	1.013231	-0.000073
N57	N	0.128365	0.939123	-0.025481
N58	N	0.185951	0.939125	-0.025476
C59	C	0.192210	1.013230	-0.000062
C60	C	-0.020718	1.013221	-0.084003
C61	C	-0.081329	1.013201	-0.083995
C62	C	-0.081335	1.013211	0.083857
C63	C	-0.020721	1.013218	0.083853
C64	C	0.009582	1.013229	-0.000082
C65	C	0.823848	1.013210	-0.000074
C66	C	0.888361	1.013208	-0.000077
C67	C	0.633764	1.013201	-0.303957
C68	C	0.633764	1.013195	-0.407095
C69	C	0.633766	1.317121	-0.000082
C70	C	0.633766	1.420263	-0.000087
C71	C	0.678834	0.869808	-0.482072
C72	C	0.678639	0.869712	-0.374743
C73	C	0.556500	1.084426	-0.481655
C74	C	0.556747	1.083516	-0.588514
C75	C	0.665333	1.086465	-0.590091
C76	C	0.666897	1.083762	-0.481420
C77	C	0.633764	1.013234	0.303821
C78	C	0.633763	1.013240	0.406959
C79	C	0.823846	0.709307	-0.000060
C80	C	0.888359	0.606163	-0.000058
C81	C	0.633762	0.709331	0.303835
C82	C	0.633761	0.606195	0.406977
C83	C	0.823846	0.709324	0.303829
C84	C	0.888358	0.606185	0.406969
C85	C	0.443682	1.317112	-0.303965
C86	C	0.379169	1.420250	-0.407105
C87	C	0.443681	1.317128	-0.000075
C88	C	0.379169	1.420273	-0.000078
C89	C	0.633766	1.317104	-0.303971
C90	C	0.633766	1.420241	-0.407113
C91	C	0.881536	0.557723	-0.059406
C92	C	0.942147	0.460821	-0.059426
C93	C	1.009578	0.412354	-0.000091
C94	C	1.016399	0.460803	0.059259
C95	C	0.955789	0.557710	0.059272
C96	C	0.955778	0.557745	0.396063
C97	C	1.016400	0.460849	0.492964
C98	C	1.009600	0.412387	0.600771
C99	C	0.942173	0.460837	0.611675
C100	C	0.881553	0.557738	0.514774
C101	C	0.311750	1.468702	-0.396199
C102	C	0.251128	1.565628	-0.493100
C103	C	0.257927	1.614095	-0.600907
C104	C	0.325354	1.565639	-0.611811
C105	C	0.385974	1.468721	-0.514910
C106	C	0.385991	1.468722	0.059260
C107	C	0.325381	1.565651	0.059254
C108	C	0.257949	1.614121	-0.000085
C109	C	0.251129	1.565668	-0.059430
C110	C	0.311738	1.468747	-0.059430
C111	C	0.588696	0.459882	0.481968
C112	C	0.588887	0.566803	0.374635
C113	C	0.711027	0.479339	0.481534
C114	C	0.710784	0.371964	0.588398
C115	C	0.602198	0.546941	0.589980
C116	C	0.600631	0.655410	0.481303
H117	H	0.610958	0.370304	0.163172
H118	H	0.263575	1.013224	-0.152327
Br119	Br	0.159630	1.631366	-0.478275
Br120	Br	1.091879	0.280877	0.732269
H121	H	0.630048	0.687536	0.506823
H122	H	-0.105999	1.013197	-0.152334
Br123	Br	1.091828	0.280836	-0.000121
Br124	Br	0.625566	0.505537	0.223294
Br125	Br	1.107919	0.395009	0.139784
Br126	Br	0.175649	1.745629	-0.732405
H127	H	0.208603	1.693040	-0.000076
H128	H	0.330882	1.605113	-0.699598
Br129	Br	0.159608	1.631460	-0.139953
Br130	Br	0.302502	1.402943	-0.249902
Br131	Br	0.769433	0.516408	0.526923
H132	H	0.735877	0.813513	-0.479732
Br133	Br	0.334654	1.631386	0.139802
Br134	Br	0.494575	0.518672	0.014204
Br135	Br	0.477471	1.402971	-0.529732
H136	H	0.521338	1.188749	-0.667097
Br137	Br	0.389993	1.013208	0.197783
H138	H	0.306174	1.429302	-0.107747
H139	H	0.373536	1.013237	-0.152327
H140	H	0.531811	0.655589	0.036693
H141	H	0.003958	1.013224	-0.152345
H142	H	0.634872	0.522153	0.668194
Br143	Br	0.477498	1.402967	0.139797
H144	H	0.531991	0.656153	0.320364
Br145	Br	0.932958	0.395054	0.757993
Br146	Br	0.642677	0.776440	-0.480337
Br147	Br	0.752906	0.220697	0.587951
Br148	Br	0.493619	0.521955	0.478070
H149	H	0.632650	1.192137	-0.668294
Br150	Br	0.790057	0.623460	0.529596
H151	H	0.610390	0.370215	0.480936
Br152	Br	0.790030	0.623482	-0.139946
H153	H	0.746192	0.342010	0.666978
Br154	Br	0.505810	0.615756	-0.190563
H155	H	0.961354	0.597137	0.107607
H156	H	0.610786	0.529333	0.320850
H157	H	0.631122	0.525957	-0.179820
Br158	Br	0.247113	1.013216	0.197767
H159	H	0.744557	0.346735	-0.001847
H160	H	0.736477	0.440777	0.429928
Br161	Br	0.514622	0.999151	-0.588066
Br162	Br	0.932873	0.395087	-0.139976
H163	H	0.543709	0.745905	0.429881
Br164	Br	0.652601	0.703213	-0.216973
Br165	Br	0.507052	0.809015	-0.191404
H166	H	0.546162	0.586515	0.594096
Br167	Br	0.965025	0.623500	0.249766
H168	H	-0.106015	1.013211	0.152187
Br169	Br	0.773468	0.776550	-0.284270
Br170	Br	0.756686	0.216517	0.199703
Br171	Br	0.771136	0.514689	-0.025471
Br172	Br	0.751769	0.412859	0.204603
H173	H	0.637482	1.188440	-0.506939
Br174	Br	0.020407	1.013217	0.197753
H175	H	0.656744	0.813464	-0.320954
H176	H	0.521460	1.189925	-0.508889
H177	H	0.531047	1.034954	-0.430049
H178	H	0.721370	1.040564	-0.594207
Br179	Br	0.761773	0.997199	-0.395718
Br180	Br	1.107898	0.395114	0.478139
