data_functionalizedCrystal
_audit_creation_method	'MofGen! by Chris Wilmer'
_symmetry_space_group_name_H-M	'P1'
_symmetry_Int_Tables_number	1
_symmetry_cell_setting	triclinic
loop_
_symmetry_equiv_pos_as_xyz
  x,y,z
_cell_length_a	19.077105
_cell_length_b	12.759400
_cell_length_c	12.759386
_cell_angle_alpha	89.943069
_cell_angle_beta	87.658473
_cell_angle_gamma	87.700203
loop_
_atom_site_label
_atom_site_type_symbol
_atom_site_fract_x
_atom_site_fract_y
_atom_site_fract_z
Zn1	Zn	1.076283	-0.482479	-0.658599
Zn2	Zn	1.576283	0.017521	-0.158599
Zn3	Zn	1.076192	-0.658291	-0.482934
Zn4	Zn	1.576192	-0.158291	0.017066
Zn5	Zn	0.958534	-0.475564	-0.475874
Zn6	Zn	1.458534	0.024436	0.024126
Zn7	Zn	0.958593	-0.651052	-0.651520
Zn8	Zn	1.458593	-0.151052	-0.151520
O9	O	1.017400	-0.566847	-0.567232
O10	O	1.517400	-0.066847	-0.067232
O11	O	1.174765	-0.511725	-0.641213
O12	O	1.674765	-0.011725	-0.141213
O13	O	1.060521	-0.634187	-0.334972
O14	O	1.560521	-0.134187	0.165028
O15	O	0.974167	-0.329461	-0.500121
O16	O	1.474167	0.170539	-0.000121
O17	O	1.174698	-0.640893	-0.512153
O18	O	1.674698	-0.140893	-0.012153
O19	O	1.060677	-0.334542	-0.634368
O20	O	1.560677	0.165458	-0.134368
O21	O	0.974079	-0.499938	-0.329785
O22	O	1.474079	0.000062	0.170215
O23	O	0.860048	-0.492919	-0.493257
O24	O	1.360048	0.007081	0.006743
O25	O	0.974268	-0.628556	-0.799484
O26	O	1.474268	-0.128556	-0.299484
O27	O	0.860091	-0.621850	-0.622304
O28	O	1.360091	-0.121850	-0.122304
O29	O	1.060734	-0.504706	-0.804685
O30	O	1.560734	-0.004706	-0.304685
O31	O	1.060579	-0.804351	-0.505289
O32	O	1.560579	-0.304351	-0.005289
O33	O	0.974179	-0.799033	-0.629149
O34	O	1.474179	-0.299033	-0.129149
C35	C	0.834531	-0.555849	-0.556247
C36	C	1.334531	-0.055849	-0.056247
C37	C	0.756299	-0.551170	-0.551572
C38	C	1.256299	-0.051170	-0.051572
C39	C	1.017395	-0.839814	-0.567241
C40	C	1.517395	-0.339814	-0.067241
C41	C	1.017456	-0.956594	-0.567284
C42	C	1.517456	-0.456594	-0.067284
C43	C	1.017518	-0.566595	-0.841272
C44	C	1.517518	-0.066595	-0.341272
C45	C	1.017567	-0.566487	-0.958052
C46	C	1.517567	-0.066487	-0.458052
C47	C	0.719586	-0.616200	-0.616458
C48	C	1.219586	-0.116200	-0.116458
C49	C	0.646078	-0.611789	-0.612071
C50	C	1.146078	-0.111789	-0.112071
C51	C	0.609285	-0.542353	-0.542792
C52	C	1.109285	-0.042353	-0.042792
C53	C	0.646003	-0.477316	-0.477903
C54	C	1.146003	0.022684	0.022097
C55	C	0.719509	-0.481722	-0.482296
C56	C	1.219509	0.018278	0.017704
C57	C	0.389440	-0.521961	-0.522465
C58	C	0.889440	-0.021961	-0.022465
C59	C	0.315929	-0.517562	-0.518074
C60	C	0.815929	-0.017562	-0.018074
C61	C	0.316010	-0.652035	-0.652244
C62	C	0.816010	-0.152035	-0.152244
C63	C	0.389517	-0.656440	-0.656626
C64	C	0.889517	-0.156440	-0.156626
C65	C	0.426229	-0.591398	-0.591742
C66	C	0.926229	-0.091398	-0.091742
N67	N	0.534148	-0.537845	-0.538303
N68	N	1.034148	-0.037845	-0.038303
N69	N	0.501364	-0.595902	-0.596236
N70	N	1.001364	-0.095902	-0.096236
C71	C	1.200984	-0.577888	-0.578260
C72	C	1.700984	-0.077888	-0.078260
C73	C	1.279216	-0.582593	-0.582960
C74	C	1.779216	-0.082593	-0.082960
C75	C	1.017425	-0.292815	-0.567247
C76	C	1.517425	0.207185	-0.067247
C77	C	1.017436	-0.176039	-0.567253
C78	C	1.517436	0.323961	-0.067253
C79	C	0.972403	-0.118530	-0.497364
C80	C	1.472403	0.381470	0.002636
C81	C	0.972411	-0.008807	-0.497381
C82	C	1.472411	0.491193	0.002619
C83	C	1.062492	-0.014110	-0.637181
C84	C	1.562492	0.485890	-0.137181
C85	C	1.062480	-0.123832	-0.637167
C86	C	1.562480	0.376168	-0.137167
C87	C	1.017324	-0.567024	-0.294259
C88	C	1.517324	-0.067024	0.205741
C89	C	1.017411	-0.566844	-0.177488
C90	C	1.517411	-0.066844	0.322512
C91	C	0.972762	-0.631744	-0.119655
C92	C	1.472762	-0.131744	0.380345
C93	C	0.972838	-0.631564	-0.009936
C94	C	1.472838	-0.131564	0.490064
C95	C	1.062218	-0.501579	-0.015894
C96	C	1.562218	-0.001579	0.484106
C97	C	1.062138	-0.501755	-0.125611
C98	C	1.562138	-0.001755	0.374389
H99	H	0.616190	-0.664745	-0.664907
H100	H	1.116190	-0.164745	-0.164907
H101	H	1.099151	-0.170656	-0.694087
H102	H	1.599151	0.329344	-0.194087
O103	O	0.923822	-0.174836	-0.421954
O104	O	1.423822	0.325164	0.078046
H105	H	0.931385	-0.260795	-0.433673
H106	H	1.431385	0.239205	0.066327
H107	H	0.616040	-0.420775	-0.421499
H108	H	1.116040	0.079225	0.078501
H109	H	0.419470	-0.712984	-0.713038
H110	H	0.919470	-0.212984	-0.213038
H111	H	0.936341	-0.684741	-0.161890
H112	H	1.436341	-0.184741	0.338110
O113	O	0.924668	-0.701560	0.052425
O114	O	1.424668	-0.201560	0.552425
H115	H	0.956448	-0.756502	0.100579
H116	H	1.456448	-0.256502	0.600579
O117	O	0.276259	-0.442676	-0.443319
O118	O	0.776259	0.057324	0.056681
H119	H	0.242758	-0.487679	-0.387780
H120	H	0.742758	0.012321	0.112220
O121	O	0.923838	0.053216	-0.421996
O122	O	1.423838	0.553216	0.078004
H123	H	0.931405	0.138284	-0.433756
H124	H	1.431405	0.638284	0.066244
O125	O	1.110469	-0.431394	0.040058
O126	O	1.610469	0.068606	0.540058
H127	H	1.103032	-0.442185	0.126067
H128	H	1.603032	0.057815	0.626067
H129	H	0.749400	-0.428762	-0.429465
H130	H	1.249400	0.071238	0.070535
H131	H	1.099167	0.028408	-0.694102
H132	H	1.599167	0.528408	-0.194102
O133	O	0.759270	-0.691074	-0.691199
O134	O	1.259270	-0.191074	-0.191199
H135	H	0.792735	-0.746515	-0.646105
H136	H	1.292735	-0.246515	-0.146105
H137	H	1.098497	-0.448899	-0.172700
H138	H	1.598497	0.051101	0.327300
O139	O	0.429033	-0.451847	-0.452453
O140	O	0.929033	0.048153	0.047547
H141	H	0.391097	-0.402844	-0.403525
H142	H	0.891097	0.097156	0.096475
H143	H	0.286111	-0.704987	-0.705070
H144	H	0.786111	-0.204987	-0.205070
