data_functionalizedCrystal
_audit_creation_method	'MofGen! by Chris Wilmer'
_symmetry_space_group_name_H-M	'P1'
_symmetry_Int_Tables_number	1
_symmetry_cell_setting	triclinic
loop_
_symmetry_equiv_pos_as_xyz
  x,y,z
_cell_length_a	16.109317
_cell_length_b	11.804365
_cell_length_c	16.109301
_cell_angle_alpha	78.174178
_cell_angle_beta	96.535152
_cell_angle_gamma	78.158999
loop_
_atom_site_label
_atom_site_type_symbol
_atom_site_fract_x
_atom_site_fract_y
_atom_site_fract_z
O1	O	-1.119903	0.098901	0.090163
O2	O	-0.877848	0.098932	0.103443
O3	O	-1.005523	0.098903	-0.024225
O4	O	-0.992228	0.098929	0.217831
O5	O	-0.971911	-0.099145	0.009351
O6	O	-0.844236	-0.099117	0.137019
O7	O	-1.086291	-0.099147	0.123739
Cu8	Cu	-0.962194	-0.117215	0.133445
Cu9	Cu	-1.001944	0.117000	0.093737
O10	O	-0.958616	-0.099119	0.251408
C11	C	-0.830068	-0.000089	0.119690
C12	C	-0.737775	-0.000077	0.118067
C13	C	-0.457021	0.107865	0.094533
C14	C	-0.543743	0.107870	0.096050
C15	C	-0.507116	-0.108053	0.132645
C16	C	-0.420397	-0.108057	0.131122
C17	C	-0.395351	-0.000095	0.112070
C18	C	-0.568793	-0.000085	0.115109
C19	C	-0.662821	-0.000080	0.116753
C20	C	-0.301318	-0.000099	0.110424
N21	N	-0.934243	-0.281950	0.161373
C22	C	-1.097026	-0.655935	-0.001278
C23	C	-1.118170	-0.531278	-0.022409
C24	C	-1.072190	-0.468940	0.023534
C25	C	-1.005062	-0.531271	0.090613
C26	C	-0.983919	-0.655940	0.111750
C27	C	-0.959084	-0.468945	0.136563
C28	C	-0.891956	-0.531276	0.203641
C29	C	-0.870816	-0.655933	0.224775
C30	C	-0.916797	-0.718271	0.178831
C31	C	-0.980226	-0.344276	0.115425
C32	C	-0.867120	-0.344281	0.228454
C33	C	-0.845975	-0.468938	0.249585
C34	C	-0.134072	-0.000118	0.107492
C35	C	-0.226369	-0.000103	0.109112
C36	C	-0.988178	-0.000121	-0.038412
C37	C	-0.986563	-0.000123	-0.130707
N38	N	-1.029903	0.281734	0.065803
C39	C	-1.058571	-0.000113	-0.352977
C40	C	-1.057049	-0.000103	-0.439699
C41	C	-0.905564	-0.000089	-0.419836
C42	C	-0.907089	-0.000090	-0.333117
C43	C	-0.983594	-0.000108	-0.299689
C44	C	-0.980547	-0.000097	-0.473130
C45	C	-0.978896	-0.000086	-0.567158
C46	C	-0.985246	-0.000117	-0.205656
C47	C	-0.975961	-0.000092	0.265594
C48	C	-0.977578	-0.000082	0.357888
H49	H	-0.593953	0.195782	0.081768
F50	F	-0.894289	-0.850947	0.201318
F51	F	-1.136851	-0.000106	-0.496409
H52	H	-0.370181	-0.195976	0.145403
H53	H	-1.034882	-0.293537	0.060810
F54	F	-0.827284	-0.000076	-0.276402
H55	H	-1.089409	-0.367438	0.006326
F56	F	-0.430369	0.222768	0.074253
H57	H	-0.843276	-0.000076	-0.447064
H58	H	-0.527519	-0.195952	0.148158
H59	H	-0.816163	-0.706683	0.279400
H60	H	-1.134461	-0.706698	-0.038675
F61	F	-1.189610	-0.464945	-0.093794
F62	F	-0.774534	-0.535288	0.320974
H63	H	-0.829680	-0.293526	0.265867
H64	H	-1.120867	-0.000126	-0.325763
