data_functionalizedCrystal
_audit_creation_method	'MofGen! by Chris Wilmer'
_symmetry_space_group_name_H-M	'P1'
_symmetry_Int_Tables_number	1
_symmetry_cell_setting	triclinic
loop_
_symmetry_equiv_pos_as_xyz
  x,y,z
_cell_length_a	13.262390
_cell_length_b	27.732025
_cell_length_c	12.376457
_cell_angle_alpha	101.194294
_cell_angle_beta	63.168449
_cell_angle_gamma	83.572221
loop_
_atom_site_label
_atom_site_type_symbol
_atom_site_fract_x
_atom_site_fract_y
_atom_site_fract_z
O1	O	1.512220	0.010261	-0.558945
O2	O	1.184794	0.027218	-0.458267
O3	O	1.358697	-0.051917	-0.511774
O4	O	1.338317	0.089396	-0.505438
O5	O	1.315237	-0.032159	-0.310390
O6	O	1.141334	0.046976	-0.256883
O7	O	1.468760	0.030019	-0.357561
Zn8	Zn	1.298147	0.041635	-0.275248
Zn9	Zn	1.355407	0.015602	-0.540580
O10	O	1.294857	0.109154	-0.304054
C11	C	1.121188	0.037964	-0.344700
C12	C	0.996410	0.040540	-0.306335
C13	C	0.739456	0.004714	-0.637307
C14	C	0.856692	0.002290	-0.673355
C15	C	0.891628	0.011853	-0.581603
C16	C	0.809315	0.023839	-0.453797
C17	C	0.692069	0.026258	-0.417746
C18	C	0.844241	0.033397	-0.362042
C19	C	0.761928	0.045383	-0.234236
C20	C	0.644694	0.047802	-0.198191
C21	C	0.609759	0.038240	-0.289943
C22	C	0.961487	0.030978	-0.398093
C23	C	0.914100	0.052522	-0.178532
C24	C	0.796864	0.054945	-0.142484
C25	C	1.336546	-0.060036	-0.410964
C26	C	1.335279	-0.113663	-0.410607
C27	C	1.349891	-0.507364	-0.517525
C28	C	1.354673	-0.305828	-0.519032
O29	O	1.375483	-0.288937	-0.612597
N30	N	1.331580	-0.269852	-0.409444
C31	C	1.307298	-0.284263	-0.299474
O32	O	1.287778	-0.249040	-0.206301
C33	C	1.302525	-0.485799	-0.297971
C34	C	1.325607	-0.521772	-0.407562
C35	C	1.372973	-0.543337	-0.627108
C36	C	1.371772	-0.593717	-0.626728
C37	C	1.347488	-0.608125	-0.516766
C38	C	1.324406	-0.572152	-0.407183
C39	C	1.278251	-0.500210	-0.188005
C40	C	1.277062	-0.550598	-0.187640
C41	C	1.300145	-0.586571	-0.297231
C42	C	1.298920	-0.636941	-0.296841
N43	N	1.322013	-0.672917	-0.406428
C44	C	1.346297	-0.658509	-0.516391
C45	C	1.309803	-0.178455	-0.300270
C46	C	1.310995	-0.128071	-0.300645
C47	C	1.358372	-0.149640	-0.520204
C48	C	1.357172	-0.200024	-0.519825
C49	C	1.332896	-0.214431	-0.409858
C50	C	1.343770	-0.764310	-0.515585
C51	C	1.342561	-0.814694	-0.515194
C52	C	1.295190	-0.793121	-0.295638
C53	C	1.296393	-0.742741	-0.296026
C54	C	1.320689	-0.728338	-0.406011
O55	O	1.278132	-0.653868	-0.203328
O56	O	1.365839	-0.693741	-0.609557
C57	C	1.351093	-0.456984	-0.517904
C58	C	1.328011	-0.421011	-0.408322
C59	C	1.303727	-0.435419	-0.298359
C60	C	1.329202	-0.370627	-0.408696
C61	C	1.353486	-0.356220	-0.518659
C62	C	1.376579	-0.392196	-0.628247
C63	C	1.375377	-0.442576	-0.627867
C64	C	1.280634	-0.399443	-0.188772
C65	C	1.281837	-0.349064	-0.189160
C66	C	1.306121	-0.334656	-0.299122
C67	C	1.532367	0.019273	-0.471131
C68	C	1.657146	0.016696	-0.509504
C69	C	1.317008	0.117272	-0.404867
C70	C	1.318278	0.170899	-0.405232
N71	N	1.259076	0.059400	-0.094169
N72	N	1.394487	-0.002167	-0.721662
C73	C	1.485182	-0.043417	0.191248
C74	C	1.512521	-0.055851	0.064496
C75	C	1.449162	-0.027039	0.024824
C76	C	1.358459	0.014209	0.111916
C77	C	1.331123	0.026647	0.238678
C78	C	1.295103	0.043024	0.072253
C79	C	1.204401	0.084272	0.159345
C80	C	1.177069	0.096708	0.286095
C81	C	1.240428	0.067896	0.325767
C82	C	1.322439	0.030586	-0.054509
C83	C	1.168381	0.100650	-0.007079
C84	C	1.141041	0.113084	0.119673
H85	H	0.987087	0.009880	-0.610961
C86	C	1.270995	-0.703169	-0.175469
N87	N	1.251877	-0.673367	-0.084667
C88	C	1.479232	-0.040722	-0.114606
N89	N	1.501879	-0.051031	-0.219628
H90	H	1.116790	0.124112	-0.039378
C91	C	1.554868	-0.075104	0.234898
N92	N	1.607360	-0.098973	0.267776
C93	C	0.952521	0.063045	-0.077597
N94	N	0.981469	0.070970	-0.001580
C95	C	1.210337	0.081563	0.465208
N96	N	1.187667	0.091853	0.570237
C97	C	1.052016	0.017796	-0.538676
N98	N	1.120203	0.007868	-0.644571
H99	H	1.396290	-0.002998	-0.125409
C100	C	0.706308	0.068126	-0.001900
N101	N	0.638100	0.078053	0.103988
C102	C	1.268475	-0.808979	-0.174684
N103	N	1.248359	-0.820926	-0.083582
C104	C	1.077298	0.142083	0.381892
N105	N	1.002148	0.176260	0.454045
H106	H	1.361355	-0.843982	-0.604439
H107	H	1.067190	0.146669	0.190598
C108	C	0.480791	0.040912	-0.250296
N109	N	0.383651	0.042925	-0.220437
C110	C	0.947228	-0.010898	-0.813937
N111	N	1.015422	-0.020834	-0.919832
H112	H	0.711000	-0.003075	-0.711998
H113	H	1.586371	-0.089434	-0.006409
H114	H	0.577680	0.057553	-0.094124
C115	C	1.370488	-0.748474	-0.636571
N116	N	1.390603	-0.736546	-0.727695
H117	H	1.390576	-0.623004	-0.715971
H118	H	1.290034	-0.190178	-0.210717
C119	C	1.382590	-0.239592	-0.640391
N120	N	1.401746	-0.269394	-0.731209
C121	C	1.399685	-0.527497	-0.748085
N122	N	1.419796	-0.515571	-0.839209
H123	H	1.292177	-0.098783	-0.211398
C124	C	1.385094	-0.133782	-0.641166
N125	N	1.405230	-0.121837	-0.732273
C126	C	1.250350	-0.566441	-0.066662
N127	N	1.230226	-0.578372	0.024460
C128	C	1.403298	-0.376338	-0.749208
N129	N	1.423430	-0.364392	-0.840313
C130	C	1.252862	-0.460650	-0.067445
N131	N	1.233740	-0.430853	0.023368
C132	C	1.256439	-0.309497	-0.068591
N133	N	1.237321	-0.279698	0.022216
H134	H	1.394173	-0.471862	-0.717108
H135	H	1.260862	-0.411168	-0.099226
