data_functionalizedCrystal
_audit_creation_method	'MofGen! by Chris Wilmer'
_symmetry_space_group_name_H-M	'P1'
_symmetry_Int_Tables_number	1
_symmetry_cell_setting	triclinic
loop_
_symmetry_equiv_pos_as_xyz
  x,y,z
_cell_length_a	10.723024
_cell_length_b	11.892095
_cell_length_c	10.723024
_cell_angle_alpha	93.927454
_cell_angle_beta	95.532131
_cell_angle_gamma	93.935834
loop_
_atom_site_label
_atom_site_type_symbol
_atom_site_fract_x
_atom_site_fract_y
_atom_site_fract_z
O1	O	1.665098	0.093993	-0.167118
O2	O	1.301946	0.093997	-0.183871
O3	O	1.491899	0.093991	0.006081
O4	O	1.475146	0.093999	-0.357071
O5	O	1.476061	-0.094016	-0.009732
O6	O	1.286108	-0.094010	-0.199685
O7	O	1.649260	-0.094014	-0.182932
Zn8	Zn	1.465170	-0.123862	-0.193819
Zn9	Zn	1.486037	0.123845	-0.172984
O10	O	1.459308	-0.094008	-0.372884
C11	C	1.247528	-0.000006	-0.190559
C12	C	1.108974	-0.000005	-0.186911
N13	N	1.450937	-0.292916	-0.208037
C14	C	1.033991	-0.000002	-0.293198
C15	C	0.890788	-0.000000	-0.289431
C16	C	1.599313	-0.529569	-0.059746
C17	C	1.589374	-0.647910	-0.069694
C18	C	1.421115	-0.647943	-0.237874
C19	C	1.431054	-0.529601	-0.227926
C20	C	1.520157	-0.470418	-0.138861
C21	C	1.530102	-0.352075	-0.128920
C22	C	1.361837	-0.352109	-0.297093
C23	C	1.351898	-0.470451	-0.307040
C24	C	1.703679	-0.000008	-0.176244
C25	C	1.842234	-0.000002	-0.179891
C26	C	1.482761	-0.000012	0.044674
C27	C	1.479113	-0.000008	0.183229
N28	N	1.500279	0.292899	-0.158756
C29	C	1.468446	-0.000003	-0.411477
C30	C	1.472094	0.000000	-0.550031
C31	C	1.585401	-0.000007	0.258211
C32	C	1.581634	-0.000003	0.401415
H33	H	0.826356	0.000007	-0.380421
H34	H	1.385328	0.000001	0.225051
H35	H	0.906659	0.000002	-0.088895
H36	H	1.075813	-0.000006	-0.386985
H37	H	1.653829	-0.696067	-0.005270
H38	H	1.381098	-0.000008	0.385543
H39	H	1.067154	0.000022	-0.093123
C40	C	1.254964	-0.534656	-0.403582
C41	C	1.134581	-0.505913	-0.379795
C42	C	1.045254	-0.565046	-0.468694
H43	H	1.270686	-0.515313	-0.485420
H44	H	1.260295	-0.613618	-0.398166
H45	H	1.129254	-0.426969	-0.385222
H46	H	1.118820	-0.525259	-0.297973
H47	H	1.050585	-0.644008	-0.463279
H48	H	1.060987	-0.545698	-0.550527
H49	H	0.963564	-0.545560	-0.452560
C50	C	1.626873	-0.288019	-0.032099
C51	C	1.694041	-0.365157	0.035080
C52	C	1.783185	-0.306195	0.124297
H53	H	1.683203	-0.241840	-0.073431
H54	H	1.585442	-0.241888	0.024202
H55	H	1.735471	-0.411269	-0.021212
H56	H	1.637746	-0.411339	0.076439
H57	H	1.741753	-0.260063	0.180598
H58	H	1.839505	-0.260017	0.082955
H59	H	1.828761	-0.358523	0.169897
H60	H	1.671873	-0.481381	0.012766
C61	C	1.324438	-0.712058	-0.334742
C62	C	1.348105	-0.683260	-0.455143
C63	C	1.259056	-0.742286	-0.544405
H64	H	1.329756	-0.791028	-0.329508
H65	H	1.242652	-0.692645	-0.318864
H66	H	1.429871	-0.702682	-0.471017
H67	H	1.342777	-0.604301	-0.460418
H68	H	1.177270	-0.722872	-0.528527
H69	H	1.264382	-0.821253	-0.539159
H70	H	1.275095	-0.722747	-0.626106
C71	C	1.276104	-0.287747	-0.383055
C72	C	1.348949	-0.219783	-0.454318
C73	C	1.270025	-0.160468	-0.533512
H74	H	1.221598	-0.339821	-0.437631
H75	H	1.227670	-0.241521	-0.333851
H76	H	1.397361	-0.266006	-0.503518
H77	H	1.403452	-0.167689	-0.399775
H78	H	1.221591	-0.114241	-0.484308
H79	H	1.215522	-0.212550	-0.588080
H80	H	1.319438	-0.114340	-0.581865
H81	H	1.679186	-0.000015	0.216388
C82	C	1.703081	0.000175	0.487185
C83	C	1.780621	0.096886	0.472102
C84	C	1.892519	0.097081	0.551083
H85	H	1.684605	0.000236	0.572062
H86	H	1.744876	-0.065353	0.466096
H87	H	1.738834	0.162397	0.493199
H88	H	1.799131	0.096846	0.387242
H89	H	1.934314	0.031553	0.529994
H90	H	1.874031	0.097139	0.635954
H91	H	1.945148	0.162692	0.540851
