data_functionalizedCrystal
_audit_creation_method	'MofGen! by Chris Wilmer'
_symmetry_space_group_name_H-M	'P1'
_symmetry_Int_Tables_number	1
_symmetry_cell_setting	triclinic
loop_
_symmetry_equiv_pos_as_xyz
  x,y,z
_cell_length_a	14.853558
_cell_length_b	15.995292
_cell_length_c	13.330367
_cell_angle_alpha	89.998548
_cell_angle_beta	89.992972
_cell_angle_gamma	83.549875
loop_
_atom_site_label
_atom_site_type_symbol
_atom_site_fract_x
_atom_site_fract_y
_atom_site_fract_z
O1	O	1.196202	0.109283	-0.083404
O2	O	0.933721	0.122314	-0.083408
O3	O	1.072164	-0.006085	-0.083407
O4	O	1.057759	0.237681	-0.083404
O5	O	1.072144	-0.006087	0.083440
O6	O	0.933701	0.122311	0.083439
O7	O	1.196182	0.109280	0.083443
Cu8	Cu	1.064940	0.115795	0.098676
Cu9	Cu	1.064963	0.115798	-0.098640
O10	O	1.057739	0.237678	0.083443
C11	C	0.900123	0.121723	0.000015
C12	C	0.800042	0.119958	0.000013
C13	C	0.753034	0.119132	-0.090939
C14	C	0.753010	0.119119	0.090964
C15	C	0.658979	0.117456	0.090966
C16	C	0.611971	0.116630	0.000014
C17	C	0.658994	0.117466	-0.090940
C18	C	0.611950	0.116611	0.181918
C19	C	0.517914	0.114947	0.181923
C20	C	0.470903	0.114126	0.090970
C21	C	0.517932	0.114964	0.000013
C22	C	0.470924	0.114138	-0.090939
C23	C	0.517950	0.114981	-0.181898
C24	C	0.611984	0.116646	-0.181893
C25	C	0.376869	0.112462	0.090965
C26	C	0.376884	0.112472	-0.090941
C27	C	1.071568	-0.037282	0.000014
C28	C	1.069810	-0.130237	0.000006
C29	C	1.063348	-0.467983	0.000015
C30	C	1.163273	-0.444558	0.000389
C31	C	1.165172	-0.347880	0.000010
C32	C	1.066555	-0.300423	0.000011
C33	C	1.016609	-0.329579	-0.095264
C34	C	1.015406	-0.426371	-0.095340
C35	C	1.013342	-0.426234	0.094396
C36	C	1.017045	-0.329737	0.095652
C37	C	1.068361	-0.205725	0.000006
C38	C	1.061539	-0.562681	0.000014
C39	C	1.229780	0.109870	0.000018
C40	C	1.329861	0.111636	0.000013
C41	C	1.058335	0.268876	0.000019
C42	C	1.060093	0.361831	0.000020
N43	N	1.064930	0.115792	0.237457
N44	N	1.064981	0.115795	-0.237422
C45	C	1.003658	0.172631	0.710080
C46	C	1.126293	0.058960	0.710048
C47	C	1.126283	0.058957	0.605030
C48	C	1.064960	0.115793	0.552532
C49	C	1.003648	0.172632	0.605052
C50	C	1.187600	0.002125	0.552502
C51	C	1.187593	0.002121	0.447477
C52	C	1.126265	0.058954	0.394977
C53	C	1.064950	0.115794	0.447504
C54	C	1.003628	0.172630	0.395005
C55	C	0.942307	0.229467	0.447530
C56	C	0.942320	0.229464	0.552552
C57	C	1.126252	0.058956	0.289956
C58	C	1.003617	0.172631	0.289977
H59	H	0.479665	0.114304	-0.255951
H60	H	0.939790	-0.440308	0.095039
H61	H	1.204536	-0.329430	-0.068406
H62	H	0.650281	0.117332	-0.255947
C63	C	0.882397	0.284994	0.300558
C64	C	0.936210	0.235110	0.232275
H65	H	0.840788	0.323569	0.264933
H66	H	0.849984	0.250082	0.341523
H67	H	0.919926	0.315172	0.341517
H68	H	0.898682	0.204927	0.191321
H69	H	0.968626	0.270027	0.191293
C70	C	1.241737	-0.048630	0.286478
C71	C	1.254786	-0.060544	0.389746
H72	H	1.283163	-0.087371	0.250839
H73	H	1.181495	-0.057633	0.269417
H74	H	1.251721	0.007193	0.269142
H75	H	1.244796	-0.116365	0.407083
H76	H	1.315043	-0.051548	0.406814
H77	H	0.791326	0.119822	-0.164995
C78	C	0.887898	0.279944	0.713555
C79	C	0.874930	0.291943	0.610288
H80	H	0.846300	0.318521	0.749200
H81	H	0.878120	0.224052	0.730768
H82	H	0.948068	0.289136	0.730733
H83	H	0.814762	0.282745	0.593109
H84	H	0.884702	0.347849	0.593069
C85	C	1.219801	-0.234796	0.092031
C86	C	1.217982	-0.322131	0.092202
H87	H	1.252404	-0.218905	0.148951
H88	H	1.248652	-0.218603	0.032650
H89	H	1.159579	-0.207652	0.094395
H90	H	1.278204	-0.349275	0.089831
H91	H	1.189133	-0.338332	0.151598
C92	C	1.000895	-0.503902	-0.247616
C93	C	1.062128	-0.462524	-0.191481
H94	H	1.029742	-0.526214	-0.306972
H95	H	0.981356	-0.548369	-0.208946
H96	H	0.950066	-0.465180	-0.265012
H97	H	1.112955	-0.501249	-0.174078
H98	H	1.081680	-0.418052	-0.230159
C99	C	0.868906	0.049061	0.196478
C100	C	0.804683	0.120026	0.190933
H101	H	0.900812	0.049627	0.258195
H102	H	0.839107	-0.000368	0.192703
H103	H	0.910363	0.049804	0.142303
H104	H	0.763222	0.119279	0.245104
H105	H	0.834483	0.169467	0.194717
C106	C	0.727858	0.046560	0.287421
C107	C	0.663627	0.117519	0.281884
H108	H	0.759768	0.047127	0.349136
H109	H	0.698066	-0.002873	0.283646
H110	H	0.769311	0.047310	0.233244
H111	H	0.622170	0.116765	0.336058
H112	H	0.693420	0.166964	0.285669
C113	C	0.858599	-0.370810	-0.104635
C114	C	0.916506	-0.446133	-0.101205
H115	H	0.797546	-0.383010	-0.108270
H116	H	0.866662	-0.338886	-0.045888
H117	H	0.872311	-0.339457	-0.162087
H118	H	0.902800	-0.477483	-0.043748
H119	H	0.908440	-0.478070	-0.159959
H120	H	1.176182	0.012684	0.247195
C121	C	1.179254	-0.085907	0.742379
C122	C	1.193688	-0.003517	0.767756
H123	H	1.220864	-0.124480	0.778006
H124	H	1.119096	-0.095086	0.759605
H125	H	1.188030	-0.094035	0.672314
H126	H	1.184905	0.004613	0.837820
H127	H	1.253860	0.005665	0.750536
C128	C	1.343675	-0.046803	0.584804
C129	C	1.254996	-0.060359	0.610198
H130	H	1.385280	-0.085382	0.620430
H131	H	1.352440	-0.054930	0.514748
H132	H	1.353450	0.009094	0.602031
H133	H	1.245219	-0.116254	0.592964
H134	H	1.246228	-0.052239	0.680271
H135	H	0.338584	0.111783	0.165022
C136	C	0.386353	0.112656	-0.270749
C137	C	0.325217	0.111564	-0.190921
H138	H	0.354455	0.112090	-0.332471
H139	H	0.416135	0.162093	-0.266958
H140	H	0.429924	0.064513	-0.266964
H141	H	0.281650	0.159710	-0.194701
H142	H	0.295420	0.062121	-0.194713
H143	H	0.479633	0.114259	0.255987
H144	H	1.201780	-0.472512	0.068716
C145	C	1.061194	-0.214710	-0.192424
C146	C	1.063454	-0.302453	-0.190986
H147	H	1.090123	-0.197967	-0.251515
H148	H	1.000034	-0.189869	-0.191576
H149	H	1.091906	-0.196789	-0.135163
H150	H	1.032736	-0.320374	-0.248244
H151	H	1.124625	-0.327303	-0.191844
C152	C	1.244793	-0.419721	-0.150271
C153	C	1.214993	-0.483658	-0.091334
H154	H	1.276725	-0.443862	-0.206894
H155	H	1.194072	-0.382772	-0.172175
H156	H	1.283807	-0.389175	-0.111714
H157	H	1.175973	-0.514200	-0.129889
H158	H	1.265722	-0.520621	-0.069430
H159	H	0.944040	-0.297794	-0.098805
H160	H	1.044802	-0.454288	0.166615
C161	C	1.096166	-0.376927	0.245928
C162	C	1.066140	-0.304621	0.190804
H163	H	1.126483	-0.361417	0.304665
H164	H	1.045700	-0.405155	0.264366
H165	H	1.136690	-0.413241	0.206141
H166	H	1.025610	-0.268309	0.230589
H167	H	1.116613	-0.276380	0.172368
H168	H	0.945064	-0.296849	0.101407
H169	H	0.892382	0.275747	0.404774
H170	H	0.953729	0.218905	0.752848
