data_functionalizedCrystal
_audit_creation_method	'MofGen! by Chris Wilmer'
_symmetry_space_group_name_H-M	'P1'
_symmetry_Int_Tables_number	1
_symmetry_cell_setting	triclinic
loop_
_symmetry_equiv_pos_as_xyz
  x,y,z
_cell_length_a	19.188930
_cell_length_b	14.519709
_cell_length_c	12.996460
_cell_angle_alpha	89.999966
_cell_angle_beta	89.988736
_cell_angle_gamma	96.587536
loop_
_atom_site_label
_atom_site_type_symbol
_atom_site_fract_x
_atom_site_fract_y
_atom_site_fract_z
O1	O	0.091525	-1.223300	-0.085445
O2	O	0.591525	-0.723300	0.414555
O3	O	0.102303	-0.954756	-0.085478
O4	O	0.602303	-0.454756	0.414522
O5	O	-0.004714	-1.096778	-0.085440
O6	O	0.495286	-0.596778	0.414560
O7	O	0.198542	-1.081279	-0.085482
O8	O	0.698542	-0.581279	0.414518
O9	O	-0.004720	-1.096763	0.085693
O10	O	0.495280	-0.596763	0.585693
O11	O	0.102297	-0.954742	0.085656
O12	O	0.602297	-0.454742	0.585656
O13	O	0.091519	-1.223285	0.085689
O14	O	0.591519	-0.723285	0.585689
Cu15	Cu	0.096907	-1.089012	0.101298
Cu16	Cu	0.596907	-0.589012	0.601298
Cu17	Cu	0.096914	-1.089030	-0.101087
Cu18	Cu	0.596914	-0.589030	0.398913
O19	O	0.198536	-1.081264	0.085651
O20	O	0.698536	-0.581264	0.585651
C21	C	-0.030730	-1.096269	0.000129
C22	C	0.469270	-0.596269	0.500129
C23	C	-0.108240	-1.094762	0.000138
C24	C	0.391760	-0.594762	0.500138
C25	C	0.101797	-0.920392	0.000085
C26	C	0.601797	-0.420392	0.500085
C27	C	0.100292	-0.818020	0.000073
C28	C	0.600292	-0.318020	0.500073
N29	N	0.096902	-1.089007	0.243645
N30	N	0.596902	-0.589007	0.743645
C31	C	-0.152867	-1.178095	0.000153
C32	C	0.347133	-0.678095	0.500153
C33	C	-0.225696	-1.176680	0.000137
C34	C	0.274304	-0.676680	0.500137
C35	C	-0.253895	-1.091926	0.000125
C36	C	0.246105	-0.591926	0.500125
C37	C	-0.209257	-1.008582	0.000105
C38	C	0.290743	-0.508582	0.500105
C39	C	-0.136430	-1.009999	0.000111
C40	C	0.363570	-0.509999	0.500111
N41	N	-0.362132	-1.027137	0.058358
N42	N	0.137868	-0.527137	0.558358
N43	N	-0.431316	-1.025796	0.058354
N44	N	0.068684	-0.525796	0.558354
C45	C	-0.473318	-1.087649	0.000104
C46	C	0.026682	-0.587649	0.500104
N47	N	-0.443526	-1.150908	-0.058129
N48	N	0.056474	-0.650908	0.441871
N49	N	-0.374336	-1.152252	-0.058120
N50	N	0.125664	-0.652252	0.441880
C51	C	-0.332863	-1.090379	0.000118
C52	C	0.167137	-0.590379	0.500118
C53	C	-0.596916	-1.169454	0.000100
C54	C	-0.096916	-0.669454	0.500100
C55	C	-0.669745	-1.168035	0.000077
C56	C	-0.169745	-0.668035	0.500077
C57	C	-0.653305	-0.999934	0.000055
C58	C	-0.153305	-0.499934	0.500055
C59	C	-0.580477	-1.001355	0.000068
C60	C	-0.080477	-0.501355	0.500068
C61	C	-0.552287	-1.086118	0.000095
C62	C	-0.052287	-0.586118	0.500095
C63	C	0.224551	-1.081773	0.000079
C64	C	0.724551	-0.581773	0.500079
C65	C	0.302061	-1.083280	0.000064
C66	C	0.802061	-0.583280	0.500064
C67	C	0.092024	-1.257649	0.000124
C68	C	0.592024	-0.757649	0.500124
C69	C	0.093529	-1.360021	0.000128
C70	C	0.593529	-0.860021	0.500128
C71	C	0.094751	-0.443159	0.000121
C72	C	0.594751	0.056841	0.500121
C73	C	0.096290	-0.547457	0.000108
C74	C	0.596290	-0.047457	0.500108
C75	C	0.097521	-0.630586	0.000097
C76	C	0.597521	-0.130586	0.500097
C77	C	0.099060	-0.734891	0.000085
C78	C	0.599060	-0.234891	0.500085
N79	N	0.096914	-1.089042	-0.243434
N80	N	0.596914	-0.589042	0.256566
C81	C	0.096915	-1.089028	0.663460
C82	C	0.596915	-0.589028	1.163460
C83	C	0.096914	-1.089020	0.546655
C84	C	0.596914	-0.589020	1.046655
C85	C	0.096909	-1.089018	0.453556
C86	C	0.596909	-0.589018	0.953556
C87	C	0.096906	-1.089008	0.336744
C88	C	0.596906	-0.589008	0.836744
H89	H	-0.129920	-1.247116	0.000172
H90	H	0.370080	-0.747116	0.500172
N91	N	-0.683702	-0.908514	0.000054
N92	N	-0.183702	-0.408514	0.500054
H93	H	-0.667423	-0.872020	-0.063386
H94	H	-0.167423	-0.372020	0.436614
H95	H	-0.736606	-0.920330	0.000093
H96	H	-0.236606	-0.420330	0.500093
H97	H	-0.100094	-0.942137	0.000099
H98	H	0.399906	-0.442137	0.500099
N99	N	-0.532337	-0.911473	0.000057
N100	N	-0.032337	-0.411473	0.500057
H101	H	-0.561250	-0.857566	0.000048
H102	H	-0.061250	-0.357566	0.500048
H103	H	-0.501774	-0.908395	0.063501
H104	H	-0.001774	-0.408395	0.563501
N105	N	-0.273842	-1.266564	0.000151
N106	N	0.226158	-0.766564	0.500151
H107	H	-0.244933	-1.320474	0.000167
H108	H	0.255067	-0.820474	0.500167
H109	H	-0.304425	-1.269622	0.063592
H110	H	0.195575	-0.769622	0.563592
H111	H	-0.573962	-1.238472	0.000117
H112	H	-0.073962	-0.738472	0.500117
H113	H	-0.232221	-0.939574	0.000093
H114	H	0.267779	-0.439574	0.500093
H115	H	-0.706081	-1.235898	0.000083
H116	H	-0.206081	-0.735898	0.500083
