data_functionalizedCrystal
_audit_creation_method	'MofGen! by Chris Wilmer'
_symmetry_space_group_name_H-M	'P1'
_symmetry_Int_Tables_number	1
_symmetry_cell_setting	triclinic
loop_
_symmetry_equiv_pos_as_xyz
  x,y,z
_cell_length_a	14.044191
_cell_length_b	15.995292
_cell_length_c	13.101039
_cell_angle_alpha	93.364742
_cell_angle_beta	86.337551
_cell_angle_gamma	88.330196
loop_
_atom_site_label
_atom_site_type_symbol
_atom_site_fract_x
_atom_site_fract_y
_atom_site_fract_z
O1	O	1.262872	0.197664	-0.085151
O2	O	0.986905	0.190373	-0.085165
O3	O	1.132461	0.072694	-0.085159
O4	O	1.117316	0.315344	-0.085157
O5	O	1.122018	0.081152	0.085270
O6	O	0.976462	0.198832	0.085265
O7	O	1.252429	0.206123	0.085278
Zn8	Zn	1.112787	0.203820	0.112331
Zn9	Zn	1.126547	0.192676	-0.112217
O10	O	1.106873	0.323803	0.085273
C11	C	0.946370	0.191413	0.000048
C12	C	0.841147	0.181899	0.000043
C13	C	0.590848	0.231979	0.000054
C14	C	0.648493	0.164521	0.000051
C15	C	0.755695	0.174193	0.000046
C16	C	0.483635	0.222308	0.000058
C17	C	1.126623	0.045681	0.000053
C18	C	1.124776	-0.047410	0.000045
C19	C	1.117982	-0.385656	0.000054
C20	C	1.223017	-0.354475	0.000440
C21	C	1.225037	-0.257670	0.000052
C22	C	1.121353	-0.217848	0.000050
C23	C	1.074792	-0.255704	-0.097273
C24	C	1.073532	-0.352593	-0.097350
C25	C	1.059511	-0.342991	0.096460
C26	C	1.063325	-0.246144	0.097742
C27	C	1.123253	-0.123010	0.000045
C28	C	1.116079	-0.480494	0.000053
C29	C	1.292964	0.205083	0.000063
C30	C	1.398188	0.214596	0.000062
C31	C	1.112711	0.350815	0.000058
C32	C	1.114559	0.443906	0.000059
N33	N	1.103403	0.211426	0.265579
N34	N	1.135938	0.185064	-0.265465
C35	C	1.090637	0.221782	0.474621
C36	C	1.148702	0.174711	0.525499
C37	C	1.141598	0.180473	0.641817
C38	C	1.097739	0.216021	0.358292
H39	H	1.261898	-0.232109	0.069816
H40	H	1.035594	0.266407	0.518416
H41	H	0.617337	0.099500	-0.000022
N42	N	0.629915	0.313543	0.000035
N43	N	0.575784	0.376976	0.000028
H44	H	0.603384	0.434581	0.000011
H45	H	1.203749	0.130085	0.481699
N46	N	1.268448	-0.381464	0.087996
N47	N	1.223949	-0.423998	0.151135
H48	H	1.256035	-0.443067	0.212974
H49	H	1.267539	-0.383929	-0.068959
N50	N	1.282320	-0.235060	-0.087618
N51	N	1.320923	-0.290813	-0.148712
H52	H	1.361380	-0.274847	-0.210635
H53	H	0.998716	-0.229716	-0.100892
N54	N	0.977252	-0.378364	-0.102922
N55	N	0.959172	-0.454454	-0.103980
H56	H	0.891176	-0.472654	-0.107923
H57	H	1.114366	-0.380302	-0.170100
H58	H	1.115705	-0.236513	-0.169698
H59	H	1.088076	-0.364946	0.170230
H60	H	1.097159	-0.221148	0.169741
H61	H	0.987286	-0.218537	0.103618
H62	H	0.982140	-0.362727	0.097114
