data_functionalizedCrystal
_audit_creation_method	'MofGen! by Chris Wilmer'
_symmetry_space_group_name_H-M	'P1'
_symmetry_Int_Tables_number	1
_symmetry_cell_setting	triclinic
loop_
_symmetry_equiv_pos_as_xyz
  x,y,z
_cell_length_a	11.792254
_cell_length_b	11.792254
_cell_length_c	16.053802
_cell_angle_alpha	92.583162
_cell_angle_beta	87.401073
_cell_angle_gamma	84.198598
loop_
_atom_site_label
_atom_site_type_symbol
_atom_site_fract_x
_atom_site_fract_y
_atom_site_fract_z
O1	O	1.511666	0.150886	-0.069429
O2	O	2.011666	0.650886	0.430571
O3	O	1.181328	0.166904	-0.069431
O4	O	1.681328	0.666904	0.430569
O5	O	1.354505	-0.006274	-0.069424
O6	O	1.854505	0.493726	0.430576
O7	O	1.338488	0.324064	-0.069436
O8	O	1.838488	0.824064	0.430564
O9	O	1.344973	0.003219	0.069435
O10	O	1.844973	0.503219	0.569435
O11	O	1.171795	0.176397	0.069428
O12	O	1.671795	0.676397	0.569428
O13	O	1.502133	0.160379	0.069430
O14	O	2.002133	0.660379	0.569430
Zn15	Zn	1.335451	0.169895	0.091475
Zn16	Zn	1.835451	0.669895	0.591475
Zn17	Zn	1.348010	0.157388	-0.091477
Zn18	Zn	1.848010	0.657388	0.408523
O19	O	1.328956	0.333557	0.069423
O20	O	1.828956	0.833557	0.569423
C21	C	1.134271	0.170641	-0.000002
C22	C	1.634271	0.670641	0.499998
C23	C	1.008258	0.167621	-0.000002
C24	C	1.508258	0.667621	0.499998
C25	C	1.348730	-0.043818	0.000005
C26	C	1.848730	0.456182	0.500005
C27	C	1.345710	-0.169831	0.000004
C28	C	1.845710	0.330169	0.500004
C29	C	0.905921	0.165167	-0.000006
C30	C	1.405921	0.665167	0.499994
C31	C	0.777534	0.162099	-0.000006
C32	C	1.277534	0.662099	0.499994
C33	C	1.343256	-0.272168	0.000001
C34	C	1.843256	0.227832	0.500001
C35	C	1.340188	-0.400555	-0.000006
C36	C	1.840188	0.099445	0.499994
C37	C	1.549191	0.156642	-0.000001
C38	C	2.049191	0.656642	0.499999
C39	C	1.675204	0.159661	-0.000006
C40	C	2.175204	0.659661	0.499994
C41	C	1.334731	0.371101	-0.000008
C42	C	1.834731	0.871101	0.499992
C43	C	1.337752	0.497114	-0.000013
C44	C	1.837752	0.997114	0.499987
N45	N	1.326888	0.178430	0.216335
N46	N	1.826888	0.678430	0.716335
N47	N	1.356582	0.148844	-0.216337
N48	N	1.856582	0.648844	0.283663
C49	C	1.400602	0.104769	0.260032
C50	C	1.900602	0.604769	0.760032
C51	C	1.394623	0.110750	0.347439
C52	C	1.894623	0.610750	0.847439
C53	C	1.314934	0.190399	0.391147
C54	C	1.814934	0.690399	0.891147
C55	C	1.241211	0.264063	0.347444
C56	C	1.741211	0.764063	0.847444
C57	C	1.247186	0.258075	0.260039
C58	C	1.747186	0.758075	0.760039
C59	C	1.288835	0.216521	0.652555
C60	C	1.788835	0.716521	1.152555
C61	C	1.282868	0.222505	0.739967
C62	C	1.782868	0.722505	1.239967
C63	C	1.436279	0.069190	0.739955
C64	C	1.936279	0.569190	1.239955
C65	C	1.442251	0.063215	0.652549
C66	C	1.942251	0.563215	1.152549
C67	C	1.368525	0.136875	0.608853
C68	C	1.868525	0.636875	1.108853
N69	N	1.308822	0.196517	0.480490
N70	N	1.808822	0.696517	0.980490
N71	N	1.374631	0.130750	0.519512
N72	N	1.874631	0.630750	1.019512
H73	H	1.454646	0.050769	0.383016
H74	H	1.954646	0.550769	0.883016
H75	H	1.228806	0.276500	0.616986
H76	H	1.728806	0.776500	1.116986
H77	H	1.496302	0.009219	0.775540
H78	H	1.996302	0.509219	1.275540
O79	O	1.477934	0.027452	0.217449
O80	O	1.977934	0.527452	0.717449
C81	C	1.467362	0.037915	0.130932
C82	C	1.967362	0.537915	0.630932
H83	H	1.426381	0.127069	0.118975
H84	H	1.926381	0.627069	0.618975
H85	H	1.555491	0.023507	0.097683
H86	H	2.055491	0.523507	0.597683
H87	H	1.411666	-0.028369	0.106177
H88	H	1.911666	0.471631	0.606177
O89	O	1.519691	-0.014261	0.610223
O90	O	2.019691	0.485739	1.110223
C91	C	1.583493	-0.077976	0.667535
C92	C	2.083493	0.422024	1.167535
H93	H	1.532695	-0.075308	0.729848
H94	H	2.032695	0.424692	1.229848
H95	H	1.601977	-0.170231	0.642288
H96	H	2.101977	0.329769	1.142288
H97	H	1.667396	-0.039913	0.676812
H98	H	2.167396	0.460087	1.176812
O99	O	1.205340	0.299901	0.782297
O100	O	1.705340	0.799901	1.282297
C101	C	1.141561	0.363646	0.724989
C102	C	1.641561	0.863646	1.224989
H103	H	1.144258	0.312840	0.662687
H104	H	1.644258	0.812840	1.162687
H105	H	1.049302	0.382055	0.750259
H106	H	1.549302	0.882055	1.250259
H107	H	1.179547	0.447587	0.715680
H108	H	1.679547	0.947587	1.215680
H109	H	1.176321	0.328910	0.383036
H110	H	1.676321	0.828910	0.883036
H111	H	1.187158	0.318056	0.224462
H112	H	1.687158	0.818056	0.724462
