data_functionalizedCrystal
_audit_creation_method	'MofGen! by Chris Wilmer'
_symmetry_space_group_name_H-M	'P1'
_symmetry_Int_Tables_number	1
_symmetry_cell_setting	triclinic
loop_
_symmetry_equiv_pos_as_xyz
  x,y,z
_cell_length_a	17.038272
_cell_length_b	14.519709
_cell_length_c	12.996460
_cell_angle_alpha	89.999398
_cell_angle_beta	90.000375
_cell_angle_gamma	92.604149
loop_
_atom_site_label
_atom_site_type_symbol
_atom_site_fract_x
_atom_site_fract_y
_atom_site_fract_z
O1	O	0.102496	-1.231713	0.085433
O2	O	0.435829	-0.898379	0.418766
O3	O	0.769162	-0.565046	0.752100
O4	O	0.114567	-0.964159	0.085465
O5	O	0.447900	-0.630826	0.418798
O6	O	0.781233	-0.297493	0.752131
O7	O	-0.005287	-1.096346	0.085441
O8	O	0.328047	-0.763012	0.418774
O9	O	0.661380	-0.429679	0.752108
O10	O	0.222349	-1.099526	0.085457
O11	O	0.555682	-0.766193	0.418790
O12	O	0.889016	-0.432859	0.752124
O13	O	-0.005280	-1.096328	-0.085693
O14	O	0.328054	-0.762995	0.247640
O15	O	0.661387	-0.429661	0.580974
O16	O	0.114574	-0.964142	-0.085669
O17	O	0.447907	-0.630808	0.247664
O18	O	0.781240	-0.297475	0.580998
O19	O	0.102503	-1.231695	-0.085701
O20	O	0.435836	-0.898362	0.247633
O21	O	0.769169	-0.565028	0.580966
Cu22	Cu	0.108539	-1.097917	-0.101311
Cu23	Cu	0.441872	-0.764583	0.232023
Cu24	Cu	0.775205	-0.431250	0.565356
Cu25	Cu	0.108531	-1.097938	0.101075
Cu26	Cu	0.441864	-0.764604	0.434408
Cu27	Cu	0.775197	-0.431271	0.767741
O28	O	0.222356	-1.099508	-0.085677
O29	O	0.555689	-0.766175	0.247656
O30	O	0.889023	-0.432842	0.580990
C31	C	0.114008	-0.929748	-0.000098
C32	C	0.447341	-0.596414	0.333235
C33	C	0.780674	-0.263081	0.666568
C34	C	0.112322	-0.827237	-0.000086
C35	C	0.445655	-0.493904	0.333247
C36	C	0.778988	-0.160571	0.666580
C37	C	-0.034416	-1.093444	-0.000125
C38	C	0.298917	-0.760111	0.333208
C39	C	0.632250	-0.426778	0.666541
C40	C	-0.121223	-1.084814	-0.000124
C41	C	0.212110	-0.751481	0.333209
C42	C	0.545444	-0.418148	0.666542
C43	C	0.103062	-1.266107	-0.000135
C44	C	0.436395	-0.932773	0.333198
C45	C	0.769728	-0.599440	0.666531
C46	C	0.104748	-1.368617	-0.000141
C47	C	0.438081	-1.035283	0.333193
C48	C	0.771414	-0.701950	0.666526
C49	C	-0.171209	-1.164047	-0.000135
C50	C	0.162124	-0.830714	0.333199
C51	C	0.495458	-0.497381	0.666532
C52	C	-0.252773	-1.155933	-0.000124
C53	C	0.080561	-0.822600	0.333209
C54	C	0.413894	-0.489266	0.666543
C55	C	-0.284349	-1.068585	-0.000110
C56	C	0.048984	-0.735252	0.333223
C57	C	0.382318	-0.401919	0.666557
C58	C	-0.234357	-0.989347	-0.000097
C59	C	0.098977	-0.656013	0.333237
C60	C	0.432310	-0.322680	0.666570
C61	C	-0.152795	-0.997462	-0.000100
C62	C	0.180539	-0.664128	0.333233
C63	C	0.513872	-0.330795	0.666567
C64	C	-0.530153	-1.039916	-0.000093
C65	C	-0.196820	-0.706583	0.333241
C66	C	0.136513	-0.373250	0.666574
C67	C	-0.611722	-1.031807	-0.000092
C68	C	-0.278388	-0.698474	0.333241
C69	C	0.054945	-0.365140	0.666574
C70	C	-0.630132	-1.198394	-0.000118
C71	C	-0.296799	-0.865061	0.333216
C72	C	0.036535	-0.531728	0.666549
C73	C	-0.548568	-1.206502	-0.000127
C74	C	-0.215234	-0.873168	0.333206
C75	C	0.118099	-0.539835	0.666539
C76	C	-0.498583	-1.127263	-0.000108
C77	C	-0.165249	-0.793930	0.333225
C78	C	0.168084	-0.460596	0.666558
C79	C	-0.367720	-1.060289	-0.000102
C80	C	-0.034387	-0.726956	0.333231
C81	C	0.298947	-0.393623	0.666564
C82	C	-0.415213	-1.135560	-0.000109
C83	C	-0.081880	-0.802227	0.333225
C84	C	0.251454	-0.468893	0.666558
C85	C	0.251486	-1.102410	-0.000108
C86	C	0.584819	-0.769076	0.333225
C87	C	0.918152	-0.435743	0.666558
C88	C	0.338292	-1.111040	-0.000103
C89	C	0.671626	-0.777706	0.333231
C90	C	1.004959	-0.444373	0.666564
N91	N	0.108544	-1.097909	-0.243658
N92	N	0.441877	-0.764575	0.089675
N93	N	0.775211	-0.431242	0.423009
C94	C	0.106116	-0.451867	-0.000134
C95	C	0.439449	-0.118533	0.333200
C96	C	0.772782	0.214800	0.666533
C97	C	0.107839	-0.556307	-0.000120
C98	C	0.441172	-0.222973	0.333213
C99	C	0.774506	0.110360	0.666546
C100	C	0.109219	-0.639549	-0.000109
C101	C	0.442552	-0.306215	0.333224
C102	C	0.775885	0.027118	0.666558
C103	C	0.110942	-0.743995	-0.000098
C104	C	0.444276	-0.410662	0.333236
C105	C	0.777609	-0.077329	0.666569
C106	C	0.108546	-1.097913	-0.336764
C107	C	0.441879	-0.764580	-0.003430
C108	C	0.775213	-0.431246	0.329903
C109	C	0.108541	-1.097921	-0.453569
C110	C	0.441874	-0.764588	-0.120236
C111	C	0.775207	-0.431254	0.213098
C112	C	0.108532	-1.097932	-0.546667
C113	C	0.441865	-0.764599	-0.213334
C114	C	0.775199	-0.431265	0.119999
C115	C	0.108528	-1.097941	-0.663480
C116	C	0.441861	-0.764608	-0.330146
C117	C	0.775194	-0.431275	0.003187
N118	N	0.108519	-1.097952	0.243422
N119	N	0.441852	-0.764619	0.576755
N120	N	0.775186	-0.431286	0.910089
H121	H	-0.145506	-1.235175	-0.000152
H122	H	0.187827	-0.901842	0.333181
H123	H	0.521160	-0.568508	0.666515
H124	H	-0.293468	-1.220453	-0.000135
H125	H	0.039865	-0.887120	0.333199
H126	H	0.373198	-0.553786	0.666532
H127	H	-0.489465	-0.975394	-0.000078
H128	H	-0.156131	-0.642061	0.333256
H129	H	0.177202	-0.308727	0.666589
H130	H	-0.522865	-1.277629	-0.000139
H131	H	-0.189531	-0.944296	0.333195
H132	H	0.143802	-0.610963	0.666528
H133	H	-0.670838	-1.262906	-0.000131
H134	H	-0.337505	-0.929572	0.333202
H135	H	-0.004172	-0.596239	0.666536
C136	C	-0.402462	-0.964208	-0.000109
C137	C	-0.069129	-0.630875	0.333225
C138	C	0.264204	-0.297542	0.666558
N139	N	-0.428633	-0.891840	-0.000118
N140	N	-0.095300	-0.558507	0.333216
N141	N	0.238034	-0.225174	0.666549
C142	C	-0.269093	-0.893263	-0.000090
C143	C	0.064240	-0.559929	0.333243
C144	C	0.397573	-0.226596	0.666577
N145	N	-0.295256	-0.820890	-0.000093
N146	N	0.038077	-0.487557	0.333240
N147	N	0.371410	-0.154224	0.666574
H148	H	-0.389500	-1.206678	-0.000097
H149	H	-0.056167	-0.873345	0.333236
H150	H	0.277166	-0.540011	0.666570
H151	H	-0.637427	-0.960675	-0.000098
H152	H	-0.304094	-0.627341	0.333236
H153	H	0.029239	-0.294008	0.666569
H154	H	-0.112096	-0.932942	-0.000091
H155	H	0.221237	-0.599608	0.333242
H156	H	0.554570	-0.266275	0.666575
