data_functionalizedCrystal
_audit_creation_method	'MofGen! by Chris Wilmer'
_symmetry_space_group_name_H-M	'P1'
_symmetry_Int_Tables_number	1
_symmetry_cell_setting	triclinic
loop_
_symmetry_equiv_pos_as_xyz
  x,y,z
_cell_length_a	13.897441
_cell_length_b	12.759401
_cell_length_c	12.759399
_cell_angle_alpha	90.016641
_cell_angle_beta	90.029233
_cell_angle_gamma	90.020083
loop_
_atom_site_label
_atom_site_type_symbol
_atom_site_fract_x
_atom_site_fract_y
_atom_site_fract_z
Zn1	Zn	-0.545374	-1.606254	0.418190
Zn2	Zn	-0.384079	-1.606147	0.593901
Zn3	Zn	-0.384094	-1.430556	0.418241
Zn4	Zn	-0.545333	-1.430544	0.593832
O5	O	-0.464720	-1.518375	0.506041
O6	O	-0.523988	-1.753261	0.441506
O7	O	-0.249099	-1.582814	0.570649
O8	O	-0.405511	-1.453913	0.271213
O9	O	-0.405486	-1.753182	0.570599
O10	O	-0.524003	-1.582998	0.271176
O11	O	-0.249110	-1.453808	0.441592
O12	O	-0.405472	-1.283533	0.441526
O13	O	-0.680320	-1.453892	0.570483
O14	O	-0.523934	-1.283524	0.570532
O15	O	-0.680350	-1.582986	0.441440
O16	O	-0.405446	-1.582803	0.740912
O17	O	-0.523919	-1.453788	0.740862
C18	C	-0.464698	-1.518311	0.779008
C19	C	-0.464721	-1.518379	0.895785
C20	C	-0.464701	-1.245408	0.506028
C21	C	-0.464715	-1.128631	0.506048
C22	C	-0.716313	-1.518450	0.505948
C23	C	-0.823527	-1.518482	0.505908
C24	C	-1.019822	-1.518510	0.505837
C25	C	-0.910590	-1.518491	0.505880
C26	C	-0.214106	-1.518361	0.506058
C27	C	-0.106892	-1.518533	0.505801
C28	C	-0.464740	-1.792408	0.506055
C29	C	-0.464748	-1.909185	0.506060
C30	C	-0.526301	-1.073792	0.573324
C31	C	-0.526321	-0.964068	0.573328
C32	C	-0.403159	-0.964032	0.438777
C33	C	-0.403146	-1.073754	0.438769
C34	C	-0.640038	-0.814170	0.611030
C35	C	-0.701616	-0.759327	0.678322
C36	C	-0.716257	-0.794924	0.780853
C37	C	-0.669306	-0.885362	0.816113
C38	C	-0.607722	-0.940199	0.748827
C39	C	-0.593099	-0.904604	0.646281
C40	C	-0.289427	-1.223654	0.401077
C41	C	-0.227837	-1.278493	0.333795
C42	C	-0.213186	-1.242898	0.231262
C43	C	-0.260119	-1.152457	0.196006
C44	C	-0.321709	-1.097618	0.263288
C45	C	-0.336362	-1.133220	0.365820
C46	C	-0.464763	-1.518469	0.232008
C47	C	-0.464781	-1.518508	0.115231
C48	C	-0.403102	-1.585634	0.950638
C49	C	-0.403134	-1.585702	1.060362
C50	C	-0.526407	-1.451251	1.060370
C51	C	-0.526379	-1.451189	0.950648
C52	C	-0.368809	-1.709711	1.210236
C53	C	-0.307175	-1.776956	1.265093
C54	C	-0.213059	-1.793120	1.229550
C55	C	-0.180558	-1.742024	1.139151
C56	C	-0.242187	-1.674771	1.084300
C57	C	-0.336316	-1.658626	1.119842
C58	C	-0.560695	-1.327179	0.800772
C59	C	-0.622319	-1.259919	0.745919
C60	C	-0.716437	-1.243744	0.781460
C61	C	-0.748934	-1.294822	0.871862
C62	C	-0.687310	-1.362082	0.926715
C63	C	-0.593193	-1.378258	0.891166
H64	H	-0.576438	-1.118470	0.628104
H65	H	-0.215726	-1.633171	1.010698
H66	H	-0.595854	-1.218335	0.672304
N67	N	-0.752267	-0.661795	0.640298
H68	H	-0.732887	-0.600229	0.685391
H69	H	-0.733642	-0.647662	0.565117
N70	N	-0.336613	-1.658106	0.891457
H71	H	-0.267685	-1.641845	0.910625
H72	H	-0.351746	-1.733145	0.910498
H73	H	-0.359932	-1.023981	0.234571
N74	N	-0.079039	-1.759445	1.100823
H75	H	-0.044930	-1.809804	1.149287
H76	H	-0.080844	-1.789721	1.027704
H77	H	-0.189620	-1.352135	0.362510
N78	N	-0.624247	-0.775776	0.500438
H79	H	-0.687672	-0.774674	0.461774
H80	H	-0.596343	-0.702703	0.502381
H81	H	-0.353030	-0.919337	0.384003
N82	N	-0.470324	-1.692277	1.248571
H83	H	-0.517396	-1.714815	1.192592
H84	H	-0.481465	-1.734841	1.314178
N85	N	-0.342233	-1.832079	1.362580
H86	H	-0.288906	-1.877128	1.391938
H87	H	-0.361981	-1.778298	1.416525
N88	N	-0.592902	-1.378780	1.119544
H89	H	-0.583569	-1.389019	1.197377
H90	H	-0.577822	-1.303745	1.100438
N91	N	-0.244317	-1.114051	0.085419
H92	H	-0.198180	-1.162515	0.048145
H93	H	-0.307778	-1.112943	0.046830
H94	H	-0.713779	-1.403676	1.000323
N95	N	-0.146599	-1.865651	1.288733
H96	H	-0.125571	-1.924660	1.241205
H97	H	-0.088270	-1.825258	1.313258
H98	H	-0.825573	-1.281653	0.900801
N99	N	-0.782902	-1.171189	0.722307
H100	H	-0.748036	-1.141275	0.659648
H101	H	-0.841272	-1.211557	0.697857
N102	N	-0.459181	-1.344630	0.762429
H103	H	-0.423540	-1.275640	0.761388
H104	H	-0.425156	-1.395028	0.810918
H105	H	-0.163025	-1.287554	0.176485
H106	H	-0.681224	-0.914331	0.899609
N107	N	-0.557078	-1.037731	0.786844
H108	H	-0.575691	-1.051960	0.862013
H109	H	-0.576476	-1.099232	0.741675
H110	H	-0.301360	-1.252651	0.484566
N111	N	-0.782665	-0.735772	0.853437
H112	H	-0.810181	-0.673080	0.815546
H113	H	-0.836753	-0.783376	0.876429
