data_functionalizedCrystal
_audit_creation_method	'MofGen! by Chris Wilmer'
_symmetry_space_group_name_H-M	'P1'
_symmetry_Int_Tables_number	1
_symmetry_cell_setting	triclinic
loop_
_symmetry_equiv_pos_as_xyz
  x,y,z
_cell_length_a	29.839135
_cell_length_b	29.839131
_cell_length_c	29.839135
_cell_angle_alpha	89.999332
_cell_angle_beta	89.988440
_cell_angle_gamma	90.043247
loop_
_atom_site_label
_atom_site_type_symbol
_atom_site_fract_x
_atom_site_fract_y
_atom_site_fract_z
Zn1	Zn	-0.686701	0.178970	0.254050
Zn2	Zn	-0.686639	0.254060	0.178920
Zn3	Zn	-0.611589	0.178947	0.178928
Zn4	Zn	-0.611532	0.254076	0.254017
O5	O	-0.649115	0.216513	0.216479
O6	O	-0.749560	0.188934	0.244095
O7	O	-0.676681	0.244079	0.116054
O8	O	-0.621603	0.116083	0.188910
O9	O	-0.749514	0.244102	0.188897
O10	O	-0.676788	0.116100	0.244102
O11	O	-0.621543	0.188894	0.116060
O12	O	-0.548715	0.188910	0.188878
O13	O	-0.621505	0.244130	0.316888
O14	O	-0.548672	0.244107	0.244045
O15	O	-0.676731	0.188950	0.316913
O16	O	-0.676625	0.316929	0.188865
O17	O	-0.621444	0.316941	0.244038
C18	C	-0.532393	0.216508	0.216459
C19	C	-0.482458	0.216517	0.216461
C20	C	-0.172836	0.187825	0.245260
C21	C	0.014837	0.187826	0.245272
O22	O	0.039085	0.163423	0.269738
N23	N	0.038327	0.216505	0.216492
C24	C	0.014895	0.245185	0.187705
O25	O	0.039181	0.269575	0.163223
C26	C	-0.172777	0.245181	0.187691
C27	C	-0.196264	0.216503	0.216476
C28	C	-0.196323	0.159149	0.274043
C29	C	-0.243238	0.159150	0.274042
C30	C	-0.266666	0.187829	0.245257
C31	C	-0.243179	0.216505	0.216475
C32	C	-0.196208	0.273858	0.158902
C33	C	-0.243129	0.273854	0.158900
C34	C	-0.266616	0.245175	0.187685
C35	C	-0.313523	0.245185	0.187689
N36	N	-0.337013	0.216505	0.216469
C37	C	-0.313584	0.187827	0.245253
C38	C	0.113426	0.245185	0.187715
C39	C	0.160344	0.245186	0.187719
C40	C	0.160283	0.187827	0.245286
C41	C	0.113364	0.187828	0.245284
C42	C	0.089936	0.216505	0.216495
C43	C	-0.412110	0.187833	0.245248
C44	C	-0.459030	0.187839	0.245245
C45	C	-0.458965	0.245197	0.187677
C46	C	-0.412049	0.245193	0.187681
C47	C	-0.388623	0.216508	0.216468
O48	O	-0.337799	0.269571	0.163233
O49	O	-0.337878	0.163433	0.269725
C50	C	-0.125920	0.187823	0.245262
C51	C	-0.102433	0.216499	0.216479
C52	C	-0.125861	0.245177	0.187695
C53	C	-0.055515	0.216501	0.216483
C54	C	-0.032087	0.187823	0.245267
C55	C	-0.055576	0.159143	0.274048
C56	C	-0.102492	0.159145	0.274046
C57	C	-0.102372	0.273857	0.158915
C58	C	-0.055456	0.273853	0.158919
C59	C	-0.032028	0.245175	0.187703
C60	C	-0.649034	0.333236	0.216457
C61	C	-0.649040	0.383170	0.216462
C62	C	-0.649119	0.216544	0.333657
C63	C	-0.649120	0.216557	0.383592
C64	C	0.233707	0.216515	0.216498
C65	C	0.183772	0.216508	0.216503
C66	C	-0.649209	0.099335	0.216511
C67	C	-0.649249	0.049400	0.216525
C68	C	-0.677900	0.692795	0.187792
C69	C	-0.677955	0.880468	0.187810
O70	O	-0.702429	0.904716	0.163416
N71	N	-0.649208	0.903955	0.216513
C72	C	-0.620447	0.880522	0.245216
O73	O	-0.596000	0.904805	0.269633
C74	C	-0.620394	0.692849	0.245200
C75	C	-0.649140	0.669364	0.216492
C76	C	-0.706644	0.669309	0.159087
C77	C	-0.706628	0.622394	0.159081
C78	C	-0.677868	0.598964	0.187781
C79	C	-0.649124	0.622449	0.216486
C80	C	-0.591636	0.669417	0.273905
C81	C	-0.591626	0.622496	0.273899
C82	C	-0.620372	0.599011	0.245191
C83	C	-0.620349	0.552103	0.245180
N84	N	-0.649096	0.528616	0.216477
C85	C	-0.677856	0.552046	0.187777
C86	C	-0.620476	0.979052	0.245221
C87	C	-0.620489	1.025970	0.245224
C88	C	-0.677998	1.025913	0.187819
C89	C	-0.677983	0.978994	0.187814
C90	C	-0.649224	0.955565	0.216518
C91	C	-0.677820	0.453520	0.187767
C92	C	-0.677800	0.406600	0.187762
C93	C	-0.620293	0.406662	0.245169
C94	C	-0.620311	0.453577	0.245172
C95	C	-0.649078	0.477005	0.216470
O96	O	-0.595892	0.527825	0.269564
O97	O	-0.702306	0.527754	0.163370
C98	C	-0.677916	0.739710	0.187798
C99	C	-0.649172	0.763195	0.216504
C100	C	-0.620412	0.739765	0.245203
C101	C	-0.649185	0.810113	0.216507
C102	C	-0.677944	0.833543	0.187807
C103	C	-0.706692	0.810056	0.159104
C104	C	-0.706676	0.763140	0.159098
C105	C	-0.591665	0.763252	0.273906
C106	C	-0.591683	0.810168	0.273909
C107	C	-0.620443	0.833598	0.245210
C108	C	-0.620358	0.245254	0.740166
C109	C	-0.620361	0.245270	0.552493
O110	O	-0.595896	0.269692	0.528218
N111	N	-0.649115	0.216543	0.529037
C112	C	-0.677868	0.187808	0.552502
O113	O	-0.702322	0.163371	0.528245
C114	C	-0.677863	0.187790	0.740174
C115	C	-0.649110	0.216522	0.763628
C116	C	-0.591608	0.273984	0.763620
C117	C	-0.591609	0.273981	0.810535
C118	C	-0.620361	0.245249	0.833997
C119	C	-0.649111	0.216520	0.810543
C120	C	-0.706613	0.159053	0.763638
C121	C	-0.706608	0.159050	0.810559
C122	C	-0.677856	0.187783	0.834013
C123	C	-0.677865	0.187785	0.880920
N124	N	-0.649111	0.216512	0.904376
C125	C	-0.620359	0.245244	0.880915
C126	C	-0.677870	0.187820	0.453971
C127	C	-0.677872	0.187825	0.407053
C128	C	-0.620364	0.245287	0.407048
C129	C	-0.620365	0.245284	0.453966
C130	C	-0.649116	0.216547	0.477427
C131	C	-0.620364	0.245237	0.979441
C132	C	-0.620369	0.245233	1.026360
C133	C	-0.677875	0.187770	1.026362
C134	C	-0.677872	0.187775	0.979446
C135	C	-0.649112	0.216510	0.955987
O136	O	-0.702313	0.163373	0.905225
O137	O	-0.595902	0.269671	0.905180
C138	C	-0.620357	0.245257	0.693251
C139	C	-0.649108	0.216528	0.669797
C140	C	-0.677859	0.187795	0.693258
C141	C	-0.649110	0.216532	0.622879
C142	C	-0.620358	0.245265	0.599417
C143	C	-0.591604	0.273992	0.622873
C144	C	-0.591605	0.273989	0.669789
C145	C	-0.706613	0.159068	0.669802
C146	C	-0.706610	0.159074	0.622887
C147	C	-0.677858	0.187806	0.599425
C148	C	-0.649112	0.216498	1.099756
C149	C	-0.649121	0.216501	1.049822
H150	H	-0.262201	0.297206	0.135456
H151	H	-0.568226	0.688530	0.297280
H152	H	-0.568207	0.603422	0.297275
H153	H	-0.177092	0.297210	0.135461
O154	O	-0.737625	0.128083	0.597591
H155	H	-0.757613	0.108102	0.621793
H156	H	0.179366	0.164476	0.268723
H157	H	-0.392925	0.268550	0.164247
H158	H	0.094356	0.268539	0.164270
H159	H	-0.478048	0.268547	0.164243
O160	O	-0.737639	0.597066	0.128124
H161	H	-0.757642	0.621247	0.108175
H162	H	-0.730083	0.744022	0.135722
H163	H	-0.597056	0.959979	0.268596
H164	H	-0.036493	0.135794	0.297486
H165	H	-0.596942	0.268632	0.960346
O166	O	-0.589476	1.051295	0.276183
H167	H	-0.594310	1.087858	0.271364
H168	H	-0.730027	0.135657	0.744550
O169	O	-0.708995	0.953669	0.156855
H170	H	-0.731830	0.932271	0.176987
O171	O	-0.268565	0.128209	0.305081
H172	H	-0.259559	0.135971	0.340327
O173	O	-0.560586	0.304975	0.738327
H174	H	-0.580668	0.327840	0.716955
H175	H	-0.177252	0.135793	0.297483
H176	H	-0.701415	1.044998	0.164451
H177	H	-0.121611	0.135792	0.297486
H178	H	-0.730066	0.688381	0.135716
H179	H	-0.568271	0.829286	0.297287
H180	H	0.094244	0.164475	0.268722
O181	O	-0.589307	0.478912	0.276134
H182	H	-0.569307	0.454735	0.296091
H183	H	-0.121442	0.297210	0.135474
H184	H	0.179463	0.268544	0.164284
O185	O	-0.030125	0.304784	0.127867
H186	H	-0.054303	0.324719	0.107849
O187	O	-0.708809	0.381269	0.156801
H188	H	-0.728813	0.405447	0.136850
H189	H	-0.701246	0.472590	0.164395
O190	O	-0.560633	0.737989	0.304856
H191	H	-0.568304	0.746985	0.340125
O192	O	-0.589276	0.381387	0.276126
H193	H	-0.594102	0.344817	0.271300
O194	O	-0.737721	0.835331	0.128157
H195	H	-0.732905	0.871900	0.132993
H196	H	-0.596955	0.268632	1.045454
O197	O	-0.560590	0.304964	0.835830
H198	H	-0.540595	0.324936	0.811627
H199	H	-0.596952	0.268680	0.473059
H200	H	-0.393042	0.164474	0.268688
H201	H	-0.701285	0.164379	1.045473
O202	O	-0.560591	0.304977	0.695082
H203	H	-0.537750	0.284869	0.716453
O204	O	-0.589348	0.276274	0.381739
H205	H	-0.594180	0.271444	0.345175
O206	O	-0.708888	0.156840	0.381758
H207	H	-0.728876	0.136859	0.405959
H208	H	-0.701285	0.164419	0.473069
O209	O	-0.708883	0.156788	0.954145
H210	H	-0.728874	0.136807	0.978344
H211	H	-0.730020	0.135647	0.829658
H212	H	-0.568195	0.297388	0.603763
O213	O	-0.737629	0.128081	0.695105
H214	H	-0.757623	0.108111	0.670908
H215	H	-0.478151	0.164485	0.268687
