data_functionalizedCrystal
_audit_creation_method	'MofGen! by Chris Wilmer'
_symmetry_space_group_name_H-M	'P1'
_symmetry_Int_Tables_number	1
_symmetry_cell_setting	triclinic
loop_
_symmetry_equiv_pos_as_xyz
  x,y,z
_cell_length_a	16.959455
_cell_length_b	18.101395
_cell_length_c	16.959447
_cell_angle_alpha	90.029468
_cell_angle_beta	90.020374
_cell_angle_gamma	90.028124
loop_
_atom_site_label
_atom_site_type_symbol
_atom_site_fract_x
_atom_site_fract_y
_atom_site_fract_z
Zn1	Zn	1.208323	-0.294874	0.447041
Zn2	Zn	1.541657	0.038459	0.780374
Zn3	Zn	1.874990	0.371793	1.113708
Zn4	Zn	1.208220	-0.418727	0.314864
Zn5	Zn	1.541554	-0.085393	0.648198
Zn6	Zn	1.874887	0.247940	0.981531
Zn7	Zn	1.076152	-0.294897	0.314865
Zn8	Zn	1.409485	0.038436	0.648198
Zn9	Zn	1.742818	0.371769	0.981531
Zn10	Zn	1.076091	-0.418672	0.446989
Zn11	Zn	1.409424	-0.085338	0.780322
Zn12	Zn	1.742758	0.247995	1.113656
O13	O	1.142197	-0.356792	0.380940
O14	O	1.475530	-0.023459	0.714273
O15	O	1.808863	0.309874	1.047606
O16	O	1.318920	-0.311317	0.429529
O17	O	1.652254	0.022017	0.762863
O18	O	1.985587	0.355350	1.096196
O19	O	1.190683	-0.402333	0.204253
O20	O	1.524017	-0.069000	0.537587
O21	O	1.857350	0.264333	0.870920
O22	O	1.093753	-0.191261	0.332420
O23	O	1.427086	0.142072	0.665753
O24	O	1.760420	0.475405	0.999086
O25	O	1.318845	-0.402311	0.332420
O26	O	1.652178	-0.068977	0.665753
O27	O	1.985511	0.264356	0.999086
O28	O	1.190859	-0.191244	0.429529
O29	O	1.524192	0.142089	0.762863
O30	O	1.857526	0.475423	1.096196
O31	O	1.093653	-0.311356	0.204254
O32	O	1.426987	0.021977	0.537587
O33	O	1.760320	0.355310	0.870920
O34	O	0.965533	-0.311303	0.332369
O35	O	1.298866	0.022030	0.665703
O36	O	1.632199	0.355364	0.999036
O37	O	1.093649	-0.402217	0.557607
O38	O	1.426983	-0.068883	0.890940
O39	O	1.760316	0.264450	1.224274
O40	O	0.965488	-0.402239	0.429441
O41	O	1.298821	-0.068906	0.762774
O42	O	1.632155	0.264427	1.096107
O43	O	1.190800	-0.311263	0.557645
O44	O	1.524133	0.022070	0.890978
O45	O	1.857467	0.355404	1.224312
O46	O	1.190625	-0.522352	0.332369
O47	O	1.523958	-0.189019	0.665703
O48	O	1.857291	0.144314	0.999036
O49	O	1.093550	-0.522312	0.429441
O50	O	1.426883	-0.188979	0.762774
O51	O	1.760216	0.144355	1.096107
C52	C	0.936830	-0.356768	0.380900
C53	C	1.270164	-0.023435	0.714233
C54	C	1.603497	0.309898	1.047567
C55	C	0.848974	-0.356776	0.380902
C56	C	1.182307	-0.023442	0.714235
C57	C	1.515640	0.309891	1.047568
C58	C	0.477448	-0.404126	0.330349
C59	C	0.810781	-0.070793	0.663682
C60	C	1.144115	0.262540	0.997016
C61	C	0.477548	-0.309520	0.431627
C62	C	0.810881	0.023813	0.764960
C63	C	1.144215	0.357147	1.098293
C64	C	0.560094	-0.309508	0.431607
C65	C	0.893427	0.023825	0.764941
C66	C	1.226761	0.357159	1.098274
C67	C	0.601321	-0.356806	0.380959
C68	C	0.934654	-0.023473	0.714292
C69	C	1.267987	0.309860	1.047626
C70	C	0.560002	-0.404117	0.330330
C71	C	0.893335	-0.070784	0.663663
C72	C	1.226668	0.262550	0.996997
C73	C	0.601419	-0.262203	0.482241
C74	C	0.934753	0.071130	0.815575
C75	C	1.268086	0.404463	1.148908
C76	C	0.683970	-0.262190	0.482225
C77	C	1.017304	0.071143	0.815558
C78	C	1.350637	0.404477	1.148891
C79	C	0.725198	-0.309485	0.431572
C80	C	1.058532	0.023848	0.764905
C81	C	1.391865	0.357182	1.098238
C82	C	0.683874	-0.356797	0.380940
C83	C	1.017208	-0.023464	0.714273
C84	C	1.350541	0.309870	1.047607
C85	C	0.725101	-0.404096	0.330292
C86	C	1.058434	-0.070762	0.663625
C87	C	1.391768	0.262571	0.996958
C88	C	0.683778	-0.451404	0.279655
C89	C	1.017112	-0.118071	0.612988
C90	C	1.350445	0.215262	0.946322
C91	C	0.601230	-0.451412	0.279677
C92	C	0.934563	-0.118079	0.613010
C93	C	1.267896	0.215254	0.946344
C94	C	0.807747	-0.309477	0.431550
C95	C	1.141080	0.023856	0.764883
C96	C	1.474414	0.357189	1.098217
C97	C	0.807655	-0.404086	0.330272
C98	C	1.140988	-0.070753	0.663606
C99	C	1.474321	0.262580	0.996939
C100	C	1.142091	-0.549203	0.380916
C101	C	1.475424	-0.215870	0.714250
C102	C	1.808757	0.117464	1.047583
C103	C	1.142118	-0.631517	0.380933
C104	C	1.475451	-0.298184	0.714266
C105	C	1.808785	0.035150	1.047600
C106	C	1.142291	-0.930608	0.380976
C107	C	1.475625	-0.597275	0.714309
C108	C	1.808958	-0.263941	1.047642
C109	C	1.081356	-0.899288	0.442202
C110	C	1.414689	-0.565955	0.775535
C111	C	1.748023	-0.232621	1.108869
C112	C	1.081066	-0.813670	0.442010
C113	C	1.414400	-0.480337	0.775344
C114	C	1.747733	-0.147003	1.108677
C115	C	1.142205	-0.782225	0.380955
C116	C	1.475539	-0.448892	0.714288
C117	C	1.808872	-0.115559	1.047622
C118	C	1.119658	-0.813379	0.297648
C119	C	1.452992	-0.480045	0.630982
C120	C	1.786325	-0.146712	0.964315
C121	C	1.119266	-0.899024	0.298015
C122	C	1.452599	-0.565690	0.631348
C123	C	1.785932	-0.232357	0.964681
C124	C	1.225907	-0.898955	0.402323
C125	C	1.559240	-0.565622	0.735656
C126	C	1.892573	-0.232288	1.068989
C127	C	1.225415	-0.813304	0.404150
C128	C	1.558748	-0.479970	0.737483
C129	C	1.892082	-0.146637	1.070816
C130	C	1.142158	-0.698366	0.380938
C131	C	1.475491	-0.365033	0.714272
C132	C	1.808825	-0.031699	1.047605
C133	C	1.142337	-1.014467	0.380987
C134	C	1.475670	-0.681134	0.714320
C135	C	1.809003	-0.347801	1.047653
C136	C	1.348365	-0.356817	0.380980
C137	C	1.681698	-0.023484	0.714313
C138	C	2.015031	0.309849	1.047647
C139	C	1.436221	-0.356828	0.380997
C140	C	1.769555	-0.023494	0.714331
C141	C	2.102888	0.309839	1.047664
C142	C	1.142229	-0.356731	0.587108
C143	C	1.475563	-0.023398	0.920441
C144	C	1.808896	0.309936	1.253775
C145	C	1.142243	-0.356705	0.674965
C146	C	1.475577	-0.023372	1.008298
C147	C	1.808910	0.309962	1.341631
C148	C	1.142324	-0.163630	0.380980
C149	C	1.475658	0.169703	0.714314
C150	C	1.808991	0.503036	1.047647
C151	C	1.142379	-0.081316	0.380998
C152	C	1.475712	0.252017	0.714331
C153	C	1.809045	0.585350	1.047664
C154	C	1.142209	-0.356800	0.175573
C155	C	1.475543	-0.023467	0.508907
C156	C	1.808876	0.309867	0.842240
C157	C	1.142348	-0.356618	0.087717
C158	C	1.475682	-0.023284	0.421051
C159	C	1.809015	0.310049	0.754384
C160	C	1.091756	-0.403982	1.046423
C161	C	1.425089	-0.070649	1.379756
C162	C	1.758423	0.262684	1.713090
C163	C	1.192920	-0.309271	1.046458
C164	C	1.526253	0.024062	1.379791
C165	C	1.859586	0.357395	1.713125
C166	C	1.192899	-0.309287	0.963912
C167	C	1.526232	0.024046	1.297245
C168	C	1.859565	0.357380	1.630579
C169	C	1.142306	-0.356652	0.922618
C170	C	1.475640	-0.023319	1.255951
C171	C	1.808973	0.310015	1.589284
C172	C	1.091735	-0.404001	0.963870
C173	C	1.425068	-0.070668	1.297203
C174	C	1.758402	0.262666	1.630536
C175	C	1.243475	-0.261944	0.922654
C176	C	1.576808	0.071389	1.255987
C177	C	1.910141	0.404722	1.589321
C178	C	1.243456	-0.261959	0.840103
C179	C	1.576790	0.071375	1.173436
C180	C	1.910123	0.404708	1.506770
C181	C	1.192859	-0.309320	0.798807
C182	C	1.526193	0.024013	1.132141
C183	C	1.859526	0.357346	1.465474
C184	C	1.142285	-0.356671	0.840064
C185	C	1.475619	-0.023337	1.173398
C186	C	1.808952	0.309996	1.506731
C187	C	1.091693	-0.404035	0.798770
C188	C	1.425026	-0.070702	1.132103
C189	C	1.758360	0.262631	1.465437
C190	C	1.041115	-0.451383	0.840025
C191	C	1.374448	-0.118049	1.173359
C192	C	1.707781	0.215284	1.506692
C193	C	1.041138	-0.451363	0.922574
C194	C	1.374471	-0.118029	1.255907
C195	C	1.707805	0.215304	1.589240
C196	C	1.192836	-0.309340	0.716259
C197	C	1.526169	0.023993	1.049592
C198	C	1.859502	0.357326	1.382926
C199	C	1.091672	-0.404054	0.716216
C200	C	1.425005	-0.070721	1.049550
C201	C	1.758339	0.262613	1.382883
H202	H	0.841388	-0.270961	0.472779
H203	H	1.174722	0.062373	0.806112
H204	H	1.508055	0.395706	1.139446
Br205	Br	1.104575	-0.778555	0.544966
Br206	Br	1.437908	-0.445222	0.878300
Br207	Br	1.771241	-0.111888	1.211633
H208	H	1.095322	-0.919834	0.504173
H209	H	1.428655	-0.586501	0.837506
H210	H	1.761988	-0.253168	1.170839
Br211	Br	1.301579	-0.932727	0.328011
Br212	Br	1.634912	-0.599393	0.661345
Br213	Br	1.968246	-0.266060	0.994678
Br214	Br	1.190021	-0.933565	0.219383
Br215	Br	1.523354	-0.600232	0.552717
Br216	Br	1.856688	-0.266898	0.886050
H217	H	0.567846	-0.223700	0.523482
H218	H	0.901180	0.109633	0.856815
H219	H	1.234513	0.442966	1.190148
H220	H	1.050466	-0.442618	0.682600
H221	H	1.383799	-0.109285	1.015934
H222	H	1.717133	0.224049	1.349267
Br223	Br	1.191304	-0.779438	0.219536
Br224	Br	1.524637	-0.446105	0.552870
Br225	Br	1.857970	-0.112771	0.886203
H226	H	1.242418	-0.792939	0.465459
H227	H	1.575751	-0.459606	0.798792
H228	H	1.909084	-0.126273	1.132126
H229	H	0.999926	-0.489950	0.806393
H230	H	1.333259	-0.156617	1.139726
H231	H	1.666593	0.176717	1.473059
Br232	Br	0.977764	-0.779619	0.418448
Br233	Br	1.311097	-0.446286	0.751781
Br234	Br	1.644431	-0.112952	1.085114
Br235	Br	0.863599	-0.468274	0.261525
Br236	Br	1.196932	-0.134941	0.594858
Br237	Br	1.530266	0.198392	0.928191
Br238	Br	0.972505	-0.515616	0.978567
Br239	Br	1.305839	-0.182283	1.311900
Br240	Br	1.639172	0.151051	1.645234
Br241	Br	1.305093	-0.777615	0.335249
Br242	Br	1.638427	-0.444282	0.668582
Br243	Br	1.971760	-0.110948	1.001916
H244	H	1.284669	-0.223387	0.956282
H245	H	1.618002	0.109946	1.289615
H246	H	1.951336	0.443280	1.622949
H247	H	1.234018	-0.270793	0.682673
H248	H	1.567352	0.062540	1.016006
H249	H	1.900685	0.395874	1.349339
Br250	Br	1.023113	-0.468232	1.102408
Br251	Br	1.356446	-0.134899	1.435742
Br252	Br	1.689779	0.198435	1.769075
H253	H	0.717356	-0.489919	0.238421
H254	H	1.050689	-0.156585	0.571755
H255	H	1.384023	0.176748	0.905088
H256	H	1.058143	-0.919064	0.279932
H257	H	1.391477	-0.585731	0.613266
H258	H	1.724810	-0.252398	0.946599
Br259	Br	0.545145	-0.515612	0.210963
Br260	Br	0.878478	-0.182278	0.544296
Br261	Br	1.211812	0.151055	0.877630
H262	H	1.234114	-0.270713	1.080085
H263	H	1.567447	0.062620	1.413418
H264	H	1.900781	0.395953	1.746751
H265	H	0.717608	-0.223668	0.523456
H266	H	1.050942	0.109666	0.856789
H267	H	1.384275	0.442999	1.190122
Br268	Br	1.312095	-0.197702	0.784121
Br269	Br	1.645429	0.135631	1.117454
Br270	Br	1.978762	0.468964	1.450788
H271	H	1.019755	-0.920872	0.428239
H272	H	1.353088	-0.587539	0.761572
H273	H	1.686422	-0.254205	1.094906
H274	H	1.059184	-0.791992	0.279242
H275	H	1.392517	-0.458658	0.612575
H276	H	1.725850	-0.125325	0.945909
H277	H	1.246464	-0.920502	0.462035
H278	H	1.579797	-0.587168	0.795369
H279	H	1.913131	-0.253835	1.128702
H280	H	0.443976	-0.271016	0.472867
H281	H	0.777310	0.062317	0.806200
H282	H	1.110643	0.395651	1.139533
Br283	Br	0.421371	-0.468323	0.261626
Br284	Br	0.754705	-0.134989	0.594959
Br285	Br	1.088038	0.198344	0.928292
