data_functionalizedCrystal
_audit_creation_method	'MofGen! by Chris Wilmer'
_symmetry_space_group_name_H-M	'P1'
_symmetry_Int_Tables_number	1
_symmetry_cell_setting	triclinic
loop_
_symmetry_equiv_pos_as_xyz
  x,y,z
_cell_length_a	10.654550
_cell_length_b	9.565339
_cell_length_c	10.654559
_cell_angle_alpha	90.000176
_cell_angle_beta	84.486774
_cell_angle_gamma	90.007114
loop_
_atom_site_label
_atom_site_type_symbol
_atom_site_fract_x
_atom_site_fract_y
_atom_site_fract_z
O1	O	1.667846	0.116377	0.176389
O2	O	1.302368	0.116354	0.193195
O3	O	1.493504	0.116355	0.002053
O4	O	1.476710	0.116376	0.367530
O5	O	1.493489	-0.116165	0.002065
O6	O	1.302353	-0.116166	0.193207
O7	O	1.667831	-0.116144	0.176401
Zn8	Zn	1.485090	-0.153072	0.184806
Zn9	Zn	1.485110	0.153283	0.184790
O10	O	1.476695	-0.116144	0.367542
C11	C	1.255563	0.000091	0.191967
C12	C	1.116119	0.000083	0.188275
N13	N	1.485085	-0.362152	0.184816
C14	C	1.036637	0.000109	0.300816
C15	C	0.905616	0.000133	0.297340
C16	C	0.933572	0.000110	0.068771
C17	C	1.064591	0.000076	0.072249
C18	C	1.020496	0.000129	0.432779
C19	C	0.889475	0.000153	0.429302
C20	C	1.396664	-0.453355	0.273183
C21	C	1.510368	-0.546525	0.298541
C22	C	1.371430	-0.546537	0.159468
C23	C	1.598847	-0.453270	0.210231
C24	C	1.459834	-0.453273	0.071108
C25	C	1.573620	-0.546401	0.096418
C26	C	1.714637	0.000123	0.177629
C27	C	1.854080	0.000141	0.181321
C28	C	1.492261	0.000095	-0.044738
C29	C	1.488565	0.000096	-0.184181
N30	N	1.485124	0.362362	0.184770
C31	C	1.483372	0.126867	-0.380705
C32	C	1.486842	0.126852	-0.249683
C33	C	1.486831	-0.126654	-0.249709
C34	C	1.483370	-0.126637	-0.380729
C35	C	1.483373	0.273227	-0.380688
C36	C	1.486842	0.273212	-0.249666
C37	C	1.477938	0.000119	0.414334
C38	C	1.481635	0.000127	0.553777
H39	H	1.129301	0.000034	-0.019393
N40	N	1.371853	0.347572	-0.188343
H41	H	1.374305	0.347582	-0.093815
H42	H	1.371003	0.447102	-0.219891
N43	N	0.877994	0.000091	-0.056366
H44	H	0.782934	0.000110	-0.041495
H45	H	0.907022	0.086277	-0.105677
N46	N	1.297696	-0.399241	0.372248
H47	H	1.316954	-0.433169	0.458094
H48	H	1.297873	-0.293666	0.370923
N49	N	1.538700	-0.600810	0.425876
H50	H	1.623908	-0.565426	0.445693
H51	H	1.471778	-0.566968	0.492510
H52	H	1.648494	-0.587000	0.021666
N53	N	1.067745	0.133091	0.488450
H54	H	1.162385	0.128212	0.488978
H55	H	1.044840	0.215528	0.435990
N56	N	1.726212	-0.399244	0.238770
H57	H	1.783912	-0.480697	0.251637
H58	H	1.763707	-0.340340	0.165911
H59	H	1.049823	-0.097183	0.484394
N60	N	1.362062	0.333396	-0.419875
H61	H	1.363946	0.331213	-0.514812
H62	H	1.288507	0.276070	-0.381547
H63	H	1.481974	-0.229841	-0.434072
H64	H	1.438414	-0.412280	-0.025002
N65	N	1.488710	-0.263373	-0.179070
H66	H	1.491172	-0.244155	-0.086128
H67	H	1.410385	-0.318732	-0.192476
N68	N	1.244100	-0.600818	0.131088
H69	H	1.177367	-0.566974	0.197916
H70	H	1.224434	-0.565433	0.045841
H71	H	1.578442	0.318634	-0.220087
N72	N	0.828957	-0.132813	0.482119
H73	H	0.896082	-0.197076	0.510200
H74	H	0.766458	-0.109573	0.556532
N75	N	0.834191	0.129054	0.495153
H76	H	0.904024	0.186565	0.527038
H77	H	0.788980	0.186467	0.433900
H78	H	1.570168	0.329437	-0.426957
