data_functionalizedCrystal
_audit_creation_method	'MofGen! by Chris Wilmer'
_symmetry_space_group_name_H-M	'P1'
_symmetry_Int_Tables_number	1
_symmetry_cell_setting	triclinic
loop_
_symmetry_equiv_pos_as_xyz
  x,y,z
_cell_length_a	18.050591
_cell_length_b	18.050589
_cell_length_c	18.050591
_cell_angle_alpha	90.013707
_cell_angle_beta	90.014855
_cell_angle_gamma	90.024227
loop_
_atom_site_label
_atom_site_type_symbol
_atom_site_fract_x
_atom_site_fract_y
_atom_site_fract_z
Zn1	Zn	1.135248	-0.295819	0.420054
Zn2	Zn	1.468581	0.037515	0.753387
Zn3	Zn	1.801915	0.370848	1.086720
Zn4	Zn	1.135172	-0.419992	0.295873
Zn5	Zn	1.468505	-0.086659	0.629207
Zn6	Zn	1.801839	0.246674	0.962540
Zn7	Zn	1.011080	-0.295812	0.295865
Zn8	Zn	1.344414	0.037521	0.629198
Zn9	Zn	1.677747	0.370855	0.962532
Zn10	Zn	1.011015	-0.419963	0.420009
Zn11	Zn	1.344349	-0.086629	0.753342
Zn12	Zn	1.677682	0.246704	1.086675
O13	O	1.073129	-0.357896	0.357950
O14	O	1.406462	-0.024563	0.691283
O15	O	1.739796	0.308770	1.024617
O16	O	1.239162	-0.312306	0.403603
O17	O	1.572496	0.021028	0.736937
O18	O	1.905829	0.354361	1.070270
O19	O	1.118706	-0.403529	0.191948
O20	O	1.452040	-0.070196	0.525281
O21	O	1.785373	0.263138	0.858614
O22	O	1.027611	-0.191888	0.312354
O23	O	1.360944	0.141445	0.645688
O24	O	1.694277	0.474778	0.979021
O25	O	1.239107	-0.403536	0.312368
O26	O	1.572440	-0.070202	0.645702
O27	O	1.905773	0.263131	0.979035
O28	O	1.118836	-0.191893	0.403595
O29	O	1.452169	0.141440	0.736929
O30	O	1.785503	0.474773	1.070262
O31	O	1.027537	-0.312294	0.191941
O32	O	1.360870	0.021039	0.525275
O33	O	1.694203	0.354372	0.858608
O34	O	0.907147	-0.312266	0.312310
O35	O	1.240481	0.021068	0.645644
O36	O	1.573814	0.354401	0.978977
O37	O	1.027500	-0.403485	0.523939
O38	O	1.360833	-0.070152	0.857273
O39	O	1.694166	0.263181	1.190606
O40	O	0.907099	-0.403479	0.403518
O41	O	1.240433	-0.070145	0.736852
O42	O	1.573766	0.263188	1.070185
O43	O	1.118773	-0.312277	0.523972
O44	O	1.452106	0.021056	0.857306
O45	O	1.785440	0.354389	1.190639
O46	O	1.118643	-0.523913	0.312325
O47	O	1.451976	-0.190580	0.645658
O48	O	1.785310	0.142754	0.978991
O49	O	1.027426	-0.523891	0.403526
O50	O	1.360759	-0.190558	0.736860
O51	O	1.694092	0.142775	1.070193
C52	C	0.880177	-0.357869	0.357909
C53	C	1.213510	-0.024535	0.691242
C54	C	1.546843	0.308798	1.024576
C55	C	0.797631	-0.357875	0.357909
C56	C	1.130964	-0.024541	0.691242
C57	C	1.464298	0.308792	1.024576
C58	C	0.598185	-0.308216	0.308424
C59	C	0.931518	0.025118	0.641758
C60	C	1.264851	0.358451	0.975091
C61	C	0.548767	-0.375950	0.290154
C62	C	0.882100	-0.042617	0.623487
C63	C	1.215434	0.290717	0.956820
C64	C	0.646501	-0.357897	0.357943
C65	C	0.979834	-0.024564	0.691276
C66	C	1.313167	0.308769	1.024609
C67	C	0.548837	-0.290186	0.376212
C68	C	0.882170	0.043147	0.709545
C69	C	1.215503	0.376480	1.042878
C70	C	0.500516	-0.357913	0.357974
C71	C	0.833849	-0.024580	0.691307
C72	C	1.167182	0.308754	1.024640
C73	C	0.598170	-0.425667	0.339636
C74	C	0.931503	-0.092334	0.672970
C75	C	1.264837	0.240999	1.006303
C76	C	0.598244	-0.339858	0.425726
C77	C	0.931577	-0.006525	0.759059
C78	C	1.264911	0.326809	1.092393
C79	C	0.548849	-0.407639	0.407481
C80	C	0.882182	-0.074306	0.740814
C81	C	1.215515	0.259027	1.074147
C82	C	0.730599	-0.357887	0.357923
C83	C	1.063932	-0.024554	0.691256
C84	C	1.397266	0.308779	1.024590
C85	C	0.416419	-0.357931	0.357994
C86	C	0.749752	-0.024598	0.691327
C87	C	1.083086	0.308736	1.024660
C88	C	1.073039	-0.550849	0.357938
C89	C	1.406373	-0.217515	0.691271
C90	C	1.739706	0.115818	1.024604
C91	C	1.073069	-0.633394	0.357957
C92	C	1.406402	-0.300061	0.691291
C93	C	1.739735	0.033272	1.024624
C94	C	1.023514	-0.832860	0.407536
C95	C	1.356847	-0.499527	0.740869
C96	C	1.690180	-0.166194	1.074202
C97	C	1.005423	-0.882288	0.339766
C98	C	1.338756	-0.548954	0.673100
C99	C	1.672090	-0.215621	1.006433
C100	C	1.073142	-0.784525	0.357967
C101	C	1.406475	-0.451191	0.691300
C102	C	1.739808	-0.117858	1.024634
C103	C	1.091269	-0.882179	0.425744
C104	C	1.424602	-0.548846	0.759077
C105	C	1.757936	-0.215512	1.092411
C106	C	1.073211	-0.930510	0.357982
C107	C	1.406544	-0.597176	0.691316
C108	C	1.739878	-0.263843	1.024649
C109	C	1.055015	-0.832865	0.290162
C110	C	1.388349	-0.499532	0.623495
C111	C	1.721682	-0.166198	0.956829
C112	C	1.140893	-0.832752	0.376185
C113	C	1.474226	-0.499419	0.709519
C114	C	1.807560	-0.166085	1.042852
C115	C	1.122828	-0.882157	0.308369
C116	C	1.456161	-0.548824	0.641703
C117	C	1.789495	-0.215490	0.975036
C118	C	1.073100	-0.700426	0.357959
C119	C	1.406433	-0.367093	0.691293
C120	C	1.739767	-0.033760	1.024626
C121	C	1.073253	-1.014606	0.357983
C122	C	1.406586	-0.681273	0.691316
C123	C	1.739919	-0.347940	1.024649
C124	C	1.266834	-0.357925	0.357992
C125	C	1.600168	-0.024591	0.691325
C126	C	1.933501	0.308742	1.024658
C127	C	1.349380	-0.357937	0.358010
C128	C	1.682714	-0.024603	0.691343
C129	C	2.016047	0.308730	1.024676
C130	C	1.073137	-0.357879	0.551656
C131	C	1.406471	-0.024545	0.884989
C132	C	1.739804	0.308788	1.218322
C133	C	1.073141	-0.357871	0.634201
C134	C	1.406474	-0.024538	0.967535
C135	C	1.739808	0.308796	1.300868
C136	C	1.073239	-0.164191	0.357979
C137	C	1.406572	0.169143	0.691312
C138	C	1.739906	0.502476	1.024645
C139	C	1.073286	-0.081645	0.357991
C140	C	1.406619	0.251688	0.691324
C141	C	1.739953	0.585022	1.024658
C142	C	1.122781	-0.308285	0.883045
C143	C	1.456114	0.025049	1.216378
C144	C	1.789448	0.358382	1.549712
C145	C	1.140911	-0.376037	0.833638
C146	C	1.474244	-0.042703	1.166971
C147	C	1.807578	0.290630	1.500305
C148	C	1.073140	-0.357899	0.931322
C149	C	1.406474	-0.024565	1.264655
C150	C	1.739807	0.308768	1.597989
C151	C	1.055046	-0.290137	0.833647
C152	C	1.388379	0.043197	1.166981
C153	C	1.721713	0.376530	1.500314
C154	C	1.073143	-0.357882	0.785337
C155	C	1.406476	-0.024548	1.118670
C156	C	1.739809	0.308785	1.452003
C157	C	1.091305	-0.425687	0.883002
C158	C	1.424639	-0.092353	1.216335
C159	C	1.757972	0.240980	1.549669
C160	C	1.005409	-0.339741	0.883016
C161	C	1.338742	-0.006408	1.216349
C162	C	1.672075	0.326926	1.549682
C163	C	1.023513	-0.407540	0.833631
C164	C	1.356846	-0.074207	1.166964
C165	C	1.690179	0.259127	1.500298
C166	C	1.073141	-0.357907	1.015420
C167	C	1.406474	-0.024574	1.348753
C168	C	1.739808	0.308759	1.682087
C169	C	1.073142	-0.357880	0.701240
C170	C	1.406475	-0.024547	1.034574
C171	C	1.739808	0.308786	1.367907
C172	C	1.073122	-0.357924	1.164998
C173	C	1.406455	-0.024590	1.498331
C174	C	1.739789	0.308743	1.831665
C175	C	1.073140	-0.357910	1.082452
C176	C	1.406473	-0.024577	1.415786
C177	C	1.739806	0.308757	1.749119
H178	H	0.619750	-0.482953	0.324134
H179	H	0.953084	-0.149620	0.657467
H180	H	1.286417	0.183713	0.990801
H181	H	0.948160	-0.904062	0.324371
H182	H	1.281494	-0.570729	0.657705
H183	H	1.614827	-0.237396	0.991038
C184	C	1.112081	-0.503111	0.912161
C185	C	1.445415	-0.169778	1.245494
C186	C	1.778748	0.163556	1.578828
H187	H	1.111981	-0.502637	0.964791
H188	H	1.445314	-0.169304	1.298124
H189	H	1.778647	0.164029	1.631457
H190	H	1.077044	-0.538378	0.894848
H191	H	1.410377	-0.205045	1.228181
H192	H	1.743711	0.128288	1.561515
H193	H	1.160051	-0.516075	0.894843
H194	H	1.493384	-0.182741	1.228176
H195	H	1.826718	0.150592	1.561510
H196	H	0.527323	-0.449709	0.449370
H197	H	0.860656	-0.116375	0.782703
H198	H	1.193989	0.216958	1.116037
H199	H	0.527035	-0.391220	0.232844
H200	H	0.860369	-0.057886	0.566177
H201	H	1.193702	0.275447	0.899510
C202	C	1.111948	-0.911441	0.503165
C203	C	1.445282	-0.578107	0.836498
C204	C	1.778615	-0.244774	1.169831
H205	H	1.076614	-0.894552	0.538314
H206	H	1.409947	-0.561219	0.871648
H207	H	1.743280	-0.227886	1.204981
H208	H	1.112270	-0.964061	0.502509
H209	H	1.445603	-0.630728	0.835843
H210	H	1.778937	-0.297395	1.169176
H211	H	1.159715	-0.893744	0.516440
H212	H	1.493048	-0.560410	0.849774
H213	H	1.826382	-0.227077	1.183107
H214	H	1.164792	-0.266387	0.904741
H215	H	1.498125	0.066946	1.238074
H216	H	1.831458	0.400279	1.571407
H217	H	1.198191	-0.391391	0.811946
H218	H	1.531524	-0.058058	1.145280
H219	H	1.864858	0.275276	1.478613
C220	C	1.179564	-0.911224	0.251692
C221	C	1.512898	-0.577891	0.585025
C222	C	1.846231	-0.244557	0.918359
H223	H	1.215867	-0.940154	0.276480
H224	H	1.549201	-0.606821	0.609814
H225	H	1.882534	-0.273487	0.943147
H226	H	1.154942	-0.940892	0.215851
H227	H	1.488275	-0.607559	0.549184
H228	H	1.821608	-0.274225	0.882517
H229	H	1.202895	-0.870553	0.227786
H230	H	1.536228	-0.537219	0.561119
H231	H	1.869562	-0.203886	0.894453
H232	H	0.948145	-0.324365	0.904722
H233	H	1.281479	0.008968	1.238056
H234	H	1.614812	0.342302	1.571389
C235	C	0.966807	-0.464271	0.804497
C236	C	1.300140	-0.130938	1.137830
C237	C	1.633473	0.202395	1.471164
H238	H	0.979783	-0.512357	0.821488
H239	H	1.313116	-0.179024	1.154821
H240	H	1.646450	0.154310	1.488154
H241	H	0.918836	-0.451790	0.822151
H242	H	1.252169	-0.118457	1.155484
H243	H	1.585502	0.214876	1.488818
H244	H	0.966831	-0.463676	0.751871
H245	H	1.300165	-0.130343	1.085204
H246	H	1.633498	0.202991	1.418537
H247	H	0.527127	-0.232925	0.391625
H248	H	0.860461	0.100408	0.724958
H249	H	1.193794	0.433742	1.058292
C250	C	0.627633	-0.319203	0.503121
C251	C	0.960966	0.014130	0.836454
C252	C	1.294299	0.347464	1.169787
H253	H	0.610773	-0.271047	0.516018
H254	H	0.944106	0.062286	0.849351
H255	H	1.277440	0.395620	1.182685
H256	H	0.610007	-0.354008	0.538434
H257	H	0.943340	-0.020675	0.871767
H258	H	1.276674	0.312659	1.205101
H259	H	0.680257	-0.319792	0.502651
H260	H	1.013590	0.013541	0.835984
H261	H	1.346924	0.346874	1.169318
C262	C	1.034362	-0.212734	0.804364
C263	C	1.367696	0.120599	1.137697
C264	C	1.701029	0.453933	1.471031
H265	H	1.069681	-0.177553	0.821295
H266	H	1.403014	0.155781	1.154628
H267	H	1.736347	0.489114	1.487961
H268	H	1.034066	-0.213388	0.751743
H269	H	1.367399	0.119946	1.085076
H270	H	1.700732	0.453279	1.418409
H271	H	0.986584	-0.199503	0.822006
H272	H	1.319918	0.133830	1.155340
H273	H	1.653251	0.467164	1.488673
H274	H	0.981483	-0.811214	0.449395
H275	H	1.314816	-0.477880	0.782728
H276	H	1.648150	-0.144547	1.116061
H277	H	1.039645	-0.811293	0.232834
H278	H	1.372978	-0.477960	0.566168
H279	H	1.706311	-0.144626	0.899501
C280	C	0.627458	-0.251523	0.251797
C281	C	0.960791	0.081811	0.585130
C282	C	1.294124	0.415144	0.918464
H283	H	0.610515	-0.264470	0.203669
H284	H	0.943848	0.068863	0.537002
H285	H	1.277181	0.402197	0.870335
H286	H	0.609842	-0.203538	0.264291
H287	H	0.943175	0.129795	0.597624
H288	H	1.276508	0.463129	0.930957
H289	H	0.680083	-0.251599	0.252487
H290	H	1.013416	0.081735	0.585820
H291	H	1.346750	0.415068	0.919154
C292	C	1.218245	-0.803361	0.397012
C293	C	1.551578	-0.470028	0.730345
C294	C	1.884911	-0.136694	1.063678
H295	H	1.231032	-0.820223	0.445199
H296	H	1.564365	-0.486890	0.778532
H297	H	1.897699	-0.153557	1.111865
H298	H	1.253628	-0.820992	0.362287
H299	H	1.586961	-0.487658	0.695620
H300	H	1.920294	-0.154325	1.028954
H301	H	1.217793	-0.750737	0.396412
H302	H	1.551127	-0.417403	0.729746
H303	H	1.884460	-0.084070	1.063079
