data_functionalizedCrystal
_audit_creation_method	'MofGen! by Chris Wilmer'
_symmetry_space_group_name_H-M	'P1'
_symmetry_Int_Tables_number	1
_symmetry_cell_setting	triclinic
loop_
_symmetry_equiv_pos_as_xyz
  x,y,z
_cell_length_a	10.723023
_cell_length_b	10.654551
_cell_length_c	9.798715
_cell_angle_alpha	89.999682
_cell_angle_beta	89.996449
_cell_angle_gamma	84.476455
loop_
_atom_site_label
_atom_site_type_symbol
_atom_site_fract_x
_atom_site_fract_y
_atom_site_fract_z
O1	O	1.657215	0.176142	-0.113478
O2	O	1.294065	0.193004	-0.113481
O3	O	1.483989	0.001832	-0.113480
O4	O	1.467291	0.367313	-0.113479
O5	O	1.483974	0.001832	0.113502
O6	O	1.294051	0.193003	0.113502
O7	O	1.657201	0.176141	0.113504
Zn8	Zn	1.475623	0.184572	0.149541
Zn9	Zn	1.475642	0.184573	-0.149518
O10	O	1.467277	0.367313	0.113504
C11	C	1.247558	0.191777	0.000010
C12	C	1.109003	0.188106	0.000009
C13	C	1.047239	0.186470	-0.117575
C14	C	0.904035	0.182676	-0.117580
C15	C	1.482755	-0.044966	0.000008
C16	C	1.479086	-0.184408	-0.000001
C17	C	1.477373	-0.249920	-0.123727
C18	C	1.473915	-0.380939	-0.123721
C19	C	1.473889	-0.380926	0.123748
C20	C	1.477338	-0.249907	0.123740
C21	C	1.479121	-0.184421	-0.247468
C22	C	1.477409	-0.249933	-0.371204
C23	C	1.473951	-0.380952	-0.371198
C24	C	1.472205	-0.446461	-0.247456
C25	C	1.703707	0.177369	0.000011
C26	C	1.842262	0.181039	0.000003
C27	C	1.468510	0.414111	0.000013
C28	C	1.472179	0.553553	0.000013
N29	N	1.475620	0.184571	0.353641
N30	N	1.475656	0.184564	-0.353617
C31	C	1.555363	0.103950	0.421418
C32	C	1.555383	0.103945	0.578581
H33	H	1.478819	-0.196586	-0.471950
O34	O	1.645823	0.012518	0.655786
H35	H	1.743329	0.029126	0.628426
H36	H	1.407358	0.253587	0.411965
O37	O	1.472080	-0.451597	-0.504657
H38	H	1.555401	-0.521767	-0.510584
H39	H	1.055863	0.186705	0.100673
O40	O	1.468490	-0.587778	-0.247440
H41	H	1.467602	-0.622332	-0.354264
H42	H	1.472468	-0.434273	0.224493
O43	O	1.385218	0.276004	0.569191
H44	H	1.326826	0.335064	0.642773
H45	H	0.895371	0.182441	0.100676
H46	H	1.623617	0.034925	0.363096
O47	O	1.479199	-0.179235	0.257183
H48	H	1.477426	-0.246792	0.343229
H49	H	0.850919	0.181265	-0.218247
O50	O	1.117611	0.188312	-0.250930
H51	H	1.219048	0.190983	-0.230000
H52	H	1.481940	-0.077738	-0.247487
