data_functionalizedCrystal
_audit_creation_method	'MofGen! by Chris Wilmer'
_symmetry_space_group_name_H-M	'P1'
_symmetry_Int_Tables_number	1
_symmetry_cell_setting	triclinic
loop_
_symmetry_equiv_pos_as_xyz
  x,y,z
_cell_length_a	14.519709
_cell_length_b	11.792241
_cell_length_c	10.868271
_cell_angle_alpha	89.999850
_cell_angle_beta	89.998701
_cell_angle_gamma	96.063220
loop_
_atom_site_label
_atom_site_type_symbol
_atom_site_fract_x
_atom_site_fract_y
_atom_site_fract_z
O1	O	-1.224412	0.148781	-0.102148
O2	O	-0.724412	0.648781	0.397852
O3	O	-0.955999	0.166302	-0.102184
O4	O	-0.455999	0.666302	0.397816
O5	O	-1.096719	-0.007665	-0.102172
O6	O	-0.596719	0.492335	0.397828
O7	O	-1.083692	0.322748	-0.102159
O8	O	-0.583692	0.822748	0.397841
O9	O	-1.096707	-0.007672	0.102472
O10	O	-0.596707	0.492328	0.602472
O11	O	-0.955987	0.166295	0.102461
O12	O	-0.455987	0.666295	0.602461
O13	O	-1.224400	0.148774	0.102497
O14	O	-0.724400	0.648774	0.602497
Zn15	Zn	-1.090192	0.157533	0.134970
Zn16	Zn	-0.590192	0.657533	0.634970
Zn17	Zn	-1.090207	0.157542	-0.134658
Zn18	Zn	-0.590207	0.657542	0.365342
O19	O	-1.083680	0.322741	0.102485
O20	O	-0.583680	0.822741	0.602485
C21	C	-0.921630	0.165482	0.000134
C22	C	-0.421630	0.665482	0.500134
C23	C	-0.819240	0.163035	0.000119
C24	C	-0.319240	0.663035	0.500119
N25	N	-1.090188	0.157527	0.318985
N26	N	-0.590188	0.657527	0.818985
C27	C	-1.258769	0.149594	0.000176
C28	C	-0.758769	0.649594	0.500176
C29	C	-1.361159	0.152041	0.000183
C30	C	-0.861159	0.652041	0.500183
C31	C	-0.444311	0.154027	0.000175
C32	C	0.055689	0.654027	0.500175
C33	C	-0.548628	0.156528	0.000159
C34	C	-0.048628	0.656528	0.500159
C35	C	-0.631772	0.158531	0.000146
C36	C	-0.131772	0.658531	0.500146
C37	C	-0.736096	0.161033	0.000132
C38	C	-0.236096	0.661033	0.500132
C39	C	-1.095895	-0.049955	0.000145
C40	C	-0.595895	0.450045	0.500145
C41	C	-1.093446	-0.175955	0.000131
C42	C	-0.593446	0.324045	0.500131
C43	C	-1.084504	0.365031	0.000165
C44	C	-0.584504	0.865031	0.500165
C45	C	-1.086953	0.491031	0.000170
C46	C	-0.586953	0.991031	0.500170
C47	C	-1.091457	0.721718	0.000140
C48	C	-0.591457	1.221718	0.500140
C49	C	-1.088955	0.593347	0.000157
C50	C	-0.588955	1.093347	0.500157
N51	N	-1.090218	0.157540	-0.318672
N52	N	-0.590218	0.657540	0.181328
C53	C	-1.090202	0.157540	0.569991
C54	C	-0.590202	0.657540	1.069991
C55	C	-1.090191	0.157536	0.430313
C56	C	-0.590191	0.657536	0.930313
