data_functionalizedCrystal
_audit_creation_method	'MofGen! by Chris Wilmer'
_symmetry_space_group_name_H-M	'P1'
_symmetry_Int_Tables_number	1
_symmetry_cell_setting	triclinic
loop_
_symmetry_equiv_pos_as_xyz
  x,y,z
_cell_length_a	14.044220
_cell_length_b	14.044191
_cell_length_c	18.366186
_cell_angle_alpha	90.006472
_cell_angle_beta	89.993222
_cell_angle_gamma	86.809673
loop_
_atom_site_label
_atom_site_type_symbol
_atom_site_fract_x
_atom_site_fract_y
_atom_site_fract_z
O1	O	0.230202	-1.277179	-0.060518
O2	O	0.221889	-1.000506	-0.060527
O3	O	0.087710	-1.134690	-0.060515
O4	O	0.364381	-1.142995	-0.060529
O5	O	0.087700	-1.134664	0.060584
O6	O	0.221880	-1.000481	0.060573
O7	O	0.230192	-1.277153	0.060582
Zn8	Zn	0.226035	-1.138813	0.079804
Zn9	Zn	0.226047	-1.138847	-0.079749
O10	O	0.364372	-1.142970	0.060570
C11	C	0.052083	-1.131041	0.000035
C12	C	-0.054060	-1.120197	0.000035
C13	C	0.218248	-0.964872	0.000022
C14	C	0.207401	-0.858728	0.000019
C15	C	0.233834	-1.312788	0.000031
C16	C	0.244681	-1.418931	0.000030
C17	C	-0.248398	-1.100370	0.000024
C18	C	-0.299526	-1.177285	0.000024
C19	C	-0.407663	-1.166253	0.000018
C20	C	-0.140252	-1.111400	0.000030
C21	C	0.399998	-1.146618	0.000019
C22	C	0.506142	-1.157463	0.000013
C23	C	0.264501	-0.613270	0.000023
C24	C	0.187585	-0.664395	0.000026
C25	C	0.198613	-0.772532	0.000022
C26	C	0.253474	-0.505123	0.000027
N27	N	0.226026	-1.138797	0.188695
N28	N	0.226048	-1.138870	-0.188641
C29	C	0.166645	-1.198237	0.226801
C30	C	0.166641	-1.198243	0.303029
C31	C	0.226036	-1.138819	0.341148
C32	C	0.285421	-1.079367	0.303033
C33	C	0.285416	-1.079356	0.226807
C34	C	0.311927	-1.133662	0.461904
C35	C	0.311934	-1.133680	0.538129
C36	C	0.226050	-1.138847	0.576256
C37	C	0.140158	-1.144016	0.538148
C38	C	0.140153	-1.144005	0.461922
C39	C	0.226047	-1.138824	0.423803
C40	C	0.166660	-1.198297	0.697016
C41	C	0.166655	-1.198296	0.773245
C42	C	0.285442	-1.079424	0.773249
C43	C	0.285439	-1.079420	0.697021
C44	C	0.226050	-1.138861	0.658909
H45	H	-0.262085	-1.251419	-0.000022
C46	C	0.350769	-1.014044	0.655098
C47	C	0.416134	-0.948704	0.697020
C48	C	0.481464	-0.883323	0.655097
C49	C	0.481431	-0.883282	0.571251
C50	C	0.416064	-0.948625	0.529324
C51	C	0.350733	-1.014006	0.571247
H52	H	0.416161	-0.948732	0.759093
H53	H	0.529853	-0.834952	0.686135
H54	H	0.529792	-0.834883	0.540217
H55	H	0.416037	-0.948596	0.467252
H56	H	0.302345	-1.062377	0.540209
H57	H	0.338628	-0.650711	0.000017
C58	C	-0.298971	-1.000224	0.000019
C59	C	-0.408679	-0.989192	0.000015
C60	C	-0.459264	-0.889048	0.000011
C61	C	-0.400142	-0.799936	0.000012
C62	C	-0.290428	-0.810965	0.000017
C63	C	-0.239842	-0.911109	0.000021
H64	H	-0.452450	-1.055161	0.000014
H65	H	-0.540482	-0.880884	0.000007
H66	H	-0.437589	-0.725803	0.000009
H67	H	-0.246656	-0.744996	0.000018
H68	H	-0.158624	-0.919273	0.000024
C69	C	0.087433	-0.613820	0.000022
C70	C	-0.001675	-0.672948	0.000017
C71	C	-0.101822	-0.622368	0.000008
C72	C	-0.112860	-0.512660	0.000004
C73	C	-0.023749	-0.453526	0.000009
C74	C	0.076398	-0.504106	0.000018
H75	H	0.006494	-0.754166	0.000020
H76	H	-0.167788	-0.666143	0.000004
H77	H	-0.186995	-0.475217	-0.000003
H78	H	-0.031918	-0.372307	0.000005
H79	H	0.142364	-0.460330	0.000021
H80	H	0.118284	-1.246635	0.195773
H81	H	0.070216	-1.148211	0.430898
C82	C	0.101323	-1.263637	0.344955
C83	C	0.036030	-1.329048	0.303032
C84	C	-0.029286	-1.394444	0.344955
C85	C	-0.029310	-1.394429	0.428801
C86	C	0.035985	-1.329015	0.470729
C87	C	0.101302	-1.263620	0.428806
H88	H	0.036046	-1.329061	0.240960
H89	H	-0.077622	-1.442867	0.313917
H90	H	-0.077661	-1.442838	0.459835
H91	H	0.035970	-1.329002	0.532801
H92	H	0.149638	-1.215196	0.459844
H93	H	0.070223	-1.148223	0.569189
H94	H	0.118298	-1.246694	0.665984
C95	C	0.101331	-1.263683	0.815167
C96	C	0.036030	-1.329086	0.773244
C97	C	-0.029294	-1.394474	0.815167
C98	C	-0.029316	-1.394460	0.899013
C99	C	0.035988	-1.329055	0.940941
C100	C	0.101311	-1.263666	0.899017
H101	H	0.036044	-1.329099	0.711172
H102	H	-0.077636	-1.442891	0.784129
H103	H	-0.077673	-1.442864	0.930047
H104	H	0.035973	-1.329042	1.003013
H105	H	0.149653	-1.215249	0.930055
C106	C	0.350744	-1.013973	0.184886
C107	C	0.416108	-0.948633	0.226808
C108	C	0.481439	-0.883252	0.184885
C109	C	0.481405	-0.883211	0.101039
C110	C	0.416038	-0.948553	0.059111
C111	C	0.350708	-1.013934	0.101035
H112	H	0.416135	-0.948661	0.288880
H113	H	0.529828	-0.834881	0.215922
H114	H	0.529767	-0.834812	0.070004
H115	H	0.416011	-0.948525	-0.002961
H116	H	0.302319	-1.062305	0.069997
C117	C	0.406411	-1.127993	0.580043
C118	C	0.500879	-1.122288	0.538109
C119	C	0.595359	-1.116599	0.580022
C120	C	0.595370	-1.116615	0.663868
C121	C	0.500899	-1.122321	0.705806
C122	C	0.406419	-1.128009	0.663894
H123	H	0.500874	-1.122276	0.476037
H124	H	0.665293	-1.112376	0.548976
H125	H	0.665310	-1.112404	0.694894
H126	H	0.500904	-1.122333	0.767878
H127	H	0.336485	-1.132233	0.694940
H128	H	0.333799	-1.031036	0.804285
H129	H	0.381867	-1.129439	0.430867
H130	H	0.333779	-1.030981	0.334074
