data_functionalizedCrystal
_audit_creation_method	'MofGen! by Chris Wilmer'
_symmetry_space_group_name_H-M	'P1'
_symmetry_Int_Tables_number	1
_symmetry_cell_setting	triclinic
loop_
_symmetry_equiv_pos_as_xyz
  x,y,z
_cell_length_a	16.992694
_cell_length_b	10.540539
_cell_length_c	15.455313
_cell_angle_alpha	92.694186
_cell_angle_beta	87.142206
_cell_angle_gamma	87.596857
loop_
_atom_site_label
_atom_site_type_symbol
_atom_site_fract_x
_atom_site_fract_y
_atom_site_fract_z
O1	O	1.045302	0.264111	-0.072015
O2	O	0.817001	0.261155	-0.072041
O3	O	0.936360	0.078379	-0.072026
O4	O	0.925943	0.446887	-0.072030
O5	O	0.929534	0.088785	0.072235
O6	O	0.810175	0.271561	0.072220
O7	O	1.038476	0.274517	0.072246
Cu8	Cu	0.923702	0.273989	0.085405
Cu9	Cu	0.931774	0.261683	-0.085200
O10	O	0.919117	0.457293	0.072232
C11	C	0.784354	0.262557	0.000086
C12	C	0.697247	0.251216	0.000077
C13	C	0.647619	0.360636	0.000076
C14	C	0.565773	0.349973	0.000088
C15	C	0.533555	0.229889	0.000094
C16	C	0.583189	0.120461	0.000097
C17	C	0.665034	0.131125	0.000092
C18	C	0.289709	0.185692	0.000118
C19	C	0.207858	0.175036	0.000121
C20	C	0.190446	0.404549	0.000114
C21	C	0.272294	0.415202	0.000103
C22	C	0.321921	0.305774	0.000110
N23	N	0.449895	0.218988	0.000104
N24	N	0.405579	0.316677	0.000107
C25	C	0.932166	0.036211	0.000103
C26	C	0.929829	-0.104941	0.000098
C27	C	0.840284	-0.296163	-0.000236
C28	C	0.842638	-0.149316	0.000089
C29	C	0.967891	-0.157014	0.082483
C30	C	0.964912	-0.303812	0.082552
C31	C	0.974447	-0.316010	-0.081500
C32	C	0.975302	-0.169037	-0.082589
C33	C	1.071122	0.273115	0.000117
C34	C	1.158230	0.284456	0.000121
C35	C	0.923311	0.499461	0.000101
C36	C	0.925648	0.640612	0.000100
N37	N	0.918030	0.282645	0.205400
N38	N	0.937452	0.253018	-0.205195
C39	C	0.968756	0.205027	0.250801
C40	C	0.964474	0.211585	0.341608
C41	C	0.909469	0.295768	0.387013
C42	C	0.858738	0.373389	0.341607
C43	C	0.863017	0.366823	0.250801
C44	C	0.891000	0.324073	0.658593
C45	C	0.886727	0.330635	0.749405
C46	C	0.992462	0.168829	0.749400
C47	C	0.996739	0.162277	0.658592
C48	C	0.946005	0.239893	0.613193
N49	N	0.905093	0.302477	0.479833
N50	N	0.950379	0.233177	0.520375
H51	H	0.812416	-0.113837	-0.058968
H52	H	0.705441	0.042024	0.000091
C53	C	0.812563	0.590561	0.369542
C54	C	0.798270	0.465923	0.391509
H55	H	0.775228	0.647686	0.400345
H56	H	0.864288	0.610789	0.384423
H57	H	0.807853	0.597737	0.308962
H58	H	0.802986	0.458743	0.452089
H59	H	0.746533	0.445688	0.376635
H60	H	0.673844	0.458421	0.000071
C61	C	1.069438	0.051027	0.332482
C62	C	1.020246	0.126286	0.391512
H63	H	1.103875	-0.001625	0.363292
H64	H	1.038203	-0.000577	0.297079
H65	H	1.099607	0.104249	0.297050
H66	H	0.990072	0.073064	0.426939
H67	H	1.051485	0.177895	0.426929
C68	C	0.090124	0.056786	0.000131
C69	C	0.172442	0.043031	0.000134
H70	H	0.068261	-0.024705	0.000133
H71	H	0.070766	0.105820	0.050432
H72	H	0.075519	0.098555	-0.050183
H73	H	0.187047	0.001270	0.050452
H74	H	0.191807	-0.006022	-0.050171
H75	H	1.039106	-0.139658	-0.087557
H76	H	0.806591	-0.106178	0.059237
H77	H	0.930988	-0.330261	0.144129
C78	C	0.556784	0.577903	0.000068
C79	C	0.511222	0.470252	0.000084
H80	H	0.523105	0.652159	0.000062
H81	H	0.586696	0.580922	0.050369
H82	H	0.591443	0.573643	-0.050246
H83	H	0.476567	0.474507	0.050402
H84	H	0.481297	0.467233	-0.050222
C85	C	0.764704	-0.226509	0.130013
C86	C	0.790215	-0.335224	0.079060
H87	H	0.733790	-0.250627	0.178964
H88	H	0.809172	-0.183345	0.148965
H89	H	0.733836	-0.171834	0.096667
H90	H	0.821088	-0.389895	0.112404
H91	H	0.745739	-0.378407	0.060108
H92	H	0.298519	0.512986	0.000088
C93	C	1.086367	-0.166873	0.160771
C94	C	1.054134	-0.119042	0.086637
H95	H	1.139611	-0.143435	0.163329
H96	H	1.056881	-0.132720	0.210958
H97	H	1.084479	-0.256909	0.158293
H98	H	1.056017	-0.029006	0.089118
H99	H	1.083629	-0.153190	0.036437
C100	C	1.107841	0.137414	0.555955
C101	C	1.056833	0.069372	0.608453
H102	H	1.144835	0.079950	0.524937
H103	H	1.078214	0.183017	0.516111
H104	H	1.135076	0.195405	0.591218
H105	H	1.029594	0.011387	0.573189
H106	H	1.086464	0.023747	0.648301
H107	H	0.150032	0.493639	0.000110
H108	H	0.808637	-0.332013	-0.059316
C109	C	0.298686	-0.042239	0.000120
C110	C	0.344252	0.065409	0.000119
H111	H	0.332363	-0.116499	0.000115
H112	H	0.264029	-0.037991	0.050424
H113	H	0.268774	-0.045242	-0.050190
H114	H	0.374159	0.068417	0.050433
H115	H	0.378923	0.061160	-0.050190
H116	H	1.033766	0.105637	0.786371
C117	C	0.862048	-0.322414	-0.169522
C118	C	0.940342	-0.367977	-0.165800
H119	H	0.840990	-0.354491	-0.221565
H120	H	0.831768	-0.349694	-0.121082
H121	H	0.860290	-0.232154	-0.168459
H122	H	0.942099	-0.458237	-0.166856
H123	H	0.970630	-0.340705	-0.214253
C124	C	0.786065	0.484679	0.667732
C125	C	0.835240	0.409399	0.608698
H126	H	0.751643	0.537363	0.636924
H127	H	0.755885	0.431482	0.703156
H128	H	0.817318	0.536264	0.703141
H129	H	0.803987	0.357807	0.573293
H130	H	0.865423	0.462602	0.573258
H131	H	0.841933	0.399192	0.786370
C132	C	0.892856	-0.192798	0.214183
C133	C	0.924628	-0.096970	0.165243
H134	H	0.866149	-0.155729	0.265277
H135	H	0.856746	-0.238030	0.180852
H136	H	0.934131	-0.249612	0.229623
H137	H	0.883352	-0.040160	0.149798
H138	H	0.960741	-0.051717	0.198581
H139	H	0.556951	0.022687	0.000115
H140	H	1.027442	-0.346069	0.086296
H141	H	0.821710	0.430026	0.213837
C142	C	0.994070	-0.062567	-0.215540
C143	C	0.937813	-0.123295	-0.164870
H144	H	0.970924	-0.034328	-0.266337
H145	H	1.012175	0.008303	-0.183190
H146	H	1.037259	-0.120503	-0.231468
H147	H	0.894626	-0.065356	-0.148937
H148	H	0.919696	-0.194175	-0.197227
C149	C	1.058447	-0.505338	-0.085374
C150	C	1.059499	-0.372444	-0.082252
H151	H	1.110952	-0.540179	-0.085839
H152	H	1.029256	-0.531866	-0.035928
H153	H	1.034430	-0.534097	-0.136483
H154	H	1.083511	-0.343685	-0.031139
H155	H	1.088702	-0.345905	-0.131702
H156	H	1.013550	0.136482	0.213837
