data_functionalizedCrystal
_audit_creation_method	'MofGen! by Chris Wilmer'
_symmetry_space_group_name_H-M	'P1'
_symmetry_Int_Tables_number	1
_symmetry_cell_setting	triclinic
loop_
_symmetry_equiv_pos_as_xyz
  x,y,z
_cell_length_a	19.288864
_cell_length_b	8.559649
_cell_length_c	17.766277
_cell_angle_alpha	89.994756
_cell_angle_beta	89.976791
_cell_angle_gamma	76.457456
loop_
_atom_site_label
_atom_site_type_symbol
_atom_site_fract_x
_atom_site_fract_y
_atom_site_fract_z
O1	O	0.910987	0.199405	-0.062829
O2	O	0.707328	0.226304	-0.062777
O3	O	0.827100	-0.019877	-0.062807
O4	O	0.791215	0.445585	-0.062799
O5	O	0.827082	-0.019889	0.062381
O6	O	0.707310	0.226291	0.062411
O7	O	0.910969	0.199392	0.062359
Cu8	Cu	0.809138	0.212841	0.073816
Cu9	Cu	0.809160	0.212855	-0.074234
O10	O	0.791197	0.445573	0.062389
C11	C	0.681488	0.225432	-0.000176
C12	C	0.604519	0.222834	-0.000157
C13	C	0.552314	0.367282	-0.000166
C14	C	0.479994	0.364841	-0.000174
C15	C	0.459883	0.217944	-0.000188
C16	C	0.512099	0.073477	-0.000175
C17	C	0.584417	0.075922	-0.000159
C18	C	0.357630	0.102471	-0.044075
C19	C	0.285312	0.100032	-0.044095
C20	C	0.236829	0.210396	-0.000234
C21	C	0.260670	0.323227	0.043638
C22	C	0.332989	0.325672	0.043654
C23	C	0.381467	0.215276	-0.000205
C24	C	0.106205	0.352207	-0.000251
C25	C	0.033884	0.349760	-0.000255
C26	C	0.065991	0.058393	-0.000263
C27	C	0.138310	0.060844	-0.000252
C28	C	0.158412	0.207756	-0.000250
C29	C	0.829811	-0.079432	-0.000215
C30	C	0.837906	-0.256871	-0.000221
C31	C	0.936810	0.200264	-0.000243
C32	C	1.013778	0.202862	-0.000268
C33	C	0.788487	0.505129	-0.000205
C34	C	0.780392	0.682567	-0.000203
N35	N	0.809128	0.212829	0.177946
N36	N	0.809176	0.212854	-0.178364
C37	C	0.862176	0.103874	0.217320
C38	C	0.862180	0.103866	0.296122
C39	C	0.809142	0.212842	0.335547
C40	C	0.756085	0.321806	0.296164
C41	C	0.756078	0.321800	0.217364
C42	C	0.792272	0.358486	0.460389
C43	C	0.792284	0.358494	0.539188
C44	C	0.809160	0.212861	0.578593
C45	C	0.826039	0.067213	0.539190
C46	C	0.826032	0.067207	0.460390
C47	C	0.809144	0.212860	0.420993
C48	C	0.862215	0.103889	0.703413
C49	C	0.862215	0.103879	0.782216
C50	C	0.756123	0.321833	0.782257
C51	C	0.756120	0.321828	0.703455
C52	C	0.809170	0.212858	0.664038
H53	H	0.626924	-0.041708	-0.000151
C54	C	0.128322	0.513800	-0.000241
H55	H	0.086869	0.599481	-0.000237
H56	H	0.155888	0.520816	-0.043893
H57	H	0.155844	0.520803	0.043425
H58	H	0.724959	-0.233537	-0.000187
C59	C	0.920571	-0.015975	0.825527
H60	H	0.952166	-0.080859	0.790763
H61	H	0.899138	-0.082378	0.856284
H62	H	0.946423	0.041380	0.856249
H63	H	0.265907	0.008165	-0.079821
C64	C	0.912796	-0.370206	-0.000241
H65	H	0.908598	-0.478598	-0.000242
H66	H	0.937992	-0.350977	0.043405
H67	H	0.937997	-0.350976	-0.043913
H68	H	0.568676	0.486909	-0.000166
H69	H	0.905371	0.015140	0.185229
H70	H	0.712926	0.410556	0.671395
C71	C	0.920536	-0.015986	0.339442
H72	H	0.952130	-0.080879	0.304680
H73	H	0.899100	-0.082380	0.370201
H74	H	0.946389	0.041371	0.370161
H75	H	0.839773	-0.051384	0.428312
C76	C	0.422559	0.523739	-0.000196
H77	H	0.444890	0.611582	-0.000199
H78	H	0.393650	0.528855	0.043449
H79	H	0.393713	0.528818	-0.043868
C80	C	0.359217	0.449761	0.091913
H81	H	0.409230	0.435411	0.085634
H82	H	0.348887	0.435308	0.143376
H83	H	0.335723	0.555126	0.076489
H84	H	0.778545	0.477089	0.571263
C85	C	0.207348	0.444643	0.091883
H86	H	0.160864	0.427024	0.085597
H87	H	0.207556	0.550798	0.076463
H88	H	0.220720	0.430992	0.143356
H89	H	-0.008622	0.467392	-0.000259
H90	H	0.839780	-0.051375	0.571273
H91	H	0.905410	0.015153	0.671318
H92	H	0.049617	-0.061214	-0.000321
C93	C	0.697780	0.441707	0.825611
H94	H	0.666184	0.506596	0.790872
H95	H	0.719223	0.508103	0.856336
H96	H	0.671927	0.384366	0.856367
C97	C	0.195738	-0.098050	-0.000253
H98	H	0.173405	-0.185889	-0.000269
H99	H	0.224595	-0.103162	0.043407
H100	H	0.224637	-0.103142	-0.043910
H101	H	0.778518	0.477086	0.428311
C102	C	0.697747	0.441680	0.339528
H103	H	0.705353	0.426092	0.392098
H104	H	0.652303	0.424593	0.326643
H105	H	0.699602	0.548323	0.326603
C106	C	0.697728	0.441667	0.174051
H107	H	0.666142	0.506576	0.208814
H108	H	0.671875	0.384337	0.143325
H109	H	0.719174	0.508066	0.143299
H110	H	0.397100	0.012596	-0.079796
H111	H	0.495719	-0.046127	-0.000196
