data_functionalizedCrystal
_audit_creation_method	'MofGen! by Chris Wilmer'
_symmetry_space_group_name_H-M	'P1'
_symmetry_Int_Tables_number	1
_symmetry_cell_setting	triclinic
loop_
_symmetry_equiv_pos_as_xyz
  x,y,z
_cell_length_a	14.853567
_cell_length_b	17.038272
_cell_length_c	13.930277
_cell_angle_alpha	89.995405
_cell_angle_beta	89.995755
_cell_angle_gamma	87.373243
loop_
_atom_site_label
_atom_site_type_symbol
_atom_site_fract_x
_atom_site_fract_y
_atom_site_fract_z
O1	O	1.204051	0.102086	-0.079765
O2	O	0.942506	0.114247	-0.079782
O3	O	1.071724	-0.005651	-0.079766
O4	O	1.074833	0.221984	-0.079781
O5	O	1.071705	-0.005654	0.079896
O6	O	0.942487	0.114244	0.079880
O7	O	1.204031	0.102083	0.079897
Zn8	Zn	1.073256	0.108163	0.105238
Zn9	Zn	1.073282	0.108167	-0.105123
O10	O	1.074814	0.221981	0.079881
C11	C	0.908866	0.113695	0.000047
C12	C	0.808658	0.112043	0.000041
C13	C	0.390240	0.033841	0.000067
C14	C	0.379678	0.176283	0.000057
C15	C	0.473828	0.177835	0.000054
C16	C	0.526189	0.107390	0.000056
C17	C	0.484399	0.035392	0.000061
C18	C	0.515626	0.249832	0.000039
C19	C	0.609782	0.251388	0.000035
C20	C	0.662144	0.180941	0.000044
C21	C	0.620349	0.108940	0.000050
C22	C	0.672709	0.038495	0.000052
C23	C	0.630915	-0.033507	0.000065
C24	C	0.536762	-0.035055	0.000070
C25	C	0.756298	0.182489	0.000039
C26	C	0.766869	0.040045	0.000046
C27	C	1.068887	-0.034784	0.000065
C28	C	1.060451	-0.121588	0.000064
C29	C	1.137904	-0.171601	0.000070
C30	C	1.129972	-0.253162	0.000060
C31	C	1.044586	-0.284709	0.000051
C32	C	0.967127	-0.234690	0.000043
C33	C	0.975060	-0.153130	0.000045
C34	C	1.016561	-0.530503	0.000036
C35	C	1.008634	-0.612069	0.000037
C36	C	1.171480	-0.630535	0.000052
C37	C	1.179405	-0.548974	0.000061
C38	C	1.101946	-0.498962	0.000047
C39	C	1.036476	-0.368077	0.000045
C40	C	1.110056	-0.415595	0.000047
C41	C	1.237671	0.102636	0.000066
C42	C	1.337879	0.104287	0.000065
C43	C	1.077651	0.251114	0.000048
C44	C	1.086087	0.337918	0.000042
N45	N	1.073245	0.108161	0.248804
N46	N	1.073299	0.108163	-0.248689
C47	C	1.016060	0.161237	0.701066
C48	C	1.130528	0.055091	0.701050
C49	C	1.130517	0.055088	0.600554
C50	C	1.073278	0.108162	0.550310
C51	C	1.016049	0.161237	0.600561
C52	C	1.187750	0.002019	0.550295
C53	C	1.187742	0.002015	0.449793
C54	C	1.130498	0.055085	0.399547
C55	C	1.073267	0.108162	0.449805
C56	C	1.016028	0.161236	0.399561
C57	C	0.958791	0.214310	0.449817
C58	C	0.958805	0.214308	0.550315
C59	C	1.130484	0.055087	0.299048
C60	C	1.016017	0.161236	0.299056
H61	H	1.207434	-0.145922	0.000083
H62	H	1.193043	-0.293879	0.000067
O63	O	1.271507	-0.514961	0.000061
H64	H	1.279016	-0.478256	0.065143
H65	H	1.177135	0.011884	0.741962
H66	H	0.502724	-0.093675	0.000104
O67	O	0.891520	-0.099185	0.000052
H68	H	0.850957	-0.110409	-0.065022
H69	H	1.179577	-0.389906	0.000033
H70	H	0.912206	0.257519	0.591240
H71	H	0.897604	-0.260382	0.000030
H72	H	0.966954	-0.393771	0.000040
H73	H	1.234542	-0.671263	0.000062
O74	O	1.249461	-0.055234	0.395589
H75	H	1.289258	-0.092143	0.447413
H76	H	0.939099	-0.637751	0.000045
H77	H	0.953488	-0.489793	0.000025
H78	H	0.809495	-0.017321	0.000052
O79	O	0.954282	0.218483	0.244863
H80	H	0.914493	0.255389	0.296695
H81	H	0.912191	0.257526	0.408896
O82	O	0.687392	-0.109488	0.000074
H83	H	0.759882	-0.096308	0.000073
O84	O	0.954332	0.218485	0.755260
H85	H	0.963955	0.209575	0.833585
O86	O	0.345172	-0.043817	0.000083
H87	H	0.270904	-0.033065	0.000084
H88	H	1.177090	0.011879	0.258134
O89	O	0.323211	0.252262	0.000065
H90	H	0.250718	0.239088	0.000078
O91	O	0.459156	0.325810	0.000049
H92	H	0.386664	0.312634	0.000072
O93	O	0.801380	0.260137	0.000031
H94	H	0.749152	0.308861	0.000034
O95	O	1.249487	-0.055221	0.604481
H96	H	1.239869	-0.046310	0.682807
H97	H	0.643802	0.310016	0.000024
