data_functionalizedCrystal
_audit_creation_method	'MofGen! by Chris Wilmer'
_symmetry_space_group_name_H-M	'P1'
_symmetry_Int_Tables_number	1
_symmetry_cell_setting	triclinic
loop_
_symmetry_equiv_pos_as_xyz
  x,y,z
_cell_length_a	17.699077
_cell_length_b	16.176319
_cell_length_c	17.699083
_cell_angle_alpha	90.007696
_cell_angle_beta	83.281795
_cell_angle_gamma	90.006860
loop_
_atom_site_label
_atom_site_type_symbol
_atom_site_fract_x
_atom_site_fract_y
_atom_site_fract_z
O1	O	1.004082	0.068737	0.095692
O2	O	0.783703	0.068741	0.108149
O3	O	0.900118	0.068732	-0.008269
O4	O	0.887666	0.068747	0.212110
O5	O	0.900102	-0.068761	-0.008277
O6	O	0.783687	-0.068752	0.108141
O7	O	1.004066	-0.068756	0.095684
Cu8	Cu	0.893875	-0.081308	0.101912
Cu9	Cu	0.893894	0.081294	0.101921
O10	O	0.887650	-0.068746	0.212102
C11	C	0.755498	-0.000005	0.107700
C12	C	0.671479	-0.000003	0.106363
C13	C	0.632003	-0.074952	0.105729
C14	C	0.553061	-0.074953	0.104461
C15	C	0.513595	-0.000004	0.103832
C16	C	0.553077	0.074950	0.104464
C17	C	0.632019	0.074950	0.105726
C18	C	0.234714	0.074951	0.099370
C19	C	0.155766	0.074945	0.098110
C20	C	0.155755	-0.074952	0.098105
C21	C	0.234697	-0.074951	0.099367
C22	C	0.274173	0.000002	0.099995
C23	C	0.359772	0.000002	0.101369
C24	C	0.427997	-0.000004	0.102464
N25	N	0.893867	-0.195673	0.101906
C26	C	0.945431	-0.238942	0.050377
C27	C	0.945435	-0.325489	0.050376
C28	C	0.893878	-0.368766	0.101908
C29	C	0.842308	-0.325491	0.153439
C30	C	0.842301	-0.238946	0.153436
C31	C	0.842334	-0.674520	0.153454
C32	C	0.842346	-0.761071	0.153455
C33	C	0.945468	-0.761063	0.050393
C34	C	0.945461	-0.674517	0.050390
C35	C	0.893889	-0.631250	0.101918
C36	C	0.893884	-0.537406	0.101918
C37	C	0.893885	-0.462608	0.101913
C38	C	1.032271	-0.000008	0.096133
C39	C	1.116289	-0.000004	0.097470
C40	C	0.899664	-0.000015	-0.036470
C41	C	0.898326	-0.000015	-0.120488
N42	N	0.893907	0.195659	0.101921
C43	C	0.966659	-0.000018	-0.169110
C44	C	0.965397	-0.000010	-0.248054
C45	C	0.895800	-0.000006	-0.278373
C46	C	0.827461	-0.000001	-0.229744
C47	C	0.828724	-0.000003	-0.150803
C48	C	0.822366	0.000005	-0.548107
C49	C	0.821108	0.000004	-0.627055
C50	C	0.959039	-0.000002	-0.645358
C51	C	0.960302	-0.000003	-0.566417
C52	C	0.891963	0.000006	-0.517795
C53	C	0.893333	-0.000000	-0.432196
C54	C	0.894430	-0.000006	-0.363971
C55	C	0.888104	0.000002	0.240303
C56	C	0.889443	0.000008	0.324321
H57	H	0.664159	0.135981	0.106244
H58	H	0.987418	-0.203711	0.008416
Br59	Br	0.772371	-0.819805	0.223397
H60	H	0.987422	-0.360718	0.008417
Br61	Br	1.015460	-0.819786	-0.019541
H62	H	0.266845	0.135983	0.099879
H63	H	0.987446	-0.639284	0.008430
H64	H	0.770794	0.000007	-0.254436
Br65	Br	0.772347	-0.615805	0.223384
H66	H	0.800325	-0.360733	0.195395
Br67	Br	1.054757	-0.000008	-0.525273
H68	H	0.520938	0.135974	0.103946
Br69	Br	0.735982	0.000007	-0.084813
Br70	Br	1.051786	-0.000014	-0.711349
Br71	Br	1.058140	-0.000013	-0.314039
Br72	Br	0.685555	-0.176673	0.106590
Br73	Br	0.726649	0.000009	-0.668202
Br74	Br	0.772313	-0.180224	0.223366
H75	H	1.023333	-0.000026	-0.144431
H76	H	0.520924	-0.135983	0.103932
Br77	Br	0.288253	-0.176671	0.100228
H78	H	0.766721	0.000013	-0.508528
Br79	Br	0.102205	0.176668	0.097257
Br80	Br	0.102178	-0.176677	0.097251
