data_functionalizedCrystal
_audit_creation_method	'MofGen! by Chris Wilmer'
_symmetry_space_group_name_H-M	'P1'
_symmetry_Int_Tables_number	1
_symmetry_cell_setting	triclinic
loop_
_symmetry_equiv_pos_as_xyz
  x,y,z
_cell_length_a	21.395362
_cell_length_b	16.120484
_cell_length_c	16.120297
_cell_angle_alpha	95.614431
_cell_angle_beta	92.858092
_cell_angle_gamma	92.942400
loop_
_atom_site_label
_atom_site_type_symbol
_atom_site_fract_x
_atom_site_fract_y
_atom_site_fract_z
Zn1	Zn	0.925602	-0.356427	-0.489856
Zn2	Zn	0.925523	-0.489117	-0.357167
Zn3	Zn	0.826421	-0.349397	-0.350059
Zn4	Zn	0.815203	-0.496196	-0.496841
O5	O	0.873187	-0.422784	-0.423481
O6	O	1.013268	-0.374008	-0.472306
O7	O	0.917038	-0.464678	-0.239264
O8	O	0.844305	-0.233363	-0.362706
O9	O	1.013210	-0.471494	-0.374820
O10	O	0.917173	-0.238528	-0.465414
O11	O	0.844229	-0.362027	-0.234042
O12	O	0.737256	-0.368891	-0.369479
O13	O	0.825186	-0.483560	-0.612875
O14	O	0.729014	-0.476744	-0.477319
O15	O	0.906295	-0.380872	-0.607743
O16	O	0.906161	-0.607023	-0.381593
O17	O	0.825109	-0.612224	-0.484211
C18	C	0.710401	-0.422824	-0.423386
C19	C	0.640759	-0.422862	-0.423367
C20	C	0.603772	-0.479087	-0.479443
C21	C	0.538335	-0.479068	-0.479479
C22	C	0.509890	-0.422832	-0.423425
C23	C	0.546886	-0.366596	-0.367344
C24	C	0.612321	-0.366611	-0.367315
C25	C	0.409452	-0.412294	-0.347840
C26	C	0.344018	-0.412285	-0.347868
C27	C	0.308068	-0.422782	-0.423514
C28	C	0.337559	-0.433306	-0.499136
C29	C	0.402993	-0.433321	-0.499107
C30	C	0.438938	-0.422810	-0.423450
C31	C	0.200126	-0.478991	-0.479634
C32	C	0.134689	-0.478966	-0.479671
C33	C	0.143242	-0.366498	-0.367530
C34	C	0.208677	-0.366519	-0.367500
C35	C	0.237116	-0.422769	-0.423551
C36	C	0.864425	-0.639952	-0.434449
C37	C	0.860733	-0.732859	-0.439170
C38	C	0.853995	-0.902962	-0.447805
C39	C	0.892490	-0.941767	-0.399171
C40	C	0.888741	-1.036418	-0.403976
C41	C	0.857743	-0.808302	-0.443001
C42	C	1.036608	-0.422745	-0.423577
C43	C	1.106248	-0.422729	-0.423617
C44	C	0.864498	-0.433790	-0.641483
C45	C	0.860795	-0.438480	-0.734383
C46	C	0.881999	-0.204769	-0.412488
C47	C	0.885754	-0.111864	-0.407804
C48	C	0.854013	-0.447024	-0.904470
C49	C	0.892495	-0.398294	-0.943331
C50	C	0.888721	-0.403048	-1.037974
C51	C	0.857786	-0.442271	-0.809819
C52	C	0.881881	-0.411761	-0.206324
C53	C	0.885714	-0.406835	-0.113413
H54	H	0.104574	-0.524751	-0.525340
O55	O	0.444275	-0.402132	-0.274275
C56	C	0.404217	-0.392834	-0.207540
H57	H	0.355651	-0.421930	-0.228727
H58	H	0.423887	-0.425425	-0.153092
H59	H	0.400722	-0.323632	-0.186837
H60	H	0.928262	-0.903904	-0.353925
O61	O	0.935203	-0.344195	-0.898359
C62	C	0.970257	-0.299838	-0.953132
H63	H	0.942277	-0.300007	-1.015217
H64	H	0.980599	-0.232736	-0.924504
H65	H	1.016238	-0.330900	-0.963967
O66	O	0.811382	-0.948093	-0.501893
C67	C	0.822513	-0.930974	-0.584160
H68	H	0.873329	-0.907042	-0.587272
H69	H	0.813214	-0.990512	-0.628295
H70	H	0.789998	-0.881529	-0.603435
O71	O	0.811248	-0.500967	-0.949524
C72	C	0.750369	-0.481693	-0.927289
H73	H	0.750837	-0.413735	-0.899846
H74	H	0.716883	-0.491733	-0.985087
H75	H	0.734159	-0.524023	-0.878956
H76	H	0.508214	-0.524854	-0.525146
O77	O	0.227655	-0.533652	-0.534167
C78	C	0.180973	-0.583284	-0.583664
H79	H	0.135607	-0.549189	-0.584905
H80	H	0.196928	-0.595626	-0.649948
H81	H	0.172635	-0.645168	-0.556165
O82	O	0.115517	-0.311969	-0.313089
C83	C	0.049830	-0.324005	-0.325144
H84	H	0.037198	-0.389918	-0.355703
H85	H	0.027660	-0.315107	-0.262261
H86	H	0.031516	-0.276724	-0.367213
H87	H	0.626922	-0.524890	-0.525085
O88	O	0.315343	-0.402221	-0.274426
C89	C	0.275018	-0.472799	-0.267157
H90	H	0.291045	-0.528541	-0.308139
H91	H	0.276246	-0.487411	-0.199337
H92	H	0.225158	-0.459515	-0.288116
H93	H	0.523722	-0.320807	-0.321706
H94	H	0.308289	-0.441852	-0.560734
O95	O	0.431616	-0.443389	-0.572588
C96	C	0.416310	-0.378568	-0.621374
H97	H	0.402069	-0.322641	-0.579058
H98	H	0.458771	-0.359432	-0.656587
H99	H	0.375714	-0.401212	-0.667928
O100	O	0.244518	-0.311876	-0.312941
C101	C	0.205383	-0.262220	-0.263487
H102	H	0.157461	-0.296291	-0.262286
H103	H	0.227242	-0.249881	-0.197186
H104	H	0.199801	-0.200335	-0.290997
H105	H	0.642437	-0.320823	-0.321651
