data_functionalizedCrystal
_audit_creation_method	'MofGen! by Chris Wilmer'
_symmetry_space_group_name_H-M	'P1'
_symmetry_Int_Tables_number	1
_symmetry_cell_setting	triclinic
loop_
_symmetry_equiv_pos_as_xyz
  x,y,z
_cell_length_a	16.625548
_cell_length_b	16.625545
_cell_length_c	12.759393
_cell_angle_alpha	89.966045
_cell_angle_beta	89.978375
_cell_angle_gamma	90.026626
loop_
_atom_site_label
_atom_site_type_symbol
_atom_site_fract_x
_atom_site_fract_y
_atom_site_fract_z
Zn1	Zn	1.232672	-0.320931	-0.594053
Zn2	Zn	1.566005	0.012403	-0.260720
Zn3	Zn	1.899338	0.345736	0.072614
Zn4	Zn	1.232565	-0.455788	-0.418366
Zn5	Zn	1.565898	-0.122454	-0.085033
Zn6	Zn	1.899232	0.210879	0.248301
Zn7	Zn	1.097831	-0.320975	-0.418383
Zn8	Zn	1.431164	0.012358	-0.085050
Zn9	Zn	1.764498	0.345692	0.248284
Zn10	Zn	1.097797	-0.455728	-0.593998
Zn11	Zn	1.431130	-0.122394	-0.260665
Zn12	Zn	1.764463	0.210939	0.072669
O13	O	1.165216	-0.388355	-0.506200
O14	O	1.498549	-0.055022	-0.172867
O15	O	1.831883	0.278311	0.160467
O16	O	1.345490	-0.338826	-0.570764
O17	O	1.678823	-0.005493	-0.237431
O18	O	2.012156	0.327840	0.095903
O19	O	1.214662	-0.437948	-0.271347
O20	O	1.547995	-0.104615	0.061986
O21	O	1.881329	0.228719	0.395319
O22	O	1.115777	-0.208137	-0.441716
O23	O	1.449110	0.125197	-0.108383
O24	O	1.782443	0.458530	0.224951
O25	O	1.345412	-0.437905	-0.441688
O26	O	1.678745	-0.104572	-0.108354
O27	O	2.012078	0.228762	0.224979
O28	O	1.214844	-0.208104	-0.570780
O29	O	1.548177	0.125229	-0.237447
O30	O	1.881510	0.458563	0.095886
O31	O	1.115673	-0.338902	-0.271359
O32	O	1.449007	-0.005569	0.061974
O33	O	1.782340	0.327765	0.395307
O34	O	0.984994	-0.338844	-0.441662
O35	O	1.318327	-0.005510	-0.108329
O36	O	1.651661	0.327823	0.225004
O37	O	1.115718	-0.437803	-0.741026
O38	O	1.449052	-0.104469	-0.407693
O39	O	1.782385	0.228864	-0.074360
O40	O	0.984969	-0.437846	-0.570686
O41	O	1.318302	-0.104512	-0.237353
O42	O	1.651635	0.228821	0.095981
O43	O	1.214810	-0.338768	-0.741067
O44	O	1.548144	-0.005435	-0.407734
O45	O	1.881477	0.327899	-0.074400
O46	O	1.214629	-0.568612	-0.441634
O47	O	1.547962	-0.235279	-0.108301
O48	O	1.881295	0.098055	0.225033
O49	O	1.115615	-0.568568	-0.570670
O50	O	1.448948	-0.235235	-0.237336
O51	O	1.782282	0.098099	0.095997
C52	C	1.165128	-0.597846	-0.506167
C53	C	1.498462	-0.264513	-0.172834
C54	C	1.831795	0.068821	0.160500
C55	C	1.165165	-0.687467	-0.506188
C56	C	1.498498	-0.354134	-0.172855
C57	C	1.831831	-0.020801	0.160479
C58	C	0.955725	-0.388344	-0.506171
C59	C	1.289058	-0.055010	-0.172837
C60	C	1.622392	0.278323	0.160496
C61	C	0.866104	-0.388358	-0.506183
C62	C	1.199437	-0.055025	-0.172850
C63	C	1.532771	0.278308	0.160484
C64	C	1.165196	-0.760250	-0.506209
C65	C	1.498529	-0.426916	-0.172875
C66	C	1.831863	-0.093583	0.160458
C67	C	1.165243	-0.851558	-0.506232
C68	C	1.498576	-0.518225	-0.172899
C69	C	1.831910	-0.184891	0.160435
C70	C	1.165285	-0.924334	-0.506245
C71	C	1.498618	-0.591001	-0.172912
C72	C	1.831951	-0.257668	0.160421
C73	C	1.165331	-1.015649	-0.506267
C74	C	1.498664	-0.682315	-0.172934
C75	C	1.831998	-0.348982	0.160400
C76	C	0.537928	-0.388363	-0.506228
C77	C	0.871262	-0.055030	-0.172895
C78	C	1.204595	0.278303	0.160439
C79	C	0.629237	-0.388360	-0.506212
C80	C	0.962570	-0.055026	-0.172879
C81	C	1.295904	0.278307	0.160455
C82	C	0.702013	-0.388361	-0.506205
C83	C	1.035347	-0.055028	-0.172871
C84	C	1.368680	0.278305	0.160462
C85	C	0.793328	-0.388357	-0.506190
C86	C	1.126661	-0.055023	-0.172857
C87	C	1.459994	0.278310	0.160476
C88	C	1.375525	-0.388367	-0.506230
C89	C	1.708858	-0.055034	-0.172897
C90	C	2.042192	0.278299	0.160437
C91	C	1.465146	-0.388373	-0.506243
C92	C	1.798479	-0.055039	-0.172910
C93	C	2.131813	0.278294	0.160424
C94	C	1.165272	-0.388274	-0.780233
C95	C	1.498606	-0.054940	-0.446900
C96	C	1.831939	0.278393	-0.113567
C97	C	1.165296	-0.388239	-0.897010
C98	C	1.498630	-0.054906	-0.563677
C99	C	1.831963	0.278428	-0.230344
C100	C	1.165326	-0.178046	-0.506256
C101	C	1.498659	0.155287	-0.172923
C102	C	1.831993	0.488620	0.160410
C103	C	1.165373	-0.088425	-0.506280
C104	C	1.498706	0.244908	-0.172947
C105	C	1.832039	0.578242	0.160387
C106	C	1.113771	-0.336656	-0.951878
C107	C	1.447105	-0.003323	-0.618545
C108	C	1.780438	0.330010	-0.285211
C109	C	1.113790	-0.336631	-1.061602
C110	C	1.447124	-0.003298	-0.728269
C111	C	1.780457	0.330035	-0.394936
C112	C	1.216866	-0.439774	-1.061581
C113	C	1.550199	-0.106441	-0.728248
C114	C	1.883532	0.226892	-0.394914
C115	C	1.216842	-0.439803	-0.951859
C116	C	1.550176	-0.106469	-0.618525
C117	C	1.883509	0.226864	-0.285192
C118	C	1.165206	-0.388378	-0.233233
C119	C	1.498540	-0.055045	0.100101
C120	C	1.831873	0.278288	0.433434
C121	C	1.165339	-0.388186	-0.116456
C122	C	1.498672	-0.054853	0.216877
C123	C	1.832005	0.278481	0.550210
H124	H	1.071799	-0.294670	-0.907224
H125	H	1.405133	0.038663	-0.573890
H126	H	1.738466	0.371997	-0.240557
H127	H	1.258833	-0.481755	-1.106252
H128	H	1.592166	-0.148422	-0.772919
H129	H	1.925500	0.184912	-0.439585
H130	H	1.071833	-0.294628	-1.106271
H131	H	1.405166	0.038705	-0.772938
H132	H	1.738500	0.372038	-0.439604
H133	H	1.258802	-0.481811	-0.907184
H134	H	1.592135	-0.148477	-0.573851
H135	H	1.925469	0.184856	-0.240517
