data_functionalizedCrystal
_audit_creation_method	'MofGen! by Chris Wilmer'
_symmetry_space_group_name_H-M	'P1'
_symmetry_Int_Tables_number	1
_symmetry_cell_setting	triclinic
loop_
_symmetry_equiv_pos_as_xyz
  x,y,z
_cell_length_a	18.215407
_cell_length_b	12.645330
_cell_length_c	18.215399
_cell_angle_alpha	90.023030
_cell_angle_beta	90.019833
_cell_angle_gamma	90.018140
loop_
_atom_site_label
_atom_site_type_symbol
_atom_site_fract_x
_atom_site_fract_y
_atom_site_fract_z
Zn1	Zn	1.125109	-0.422038	0.416141
Zn2	Zn	1.125033	-0.599320	0.293085
Zn3	Zn	1.002041	-0.422072	0.293088
Zn4	Zn	1.002023	-0.599261	0.416110
O5	O	1.063551	-0.510673	0.354606
O6	O	1.228083	-0.445565	0.399829
O7	O	1.108693	-0.575847	0.190101
O8	O	1.018406	-0.273720	0.309426
O9	O	1.228027	-0.575813	0.309421
O10	O	1.108823	-0.273695	0.399832
O11	O	1.018332	-0.445624	0.190104
O12	O	0.899055	-0.445566	0.309396
O13	O	1.018374	-0.575713	0.519099
O14	O	0.899041	-0.575746	0.399780
O15	O	1.108805	-0.445507	0.519121
O16	O	1.108675	-0.747659	0.309391
O17	O	1.018300	-0.747616	0.399777
C18	C	0.872345	-0.510654	0.354585
C19	C	0.790546	-0.510672	0.354594
C20	C	0.602364	-0.578563	0.401597
C21	C	0.525506	-0.578567	0.401606
C22	C	0.525490	-0.442801	0.307631
C23	C	0.602348	-0.442793	0.307626
C24	C	0.640783	-0.510680	0.354608
C25	C	0.487067	-0.510692	0.354622
C26	C	0.403733	-0.510695	0.354632
C27	C	0.724122	-0.510676	0.354600
C28	C	1.063498	-0.786102	0.354596
C29	C	1.063542	-0.903932	0.354616
C30	C	1.006922	-1.071513	0.411653
C31	C	1.006632	-0.948954	0.411470
C32	C	1.042549	-0.948523	0.277058
C33	C	1.042203	-1.071122	0.277404
C34	C	1.141502	-1.071022	0.374509
C35	C	1.141024	-0.948415	0.376205
C36	C	1.255504	-0.510692	0.354628
C37	C	1.337303	-0.510700	0.354637
C38	C	1.063596	-0.510600	0.546559
C39	C	1.063615	-0.510568	0.628358
C40	C	1.063625	-0.234167	0.354633
C41	C	1.063657	-0.116337	0.354644
C42	C	1.063549	-0.510669	0.163400
C43	C	1.063672	-0.510401	0.081602
C44	C	1.110720	-0.442707	0.816565
C45	C	1.110728	-0.442676	0.893424
C46	C	1.016563	-0.578266	0.893389
C47	C	1.016551	-0.578290	0.816532
C48	C	1.063634	-0.510513	0.778122
C49	C	1.063654	-0.510457	0.931838
C50	C	1.063663	-0.510424	1.015172
C51	C	1.063624	-0.510544	0.694783
H52	H	0.633629	-0.387508	0.269362
H53	H	1.082562	-0.919362	0.233421
H54	H	0.494229	-0.633842	0.439871
H55	H	1.019935	-1.100928	0.469351
H56	H	0.494187	-0.387531	0.269379
C57	C	1.024348	-0.908216	0.489163
H58	H	1.031787	-0.966593	0.521123
H59	H	1.067592	-0.866267	0.487665
H60	H	0.984576	-0.866670	0.506644
C61	C	1.162501	-0.368150	0.774313
H62	H	1.155757	-0.377880	0.723033
H63	H	1.151750	-0.296919	0.786916
H64	H	1.211949	-0.383669	0.786918
C65	C	0.929445	-1.113243	0.394101
H66	H	0.931523	-1.157861	0.352179
H67	H	0.911371	-1.152243	0.434830
H68	H	0.897643	-1.055361	0.384449
C69	C	0.928674	-0.909452	0.393681
H70	H	0.897060	-0.968333	0.386532
H71	H	0.910990	-0.867728	0.433279
H72	H	0.929877	-0.867938	0.350242
H73	H	0.985298	-1.099813	0.260576
C74	C	1.095590	-1.111189	0.218057
H75	H	1.117389	-1.052536	0.193839
H76	H	1.132815	-1.152861	0.240337
H77	H	1.069490	-1.152873	0.183368
H78	H	0.986237	-0.917912	0.259925
H79	H	1.149069	-0.387460	0.924721
C80	C	0.644644	-0.653232	0.453274
H81	H	0.695920	-0.643516	0.446537
H82	H	0.632073	-0.637813	0.502741
H83	H	0.632028	-0.724443	0.442415
C84	C	1.167376	-1.112681	0.449612
H85	H	1.214450	-1.084390	0.460552
H86	H	1.133487	-1.091693	0.486464
H87	H	1.170163	-1.187671	0.448148
H88	H	1.156855	-0.919267	0.433284
C89	C	1.201135	-0.907029	0.324189
H90	H	1.179669	-0.861882	0.288463
H91	H	1.236621	-0.868664	0.351628
H92	H	1.224191	-0.965020	0.300367
C93	C	0.964755	-0.652878	0.774238
H94	H	0.971486	-0.643175	0.722963
H95	H	0.975506	-0.724103	0.786823
H96	H	0.915311	-0.637348	0.786826
C97	C	0.964783	-0.652824	0.935642
H98	H	0.971539	-0.643107	0.986922
H99	H	0.915338	-0.637316	0.923041
H100	H	0.975542	-0.724059	0.923038
H101	H	1.183771	-1.100007	0.332986
