data_functionalizedCrystal
_audit_creation_method	'MofGen! by Chris Wilmer'
_symmetry_space_group_name_H-M	'P1'
_symmetry_Int_Tables_number	1
_symmetry_cell_setting	triclinic
loop_
_symmetry_equiv_pos_as_xyz
  x,y,z
_cell_length_a	25.639243
_cell_length_b	25.639240
_cell_length_c	17.640968
_cell_angle_alpha	78.760674
_cell_angle_beta	78.773277
_cell_angle_gamma	90.035481
loop_
_atom_site_label
_atom_site_type_symbol
_atom_site_fract_x
_atom_site_fract_y
_atom_site_fract_z
Zn1	Zn	0.859076	-0.148332	-0.446972
Zn2	Zn	0.841311	-0.253452	-0.314759
Zn3	Zn	0.753959	-0.166033	-0.314789
Zn4	Zn	0.771597	-0.235752	-0.446901
O5	O	0.806486	-0.200892	-0.380855
O6	O	0.929887	-0.162276	-0.429451
O7	O	0.814908	-0.256672	-0.204142
O8	O	0.767956	-0.090514	-0.332366
O9	O	0.916835	-0.239508	-0.332314
O10	O	0.845185	-0.077509	-0.429481
O11	O	0.750730	-0.192445	-0.204164
O12	O	0.683131	-0.175281	-0.332297
O13	O	0.798018	-0.209339	-0.557531
O14	O	0.696090	-0.226504	-0.429359
O15	O	0.862288	-0.145112	-0.557584
O16	O	0.832010	-0.324275	-0.332245
O17	O	0.780792	-0.311271	-0.429329
C18	C	0.670639	-0.200893	-0.380824
C19	C	0.612526	-0.200903	-0.380829
C20	C	0.258968	-0.160719	-0.431519
C21	C	0.204364	-0.160718	-0.431524
O22	O	0.181909	-0.126547	-0.474583
N23	N	0.170250	-0.200888	-0.380877
C24	C	0.190740	-0.241058	-0.330217
O25	O	0.156709	-0.275226	-0.287138
C26	C	0.245343	-0.241057	-0.330208
C27	C	0.279456	-0.200887	-0.380864
C28	C	0.293081	-0.120552	-0.482169
C29	C	0.347681	-0.120554	-0.482165
C30	C	0.368168	-0.160723	-0.431511
C31	C	0.334056	-0.200889	-0.380860
C32	C	0.265832	-0.281225	-0.279545
C33	C	0.320438	-0.281220	-0.279540
C34	C	0.354551	-0.241050	-0.330196
C35	C	0.409143	-0.241059	-0.330201
N36	N	0.443258	-0.200890	-0.380848
C37	C	0.422770	-0.160721	-0.431502
C38	C	0.076073	-0.241058	-0.330237
C39	C	0.021472	-0.241062	-0.330249
C40	C	0.035099	-0.160721	-0.431555
C41	C	0.089702	-0.160719	-0.431546
C42	C	0.110187	-0.200888	-0.380884
C43	C	0.537434	-0.160728	-0.431490
C44	C	0.592038	-0.160735	-0.431484
C45	C	0.578406	-0.241074	-0.330176
C46	C	0.523806	-0.241070	-0.330184
C47	C	0.503322	-0.200892	-0.380844
O48	O	0.431636	-0.275212	-0.287162
O49	O	0.456806	-0.126556	-0.474567
C50	C	0.806404	-0.336743	-0.380793
C51	C	0.806420	-0.394857	-0.380793
C52	C	0.846728	-0.748389	-0.431514
C53	C	0.846746	-0.802992	-0.431530
O54	O	0.880920	-0.825429	-0.474591
N55	N	0.806569	-0.837121	-0.380932
C56	C	0.766369	-0.816645	-0.330320
O57	O	0.732197	-0.850689	-0.287284
C58	C	0.766350	-0.762043	-0.330308
C59	C	0.806532	-0.727917	-0.380904
C60	C	0.886907	-0.714264	-0.482106
C61	C	0.886890	-0.659665	-0.482089
C62	C	0.846694	-0.639193	-0.431479
C63	C	0.806515	-0.673319	-0.380887
C64	C	0.726148	-0.741568	-0.279701
C65	C	0.726132	-0.686962	-0.279694
C66	C	0.766314	-0.652835	-0.330290
C67	C	0.766302	-0.598248	-0.330260
N68	N	0.806478	-0.564119	-0.380858
C69	C	0.846674	-0.584591	-0.431468
C70	C	0.766412	-0.931312	-0.330349
C71	C	0.766433	-0.985913	-0.330356
C72	C	0.846809	-0.972256	-0.431567
C73	C	0.846790	-0.917654	-0.431556
C74	C	0.806589	-0.897182	-0.380947
C75	C	0.846636	-0.469932	-0.431427
C76	C	0.846616	-0.415330	-0.431403
C77	C	0.766238	-0.428991	-0.330195
C78	C	0.766259	-0.483589	-0.330216
C79	C	0.806460	-0.504057	-0.380838
O80	O	0.732143	-0.575773	-0.287223
O81	O	0.880837	-0.550541	-0.474504
C82	C	0.942863	-0.200892	-0.380887
C83	C	1.000979	-0.200892	-0.380901
C84	C	0.834102	-0.173277	-0.587042
C85	C	0.845871	-0.161509	-0.674907
C86	C	0.806585	-0.064509	-0.380935
C87	C	0.806627	-0.006390	-0.380969
C88	C	0.717284	-0.290008	-0.963746
C89	C	0.728353	-0.278943	-1.046308
C90	C	0.795272	-0.212070	-1.046352
C91	C	0.784207	-0.223127	-0.963788
C92	C	0.745213	-0.262097	-0.922492
C93	C	0.812136	-0.195215	-0.922534
C94	C	0.801073	-0.206274	-0.839978
C95	C	0.762082	-0.245243	-0.798675
C96	C	0.734150	-0.273155	-0.839935
C97	C	0.851132	-0.156248	-0.963832
C98	C	0.879061	-0.128337	-0.922578
C99	C	0.867996	-0.139392	-0.840020
C100	C	0.829005	-0.178362	-0.798718
C101	C	0.895928	-0.111480	-0.798760
C102	C	0.884865	-0.122539	-0.716204
C103	C	0.817942	-0.189420	-0.716161
C104	C	0.779007	-0.228362	-0.175471
C105	C	0.767340	-0.239983	-0.087606
H106	H	0.496031	-0.273784	-0.288946
C107	C	0.938822	-0.068617	-0.844194
C108	C	0.987459	-0.083678	-0.900936
C109	C	1.030354	-0.040814	-0.946369
C110	C	1.024612	0.017109	-0.935059
C111	C	0.975972	0.032172	-0.878314
C112	C	0.933077	-0.010691	-0.832881
H113	H	0.991712	-0.126558	-0.909311
H114	H	1.066361	-0.051965	-0.988376
H115	H	1.056365	0.048839	-0.968691
H116	H	0.971719	0.075053	-0.869939
H117	H	0.897071	0.000460	-0.790874
C118	C	0.681910	-0.664444	-0.224020
C119	C	0.674190	-0.684018	-0.134163
C120	C	0.629970	-0.661502	-0.078489
C121	C	0.593470	-0.619410	-0.112672
C122	C	0.601188	-0.599833	-0.202533
C123	C	0.645409	-0.622350	-0.258208
H124	H	0.701211	-0.715179	-0.108855
H125	H	0.624256	-0.675994	-0.011967
H126	H	0.560735	-0.602742	-0.071458
H127	H	0.574168	-0.568673	-0.227841
H128	H	0.651123	-0.607858	-0.324729
H129	H	0.910812	-0.096609	-0.956213
H130	H	0.733676	-0.914648	-0.289131
C131	C	0.915583	-0.091837	-0.670816
C132	C	0.912877	-0.030875	-0.682191
C133	C	0.943597	-0.000175	-0.636801
C134	C	0.977024	-0.030436	-0.580037
C135	C	0.979731	-0.091402	-0.568659
C136	C	0.949011	-0.122102	-0.614049
H137	H	0.888131	-0.008471	-0.724213
H138	H	0.941593	0.044956	-0.645224
H139	H	0.999765	-0.007710	-0.546437
H140	H	1.004477	-0.113806	-0.526636
H141	H	0.951016	-0.167232	-0.605626
H142	H	0.860140	-0.147247	-1.031055
H143	H	0.619812	-0.128023	-0.472737
H144	H	0.018409	-0.128012	-0.472799
H145	H	0.693427	-0.769345	-0.238500
C146	C	0.514906	-0.116536	-0.487220
C147	C	0.534464	-0.108866	-0.577070
C148	C	0.511937	-0.064677	-0.632803
C149	C	0.469852	-0.028156	-0.598685
C150	C	0.450292	-0.035824	-0.508830
C151	C	0.472819	-0.080014	-0.453097
H152	H	0.565620	-0.135902	-0.602330
H153	H	0.526417	-0.059001	-0.699319
H154	H	0.453176	0.004556	-0.639941
H155	H	0.419135	-0.008789	-0.483569
H156	H	0.458339	-0.085690	-0.386580
C157	C	0.228314	-0.325409	-0.223817
C158	C	0.195326	-0.361931	-0.257934
C159	C	0.157808	-0.406117	-0.202200
C160	C	0.153279	-0.413780	-0.112349
C161	C	0.186268	-0.377257	-0.078227
C162	C	0.223786	-0.333072	-0.133961
H163	H	0.198678	-0.356259	-0.324451
H164	H	0.133387	-0.433154	-0.227460
H165	H	0.125506	-0.446489	-0.071092
H166	H	0.182916	-0.382929	-0.011710
H167	H	0.248207	-0.306035	-0.108701
C168	C	0.270553	-0.076364	-0.537901
C169	C	0.290120	-0.068697	-0.627749
C170	C	0.267600	-0.024508	-0.683491
C171	C	0.225512	0.012015	-0.649385
C172	C	0.205943	0.004349	-0.559532
C173	C	0.228464	-0.039840	-0.503790
H174	H	0.321278	-0.095735	-0.653001
H175	H	0.282086	-0.018834	-0.750007
H176	H	0.208841	0.044726	-0.690649
H177	H	0.174786	0.031387	-0.534280
H178	H	0.213977	-0.045514	-0.437275
H179	H	0.337114	-0.313930	-0.238282
C180	C	0.600949	-0.285257	-0.274456
C181	C	0.661010	-0.285252	-0.274453
C182	C	0.683554	-0.329433	-0.218728
C183	C	0.646037	-0.373620	-0.163007
C184	C	0.585972	-0.373627	-0.163008
C185	C	0.563428	-0.329446	-0.218732
H186	H	0.688786	-0.252540	-0.315703
H187	H	0.728018	-0.329427	-0.218728
H188	H	0.662725	-0.406325	-0.121756
H189	H	0.558196	-0.406338	-0.121757
H190	H	0.518964	-0.329452	-0.218733
H191	H	0.879339	-0.387545	-0.472604
C192	C	0.838164	-0.169203	-1.091781
C193	C	0.832416	-0.111282	-1.080461
C194	C	0.875308	-0.068414	-1.125887
C195	C	0.923948	-0.083467	-1.182632
C196	C	0.929699	-0.141391	-1.193954
C197	C	0.886807	-0.184259	-1.148529
H198	H	0.796408	-0.100136	-1.038453
H199	H	0.871051	-0.025535	-1.117505
H200	H	0.955700	-0.051733	-1.216259
H201	H	0.965707	-0.152536	-1.235963
H202	H	0.891064	-0.227138	-1.156910
H203	H	0.092748	-0.273773	-0.288983
H204	H	0.733716	-1.013696	-0.289147
C205	C	-0.016048	-0.285253	-0.274533
C206	C	-0.020580	-0.292928	-0.184681
C207	C	-0.058098	-0.337119	-0.128960
C208	C	-0.091083	-0.373635	-0.163091
C209	C	-0.086552	-0.365961	-0.252948
C210	C	-0.049034	-0.321770	-0.308669
H211	H	0.003839	-0.265896	-0.159410
H212	H	-0.061452	-0.342800	-0.062441
H213	H	-0.118856	-0.406348	-0.121843
H214	H	-0.110971	-0.392993	-0.278219
H215	H	-0.045680	-0.316090	-0.375188
H216	H	0.879368	-0.486589	-0.472654
C217	C	0.931086	-0.622131	-0.537760
C218	C	0.989679	-0.630443	-0.531413
C219	C	1.033876	-0.592913	-0.587092
C220	C	1.019480	-0.547072	-0.649118
C221	C	0.960885	-0.538759	-0.655468
C222	C	0.916687	-0.576288	-0.599788
H223	H	1.000339	-0.664379	-0.485495
H224	H	1.077253	-0.599067	-0.582392
H225	H	1.052198	-0.519290	-0.690335
H226	H	0.950225	-0.504822	-0.701385
H227	H	0.873311	-0.570134	-0.604489
H228	H	0.117473	-0.128009	-0.472793
C229	C	0.691261	-0.316032	-0.794511
C230	C	0.706295	-0.364686	-0.737747
C231	C	0.663413	-0.407565	-0.692328
C232	C	0.605497	-0.401791	-0.703671
C233	C	0.590460	-0.353135	-0.760437
C234	C	0.633342	-0.310255	-0.805857
H235	H	0.749170	-0.368962	-0.729348
H236	H	0.674544	-0.443584	-0.650306
H237	H	0.573753	-0.433533	-0.670049
H238	H	0.547585	-0.348858	-0.768837
H239	H	0.622211	-0.274237	-0.847879
H240	H	0.685518	-0.321729	-0.930120
H241	H	0.919640	-0.730925	-0.523324
H242	H	0.879509	-0.889871	-0.472756
H243	H	0.733543	-0.511377	-0.289010
H244	H	0.786176	-0.221141	-0.682535
C245	C	0.749908	-0.257409	-0.707862
C246	C	0.730393	-0.213247	-0.662482
C247	C	0.718218	-0.225412	-0.571668
C248	C	0.725558	-0.281741	-0.526235
C249	C	0.745074	-0.325907	-0.571615
C250	C	0.757249	-0.313741	-0.662428
H251	H	0.724958	-0.171546	-0.696114
H252	H	0.703770	-0.192717	-0.538076
H253	H	0.716545	-0.290746	-0.459010
H254	H	0.750508	-0.367608	-0.537983
H255	H	0.771696	-0.346436	-0.696021
H256	H	0.705607	-0.301675	-1.079894
H257	H	0.375451	-0.087843	-0.523413
H258	H	0.879538	-0.988934	-0.472778
H259	H	0.733512	-0.412314	-0.288987
