data_functionalizedCrystal
_audit_creation_method	'MofGen! by Chris Wilmer'
_symmetry_space_group_name_H-M	'P1'
_symmetry_Int_Tables_number	1
_symmetry_cell_setting	triclinic
loop_
_symmetry_equiv_pos_as_xyz
  x,y,z
_cell_length_a	6.817900
_cell_length_b	10.865348
_cell_length_c	10.943925
_cell_angle_alpha	87.792246
_cell_angle_beta	108.844289
_cell_angle_gamma	72.410449
loop_
_atom_site_label
_atom_site_type_symbol
_atom_site_fract_x
_atom_site_fract_y
_atom_site_fract_z
V1	V	-4.100733	0.402530	-0.178563
O2	O	-4.058685	0.394885	0.008652
O3	O	-4.078821	0.399759	-0.354130
O4	O	-4.072241	0.578094	-0.175785
O5	O	-4.065311	0.215315	-0.170927
V6	V	-4.578349	0.380139	-0.156174
O7	O	-4.374949	0.451644	-0.227676
O8	O	-4.754331	0.331024	-0.107061
O9	O	-4.377055	0.382910	0.019393
O10	O	-4.737794	0.387784	-0.343389
O11	O	-4.731168	0.567354	-0.163810
O12	O	-4.383635	0.204574	-0.158952
C13	C	-3.929621	0.393405	-0.396930
C14	C	-3.993125	0.392310	-0.540458
C15	C	-4.260292	0.397741	-0.717190
C16	C	-4.074991	0.288086	-0.611209
C17	C	-4.177609	0.501930	-0.644526
C18	C	-3.920823	0.280606	-0.690183
C19	C	-4.023518	0.494547	-0.723523
C20	C	-3.838081	0.384861	-0.617572
C21	C	-4.197992	0.161775	-0.165309
C22	C	-4.119066	0.018248	-0.166412
C23	C	-4.251315	-0.072633	-0.160317
C24	C	-4.187129	-0.138419	-0.271274
C25	C	-4.042606	-0.171701	-0.057429
C26	C	-4.055979	-0.045634	-0.277443
C27	C	-3.911420	-0.078925	-0.063501
C28	C	-3.847143	-0.144663	-0.174489
C29	C	-3.921226	0.620887	-0.169432
C30	C	-3.979389	0.764413	-0.168322
C31	C	-4.189597	0.389261	0.062186
C32	C	-4.105332	0.390364	0.205713
H33	H	-4.002503	0.581836	-0.772455
O34	O	-4.064534	0.026623	-0.400732
H35	H	-4.123599	0.133361	-0.398981
O36	O	-4.320575	0.625848	-0.617084
H37	H	-4.495064	0.630939	-0.657158
O38	O	-4.497421	0.404785	-0.774806
H39	H	-4.543238	0.404830	-0.881789
H40	H	-4.302885	-0.164986	-0.359132
H41	H	-3.675569	-0.176269	-0.180523
H42	H	-3.795742	-0.052333	0.024364
O43	O	-4.478782	-0.030266	-0.152608
H44	H	-4.593592	-0.053623	-0.239031
O45	O	-4.034124	-0.244162	0.065727
H46	H	-4.201301	-0.215452	0.071335
H47	H	-4.096091	0.200805	-0.562308
H48	H	-3.812850	0.186969	-0.710736
H49	H	-3.658963	0.379390	-0.574287
