data_functionalizedCrystal
_audit_creation_method	'MofGen! by Chris Wilmer'
_symmetry_space_group_name_H-M	'P1'
_symmetry_Int_Tables_number	1
_symmetry_cell_setting	triclinic
loop_
_symmetry_equiv_pos_as_xyz
  x,y,z
_cell_length_a	14.519709
_cell_length_b	15.944551
_cell_length_c	13.596369
_cell_angle_alpha	89.993059
_cell_angle_beta	90.000291
_cell_angle_gamma	83.589442
loop_
_atom_site_label
_atom_site_type_symbol
_atom_site_fract_x
_atom_site_fract_y
_atom_site_fract_z
O1	O	1.223676	0.110109	-0.081665
O2	O	0.955176	0.123076	-0.081696
O3	O	1.096758	-0.005672	-0.081671
O4	O	1.082094	0.238856	-0.081690
O5	O	1.096744	-0.005679	0.081912
O6	O	0.955162	0.123069	0.081887
O7	O	1.223662	0.110102	0.081917
Zn8	Zn	1.089410	0.116584	0.107875
Zn9	Zn	1.089428	0.116593	-0.107653
O10	O	1.082080	0.238850	0.081893
C11	C	0.920810	0.122468	0.000092
C12	C	0.818432	0.120657	0.000081
C13	C	0.443548	0.113990	0.000126
C14	C	0.547853	0.115842	0.000113
C15	C	0.630987	0.117323	0.000102
C16	C	0.735298	0.119175	0.000091
C17	C	1.096142	-0.036970	0.000121
C18	C	1.094317	-0.130219	0.000121
C19	C	1.002196	-0.345209	0.000097
C20	C	1.044967	-0.406168	0.080758
C21	C	1.091015	-0.300950	0.000113
C22	C	1.045002	-0.406144	-0.080522
C23	C	1.087820	-0.465867	0.000101
C24	C	1.133811	-0.360680	0.080841
C25	C	1.133833	-0.360650	-0.080512
C26	C	1.176669	-0.421591	0.000169
C27	C	1.092854	-0.205945	0.000121
C28	C	1.085988	-0.560871	0.000100
C29	C	1.258028	0.110710	0.000128
C30	C	1.360406	0.112521	0.000132
C31	C	1.082696	0.270148	0.000099
C32	C	1.084521	0.363397	0.000092
N33	N	1.089404	0.116578	0.254966
N34	N	1.089442	0.116593	-0.254745
C35	C	1.089427	0.116594	0.656257
C36	C	1.089418	0.116592	0.544606
C37	C	1.089416	0.116587	0.455615
C38	C	1.089406	0.116584	0.343957
H39	H	1.007394	-0.426333	0.148942
O40	O	1.178643	-0.336926	0.162317
C41	C	1.208273	-0.408782	0.219310
H42	H	1.214355	-0.467256	0.170484
H43	H	1.155765	-0.415904	0.280237
C44	C	1.295887	-0.326843	0.325191
C45	C	1.303364	-0.398662	0.265219
H46	H	1.354541	-0.320600	0.353513
H47	H	1.275922	-0.278431	0.286796
H48	H	1.252126	-0.332787	0.375955
H49	H	1.347115	-0.392712	0.214449
H50	H	1.323338	-0.447072	0.303606
O51	O	1.264711	-0.460992	0.000403
C52	C	1.311180	-0.437797	0.085545
H53	H	1.258230	-0.415971	0.144707
H54	H	1.354123	-0.384246	0.067076
C55	C	1.440495	-0.541089	0.050916
C56	C	1.375460	-0.514288	0.123582
H57	H	1.480149	-0.588270	0.074378
H58	H	1.409190	-0.556714	-0.006448
H59	H	1.476270	-0.496456	0.035532
H60	H	1.339678	-0.558917	0.138956
H61	H	1.406761	-0.498672	0.180950
O62	O	1.178496	-0.336442	-0.161882
C63	C	1.117842	-0.279430	-0.217164
H64	H	1.060959	-0.248257	-0.167176
H65	H	1.085352	-0.314940	-0.278560
C66	C	1.242181	-0.249585	-0.323535
C67	C	1.172320	-0.211292	-0.262137
H68	H	1.275785	-0.207556	-0.351280
H69	H	1.283045	-0.287998	-0.286293
H70	H	1.215095	-0.279175	-0.374690
H71	H	1.199407	-0.181712	-0.210976
H72	H	1.131462	-0.172873	-0.299371
O73	O	1.000055	-0.430056	-0.161847
C74	C	0.908100	-0.390794	-0.161535
H75	H	0.903675	-0.331404	-0.114316
H76	H	0.860267	-0.436116	-0.130061
C77	C	0.883679	-0.439854	-0.325488
C78	C	0.878246	-0.366906	-0.267500
H79	H	0.865261	-0.425122	-0.390852
H80	H	0.945629	-0.466309	-0.325697
H81	H	0.843818	-0.477616	-0.299249
H82	H	0.918115	-0.329151	-0.293732
H83	H	0.816301	-0.340445	-0.267297
H84	H	0.928471	-0.312009	0.000169
