data_functionalizedCrystal
_audit_creation_method	'MofGen! by Chris Wilmer'
_symmetry_space_group_name_H-M	'P1'
_symmetry_Int_Tables_number	1
_symmetry_cell_setting	triclinic
loop_
_symmetry_equiv_pos_as_xyz
  x,y,z
_cell_length_a	6.817900
_cell_length_b	19.551823
_cell_length_c	16.306216
_cell_angle_alpha	95.875295
_cell_angle_beta	103.467292
_cell_angle_gamma	101.663376
loop_
_atom_site_label
_atom_site_type_symbol
_atom_site_fract_x
_atom_site_fract_y
_atom_site_fract_z
V1	V	-4.017387	-0.097222	-0.263423
O2	O	-4.014320	0.004109	-0.258002
O3	O	-3.960081	-0.192235	-0.262011
O4	O	-3.968953	-0.095974	-0.378132
O5	O	-4.005386	-0.092818	-0.141077
V6	V	-4.502174	-0.085073	-0.248742
O7	O	-4.275874	-0.123873	-0.295626
O8	O	-4.693884	-0.058422	-0.216538
O9	O	-4.336274	0.009940	-0.250153
O10	O	-4.622638	-0.186404	-0.254162
O11	O	-4.631572	-0.089477	-0.371087
O12	O	-4.327401	-0.086321	-0.134032
C13	C	-3.802916	-0.215389	-0.257956
C14	C	-3.837347	-0.293064	-0.257567
C15	C	-4.035287	-0.333118	-0.261603
C16	C	-4.067644	-0.406104	-0.261246
C17	C	-3.902041	-0.439030	-0.256836
C18	C	-3.704075	-0.398967	-0.252804
C19	C	-3.671728	-0.325984	-0.253170
C20	C	-3.788828	-0.545406	-0.203341
C21	C	-3.821179	-0.618387	-0.202971
C22	C	-4.001803	-0.664133	-0.255711
C23	C	-4.150101	-0.636889	-0.308812
C24	C	-4.117754	-0.563906	-0.309178
C25	C	-3.937095	-0.518167	-0.256439
C26	C	-4.234842	-0.783327	-0.259361
C27	C	-4.267194	-0.856314	-0.259009
C28	C	-3.903615	-0.849175	-0.250559
C29	C	-3.871272	-0.776190	-0.250919
C30	C	-4.036891	-0.743270	-0.255317
C31	C	-3.814233	-0.092597	-0.406079
C32	C	-3.855857	-0.092205	-0.499857
C33	C	-4.006945	-0.090797	-0.840604
C34	C	-4.210933	-0.095433	-0.810174
C35	C	-4.167650	-0.095572	-0.712583
C36	C	-3.931990	-0.091496	-0.671555
C37	C	-3.802732	-0.022193	-0.691479
C38	C	-3.847400	-0.021762	-0.789076
C39	C	-3.914363	-0.155219	-0.814749
C40	C	-3.875670	-0.156587	-0.717438
C41	C	-3.889616	-0.091889	-0.576016
C42	C	-4.049311	-0.090400	-0.936142
C43	C	-4.156781	0.033090	-0.254205
C44	C	-4.101587	0.110765	-0.254600
C45	C	-4.145464	-0.089700	-0.106081
C46	C	-4.083078	-0.090088	-0.012302
H47	H	-3.510539	-0.293372	-0.249884
H48	H	-4.428387	-0.888926	-0.262301
Cl49	Cl	-3.634768	-0.652629	-0.136203
H50	H	-3.695066	-0.015517	-0.808276
H51	H	-4.297001	-0.674145	-0.351875
H52	H	-4.022775	-0.207297	-0.850805
H53	H	-4.369698	-0.756522	-0.262940
Cl54	Cl	-3.695426	-0.890562	-0.245025
Cl55	Cl	-3.561733	-0.487904	-0.137037
Cl56	Cl	-4.023597	-0.235693	-0.699352
H57	H	-4.268342	-0.145387	-0.699919
H58	H	-4.333300	-0.145082	-0.844938
Cl59	Cl	-4.320709	-0.023990	-0.836975
Cl60	Cl	-3.622414	-0.725833	-0.245838
Cl61	Cl	-3.495889	-0.440359	-0.247265
H62	H	-4.228836	-0.438722	-0.264532
H63	H	-4.217675	-0.049171	-0.682028
Cl64	Cl	-3.941299	0.053476	-0.812179
H65	H	-3.629516	-0.016689	-0.663968
H66	H	-3.840964	0.026155	-0.659245
H67	H	-4.170154	-0.306320	-0.265189
Cl68	Cl	-3.614767	-0.158242	-0.675127
H69	H	-4.238502	-0.541727	-0.352416
Cl70	Cl	-3.680709	-0.150975	-0.844607
