data_functionalizedCrystal
_audit_creation_method	'MofGen! by Chris Wilmer'
_symmetry_space_group_name_H-M	'P1'
_symmetry_Int_Tables_number	1
_symmetry_cell_setting	triclinic
loop_
_symmetry_equiv_pos_as_xyz
  x,y,z
_cell_length_a	19.188905
_cell_length_b	19.188940
_cell_length_c	17.666332
_cell_angle_alpha	89.993076
_cell_angle_beta	89.983521
_cell_angle_gamma	83.141635
loop_
_atom_site_label
_atom_site_type_symbol
_atom_site_fract_x
_atom_site_fract_y
_atom_site_fract_z
O1	O	0.926164	0.087085	-0.063074
O2	O	1.426164	0.587085	0.436926
O3	O	0.722850	0.098838	-0.063048
O4	O	1.222850	0.598838	0.436952
O5	O	0.830371	-0.008694	-0.063056
O6	O	1.330371	0.491306	0.436944
O7	O	0.818643	0.194617	-0.063066
O8	O	1.318643	0.694617	0.436934
O9	O	0.830352	-0.008700	0.062841
O10	O	1.330352	0.491300	0.562841
O11	O	0.722832	0.098832	0.062849
O12	O	1.222832	0.598832	0.562849
O13	O	0.926145	0.087080	0.062823
O14	O	1.426145	0.587080	0.562823
Cu15	Cu	0.824487	0.092955	0.074331
Cu16	Cu	1.324487	0.592955	0.574331
Cu17	Cu	0.824509	0.092962	-0.074556
Cu18	Cu	1.324509	0.592962	0.425444
O19	O	0.818625	0.194611	0.062831
O20	O	1.318625	0.694611	0.562831
C21	C	0.696830	0.098457	-0.000096
C22	C	1.196830	0.598457	0.499904
C23	C	0.619324	0.097323	-0.000086
C24	C	1.119324	0.597323	0.499914
C25	C	0.582943	0.096782	-0.068715
C26	C	1.082943	0.596782	0.431285
C27	C	0.510119	0.095709	-0.068724
C28	C	1.010119	0.595709	0.431276
C29	C	0.473682	0.095163	-0.000101
C30	C	0.973682	0.595163	0.499899
C31	C	0.510071	0.095709	0.068536
C32	C	1.010071	0.595709	0.568536
C33	C	0.582893	0.096789	0.068544
C34	C	1.082893	0.596789	0.568544
N35	N	0.364652	0.053733	0.050970
N36	N	0.864652	0.553733	0.550970
N37	N	0.295475	0.052705	0.050959
N38	N	0.795475	0.552705	0.550959
C39	C	0.254275	0.091911	-0.000119
C40	C	0.754275	0.591911	0.499881
N41	N	0.284866	0.132174	-0.051196
N42	N	0.784866	0.632174	0.448804
N43	N	0.354050	0.133198	-0.051187
N44	N	0.854050	0.633198	0.448813
C45	C	0.394719	0.093993	-0.000101
C46	C	0.894719	0.593993	0.499899
C47	C	0.138929	0.090207	-0.068762
C48	C	0.638929	0.590207	0.431238
C49	C	0.066104	0.089138	-0.068769
C50	C	0.566104	0.589138	0.431231
C51	C	0.066058	0.089131	0.068493
C52	C	0.566058	0.589131	0.568493
C53	C	0.138882	0.090207	0.068498
C54	C	0.638882	0.590207	0.568498
C55	C	0.175313	0.090741	-0.000132
C56	C	0.675313	0.590741	0.499868
C57	C	0.829980	-0.034708	-0.000108
C58	C	1.329980	0.465292	0.499892
C59	C	0.828837	-0.112212	-0.000108
C60	C	1.328837	0.387788	0.499892
C61	C	0.820692	-0.665474	0.068502
C62	C	1.320692	-0.165474	0.568502
C63	C	0.821759	-0.592649	0.068506
C64	C	1.321759	-0.092649	0.568506
C65	C	0.822306	-0.556227	-0.000120
C66	C	1.322306	-0.056227	0.499880
C67	C	0.821768	-0.592632	-0.068754
C68	C	1.321768	-0.092632	0.431246
C69	C	0.820694	-0.665454	-0.068757
C70	C	1.320694	-0.165454	0.431243
N71	N	0.863730	-0.447204	-0.051204
N72	N	1.363730	0.052796	0.448796
N73	N	0.864752	-0.378027	-0.051198
N74	N	1.364752	0.121973	0.448802
C75	C	0.825539	-0.336818	-0.000118
C76	C	1.325539	0.163182	0.499882
N77	N	0.785276	-0.367401	0.050967
N78	N	1.285276	0.132599	0.550967
N79	N	0.784257	-0.436586	0.050963
N80	N	1.284257	0.063414	0.550963
C81	C	0.823470	-0.477263	-0.000125
C82	C	1.323470	0.022737	0.499875
C83	C	0.827229	-0.221456	0.068517
C84	C	1.327229	0.278544	0.568517
C85	C	0.828291	-0.148630	0.068518
C86	C	1.328291	0.351370	0.568518
C87	C	0.828307	-0.148615	-0.068744
C88	C	1.328307	0.351385	0.431256
C89	C	0.827238	-0.221439	-0.068743
C90	C	1.327238	0.278561	0.431257
C91	C	0.826702	-0.257856	-0.000110
C92	C	1.326702	0.242144	0.499890
C93	C	0.952166	0.087460	-0.000130
C94	C	1.452166	0.587460	0.499870
C95	C	1.029671	0.088594	-0.000145
C96	C	1.529671	0.588594	0.499855
C97	C	0.819015	0.220625	-0.000119
C98	C	1.319015	0.720625	0.499881
C99	C	0.820158	0.298129	-0.000124
C100	C	1.320158	0.798129	0.499876
N101	N	0.824476	0.092950	0.179051
N102	N	1.324476	0.592950	0.679051
N103	N	0.824525	0.092962	-0.179276
N104	N	1.324525	0.592962	0.320724
C105	C	0.872101	0.045358	0.218657
C106	C	1.372101	0.545358	0.718657
C107	C	0.872105	0.045355	0.297905
C108	C	1.372105	0.545355	0.797905
C109	C	0.824491	0.092955	0.337543
C110	C	1.324491	0.592955	0.837543
C111	C	0.776857	0.140551	0.297927
C112	C	1.276857	0.640551	0.797927
C113	C	0.776849	0.140548	0.218681
C114	C	1.276849	0.640548	0.718681
N115	N	0.815417	0.154763	0.461959
N116	N	1.315417	0.654763	0.961959
N117	N	0.815428	0.154763	0.537240
N118	N	1.315428	0.654763	1.037240
C119	C	0.824509	0.092965	0.576307
C120	C	1.324509	0.592965	1.076307
N121	N	0.833593	0.031164	0.537250
N122	N	1.333593	0.531164	1.037250
N123	N	0.833585	0.031165	0.461962
N124	N	1.333585	0.531165	0.961962
C125	C	0.824493	0.092963	0.423472
C126	C	1.324493	0.592963	0.923472
C127	C	0.872142	0.045366	0.701842
C128	C	1.372142	0.545366	1.201842
C129	C	0.872141	0.045361	0.781091
C130	C	1.372141	0.545361	1.281091
C131	C	0.776895	0.140563	0.781112
C132	C	1.276895	0.640563	1.281112
C133	C	0.776893	0.140562	0.701865
C134	C	1.276893	0.640562	1.201865
C135	C	0.824520	0.092964	0.662235
C136	C	1.324520	0.592964	1.162235
H137	H	0.480491	0.095269	-0.124611
H138	H	0.980491	0.595269	0.375389
O139	O	0.470733	0.095458	0.142553
O140	O	0.970733	0.595458	0.642553
H141	H	0.413967	0.094733	0.131018
H142	H	0.913967	0.594733	0.631018
H143	H	0.910889	0.006598	0.330158
H144	H	1.410889	0.506598	0.830158
O145	O	0.725560	0.191925	0.823858
O146	O	1.225560	0.691925	1.323858
H147	H	0.692448	0.225027	0.783000
H148	H	1.192448	0.725027	1.283000
O149	O	0.828864	-0.109367	0.142540
O150	O	1.328864	0.390633	0.642540
H151	H	0.876926	-0.082554	0.145806
H152	H	1.376926	0.417446	0.645806
H153	H	0.826787	-0.251107	0.124402
H154	H	1.326787	0.248893	0.624402
H155	H	0.828744	-0.118959	-0.124620
H156	H	1.328744	0.381041	0.375380
H157	H	0.168592	0.090649	-0.124645
H158	H	0.668592	0.590649	0.375355
H159	H	0.036482	0.088701	-0.124657
H160	H	0.536482	0.588701	0.375343
O161	O	0.822354	-0.553354	-0.142775
O162	O	1.322354	-0.053354	0.357225
H163	H	0.870424	-0.526554	-0.146073
H164	H	1.370424	-0.026554	0.353927
O165	O	0.820120	-0.704713	-0.142780
O166	O	1.320120	-0.204713	0.357220
H167	H	0.819278	-0.761468	-0.131252
H168	H	1.319278	-0.261468	0.368748
O169	O	0.622238	0.097364	-0.142733
O170	O	1.122238	0.597364	0.357267
H171	H	0.601899	0.144737	-0.175643
H172	H	1.101899	0.644737	0.324357
O173	O	0.026708	0.088645	0.142481
O174	O	0.526708	0.588645	0.642481
H175	H	-0.000144	0.040609	0.145813
H176	H	0.499856	0.540609	0.645813
O177	O	0.622139	0.097382	0.142567
O178	O	1.122139	0.597382	0.642567
H179	H	0.584570	0.096825	0.190285
H180	H	1.084570	0.596825	0.690285
H181	H	0.826808	-0.251074	-0.124625
H182	H	1.326808	0.248926	0.375375
H183	H	0.822181	-0.563007	0.124391
H184	H	1.322181	-0.063007	0.624391
H185	H	0.168505	0.090643	0.124382
H186	H	0.668505	0.590643	0.624382
H187	H	0.738066	0.179304	0.186433
H188	H	1.238066	0.679304	0.686433
O189	O	0.923459	-0.005986	0.175911
O190	O	1.423459	0.494014	0.675911
H191	H	0.956572	-0.039086	0.216771
H192	H	1.456572	0.460914	0.716771
O193	O	0.820105	-0.704752	0.142523
O194	O	1.320105	-0.204752	0.642523
H195	H	0.820649	-0.667203	0.190244
H196	H	1.320649	-0.167203	0.690244
H197	H	0.738087	0.179307	0.330204
H198	H	1.238087	0.679307	0.830204
O199	O	0.923498	-0.005977	0.659089
O200	O	1.423498	0.494023	1.159089
H201	H	0.956608	-0.039082	0.699947
H202	H	1.456608	0.460918	1.199947
H203	H	0.910921	0.006602	0.813340
H204	H	1.410921	0.506602	1.313340
O205	O	0.725533	0.191901	0.659138
O206	O	1.225533	0.691901	1.159138
H207	H	0.692428	0.225006	0.700012
H208	H	1.192428	0.725006	1.200012
