data_functionalizedCrystal
_audit_creation_method	'MofGen! by Chris Wilmer'
_symmetry_space_group_name_H-M	'P1'
_symmetry_Int_Tables_number	1
_symmetry_cell_setting	triclinic
loop_
_symmetry_equiv_pos_as_xyz
  x,y,z
_cell_length_a	10.489741
_cell_length_b	14.044220
_cell_length_c	13.101039
_cell_angle_alpha	86.332523
_cell_angle_beta	86.610661
_cell_angle_gamma	91.135974
loop_
_atom_site_label
_atom_site_type_symbol
_atom_site_fract_x
_atom_site_fract_y
_atom_site_fract_z
O1	O	1.714050	-0.128652	-0.085154
O2	O	1.344130	-0.141213	-0.085170
O3	O	1.523536	0.003089	-0.085152
O4	O	1.534643	-0.272954	-0.085172
O5	O	1.510666	-0.007281	0.085277
O6	O	1.331259	-0.151584	0.085259
O7	O	1.701180	-0.139023	0.085275
Zn8	Zn	1.514176	-0.146950	0.112326
Zn9	Zn	1.531133	-0.133286	-0.112221
O10	O	1.521773	-0.283325	0.085257
C11	C	1.290067	-0.145450	0.000043
C12	C	1.148150	-0.142611	0.000037
C13	C	1.512240	0.033252	0.000063
C14	C	1.497740	0.138576	0.000063
C15	C	1.533069	-0.313487	0.000040
C16	C	1.547569	-0.418812	0.000033
C17	C	1.070696	-0.050795	0.000053
C18	C	0.989314	-0.089055	-0.083978
C19	C	0.976661	-0.099302	0.084051
C20	C	1.068642	-0.180904	-0.084064
C21	C	1.055992	-0.191143	0.084041
C22	C	0.974646	-0.229468	-0.000011
C23	C	1.755243	-0.134786	0.000060
C24	C	1.897160	-0.137625	0.000060
N25	N	1.502612	-0.156275	0.265573
C26	C	1.471233	0.331420	0.000047
C27	C	1.574071	0.388351	0.000049
C28	C	1.559322	0.495655	0.000040
C29	C	1.485980	0.224105	0.000056
N30	N	1.542706	-0.123954	-0.265468
C31	C	1.486881	-0.168970	0.474614
C32	C	1.558434	-0.111261	0.525497
C33	C	1.549680	-0.118325	0.641815
C34	C	1.495633	-0.161908	0.358286
H35	H	1.112738	0.024689	-0.000047
H36	H	1.673195	0.356507	-0.000016
H37	H	1.372122	0.363266	0.000041
H38	H	1.108778	-0.215395	-0.155186
H39	H	1.626267	-0.056551	0.481702
C40	C	1.095759	-0.248674	0.178672
C41	C	1.229229	-0.251298	0.176876
C42	C	1.265911	-0.304289	0.264035
H43	H	1.064367	-0.219671	0.238401
H44	H	1.061511	-0.311855	0.179274
H45	H	1.263463	-0.188129	0.176285
H46	H	1.260653	-0.280308	0.117167
H47	H	1.231663	-0.367470	0.264637
H48	H	1.234511	-0.275281	0.323757
H49	H	1.356472	-0.306084	0.262824
C50	C	0.949920	-0.031322	-0.178610
C51	C	0.998708	0.062166	-0.178208
C52	C	0.962435	0.115386	-0.265354
H53	H	0.982772	-0.059580	-0.238360
H54	H	0.859359	-0.030364	-0.178235
H55	H	1.089251	0.061205	-0.178592
H56	H	0.965863	0.090451	-0.118477
H57	H	0.871873	0.116343	-0.264980
H58	H	0.995288	0.087119	-0.325098
H59	H	0.995521	0.178824	-0.265089
C60	C	0.919039	-0.330216	-0.000285
C61	C	0.966010	-0.372469	-0.088428
C62	C	0.914799	-0.465270	-0.088727
H63	H	0.942921	-0.366786	0.058769
H64	H	0.828547	-0.327932	0.000229
H65	H	1.056482	-0.374758	-0.088933
H66	H	0.942131	-0.335927	-0.147496
H67	H	0.824306	-0.462986	-0.088212
H68	H	0.938684	-0.501832	-0.029669
H69	H	0.946651	-0.493947	-0.148535
H70	H	0.936376	-0.064759	0.155093
C71	C	1.396571	-0.241895	0.533186
C72	C	1.405776	-0.234514	0.638582
C73	C	1.322621	-0.301687	0.692583
H74	H	1.311413	-0.230118	0.515800
H75	H	1.419096	-0.304253	0.515720
H76	H	1.383244	-0.172170	0.656041
H77	H	1.490915	-0.246300	0.655999
H78	H	1.345146	-0.364045	0.675117
H79	H	1.237469	-0.289904	0.675189
H80	H	1.328864	-0.296694	0.764100
