data_functionalizedCrystal
_audit_creation_method	'MofGen! by Chris Wilmer'
_symmetry_space_group_name_H-M	'P1'
_symmetry_Int_Tables_number	1
_symmetry_cell_setting	triclinic
loop_
_symmetry_equiv_pos_as_xyz
  x,y,z
_cell_length_a	12.759401
_cell_length_b	12.759400
_cell_length_c	12.759393
_cell_angle_alpha	89.969553
_cell_angle_beta	89.981504
_cell_angle_gamma	90.013326
loop_
_atom_site_label
_atom_site_type_symbol
_atom_site_fract_x
_atom_site_fract_y
_atom_site_fract_z
Zn1	Zn	1.606267	-0.418200	-0.593990
Zn2	Zn	1.606166	-0.593919	-0.418313
Zn3	Zn	1.430569	-0.418255	-0.418329
Zn4	Zn	1.430562	-0.593838	-0.593955
O5	O	1.518391	-0.506053	-0.506147
O6	O	1.753274	-0.441520	-0.570694
O7	O	1.582833	-0.570673	-0.271294
O8	O	1.453920	-0.271226	-0.441652
O9	O	1.753200	-0.570620	-0.441625
O10	O	1.583005	-0.271186	-0.570709
O11	O	1.453822	-0.441614	-0.271306
O12	O	1.283547	-0.441535	-0.441618
O13	O	1.453909	-0.570482	-0.740980
O14	O	1.283542	-0.570536	-0.570649
O15	O	1.582998	-0.441442	-0.741006
O16	O	1.582826	-0.740929	-0.441591
O17	O	1.453811	-0.740870	-0.570634
C18	C	1.245423	-0.506033	-0.506132
C19	C	1.128647	-0.506050	-0.506151
C20	C	1.073810	-0.573328	-0.573227
C21	C	0.964086	-0.573342	-0.573238
C22	C	0.964045	-0.438796	-0.439089
C23	C	1.073767	-0.438778	-0.439084
C24	C	1.128689	-0.640600	-0.640294
C25	C	1.073852	-0.707885	-0.707374
C26	C	0.964128	-0.707898	-0.707385
C27	C	0.909241	-0.640627	-0.640316
C28	C	1.518336	-0.779020	-0.506130
C29	C	1.518408	-0.895797	-0.506158
C30	C	1.585589	-0.950558	-0.573413
C31	C	1.585638	-1.060282	-0.573439
C32	C	1.451322	-1.060474	-0.438945
C33	C	1.451269	-0.950752	-0.438926
C34	C	1.652728	-0.895603	-0.640645
C35	C	1.719915	-0.950364	-0.707905
C36	C	1.719964	-1.060088	-0.707931
C37	C	1.652826	-1.115051	-0.640697
C38	C	1.792424	-0.506073	-0.506161
C39	C	1.909201	-0.506082	-0.506168
C40	C	1.518464	-0.505947	-0.780180
C41	C	1.518496	-0.505902	-0.896957
C42	C	1.518475	-0.232019	-0.506186
C43	C	1.518510	-0.115243	-0.506203
C44	C	1.585722	-0.438704	-0.951834
C45	C	1.585747	-0.438666	-1.061558
C46	C	1.451316	-0.573033	-1.061518
C47	C	1.451287	-0.573064	-0.951796
C48	C	1.652930	-0.371541	-0.896994
C49	C	1.720163	-0.304339	-0.951872
C50	C	1.720188	-0.304301	-1.061596
C51	C	1.652980	-0.371465	-1.116443
C52	C	1.518378	-0.506083	-0.233179
C53	C	1.518550	-0.505832	-0.116403
H54	H	1.218032	-0.640599	-0.640290
C55	C	1.779485	-0.782082	-0.767582
C56	C	1.793709	-0.889954	-0.781807
H57	H	1.825049	-0.744791	-0.813204
H58	H	1.708888	-0.764142	-0.782897
H59	H	1.794891	-0.764155	-0.696996
H60	H	1.778296	-0.907882	-0.852391
H61	H	1.864323	-0.907901	-0.766499
H62	H	1.652698	-0.806260	-0.640630
H63	H	1.774924	-0.249574	-1.106274
H64	H	1.774662	-1.104672	-0.762705
H65	H	1.652859	-1.204396	-0.640735
C66	C	1.242067	-0.767611	-0.766920
C67	C	1.134179	-0.781824	-0.781095
H68	H	1.279306	-0.813264	-0.812430
H69	H	1.260057	-0.697045	-0.782418
H70	H	1.260006	-0.782902	-0.696297
H71	H	1.116239	-0.766525	-0.851715
H72	H	1.116181	-0.852406	-0.765604
C73	C	1.391775	-1.228758	-0.379253
C74	C	1.377536	-1.120887	-0.365037
H75	H	1.346228	-1.266051	-0.333617
H76	H	1.376367	-1.246695	-0.449825
H77	H	1.462387	-1.246686	-0.363941
H78	H	1.306926	-1.102958	-0.380357
H79	H	1.392937	-1.102943	-0.294449
H80	H	1.396563	-0.906165	-0.384161
H81	H	1.774874	-0.249649	-0.907208
C82	C	0.752134	-0.613923	-0.740343
C83	C	0.788629	-0.640598	-0.640344
H84	H	0.677676	-0.613902	-0.740361
H85	H	0.777004	-0.546161	-0.758608
H86	H	0.776960	-0.663629	-0.789876
H87	H	0.763810	-0.590887	-0.590812
H88	H	0.763749	-0.708370	-0.622067
H89	H	0.919482	-0.762676	-0.762012
H90	H	1.396529	-0.627767	-0.907114
C91	C	1.273405	-0.624184	-1.095294
C92	C	1.377454	-0.646862	-1.121806
H93	H	1.227809	-0.669763	-1.132519
H94	H	1.263770	-0.633826	-1.022103
H95	H	1.258069	-0.553585	-1.113298
H96	H	1.392792	-0.717460	-1.103795
H97	H	1.387094	-0.637229	-1.195013
C98	C	0.840613	-0.424066	-0.297791
C99	C	0.903721	-0.364867	-0.365355
H100	H	0.803379	-0.378425	-0.252263
H101	H	0.792252	-0.464123	-0.337741
H102	H	0.883415	-0.469785	-0.257534
H103	H	0.860918	-0.319153	-0.405618
H104	H	0.952087	-0.324792	-0.325401
C105	C	1.062715	-0.305811	-0.306460
C106	C	1.134053	-0.364840	-0.365340
H107	H	1.099935	-0.260170	-0.260929
H108	H	1.019947	-0.265676	-0.352301
H109	H	1.019894	-0.351558	-0.266205
H110	H	1.176869	-0.319093	-0.405601
H111	H	1.176839	-0.404978	-0.319494
H112	H	1.652994	-0.371417	-1.205788
C113	C	1.726084	-0.298437	-0.739836
C114	C	1.652901	-0.371577	-0.776385
H115	H	1.726059	-0.298459	-0.665378
H116	H	1.793871	-0.316613	-0.764656
H117	H	1.707941	-0.230631	-0.764676
H118	H	1.671048	-0.439385	-0.751551
H119	H	1.585099	-0.353407	-0.751554
