data_functionalizedCrystal
_audit_creation_method	'MofGen! by Chris Wilmer'
_symmetry_space_group_name_H-M	'P1'
_symmetry_Int_Tables_number	1
_symmetry_cell_setting	triclinic
loop_
_symmetry_equiv_pos_as_xyz
  x,y,z
_cell_length_a	16.956995
_cell_length_b	13.596369
_cell_length_c	16.956995
_cell_angle_alpha	89.994764
_cell_angle_beta	103.945529
_cell_angle_gamma	90.008606
loop_
_atom_site_label
_atom_site_type_symbol
_atom_site_fract_x
_atom_site_fract_y
_atom_site_fract_z
O1	O	1.055850	0.081858	-0.033194
O2	O	0.821840	0.081844	-0.061310
O3	O	0.952903	0.081848	0.069753
O4	O	0.924787	0.081854	-0.164257
O5	O	0.952891	-0.081735	0.069759
O6	O	0.821828	-0.081738	-0.061304
O7	O	1.055838	-0.081725	-0.033188
Zn8	Zn	0.938831	-0.107704	-0.047245
Zn9	Zn	0.938847	0.107824	-0.047253
O10	O	0.924775	-0.081729	-0.164251
C11	C	0.792031	0.000051	-0.062746
C12	C	0.703228	0.000046	-0.067026
C13	C	0.201818	0.000084	-0.099044
C14	C	0.285258	0.000083	-0.095016
C15	C	0.341329	0.000073	-0.019415
C16	C	0.313957	0.000075	0.052163
C17	C	0.230517	0.000083	0.048134
C18	C	0.592416	0.000056	0.000523
C19	C	0.675860	0.000045	0.004546
C20	C	0.647156	0.000054	-0.142633
C21	C	0.563717	0.000056	-0.146655
C22	C	0.536351	0.000063	-0.075077
N23	N	0.426620	0.000069	-0.015297
N24	N	0.451062	0.000074	-0.079196
N25	N	0.938826	-0.254796	-0.047239
C26	C	0.938846	-0.656087	-0.047253
C27	C	0.938838	-0.544435	-0.047252
C28	C	0.938836	-0.455445	-0.047247
C29	C	0.938828	-0.343786	-0.047245
C30	C	1.085647	0.000071	-0.031751
C31	C	1.174450	0.000082	-0.027471
C32	C	0.954336	0.000058	0.099559
C33	C	0.958616	0.000062	0.188362
N34	N	0.938858	0.254915	-0.047252
C35	C	0.923341	0.000064	-0.194057
C36	C	0.919062	0.000067	-0.282859
C37	C	0.990634	0.000067	0.689772
C38	C	0.986607	0.000061	0.606332
C39	C	0.911006	0.000061	0.550261
C40	C	0.839428	0.000058	0.577634
C41	C	0.843456	0.000057	0.661073
C42	C	0.891067	0.000057	0.299174
C43	C	0.887044	0.000061	0.215730
C44	C	1.034223	0.000063	0.244434
C45	C	1.038245	0.000068	0.327873
C46	C	0.966667	0.000059	0.355239
N47	N	0.906887	0.000058	0.464971
N48	N	0.970787	0.000055	0.440528
H49	H	0.307537	0.000093	-0.153298
H50	H	1.052197	0.000075	0.735421
C51	C	1.183321	0.000048	0.347862
C52	C	1.121348	0.000055	0.389505
H53	H	1.234625	0.000035	0.385912
H54	H	1.178701	0.057092	0.314723
H55	H	1.178674	-0.056999	0.314718
H56	H	1.125992	0.057106	0.422645
H57	H	1.125971	-0.056994	0.422658
H58	H	0.570146	0.000058	0.058807
H59	H	0.832783	0.000062	0.321444
C60	C	0.797124	-0.084030	0.105241
C61	C	0.803936	0.000056	0.154094
H62	H	0.745821	-0.084026	0.067188
H63	H	0.801746	-0.141067	0.138388
H64	H	0.839179	-0.084013	0.077004
H65	H	0.761884	0.000035	0.182336
H66	H	0.799306	0.057107	0.120943
C67	C	0.767901	0.000068	0.436984
C68	C	0.756325	0.000060	0.516001
H69	H	0.716594	0.000078	0.398937
H70	H	0.797463	-0.056974	0.429208
H71	H	0.797486	0.057117	0.429213
H72	H	0.726745	-0.056993	0.523774
H73	H	0.726749	0.057108	0.523780
H74	H	0.518068	0.000067	-0.208217
H75	H	0.785174	0.000048	0.683354
H76	H	0.156169	0.000084	-0.160607
H77	H	1.092498	0.000078	0.222143
H78	H	1.044889	0.000061	0.584054
H79	H	0.721513	0.000042	0.066113
C80	C	0.724347	0.084152	-0.223485
C81	C	0.677237	0.000061	-0.221309
H82	H	0.742912	0.084161	-0.272062
H83	H	0.769679	0.084135	-0.177892
H84	H	0.692395	0.141192	-0.221992
H85	H	0.709191	-0.056978	-0.222797
H86	H	0.631899	0.000070	-0.266916
C87	C	0.454607	0.000047	0.123689
C88	C	0.375589	0.000061	0.135266
H89	H	0.492653	0.000030	0.174996
H90	H	0.462395	0.057090	0.094122
H91	H	0.462364	-0.057000	0.094110
H92	H	0.367829	0.057112	0.164840
H93	H	0.367797	-0.056988	0.164846
C94	C	0.229308	0.084164	0.172341
C95	C	0.200432	0.000080	0.126809
H96	H	0.210739	0.084161	0.220916
H97	H	0.209746	0.141202	0.141445
H98	H	0.287026	0.084145	0.185554
H99	H	0.142714	0.000102	0.113591
H100	H	0.219991	-0.056973	0.157712
