data_functionalizedCrystal
_audit_creation_method	'MofGen! by Chris Wilmer'
_symmetry_space_group_name_H-M	'P1'
_symmetry_Int_Tables_number	1
_symmetry_cell_setting	triclinic
loop_
_symmetry_equiv_pos_as_xyz
  x,y,z
_cell_length_a	8.559649
_cell_length_b	10.908878
_cell_length_c	7.681481
_cell_angle_alpha	85.682761
_cell_angle_beta	94.913240
_cell_angle_gamma	64.931728
loop_
_atom_site_label
_atom_site_type_symbol
_atom_site_fract_x
_atom_site_fract_y
_atom_site_fract_z
O1	O	2.113187	-0.030724	-0.146401
O2	O	1.629886	0.037379	-0.146409
O3	O	1.935605	-0.189923	-0.146397
O4	O	1.807468	0.196579	-0.146413
O5	O	1.973249	-0.217957	0.146462
O6	O	1.667530	0.009346	0.146450
O7	O	2.150831	-0.058757	0.146459
Zn8	Zn	1.915157	-0.029157	0.192952
Zn9	Zn	1.865560	0.007779	-0.192903
O10	O	1.845112	0.168545	0.146446
C11	C	1.587806	0.028524	0.000019
C12	C	1.406344	0.043886	0.000016
C13	C	1.966401	-0.252962	0.000031
C14	C	2.002062	-0.399031	0.000025
C15	C	1.871939	-0.435207	0.000020
C16	C	1.908793	-0.586176	0.000014
C17	C	2.192910	-0.049901	0.000026
C18	C	2.374371	-0.065263	0.000018
C19	C	1.814315	0.231585	0.000015
C20	C	1.778652	0.377655	0.000009
N21	N	1.949018	-0.054366	0.456288
N22	N	1.831714	0.032976	-0.456238
H23	H	1.485821	-0.170461	0.000013
H24	H	2.140750	-0.479828	0.000033
H25	H	1.294881	0.149094	0.000002
H26	H	1.639957	-0.541555	0.000023
H27	H	1.733254	-0.354412	0.000028
H28	H	2.047491	-0.666970	0.000022
C29	C	1.669949	0.153412	0.442179
H30	H	1.673625	0.150657	0.319219
H31	H	1.668383	0.236763	0.472302
H32	H	1.568031	0.147100	0.472321
C33	C	2.110793	-0.174807	0.557877
H34	H	2.107110	-0.172065	0.680838
H35	H	2.212708	-0.168507	0.527729
H36	H	2.112342	-0.258160	0.527757
