data_functionalizedCrystal
_audit_creation_method	'MofGen! by Chris Wilmer'
_symmetry_space_group_name_H-M	'P1'
_symmetry_Int_Tables_number	1
_symmetry_cell_setting	triclinic
loop_
_symmetry_equiv_pos_as_xyz
  x,y,z
_cell_length_a	27.731988
_cell_length_b	26.210047
_cell_length_c	14.519731
_cell_angle_alpha	89.996472
_cell_angle_beta	96.846389
_cell_angle_gamma	89.996586
loop_
_atom_site_label
_atom_site_type_symbol
_atom_site_fract_x
_atom_site_fract_y
_atom_site_fract_z
O1	O	-0.641478	0.042364	0.109455
O2	O	-0.308144	0.375697	0.442789
O3	O	0.025189	0.709031	0.776122
O4	O	-0.500761	0.042380	0.126197
O5	O	-0.167427	0.375713	0.459531
O6	O	0.165906	0.709046	0.792864
O7	O	-0.574845	0.042367	-0.016477
O8	O	-0.241511	0.375700	0.316856
O9	O	0.091822	0.709033	0.650189
O10	O	-0.567394	0.042377	0.252130
O11	O	-0.234060	0.375710	0.585463
O12	O	0.099273	0.709043	0.918796
O13	O	-0.574830	-0.042491	-0.016455
O14	O	-0.241497	0.290842	0.316878
O15	O	0.091836	0.624175	0.650212
O16	O	-0.500746	-0.042478	0.126220
O17	O	-0.167413	0.290855	0.459553
O18	O	0.165920	0.624188	0.792886
O19	O	-0.641463	-0.042494	0.109478
O20	O	-0.308130	0.290839	0.442811
O21	O	0.025203	0.624172	0.776144
Cu22	Cu	-0.571104	-0.050235	0.117851
Cu23	Cu	-0.237770	0.283099	0.451184
Cu24	Cu	0.095563	0.616432	0.784517
Cu25	Cu	-0.571120	0.050120	0.117824
Cu26	Cu	-0.237787	0.383453	0.451158
Cu27	Cu	0.095546	0.716787	0.784491
O28	O	-0.567379	-0.042481	0.252152
O29	O	-0.234046	0.290852	0.585485
O30	O	0.099287	0.624185	0.918819
C31	C	-0.482744	-0.000047	0.125865
C32	C	-0.149411	0.333286	0.459199
C33	C	0.183922	0.666619	0.792532
C34	C	-0.429083	-0.000042	0.124833
C35	C	-0.095750	0.333292	0.458166
C36	C	0.237584	0.666625	0.791499
C37	C	-0.096325	-0.046321	0.118340
C38	C	0.237009	0.287012	0.451674
C39	C	0.570342	0.620346	0.785007
C40	C	0.105353	-0.046329	0.114415
C41	C	0.438686	0.287004	0.447748
C42	C	0.772020	0.620338	0.781081
O43	O	0.131435	-0.085668	0.113878
O44	O	0.464768	0.247665	0.447211
O45	O	0.798102	0.580998	0.780544
N46	N	0.130562	-0.000073	0.113915
N47	N	0.463896	0.333260	0.447248
N48	N	0.797229	0.666593	0.780582
C49	C	0.105349	0.046188	0.114391
C50	C	0.438682	0.379521	0.447724
C51	C	0.772016	0.712855	0.781057
O52	O	0.131418	0.085531	0.113866
O53	O	0.464752	0.418864	0.447199
O54	O	0.798085	0.752198	0.780533
C55	C	-0.096328	0.046195	0.118310
C56	C	0.237005	0.379529	0.451643
C57	C	0.570339	0.712862	0.784977
C58	C	-0.121534	-0.000064	0.118819
C59	C	0.211799	0.333270	0.452152
C60	C	0.545132	0.666603	0.785486
C61	C	-0.121531	-0.092576	0.118848
C62	C	0.211802	0.240757	0.452182
C63	C	0.545136	0.574091	0.785515
C64	C	-0.171947	-0.092574	0.119835
C65	C	0.161386	0.240760	0.453168
C66	C	0.494720	0.574093	0.786502
C67	C	-0.197157	-0.046316	0.120313
C68	C	0.136177	0.287017	0.453647
C69	C	0.469510	0.620351	0.786980
C70	C	-0.171950	-0.000061	0.119805
C71	C	0.161383	0.333272	0.453139
C72	C	0.494716	0.666606	0.786472
C73	C	-0.121541	0.092456	0.118779
C74	C	0.211792	0.425789	0.452112
C75	C	0.545126	0.759123	0.785446
C76	C	-0.171964	0.092454	0.119756
C77	C	0.161370	0.425787	0.453090
C78	C	0.494703	0.759120	0.786423
C79	C	-0.197170	0.046195	0.120266
C80	C	0.136163	0.379528	0.453599
C81	C	0.469497	0.712861	0.786932
C82	C	-0.247576	0.046199	0.121270
C83	C	0.085757	0.379532	0.454604
C84	C	0.419091	0.712866	0.787937
N85	N	-0.272786	-0.000057	0.121770
N86	N	0.060548	0.333276	0.455103
N87	N	0.393881	0.666610	0.788437
C88	C	-0.247576	-0.046314	0.121292
C89	C	0.085758	0.287019	0.454625
C90	C	0.419091	0.620352	0.787958
C91	C	0.211233	0.046181	0.112335
C92	C	0.544566	0.379514	0.445668
C93	C	0.877899	0.712847	0.779002
C94	C	0.261652	0.046179	0.111357
C95	C	0.594985	0.379512	0.444690
C96	C	0.928318	0.712846	0.778024
C97	C	0.261652	-0.046338	0.111379
C98	C	0.594985	0.286995	0.444712
C99	C	0.928319	0.620329	0.778046
C100	C	0.211233	-0.046336	0.112364
C101	C	0.544566	0.286998	0.445697
C102	C	0.877899	0.620331	0.779031
C103	C	0.186023	-0.000075	0.112835
C104	C	0.519356	0.333258	0.446168
C105	C	0.852690	0.666592	0.779501
C106	C	-0.353453	-0.046306	0.123364
C107	C	-0.020120	0.287028	0.456697
C108	C	0.313214	0.620361	0.790031
C109	C	-0.403873	-0.046299	0.124354
C110	C	-0.070540	0.287034	0.457688
C111	C	0.262793	0.620367	0.791021
C112	C	-0.403870	0.046218	0.124327
C113	C	-0.070536	0.379551	0.457660
C114	C	0.262797	0.712884	0.790994
C115	C	-0.353453	0.046211	0.123342
C116	C	-0.020120	0.379545	0.456675
C117	C	0.313213	0.712878	0.790008
C118	C	-0.328247	-0.000054	0.122857
C119	C	0.005087	0.333279	0.456190
C120	C	0.338420	0.666612	0.789524
O121	O	-0.273690	0.085518	0.121797
O122	O	0.059644	0.418851	0.455131
O123	O	0.392977	0.752184	0.788464
O124	O	-0.273655	-0.085652	0.121796
O125	O	0.059678	0.247682	0.455129
O126	O	0.393012	0.581015	0.788462
C127	C	-0.045909	-0.046323	0.117354
C128	C	0.287425	0.287010	0.450687
C129	C	0.620758	0.620343	0.784021
C130	C	-0.020702	-0.000068	0.116846
C131	C	0.312631	0.333265	0.450179
C132	C	0.645964	0.666598	0.783513
C133	C	-0.045912	0.046189	0.117325
C134	C	0.287421	0.379522	0.450658
C135	C	0.620755	0.712856	0.783991
C136	C	0.029717	-0.000070	0.115868
C137	C	0.363050	0.333263	0.449201
C138	C	0.696384	0.666597	0.782535
C139	C	0.054927	-0.046328	0.115389
C140	C	0.388260	0.287006	0.448723
C141	C	0.721593	0.620339	0.782056
C142	C	0.029717	-0.092583	0.115889
C143	C	0.363051	0.240750	0.449222
C144	C	0.696384	0.574083	0.782556
C145	C	-0.020699	-0.092581	0.116876
C146	C	0.312635	0.240752	0.450209
C147	C	0.645968	0.574086	0.783542
C148	C	-0.020702	0.092445	0.116825
C149	C	0.312631	0.425778	0.450158
C150	C	0.645964	0.759112	0.783492
C151	C	0.029714	0.092439	0.115839
C152	C	0.363047	0.425772	0.449173
C153	C	0.696380	0.759105	0.782506
C154	C	0.054923	0.046181	0.115361
C155	C	0.388257	0.379514	0.448694
C156	C	0.721590	0.712848	0.782028
N157	N	-0.571095	-0.120818	0.117869
N158	N	-0.237762	0.212515	0.451202
N159	N	0.095572	0.545848	0.784535
C160	C	0.340521	-0.000069	0.109818
C161	C	0.673854	0.333265	0.443152
C162	C	1.007188	0.666598	0.776485
C163	C	0.286861	-0.000078	0.110878
C164	C	0.620195	0.333255	0.444212
C165	C	0.953528	0.666588	0.777545
C166	C	-0.603922	-0.473338	0.054662
C167	C	-0.270588	-0.140005	0.387996
C168	C	0.062745	0.193328	0.721329
C169	C	-0.603932	-0.686997	0.054649
C170	C	-0.270599	-0.353663	0.387983
C171	C	0.062735	-0.020330	0.721316
O172	O	-0.631824	-0.714624	0.000913
O173	O	-0.298490	-0.381290	0.334247
O174	O	0.034843	-0.047957	0.667580
N175	N	-0.571123	-0.713712	0.117804
N176	N	-0.237790	-0.380379	0.451137
N177	N	0.095544	-0.047046	0.784471
C178	C	-0.538307	-0.687010	0.180962
C179	C	-0.204973	-0.353677	0.514296
C180	C	0.128360	-0.020343	0.847629
O181	O	-0.510397	-0.714636	0.234673
O182	O	-0.177064	-0.381302	0.568006
O183	O	0.156269	-0.047969	0.901339
C184	C	-0.538294	-0.473352	0.180970
C185	C	-0.204961	-0.140019	0.514304
C186	C	0.128372	0.193314	0.847637
C187	C	-0.571109	-0.446640	0.117818
C188	C	-0.237775	-0.113306	0.451151
C189	C	0.095558	0.220027	0.784484
C190	C	-0.636733	-0.446625	-0.008486
C191	C	-0.303400	-0.113292	0.324847
C192	C	0.029934	0.220041	0.658181
C193	C	-0.636732	-0.393214	-0.008479
C194	C	-0.303399	-0.059881	0.324855
C195	C	0.029935	0.273453	0.658188
C196	C	-0.603919	-0.366515	0.054677
C197	C	-0.270586	-0.033182	0.388010
C198	C	0.062748	0.300151	0.721343
C199	C	-0.571108	-0.393228	0.117825
C200	C	-0.237774	-0.059895	0.451158
C201	C	0.095559	0.273439	0.784491
C202	C	-0.505476	-0.446651	0.244123
C203	C	-0.172143	-0.113318	0.577457
C204	C	0.161191	0.220016	0.910790
C205	C	-0.505475	-0.393233	0.244118
C206	C	-0.172142	-0.059900	0.577452
C207	C	0.161192	0.273433	0.910785
C208	C	-0.538290	-0.366520	0.180966
C209	C	-0.204956	-0.033187	0.514299
C210	C	0.128377	0.300146	0.847632
C211	C	-0.538294	-0.313118	0.180987
C212	C	-0.204960	0.020215	0.514321
C213	C	0.128373	0.353549	0.847654
N214	N	-0.571103	-0.286403	0.117833
N215	N	-0.237769	0.046931	0.451166
N216	N	0.095564	0.380264	0.784499
C217	C	-0.603915	-0.313101	0.054677
C218	C	-0.270582	0.020232	0.388011
C219	C	0.062751	0.353566	0.721344
C220	C	-0.538316	-0.799183	0.180955
C221	C	-0.204983	-0.465850	0.514288
C222	C	0.128350	-0.132517	0.847622
C223	C	-0.538320	-0.852598	0.180954
C224	C	-0.204987	-0.519264	0.514288
C225	C	0.128347	-0.185931	0.847621
C226	C	-0.603945	-0.852581	0.054640
C227	C	-0.270612	-0.519247	0.387973
C228	C	0.062722	-0.185914	0.721307
C229	C	-0.603943	-0.799165	0.054646
C230	C	-0.270610	-0.465832	0.387979
C231	C	0.062724	-0.132499	0.721312
C232	C	-0.571125	-0.772468	0.117800
C233	C	-0.237792	-0.439134	0.451134
C234	C	0.095541	-0.105801	0.784467
C235	C	-0.603911	-0.200933	0.054698
C236	C	-0.270577	0.132400	0.388031
C237	C	0.062756	0.465733	0.721364
C238	C	-0.603908	-0.147517	0.054713
C239	C	-0.270575	0.185816	0.388046
C240	C	0.062759	0.519150	0.721380
C241	C	-0.538282	-0.147539	0.181024
C242	C	-0.204948	0.185795	0.514357
C243	C	0.128385	0.519128	0.847691
C244	C	-0.538286	-0.200950	0.181012
C245	C	-0.204952	0.132383	0.514346
C246	C	0.128381	0.465717	0.847679
C247	C	-0.571102	-0.227646	0.117841
C248	C	-0.237769	0.105687	0.451175
C249	C	0.095564	0.439021	0.784508
O250	O	-0.510413	-0.285458	0.234688
O251	O	-0.177080	0.047875	0.568022
O252	O	0.156254	0.381208	0.901355
O253	O	-0.631813	-0.285466	0.000961
O254	O	-0.298480	0.047867	0.334295
O255	O	0.034853	0.381200	0.667628
C256	C	-0.603923	-0.526750	0.054655
C257	C	-0.270589	-0.193416	0.387988
C258	C	0.062744	0.139917	0.721322
C259	C	-0.571111	-0.553463	0.117803
C260	C	-0.237778	-0.220129	0.451136
C261	C	0.095555	0.113204	0.784470
C262	C	-0.538298	-0.526764	0.180959
C263	C	-0.204965	-0.193431	0.514292
C264	C	0.128368	0.139903	0.847625
C265	C	-0.571115	-0.606877	0.117802
C266	C	-0.237782	-0.273543	0.451136
C267	C	0.095552	0.059790	0.784469
C268	C	-0.603928	-0.633575	0.054647
C269	C	-0.270594	-0.300242	0.387980
C270	C	0.062739	0.033091	0.721314
C271	C	-0.636737	-0.606860	-0.008508
C272	C	-0.303403	-0.273526	0.324826
C273	C	0.029930	0.059807	0.658159
C274	C	-0.636736	-0.553448	-0.008500
C275	C	-0.303402	-0.220115	0.324833
C276	C	0.029931	0.113218	0.658166
C277	C	-0.505489	-0.553479	0.244113
C278	C	-0.172156	-0.220146	0.577447
C279	C	0.161177	0.113187	0.910780
C280	C	-0.505494	-0.606891	0.244102
C281	C	-0.172160	-0.273558	0.577435
C282	C	0.161173	0.059776	0.910768
C283	C	-0.538306	-0.633590	0.180946
C284	C	-0.204973	-0.300256	0.514279
C285	C	0.128360	0.033077	0.847613
C286	C	-0.574488	-0.000062	-0.050819
C287	C	-0.241155	0.333271	0.282514
C288	C	0.092178	0.666604	0.615847
C289	C	-0.573442	-0.000063	-0.153181
C290	C	-0.240109	0.333271	0.180152
C291	C	0.093224	0.666604	0.513486
N292	N	-0.571133	0.120704	0.117799
N293	N	-0.237799	0.454037	0.451132
N294	N	0.095534	0.787371	0.784466
C295	C	-0.572592	-0.000061	-0.236310
C296	C	-0.239259	0.333272	0.097023
C297	C	0.094075	0.666605	0.430357
C298	C	-0.571530	-0.000057	-0.340600
C299	C	-0.238197	0.333276	-0.007266
C300	C	0.095137	0.666609	0.326067
C301	C	-0.570687	-0.000054	-0.423724
C302	C	-0.237354	0.333279	-0.090390
C303	C	0.095980	0.666613	0.242943
C304	C	-0.569625	-0.000051	-0.528020
C305	C	-0.236291	0.333282	-0.194687
C306	C	0.097042	0.666616	0.138646
C307	C	-0.567736	-0.000051	0.286494
C308	C	-0.234402	0.333282	0.619827
C309	C	0.098931	0.666616	0.953161
C310	C	-0.568782	-0.000048	0.388856
C311	C	-0.235448	0.333286	0.722189
C312	C	0.097885	0.666619	1.055522
H313	H	-0.101011	-0.130247	0.118457
H314	H	0.232323	0.203087	0.451790
H315	H	0.565656	0.536420	0.785124
N316	N	-0.327710	0.093466	0.122816
N317	N	0.005624	0.426799	0.456149
N318	N	0.338957	0.760133	0.789483
N319	N	-0.337750	0.124433	0.057885
N320	N	-0.004416	0.457767	0.391218
N321	N	0.328917	0.791100	0.724551
H322	H	-0.319571	0.157808	0.057504
H323	H	0.013762	0.491141	0.390837
H324	H	0.347095	0.824475	0.724170
H325	H	0.190712	0.083854	0.112718
H326	H	0.524045	0.417187	0.446051
H327	H	0.857378	0.750521	0.779384
H328	H	-0.192466	-0.130242	0.120244
H329	H	0.140868	0.203091	0.453577
H330	H	0.474201	0.536424	0.786910
H331	H	-0.511567	-0.125792	0.232447
H332	H	-0.178234	0.207541	0.565780
H333	H	0.155100	0.540874	0.899114
H334	H	-0.663456	-0.531703	-0.059925
H335	H	-0.330123	-0.198369	0.273408
H336	H	0.003211	0.134964	0.606741
H337	H	-0.478755	-0.468393	0.295547
H338	H	-0.145422	-0.135060	0.628881
H339	H	0.187911	0.198273	0.962214
H340	H	-0.663453	-0.468359	-0.059919
H341	H	-0.330120	-0.135025	0.273415
H342	H	0.003214	0.198308	0.606748
H343	H	-0.511604	-0.874343	0.232388
H344	H	-0.178271	-0.541010	0.565722
H345	H	0.155062	-0.207677	0.899055
N346	N	-0.471965	-0.634165	0.308617
N347	N	-0.138632	-0.300832	0.641950
N348	N	0.194702	0.032501	0.975283
N349	N	-0.427290	-0.628195	0.307947
N350	N	-0.093956	-0.294861	0.641281
N351	N	0.239377	0.038472	0.974614
H352	H	-0.403608	-0.647455	0.353505
H353	H	-0.070274	-0.314122	0.686839
H354	H	0.263059	0.019212	1.020172
N355	N	0.055467	0.139690	0.115327
N356	N	0.388800	0.473023	0.448661
N357	N	0.722133	0.806356	0.781994
N358	N	0.088004	0.150019	0.179798
N359	N	0.421337	0.483352	0.513131
N360	N	0.754671	0.816686	0.846464
H361	H	0.106192	0.183389	0.179430
H362	H	0.439525	0.516722	0.512763
H363	H	0.772858	0.850055	0.846096
H364	H	-0.630663	-0.874328	0.003217
H365	H	-0.297330	-0.540994	0.336551
H366	H	0.036004	-0.207661	0.669884
H367	H	0.282187	-0.084003	0.110992
H368	H	0.615520	0.249331	0.444325
H369	H	0.948853	0.582664	0.777658
H370	H	-0.192487	0.130126	0.120140
H371	H	0.140847	0.463459	0.453474
H372	H	0.474180	0.796792	0.786807
N373	N	-0.637441	-0.771889	-0.009916
N374	N	-0.304107	-0.438556	0.323418
N375	N	0.029226	-0.105223	0.656751
N376	N	-0.666718	-0.795740	-0.066325
N377	N	-0.333385	-0.462407	0.267008
N378	N	-0.000052	-0.129074	0.600342
H379	H	-0.690368	-0.776479	-0.111944
H380	H	-0.357034	-0.443146	0.221390
H381	H	-0.023701	-0.109813	0.554723
N382	N	-0.471973	-0.526203	0.308621
N383	N	-0.138640	-0.192870	0.641954
N384	N	0.194693	0.140464	0.975287
N385	N	-0.441942	-0.496396	0.279783
N386	N	-0.108609	-0.163063	0.613116
N387	N	0.224725	0.170271	0.946450
H388	H	-0.418271	-0.477132	0.325348
H389	H	-0.084938	-0.143799	0.658681
H390	H	0.248395	0.189534	0.992015
N391	N	-0.429633	0.093462	0.124830
N392	N	-0.096299	0.426795	0.458163
N393	N	0.237034	0.760129	0.791497
N394	N	-0.474649	0.093451	0.125712
N395	N	-0.141315	0.426785	0.459045
N396	N	0.192018	0.760118	0.792378
H397	H	-0.492846	0.126818	0.126065
H398	H	-0.159513	0.460151	0.459398
H399	H	0.173821	0.793485	0.792731
H400	H	-0.041217	-0.130250	0.117290
H401	H	0.292116	0.203084	0.450623
H402	H	0.625449	0.536417	0.783957
H403	H	-0.424394	-0.083970	0.124772
H404	H	-0.091060	0.249363	0.458105
H405	H	0.242273	0.582696	0.791439
N406	N	-0.637417	-0.120228	-0.009815
N407	N	-0.304084	0.213106	0.323519
N408	N	0.029249	0.546439	0.656852
N409	N	-0.622025	-0.090422	-0.066845
N410	N	-0.288691	0.242911	0.266488
N411	N	0.044642	0.576245	0.599821
H412	H	-0.645688	-0.071148	-0.112419
H413	H	-0.312354	0.262185	0.220914
H414	H	0.020979	0.595518	0.554247
N415	N	-0.637433	-0.228189	-0.009838
N416	N	-0.304100	0.105144	0.323496
N417	N	0.029234	0.438477	0.656829
N418	N	-0.666724	-0.204324	-0.066211
N419	N	-0.333390	0.129009	0.267122
N420	N	-0.000057	0.462343	0.600456
H421	H	-0.690401	-0.223573	-0.111787
H422	H	-0.357067	0.109760	0.221546
H423	H	-0.023734	0.443094	0.554879
H424	H	-0.511591	-0.777450	0.232386
H425	H	-0.178258	-0.444116	0.565719
H426	H	0.155075	-0.110783	0.899052
H427	H	-0.663451	-0.371467	-0.059905
H428	H	-0.330118	-0.038134	0.273428
H429	H	0.003216	0.295199	0.606761
H430	H	-0.478749	-0.371499	0.295546
H431	H	-0.145416	-0.038165	0.628879
H432	H	0.187917	0.295168	0.962212
H433	H	-0.663456	-0.628606	-0.059928
H434	H	-0.330123	-0.295273	0.273405
H435	H	0.003211	0.038060	0.606738
N436	N	-0.504766	-0.228232	0.245529
N437	N	-0.171433	0.105102	0.578862
N438	N	0.161901	0.438435	0.912196
N439	N	-0.475471	-0.204385	0.301912
N440	N	-0.142138	0.128949	0.635245
N441	N	0.191195	0.462282	0.968579
H442	H	-0.451793	-0.223649	0.347472
H443	H	-0.118460	0.109685	0.680805
H444	H	0.214874	0.443018	1.014138
H445	H	-0.332935	-0.083980	0.122978
H446	H	0.000398	0.249354	0.456311
H447	H	0.333732	0.582687	0.789644
H448	H	-0.101027	0.130125	0.118363
H449	H	0.232306	0.463458	0.451697
H450	H	0.565640	0.796792	0.785030
H451	H	0.282171	0.083848	0.110957
H452	H	0.615505	0.417181	0.444291
H453	H	0.948838	0.750514	0.777624
N454	N	0.185496	-0.093592	0.112896
N455	N	0.518829	0.239741	0.446229
N456	N	0.852162	0.573074	0.779563
N457	N	0.208017	-0.134888	0.112481
N458	N	0.541351	0.198446	0.445814
N459	N	0.874684	0.531779	0.779148
H460	H	0.189843	-0.168265	0.112860
H461	H	0.523177	0.165068	0.446193
H462	H	0.856510	0.498402	0.779526
N463	N	0.055482	-0.139830	0.115411
N464	N	0.388815	0.193503	0.448745
N465	N	0.722149	0.526836	0.782078
N466	N	0.100498	-0.139819	0.114535
N467	N	0.433832	0.193515	0.447868
N468	N	0.767165	0.526848	0.781202
H469	H	0.118697	-0.173185	0.114195
H470	H	0.452031	0.160149	0.447528
H471	H	0.785364	0.493482	0.780862
H472	H	-0.041223	0.130114	0.117212
H473	H	0.292110	0.463448	0.450545
H474	H	0.625443	0.796781	0.783878
