data_functionalizedCrystal
_audit_creation_method	'MofGen! by Chris Wilmer'
_symmetry_space_group_name_H-M	'P1'
_symmetry_Int_Tables_number	1
_symmetry_cell_setting	triclinic
loop_
_symmetry_equiv_pos_as_xyz
  x,y,z
_cell_length_a	19.805407
_cell_length_b	16.625545
_cell_length_c	16.625539
_cell_angle_alpha	89.973630
_cell_angle_beta	90.018020
_cell_angle_gamma	89.975963
loop_
_atom_site_label
_atom_site_type_symbol
_atom_site_fract_x
_atom_site_fract_y
_atom_site_fract_z
Zn1	Zn	1.034736	0.321015	0.455930
Zn2	Zn	1.034659	0.455854	0.321098
Zn3	Zn	0.921554	0.321039	0.321109
Zn4	Zn	0.921519	0.455809	0.455885
O5	O	0.978117	0.388429	0.388506
O6	O	1.129443	0.338910	0.438059
O7	O	1.019638	0.437999	0.208267
O8	O	0.936615	0.208203	0.339017
O9	O	1.129386	0.437976	0.338998
O10	O	1.019770	0.208186	0.438069
O11	O	0.936540	0.338951	0.208275
O12	O	0.826833	0.338908	0.338973
O13	O	0.936556	0.437900	0.568724
O14	O	0.826807	0.437923	0.437993
O15	O	1.019736	0.338867	0.568757
O16	O	1.019604	0.568680	0.338954
O17	O	0.936481	0.568648	0.437982
C18	C	0.802261	0.388414	0.388480
C19	C	0.727029	0.388427	0.388488
C20	C	0.691689	0.440062	0.439964
C21	C	0.621001	0.440063	0.439975
C22	C	0.585654	0.388433	0.388506
C23	C	0.620998	0.336792	0.337027
C24	C	0.691686	0.336787	0.337020
C25	C	0.335925	0.336810	0.337054
C26	C	0.265233	0.336821	0.337063
C27	C	0.265241	0.440086	0.440008
C28	C	0.335928	0.440081	0.440002
C29	C	0.371266	0.388438	0.388527
C30	C	0.447915	0.388436	0.388516
C31	C	0.509007	0.388438	0.388512
C32	C	0.978048	0.597920	0.388480
C33	C	0.978081	0.687541	0.388496
C34	C	0.978191	1.015717	0.388592
C35	C	0.978158	0.924408	0.388567
C36	C	0.978136	0.851632	0.388543
C37	C	0.978104	0.760318	0.388520
C38	C	1.154660	0.388445	0.388532
C39	C	1.229892	0.388452	0.388544
C40	C	0.978150	0.388376	0.598815
C41	C	0.978165	0.388353	0.688436
C42	C	0.978199	1.178120	0.388559
C43	C	0.978219	1.088499	0.388606
C44	C	0.978123	0.388424	0.179015
C45	C	0.978240	0.388220	0.089394
C46	C	0.978176	0.388336	0.761218
C47	C	0.978191	0.388305	0.852527
C48	C	0.978207	0.388277	0.925303
C49	C	0.978224	0.388248	1.016618
H50	H	0.364704	0.482126	0.481911
N51	N	0.729807	0.495753	0.495479
H52	H	0.759159	0.463034	0.532899
H53	H	0.759072	0.533064	0.462585
N54	N	0.227108	0.281129	0.281547
H55	H	0.176966	0.288976	0.289359
H56	H	0.239444	0.293603	0.223939
H57	H	0.592231	0.482110	0.481891
H58	H	0.364689	0.294765	0.295133
N59	N	0.227126	0.495788	0.495531
H60	H	0.176982	0.487958	0.487731
H61	H	0.239507	0.483317	0.553138
H62	H	0.592213	0.294751	0.295123
N63	N	0.729806	0.281090	0.281506
H64	H	0.696688	0.248383	0.248901
H65	H	0.759115	0.313856	0.244130
