data_functionalizedCrystal
_audit_creation_method	'MofGen! by Chris Wilmer'
_symmetry_space_group_name_H-M	'P1'
_symmetry_Int_Tables_number	1
_symmetry_cell_setting	triclinic
loop_
_symmetry_equiv_pos_as_xyz
  x,y,z
_cell_length_a	6.817900
_cell_length_b	14.125465
_cell_length_c	13.167930
_cell_angle_alpha	100.455984
_cell_angle_beta	105.754568
_cell_angle_gamma	100.398878
loop_
_atom_site_label
_atom_site_type_symbol
_atom_site_fract_x
_atom_site_fract_y
_atom_site_fract_z
V1	V	-4.008991	-0.313183	-0.147929
O2	O	-3.978545	-0.293547	0.008060
O3	O	-3.978227	-0.324193	-0.294233
O4	O	-3.944811	-0.443772	-0.145236
O5	O	-4.012192	-0.173139	-0.141969
V6	V	-4.492378	-0.294835	-0.129320
O7	O	-4.270547	-0.353431	-0.188749
O8	O	-4.681020	-0.254587	-0.088500
O9	O	-4.299936	-0.283825	0.016984
O10	O	-4.640221	-0.314471	-0.285309
O11	O	-4.606574	-0.434879	-0.135281
O12	O	-4.333351	-0.164245	-0.132013
C13	C	-3.828029	-0.322646	-0.329912
C14	C	-3.884057	-0.332518	-0.449515
C15	C	-3.926093	-0.172142	-0.644076
C16	C	-3.978735	-0.181413	-0.756453
C17	C	-4.041999	-0.360331	-0.786647
C18	C	-3.989357	-0.351060	-0.674270
C19	C	-3.931401	-0.256962	-0.602988
C20	C	-3.878744	-0.247691	-0.490609
C21	C	-3.942023	-0.426609	-0.520805
C22	C	-3.994665	-0.435880	-0.633182
C23	C	-3.785403	-0.475180	-0.139850
C24	C	-3.814329	-0.582024	-0.138617
C25	C	-3.867349	-0.777645	-0.136355
C26	C	-4.053389	-0.830372	-0.140892
C27	C	-4.082892	-0.939222	-0.139634
C28	C	-3.837838	-0.668785	-0.137613
C29	C	-4.113477	-0.285370	0.052657
C30	C	-4.036686	-0.275504	0.172259
C31	C	-4.156103	-0.132833	-0.137403
C32	C	-4.106415	-0.025987	-0.138631
H33	H	-3.878876	-0.095523	-0.586036
O34	O	-4.235017	-0.781883	-0.147287
H35	H	-4.375852	-0.837300	-0.150409
H36	H	-3.730245	-0.814252	-0.131526
H37	H	-3.831543	-0.171072	-0.432572
O38	O	-3.947760	-0.518109	-0.476503
H39	H	-4.109267	-0.566743	-0.509411
O40	O	-3.972981	-0.089927	-0.800771
H41	H	-4.083927	-0.049201	-0.776045
O42	O	-4.104555	-0.461817	-0.863536
H43	H	-4.140276	-0.454009	-0.948580
O44	O	-4.057184	-0.537368	-0.710065
H45	H	-4.092893	-0.529567	-0.795111
