data_functionalizedCrystal
_audit_creation_method	'MofGen! by Chris Wilmer'
_symmetry_space_group_name_H-M	'P1'
_symmetry_Int_Tables_number	1
_symmetry_cell_setting	triclinic
loop_
_symmetry_equiv_pos_as_xyz
  x,y,z
_cell_length_a	19.188930
_cell_length_b	10.723023
_cell_length_c	9.798715
_cell_angle_alpha	89.998183
_cell_angle_beta	89.982440
_cell_angle_gamma	83.806164
loop_
_atom_site_label
_atom_site_type_symbol
_atom_site_fract_x
_atom_site_fract_y
_atom_site_fract_z
O1	O	0.927156	0.155779	-0.113926
O2	O	0.723981	0.176749	-0.113832
O3	O	0.830256	-0.015410	-0.113877
O4	O	0.820882	0.347937	-0.113882
O5	O	0.830248	-0.015410	0.113105
O6	O	0.723973	0.176749	0.113150
O7	O	0.927148	0.155778	0.113056
Zn8	Zn	0.825559	0.166264	0.149141
Zn9	Zn	0.825570	0.166264	-0.149918
O10	O	0.820874	0.347937	0.113101
C11	C	0.697962	0.176070	-0.000329
C12	C	0.620444	0.174031	-0.000293
C13	C	0.829570	-0.061895	-0.000387
C14	C	0.827529	-0.200407	-0.000392
N15	N	0.825557	0.166262	0.353241
C16	C	0.576253	0.286784	-0.000316
C17	C	0.503416	0.284869	-0.000331
C18	C	0.474775	0.170195	-0.000351
C19	C	0.518976	0.057427	-0.000320
C20	C	0.591811	0.059346	-0.000292
N21	N	0.366228	0.082541	-0.077656
N22	N	0.297037	0.080726	-0.077687
C23	C	0.255329	0.164408	-0.000434
N24	N	0.285423	0.249992	0.076833
N25	N	0.354619	0.251810	0.076857
C26	C	0.395799	0.168102	-0.000381
C27	C	0.132159	0.275091	-0.000471
C28	C	0.059322	0.273171	-0.000478
C29	C	0.074883	0.045726	-0.000481
C30	C	0.147719	0.047650	-0.000460
C31	C	0.176352	0.162335	-0.000462
C32	C	0.953168	0.156457	-0.000450
C33	C	1.030685	0.158496	-0.000495
C34	C	0.826615	-0.262166	0.117190
C35	C	0.824506	-0.405326	0.117188
C36	C	0.821560	0.394423	-0.000392
C37	C	0.823601	0.532935	-0.000397
N38	N	0.825578	0.166255	-0.354017
C39	C	0.870179	0.085229	0.420999
C40	C	0.870190	0.085224	0.578162
H41	H	0.599561	0.380170	-0.000320
Br42	Br	0.761904	0.281907	0.548880
H43	H	0.467429	0.376688	-0.000346
Br44	Br	0.207697	-0.105381	-0.000433
H45	H	0.823716	-0.458436	0.217854
Br46	Br	0.480107	-0.098204	-0.000333
H47	H	0.824381	-0.413960	-0.101068
Br48	Br	0.651789	-0.093688	-0.000257
H49	H	0.908371	0.015851	0.362660
Br50	Br	0.826239	-0.288917	-0.168188
H51	H	0.908395	0.015852	0.636431
H52	H	0.155474	0.368475	-0.000453
H53	H	0.827398	-0.209057	0.217857
H54	H	0.787361	0.235631	0.411581
H55	H	0.051564	-0.047644	-0.000581
Br56	Br	-0.000655	0.426207	-0.000497
