data_functionalizedCrystal
_audit_creation_method	'MofGen! by Chris Wilmer'
_symmetry_space_group_name_H-M	'P1'
_symmetry_Int_Tables_number	1
_symmetry_cell_setting	triclinic
loop_
_symmetry_equiv_pos_as_xyz
  x,y,z
_cell_length_a	19.288862
_cell_length_b	15.500227
_cell_length_c	19.288865
_cell_angle_alpha	87.186965
_cell_angle_beta	96.864237
_cell_angle_gamma	87.148777
loop_
_atom_site_label
_atom_site_type_symbol
_atom_site_fract_x
_atom_site_fract_y
_atom_site_fract_z
O1	O	-0.924606	0.072288	0.083390
O2	O	-0.722342	0.072218	0.095083
O3	O	-0.829318	0.072238	-0.011893
O4	O	-0.817630	0.072268	0.190366
O5	O	-0.822826	-0.071652	-0.005427
O6	O	-0.715850	-0.071672	0.101550
O7	O	-0.918114	-0.071601	0.089856
Cu8	Cu	-0.816390	-0.084775	0.096293
Cu9	Cu	-0.824067	0.085392	0.088646
O10	O	-0.811139	-0.071621	0.196832
C11	C	-0.693219	0.000264	0.097941
C12	C	-0.616114	0.000237	0.096814
N13	N	-0.810995	-0.204461	0.101671
C14	C	-0.571419	0.000257	0.159581
C15	C	-0.498972	0.000262	0.158521
C16	C	-0.471225	0.000264	0.094689
C17	C	-0.515930	0.000239	0.031913
C18	C	-0.588374	0.000225	0.032976
C19	C	-0.365237	0.050690	0.042245
C20	C	-0.292794	0.050709	0.041184
C21	C	-0.247780	0.000302	0.091409
C22	C	-0.275219	-0.050112	0.142706
C23	C	-0.347664	-0.050126	0.143768
C24	C	-0.392671	0.000278	0.093530
C25	C	-0.124529	0.000327	0.153031
C26	C	-0.052081	0.000326	0.151969
C27	C	-0.069041	0.000312	0.025359
C28	C	-0.141487	0.000303	0.026424
C29	C	-0.169227	0.000315	0.090262
C30	C	-0.856340	-0.249729	0.056358
C31	C	-0.852267	-0.340303	0.060432
C32	C	-0.802851	-0.385606	0.109823
C33	C	-0.757502	-0.340332	0.155138
C34	C	-0.761572	-0.249760	0.151060
C35	C	-0.788187	-0.659076	0.124500
C36	C	-0.784122	-0.749654	0.128576
C37	C	-0.878887	-0.749619	0.033868
C38	C	-0.882956	-0.659045	0.029798
C39	C	-0.837603	-0.613778	0.075111
C40	C	-0.798688	-0.478187	0.113989
C41	C	-0.841764	-0.521199	0.070940
C42	C	0.052764	0.000339	0.087001
C43	C	-0.024338	0.000327	0.088136
C44	C	-0.825696	0.000291	-0.034536
C45	C	-0.824566	0.000283	-0.111640
N46	N	-0.829467	0.205078	0.083262
C47	C	-0.887335	0.000300	-0.156337
C48	C	-0.886275	0.000313	-0.228785
C49	C	-0.822442	0.000292	-0.256531
C50	C	-0.759665	0.000279	-0.211824
C51	C	-0.760727	0.000275	-0.139378
C52	C	-0.769988	-0.050127	-0.362552
C53	C	-0.768928	-0.050128	-0.434997
C54	C	-0.819163	0.000310	-0.479977
C55	C	-0.870469	0.050737	-0.452506
C56	C	-0.871532	0.050733	-0.380060
C57	C	-0.821283	0.000297	-0.335085
C58	C	-0.880787	0.000343	-0.603232
C59	C	-0.879724	0.000362	-0.675681
C60	C	-0.753112	0.000319	-0.658717
C61	C	-0.754177	0.000309	-0.586270
C62	C	-0.818016	0.000317	-0.558532
C63	C	-0.814761	0.000328	0.219476
C64	C	-0.815890	0.000342	0.296578
H65	H	-0.462574	0.000276	0.209635
N66	N	-0.264754	0.102201	-0.011202
N67	N	-0.224188	0.159925	0.006252
H68	H	-0.204384	0.196291	-0.030747
N69	N	-0.741865	-0.612863	0.170800
N70	N	-0.742160	-0.622966	0.235454
H71	H	-0.709442	-0.590328	0.268157
H72	H	-0.717263	-0.377223	0.195350
N73	N	-0.375705	-0.101614	0.196155
N74	N	-0.412072	-0.066402	0.237446
H75	H	-0.431878	-0.102768	0.274444
H76	H	-0.707692	0.000264	-0.234419
H77	H	-0.238570	-0.091159	0.183603
N78	N	-0.952543	0.000301	-0.128005
N79	N	-0.992072	-0.060341	-0.139059
H80	H	-1.038126	-0.060341	-0.119048
H81	H	-0.147115	0.000324	0.205013
N82	N	-0.748205	-0.524456	0.164438
N83	N	-0.684462	-0.514384	0.163195
H84	H	-0.648806	-0.547064	0.198822
N85	N	-0.906777	-0.203441	0.005874
N86	N	-0.905523	-0.213583	-0.057862
H87	H	-0.941129	-0.180884	-0.093529
N88	N	-0.715245	-0.203530	0.197349
N89	N	-0.671126	-0.243987	0.241444
H90	H	-0.638404	-0.211339	0.274136
H91	H	-0.015690	0.000338	0.203084
H92	H	-0.881996	-0.484310	0.030724
H93	H	-0.937391	0.000331	-0.265185
H94	H	-0.401883	0.091742	0.001344
N95	N	-0.921786	0.102279	-0.498433
N96	N	-0.967585	0.147303	-0.473896
H97	H	-1.003827	0.183703	-0.506333
H98	H	-0.743880	-0.786536	0.168798
H99	H	-0.703063	0.000290	-0.549876
N100	N	-0.923940	0.102243	-0.352009
N101	N	-0.968793	0.147273	-0.392171
H102	H	-1.005807	0.183656	-0.372361
N103	N	-0.040718	0.000322	-0.039851
N104	N	-0.080638	0.000313	-0.095891
H105	H	-0.060634	0.000319	-0.141949
N106	N	-0.187136	0.000285	-0.037699
N107	N	-0.162356	0.000283	-0.094688
H108	H	-0.194596	0.000267	-0.139979
N109	N	-0.487578	0.000232	-0.033283
N110	N	-0.422895	0.000244	-0.034224
H111	H	-0.402871	0.000235	-0.080271
H112	H	-0.932768	0.000354	-0.580646
N113	N	-0.718678	-0.101669	-0.316612
N114	N	-0.737314	-0.159381	-0.276372
H115	H	-0.701078	-0.195783	-0.243928
N116	N	-0.634024	0.000200	-0.031149
N117	N	-0.609245	0.000193	-0.088139
H118	H	-0.641485	0.000176	-0.133428
N119	N	-0.898588	-0.386529	0.014137
N120	N	-0.942708	-0.346069	-0.029956
H121	H	-0.975425	-0.378716	-0.062655
H122	H	-0.923194	-0.622160	-0.010420
H123	H	-0.930840	0.000381	-0.712074
N124	N	-0.716539	-0.101675	-0.463045
N125	N	-0.671696	-0.146714	-0.422879
H126	H	-0.634702	-0.183132	-0.442687
N127	N	-0.687912	0.000289	-0.687061
N128	N	-0.670460	-0.060365	-0.722880
H129	H	-0.624411	-0.060384	-0.742901
N130	N	-0.599742	0.000272	0.224794
N131	N	-0.559821	0.000291	0.280832
H132	H	-0.579825	0.000302	0.326890
N133	N	-0.925204	-0.795871	-0.012409
N134	N	-0.921567	-0.876738	-0.008764
H135	H	-0.954279	-0.909405	-0.041451
N136	N	-0.696608	0.000270	-0.093716
N137	N	-0.656843	0.060914	-0.098842
H138	H	-0.611558	0.060911	-0.066591
