data_functionalizedCrystal
_audit_creation_method	'MofGen! by Chris Wilmer'
_symmetry_space_group_name_H-M	'P1'
_symmetry_Int_Tables_number	1
_symmetry_cell_setting	triclinic
loop_
_symmetry_equiv_pos_as_xyz
  x,y,z
_cell_length_a	15.944545
_cell_length_b	23.532407
_cell_length_c	15.021413
_cell_angle_alpha	89.999348
_cell_angle_beta	89.995468
_cell_angle_gamma	83.172425
loop_
_atom_site_label
_atom_site_type_symbol
_atom_site_fract_x
_atom_site_fract_y
_atom_site_fract_z
O1	O	1.113913	0.073425	-0.073984
O2	O	1.613913	0.573425	0.426016
O3	O	0.869287	0.082485	-0.073999
O4	O	1.369287	0.582485	0.426001
O5	O	0.998977	-0.004948	-0.073975
O6	O	1.498977	0.495052	0.426025
O7	O	0.984223	0.160858	-0.074008
O8	O	1.484223	0.660858	0.425992
O9	O	0.998956	-0.004936	0.074089
O10	O	1.498956	0.495064	0.574089
O11	O	0.869266	0.082497	0.074065
O12	O	1.369266	0.582497	0.574065
O13	O	1.113893	0.073438	0.074080
O14	O	1.613893	0.573438	0.574080
Zn15	Zn	0.991576	0.077969	0.097581
Zn16	Zn	1.491576	0.577969	0.597581
Zn17	Zn	0.991603	0.077953	-0.097500
Zn18	Zn	1.491603	0.577953	0.402500
O19	O	0.984203	0.160871	0.074056
O20	O	1.484203	0.660871	0.574056
C21	C	0.837986	0.082115	0.000031
C22	C	1.337986	0.582115	0.500031
C23	C	0.744749	0.080990	0.000026
C24	C	1.244749	0.580990	0.500026
C25	C	0.998591	-0.026160	0.000060
C26	C	1.498591	0.473840	0.500060
C27	C	0.997461	-0.089381	0.000066
C28	C	1.497461	0.410619	0.500066
C29	C	0.474601	0.023431	0.000047
C30	C	0.974601	0.523431	0.500047
C31	C	0.524939	0.051187	0.073047
C32	C	1.024939	0.551187	0.573047
C33	C	0.409139	0.076975	0.000042
C34	C	0.909139	0.576975	0.500042
C35	C	0.524939	0.051190	-0.072933
C36	C	1.024939	0.551190	0.427067
C37	C	0.574036	0.078945	0.000032
C38	C	1.074036	0.578945	0.500032
C39	C	0.458248	0.104717	0.073102
C40	C	0.958248	0.604717	0.573102
C41	C	0.458246	0.104712	-0.072943
C42	C	0.958246	0.604712	0.427057
C43	C	0.508550	0.132507	0.000075
C44	C	1.008550	0.632507	0.500075
C45	C	0.314146	0.075839	0.000048
C46	C	0.814146	0.575839	0.500048
C47	C	0.669025	0.080085	0.000033
C48	C	1.169025	0.580085	0.500033
C49	C	1.067124	-0.488215	0.000022
C50	C	1.567124	0.011785	0.500022
C51	C	1.066075	-0.547620	0.000015
C52	C	1.566075	-0.047620	0.500015
O53	O	1.130653	-0.584115	-0.000014
O54	O	1.630653	-0.084115	0.499986
N55	N	0.988974	-0.570543	0.000011
N56	N	1.488974	-0.070543	0.500011
C57	C	0.912918	-0.534059	0.000004
C58	C	1.412918	-0.034059	0.500004
O59	O	0.847241	-0.559012	-0.000001
O60	O	1.347241	-0.059012	0.499999
C61	C	0.913968	-0.474656	0.000005
C62	C	1.413968	0.025344	0.500005
C63	C	0.991074	-0.451736	0.000018
C64	C	1.491074	0.048264	0.500018
C65	C	1.144224	-0.465295	0.000034
C66	C	1.644224	0.034705	0.500034
C67	C	1.145273	-0.405894	0.000043
C68	C	1.645273	0.094106	0.500043
C69	C	1.069222	-0.369415	0.000039
C70	C	1.569222	0.130585	0.500039
C71	C	0.992123	-0.392336	0.000027
C72	C	1.492123	0.107664	0.500027
C73	C	0.837913	-0.438173	-0.000008
C74	C	1.337913	0.061827	0.499992
C75	C	0.838970	-0.378766	-0.000008
C76	C	1.338970	0.121234	0.499992
C77	C	0.916075	-0.355846	0.000005
C78	C	1.416075	0.144154	0.500005
C79	C	0.917121	-0.296456	0.000031
C80	C	1.417121	0.203544	0.500031
N81	N	0.994222	-0.273532	0.000036
N82	N	1.494222	0.226468	0.500036
C83	C	1.070272	-0.310012	0.000039
C84	C	1.570272	0.189988	0.500039
C85	C	0.910718	-0.658810	0.000002
C86	C	1.410718	-0.158810	0.500002
C87	C	0.909667	-0.718212	0.000008
C88	C	1.409667	-0.218212	0.500008
C89	C	1.062825	-0.731768	0.000017
C90	C	1.562825	-0.231768	0.500017
C91	C	1.063875	-0.672365	0.000017
C92	C	1.563875	-0.172365	0.500017
C93	C	0.987819	-0.635886	0.000006
C94	C	1.487819	-0.135886	0.500006
C95	C	1.072470	-0.185267	0.000058
C96	C	1.572470	0.314733	0.500058
C97	C	1.073512	-0.125860	0.000070
C98	C	1.573512	0.374140	0.500070
C99	C	0.920355	-0.112309	0.000056
C100	C	1.420355	0.387691	0.500056
C101	C	0.919312	-0.171710	0.000049
C102	C	1.419312	0.328290	0.500049
C103	C	0.995376	-0.208188	0.000047
C104	C	1.495376	0.291812	0.500047
O105	O	0.852577	-0.259926	0.000056
O106	O	1.352577	0.240074	0.500056
O107	O	1.135938	-0.285050	0.000033
O108	O	1.635938	0.214950	0.500033
C109	C	1.145194	0.073807	0.000048
C110	C	1.645194	0.573807	0.500048
C111	C	1.238431	0.074933	0.000048
C112	C	1.738431	0.574933	0.500048
C113	C	0.984589	0.182082	0.000020
C114	C	1.484589	0.682082	0.500020
C115	C	0.985718	0.245303	0.000007
C116	C	1.485718	0.745303	0.500007
N117	N	0.991564	0.077980	0.230719
N118	N	1.491564	0.577980	0.730719
N119	N	0.991622	0.077938	-0.230638
N120	N	1.491622	0.577938	0.269362
C121	C	0.931586	0.118390	0.470391
C122	C	1.431586	0.618390	0.970391
C123	C	1.007393	0.129445	0.529727
C124	C	1.507393	0.629445	1.029727
C125	C	0.991585	0.077966	0.412326
C126	C	1.491585	0.577966	0.912326
C127	C	0.915798	0.066924	0.529731
C128	C	1.415798	0.566924	1.029731
C129	C	0.991599	0.077954	0.587750
C130	C	1.491599	0.577954	1.087750
C131	C	1.067431	0.089047	0.470356
C132	C	1.567431	0.589047	0.970356
C133	C	0.975786	0.026503	0.470354
C134	C	1.475786	0.526503	0.970354
C135	C	1.051648	0.037536	0.529664
C136	C	1.551648	0.537536	1.029664
C137	C	0.991576	0.077975	0.311268
C138	C	1.491576	0.577975	0.811268
C139	C	0.991617	0.077944	0.688805
C140	C	1.491617	0.577944	1.188805
H141	H	0.459336	-0.022681	0.000127
H142	H	0.959336	0.477319	0.500127
H143	H	0.429118	0.127300	-0.134670
H144	H	0.929118	0.627300	0.365330
H145	H	0.851701	0.057590	0.555814
H146	H	1.351701	0.557590	1.055814
H147	H	0.962386	-0.016999	0.444254
H148	H	1.462386	0.483001	0.944254
H149	H	0.554051	0.028580	0.134772
H150	H	1.054051	0.528580	0.634772
H151	H	1.208060	-0.387239	0.000050
H152	H	1.708060	0.112761	0.500050
N153	N	1.025116	0.187081	0.564290
N154	N	1.525116	0.687081	1.064290
H155	H	1.081921	0.195731	0.541764
H156	H	1.581921	0.695731	1.041764
H157	H	0.979712	0.217561	0.542732
H158	H	1.479712	0.717561	1.042732
N159	N	0.864443	0.163709	0.435920
N160	N	1.364443	0.663709	0.935920
H161	H	0.891601	0.191888	0.397992
H162	H	1.391601	0.691888	0.897992
H163	H	0.822416	0.145052	0.398961
H164	H	1.322416	0.645052	0.898961
H165	H	1.102449	0.003343	0.555526
H166	H	1.602449	0.503343	1.055526
H167	H	0.429240	0.127319	0.134884
H168	H	0.929240	0.627319	0.634884
H169	H	1.124749	-0.761481	0.000017
H170	H	1.624749	-0.261481	0.500017
N171	N	0.528549	0.193637	0.000102
N172	N	1.028549	0.693637	0.500102
H173	H	0.504037	0.213791	0.055261
H174	H	1.004037	0.713791	0.555261
H175	H	0.591818	0.194023	-0.000457
H176	H	1.091818	0.694023	0.499543
H177	H	0.846880	-0.736868	0.000012
H178	H	1.346880	-0.236868	0.500012
H179	H	1.206157	-0.494991	0.000034
H180	H	1.706157	0.005009	0.500034
N181	N	1.147037	-0.647646	0.000025
N182	N	1.647037	-0.147646	0.500025
H183	H	1.150881	-0.623303	0.054914
H184	H	1.650881	-0.123303	0.554914
H185	H	1.195002	-0.679806	-0.000003
H186	H	1.695002	-0.179806	0.499997
N187	N	0.563513	0.021222	-0.154677
N188	N	1.063513	0.521222	0.345323
H189	H	0.551465	-0.019955	-0.154600
H190	H	1.051465	0.480045	0.345400
H191	H	0.538299	0.041060	-0.209776
H192	H	1.038299	0.541060	0.290224
N193	N	1.156681	-0.101143	0.000088
N194	N	1.656681	0.398857	0.500088
H195	H	1.189985	-0.114443	-0.054798
H196	H	1.689985	0.385557	0.445202
H197	H	1.145743	-0.057980	0.000129
H198	H	1.645743	0.442020	0.500129
N199	N	1.154508	-0.224605	0.000056
N200	N	1.654508	0.275395	0.500056
H201	H	1.203503	-0.201063	0.000067
H202	H	1.703503	0.298937	0.500067
H203	H	1.157403	-0.249549	0.054943
H204	H	1.657403	0.250451	0.554943
H205	H	0.848781	-0.629111	0.000000
H206	H	1.348781	-0.129111	0.500000
H207	H	0.775125	-0.456824	-0.000024
H208	H	1.275125	0.043176	0.499976
H209	H	0.777034	-0.349067	-0.000019
H210	H	1.277034	0.150933	0.499981
H211	H	0.858437	-0.082597	0.000056
H212	H	1.358437	0.417403	0.500056
N213	N	1.152357	0.101477	0.435965
N214	N	1.652357	0.601477	0.935965
H215	H	1.151820	0.101422	0.368730
H216	H	1.651820	0.601422	0.868730
H217	H	1.164387	0.140205	0.458151
H218	H	1.664387	0.640205	0.958151
H219	H	0.856526	-0.190372	0.000063
H220	H	1.356526	0.309628	0.500063
