data_functionalizedCrystal
_audit_creation_method	'MofGen! by Chris Wilmer'
_symmetry_space_group_name_H-M	'P1'
_symmetry_Int_Tables_number	1
_symmetry_cell_setting	triclinic
loop_
_symmetry_equiv_pos_as_xyz
  x,y,z
_cell_length_a	18.101398
_cell_length_b	18.101395
_cell_length_c	18.101389
_cell_angle_alpha	89.983159
_cell_angle_beta	89.985654
_cell_angle_gamma	90.029256
loop_
_atom_site_label
_atom_site_type_symbol
_atom_site_fract_x
_atom_site_fract_y
_atom_site_fract_z
Zn1	Zn	1.132121	-0.294944	-0.418650
Zn2	Zn	1.632121	0.205056	0.081350
Zn3	Zn	1.132017	-0.418770	-0.294812
Zn4	Zn	1.632017	0.081230	0.205188
Zn5	Zn	1.008280	-0.294942	-0.294832
Zn6	Zn	1.508280	0.205058	0.205168
Zn7	Zn	1.008231	-0.418744	-0.418622
Zn8	Zn	1.508231	0.081256	0.081378
O9	O	1.070162	-0.356850	-0.356729
O10	O	1.570162	0.143150	0.143271
O11	O	1.235740	-0.311381	-0.402225
O12	O	1.735740	0.188619	0.097775
O13	O	1.115580	-0.402354	-0.191181
O14	O	1.615580	0.097646	0.308819
O15	O	1.024772	-0.191310	-0.311277
O16	O	1.524772	0.308690	0.188723
O17	O	1.235663	-0.402355	-0.311242
O18	O	1.735663	0.097645	0.188758
O19	O	1.115757	-0.191311	-0.402245
O20	O	1.615757	0.308689	0.097755
O21	O	1.024671	-0.311378	-0.191197
O22	O	1.524671	0.188622	0.308803
O23	O	0.904640	-0.311354	-0.311250
O24	O	1.404640	0.188646	0.188750
O25	O	1.024688	-0.402312	-0.522258
O26	O	1.524688	0.097688	-0.022258
O27	O	0.904604	-0.402310	-0.402198
O28	O	1.404604	0.097690	0.097802
O29	O	1.115710	-0.311356	-0.522279
O30	O	1.615710	0.188644	-0.022279
O31	O	1.115532	-0.522399	-0.311215
O32	O	1.615532	-0.022399	0.188785
O33	O	1.024587	-0.522380	-0.402178
O34	O	1.524587	-0.022380	0.097822
C35	C	0.877752	-0.356830	-0.356724
C36	C	1.377752	0.143170	0.143276
C37	C	0.795437	-0.356839	-0.356739
C38	C	1.295437	0.143161	0.143261
C39	C	1.070063	-0.549261	-0.356707
C40	C	1.570063	-0.049261	0.143293
C41	C	1.070088	-0.631575	-0.356722
C42	C	1.570088	-0.131575	0.143278
C43	C	0.644729	-0.356852	-0.356738
C44	C	1.144729	0.143148	0.143262
C45	C	0.613377	-0.414168	-0.413871
C46	C	1.113377	0.085832	0.086129
C47	C	0.527759	-0.414400	-0.413702
C48	C	1.027759	0.085600	0.086298
C49	C	0.496346	-0.356866	-0.356738
C50	C	0.996346	0.143134	0.143262
C51	C	0.527399	-0.377679	-0.278597
C52	C	1.027399	0.122321	0.221403
C53	C	0.613044	-0.378087	-0.278927
C54	C	1.113044	0.121913	0.221073
C55	C	0.613208	-0.278582	-0.377064
C56	C	1.113208	0.221418	0.122936
C57	C	0.527558	-0.279011	-0.378785
C58	C	1.027558	0.220989	0.121215
C59	C	0.412487	-0.356873	-0.356733
C60	C	0.912487	0.143127	0.143267
C61	C	0.728588	-0.356848	-0.356737
C62	C	1.228588	0.143152	0.143263
C63	C	1.070251	-0.930665	-0.356762
C64	C	1.570251	-0.430665	0.143238
C65	C	1.013163	-0.899359	-0.414136
C66	C	1.513163	-0.399359	0.085864
C67	C	1.012892	-0.813741	-0.413956
C68	C	1.512892	-0.313741	0.086044
C69	C	1.070170	-0.782283	-0.356743
C70	C	1.570170	-0.282283	0.143257
C71	C	1.049041	-0.813419	-0.278695
C72	C	1.549041	-0.313419	0.221305
C73	C	1.048673	-0.899065	-0.279039
C74	C	1.548673	-0.399065	0.220961
C75	C	1.148593	-0.899015	-0.376750
C76	C	1.648593	-0.399015	0.123250
C77	C	1.148132	-0.813365	-0.378461
C78	C	1.648132	-0.313365	0.121539
C79	C	1.070126	-0.698424	-0.356728
C80	C	1.570126	-0.198424	0.143272
C81	C	1.070293	-1.014525	-0.356773
C82	C	1.570293	-0.514525	0.143227
C83	C	1.263324	-0.356871	-0.356734
C84	C	1.763324	0.143129	0.143266
C85	C	1.345638	-0.356880	-0.356737
C86	C	1.845638	0.143120	0.143263
C87	C	1.070205	-0.356831	-0.549891
C88	C	1.570205	0.143169	-0.049891
C89	C	1.070223	-0.356823	-0.632205
C90	C	1.570223	0.143177	-0.132205
C91	C	1.070282	-0.163688	-0.356767
C92	C	1.570282	0.336312	0.143233
C93	C	1.070333	-0.081374	-0.356783
C94	C	1.570333	0.418626	0.143217
C95	C	1.070266	-0.356684	-0.931296
C96	C	1.570266	0.143316	-0.431296
C97	C	1.012801	-0.413729	-0.899958
C98	C	1.512801	0.086271	-0.399958
C99	C	1.012956	-0.413994	-0.814340
C100	C	1.512956	0.086006	-0.314340
C101	C	1.070244	-0.356753	-0.782913
C102	C	1.570244	0.143247	-0.282913
C103	C	1.148270	-0.377940	-0.814006
C104	C	1.648270	0.122060	-0.314006
C105	C	1.147949	-0.378314	-0.899651
C106	C	1.647949	0.121686	-0.399651
C107	C	1.050385	-0.278326	-0.899722
C108	C	1.550385	0.221674	-0.399722
C109	C	1.048649	-0.278779	-0.814071
C110	C	1.548649	0.221221	-0.314071
C111	C	1.070237	-0.356791	-0.699054
C112	C	1.570237	0.143209	-0.199054
C113	C	1.070279	-0.356649	-1.015156
C114	C	1.570279	0.143351	-0.515156
C115	C	1.070162	-0.356815	-0.164318
C116	C	1.570162	0.143185	0.335682
C117	C	1.070287	-0.356615	-0.082005
C118	C	1.570287	0.143385	0.417995
H119	H	0.506764	-0.401418	-0.471633
H120	H	1.006764	0.098582	0.028367
H121	H	1.165415	-0.434612	-0.792562
H122	H	1.665415	0.065388	-0.292562
H123	H	1.167856	-0.920574	-0.432692
H124	H	1.667856	-0.420574	0.067308
H125	H	0.634834	-0.259564	-0.433084
H126	H	1.134834	0.240436	0.066916
H127	H	0.994478	-0.259024	-0.921317
H128	H	1.494478	0.240976	-0.421317
H129	H	0.633998	-0.401337	-0.471982
H130	H	1.133998	0.098663	0.028018
H131	H	0.992380	-0.792030	-0.261460
H132	H	1.492380	-0.292030	0.238540
H133	H	1.092240	-0.235825	-0.919989
H134	H	1.592240	0.264175	-0.419989
H135	H	0.955448	-0.920942	-0.401063
H136	H	1.455448	-0.420942	0.098937
H137	H	1.164065	-0.793013	-0.435900
H138	H	1.664065	-0.293013	0.064100
H139	H	0.507265	-0.263310	-0.436293
H140	H	1.007265	0.236690	0.063707
H141	H	1.026082	-0.472075	-0.793856
H142	H	1.526082	0.027925	-0.293856
H143	H	0.991229	-0.262802	-0.793749
H144	H	1.491229	0.237198	-0.293749
H145	H	0.506177	-0.234054	-0.340239
H146	H	1.006177	0.265946	0.159761
H147	H	1.026251	-0.919918	-0.472195
H148	H	1.526251	-0.419918	0.027805
H149	H	1.088449	-0.919775	-0.234834
H150	H	1.588449	-0.419775	0.265166
H151	H	1.026111	-0.792688	-0.471828
H152	H	1.526111	-0.292688	0.028172
H153	H	1.087450	-0.234021	-0.792679
H154	H	1.587450	0.265979	-0.292679
H155	H	0.954823	-0.793314	-0.400717
H156	H	1.454823	-0.293314	0.099283
H157	H	0.505920	-0.434260	-0.261125
H158	H	1.005920	0.065740	0.238875
H159	H	1.025796	-0.471456	-0.921483
H160	H	1.525796	0.028544	-0.421483
H161	H	0.633485	-0.235882	-0.335455
H162	H	1.133485	0.264118	0.164545
H163	H	0.634865	-0.471838	-0.400549
H164	H	1.134865	0.028162	0.099451
H165	H	0.991406	-0.919103	-0.262107
H166	H	1.491406	-0.419103	0.237893
H167	H	1.192236	-0.337697	-0.793651
H168	H	1.692236	0.162303	-0.293651
H169	H	0.507237	-0.472403	-0.400217
H170	H	1.007237	0.027597	0.099783
H171	H	0.632986	-0.435292	-0.261748
H172	H	1.132986	0.064708	0.238252
H173	H	0.633784	-0.338125	-0.234898
H174	H	1.133784	0.161875	0.265102
H175	H	1.164804	-0.435595	-0.919633
H176	H	1.664804	0.064405	-0.419633
H177	H	1.089313	-0.793042	-0.234783
H178	H	1.589313	-0.293042	0.265217
H179	H	0.507053	-0.337213	-0.234859
H180	H	1.007053	0.162787	0.265141
H181	H	1.191125	-0.919259	-0.334963
H182	H	1.691125	-0.419259	0.165037
H183	H	1.192915	-0.791947	-0.339719
H184	H	1.692915	-0.291947	0.160281
H185	H	0.955097	-0.400735	-0.793317
H186	H	1.455097	0.099265	-0.293317
H187	H	0.954768	-0.400607	-0.920554
H188	H	1.454768	0.099393	-0.420554
H189	H	1.192217	-0.338569	-0.920383
H190	H	1.692217	0.161431	-0.420383
