data_functionalizedCrystal
_audit_creation_method	'MofGen! by Chris Wilmer'
_symmetry_space_group_name_H-M	'P1'
_symmetry_Int_Tables_number	1
_symmetry_cell_setting	triclinic
loop_
_symmetry_equiv_pos_as_xyz
  x,y,z
_cell_length_a	14.044220
_cell_length_b	15.186229
_cell_length_c	16.109301
_cell_angle_alpha	89.992751
_cell_angle_beta	91.674821
_cell_angle_gamma	89.995422
loop_
_atom_site_label
_atom_site_type_symbol
_atom_site_fract_x
_atom_site_fract_y
_atom_site_fract_z
O1	O	1.257639	0.073140	-0.200438
O2	O	1.590972	0.406474	0.132895
O3	O	1.924306	0.739807	0.466228
O4	O	0.981672	0.073163	-0.193205
O5	O	1.315005	0.406496	0.140128
O6	O	1.648339	0.739829	0.473461
O7	O	1.127237	0.073142	-0.076355
O8	O	1.460570	0.406475	0.256978
O9	O	1.793903	0.739809	0.590312
O10	O	1.112074	0.073161	-0.317289
O11	O	1.445408	0.406494	0.016045
O12	O	1.778741	0.739828	0.349378
O13	O	1.127235	-0.073315	-0.076347
O14	O	1.460569	0.260018	0.256986
O15	O	1.793902	0.593351	0.590320
O16	O	0.981671	-0.073295	-0.193198
O17	O	1.315004	0.260039	0.140136
O18	O	1.648338	0.593372	0.473469
O19	O	1.257638	-0.073317	-0.200431
O20	O	1.590971	0.260016	0.132903
O21	O	1.924305	0.593350	0.466236
Zn22	Zn	1.119654	-0.096559	-0.196813
Zn23	Zn	1.452988	0.236774	0.136520
Zn24	Zn	1.786321	0.570108	0.469854
Zn25	Zn	1.119656	0.096405	-0.196823
Zn26	Zn	1.452989	0.429738	0.136510
Zn27	Zn	1.786322	0.763071	0.469844
O28	O	1.112073	-0.073296	-0.317281
O29	O	1.445407	0.260037	0.016052
O30	O	1.778740	0.593370	0.349386
C31	C	0.946358	-0.000063	-0.190036
C32	C	1.279691	0.333270	0.143298
C33	C	1.613025	0.666603	0.476631
C34	C	0.841135	-0.000055	-0.180592
C35	C	1.174468	0.333278	0.152742
C36	C	1.507802	0.666611	0.486075
N37	N	1.119660	-0.228252	-0.196806
N38	N	1.452993	0.105082	0.136527
N39	N	1.786327	0.438415	0.469861
N40	N	1.119657	0.228097	-0.196824
N41	N	1.452991	0.561431	0.136509
N42	N	1.786324	0.894764	0.469843
C43	C	0.648479	-0.000074	-0.163326
C44	C	0.981812	0.333259	0.170007
C45	C	1.315146	0.666593	0.503340
C46	C	0.590825	-0.000072	-0.230306
C47	C	0.924159	0.333261	0.103028
C48	C	1.257492	0.666594	0.436361
C49	C	0.483625	-0.000083	-0.220699
C50	C	0.816958	0.333250	0.112634
C51	C	1.150291	0.666584	0.445968
C52	C	0.755690	-0.000064	-0.172932
C53	C	1.089023	0.333270	0.160402
C54	C	1.422356	0.666603	0.493735
C55	C	1.292952	-0.000089	-0.203600
C56	C	1.626285	0.333244	0.129733
C57	C	1.959619	0.666578	0.463066
C58	C	1.398175	-0.000091	-0.213044
C59	C	1.731508	0.333242	0.120289
C60	C	2.064841	0.666575	0.453622
C61	C	1.126622	-0.000087	-0.045330
C62	C	1.459955	0.333246	0.288003
C63	C	1.793289	0.666580	0.621336
C64	C	1.124781	-0.000088	0.047102
C65	C	1.458114	0.333245	0.380435
C66	C	1.791447	0.666578	0.713769
C67	C	1.184238	0.453811	-0.145201
C68	C	1.517571	0.787144	0.188132
C69	C	1.850904	1.120478	0.521466
C70	C	1.184240	0.546001	-0.145199
C71	C	1.517574	0.879334	0.188134
C72	C	1.850907	1.212667	0.521468
C73	C	1.055077	0.546028	-0.248435
C74	C	1.388410	0.879361	0.084899
C75	C	1.721743	1.212695	0.418232
C76	C	1.055079	0.453840	-0.248440
C77	C	1.388413	0.787173	0.084893
C78	C	1.721746	1.120507	0.418226
C79	C	1.119659	0.407734	-0.196819
C80	C	1.452992	0.741067	0.136515
C81	C	1.786325	1.074401	0.469848
C82	C	1.119659	0.592112	-0.196811
C83	C	1.452992	0.925445	0.136522
C84	C	1.786325	1.258778	0.469856
C85	C	1.119661	0.692068	-0.196809
C86	C	1.452995	1.025401	0.136524
C87	C	1.786328	1.358734	0.469857
C88	C	1.119658	0.307772	-0.196821
C89	C	1.452991	0.641105	0.136512
C90	C	1.786324	0.974438	0.469845
C91	C	1.112688	-0.000065	-0.348306
C92	C	1.446021	0.333268	-0.014972
C93	C	1.779355	0.666601	0.318361
C94	C	1.114529	-0.000058	-0.440738
C95	C	1.447863	0.333275	-0.107404
C96	C	1.781196	0.666608	0.225929
C97	C	1.206874	-0.000081	0.263266
C98	C	1.540207	0.333252	0.596600
C99	C	1.873541	0.666586	0.929933
C100	C	1.205137	-0.000073	0.350116
C101	C	1.538470	0.333260	0.683449
C102	C	1.871803	0.666593	1.016783
C103	C	1.032429	-0.000063	0.343091
C104	C	1.365763	0.333270	0.676425
C105	C	1.699096	0.666604	1.009758
C106	C	1.034168	-0.000064	0.256243
C107	C	1.367501	0.333269	0.589577
C108	C	1.700834	0.666602	0.922910
C109	C	1.121393	-0.000078	0.216333
C110	C	1.454726	0.333256	0.549666
C111	C	1.788060	0.666589	0.883000
C112	C	1.117917	-0.000069	0.390031
C113	C	1.451250	0.333264	0.723364
C114	C	1.784584	0.666598	1.056698
C115	C	1.116032	-0.000061	0.484197
C116	C	1.449366	0.333272	0.817530
C117	C	1.782699	0.666606	1.150864
C118	C	1.123278	-0.000084	0.122161
C119	C	1.456611	0.333249	0.455494
C120	C	1.789945	0.666583	0.788828
H121	H	0.621976	-0.000063	-0.294863
H122	H	0.955310	0.333270	0.038470
H123	H	1.288643	0.666604	0.371803
H124	H	0.617330	-0.000084	-0.098774
H125	H	0.950663	0.333249	0.234559
H126	H	1.283996	0.666583	0.567893
Br127	Br	1.271883	0.391242	-0.075145
Br128	Br	1.605216	0.724575	0.258188
Br129	Br	1.938549	1.057908	0.591521
Br130	Br	1.271892	0.608531	-0.075148
Br131	Br	1.605225	0.941864	0.258186
Br132	Br	1.938558	1.275198	0.591519
Br133	Br	0.967435	0.608604	-0.318488
Br134	Br	1.300768	0.941937	0.014845
Br135	Br	1.634101	1.275270	0.348179
Br136	Br	0.967438	0.391299	-0.318505
Br137	Br	1.300771	0.724633	0.014829
Br138	Br	1.634104	1.057966	0.348162
H139	H	1.277898	-0.000090	0.230774
H140	H	1.611232	0.333243	0.564108
H141	H	1.944565	0.666577	0.897441
H142	H	1.274744	-0.000074	0.388326
H143	H	1.608077	0.333259	0.721659
H144	H	1.941411	0.666592	1.054992
Br145	Br	0.914058	-0.000042	0.397260
Br146	Br	1.247391	0.333291	0.730594
Br147	Br	1.580724	0.666624	1.063927
Br148	Br	0.918149	-0.000048	0.192542
Br149	Br	1.251482	0.333286	0.525875
Br150	Br	1.584816	0.666619	0.859209
