data_functionalizedCrystal
_audit_creation_method	'MofGen! by Chris Wilmer'
_symmetry_space_group_name_H-M	'P1'
_symmetry_Int_Tables_number	1
_symmetry_cell_setting	triclinic
loop_
_symmetry_equiv_pos_as_xyz
  x,y,z
_cell_length_a	15.944545
_cell_length_b	15.944499
_cell_length_c	7.540329
_cell_angle_alpha	89.999656
_cell_angle_beta	89.999825
_cell_angle_gamma	83.486891
loop_
_atom_site_label
_atom_site_type_symbol
_atom_site_fract_x
_atom_site_fract_y
_atom_site_fract_z
O1	O	1.114506	0.108308	-0.147355
O2	O	0.869953	0.121670	-0.147382
O3	O	0.998930	-0.007289	-0.147370
O4	O	0.985528	0.237267	-0.147366
O5	O	0.998922	-0.007290	0.147595
O6	O	0.869945	0.121669	0.147583
O7	O	1.114498	0.108307	0.147610
Cu8	Cu	0.992221	0.114988	0.174529
Cu9	Cu	0.992230	0.114990	-0.174301
O10	O	0.985521	0.237266	0.147599
C11	C	0.998377	-0.038584	0.000107
C12	C	0.996733	-0.131832	0.000094
C13	C	0.838655	0.121116	0.000097
C14	C	0.745409	0.119456	0.000086
C15	C	1.071665	-0.423370	0.000112
C16	C	1.032709	-0.362345	0.145547
C17	C	0.990756	-0.467469	0.000114
C18	C	1.032695	-0.362349	-0.145265
C19	C	0.993697	-0.302560	0.000101
C20	C	0.951778	-0.407671	0.145669
C21	C	0.951776	-0.407683	-0.145274
C22	C	0.912761	-0.346675	0.000197
C23	C	0.989065	-0.562469	0.000123
C24	C	0.995382	-0.207561	0.000105
C25	C	0.474792	0.034560	0.000103
C26	C	0.525362	0.075489	0.145542
C27	C	0.409766	0.113535	0.000116
C28	C	0.525350	0.075512	-0.145271
C29	C	0.574679	0.116440	0.000099
C30	C	0.459108	0.154443	0.145675
C31	C	0.459093	0.154454	-0.145268
C32	C	0.509630	0.195441	0.000205
C33	C	0.314764	0.111859	0.000128
C34	C	0.669678	0.118121	0.000099
C35	C	1.145796	0.108861	0.000128
C36	C	1.239042	0.110522	0.000127
C37	C	0.986073	0.268561	0.000117
C38	C	0.987718	0.361810	0.000119
N39	N	0.992221	0.114986	0.419878
N40	N	0.992237	0.114985	-0.419649
H41	H	1.138811	-0.456701	0.000259
H42	H	0.430144	0.187779	-0.268228
H43	H	0.554277	0.042146	-0.268220
H44	H	0.845557	-0.313491	0.000274
Cl45	Cl	1.085542	-0.331318	0.335375
Cl46	Cl	0.898985	-0.438517	0.335707
Cl47	Cl	0.414620	0.205897	0.335718
Cl48	Cl	0.898988	-0.438738	-0.335123
H49	H	1.066934	-0.342269	-0.268208
H50	H	0.459151	-0.033454	0.000244
Cl51	Cl	0.570033	0.023996	0.335378
Cl52	Cl	0.533529	0.300530	0.000326
