data_functionalizedCrystal
_audit_creation_method	'MofGen! by Chris Wilmer'
_symmetry_space_group_name_H-M	'P1'
_symmetry_Int_Tables_number	1
_symmetry_cell_setting	triclinic
loop_
_symmetry_equiv_pos_as_xyz
  x,y,z
_cell_length_a	10.654550
_cell_length_b	10.489741
_cell_length_c	9.130313
_cell_angle_alpha	89.999004
_cell_angle_beta	89.996220
_cell_angle_gamma	84.512038
loop_
_atom_site_label
_atom_site_type_symbol
_atom_site_fract_x
_atom_site_fract_y
_atom_site_fract_z
O1	O	1.667918	0.179156	-0.121919
O2	O	1.302447	0.196226	-0.121895
O3	O	1.493499	0.002089	-0.121899
O4	O	1.476867	0.373293	-0.121915
O5	O	1.493497	0.002094	0.121700
O6	O	1.302445	0.196231	0.121703
O7	O	1.667916	0.179161	0.121680
Cu8	Cu	1.485180	0.187697	0.143934
Cu9	Cu	1.485183	0.187690	-0.144150
O10	O	1.476864	0.373298	0.121683
C11	C	1.255648	0.194975	-0.000093
C12	C	1.116203	0.191225	-0.000084
C13	C	1.492241	-0.045439	-0.000100
C14	C	1.488483	-0.187067	-0.000103
C15	C	1.036771	0.305530	-0.000110
C16	C	0.905748	0.301999	-0.000135
C17	C	0.933603	0.069849	-0.000114
C18	C	1.064623	0.073381	-0.000078
C19	C	1.088351	0.423374	-0.000116
C20	C	1.008917	0.537688	-0.000144
C21	C	0.877895	0.534157	-0.000169
C22	C	0.826306	0.416312	-0.000166
C23	C	1.366923	-0.255148	-0.000106
C24	C	1.424346	-0.347296	0.119997
C25	C	1.424377	-0.347276	-0.120172
C26	C	1.545956	-0.277349	0.120099
C27	C	1.545970	-0.277320	-0.120178
C28	C	1.603481	-0.369440	-0.000045
C29	C	1.714715	0.180412	-0.000126
C30	C	1.854160	0.184162	-0.000145
C31	C	1.478122	0.420826	-0.000118
C32	C	1.481880	0.562454	-0.000126
N33	N	1.485187	0.187700	0.346557
N34	N	1.485186	0.187677	-0.346772
C35	C	1.569807	0.101766	0.423207
C36	C	1.569803	0.101751	0.576544
C37	C	1.400557	0.273615	0.576567
C38	C	1.400555	0.273623	0.423232
C39	C	1.654439	0.015843	0.346531
C40	C	1.739066	-0.070097	0.423182
C41	C	1.739063	-0.070112	0.576519
C42	C	1.654432	0.015812	0.653205
H43	H	1.195034	0.426262	-0.000102
H44	H	1.331655	0.343573	0.639014
C45	C	1.615398	-0.235410	-0.257369
N46	N	1.667682	-0.203841	-0.360714
C47	C	1.354866	-0.389094	-0.257345
N48	N	1.302502	-0.420586	-0.360659
H49	H	0.891588	-0.026095	-0.000136
C50	C	1.832138	-0.164625	0.338824
N51	N	1.902239	-0.235830	0.275288
C52	C	1.231905	-0.187996	0.000069
N53	N	1.130214	-0.137412	0.000209
C54	C	1.065668	0.667310	-0.000138
N55	N	1.108411	0.764944	-0.000133
C56	C	0.790522	0.659903	-0.000181
N57	N	0.724714	0.754619	-0.000193
H58	H	1.703518	-0.418912	0.000015
C59	C	1.615376	-0.235731	0.257431
N60	N	1.667657	-0.204380	0.360871
C61	C	1.654448	0.015849	0.177858
N62	N	1.654453	0.015855	0.050813
C63	C	1.307442	0.368127	0.338912
N64	N	1.237293	0.439297	0.275402
C65	C	0.682175	0.412435	-0.000188
N66	N	0.573618	0.409516	-0.000213
H67	H	1.654428	0.015784	0.778062
C68	C	1.354857	-0.389162	0.257176
N69	N	1.302511	-0.420691	0.360494
C70	C	1.832136	-0.164665	0.660830
N71	N	1.902242	-0.235885	0.724330
H72	H	1.129299	-0.019696	-0.000061
