data_functionalizedCrystal
_audit_creation_method	'MofGen! by Chris Wilmer'
_symmetry_space_group_name_H-M	'P1'
_symmetry_Int_Tables_number	1
_symmetry_cell_setting	triclinic
loop_
_symmetry_equiv_pos_as_xyz
  x,y,z
_cell_length_a	19.121725
_cell_length_b	16.120566
_cell_length_c	16.120297
_cell_angle_alpha	89.874982
_cell_angle_beta	95.429393
_cell_angle_gamma	95.185145
loop_
_atom_site_label
_atom_site_type_symbol
_atom_site_fract_x
_atom_site_fract_y
_atom_site_fract_z
Zn1	Zn	-0.357336	-1.264532	-0.553588
Zn2	Zn	-0.469621	-1.276854	-0.420487
Zn3	Zn	-0.345418	-1.131952	-0.406866
Zn4	Zn	-0.468972	-1.130780	-0.552414
O5	O	-0.410337	-1.201030	-0.483339
O6	O	-0.377490	-1.382784	-0.542123
O7	O	-0.448429	-1.263280	-0.302065
O8	O	-0.248299	-1.144873	-0.421120
O9	O	-0.459985	-1.391837	-0.444334
O10	O	-0.257056	-1.242279	-0.528916
O11	O	-0.357177	-1.156822	-0.292058
O12	O	-0.356548	-1.015179	-0.419982
O13	O	-0.458880	-1.142875	-0.669185
O14	O	-0.447323	-1.014318	-0.526915
O15	O	-0.376861	-1.241142	-0.670047
O16	O	-0.568234	-1.262144	-0.443196
O17	O	-0.567758	-1.154824	-0.540122
C18	C	-0.400573	-0.984511	-0.471844
C19	C	-0.396413	-0.891883	-0.466947
C20	C	-0.593589	-1.209715	-0.493029
C21	C	-0.671990	-1.213506	-0.497207
C22	C	-0.388803	-0.722290	-0.458012
C23	C	-0.431931	-0.680612	-0.508675
C24	C	-0.427697	-0.586245	-0.503704
C25	C	-0.393037	-0.816666	-0.462982
C26	C	-0.704327	-1.164623	-0.443014
C27	C	-0.777994	-1.168193	-0.446943
C28	C	-0.819322	-1.220642	-0.505070
C29	C	-0.786979	-1.269530	-0.559265
C30	C	-0.713314	-1.265964	-0.555331
C31	C	-1.041967	-1.233948	-0.519754
C32	C	-1.115637	-1.237508	-0.523685
C33	C	-1.106647	-1.136172	-0.411362
C34	C	-1.032981	-1.132607	-0.407436
C35	C	-1.000645	-1.181498	-0.461629
C36	C	-0.894621	-1.224290	-0.509089
C37	C	-0.925347	-1.177854	-0.457604
C38	C	-0.226370	-1.192332	-0.473630
C39	C	-0.147975	-1.188626	-0.469492
C40	C	-0.419127	-1.190503	-0.700698
C41	C	-0.422874	-1.186017	-0.793324
C42	C	-0.420141	-0.418395	-0.494865
C43	C	-0.424323	-0.511024	-0.499743
C44	C	-0.429696	-1.177796	-0.962910
C45	C	-0.390774	-1.224418	-1.004616
C46	C	-0.394570	-1.219843	-1.098980
C47	C	-0.425901	-1.182369	-0.868538
C48	C	-0.401531	-1.211561	-0.266824
C49	C	-0.397594	-1.216199	-0.174197
H50	H	-0.472032	-0.715803	-0.555782
O51	O	-0.335689	-0.675680	-0.395615
H52	H	-0.304743	-0.720766	-0.359268
O53	O	-0.659753	-1.108059	-0.380315
H54	H	-0.694619	-1.074676	-0.343285
O55	O	-0.477609	-1.120377	-1.009484
H56	H	-0.532953	-1.138075	-0.996527
O57	O	-0.342867	-1.281852	-0.958043
H58	H	-0.287519	-1.264159	-0.970989
O59	O	-0.812875	-1.115467	-0.388496
H60	H	-0.771762	-1.078388	-0.347425
O61	O	-0.988405	-1.076052	-0.344729
H62	H	-1.023268	-1.042669	-0.307696
H63	H	-1.132983	-1.096368	-0.367241
H64	H	-1.015645	-1.273756	-0.563880
O65	O	-1.160217	-1.294087	-0.586375
H66	H	-1.125357	-1.327493	-0.623392
H67	H	-0.686986	-1.305771	-0.599459
O68	O	-0.831554	-1.326092	-0.621966
H69	H	-0.865511	-1.371945	-0.588751
O70	O	-0.880779	-1.121286	-0.394908
H71	H	-0.846835	-1.075429	-0.428132
O72	O	-0.939201	-1.280844	-0.571794
H73	H	-0.973155	-1.326697	-0.538577
