data_functionalizedCrystal
_audit_creation_method	'MofGen! by Chris Wilmer'
_symmetry_space_group_name_H-M	'P1'
_symmetry_Int_Tables_number	1
_symmetry_cell_setting	triclinic
loop_
_symmetry_equiv_pos_as_xyz
  x,y,z
_cell_length_a	14.971491
_cell_length_b	10.654550
_cell_length_c	14.048226
_cell_angle_alpha	89.999325
_cell_angle_beta	90.006698
_cell_angle_gamma	95.949418
loop_
_atom_site_label
_atom_site_type_symbol
_atom_site_fract_x
_atom_site_fract_y
_atom_site_fract_z
O1	O	1.187833	-0.163685	0.079195
O2	O	1.687833	0.336315	0.579195
O3	O	0.927540	-0.183277	0.079187
O4	O	1.427540	0.316723	0.579187
O5	O	1.063671	0.009322	0.079192
O6	O	1.563671	0.509322	0.579192
O7	O	1.051702	-0.356284	0.079190
O8	O	1.551702	0.143716	0.579190
O9	O	1.063658	0.009324	-0.079129
O10	O	1.563658	0.509324	0.420871
O11	O	0.927527	-0.183275	-0.079134
O12	O	1.427527	0.316725	0.420866
O13	O	1.187820	-0.163683	-0.079126
O14	O	1.687820	0.336317	0.420874
Zn15	Zn	1.057672	-0.173479	-0.104267
Zn16	Zn	1.557672	0.326521	0.395733
Zn17	Zn	1.057689	-0.173481	0.104328
Zn18	Zn	1.557689	0.326519	0.604328
O19	O	1.051689	-0.356282	-0.079131
O20	O	1.551689	0.143718	0.420869
C21	C	0.894204	-0.182399	0.000026
C22	C	1.394204	0.317601	0.500026
C23	C	0.794893	-0.179769	0.000023
C24	C	1.294893	0.320231	0.500023
C25	C	0.367133	-0.168425	0.086346
C26	C	0.867133	0.331575	0.586346
C27	C	0.460447	-0.170892	0.086343
C28	C	0.960447	0.329108	0.586343
C29	C	0.507092	-0.172133	0.000038
C30	C	1.007092	0.327867	0.500038
C31	C	0.460420	-0.170894	-0.086268
C32	C	0.960420	0.329106	0.413732
C33	C	0.367109	-0.168418	-0.086263
C34	C	0.867109	0.331582	0.413737
C35	C	0.654910	-0.176056	-0.086272
C36	C	1.154910	0.323944	0.413728
C37	C	0.748227	-0.178534	-0.086277
C38	C	1.248227	0.321466	0.413723
C39	C	0.748248	-0.178530	0.086334
C40	C	1.248248	0.321470	0.586334
C41	C	0.654937	-0.176055	0.086339
C42	C	1.154937	0.323945	0.586339
C43	C	0.608271	-0.174818	0.000032
C44	C	1.108271	0.325182	0.500032
C45	C	1.062786	0.056112	0.000034
C46	C	1.562786	0.556112	0.500034
C47	C	1.060157	0.195527	0.000040
C48	C	1.560157	0.695527	0.500040
C49	C	1.221156	-0.164561	0.000037
C50	C	1.721156	0.335439	0.500037
C51	C	1.320467	-0.167191	0.000046
C52	C	1.820467	0.332809	0.500046
C53	C	1.052574	-0.403072	0.000030
C54	C	1.552574	0.096928	0.500030
C55	C	1.055204	-0.542487	0.000029
C56	C	1.555204	-0.042487	0.500029
C57	C	1.056448	0.392027	0.086334
C58	C	1.556448	0.892027	0.586334
C59	C	1.058928	0.261033	0.086340
C60	C	1.558928	0.761033	0.586340
C61	C	1.058914	0.261023	-0.086271
C62	C	1.558914	0.761023	0.413729
C63	C	1.056441	0.392015	-0.086276
C64	C	1.556441	0.892015	0.413724
N65	N	1.057666	-0.173477	-0.246628
N66	N	1.557666	0.326523	0.253372
C67	C	1.112384	-0.249774	-0.296440
C68	C	1.612384	0.250226	0.203560
C69	C	1.112395	-0.249769	-0.396098
C70	C	1.612395	0.250231	0.103902
C71	C	1.057684	-0.173472	-0.445941
C72	C	1.557684	0.326528	0.054059
C73	C	1.002964	-0.097166	-0.396122
C74	C	1.502964	0.402834	0.103878
C75	C	1.002958	-0.097165	-0.296466
C76	C	1.502958	0.402835	0.203534
C77	C	1.002979	-0.097174	-0.603836
C78	C	1.502979	0.402826	-0.103836
C79	C	1.002984	-0.097176	-0.703499
C80	C	1.502984	0.402824	-0.203499
C81	C	1.112416	-0.249778	-0.703468
C82	C	1.612416	0.250222	-0.203468
C83	C	1.112410	-0.249777	-0.603812
C84	C	1.612410	0.250223	-0.103812
C85	C	1.057689	-0.173473	-0.553999
C86	C	1.557689	0.326527	-0.053999
N87	N	1.057701	-0.173473	0.246689
N88	N	1.557701	0.326527	0.746689
H89	H	0.498439	-0.171890	0.156616
H90	H	0.998439	0.328110	0.656616
Cl91	Cl	1.181167	-0.345698	-0.233790
Cl92	Cl	1.681167	0.154302	0.266210
H93	H	0.498407	-0.171896	-0.156539
H94	H	0.998407	0.328104	0.343461
Cl95	Cl	0.596297	-0.174506	0.194837
Cl96	Cl	1.096297	0.325494	0.694837
H97	H	0.958421	-0.035037	-0.436712
H98	H	1.458421	0.464963	0.063288
Cl99	Cl	1.181170	-0.345724	-0.541153
Cl100	Cl	1.681170	0.154276	-0.041153
H101	H	0.958420	-0.035037	-0.563281
H102	H	1.458420	0.464963	-0.063281
Cl103	Cl	0.308444	-0.166854	-0.194759
Cl104	Cl	0.808444	0.333146	0.305241
H105	H	0.958401	-0.035036	-0.255910
H106	H	1.458401	0.464964	0.244090
H107	H	1.059943	0.207720	0.156617
H108	H	1.559943	0.707720	0.656617
H109	H	1.055430	0.445336	-0.156560
H110	H	1.555430	0.945336	0.343440
H111	H	1.059921	0.207678	-0.156537
H112	H	1.559921	0.707678	0.343463
H113	H	1.055440	0.445351	0.156609
H114	H	1.555440	0.945351	0.656609
H115	H	0.786247	-0.179539	0.156608
H116	H	1.286247	0.320461	0.656608
H117	H	1.156953	-0.311895	-0.436651
H118	H	1.656953	0.188105	0.063349
Cl119	Cl	0.806867	-0.180084	-0.194775
Cl120	Cl	1.306867	0.319916	0.305225
H121	H	0.616916	-0.175065	-0.156552
H122	H	1.116916	0.324935	0.343448
Cl123	Cl	1.181212	-0.345698	-0.766089
Cl124	Cl	1.681212	0.154302	-0.266089
H125	H	0.329160	-0.167424	0.156625
H126	H	0.829160	0.332576	0.656625
Cl127	Cl	0.934208	-0.001250	-0.766158
Cl128	Cl	1.434208	0.498750	-0.266158
