data_functionalizedCrystal
_audit_creation_method	'MofGen! by Chris Wilmer'
_symmetry_space_group_name_H-M	'P1'
_symmetry_Int_Tables_number	1
_symmetry_cell_setting	triclinic
loop_
_symmetry_equiv_pos_as_xyz
  x,y,z
_cell_length_a	27.440280
_cell_length_b	27.440280
_cell_length_c	27.440280
_cell_angle_alpha	119.994654
_cell_angle_beta	89.999642
_cell_angle_gamma	60.000166
loop_
_atom_site_label
_atom_site_type_symbol
_atom_site_fract_x
_atom_site_fract_y
_atom_site_fract_z
Zr1	Zr	0.469563	0.533336	0.063960
O2	O	0.391756	0.634997	0.141766
O3	O	0.493407	0.431675	0.040110
O4	O	0.493416	0.533325	0.141771
O5	O	0.391749	0.533356	-0.040089
O6	O	0.573618	0.533317	0.141774
O7	O	0.391746	0.533347	0.040105
O8	O	0.573601	0.351484	-0.040080
O9	O	0.391766	0.715189	0.141765
O10	O	0.563440	0.473485	0.029939
O11	O	0.503588	0.473497	-0.029911
O12	O	0.503600	0.593177	0.089782
O13	O	0.443748	0.593190	0.029933
Zr14	Zr	0.597481	0.533339	-0.063934
Zr15	Zr	0.597476	0.533324	0.063965
Zr16	Zr	0.469568	0.533351	-0.063939
Zr17	Zr	0.469580	0.661234	0.063959
Zr18	Zr	0.597464	0.405441	-0.063933
O19	O	0.573637	0.635000	-0.040083
O20	O	0.573631	0.634979	0.141773
O21	O	0.391762	0.635018	-0.040090
O22	O	0.675288	0.431679	-0.141740
O23	O	0.675282	0.431658	0.040116
O24	O	0.493413	0.431697	-0.141747
O25	O	0.675295	0.533319	0.040115
O26	O	0.573628	0.533350	-0.141745
O27	O	0.493426	0.533358	-0.141748
O28	O	0.675298	0.533329	-0.040078
O29	O	0.493440	0.715179	0.141769
O30	O	0.573604	0.351496	-0.141743
O31	O	0.675278	0.351486	-0.141739
O32	O	0.675275	0.351475	-0.040076
O33	O	0.391769	0.715201	0.040103
O34	O	0.493443	0.715191	0.040106
O35	O	0.563444	0.473499	-0.089756
O36	O	0.623296	0.473486	-0.029907
O37	O	0.563456	0.593178	0.029937
O38	O	0.503604	0.593191	-0.029912
C39	C	0.533501	0.373357	0.000015
C40	C	0.533494	0.319061	0.000016
C41	C	0.373522	0.533353	0.000007
C42	C	0.319220	0.533359	0.000005
C43	C	0.564781	-0.017687	0.031249
C44	C	0.564786	-0.068711	0.031247
O45	O	0.591375	-0.095123	0.057798
N46	N	0.533544	-0.094221	0.000007
C47	C	0.502298	-0.068709	-0.031238
O48	O	0.475725	-0.095092	-0.057810
C49	C	0.502297	-0.017689	-0.031239
C50	C	0.533537	0.007823	0.000008
C51	C	0.596018	0.007824	0.062492
C52	C	0.596012	0.058845	0.062495
C53	C	0.564768	0.084355	0.031254
C54	C	0.533530	0.058844	0.000010
C55	C	0.471056	0.007819	-0.062487
C56	C	0.471057	0.058841	-0.062486
C57	C	0.502297	0.084353	-0.031240
C58	C	0.502279	0.135375	-0.031229
N59	N	0.533522	0.160885	0.000011
C60	C	0.564766	0.135375	0.031252
C61	C	0.502305	-0.175854	-0.031233
C62	C	0.502303	-0.226869	-0.031228
C63	C	0.564791	-0.226869	0.031256
C64	C	0.564790	-0.175849	0.031254
C65	C	0.533548	-0.150344	0.000007
C66	C	0.564750	0.242523	0.031255
C67	C	0.564739	0.293551	0.031257
C68	C	0.502253	0.293544	-0.031229
C69	C	0.502261	0.242524	-0.031229
C70	C	0.533514	0.217013	0.000015
O71	O	0.475707	0.161818	-0.057768
O72	O	0.591341	0.161758	0.057814
C73	C	-0.017479	0.533317	0.044193
C74	C	-0.068497	0.533312	0.044194
O75	O	-0.094873	0.533282	0.081754
N76	N	-0.094013	0.533319	0.000015
C77	C	-0.068506	0.533323	-0.044170
O78	O	-0.094894	0.533327	-0.081748
C79	C	-0.017486	0.533323	-0.044172
C80	C	0.008024	0.533324	0.000012
C81	C	0.008032	0.533317	0.088374
C82	C	0.059045	0.533323	0.088374
C83	C	0.084548	0.533330	0.044193
C84	C	0.059038	0.533330	0.000013
C85	C	0.008023	0.533322	-0.088360
C86	C	0.059046	0.533322	-0.088358
C87	C	0.084556	0.533322	-0.044173
C88	C	0.135555	0.533342	-0.044168
N89	N	0.161071	0.533336	0.000010
C90	C	0.135568	0.533330	0.044191
C91	C	-0.175649	0.533322	-0.044163
C92	C	-0.226670	0.533327	-0.044158
C93	C	-0.226657	0.533315	0.044205
C94	C	-0.175638	0.533315	0.044203
C95	C	-0.150133	0.533315	0.000016
C96	C	0.242700	0.533343	0.044188
C97	C	0.293717	0.533352	0.044186
C98	C	0.293702	0.533361	-0.044179
C99	C	0.242687	0.533355	-0.044175
C100	C	0.217189	0.533344	0.000012
O101	O	0.161965	0.533370	-0.081711
O102	O	0.161967	0.533316	0.081758
C103	C	0.693522	0.533322	0.000019
C104	C	0.747824	0.533317	0.000021
C105	C	0.533517	0.533319	0.159996
C106	C	0.533515	0.533313	0.214292
C107	C	0.533543	0.693318	0.000011
C108	C	0.533550	0.747614	0.000011
C109	C	0.502281	0.595827	0.582264
C110	C	0.502282	0.595831	0.633286
O111	O	0.475735	0.648966	0.686241
N112	N	0.533516	0.533354	0.627566
C113	C	0.564757	0.470868	0.570818
O114	O	0.591325	0.417727	0.570638
C115	C	0.564759	0.470865	0.519798
C116	C	0.533518	0.533347	0.525523
C117	C	0.471043	0.658304	0.587987
C118	C	0.471041	0.658300	0.536968
C119	C	0.502278	0.595819	0.480226
C120	C	0.533516	0.533343	0.474504
C121	C	0.596003	0.408381	0.463051
C122	C	0.596003	0.408383	0.412030
C123	C	0.564762	0.470864	0.417755
C124	C	0.564752	0.470858	0.366743
N125	N	0.533517	0.533336	0.372464
C126	C	0.502280	0.595816	0.429205
C127	C	0.564751	0.470880	0.677968
C128	C	0.564745	0.470882	0.728988
C129	C	0.502271	0.595845	0.791453
C130	C	0.502273	0.595842	0.740432
C131	C	0.533516	0.533357	0.683689
C132	C	0.502279	0.595803	0.322060
C133	C	0.502278	0.595793	0.271034
C134	C	0.564755	0.470831	0.208574
C135	C	0.564753	0.470840	0.259595
C136	C	0.533514	0.533331	0.316340
O137	O	0.591287	0.417750	0.313770
O138	O	0.475723	0.648949	0.429375
C139	C	0.533523	0.533356	0.840031
C140	C	0.533511	0.533363	0.785734
C141	C	0.693501	0.373342	0.000021
C142	C	0.747796	0.319040	0.000023
C143	C	0.533507	0.373376	-0.159967
C144	C	0.533501	0.319086	-0.214263
C145	C	0.693506	0.373360	-0.159962
C146	C	0.747803	0.319066	-0.214256
C147	C	0.373538	0.693315	0.159988
C148	C	0.319241	0.747610	0.214282
C149	C	0.373543	0.693334	0.000005
C150	C	0.319248	0.747635	0.000003
C151	C	0.533537	0.693300	0.159994
C152	C	0.533543	0.747589	0.214290
C153	C	0.742050	0.293539	0.031269
C154	C	0.793061	0.242525	0.031283
C155	C	0.849819	0.217008	0.000048
C156	C	0.855564	0.242515	-0.031198
C157	C	0.804553	0.293532	-0.031208
C158	C	0.564743	0.293592	-0.271005
C159	C	0.564736	0.242588	-0.322027
C160	C	0.533490	0.217077	-0.316305
C161	C	0.502245	0.242576	-0.259557
C162	C	0.502249	0.293582	-0.208537
C163	C	0.804549	0.293561	-0.208512
C164	C	0.855572	0.242553	-0.259522
C165	C	0.849848	0.217046	-0.316275
C166	C	0.793096	0.242555	-0.322018
C167	C	0.742074	0.293566	-0.271008
C168	C	0.262495	0.773120	0.208538
C169	C	0.211472	0.824145	0.259548
C170	C	0.217196	0.849655	0.316301
C171	C	0.273948	0.824142	0.322044
C172	C	0.324970	0.773122	0.271034
C173	C	0.324994	0.773141	-0.031237
C174	C	0.273983	0.824170	-0.031237
C175	C	0.217226	0.849688	-0.000001
C176	C	0.211480	0.824180	0.031243
C177	C	0.262491	0.773155	0.031246
C178	C	0.564794	0.773085	0.208549
C179	C	0.564811	0.824089	0.259561
C180	C	0.533572	0.849600	0.316313
C181	C	0.502319	0.824099	0.322052
C182	C	0.502306	0.773092	0.271041
H183	H	0.590177	0.314323	0.056704
Cl184	Cl	0.926910	0.210492	-0.252289
Cl185	Cl	0.431783	-0.024243	-0.101774
H186	H	0.165262	0.844964	0.056675
Cl187	Cl	0.463019	-0.143790	-0.070514
H188	H	0.590200	0.221757	0.056696
Cl189	Cl	0.431779	0.090901	-0.101772
H190	H	0.621452	0.079612	0.087936
H191	H	0.476885	0.844878	0.368267
H192	H	0.809240	0.314288	-0.056655
H193	H	0.476815	0.221759	-0.056664
H194	H	0.695871	0.314325	-0.275693
H195	H	0.257822	0.752353	0.162331
H196	H	0.476812	0.314326	-0.056663
H197	H	0.533587	0.891133	0.357845
H198	H	0.175694	0.891235	-0.000009
Cl199	Cl	0.255256	0.741092	0.070519
H200	H	0.314485	0.533354	0.080169
Cl201	Cl	0.785825	0.210468	0.070564
Cl202	Cl	0.210653	0.533331	0.099739
H203	H	0.809222	0.314322	-0.162305
H204	H	0.533492	0.175544	-0.357854
H205	H	0.891350	0.175466	0.000061
Cl206	Cl	0.462969	0.210495	-0.252375
Cl207	Cl	0.635298	-0.024232	0.101777
Cl208	Cl	0.463008	0.741053	0.278268
H209	H	0.476835	0.646675	0.275702
H210	H	0.590187	0.314358	-0.275675
Cl211	Cl	0.396306	0.741053	0.278266
H212	H	0.901782	0.221732	-0.056628
Cl213	Cl	0.604066	-0.143785	0.070535
Cl214	Cl	0.431767	0.736862	0.659315
Cl215	Cl	0.913996	0.152915	-0.380396
H216	H	0.590190	0.419994	0.631766
H217	H	0.278602	0.844919	0.368259
H218	H	0.476856	-0.247628	-0.056665
Cl219	Cl	0.604072	-0.258950	0.070529
Cl220	Cl	0.635281	0.329827	0.455839
Cl221	Cl	0.604022	0.210540	-0.393360
H222	H	-0.154870	0.533315	0.080181
H223	H	0.476842	0.646689	0.368258
H224	H	0.079814	0.533321	0.124352
H225	H	-0.012727	0.533309	0.124352
H226	H	0.476810	0.314333	-0.162337
H227	H	0.788444	0.221779	-0.368233
H228	H	0.165267	0.844908	0.254860
H229	H	0.590233	0.752322	0.162343
Cl230	Cl	0.153048	0.913794	0.380423
Cl231	Cl	0.604099	0.856140	0.252332
Cl232	Cl	0.396340	0.741076	-0.070507
H233	H	-0.247431	0.533308	0.080179
Cl234	Cl	-0.258741	0.533340	-0.099700
H235	H	-0.154888	0.533328	-0.080144
Cl236	Cl	0.635288	0.329825	0.340696
H237	H	0.445604	0.709179	0.541637
Cl238	Cl	0.281219	0.856224	-0.070521
Cl239	Cl	0.463005	0.674393	0.862795
Cl240	Cl	-0.024036	0.533319	-0.143910
H241	H	0.079811	0.533320	-0.124342
H242	H	0.221911	0.533365	-0.080149
H243	H	0.314473	0.533369	-0.080149
Cl244	Cl	0.670704	0.325609	0.070543
H245	H	0.590177	0.420003	0.724319
Cl246	Cl	0.604023	0.392291	0.252398
Cl247	Cl	0.604021	0.392288	0.137234
Cl248	Cl	0.463000	0.674393	0.747636
