data_functionalizedCrystal
_audit_creation_method	'MofGen! by Chris Wilmer'
_symmetry_space_group_name_H-M	'P1'
_symmetry_Int_Tables_number	1
_symmetry_cell_setting	triclinic
loop_
_symmetry_equiv_pos_as_xyz
  x,y,z
_cell_length_a	9.065218
_cell_length_b	16.109301
_cell_length_c	7.540329
_cell_angle_alpha	89.994987
_cell_angle_beta	89.996962
_cell_angle_gamma	84.238683
loop_
_atom_site_label
_atom_site_type_symbol
_atom_site_fract_x
_atom_site_fract_y
_atom_site_fract_z
O1	O	1.957449	0.121905	-0.147494
O2	O	1.527922	0.131904	-0.147497
O3	O	1.754485	0.005964	-0.147477
O4	O	1.730886	0.247845	-0.147513
O5	O	1.754472	0.005963	0.147488
O6	O	1.527909	0.131903	0.147468
O7	O	1.957435	0.121903	0.147471
Cu8	Cu	1.742671	0.126903	0.174402
Cu9	Cu	1.742687	0.126905	-0.174428
O10	O	1.730873	0.247843	0.147452
C11	C	1.472952	0.130943	-0.000014
C12	C	1.309179	0.128069	-0.000015
C13	C	1.753522	-0.025019	0.000006
C14	C	1.750656	-0.117336	0.000009
C15	C	1.878430	-0.338627	-0.000018
C16	C	1.875726	-0.425368	-0.000033
C17	C	1.606917	-0.407559	-0.000028
C18	C	1.609623	-0.320819	-0.000026
C19	C	1.745384	-0.286356	-0.000012
C20	C	1.739974	-0.459836	-0.000029
C21	C	1.737040	-0.553885	-0.000045
C22	C	1.748318	-0.192301	0.000000
C23	C	2.012405	0.122865	-0.000015
C24	C	2.176179	0.125739	-0.000026
C25	C	1.731835	0.278826	-0.000036
C26	C	1.734701	0.371144	-0.000050
N27	N	1.742670	0.126901	0.419751
N28	N	1.742699	0.126900	-0.419776
H29	H	1.988976	-0.310570	-0.000011
O30	O	2.005104	-0.476024	0.000045
C31	C	2.272011	-0.484528	-0.000057
C32	C	2.125595	-0.427065	-0.000101
H33	H	2.369466	-0.444969	-0.000213
H34	H	2.277564	-0.525575	0.123409
H35	H	2.277390	-0.525592	-0.123476
H36	H	2.120118	-0.385950	0.123234
H37	H	2.120103	-0.386075	-0.123649
O38	O	1.480237	-0.270157	0.000060
C39	C	1.213329	-0.261639	-0.000047
C40	C	1.359737	-0.319109	-0.000093
H41	H	1.115867	-0.301193	-0.000208
H42	H	1.207772	-0.220604	0.123423
H43	H	1.207967	-0.220563	-0.123462
H44	H	1.365197	-0.360236	0.123239
H45	H	1.365232	-0.360087	-0.123644
H46	H	1.496385	-0.435630	-0.000036
