data_functionalizedCrystal
_audit_creation_method	'MofGen! by Chris Wilmer'
_symmetry_space_group_name_H-M	'P1'
_symmetry_Int_Tables_number	1
_symmetry_cell_setting	triclinic
loop_
_symmetry_equiv_pos_as_xyz
  x,y,z
_cell_length_a	14.908571
_cell_length_b	16.625546
_cell_length_c	14.909241
_cell_angle_alpha	86.671627
_cell_angle_beta	83.210755
_cell_angle_gamma	86.718495
loop_
_atom_site_label
_atom_site_type_symbol
_atom_site_fract_x
_atom_site_fract_y
_atom_site_fract_z
Zn1	Zn	1.413346	-0.363476	-0.591501
Zn2	Zn	1.746680	-0.030143	-0.258168
Zn3	Zn	2.080013	0.303190	0.075166
Zn4	Zn	1.404503	-0.505675	-0.440124
Zn5	Zn	1.737836	-0.172342	-0.106791
Zn6	Zn	2.071169	0.160991	0.226542
Zn7	Zn	1.253243	-0.363496	-0.431432
Zn8	Zn	1.586576	-0.030163	-0.098099
Zn9	Zn	1.919909	0.303171	0.235234
Zn10	Zn	1.261940	-0.490903	-0.582727
Zn11	Zn	1.595274	-0.157570	-0.249394
Zn12	Zn	1.928607	0.175764	0.083940
O13	O	1.333258	-0.430888	-0.511446
O14	O	1.666591	-0.097554	-0.178113
O15	O	1.999925	0.235779	0.155220
O16	O	1.538840	-0.388514	-0.578730
O17	O	1.872174	-0.055180	-0.245397
O18	O	2.205507	0.278153	0.087936
O19	O	1.377096	-0.493006	-0.312302
O20	O	1.710430	-0.159672	0.021031
O21	O	2.043763	0.173661	0.354364
O22	O	1.274542	-0.250662	-0.452700
O23	O	1.607875	0.082671	-0.119367
O24	O	1.941209	0.416004	0.213966
O25	O	1.532343	-0.492987	-0.467514
O26	O	1.865676	-0.159653	-0.134181
O27	O	2.199009	0.173680	0.199152
O28	O	1.392169	-0.250648	-0.570302
O29	O	1.725503	0.082685	-0.236969
O30	O	2.058836	0.416019	0.096364
O31	O	1.265966	-0.388547	-0.305916
O32	O	1.599300	-0.055214	0.027417
O33	O	1.932633	0.278120	0.360750
O34	O	1.127729	-0.374223	-0.444192
O35	O	1.461063	-0.040889	-0.110859
O36	O	1.794396	0.292444	0.222474
O37	O	1.289366	-0.467809	-0.710560
O38	O	1.622699	-0.134476	-0.377227
O39	O	1.956032	0.198858	-0.043893
O40	O	1.134120	-0.467828	-0.555348
O41	O	1.467453	-0.134495	-0.222015
O42	O	1.800786	0.198839	0.111319
O43	O	1.400603	-0.374189	-0.717006
O44	O	1.733937	-0.040856	-0.383673
O45	O	2.067270	0.292477	-0.050340
O46	O	1.385530	-0.616547	-0.459006
O47	O	1.718864	-0.283213	-0.125673
O48	O	2.052197	0.050120	0.207660
O49	O	1.280790	-0.605694	-0.563776
O50	O	1.614124	-0.272360	-0.230443
O51	O	1.947457	0.060973	0.102891
C52	C	1.098081	-0.419425	-0.497875
C53	C	1.431415	-0.086092	-0.164542
C54	C	1.764748	0.247242	0.168791
C55	C	0.997473	-0.414540	-0.492091
C56	C	1.330806	-0.081206	-0.158758
C57	C	1.664139	0.252127	0.174576
C58	C	1.333170	-0.640376	-0.511403
C59	C	1.666503	-0.307043	-0.178070
C60	C	1.999837	0.026290	0.155263
C61	C	1.333217	-0.729999	-0.511420
C62	C	1.666550	-0.396666	-0.178087
C63	C	1.999884	-0.063332	0.155247
C64	C	0.815112	-0.502998	-0.596813
C65	C	1.148446	-0.169665	-0.263479
C66	C	1.481779	0.163669	0.069854
C67	C	0.720582	-0.498410	-0.591381
C68	C	1.053915	-0.165077	-0.258048
C69	C	1.387249	0.168256	0.075286
C70	C	0.713880	-0.400772	-0.475801
C71	C	1.047214	-0.067439	-0.142468
C72	C	1.380547	0.265895	0.190865
C73	C	0.808411	-0.405360	-0.481233
C74	C	1.141744	-0.072027	-0.147900
C75	C	1.475077	0.261307	0.185434
C76	C	0.859023	-0.456476	-0.541740
C77	C	1.192357	-0.123142	-0.208406
C78	C	1.525690	0.210191	0.124927
C79	C	0.953555	-0.461067	-0.547166
C80	C	1.286889	-0.127734	-0.213833
C81	C	1.620222	0.205599	0.119500
C82	C	0.946852	-0.363425	-0.431592
C83	C	1.280185	-0.030092	-0.098259
C84	C	1.613519	0.303241	0.235075
C85	C	0.852322	-0.358837	-0.426160
C86	C	1.185655	-0.025504	-0.092827
C87	C	1.518988	0.307829	0.240506
C88	C	1.333380	-1.058178	-0.511524
C89	C	1.666714	-0.724844	-0.178190
C90	C	2.000047	-0.391511	0.155143
C91	C	1.333332	-0.966868	-0.511497
C92	C	1.666666	-0.633535	-0.178164
C93	C	1.999999	-0.300201	0.155170
C94	C	1.333298	-0.894091	-0.511471
C95	C	1.666631	-0.560758	-0.178138
C96	C	1.999965	-0.227424	0.155195
C97	C	1.333251	-0.802776	-0.511446
C98	C	1.666585	-0.469442	-0.178113
C99	C	1.999918	-0.136109	0.155221
C100	C	1.569353	-0.442396	-0.525071
C101	C	1.902686	-0.109062	-0.191737
C102	C	2.236020	0.224271	0.141596
C103	C	1.669963	-0.447300	-0.530877
C104	C	2.003296	-0.113966	-0.197543
C105	C	2.336629	0.219367	0.135790
C106	C	1.346941	-0.419349	-0.747545
C107	C	1.680275	-0.086016	-0.414212
C108	C	2.013608	0.247318	-0.080879
C109	C	1.352772	-0.414432	-0.848157
C110	C	1.686106	-0.081099	-0.514823
C111	C	2.019439	0.252235	-0.181490
C112	C	1.333372	-0.220581	-0.511510
C113	C	1.666705	0.112752	-0.178177
C114	C	2.000039	0.446085	0.155156
C115	C	1.333421	-0.130961	-0.511538
C116	C	1.666754	0.202372	-0.178204
C117	C	2.000087	0.535705	0.155129
C118	C	1.247900	-0.502697	-1.030505
C119	C	1.581233	-0.169364	-0.697172
C120	C	1.914567	0.163969	-0.363839
C121	C	1.253376	-0.498080	-1.125038
C122	C	1.586709	-0.164746	-0.791705
C123	C	1.920042	0.168587	-0.458372
C124	C	1.369203	-0.400584	-1.131758
C125	C	1.702537	-0.067251	-0.798425
C126	C	2.035870	0.266082	-0.465091
C127	C	1.363728	-0.405202	-1.037225
C128	C	1.697061	-0.071869	-0.703892
C129	C	2.030394	0.261465	-0.370558
C130	C	1.303073	-0.456259	-0.986602
C131	C	1.636406	-0.122926	-0.653268
C132	C	1.969740	0.210408	-0.319935
C133	C	1.297593	-0.460872	-0.892067
C134	C	1.630927	-0.127538	-0.558733
C135	C	1.964260	0.205795	-0.225400
C136	C	1.413425	-0.363381	-0.898788
C137	C	1.746758	-0.030048	-0.565455
C138	C	2.080092	0.303285	-0.232121
C139	C	1.418901	-0.358764	-0.993321
C140	C	1.752234	-0.025430	-0.659988
C141	C	2.085567	0.307903	-0.326655
C142	C	1.319680	-0.442326	-0.276269
C143	C	1.653013	-0.108992	0.057065
C144	C	1.986347	0.224341	0.390398
C145	C	1.314024	-0.447024	-0.175668
C146	C	1.647358	-0.113691	0.157665
C147	C	1.980691	0.219643	0.490999
H148	H	0.856322	-0.544623	-0.646075
H149	H	1.189655	-0.211290	-0.312741
H150	H	1.522989	0.122044	0.020592
N151	N	1.197001	-0.545497	-1.169887
N152	N	1.530335	-0.212164	-0.836554
N153	N	1.863668	0.121169	-0.503220
N154	N	1.142390	-0.511737	-1.219312
N155	N	1.475724	-0.178404	-0.885979
N156	N	1.809057	0.154930	-0.552646
H157	H	1.102573	-0.545226	-1.250988
H158	H	1.435906	-0.211893	-0.917655
H159	H	1.769239	0.121441	-0.584322
N160	N	1.480836	-0.306597	-1.045037
N161	N	1.814169	0.026736	-0.711703
N162	N	2.147502	0.360070	-0.378370
N163	N	1.474243	-0.232419	-1.034158
N164	N	1.807576	0.100914	-0.700825
N165	N	2.140909	0.434247	-0.367492
H166	H	1.517982	-0.195572	-1.070682
H167	H	1.851315	0.137762	-0.737349
H168	H	2.184648	0.471095	-0.404015
N169	N	0.662186	-0.348558	-0.413997
N170	N	0.995519	-0.015224	-0.080664
N171	N	1.328853	0.318109	0.252670
N172	N	0.701400	-0.307020	-0.364828
N173	N	1.034734	0.026314	-0.031495
N174	N	1.368067	0.359647	0.301839
H175	H	0.664892	-0.270141	-0.321179
H176	H	0.998225	0.063193	0.012155
H177	H	1.331559	0.396526	0.345488
N178	N	1.431150	-0.348421	-1.183462
N179	N	1.764483	-0.015088	-0.850129
N180	N	2.097817	0.318245	-0.516796
N181	N	1.480404	-0.306954	-1.144255
N182	N	1.813737	0.026379	-0.810921
N183	N	2.147070	0.359713	-0.477588
H184	H	1.524152	-0.270110	-1.180770
H185	H	1.857485	0.063223	-0.847437
H186	H	2.190819	0.396557	-0.514103
N187	N	0.800619	-0.306616	-0.364370
N188	N	1.133952	0.026717	-0.031037
N189	N	1.467285	0.360051	0.302297
N190	N	0.749746	-0.251155	-0.393289
N191	N	1.083079	0.082179	-0.059956
N192	N	1.416413	0.415512	0.273378
H193	H	0.713231	-0.214272	-0.349648
H194	H	1.046565	0.119061	-0.016314
H195	H	1.379898	0.452394	0.317019
N196	N	1.469771	-0.315939	-0.853926
N197	N	1.803105	0.017395	-0.520593
N198	N	2.136438	0.350728	-0.187260
N199	N	1.464869	-0.320060	-0.769522
N200	N	1.798202	0.013274	-0.436189
N201	N	2.131535	0.346607	-0.102855
H202	H	1.504658	-0.286551	-0.737836
H203	H	1.837991	0.046783	-0.404503
H204	H	2.171325	0.380116	-0.071170
H205	H	1.248196	-0.502437	-0.850850
H206	H	1.581529	-0.169103	-0.517516
H207	H	1.914863	0.164230	-0.184183
N208	N	1.005243	-0.513288	-0.608968
N209	N	1.338577	-0.179954	-0.275635
N210	N	1.671910	0.153379	0.057699
N211	N	0.966021	-0.554821	-0.658135
N212	N	1.299354	-0.221488	-0.324801
N213	N	1.632687	0.111845	0.008532
H214	H	1.002522	-0.591703	-0.701785
H215	H	1.335856	-0.258370	-0.368452
H216	H	1.669189	0.074963	-0.035118
N217	N	0.991720	-0.315911	-0.375332
N218	N	1.325054	0.017422	-0.041999
N219	N	1.658387	0.350756	0.291334
N220	N	1.076122	-0.320017	-0.380183
N221	N	1.409455	0.013316	-0.046850
N222	N	1.742788	0.346649	0.286483
H223	H	1.107812	-0.286464	-0.340449
H224	H	1.441145	0.046869	-0.007115
H225	H	1.774478	0.380203	0.326218
H226	H	1.198496	-0.544254	-0.989286
H227	H	1.531829	-0.210921	-0.655953
H228	H	1.865163	0.122412	-0.322619
H229	H	0.684834	-0.536292	-0.636229
H230	H	1.018167	-0.202959	-0.302895
H231	H	1.351500	0.130375	0.030438
