data_functionalizedCrystal
_audit_creation_method	'MofGen! by Chris Wilmer'
_symmetry_space_group_name_H-M	'P1'
_symmetry_Int_Tables_number	1
_symmetry_cell_setting	triclinic
loop_
_symmetry_equiv_pos_as_xyz
  x,y,z
_cell_length_a	16.992694
_cell_length_b	19.188930
_cell_length_c	16.053802
_cell_angle_alpha	92.551696
_cell_angle_beta	87.249047
_cell_angle_gamma	86.906503
loop_
_atom_site_label
_atom_site_type_symbol
_atom_site_fract_x
_atom_site_fract_y
_atom_site_fract_z
O1	O	1.043197	0.145267	-0.069340
O2	O	0.814918	0.143642	-0.069364
O3	O	0.935644	0.043185	-0.069335
O4	O	0.922471	0.245724	-0.069369
O5	O	0.928999	0.048690	0.069522
O6	O	0.808273	0.149147	0.069493
O7	O	1.036552	0.150772	0.069517
Zn8	Zn	0.921357	0.150834	0.091552
Zn9	Zn	0.930113	0.143581	-0.091399
O10	O	0.915826	0.251229	0.069488
C11	C	0.782390	0.144306	0.000061
C12	C	0.695368	0.138072	0.000053
C13	C	0.644922	0.198212	0.000043
C14	C	0.563155	0.192351	0.000056
C15	C	0.531836	0.126351	0.000072
C16	C	0.582288	0.066208	0.000084
C17	C	0.664054	0.072069	0.000077
C18	C	0.288320	0.102059	0.000098
C19	C	0.206548	0.096203	0.000102
C20	C	0.187420	0.222347	0.000076
C21	C	0.269188	0.228202	0.000064
C22	C	0.319633	0.168059	0.000081
N23	N	0.448257	0.120359	0.000082
N24	N	0.403210	0.174051	0.000076
C25	C	0.931895	0.019902	0.000096
C26	C	0.930614	-0.057677	0.000103
C27	C	1.001452	-0.098456	0.000114
C28	C	1.000250	-0.171350	0.000101
C29	C	0.928204	-0.203463	0.000093
C30	C	0.857356	-0.162676	0.000076
C31	C	0.858561	-0.089783	0.000081
N32	N	0.870872	-0.312817	0.047342
N33	N	0.869732	-0.382063	0.047339
C34	C	0.924569	-0.423085	0.000075
N35	N	0.980600	-0.392247	-0.047175
N36	N	0.981742	-0.322995	-0.047168
C37	C	0.926889	-0.282503	0.000086
C38	C	0.994108	-0.542905	0.000071
C39	C	0.992903	-0.615801	0.000052
C40	C	0.850007	-0.607124	0.000036
C41	C	0.851215	-0.534230	0.000046
C42	C	0.923267	-0.502125	0.000068
C43	C	1.069080	0.150109	0.000090
C44	C	1.156102	0.156342	0.000093
C45	C	0.919575	0.274513	0.000055
C46	C	0.920856	0.352091	0.000043
N47	N	0.915388	0.155784	0.216410
N48	N	0.936088	0.138625	-0.216258
C49	C	0.966776	0.113057	0.260117
C50	C	0.962607	0.116526	0.347523
C51	C	0.907054	0.162727	0.391220
C52	C	0.855661	0.205456	0.347508
C53	C	0.859826	0.201983	0.260104
C54	C	0.888860	0.177881	0.652626
C55	C	0.884700	0.181353	0.740036
C56	C	0.991646	0.092421	0.740045
C57	C	0.995810	0.088955	0.652639
C58	C	0.944414	0.131681	0.608934
N59	N	0.902794	0.166276	0.480563
N60	N	0.948671	0.128128	0.519593
H61	H	0.556782	0.012469	0.000109
N62	N	1.026699	0.063229	0.212989
H63	H	1.058619	0.036688	0.253943
H64	H	0.998524	0.029237	0.176737
N65	N	0.718467	0.007205	0.000094
H66	H	0.686221	-0.035495	0.000104
H67	H	0.755267	0.004845	-0.051382
N68	N	1.079163	-0.063827	0.000136
H69	H	1.123856	-0.100726	0.000141
H70	H	1.085242	-0.035806	-0.051338
N71	N	0.772299	-0.641750	0.000018
H72	H	0.782283	-0.694116	0.000014
H73	H	0.738845	-0.625084	0.051490
H74	H	0.294682	0.281946	0.000042
H75	H	1.050591	-0.649002	0.000057
N76	N	1.076656	-0.215345	0.000112
H77	H	1.122483	-0.183945	0.000124
H78	H	1.076797	-0.243743	0.051587
N79	N	1.047070	0.046335	0.787185
H80	H	1.082894	0.016541	0.746240
H81	H	1.079905	0.076453	0.823436
H82	H	0.798696	-0.188827	0.000068
H83	H	0.800874	-0.056581	0.000072
N84	N	0.774810	-0.490242	0.000039
H85	H	0.728985	-0.521644	0.000032
H86	H	0.769734	-0.457777	0.051517
N87	N	1.018059	0.070467	0.394664
H88	H	1.053896	0.040685	0.353719
H89	H	1.050879	0.100613	0.430899
H90	H	0.146339	0.271312	0.000064
H91	H	0.329383	0.053086	0.000112
H92	H	0.181053	0.042455	0.000114
N93	N	0.833441	0.223968	0.605486
H94	H	0.800551	0.193898	0.569236
H95	H	0.797670	0.253761	0.646480
H96	H	1.052778	-0.516763	0.000085
N97	N	1.055728	0.039125	0.605509
H98	H	1.087650	0.012582	0.646460
H99	H	1.027553	0.005133	0.569257
N100	N	0.824787	0.231193	0.787170
H101	H	0.792861	0.257735	0.746222
H102	H	0.788499	0.203962	0.823456
N103	N	0.795748	0.255292	0.394637
H104	H	0.763825	0.281832	0.353684
H105	H	0.759457	0.228059	0.430918
N106	N	0.804396	0.248066	0.212965
H107	H	0.812524	0.298724	0.228156
H108	H	0.815488	0.238796	0.150979
N109	N	0.678699	0.269398	0.000016
H110	H	0.634331	0.306606	0.000013
H111	H	0.709753	0.276621	0.051488
H112	H	0.522084	0.241323	0.000047
