data_functionalizedCrystal
_audit_creation_method	'MofGen! by Chris Wilmer'
_symmetry_space_group_name_H-M	'P1'
_symmetry_Int_Tables_number	1
_symmetry_cell_setting	triclinic
loop_
_symmetry_equiv_pos_as_xyz
  x,y,z
_cell_length_a	6.394989
_cell_length_b	11.026607
_cell_length_c	9.482900
_cell_angle_alpha	78.636152
_cell_angle_beta	80.390180
_cell_angle_gamma	82.458136
loop_
_atom_site_label
_atom_site_type_symbol
_atom_site_fract_x
_atom_site_fract_y
_atom_site_fract_z
O1	O	-0.853991	1.642135	-0.120875
O2	O	-0.753816	1.287297	-0.120879
O3	O	-0.501733	1.469753	-0.120878
O4	O	-1.106074	1.459679	-0.120876
O5	O	-0.553199	1.432696	0.120914
O6	O	-0.805282	1.250240	0.120913
O7	O	-0.905458	1.605078	0.120917
Cu8	Cu	-0.860069	1.424275	0.142993
Cu9	Cu	-0.799204	1.468099	-0.142955
O10	O	-1.157541	1.422622	0.120916
C11	C	-0.761068	1.223275	0.000016
C12	C	-0.705977	1.087719	0.000014
C13	C	-0.858092	1.016240	0.000014
C14	C	-0.801156	0.876135	0.000012
C15	C	-0.448894	1.449233	0.000013
C16	C	-0.210371	1.443147	0.000011
C17	C	-0.898204	1.669100	0.000019
C18	C	-0.953293	1.804658	0.000011
N19	N	-0.902881	1.393461	0.344113
N20	N	-0.756380	1.498923	-0.344074
C21	C	-0.811817	1.459002	0.416312
C22	C	-0.847457	1.433373	0.583730
H23	H	-0.533588	1.045197	-0.000024
C24	C	-1.041686	1.293148	0.426866
C25	C	-0.955110	1.178226	0.390000
C26	C	-1.082904	1.085785	0.466214
H27	H	-1.181650	1.312387	0.402058
H28	H	-1.047106	1.289144	0.528395
H29	H	-0.949714	1.182231	0.288494
H30	H	-0.815160	1.158948	0.414812
H31	H	-1.088324	1.081781	0.567742
H32	H	-1.222862	1.105035	0.441400
H33	H	-1.024170	1.007798	0.441221
H34	H	-1.125689	0.847177	0.000021
H35	H	-0.628755	0.833619	-0.000026
C36	C	-0.986269	1.333055	0.666478
C37	C	-0.899692	1.218133	0.629611
C38	C	-1.027487	1.125692	0.705826
H39	H	-1.126233	1.352294	0.641669
H40	H	-0.991689	1.329052	0.768006
H41	H	-0.894297	1.222138	0.528106
H42	H	-0.759743	1.198855	0.654424
H43	H	-1.032906	1.121688	0.807354
H44	H	-1.167444	1.144943	0.681011
H45	H	-0.968752	1.047705	0.680833
C46	C	-0.617356	1.599116	0.573115
C47	C	-0.703611	1.714141	0.609823
C48	C	-0.575548	1.806415	0.533502
H49	H	-0.611921	1.603068	0.471612
H50	H	-0.477403	1.579738	0.597970
H51	H	-0.843525	1.733515	0.584958
H52	H	-0.709040	1.710230	0.711312
H53	H	-0.435595	1.787037	0.558358
H54	H	-0.570122	1.810356	0.432003
H55	H	-0.634042	1.884468	0.558408
C56	C	-1.087813	1.073175	-0.000051
C57	C	-1.098605	1.200826	-0.000081
C58	C	-1.310189	1.253314	-0.000158
H59	H	-1.173938	1.034798	0.084245
H60	H	-1.137885	1.060582	-0.084403
H61	H	-1.048560	1.213410	0.084262
H62	H	-1.012526	1.239237	-0.084371
H63	H	-1.360261	1.240722	-0.084510
H64	H	-1.396297	1.214928	0.084140
H65	H	-1.317536	1.339932	-0.000192
C66	C	-0.672342	1.558973	0.333523
C67	C	-0.466247	1.530088	0.370374
C68	C	-0.337714	1.622149	0.294110
H69	H	-0.730490	1.637109	0.358301
H70	H	-0.666778	1.562865	0.232002
H71	H	-0.471819	1.526211	0.471872
H72	H	-0.408038	1.451969	0.345592
H73	H	-0.332149	1.626041	0.192589
H74	H	-0.395880	1.700279	0.318894
H75	H	-0.197860	1.602558	0.319092
