data_functionalizedCrystal
_audit_creation_method	'MofGen! by Chris Wilmer'
_symmetry_space_group_name_H-M	'P1'
_symmetry_Int_Tables_number	1
_symmetry_cell_setting	triclinic
loop_
_symmetry_equiv_pos_as_xyz
  x,y,z
_cell_length_a	13.339070
_cell_length_b	11.295483
_cell_length_c	12.811415
_cell_angle_alpha	88.701575
_cell_angle_beta	99.764755
_cell_angle_gamma	84.780254
loop_
_atom_site_label
_atom_site_type_symbol
_atom_site_fract_x
_atom_site_fract_y
_atom_site_fract_z
O1	O	1.355141	-0.155092	0.518869
O2	O	1.059812	-0.147659	0.450100
O3	O	1.213783	-0.135194	0.334684
O4	O	1.201170	-0.167557	0.634286
O5	O	1.200259	0.061765	0.344799
O6	O	1.046289	0.049299	0.460216
O7	O	1.341617	0.041867	0.528985
Cu8	Cu	1.192718	0.063567	0.495524
Cu9	Cu	1.208711	-0.169359	0.483561
O10	O	1.187646	0.029401	0.644401
C11	C	1.015226	-0.047925	0.443542
C12	C	0.902521	-0.044184	0.408916
N13	N	1.181476	0.227394	0.503940
C14	C	1.205900	-0.032490	0.300612
C15	C	1.202547	-0.019903	0.184016
C16	C	0.540865	-0.073285	0.678148
C17	C	0.646757	-0.076805	0.710684
C18	C	0.710703	-0.068649	0.635244
C19	C	0.668747	-0.056975	0.527264
C20	C	0.562845	-0.053464	0.494724
C21	C	0.732683	-0.048828	0.451821
C22	C	0.690727	-0.037154	0.343840
C23	C	0.584836	-0.033643	0.311306
C24	C	0.520889	-0.041798	0.386745
C25	C	0.838585	-0.052339	0.484360
C26	C	0.860565	-0.032518	0.300937
C27	C	0.754673	-0.028998	0.268401
C28	C	1.386203	-0.057870	0.535543
C29	C	1.498909	-0.061620	0.570169
N30	N	1.219961	-0.333186	0.475140
C31	C	1.300883	0.486343	0.414502
C32	C	1.292395	0.610319	0.420871
C33	C	1.156008	0.599324	0.523040
C34	C	1.164496	0.475349	0.516671
C35	C	1.236937	0.418862	0.462401
C36	C	1.245429	0.294884	0.456039
C37	C	1.109038	0.283892	0.558201
C38	C	1.100550	0.407868	0.564570
C39	C	1.210973	-0.210997	-0.046104
C40	C	1.207823	-0.199176	-0.155657
C41	C	1.193089	0.015561	-0.144646
C42	C	1.196239	0.003739	-0.035093
C43	C	1.205183	-0.109543	0.014174
C44	C	1.208340	-0.121364	0.123730
C45	C	1.193599	0.093372	0.134738
C46	C	1.190449	0.105193	0.025185
C47	C	1.195529	-0.073305	0.678473
C48	C	1.198883	-0.085900	0.795069
H49	H	0.872734	-0.061839	0.572279
N50	N	1.323538	0.233961	0.397481
H51	H	1.319211	0.145183	0.400708
H52	H	1.394208	0.252050	0.431496
N53	N	1.040049	0.211119	0.609862
H54	H	1.051125	0.224319	0.688529
H55	H	1.056446	0.124037	0.597519
H56	H	1.215626	-0.213605	0.163842
H57	H	1.359874	0.440351	0.370322
N58	N	0.929523	-0.023727	0.219559
H59	H	1.002973	-0.027718	0.256557
H60	H	0.910797	0.054227	0.177572
N61	N	1.361373	0.683104	0.369219
H62	H	1.408552	0.628503	0.333880
H63	H	1.403186	0.728796	0.424874
H64	H	1.097021	0.645333	0.567216
H65	H	0.796924	-0.071518	0.661742
H66	H	1.185799	0.107790	-0.184780
N67	N	1.180817	0.227371	-0.027953
H68	H	1.179704	0.219467	-0.106501
H69	H	1.240946	0.271117	0.003308
N70	N	0.692010	-0.089413	0.827137
H71	H	0.635435	-0.094049	0.869991
H72	H	0.730458	-0.018295	0.848395
N73	N	0.471901	-0.082091	0.759507
H74	H	0.432496	-0.154091	0.746335
H75	H	0.422517	-0.008014	0.753807
N76	N	1.214105	-0.308609	-0.220657
H77	H	1.155103	-0.356575	-0.213702
H78	H	1.280704	-0.358537	-0.194235
N79	N	0.406676	-0.038006	0.351637
H80	H	0.380477	0.039744	0.311542
H81	H	0.372609	-0.044987	0.415857
N82	N	1.187352	0.202808	0.199750
H83	H	1.246370	0.250746	0.192788
H84	H	1.190676	0.178039	0.276599
H85	H	0.550680	-0.024150	0.223381
H86	H	1.041567	0.453873	0.608753
N87	N	0.709416	-0.016398	0.151940
H88	H	0.632629	-0.015409	0.142780
H89	H	0.737736	-0.085695	0.113819
H90	H	1.218264	-0.303237	-0.005988
