data_functionalizedCrystal
_audit_creation_method	'MofGen! by Chris Wilmer'
_symmetry_space_group_name_H-M	'P1'
_symmetry_Int_Tables_number	1
_symmetry_cell_setting	triclinic
loop_
_symmetry_equiv_pos_as_xyz
  x,y,z
_cell_length_a	18.426585
_cell_length_b	14.560438
_cell_length_c	14.560438
_cell_angle_alpha	90.001292
_cell_angle_beta	59.999285
_cell_angle_gamma	60.002471
loop_
_atom_site_label
_atom_site_type_symbol
_atom_site_fract_x
_atom_site_fract_y
_atom_site_fract_z
Zr1	Zr	0.794335	-0.120457	0.884765
O2	O	0.945735	-0.267101	0.738116
O3	O	0.642936	-0.075508	0.929721
O4	O	0.794333	-0.267102	0.929722
O5	O	0.794340	0.075631	0.738114
O6	O	0.794330	-0.267097	1.080863
O7	O	0.794338	-0.075507	0.738115
O8	O	0.523509	0.075629	1.080861
O9	O	1.065161	-0.267096	0.738115
O10	O	0.705207	-0.056328	1.061688
O11	O	0.705210	0.056461	0.948892
O12	O	0.883460	-0.169116	0.948893
O13	O	0.883463	-0.056327	0.836097
Zr14	Zr	0.794335	0.120598	1.125815
Zr15	Zr	0.794332	-0.120450	1.125817
Zr16	Zr	0.794338	0.120591	0.884762
Zr17	Zr	0.984807	-0.120448	0.884763
Zr18	Zr	0.603863	0.120589	1.125816
O19	O	0.945734	0.075649	1.080858
O20	O	0.945730	-0.267090	1.080862
O21	O	0.945739	0.075638	0.738113
O22	O	0.642935	0.267242	1.272463
O23	O	0.642931	-0.075497	1.272466
O24	O	0.642940	0.267231	0.929718
O25	O	0.794330	-0.075490	1.272465
O26	O	0.794338	0.267243	1.080858
O27	O	0.794340	0.267238	0.929717
O28	O	0.794332	0.075648	1.272464
O29	O	1.065158	-0.267089	0.929720
O30	O	0.523512	0.267230	1.080859
O31	O	0.523509	0.267237	1.272464
O32	O	0.523506	0.075636	1.272466
O33	O	1.065164	-0.075495	0.738114
O34	O	1.065161	-0.075488	0.929718
O35	O	0.705210	0.169257	1.061686
O36	O	0.705207	0.056468	1.174482
O37	O	0.883460	-0.056320	1.061687
O38	O	0.883463	0.056469	0.948891
C39	C	0.556084	0.000059	1.005291
C40	C	0.475224	0.000055	1.005292
C41	C	0.794340	0.000061	0.703770
C42	C	0.794341	0.000057	0.601437
C43	C	0.794339	0.301585	1.005287
C44	C	0.794340	0.403916	1.005286
C45	C	0.179114	0.000088	1.005285
C46	C	0.261501	0.000082	1.005284
C47	C	0.327167	0.000071	1.005288
C48	C	0.409558	0.000066	1.005288
C49	C	1.032586	0.000082	1.005288
C50	C	1.113446	0.000086	1.005288
C51	C	0.794331	-0.301444	1.005292
C52	C	0.794330	-0.403775	1.005293
C53	C	0.887385	0.393120	0.946413
C54	C	0.887380	0.489275	0.946414
C55	C	0.701278	0.607018	1.064167
C56	C	0.701284	0.510865	1.064160
C57	C	0.994830	0.325143	0.878433
C58	C	0.994825	0.421298	0.878433
C59	C	0.794342	-0.083204	0.553354
C60	C	0.794332	-0.083189	0.457208
C61	C	0.794325	0.083353	0.457234
C62	C	0.794328	0.083342	0.553382
C63	C	0.794350	-0.179359	0.553336
C64	C	0.794340	-0.179344	0.457190
C65	C	0.794331	0.000080	1.306809
C66	C	0.794329	0.000084	1.409142
C67	C	0.556080	0.000069	1.306811
C68	C	0.475218	0.000069	1.409144
C69	C	0.556088	0.301574	1.005288
C70	C	0.475230	0.403901	1.005288
C71	C	0.556084	0.301583	1.306808
C72	C	0.475224	0.403914	1.409141
C73	C	1.032586	-0.301443	0.703771
C74	C	1.113446	-0.403773	0.601439
C75	C	1.032590	0.000072	0.703768
C76	C	1.113452	0.000072	0.601435
C77	C	1.032582	-0.301433	1.005291
C78	C	1.113440	-0.403760	1.005291
C79	C	0.437245	-0.058820	1.398324
C80	C	0.361277	-0.058843	1.494468
C81	C	0.323279	0.000030	1.601431
C82	C	0.361260	0.058921	1.612249
C83	C	0.437231	0.058936	1.516107
C84	C	0.437257	0.510844	1.064165
C85	C	0.361293	0.607000	1.064160
C86	C	0.323296	0.596212	1.005284
C87	C	0.361276	0.489258	0.946400
C88	C	0.437245	0.393104	0.946399
C89	C	0.437249	0.393095	1.516085
C90	C	0.361283	0.489237	1.612247
C91	C	0.323287	0.596196	1.601461
C92	C	0.361269	0.607013	1.494505
C93	C	0.437239	0.510873	1.398346
C94	C	1.151430	-0.392954	0.494494
C95	C	1.227420	-0.489096	0.398332
C96	C	1.265420	-0.596055	0.409118
C97	C	1.227433	-0.606872	0.516074
C98	C	1.151449	-0.510732	0.612233
C99	C	1.151433	0.058951	0.612255
C100	C	1.227422	0.058948	0.516111
C101	C	1.265422	0.000071	0.409148
C102	C	1.227438	-0.058815	0.398330
C103	C	1.151456	-0.058817	0.494473
C104	C	1.151413	-0.392935	1.064179
C105	C	1.227378	-0.489074	1.064201
C106	C	1.265375	-0.596035	1.005329
C107	C	1.227395	-0.606858	0.946440
C108	C	1.151426	-0.510721	0.946425
H109	H	0.625518	0.519664	1.112088
H110	H	0.865774	-0.261455	0.385886
Br111	Br	0.309764	0.752137	1.144082
H112	H	0.625514	0.694105	1.112099
H113	H	1.258336	0.106904	0.524941
Br114	Br	0.220174	-0.000003	1.731901
Br115	Br	1.063599	0.238137	0.728381
H116	H	0.720635	-0.162545	0.474008
H117	H	0.868050	-0.255834	0.536517
Br118	Br	0.309677	0.138819	1.757423
Br119	Br	0.488802	0.525517	1.144083
Br120	Br	0.309750	0.474530	1.757387
H121	H	1.028164	0.274230	0.923296
Br122	Br	0.488799	-0.138733	1.253172
Br123	Br	0.309746	-0.138769	1.479760
Br124	Br	1.050273	0.435931	0.733372
H125	H	1.120517	-0.519550	0.898467
H126	H	0.722912	-0.171071	0.624631
H127	H	1.120499	0.106903	0.699341
H128	H	0.468140	0.106897	1.524932
Br129	Br	1.099863	-0.247785	1.144086
H130	H	1.258390	-0.106751	0.311227
Br131	Br	1.063568	0.421308	0.941480
Br132	Br	0.794301	0.196358	0.618656
Br133	Br	1.099904	-0.525435	0.757369
H134	H	0.794314	0.151162	0.418098
Br135	Br	0.220195	0.726720	1.005297
Br136	Br	1.368541	-0.726522	0.278603
H137	H	0.330328	0.480490	0.898465
H138	H	0.468152	0.306030	0.898458
H139	H	0.468174	0.306012	1.524889
Br140	Br	0.220184	0.726663	1.731976
H141	H	0.330322	0.694112	1.485740
H142	H	0.468148	0.519697	1.311270
Br143	Br	1.099873	-0.247807	0.479825
Br144	Br	1.278956	-0.474389	0.253192
Br145	Br	1.279012	-0.752040	0.530693
Br146	Br	1.368542	0.000086	0.278678
Br147	Br	1.099914	-0.138727	0.479767
Br148	Br	1.278910	-0.474360	1.144122
Br149	Br	1.368479	-0.726498	1.005359
H150	H	1.258344	-0.693959	0.898508
