data_functionalizedCrystal
_audit_creation_method	'MofGen! by Chris Wilmer'
_symmetry_space_group_name_H-M	'P1'
_symmetry_Int_Tables_number	1
_symmetry_cell_setting	triclinic
loop_
_symmetry_equiv_pos_as_xyz
  x,y,z
_cell_length_a	12.594517
_cell_length_b	12.594516
_cell_length_c	12.594509
_cell_angle_alpha	89.972125
_cell_angle_beta	89.988522
_cell_angle_gamma	90.007702
loop_
_atom_site_label
_atom_site_type_symbol
_atom_site_fract_x
_atom_site_fract_y
_atom_site_fract_z
Zn1	Zn	1.627298	-0.423827	-0.601583
Zn2	Zn	1.627202	-0.601837	-0.423606
Zn3	Zn	1.449302	-0.423860	-0.423642
Zn4	Zn	1.449297	-0.601751	-0.601566
O5	O	1.538275	-0.512819	-0.512599
O6	O	1.776231	-0.447463	-0.577965
O7	O	1.603565	-0.578278	-0.274665
O8	O	1.472956	-0.274910	-0.447269
O9	O	1.776161	-0.578246	-0.447206
O10	O	1.603729	-0.274886	-0.578001
O11	O	1.472863	-0.447519	-0.274692
O12	O	1.300356	-0.447436	-0.447253
O13	O	1.472948	-0.578099	-0.750514
O14	O	1.300352	-0.578131	-0.577973
O15	O	1.603724	-0.447379	-0.750527
O16	O	1.603561	-0.750772	-0.447190
O17	O	1.472855	-0.750708	-0.577937
C18	C	1.261734	-0.512779	-0.512615
C19	C	1.143429	-0.512787	-0.512648
C20	C	1.074204	-0.584011	-0.583609
C21	C	1.003389	-0.486966	-0.609786
C22	C	1.003445	-0.609913	-0.486446
C23	C	1.074171	-0.415689	-0.538876
C24	C	1.074234	-0.538702	-0.415491
C25	C	1.003450	-0.441589	-0.441632
C26	C	1.538226	-0.789360	-0.512581
C27	C	1.538302	-0.907665	-0.512608
C28	C	1.609475	-0.976914	-0.441571
C29	C	1.635486	-1.047613	-0.538716
C30	C	1.512424	-1.047766	-0.415525
C31	C	1.564362	-0.976805	-0.609804
C32	C	1.441256	-0.976952	-0.486548
C33	C	1.467229	-1.047619	-0.583760
C34	C	1.815896	-0.512860	-0.512584
C35	C	1.934201	-0.512878	-0.512577
C36	C	1.538346	-0.512726	-0.790220
C37	C	1.538377	-0.512686	-0.908526
C38	C	1.538354	-0.235198	-0.512641
C39	C	1.538387	-0.116893	-0.512659
C40	C	1.467270	-0.583744	-0.977772
C41	C	1.564392	-0.609757	-1.048546
C42	C	1.441330	-0.486608	-1.048551
C43	C	1.635550	-0.538750	-0.977741
C44	C	1.512422	-0.415556	-0.977740
C45	C	1.609612	-0.441532	-1.048482
C46	C	1.538265	-0.512835	-0.236058
C47	C	1.538441	-0.512575	-0.117753
H48	H	1.105376	-0.560619	-0.333382
H49	H	1.717593	-1.078653	-0.560787
O50	O	1.590665	-0.939610	-0.707730
C51	C	1.590319	-0.827669	-0.706516
H52	H	1.602192	-0.798424	-0.621699
H53	H	1.511070	-0.797383	-0.738062
C54	C	1.666376	-0.821731	-0.881322
C55	C	1.680967	-0.785810	-0.777150
H56	H	1.722288	-0.795908	-0.924896
H57	H	1.666605	-0.897147	-0.882143
H58	H	1.600331	-0.796489	-0.907596
H59	H	1.747004	-0.811063	-0.750873
H60	H	1.680750	-0.710397	-0.776327
H61	H	1.105274	-0.644128	-0.643695
H62	H	0.972579	-0.381327	-0.381592
O63	O	1.590798	-0.707620	-1.085718
C64	C	1.684017	-0.700243	-1.147290
H65	H	1.730404	-0.626382	-1.123112
H66	H	1.661973	-0.694644	-1.234903
C67	C	1.695991	-0.890237	-1.158551
C68	C	1.752968	-0.799525	-1.128850
H69	H	1.738522	-0.951480	-1.147182
H70	H	1.633185	-0.895208	-1.117073
H71	H	1.677624	-0.885556	-1.231561
H72	H	1.771323	-0.804201	-1.055839
H73	H	1.815779	-0.794557	-1.170316
H74	H	1.490406	-0.333487	-0.946615
H75	H	1.407184	-0.643929	-0.946725
H76	H	0.972372	-0.692013	-0.464318
O77	O	1.111248	-0.317790	-0.565427
C78	C	1.223190	-0.318929	-0.565161
H79	H	1.252515	-0.403749	-0.576865
H80	H	1.253498	-0.287206	-0.486005
C81	C	1.228898	-0.144268	-0.641615
C82	C	1.264916	-0.248445	-0.655999
H83	H	1.254638	-0.100787	-0.697644
H84	H	1.153481	-0.143499	-0.641791
H85	H	1.254157	-0.117848	-0.575649
H86	H	1.239645	-0.274868	-0.721957
H87	H	1.340330	-0.249217	-0.655836
O88	O	1.343365	-0.939934	-0.460002
C89	C	1.316330	-0.976050	-0.357522
H90	H	1.391788	-0.995925	-0.311663
H91	H	1.264719	-1.050114	-0.364218
C92	C	1.161906	-0.864195	-0.354803
C93	C	1.254586	-0.888597	-0.298476
H94	H	1.123815	-0.810252	-0.318382
H95	H	1.180117	-0.839865	-0.423848
H96	H	1.118909	-0.925922	-0.360380
H97	H	1.297586	-0.826873	-0.292912
H98	H	1.236381	-0.912914	-0.229429
O99	O	1.681430	-0.939916	-0.370087
C100	C	1.783684	-0.975942	-0.397981
H101	H	1.785650	-0.995732	-0.486274
H102	H	1.803699	-1.050039	-0.349967
C103	C	1.863270	-0.864161	-0.265597
C104	C	1.865688	-0.888460	-0.374043
H105	H	1.913856	-0.810201	-0.250827
H106	H	1.794380	-0.839893	-0.246801
H107	H	1.879947	-0.925916	-0.225598
H108	H	1.848999	-0.826709	-0.414039
H109	H	1.934577	-0.912716	-0.392845
O110	O	1.486387	-1.084822	-0.317475
C111	C	1.561610	-1.048819	-0.242819
H112	H	1.602106	-0.974245	-0.274368
H113	H	1.623633	-1.113272	-0.228963
C114	C	1.455557	-1.114754	-0.098621
C115	C	1.505288	-1.023155	-0.137366
H116	H	1.420817	-1.098927	-0.033571
H117	H	1.404879	-1.139014	-0.148918
H118	H	1.507252	-1.168456	-0.087082
H119	H	1.453592	-0.969460	-0.148917
H120	H	1.555956	-0.998885	-0.087069
O121	O	1.681604	-0.369907	-1.085248
C122	C	1.783780	-0.397722	-1.048950
H123	H	1.785772	-0.486040	-1.029191
H124	H	1.803539	-0.349785	-0.974777
C125	C	1.863562	-0.265083	-1.160454
C126	C	1.866011	-0.373559	-1.136194
H127	H	1.914287	-0.250174	-1.214267
H128	H	1.794724	-0.246340	-1.184906
H129	H	1.880025	-0.225149	-1.098636
H130	H	1.849535	-0.413490	-1.198007
H131	H	1.934848	-0.392308	-1.111753
H132	H	0.972270	-0.465078	-0.691919
O133	O	1.395587	-1.084381	-0.655675
C134	C	1.423295	-1.048002	-0.757882
H135	H	1.511593	-1.028192	-0.759969
H136	H	1.375276	-0.973845	-0.777596
C137	C	1.290701	-1.159532	-0.837518
C138	C	1.399153	-1.135208	-0.840083
H139	H	1.275805	-1.213321	-0.888225
H140	H	1.272030	-1.184038	-0.768659
H141	H	1.250698	-1.097726	-0.853943
H142	H	1.439153	-1.197009	-0.823646
H143	H	1.417830	-1.110714	-0.908942
O144	O	1.733446	-0.565158	-0.940622
C145	C	1.732224	-0.564917	-0.828681
H146	H	1.647393	-0.576756	-0.799389
H147	H	1.763852	-0.485719	-0.798367
C148	C	1.906949	-0.641106	-0.822895
C149	C	1.802759	-0.655655	-0.786919
H150	H	1.950462	-0.697073	-0.797133
H151	H	1.907775	-0.641265	-0.898312
H152	H	1.933291	-0.575104	-0.797630
H153	H	1.776414	-0.721649	-0.812194
H154	H	1.801931	-0.655509	-0.711504
H155	H	1.359232	-0.464598	-1.079655
