data_functionalizedCrystal
_audit_creation_method	'MofGen! by Chris Wilmer'
_symmetry_space_group_name_H-M	'P1'
_symmetry_Int_Tables_number	1
_symmetry_cell_setting	triclinic
loop_
_symmetry_equiv_pos_as_xyz
  x,y,z
_cell_length_a	27.732043
_cell_length_b	26.210047
_cell_length_c	27.731996
_cell_angle_alpha	90.001499
_cell_angle_beta	82.631092
_cell_angle_gamma	90.000725
loop_
_atom_site_label
_atom_site_type_symbol
_atom_site_fract_x
_atom_site_fract_y
_atom_site_fract_z
O1	O	0.640922	0.042337	0.057501
O2	O	0.890922	0.292337	0.307501
O3	O	1.140922	0.542337	0.557501
O4	O	1.390922	0.792337	0.807501
O5	O	0.500126	0.042361	0.066249
O6	O	0.750126	0.292361	0.316249
O7	O	1.000126	0.542361	0.566249
O8	O	1.250126	0.792361	0.816249
O9	O	0.574910	0.042337	-0.008524
O10	O	0.824910	0.292337	0.241476
O11	O	1.074910	0.542337	0.491476
O12	O	1.324910	0.792337	0.741476
O13	O	0.566138	0.042361	0.132274
O14	O	0.816138	0.292361	0.382274
O15	O	1.066138	0.542361	0.632274
O16	O	1.316138	0.792361	0.882274
O17	O	0.574896	-0.042521	-0.008512
O18	O	0.824896	0.207479	0.241488
O19	O	1.074896	0.457479	0.491488
O20	O	1.324896	0.707479	0.741488
O21	O	0.500112	-0.042497	0.066261
O22	O	0.750112	0.207503	0.316261
O23	O	1.000112	0.457503	0.566261
O24	O	1.250112	0.707503	0.816261
O25	O	0.640907	-0.042521	0.057513
O26	O	0.890907	0.207479	0.307513
O27	O	1.140907	0.457479	0.557513
O28	O	1.390907	0.707479	0.807513
Cu29	Cu	0.570508	-0.050257	0.061888
Cu30	Cu	0.820508	0.199743	0.311888
Cu31	Cu	1.070508	0.449743	0.561888
Cu32	Cu	1.320508	0.699743	0.811888
Cu33	Cu	0.570525	0.050097	0.061874
Cu34	Cu	0.820525	0.300097	0.311874
Cu35	Cu	1.070525	0.550097	0.561874
Cu36	Cu	1.320525	0.800097	0.811874
O37	O	0.566124	-0.042497	0.132285
O38	O	0.816124	0.207503	0.382285
O39	O	1.066124	0.457503	0.632285
O40	O	1.316124	0.707503	0.882285
C41	C	0.482112	-0.000065	0.066072
C42	C	0.732112	0.249935	0.316072
C43	C	0.982112	0.499935	0.566072
C44	C	1.232112	0.749935	0.816072
C45	C	0.428457	-0.000057	0.065520
C46	C	0.678457	0.249943	0.315520
C47	C	0.928457	0.499943	0.565520
C48	C	1.178457	0.749943	0.815520
N49	N	0.570500	-0.120841	0.061897
N50	N	0.820500	0.129159	0.311897
N51	N	1.070500	0.379159	0.561897
N52	N	1.320500	0.629159	0.811897
C53	C	0.574723	-0.000093	-0.026525
C54	C	0.824723	0.249907	0.223475
C55	C	1.074723	0.499907	0.473475
C56	C	1.324723	0.749907	0.723475
C57	C	0.574180	-0.000099	-0.080181
C58	C	0.824180	0.249901	0.169819
C59	C	1.074180	0.499901	0.419819
C60	C	1.324180	0.749901	0.669819
C61	C	0.658922	-0.000093	0.057690
C62	C	0.908922	0.249907	0.307690
C63	C	1.158922	0.499907	0.557690
C64	C	1.408922	0.749907	0.807690
C65	C	0.712576	-0.000099	0.058242
C66	C	0.962576	0.249901	0.308242
C67	C	1.212576	0.499901	0.558242
C68	C	1.462576	0.749901	0.808242
C69	C	1.045306	0.046183	0.061608
C70	C	1.295306	0.296183	0.311608
C71	C	1.545306	0.546183	0.561608
C72	C	1.795306	0.796183	0.811608
C73	C	1.246965	0.046192	0.063661
C74	C	1.496965	0.296192	0.313661
C75	C	1.746965	0.546192	0.563661
C76	C	1.996965	0.796192	0.813661
O77	O	1.273048	0.085532	0.063900
O78	O	1.523048	0.335532	0.313900
O79	O	1.773048	0.585532	0.563900
O80	O	2.023048	0.835532	0.813900
N81	N	1.272174	-0.000063	0.063926
N82	N	1.522174	0.249937	0.313926
N83	N	1.772174	0.499937	0.563926
N84	N	2.022174	0.749937	0.813926
C85	C	1.246965	-0.046325	0.063674
C86	C	1.496965	0.203675	0.313674
C87	C	1.746965	0.453675	0.563674
C88	C	1.996965	0.703675	0.813674
O89	O	1.273035	-0.085668	0.063941
O90	O	1.523035	0.164332	0.313941
O91	O	1.773035	0.414332	0.563941
O92	O	2.023035	0.664332	0.813941
C93	C	1.045308	-0.046333	0.061618
C94	C	1.295308	0.203667	0.311618
C95	C	1.545308	0.453667	0.561618
C96	C	1.795308	0.703667	0.811618
C97	C	1.020101	-0.000075	0.061358
C98	C	1.270101	0.249925	0.311358
C99	C	1.520101	0.499925	0.561358
C100	C	1.770101	0.749925	0.811358
C101	C	1.020099	0.092438	0.061348
C102	C	1.270099	0.342438	0.311348
C103	C	1.520099	0.592438	0.561348
C104	C	1.770099	0.842438	0.811348
C105	C	0.969687	0.092435	0.060837
C106	C	1.219687	0.342435	0.310837
C107	C	1.469687	0.592435	0.560837
C108	C	1.719687	0.842435	0.810837
C109	C	0.944482	0.046177	0.060587
C110	C	1.194482	0.296177	0.310587
C111	C	1.444482	0.546177	0.560587
C112	C	1.694482	0.796177	0.810587
C113	C	0.969689	-0.000077	0.060848
C114	C	1.219689	0.249923	0.310848
C115	C	1.469689	0.499923	0.560848
C116	C	1.719689	0.749923	0.810848
C117	C	1.020100	-0.092594	0.061363
C118	C	1.270100	0.157406	0.311363
C119	C	1.520100	0.407406	0.561363
C120	C	1.770100	0.657406	0.811363
C121	C	0.969683	-0.092592	0.060848
C122	C	1.219683	0.157408	0.310848
C123	C	1.469683	0.407408	0.560848
C124	C	1.719683	0.657408	0.810848
C125	C	0.944476	-0.046333	0.060588
C126	C	1.194476	0.203667	0.310588
C127	C	1.444476	0.453667	0.560588
C128	C	1.694476	0.703667	0.810588
C129	C	0.894071	-0.046338	0.060087
C130	C	1.144071	0.203662	0.310087
C131	C	1.394071	0.453662	0.560087
C132	C	1.644071	0.703662	0.810087
N133	N	0.868862	-0.000082	0.059822
N134	N	1.118862	0.249918	0.309822
N135	N	1.368862	0.499918	0.559822
N136	N	1.618862	0.749918	0.809822
C137	C	0.894068	0.046175	0.060072
C138	C	1.144068	0.296175	0.310072
C139	C	1.394068	0.546175	0.560072
C140	C	1.644068	0.796175	0.810072
C141	C	1.352838	-0.046317	0.064755
C142	C	1.602838	0.203683	0.314755
C143	C	1.852838	0.453683	0.564755
C144	C	2.102838	0.703683	0.814755
C145	C	1.403252	-0.046315	0.065270
C146	C	1.653252	0.203685	0.315270
C147	C	1.903252	0.453685	0.565270
C148	C	2.153252	0.703685	0.815270
C149	C	1.403248	0.046203	0.065255
C150	C	1.653248	0.296203	0.315255
C151	C	1.903248	0.546203	0.565255
C152	C	2.153248	0.796203	0.815255
C153	C	1.352833	0.046200	0.064744
C154	C	1.602833	0.296200	0.314744
C155	C	1.852833	0.546200	0.564744
C156	C	2.102833	0.796200	0.814744
C157	C	1.327629	-0.000061	0.064490
C158	C	1.577629	0.249939	0.314490
C159	C	1.827629	0.499939	0.564490
C160	C	2.077629	0.749939	0.814490
C161	C	0.788198	0.046166	0.059001
C162	C	1.038198	0.296166	0.309001
C163	C	1.288198	0.546166	0.559001
C164	C	1.538198	0.796166	0.809001
C165	C	0.737782	0.046159	0.058492
C166	C	0.987782	0.296159	0.308492
C167	C	1.237782	0.546159	0.558492
C168	C	1.487782	0.796159	0.808492
C169	C	0.737790	-0.046358	0.058504
C170	C	0.987790	0.203642	0.308504
C171	C	1.237790	0.453642	0.558504
C172	C	1.487790	0.703642	0.808504
C173	C	0.788202	-0.046351	0.059015
C174	C	1.038202	0.203649	0.309015
C175	C	1.288202	0.453649	0.559015
C176	C	1.538202	0.703649	0.809015
C177	C	0.813405	-0.000085	0.059262
C178	C	1.063405	0.249915	0.309262
C179	C	1.313405	0.499915	0.559262
C180	C	1.563405	0.749915	0.809262
O181	O	0.867958	-0.085657	0.059842
O182	O	1.117958	0.164343	0.309842
O183	O	1.367958	0.414343	0.559842
O184	O	1.617958	0.664343	0.809842
O185	O	0.867991	0.085513	0.059794
O186	O	1.117991	0.335513	0.309794
O187	O	1.367991	0.585513	0.559794
O188	O	1.617991	0.835513	0.809794
C189	C	1.095718	0.046186	0.062119
C190	C	1.345718	0.296186	0.312119
C191	C	1.595718	0.546186	0.562119
C192	C	1.845718	0.796186	0.812119
C193	C	1.120925	-0.000069	0.062379
C194	C	1.370925	0.249931	0.312379
C195	C	1.620925	0.499931	0.562379
C196	C	1.870925	0.749931	0.812379
C197	C	1.095720	-0.046327	0.062129
C198	C	1.345720	0.203673	0.312129
C199	C	1.595720	0.453673	0.562129
C200	C	1.845720	0.703673	0.812129
C201	C	1.171339	-0.000067	0.062894
C202	C	1.421339	0.249933	0.312894
C203	C	1.671339	0.499933	0.562894
C204	C	1.921339	0.749933	0.812894
C205	C	1.196544	0.046191	0.063144
C206	C	1.446544	0.296191	0.313144
C207	C	1.696544	0.546191	0.563144
C208	C	1.946544	0.796191	0.813144
C209	C	1.171335	0.092446	0.062879
C210	C	1.421335	0.342446	0.312879
C211	C	1.671335	0.592446	0.562879
C212	C	1.921335	0.842446	0.812879
C213	C	1.120923	0.092444	0.062369
C214	C	1.370923	0.342444	0.312369
C215	C	1.620923	0.592444	0.562369
C216	C	1.870923	0.842444	0.812369
C217	C	1.120928	-0.092582	0.062394
C218	C	1.370928	0.157418	0.312394
C219	C	1.620928	0.407418	0.562394
C220	C	1.870928	0.657418	0.812394
C221	C	1.171341	-0.092576	0.062905
C222	C	1.421341	0.157424	0.312905
C223	C	1.671341	0.407424	0.562905
C224	C	1.921341	0.657424	0.812905
C225	C	1.196546	-0.046318	0.063155
C226	C	1.446546	0.203682	0.313155
C227	C	1.696546	0.453682	0.563155
C228	C	1.946546	0.703682	0.813155
C229	C	0.603636	-0.473366	0.028772
C230	C	0.853636	-0.223366	0.278772
C231	C	1.103636	0.026634	0.528772
C232	C	1.353636	0.276634	0.778772
C233	C	0.603647	-0.687024	0.028765
C234	C	0.853647	-0.437024	0.278765
C235	C	1.103647	-0.187024	0.528765
C236	C	1.353647	0.062976	0.778765
O237	O	0.631802	-0.714655	0.000603
O238	O	0.881802	-0.464655	0.250603
O239	O	1.131802	-0.214655	0.500603
O240	O	1.381802	0.035345	0.750603
N241	N	0.570528	-0.713735	0.061863
N242	N	0.820528	-0.463735	0.311863
N243	N	1.070528	-0.213735	0.561863
N244	N	1.320528	0.036265	0.811863
C245	C	0.537402	-0.687028	0.094963
C246	C	0.787402	-0.437028	0.344963
C247	C	1.037402	-0.187028	0.594963
C248	C	1.287402	0.062972	0.844963
O249	O	0.509229	-0.714650	0.123112
O250	O	0.759229	-0.464650	0.373112
O251	O	1.009229	-0.214650	0.623112
O252	O	1.259229	0.035350	0.873112
C253	C	0.537390	-0.473370	0.094967
C254	C	0.787390	-0.223370	0.344967
C255	C	1.037390	0.026630	0.594967
C256	C	1.287390	0.276630	0.844967
C257	C	0.570514	-0.446662	0.061870
C258	C	0.820514	-0.196662	0.311870
C259	C	1.070514	0.053338	0.561870
C260	C	1.320514	0.303338	0.811870
C261	C	0.636757	-0.446657	-0.004322
C262	C	0.886757	-0.196657	0.245678
C263	C	1.136757	0.053343	0.495678
C264	C	1.386757	0.303343	0.745678
C265	C	0.636756	-0.393246	-0.004319
C266	C	0.886756	-0.143246	0.245681
C267	C	1.136756	0.106754	0.495681
C268	C	1.386756	0.356754	0.745681
C269	C	0.603634	-0.366543	0.028780
C270	C	0.853634	-0.116543	0.278780
C271	C	1.103634	0.133457	0.528780
C272	C	1.353634	0.383457	0.778780
C273	C	0.570513	-0.393251	0.061874
C274	C	0.820513	-0.143251	0.311874
C275	C	1.070513	0.106749	0.561874
C276	C	1.320513	0.356749	0.811874
C277	C	0.504262	-0.446664	0.128065
C278	C	0.754262	-0.196664	0.378065
C279	C	1.004262	0.053336	0.628065
C280	C	1.254262	0.303336	0.878065
C281	C	0.504261	-0.393246	0.128062
C282	C	0.754261	-0.143246	0.378062
C283	C	1.004261	0.106754	0.628062
C284	C	1.254261	0.356754	0.878062
C285	C	0.537385	-0.366538	0.094965
C286	C	0.787385	-0.116538	0.344965
C287	C	1.037385	0.133462	0.594965
C288	C	1.287385	0.383462	0.844965
C289	C	0.537389	-0.313136	0.094976
C290	C	0.787389	-0.063136	0.344976
C291	C	1.037389	0.186864	0.594976
C292	C	1.287389	0.436864	0.844976
N293	N	0.570508	-0.286425	0.061878
N294	N	0.820508	-0.036425	0.311878
N295	N	1.070508	0.213575	0.561878
N296	N	1.320508	0.463575	0.811878
C297	C	0.603630	-0.313128	0.028780
C298	C	0.853630	-0.063128	0.278780
C299	C	1.103630	0.186872	0.528780
C300	C	1.353630	0.436872	0.778780
C301	C	0.537412	-0.799201	0.094959
C302	C	0.787412	-0.549201	0.344959
C303	C	1.037412	-0.299201	0.594959
C304	C	1.287412	-0.049201	0.844959
C305	C	0.537415	-0.852615	0.094959
C306	C	0.787415	-0.602615	0.344959
C307	C	1.037415	-0.352615	0.594959
C308	C	1.287415	-0.102615	0.844959
C309	C	0.603660	-0.852608	0.028760
C310	C	0.853660	-0.602608	0.278760
C311	C	1.103660	-0.352608	0.528760
C312	C	1.353660	-0.102608	0.778760
C313	C	0.603658	-0.799193	0.028763
C314	C	0.853658	-0.549193	0.278763
C315	C	1.103658	-0.299193	0.528763
C316	C	1.353658	-0.049193	0.778763
C317	C	0.570531	-0.772490	0.061861
C318	C	0.820531	-0.522490	0.311861
C319	C	1.070531	-0.272490	0.561861
C320	C	1.320531	-0.022490	0.811861
C321	C	0.603625	-0.200961	0.028791
C322	C	0.853625	0.049039	0.278791
C323	C	1.103625	0.299039	0.528791
C324	C	1.353625	0.549039	0.778791
C325	C	0.603622	-0.147544	0.028799
C326	C	0.853622	0.102456	0.278799
C327	C	1.103622	0.352456	0.528799
C328	C	1.353622	0.602456	0.778799
C329	C	0.537377	-0.147557	0.094996
C330	C	0.787377	0.102443	0.344996
C331	C	1.037377	0.352443	0.594996
C332	C	1.287377	0.602443	0.844996
C333	C	0.537381	-0.200968	0.094989
C334	C	0.787381	0.049032	0.344989
C335	C	1.037381	0.299032	0.594989
C336	C	1.287381	0.549032	0.844989
C337	C	0.570507	-0.227669	0.061883
C338	C	0.820507	0.022331	0.311883
C339	C	1.070507	0.272331	0.561883
C340	C	1.320507	0.522331	0.811883
O341	O	0.509245	-0.285472	0.123120
O342	O	0.759245	-0.035472	0.373120
O343	O	1.009245	0.214528	0.623120
O344	O	1.259245	0.464528	0.873120
O345	O	0.631791	-0.285498	0.000629
O346	O	0.881791	-0.035498	0.250629
O347	O	1.131791	0.214502	0.500629
O348	O	1.381791	0.464502	0.750629
C349	C	0.603637	-0.526777	0.028768
C350	C	0.853637	-0.276777	0.278768
C351	C	1.103637	-0.026777	0.528768
C352	C	1.353637	0.223223	0.778768
C353	C	0.570516	-0.553485	0.061863
C354	C	0.820516	-0.303485	0.311863
C355	C	1.070516	-0.053485	0.561863
C356	C	1.320516	0.196515	0.811863
C357	C	0.537394	-0.526782	0.094961
C358	C	0.787394	-0.276782	0.344961
C359	C	1.037394	-0.026782	0.594961
C360	C	1.287394	0.223218	0.844961
C361	C	0.570520	-0.606899	0.061863
C362	C	0.820520	-0.356899	0.311863
C363	C	1.070520	-0.106899	0.561863
C364	C	1.320520	0.143101	0.811863
C365	C	0.603642	-0.633603	0.028764
C366	C	0.853642	-0.383603	0.278764
C367	C	1.103642	-0.133603	0.528764
C368	C	1.353642	0.116397	0.778764
C369	C	0.636761	-0.606892	-0.004334
C370	C	0.886761	-0.356892	0.245666
C371	C	1.136761	-0.106892	0.495666
C372	C	1.386761	0.143108	0.745666
C373	C	0.636760	-0.553480	-0.004330
C374	C	0.886760	-0.303480	0.245670
C375	C	1.136760	-0.053480	0.495670
C376	C	1.386760	0.196520	0.745670
C377	C	0.504275	-0.553493	0.128059
C378	C	0.754275	-0.303493	0.378059
C379	C	1.004275	-0.053493	0.628059
C380	C	1.254275	0.196507	0.878059
C381	C	0.504279	-0.606904	0.128053
C382	C	0.754279	-0.356904	0.378053
C383	C	1.004279	-0.106904	0.628053
C384	C	1.254279	0.143096	0.878053
C385	C	0.537402	-0.633608	0.094955
C386	C	0.787402	-0.383608	0.344955
C387	C	1.037402	-0.133608	0.594955
C388	C	1.287402	0.116392	0.844955
N389	N	0.570538	0.120681	0.061861
N390	N	0.820538	0.370681	0.311861
N391	N	1.070538	0.620681	0.561861
N392	N	1.320538	0.870681	0.811861
C393	C	0.570773	0.046183	-0.412904
C394	C	0.820773	0.296183	-0.162904
C395	C	1.070773	0.546183	0.087096
C396	C	1.320773	0.796183	0.337096
C397	C	0.568712	0.046192	-0.614562
C398	C	0.818712	0.296192	-0.364562
C399	C	1.068712	0.546192	-0.114562
C400	C	1.318712	0.796192	0.135438
O401	O	0.568431	0.085532	-0.640638
O402	O	0.818431	0.335532	-0.390638
O403	O	1.068431	0.585532	-0.140638
O404	O	1.318431	0.835532	0.109362
N405	N	0.568448	-0.000063	-0.639773
N406	N	0.818448	0.249937	-0.389773
N407	N	1.068448	0.499937	-0.139773
N408	N	1.318448	0.749937	0.110227
C409	C	0.568696	-0.046325	-0.614566
C410	C	0.818696	0.203675	-0.364566
C411	C	1.068696	0.453675	-0.114566
C412	C	1.318696	0.703675	0.135434
O413	O	0.568420	-0.085668	-0.640635
O414	O	0.818420	0.164332	-0.390635
O415	O	1.068420	0.414332	-0.140635
O416	O	1.318420	0.664332	0.109365
C417	C	0.570754	-0.046333	-0.412908
C418	C	0.820754	0.203667	-0.162908
C419	C	1.070754	0.453667	0.087092
C420	C	1.320754	0.703667	0.337092
C421	C	0.571023	-0.000075	-0.387700
C422	C	0.821023	0.249925	-0.137700
C423	C	1.071023	0.499925	0.112300
C424	C	1.321023	0.749925	0.362300
C425	C	0.571041	0.092438	-0.387696
C426	C	0.821041	0.342438	-0.137696
C427	C	1.071041	0.592438	0.112304
C428	C	1.321041	0.842438	0.362304
C429	C	0.571559	0.092435	-0.337285
C430	C	0.821559	0.342435	-0.087285
C431	C	1.071559	0.592435	0.162715
C432	C	1.321559	0.842435	0.412715
C433	C	0.571809	0.046177	-0.312082
C434	C	0.821809	0.296177	-0.062082
C435	C	1.071809	0.546177	0.187918
C436	C	1.321809	0.796177	0.437918
C437	C	0.571541	-0.000077	-0.337289
C438	C	0.821541	0.249923	-0.087289
C439	C	1.071541	0.499923	0.162711
C440	C	1.321541	0.749923	0.412711
C441	C	0.570999	-0.092594	-0.387701
C442	C	0.820999	0.157406	-0.137701
C443	C	1.070999	0.407406	0.112299
C444	C	1.320999	0.657406	0.362299
C445	C	0.571512	-0.092592	-0.337283
C446	C	0.821512	0.157408	-0.087283
C447	C	1.071512	0.407408	0.162717
C448	C	1.321512	0.657408	0.412717
C449	C	0.571781	-0.046333	-0.312076
C450	C	0.821781	0.203667	-0.062076
C451	C	1.071781	0.453667	0.187924
C452	C	1.321781	0.703667	0.437924
C453	C	0.572308	-0.046338	-0.261674
C454	C	0.822308	0.203662	-0.011674
C455	C	1.072308	0.453662	0.238326
C456	C	1.322308	0.703662	0.488326
N457	N	0.572572	-0.000082	-0.236464
N458	N	0.822572	0.249918	0.013536
N459	N	1.072572	0.499918	0.263536
N460	N	1.322572	0.749918	0.513536
C461	C	0.572322	0.046175	-0.261667
C462	C	0.822322	0.296175	-0.011667
C463	C	1.072322	0.546175	0.238333
C464	C	1.322322	0.796175	0.488333
C465	C	0.567617	-0.046317	-0.720439
C466	C	0.817617	0.203683	-0.470439
C467	C	1.067617	0.453683	-0.220439
C468	C	1.317617	0.703683	0.029561
C469	C	0.567104	-0.046315	-0.770853
C470	C	0.817104	0.203685	-0.520853
C471	C	1.067104	0.453685	-0.270853
C472	C	1.317104	0.703685	-0.020853
C473	C	0.567118	0.046203	-0.770846
C474	C	0.817118	0.296203	-0.520846
C475	C	1.067118	0.546203	-0.270846
C476	C	1.317118	0.796203	-0.020846
C477	C	0.567635	0.046200	-0.720431
C478	C	0.817635	0.296200	-0.470431
C479	C	1.067635	0.546200	-0.220431
C480	C	1.317635	0.796200	0.029569
C481	C	0.567881	-0.000061	-0.695228
C482	C	0.817881	0.249939	-0.445228
C483	C	1.067881	0.499939	-0.195228
C484	C	1.317881	0.749939	0.054772
C485	C	0.573410	0.046166	-0.155800
C486	C	0.823410	0.296166	0.094200
C487	C	1.073410	0.546166	0.344200
C488	C	1.323410	0.796166	0.594200
C489	C	0.573930	0.046159	-0.105385
C490	C	0.823930	0.296159	0.144615
C491	C	1.073930	0.546159	0.394615
C492	C	1.323930	0.796159	0.644615
C493	C	0.573913	-0.046358	-0.105396
C494	C	0.823913	0.203642	0.144604
C495	C	1.073913	0.453642	0.394604
C496	C	1.323913	0.703642	0.644604
C497	C	0.573396	-0.046351	-0.155807
C498	C	0.823396	0.203649	0.094193
C499	C	1.073396	0.453649	0.344193
C500	C	1.323396	0.703649	0.594193
C501	C	0.573143	-0.000085	-0.181008
C502	C	0.823143	0.249915	0.068992
C503	C	1.073143	0.499915	0.318992
C504	C	1.323143	0.749915	0.568992
O505	O	0.572584	-0.085657	-0.235567
O506	O	0.822584	0.164343	0.014433
O507	O	1.072584	0.414343	0.264433
O508	O	1.322584	0.664343	0.514433
O509	O	0.572588	0.085513	-0.235587
O510	O	0.822588	0.335513	0.014413
O511	O	1.072588	0.585513	0.264413
O512	O	1.322588	0.835513	0.514413
C513	C	0.570255	0.046186	-0.463315
C514	C	0.820255	0.296186	-0.213315
C515	C	1.070255	0.546186	0.036685
C516	C	1.320255	0.796186	0.286685
C517	C	0.569987	-0.000069	-0.488523
C518	C	0.819987	0.249931	-0.238523
C519	C	1.069987	0.499931	0.011477
C520	C	1.319987	0.749931	0.261477
C521	C	0.570237	-0.046327	-0.463319
C522	C	0.820237	0.203673	-0.213319
C523	C	1.070237	0.453673	0.036681
C524	C	1.320237	0.703673	0.286681
C525	C	0.569473	-0.000067	-0.538937
C526	C	0.819473	0.249933	-0.288937
C527	C	1.069473	0.499933	-0.038937
C528	C	1.319473	0.749933	0.211063
C529	C	0.569224	0.046191	-0.564141
C530	C	0.819224	0.296191	-0.314141
C531	C	1.069224	0.546191	-0.064141
C532	C	1.319224	0.796191	0.185859
C533	C	0.569488	0.092446	-0.538930
C534	C	0.819488	0.342446	-0.288930
C535	C	1.069488	0.592446	-0.038930
C536	C	1.319488	0.842446	0.211070
C537	C	0.570005	0.092444	-0.488519
C538	C	0.820005	0.342444	-0.238519
C539	C	1.070005	0.592444	0.011481
C540	C	1.320005	0.842444	0.261481
C541	C	0.569973	-0.092582	-0.488530
C542	C	0.819973	0.157418	-0.238530
C543	C	1.069973	0.407418	0.011470
C544	C	1.319973	0.657418	0.261470
C545	C	0.569455	-0.092576	-0.538941
C546	C	0.819455	0.157424	-0.288941
C547	C	1.069455	0.407424	-0.038941
C548	C	1.319455	0.657424	0.211059
C549	C	0.569206	-0.046318	-0.564145
C550	C	0.819206	0.203682	-0.314145
C551	C	1.069206	0.453682	-0.064145
C552	C	1.319206	0.703682	0.185855
C553	C	0.566311	-0.000065	0.150287
C554	C	0.816311	0.249935	0.400287
C555	C	1.066311	0.499935	0.650287
C556	C	1.316311	0.749935	0.900287
C557	C	0.566854	-0.000057	0.203943
C558	C	0.816854	0.249943	0.453943
C559	C	1.066854	0.499943	0.703943
C560	C	1.316854	0.749943	0.953943
H561	H	0.808713	0.083840	0.059202
H562	H	1.058713	0.333840	0.309202
H563	H	1.308713	0.583840	0.559202
H564	H	1.558713	0.833840	0.809202
H565	H	0.663727	-0.371503	-0.031270
H566	H	0.913727	-0.121503	0.218730
H567	H	1.163727	0.128497	0.468730
H568	H	1.413727	0.378497	0.718730
O569	O	0.942402	-0.142436	0.060638
O570	O	1.192402	0.107564	0.310638
O571	O	1.442402	0.357564	0.560638
O572	O	1.692402	0.607564	0.810638
H573	H	0.956550	-0.164701	0.027803
H574	H	1.206550	0.085299	0.277803
H575	H	1.456550	0.335299	0.527803
H576	H	1.706550	0.585299	0.777803
H577	H	0.569240	-0.130248	-0.559461
H578	H	0.819240	0.119752	-0.309461
H579	H	1.069240	0.369752	-0.059461
H580	H	1.319240	0.619752	0.190539
H581	H	0.570177	-0.130252	-0.468014
H582	H	0.820177	0.119748	-0.218014
H583	H	1.070177	0.369748	0.031986
H584	H	1.320177	0.619748	0.281986
H585	H	0.949168	0.130104	0.060624
H586	H	1.199168	0.380104	0.310624
H587	H	1.449168	0.630104	0.560624
H588	H	1.699168	0.880104	0.810624
H589	H	0.574150	0.083830	-0.084863
H590	H	0.824150	0.333830	0.165137
H591	H	1.074150	0.583830	0.415137
H592	H	1.324150	0.833830	0.665137
O593	O	0.672492	-0.475455	-0.040018
O594	O	0.922492	-0.225455	0.209982
O595	O	1.172492	0.024545	0.459982
O596	O	1.422492	0.274545	0.709982
H597	H	0.695522	-0.447901	-0.063023
H598	H	0.945522	-0.197901	0.186977
H599	H	1.195522	0.052099	0.436977
H600	H	1.445522	0.302099	0.686977
O601	O	0.815389	-0.096245	0.059299
O602	O	1.065389	0.153755	0.309299
O603	O	1.315389	0.403755	0.559299
O604	O	1.565389	0.653755	0.809299
H605	H	0.833802	-0.098455	0.092492
H606	H	1.083802	0.151545	0.342492
H607	H	1.333802	0.401545	0.592492
H608	H	1.583802	0.651545	0.842492
O609	O	0.710596	-0.096247	0.058234
O610	O	0.960596	0.153753	0.308234
O611	O	1.210596	0.403753	0.558234
O612	O	1.460596	0.653753	0.808234
H613	H	0.736591	-0.128415	0.058505
H614	H	0.986591	0.121585	0.308505
H615	H	1.236591	0.371585	0.558505
H616	H	1.486591	0.621585	0.808505
O617	O	0.639343	-0.118737	-0.006908
O618	O	0.889343	0.131263	0.243092
O619	O	1.139343	0.381263	0.493092
O620	O	1.389343	0.631263	0.743092
H621	H	0.662684	-0.094401	0.013274
H622	H	0.912684	0.155599	0.263274
H623	H	1.162684	0.405599	0.513274
H624	H	1.412684	0.655599	0.763274
O625	O	1.093740	0.142337	0.062070
O626	O	1.343740	0.392337	0.312070
O627	O	1.593740	0.642337	0.562070
O628	O	1.843740	0.892337	0.812070
H629	H	1.119745	0.174499	0.062320
H630	H	1.369745	0.424499	0.312320
H631	H	1.619745	0.674499	0.562320
H632	H	1.869745	0.924499	0.812320
O633	O	0.639359	-0.229756	-0.006910
O634	O	0.889359	0.020244	0.243090
O635	O	1.139359	0.270244	0.493090
O636	O	1.389359	0.520244	0.743090
H637	H	0.662391	-0.202204	-0.029915
H638	H	0.912391	0.047796	0.220085
H639	H	1.162391	0.297796	0.470085
H640	H	1.412391	0.547796	0.720085
H641	H	1.332313	0.083868	0.064532
H642	H	1.582313	0.333868	0.314532
H643	H	1.832313	0.583868	0.564532
H644	H	2.082313	0.833868	0.814532
O645	O	0.710595	0.096054	0.058196
O646	O	0.960595	0.346054	0.308196
O647	O	1.210595	0.596054	0.558196
O648	O	1.460595	0.846054	0.808196
H649	H	0.736596	0.128219	0.058446
H650	H	0.986596	0.378219	0.308446
H651	H	1.236596	0.628219	0.558446
H652	H	1.486596	0.878219	0.808446
O653	O	0.501684	-0.770403	0.130664
O654	O	0.751684	-0.520403	0.380664
O655	O	1.001684	-0.270403	0.630664
O656	O	1.251684	-0.020403	0.880664
H657	H	0.478662	-0.797955	0.153680
H658	H	0.728662	-0.547955	0.403680
H659	H	0.978662	-0.297955	0.653680
H660	H	1.228662	-0.047955	0.903680
O661	O	0.672489	-0.635702	-0.040030
O662	O	0.922489	-0.385702	0.209970
O663	O	1.172489	-0.135702	0.459970
O664	O	1.422489	0.114298	0.709970
H665	H	0.695526	-0.608160	-0.063044
H666	H	0.945526	-0.358160	0.186956
H667	H	1.195526	-0.108160	0.436956
H668	H	1.445526	0.141840	0.686956
H669	H	1.100412	-0.130252	0.062188
H670	H	1.350412	0.119748	0.312188
H671	H	1.600412	0.369748	0.562188
H672	H	1.850412	0.619748	0.812188
O673	O	0.468559	-0.635702	0.163768
O674	O	0.718559	-0.385702	0.413768
O675	O	0.968559	-0.135702	0.663768
O676	O	1.218559	0.114298	0.913768
H677	H	0.430924	-0.625452	0.157872
H678	H	0.680924	-0.375452	0.407872
H679	H	0.930924	-0.125452	0.657872
H680	H	1.180924	0.124548	0.907872
O681	O	0.566818	-0.096207	-0.798041
O682	O	0.816818	0.153793	-0.548041
O683	O	1.066818	0.403793	-0.298041
O684	O	1.316818	0.653793	-0.048041
H685	H	0.567073	-0.128371	-0.772040
H686	H	0.817073	0.121629	-0.522040
H687	H	1.067073	0.371629	-0.272040
H688	H	1.317073	0.621629	-0.022040
O689	O	0.573139	0.096066	-0.182977
O690	O	0.823139	0.346066	0.067023
O691	O	1.073139	0.596066	0.317023
O692	O	1.323139	0.846066	0.567023
H693	H	0.539942	0.098291	-0.201382
H694	H	0.789942	0.348291	0.048618
H695	H	1.039942	0.598291	0.298618
H696	H	1.289942	0.848291	0.548618
O697	O	1.047280	0.142334	0.061621
O698	O	1.297280	0.392334	0.311621
O699	O	1.547280	0.642334	0.561621
O700	O	1.797280	0.892334	0.811621
H701	H	1.021274	0.174492	0.061357
H702	H	1.271274	0.424492	0.311357
H703	H	1.521274	0.674492	0.561357
H704	H	1.771274	0.924492	0.811357
O705	O	0.571836	0.142328	-0.310098
O706	O	0.821836	0.392328	-0.060098
O707	O	1.071836	0.642328	0.189902
O708	O	1.321836	0.892328	0.439902
H709	H	0.571568	0.174490	-0.336099
H710	H	0.821568	0.424490	-0.086099
H711	H	1.071568	0.674490	0.163901
H712	H	1.321568	0.924490	0.413901
O713	O	1.198519	-0.142476	0.063192
O714	O	1.448519	0.107524	0.313192
O715	O	1.698519	0.357524	0.563192
O716	O	1.948519	0.607524	0.813192
H717	H	1.226046	-0.144698	0.030468
H718	H	1.476046	0.105302	0.280468
H719	H	1.726046	0.355302	0.530468
H720	H	1.976046	0.605302	0.780468
O721	O	0.639375	-0.770383	-0.006940
O722	O	0.889375	-0.520383	0.243060
O723	O	1.139375	-0.270383	0.493060
O724	O	1.389375	-0.020383	0.743060
H725	H	0.677011	-0.780630	-0.001047
H726	H	0.927011	-0.530630	0.248953
H727	H	1.177011	-0.280630	0.498953
H728	H	1.427011	-0.030630	0.748953
H729	H	1.423770	-0.083983	0.065489
H730	H	1.673770	0.166017	0.315489
H731	H	1.923770	0.416017	0.565489
H732	H	2.173770	0.666017	0.815489
H733	H	1.423779	0.083867	0.065461
H734	H	1.673779	0.333867	0.315461
H735	H	1.923779	0.583867	0.565461
H736	H	2.173779	0.833867	0.815461
H737	H	1.332322	-0.083990	0.064546
H738	H	1.582322	0.166010	0.314546
H739	H	1.832322	0.416010	0.564546
H740	H	2.082322	0.666010	0.814546
O741	O	0.639383	-0.881413	-0.006944
O742	O	0.889383	-0.631413	0.243056
O743	O	1.139383	-0.381413	0.493056
O744	O	1.389383	-0.131413	0.743056
H745	H	0.633814	-0.923041	-0.001383
H746	H	0.883814	-0.673041	0.248617
H747	H	1.133814	-0.423041	0.498617
H748	H	1.383814	-0.173041	0.748617
H749	H	0.570224	0.130112	-0.467999
H750	H	0.820224	0.380112	-0.217999
H751	H	1.070224	0.630112	0.032001
H752	H	1.320224	0.880112	0.282001
O753	O	0.468547	-0.524700	0.163764
O754	O	0.718547	-0.274700	0.413764
O755	O	0.968547	-0.024700	0.663764
O756	O	1.218547	0.225300	0.913764
H757	H	0.445204	-0.500368	0.143582
H758	H	0.695204	-0.250368	0.393582
H759	H	0.945204	-0.000368	0.643582
H760	H	1.195204	0.249632	0.893582
H761	H	0.570836	0.130109	-0.408212
H762	H	0.820836	0.380109	-0.158212
H763	H	1.070836	0.630109	0.091788
H764	H	1.320836	0.880109	0.341788
H765	H	0.566915	0.083867	-0.791376
H766	H	0.816915	0.333867	-0.541376
H767	H	1.066915	0.583867	-0.291376
H768	H	1.316915	0.833867	-0.041376
H769	H	0.510448	-0.874358	0.121915
H770	H	0.760448	-0.624358	0.371915
H771	H	1.010448	-0.374358	0.621915
H772	H	1.260448	-0.124358	0.871915
H773	H	0.574118	-0.084019	-0.084867
H774	H	0.824118	0.165981	0.165133
H775	H	1.074118	0.415981	0.415133
H776	H	1.324118	0.665981	0.665133
H777	H	0.477289	-0.468403	0.155015
H778	H	0.727289	-0.218403	0.405015
H779	H	0.977289	0.031597	0.655015
H780	H	1.227289	0.281597	0.905015
H781	H	1.040616	-0.130263	0.061573
H782	H	1.290616	0.119737	0.311573
H783	H	1.540616	0.369737	0.561573
H784	H	1.790616	0.619737	0.811573
H785	H	0.477283	-0.371508	0.155014
H786	H	0.727283	-0.121508	0.405014
H787	H	0.977283	0.128492	0.655014
H788	H	1.227283	0.378492	0.905014
O789	O	0.501657	-0.229780	0.130686
O790	O	0.751657	0.020220	0.380686
O791	O	1.001657	0.270220	0.630686
O792	O	1.251657	0.520220	0.880686
H793	H	0.478623	-0.202235	0.153700
H794	H	0.728623	0.047765	0.403700
H795	H	0.978623	0.297765	0.653700
H796	H	1.228623	0.547765	0.903700
H797	H	0.510410	-0.125806	0.121945
H798	H	0.760410	0.124194	0.371945
H799	H	1.010410	0.374194	0.621945
H800	H	1.260410	0.624194	0.871945
O801	O	1.198526	0.142341	0.063141
O802	O	1.448526	0.392341	0.313141
O803	O	1.698526	0.642341	0.563141
O804	O	1.948526	0.892341	0.813141
H805	H	1.237817	0.134565	0.063534
H806	H	1.487817	0.384565	0.313534
H807	H	1.737817	0.634565	0.563534
H808	H	1.987817	0.884565	0.813534
H809	H	0.663733	-0.531738	-0.031281
H810	H	0.913733	-0.281738	0.218719
H811	H	1.163733	-0.031738	0.468719
H812	H	1.413733	0.218262	0.718719
H813	H	0.567853	0.083868	-0.699911
H814	H	0.817853	0.333868	-0.449911
H815	H	1.067853	0.583868	-0.199911
H816	H	1.317853	0.833868	0.050089
H817	H	0.567819	-0.083990	-0.699923
H818	H	0.817819	0.166010	-0.449923
H819	H	1.067819	0.416010	-0.199923
H820	H	1.317819	0.666010	0.050077
O821	O	0.570707	-0.142488	-0.414882
O822	O	0.820707	0.107512	-0.164882
O823	O	1.070707	0.357512	0.085118
O824	O	1.320707	0.607512	0.335118
H825	H	0.537838	-0.164655	-0.400646
H826	H	0.787838	0.085345	-0.150646
H827	H	1.037838	0.335345	0.099354
H828	H	1.287838	0.585345	0.349354
O829	O	0.571783	-0.142489	-0.310099
O830	O	0.821783	0.107511	-0.060099
O831	O	1.071783	0.357511	0.189901
O832	O	1.321783	0.607511	0.439901
H833	H	0.571514	-0.174651	-0.336102
H834	H	0.821514	0.075349	-0.086102
H835	H	1.071514	0.325349	0.163898
H836	H	1.321514	0.575349	0.413898
O837	O	0.573107	-0.096242	-0.183001
O838	O	0.823107	0.153758	0.066999
O839	O	1.073107	0.403758	0.316999
O840	O	1.323107	0.653758	0.566999
H841	H	0.573366	-0.128408	-0.157003
H842	H	0.823366	0.121592	0.092997
H843	H	1.073366	0.371592	0.342997
H844	H	1.323366	0.621592	0.592997
H845	H	0.569286	0.130111	-0.559460
H846	H	0.819286	0.380111	-0.309460
H847	H	1.069286	0.630111	-0.059460
H848	H	1.319286	0.880111	0.190540
