data_functionalizedCrystal
_audit_creation_method	'MofGen! by Chris Wilmer'
_symmetry_space_group_name_H-M	'P1'
_symmetry_Int_Tables_number	1
_symmetry_cell_setting	triclinic
loop_
_symmetry_equiv_pos_as_xyz
  x,y,z
_cell_length_a	10.723023
_cell_length_b	15.021413
_cell_length_c	10.723023
_cell_angle_alpha	90.005063
_cell_angle_beta	95.532452
_cell_angle_gamma	90.006925
loop_
_atom_site_label
_atom_site_type_symbol
_atom_site_fract_x
_atom_site_fract_y
_atom_site_fract_z
O1	O	1.657195	0.074021	-0.175006
O2	O	1.294043	0.074024	-0.191760
O3	O	1.483996	0.074019	-0.001807
O4	O	1.467242	0.074026	-0.364959
O5	O	1.483966	-0.074045	-0.001834
O6	O	1.294013	-0.074040	-0.191787
O7	O	1.657165	-0.074043	-0.175033
Zn8	Zn	1.475584	-0.097550	-0.183415
Zn9	Zn	1.475624	0.097531	-0.183379
O10	O	1.467212	-0.074038	-0.364987
C11	C	1.247528	-0.000007	-0.190555
C12	C	1.108974	-0.000006	-0.186908
C13	C	0.904022	0.076696	-0.181498
C14	C	1.047225	0.076696	-0.185268
N15	N	1.475566	-0.230688	-0.183438
C16	C	1.387718	-0.470368	-0.271231
C17	C	1.500687	-0.529703	-0.296417
C18	C	1.475598	-0.412294	-0.183407
C19	C	1.362659	-0.529701	-0.158250
C20	C	1.475618	-0.587719	-0.183380
C21	C	1.588624	-0.470323	-0.208650
C22	C	1.450522	-0.470316	-0.070433
C23	C	1.563572	-0.529624	-0.095572
C24	C	1.475584	-0.311237	-0.183426
C25	C	1.475645	-0.688774	-0.183361
C26	C	1.703680	-0.000010	-0.176239
C27	C	1.842234	-0.000005	-0.179886
C28	C	1.482762	-0.000012	0.044679
C29	C	1.479115	-0.000009	0.183233
N30	N	1.475652	0.230669	-0.183345
C31	C	1.468446	-0.000005	-0.411473
C32	C	1.472093	-0.000002	-0.550027
C33	C	1.473703	-0.076705	0.388193
C34	C	1.477473	-0.076709	0.244990
H35	H	1.100360	0.142363	-0.186662
N36	N	1.236136	-0.564242	-0.130063
H37	H	1.245941	-0.601227	-0.051071
H38	H	1.199317	-0.602161	-0.202223
N39	N	1.662119	-0.563885	0.002828
H40	H	1.707161	-0.511956	0.046811
H41	H	1.724241	-0.601764	-0.038425
H42	H	1.472285	-0.142369	0.441318
H43	H	1.055845	-0.065676	-0.185528
N44	N	1.715175	-0.435922	-0.236976
H45	H	1.734323	-0.458051	-0.322008
H46	H	1.781536	-0.457987	-0.170980
H47	H	1.429259	-0.444210	0.025064
H48	H	0.895354	-0.065671	-0.181291
H49	H	1.478864	-0.142378	0.191862
H50	H	1.477736	0.065662	0.236355
N51	N	1.289377	-0.435908	-0.369689
H52	H	1.330603	-0.397982	-0.431784
H53	H	1.226358	-0.398947	-0.328275
N54	N	0.833679	0.163684	-0.179614
H55	H	0.741351	0.151354	-0.177183
H56	H	0.846919	0.198956	-0.257429
N57	N	1.528817	-0.564259	-0.422947
H58	H	1.462382	-0.542710	-0.489244
H59	H	1.529451	-0.631486	-0.421640
H60	H	1.473495	0.065663	0.396846
