data_functionalizedCrystal
_audit_creation_method	'MofGen! by Chris Wilmer'
_symmetry_space_group_name_H-M	'P1'
_symmetry_Int_Tables_number	1
_symmetry_cell_setting	triclinic
loop_
_symmetry_equiv_pos_as_xyz
  x,y,z
_cell_length_a	19.188930
_cell_length_b	10.654550
_cell_length_c	9.130313
_cell_angle_alpha	90.004369
_cell_angle_beta	89.982598
_cell_angle_gamma	96.185145
loop_
_atom_site_label
_atom_site_type_symbol
_atom_site_fract_x
_atom_site_fract_y
_atom_site_fract_z
O1	O	0.927169	-0.156780	-0.122270
O2	O	1.427169	0.343220	0.377730
O3	O	0.723996	-0.177885	-0.122170
O4	O	1.223996	0.322115	0.377830
O5	O	0.830254	0.015506	-0.122213
O6	O	1.330254	0.515506	0.377787
O7	O	0.820911	-0.350170	-0.122227
O8	O	1.320911	0.149830	0.377773
O9	O	0.830247	0.015511	0.121386
O10	O	1.330247	0.515511	0.621386
O11	O	0.723989	-0.177879	0.121429
O12	O	1.223989	0.322121	0.621429
O13	O	0.927162	-0.156774	0.121329
O14	O	1.427162	0.343226	0.621329
Cu15	Cu	0.825575	-0.167326	0.143621
Cu16	Cu	1.325575	0.332674	0.643621
Cu17	Cu	0.825583	-0.167333	-0.144463
Cu18	Cu	1.325583	0.332667	0.355537
O19	O	0.820904	-0.350165	0.121372
O20	O	1.320904	0.149835	0.621372
C21	C	0.697977	-0.177199	-0.000358
C22	C	1.197977	0.322801	0.499642
C23	C	0.620459	-0.175147	-0.000319
C24	C	1.120459	0.324853	0.499681
C25	C	0.829564	0.062292	-0.000414
C26	C	1.329564	0.562292	0.499586
C27	C	0.827512	0.201692	-0.000415
C28	C	1.327512	0.701692	0.499585
N29	N	0.825574	-0.167321	0.346244
N30	N	1.325574	0.332679	0.846244
C31	C	0.576277	-0.288622	-0.000346
C32	C	1.076277	0.211378	0.499654
C33	C	0.503441	-0.286695	-0.000362
C34	C	1.003441	0.213305	0.499638
C35	C	0.474789	-0.171286	-0.000381
C36	C	0.974789	0.328714	0.499619
C37	C	0.518981	-0.057795	-0.000345
C38	C	1.018981	0.442205	0.499655
C39	C	0.591816	-0.059726	-0.000314
C40	C	1.091816	0.440274	0.499686
N41	N	0.366235	-0.083071	-0.083343
N42	N	0.866235	0.416929	0.416657
N43	N	0.297044	-0.081245	-0.083376
N44	N	0.797044	0.418755	0.416624
C45	C	0.255343	-0.165461	-0.000470
C46	C	0.755343	0.334539	0.499530
N47	N	0.285444	-0.251592	0.082451
N48	N	0.785444	0.248408	0.582451
N49	N	0.354641	-0.253423	0.082477
N50	N	0.854641	0.246577	0.582477
C51	C	0.395813	-0.169179	-0.000413
C52	C	0.895813	0.330821	0.499587
C53	C	0.132183	-0.276855	-0.000512
C54	C	0.632183	0.223145	0.499488
C55	C	0.059345	-0.274922	-0.000519
C56	C	0.559345	0.225078	0.499481
C57	C	0.074887	-0.046020	-0.000517
C58	C	0.574887	0.453980	0.499483
C59	C	0.147723	-0.047955	-0.000495
C60	C	0.647723	0.452045	0.499505
C61	C	0.176366	-0.163376	-0.000500
C62	C	0.676366	0.336624	0.499500
C63	C	0.953181	-0.157460	-0.000487
C64	C	1.453181	0.342540	0.499513
C65	C	1.030699	-0.159512	-0.000535
C66	C	1.530699	0.340488	0.499465
C67	C	0.821594	-0.396951	-0.000430
C68	C	1.321594	0.103049	0.499570
C69	C	0.823646	-0.536351	-0.000439
C70	C	1.323646	-0.036351	0.499561
C71	C	0.890075	0.282501	-0.000447
C72	C	1.390075	0.782501	0.499553
C73	C	0.888142	0.413481	-0.000464
C74	C	1.388142	0.913481	0.499536
C75	C	0.761078	0.382829	-0.000412
C76	C	1.261078	0.882829	0.499588
C77	C	0.763011	0.251852	-0.000405
C78	C	1.263011	0.751852	0.499595
N79	N	0.825590	-0.167328	-0.347085
N80	N	1.325590	0.332672	0.152915
C81	C	0.872641	-0.081723	0.422877
C82	C	1.372641	0.418277	0.922877
C83	C	0.872647	-0.081723	0.576213
C84	C	1.372647	0.418277	1.076213
C85	C	0.778518	-0.252930	0.576271
C86	C	1.278518	0.247070	1.076271
C87	C	0.778508	-0.252923	0.422937
C88	C	1.278508	0.247077	0.922937
H89	H	0.599593	-0.382607	-0.000353
H90	H	1.099593	0.117393	0.499647
Cl91	Cl	0.966797	0.515066	-0.000506
Cl92	Cl	1.466797	1.015066	0.499494
H93	H	0.740177	-0.322628	0.360539
H94	H	1.240177	0.177372	0.860539
Cl95	Cl	0.931818	0.025892	0.672547
Cl96	Cl	1.431818	0.525892	1.172547
Cl97	Cl	0.447887	-0.429360	-0.000393
Cl98	Cl	0.947887	0.070640	0.499607
Cl99	Cl	0.931806	0.025896	0.326468
Cl100	Cl	1.431806	0.525896	0.826468
H101	H	0.708564	0.423686	-0.000401
H102	H	1.208564	0.923686	0.499599
H103	H	0.627789	0.032682	-0.000293
H104	H	1.127789	0.532682	0.499707
Cl105	Cl	0.684354	0.150255	-0.000379
Cl106	Cl	1.184354	0.650255	0.499621
H107	H	0.740199	-0.322627	0.638730
H108	H	1.240199	0.177373	1.138730
H109	H	0.495648	0.036172	-0.000380
H110	H	0.995648	0.536172	0.499620
H111	H	0.942595	0.241666	-0.000458
H112	H	1.442595	0.741666	0.499542
H113	H	0.051560	0.047949	-0.000622
H114	H	0.551560	0.547949	0.499378
Cl115	Cl	0.203269	0.094708	-0.000470
Cl116	Cl	0.703269	0.594708	0.499530
H117	H	0.155505	-0.370837	-0.000495
H118	H	0.655505	0.129163	0.499505
H119	H	0.023373	-0.367332	-0.000533
H120	H	0.523373	0.132668	0.499467
