data_functionalizedCrystal
_audit_creation_method	'MofGen! by Chris Wilmer'
_symmetry_space_group_name_H-M	'P1'
_symmetry_Int_Tables_number	1
_symmetry_cell_setting	triclinic
loop_
_symmetry_equiv_pos_as_xyz
  x,y,z
_cell_length_a	13.897449
_cell_length_b	18.050589
_cell_length_c	13.897441
_cell_angle_alpha	90.027672
_cell_angle_beta	89.976606
_cell_angle_gamma	89.964475
loop_
_atom_site_label
_atom_site_type_symbol
_atom_site_fract_x
_atom_site_fract_y
_atom_site_fract_z
Zn1	Zn	1.474589	0.295619	-0.545469
Zn2	Zn	1.474435	0.419824	-0.384179
Zn3	Zn	1.313278	0.295654	-0.384180
Zn4	Zn	1.313212	0.419774	-0.545424
O5	O	1.393878	0.357718	-0.464813
O6	O	1.609550	0.312102	-0.524092
O7	O	1.453020	0.403387	-0.249197
O8	O	1.334768	0.191725	-0.405595
O9	O	1.609437	0.403354	-0.405593
O10	O	1.453283	0.191699	-0.524093
O11	O	1.334619	0.312160	-0.249198
O12	O	1.178287	0.312112	-0.405551
O13	O	1.334655	0.403269	-0.680412
O14	O	1.178239	0.403303	-0.524016
O15	O	1.453218	0.312054	-0.680445
O16	O	1.452956	0.523742	-0.405549
O17	O	1.334506	0.523705	-0.524015
C18	C	1.143264	0.357706	-0.464779
C19	C	1.036050	0.357719	-0.464788
C20	C	0.948980	0.357722	-0.464804
C21	C	0.839748	0.357727	-0.464833
C22	C	1.393733	0.550670	-0.464798
C23	C	1.393760	0.633216	-0.464824
C24	C	1.329381	0.832673	-0.529224
C25	C	1.305856	0.882119	-0.441204
C26	C	1.393832	0.784346	-0.464837
C27	C	1.417382	0.881982	-0.552867
C28	C	1.393901	0.930331	-0.464858
C29	C	1.370262	0.832704	-0.376771
C30	C	1.481829	0.832563	-0.488493
C31	C	1.458338	0.881986	-0.400413
C32	C	1.393791	0.700248	-0.464826
C33	C	1.393943	1.014428	-0.464858
C34	C	1.645471	0.357730	-0.464847
C35	C	1.752685	0.357735	-0.464862
C36	C	1.393947	0.357652	-0.716406
C37	C	1.393976	0.357624	-0.823620
C38	C	1.394013	1.164012	-0.464850
C39	C	1.393976	1.081466	-0.464869
C40	C	1.394002	0.357574	-1.019915
C41	C	1.393985	0.357604	-0.910683
C42	C	1.393866	0.357729	-0.214199
C43	C	1.394023	0.357548	-0.106985
H44	H	1.274805	0.811020	-0.583596
O45	O	1.441235	0.907894	-0.641594
C46	C	1.525752	0.950767	-0.635046
H47	H	1.534349	0.972090	-0.558306
H48	H	1.520664	0.999705	-0.686619
H49	H	1.590583	0.915175	-0.654917
O50	O	1.217186	0.908216	-0.417310
C51	C	1.218684	0.986316	-0.416825
H52	H	1.295623	1.006418	-0.405669
H53	H	1.171245	1.007733	-0.355913
H54	H	1.190397	1.007951	-0.488497
O55	O	1.523288	0.907628	-0.335264
C56	C	1.498151	0.882368	-0.242623
H57	H	1.418117	0.868641	-0.240711
H58	H	1.514391	0.927447	-0.187503
H59	H	1.541617	0.830594	-0.224742
H60	H	1.350284	0.811148	-0.302313
O61	O	1.570500	0.806448	-0.512327
C62	C	1.569419	0.728348	-0.511135
H63	H	1.508447	0.708281	-0.462855
H64	H	1.640984	0.706942	-0.482252
H65	H	1.557952	0.706668	-0.587331
