data_functionalizedCrystal
_audit_creation_method	'MofGen! by Chris Wilmer'
_symmetry_space_group_name_H-M	'P1'
_symmetry_Int_Tables_number	1
_symmetry_cell_setting	triclinic
loop_
_symmetry_equiv_pos_as_xyz
  x,y,z
_cell_length_a	17.699083
_cell_length_b	14.971486
_cell_length_c	13.448316
_cell_angle_alpha	90.007486
_cell_angle_beta	90.004616
_cell_angle_gamma	96.551428
loop_
_atom_site_label
_atom_site_type_symbol
_atom_site_fract_x
_atom_site_fract_y
_atom_site_fract_z
O1	O	1.004350	-0.113114	-0.082553
O2	O	0.784008	-0.127830	-0.082586
O3	O	0.900085	0.009748	-0.082561
O4	O	0.888274	-0.250693	-0.082577
O5	O	0.900083	0.009760	0.082823
O6	O	0.784006	-0.127819	0.082798
O7	O	1.004348	-0.113102	0.082831
Cu8	Cu	0.894177	-0.120459	0.097915
Cu9	Cu	0.894180	-0.120473	-0.097670
O10	O	0.888271	-0.250681	0.082807
C11	C	0.755809	-0.127297	0.000102
C12	C	0.671787	-0.125715	0.000090
C13	C	0.623365	-0.206471	0.000085
C14	C	0.544418	-0.204979	0.000098
C15	C	0.513894	-0.122731	0.000109
C16	C	0.562323	-0.041969	0.000116
C17	C	0.641268	-0.043462	0.000111
C18	C	0.243945	-0.035947	0.000141
C19	C	0.164993	-0.034461	0.000144
C20	C	0.147094	-0.197465	0.000129
C21	C	0.226040	-0.198958	0.000123
C22	C	0.274461	-0.118196	0.000136
C23	C	0.360064	-0.119815	0.000124
C24	C	0.428293	-0.121111	0.000114
C25	C	0.899556	0.043077	0.000130
C26	C	0.897973	0.142368	0.000129
C27	C	1.032547	-0.113636	0.000141
C28	C	1.116569	-0.115218	0.000147
C29	C	0.888801	-0.284010	0.000113
C30	C	0.890384	-0.383301	0.000108
C31	C	0.966165	0.199828	0.000140
C32	C	0.964673	0.293123	0.000130
C33	C	0.894988	0.328955	0.000116
C34	C	0.826791	0.271488	0.000102
C35	C	0.828284	0.178196	0.000105
C36	C	0.823685	0.465940	0.000098
C37	C	0.822192	0.559239	0.000097
C38	C	0.960074	0.580867	0.000123
C39	C	0.961566	0.487574	0.000126
C40	C	0.893369	0.430114	0.000114
N41	N	0.894182	-0.120477	-0.235234
C42	C	0.945677	-0.059676	-0.287264
C43	C	0.945680	-0.059674	-0.391367
C44	C	0.894184	-0.120468	-0.443439
C45	C	0.842687	-0.181275	-0.391402
C46	C	0.842688	-0.181281	-0.287301
C47	C	0.842687	-0.181256	-0.608382
C48	C	0.842685	-0.181249	-0.712491
C49	C	0.945679	-0.059649	-0.712449
C50	C	0.945680	-0.059655	-0.608347
C51	C	0.894182	-0.120461	-0.556318
N52	N	0.894180	-0.120449	0.235480
H53	H	0.504995	-0.270739	0.000093
C54	C	0.786041	-0.248161	-0.230064
C55	C	0.786043	-0.248174	-0.115557
C56	C	0.729397	-0.315059	-0.058321
C57	C	0.672750	-0.381931	-0.115593
C58	C	0.672747	-0.381920	-0.230107
C59	C	0.729393	-0.315035	-0.287342
H60	H	0.827978	-0.198669	-0.073155
H61	H	0.729400	-0.315066	0.026450
H62	H	0.630818	-0.431443	-0.073224
H63	H	0.630812	-0.431425	-0.272508
H64	H	0.729390	-0.315027	-0.372113
H65	H	0.537465	0.024999	0.000139
H66	H	0.800753	-0.230755	-0.754882
H67	H	1.020202	0.339903	0.000141
C68	C	1.002325	0.007200	-0.229991
C69	C	1.058996	0.074044	-0.287228
C70	C	1.115648	0.140920	-0.229958
C71	C	1.115627	0.140951	-0.115451
C72	C	1.058954	0.074104	-0.058207
C73	C	1.002302	0.007228	-0.115477
H74	H	1.059013	0.074023	-0.371999
H75	H	1.157601	0.190405	-0.272335
H76	H	1.157564	0.190457	-0.073056
H77	H	1.058937	0.074125	0.026564
H78	H	0.960349	-0.042256	-0.073100
C79	C	0.748668	0.402730	0.000085
C80	C	0.691587	0.406619	-0.085801
C81	C	0.616574	0.343408	-0.085808
C82	C	0.598642	0.276307	0.000070
C83	C	0.655724	0.272415	0.085962
C84	C	0.730737	0.335626	0.085970
H85	H	0.704860	0.456294	-0.149378
H86	H	0.574318	0.346290	-0.149392
H87	H	0.543112	0.229514	0.000064
H88	H	0.642451	0.222740	0.149540
H89	H	0.772994	0.332744	0.149553
H90	H	0.770052	0.300671	0.000084
H91	H	0.680693	0.022298	0.000114
H92	H	1.022910	0.170661	0.000157
H93	H	0.772754	0.131412	0.000096
H94	H	0.987612	-0.010166	-0.433729
H95	H	1.018310	0.458403	0.000144
H96	H	0.648210	-0.273447	0.000076
C97	C	0.785946	-0.247926	-0.551013
C98	C	0.699814	-0.246078	-0.565332
C99	C	0.643026	-0.312639	-0.507897
C100	C	0.672371	-0.381047	-0.436144
C101	C	0.758507	-0.382897	-0.421821
C102	C	0.815294	-0.316337	-0.479256
H103	H	0.678087	-0.195436	-0.618451
H104	H	0.579262	-0.311269	-0.518500
H105	H	0.630333	-0.430319	-0.393627
H106	H	0.780233	-0.433539	-0.368702
H107	H	0.879058	-0.317707	-0.468653
H108	H	0.250887	-0.265933	0.000110
H109	H	0.107660	-0.263225	0.000124
H110	H	0.140145	0.032519	0.000154
H111	H	0.283361	0.029814	0.000153
H112	H	1.015603	0.627656	0.000129
H113	H	0.765448	0.588411	0.000101
H114	H	0.987608	-0.010148	-0.565951
H115	H	0.987611	-0.010140	-0.754817
H116	H	0.800761	-0.230779	-0.433805
