data_functionalizedCrystal
_audit_creation_method	'MofGen! by Chris Wilmer'
_symmetry_space_group_name_H-M	'P1'
_symmetry_Int_Tables_number	1
_symmetry_cell_setting	triclinic
loop_
_symmetry_equiv_pos_as_xyz
  x,y,z
_cell_length_a	14.853558
_cell_length_b	14.853567
_cell_length_c	13.930277
_cell_angle_alpha	90.000757
_cell_angle_beta	90.006691
_cell_angle_gamma	83.633032
loop_
_atom_site_label
_atom_site_type_symbol
_atom_site_fract_x
_atom_site_fract_y
_atom_site_fract_z
O1	O	1.196374	0.117664	0.079811
O2	O	0.933913	0.131694	0.079814
O3	O	1.072154	-0.006551	0.079815
O4	O	1.058133	0.255909	0.079810
O5	O	1.072135	-0.006554	-0.079846
O6	O	0.933894	0.131691	-0.079847
O7	O	1.196354	0.117661	-0.079851
Zn8	Zn	1.065121	0.124675	-0.105199
Zn9	Zn	1.065146	0.124679	0.105162
O10	O	1.058113	0.255906	-0.079852
C11	C	0.900314	0.131058	-0.000016
C12	C	0.800230	0.129158	-0.000014
C13	C	0.753221	0.128268	0.087021
C14	C	0.753198	0.128254	-0.087048
C15	C	0.659164	0.126464	-0.087050
C16	C	0.612155	0.125574	-0.000015
C17	C	0.659179	0.126475	0.087022
C18	C	0.612135	0.125553	-0.174085
C19	C	0.518095	0.123762	-0.174090
C20	C	0.471083	0.122879	-0.087054
C21	C	0.518113	0.123781	-0.000014
C22	C	0.471103	0.122891	0.087022
C23	C	0.518130	0.123799	0.174063
C24	C	0.612166	0.125591	0.174059
C25	C	0.377047	0.121087	-0.087049
C26	C	0.377061	0.121098	0.087023
C27	C	1.071509	-0.040141	-0.000013
C28	C	1.069605	-0.140225	-0.000004
C29	C	0.979439	-0.552756	-0.000021
C30	C	1.143673	-0.574042	-0.000024
C31	C	1.145463	-0.480009	-0.000018
C32	C	1.064240	-0.422344	-0.000015
C33	C	0.981227	-0.458713	-0.000019
C34	C	1.228474	-0.443632	-0.000024
C35	C	1.230268	-0.349593	-0.000020
C36	C	1.149044	-0.291927	-0.000011
C37	C	1.066027	-0.328301	-0.000013
C38	C	0.984805	-0.270637	-0.000010
C39	C	0.901787	-0.307009	-0.000006
C40	C	0.900003	-0.401047	-0.000009
C41	C	1.150828	-0.197890	-0.000007
C42	C	0.986592	-0.176594	-0.000008
C43	C	1.229953	0.118296	-0.000019
C44	C	1.330037	0.120197	-0.000014
C45	C	1.058758	0.289496	-0.000022
C46	C	1.060662	0.389580	-0.000024
N47	N	1.065110	0.124672	-0.248765
C48	C	1.003931	0.185870	-0.701035
C49	C	1.126387	0.063481	-0.701003
C50	C	1.126376	0.063478	-0.600508
C51	C	1.065143	0.124673	-0.550271
C52	C	1.003920	0.185871	-0.600530
C53	C	1.187604	0.002288	-0.550241
C54	C	1.187596	0.002283	-0.449739
C55	C	1.126358	0.063475	-0.399501
C56	C	1.065132	0.124674	-0.449766
C57	C	1.003898	0.185869	-0.399529
C58	C	0.942668	0.247065	-0.449792
C59	C	0.942682	0.247062	-0.550291
C60	C	1.126344	0.063477	-0.299002
C61	C	1.003888	0.185870	-0.299024
N62	N	1.065164	0.124675	0.248728
H63	H	0.338791	0.120379	0.157899
H64	H	0.479843	0.123070	0.244927
C65	C	1.321588	-0.309592	-0.000018
N66	N	1.390371	-0.279463	-0.000012
H67	H	0.479814	0.123021	-0.244965
H68	H	0.791480	0.128971	-0.157909
C69	C	1.233013	-0.637476	-0.000031
N70	N	1.300307	-0.685258	-0.000035
C71	C	0.936574	0.253176	-0.756324
N72	N	0.885839	0.303870	-0.797970
C73	C	0.663904	0.126579	0.269795
N74	N	0.702878	0.127317	0.341904
C75	C	0.804951	0.129264	0.182762
N76	N	0.843915	0.130011	0.254875
H77	H	0.650418	0.126270	-0.244945
H78	H	0.911848	-0.582375	-0.000014
C79	C	0.875314	0.314378	-0.394519
N80	N	0.824584	0.365075	-0.352883
C81	C	0.812445	-0.243567	-0.000003
N82	N	0.745155	-0.195778	0.000001
C83	C	1.317813	-0.507068	-0.000034
N84	N	1.385106	-0.554852	-0.000040
H85	H	0.338760	0.120355	-0.157917
C86	C	0.897238	-0.113170	-0.000002
N87	N	0.829936	-0.065399	0.000002
H88	H	1.237462	-0.047531	-0.591147
H89	H	1.218419	-0.168279	-0.000017
H90	H	0.832414	-0.430670	-0.000007
C91	C	0.936547	0.253213	-0.243772
N92	N	0.885836	0.303946	-0.202156
C93	C	0.875329	0.314367	-0.605588
N94	N	0.824599	0.365059	-0.647242
H95	H	1.176246	0.013663	-0.741909
C96	C	1.254943	-0.065040	-0.394459
N97	N	1.305667	-0.115751	-0.352821
C98	C	1.193694	-0.003833	-0.243717
N99	N	1.244424	-0.054537	-0.202077
