data_functionalizedCrystal
_audit_creation_method	'MofGen! by Chris Wilmer'
_symmetry_space_group_name_H-M	'P1'
_symmetry_Int_Tables_number	1
_symmetry_cell_setting	triclinic
loop_
_symmetry_equiv_pos_as_xyz
  x,y,z
_cell_length_a	11.792254
_cell_length_b	18.266242
_cell_length_c	11.792241
_cell_angle_alpha	89.994757
_cell_angle_beta	95.803993
_cell_angle_gamma	90.008886
loop_
_atom_site_label
_atom_site_type_symbol
_atom_site_fract_x
_atom_site_fract_y
_atom_site_fract_z
O1	O	1.506908	0.060881	-0.155636
O2	O	1.176568	0.060882	-0.171654
O3	O	1.349754	0.060876	0.001525
O4	O	1.333722	0.060887	-0.328815
O5	O	1.349725	-0.060886	0.001530
O6	O	1.176539	-0.060880	-0.171649
O7	O	1.506878	-0.060881	-0.155631
Zn8	Zn	1.341703	-0.080213	-0.163639
Zn9	Zn	1.341743	0.080214	-0.163646
O10	O	1.333692	-0.060875	-0.328810
C11	C	1.134263	0.000001	-0.170642
C12	C	1.008250	0.000002	-0.167622
N13	N	1.341685	-0.189700	-0.163634
C14	C	0.905913	0.000005	-0.165168
C15	C	0.777527	0.000005	-0.162100
C16	C	1.410935	-0.228001	-0.232946
C17	C	1.410954	-0.304646	-0.232943
C18	C	1.341702	-0.342987	-0.163641
C19	C	1.272447	-0.304677	-0.094315
C20	C	1.272439	-0.228033	-0.094311
N21	N	1.242270	-0.463339	-0.159925
N22	N	1.242281	-0.536147	-0.159935
C23	C	1.341724	-0.573909	-0.163645
N24	N	1.441157	-0.536113	-0.167368
N25	N	1.441145	-0.463298	-0.167364
C26	C	1.341703	-0.426094	-0.163636
C27	C	1.411000	-0.695317	-0.232958
C28	C	1.411022	-0.771963	-0.232946
C29	C	1.272504	-0.771993	-0.094325
C30	C	1.272494	-0.695348	-0.094330
C31	C	1.341740	-0.657015	-0.163652
C32	C	1.549183	0.000001	-0.156643
C33	C	1.675196	0.000005	-0.159663
C34	C	1.348732	-0.000004	0.043819
C35	C	1.345718	-0.000004	0.169832
N36	N	1.341770	0.189701	-0.163642
C37	C	1.334714	0.000007	-0.371104
C38	C	1.337728	0.000011	-0.497118
C39	C	1.340175	0.000009	0.400545
C40	C	1.343255	0.000002	0.272160
H41	H	1.467325	-0.196794	-0.289389
F42	F	1.484663	-0.345416	-0.306716
F43	F	1.198747	-0.345483	-0.020556
H44	H	1.216098	-0.664163	-0.037893
F45	F	1.198725	-0.187269	-0.020541
H46	H	1.467386	-0.664104	-0.289403
F47	F	1.198811	-0.812793	-0.020557
H48	H	1.467421	-0.803147	-0.289385
