data_functionalizedCrystal
_audit_creation_method	'MofGen! by Chris Wilmer'
_symmetry_space_group_name_H-M	'P1'
_symmetry_Int_Tables_number	1
_symmetry_cell_setting	triclinic
loop_
_symmetry_equiv_pos_as_xyz
  x,y,z
_cell_length_a	16.959453
_cell_length_b	21.395362
_cell_length_c	21.395355
_cell_angle_alpha	89.956060
_cell_angle_beta	90.017325
_cell_angle_gamma	89.964134
loop_
_atom_site_label
_atom_site_type_symbol
_atom_site_fract_x
_atom_site_fract_y
_atom_site_fract_z
Zn1	Zn	-0.314438	-0.957906	0.354591
Zn2	Zn	0.185562	-0.457906	0.854591
Zn3	Zn	-0.446599	-0.957828	0.249816
Zn4	Zn	0.053401	-0.457828	0.749816
Zn5	Zn	-0.314475	-0.853121	0.249792
Zn6	Zn	0.185525	-0.353121	0.749792
Zn7	Zn	-0.446615	-0.853110	0.354520
Zn8	Zn	0.053385	-0.353110	0.854520
O9	O	-0.380532	-0.905491	0.302180
O10	O	0.119468	-0.405491	0.802180
O11	O	-0.331947	-1.045574	0.340731
O12	O	0.168053	-0.545574	0.840731
O13	O	-0.429081	-0.943911	0.162134
O14	O	0.070919	-0.443911	0.662134
O15	O	-0.203859	-0.867058	0.263714
O16	O	0.296141	-0.367058	0.763714
O17	O	-0.429045	-1.045516	0.263754
O18	O	0.070955	-0.545516	0.763754
O19	O	-0.203832	-0.944043	0.340709
O20	O	0.296168	-0.444043	0.840709
O21	O	-0.332010	-0.866983	0.162117
O22	O	0.167990	-0.366983	0.662117
O23	O	-0.332026	-0.765442	0.263645
O24	O	0.167974	-0.265442	0.763645
O25	O	-0.429073	-0.867039	0.442208
O26	O	0.070927	-0.367039	0.942208
O27	O	-0.429109	-0.765433	0.340588
O28	O	0.070891	-0.265433	0.840588
O29	O	-0.331963	-0.944033	0.442259
O30	O	0.168037	-0.444033	0.942259
O31	O	-0.557212	-0.943900	0.263685
O32	O	-0.057212	-0.443900	0.763685
O33	O	-0.557224	-0.866964	0.340611
O34	O	-0.057224	-0.366964	0.840611
C35	C	-0.380574	-0.742704	0.302107
C36	C	0.119426	-0.242704	0.802107
C37	C	-0.380610	-0.673062	0.302091
C38	C	0.119390	-0.173062	0.802091
C39	C	-0.585898	-0.905439	0.302157
C40	C	-0.085898	-0.405439	0.802157
C41	C	-0.673755	-0.905474	0.302168
C42	C	-0.173755	-0.405474	0.802168
C43	C	-0.380516	-0.905543	0.465603
C44	C	0.119484	-0.405543	0.965603
C45	C	-0.380509	-0.905566	0.535244
C46	C	0.119491	-0.405566	1.035244
C47	C	-1.045158	-0.945629	0.342347
C48	C	-0.545158	-0.445629	0.842347
C49	C	-1.045303	-0.865529	0.262106
C50	C	-0.545303	-0.365529	0.762106
C51	C	-0.962757	-0.865506	0.262091
C52	C	-0.462757	-0.365506	0.762091
C53	C	-0.921408	-0.905544	0.302206
C54	C	-0.421408	-0.405544	0.802206
C55	C	-0.962604	-0.945605	0.342335
C56	C	-0.462604	-0.445605	0.842335
C57	C	-0.921554	-0.825440	0.221968
C58	C	-0.421554	-0.325440	0.721968
C59	C	-0.839003	-0.825415	0.221952
C60	C	-0.339003	-0.325415	0.721952
C61	C	-0.797652	-0.865457	0.262064
C62	C	-0.297652	-0.365457	0.762064
C63	C	-0.838854	-0.905521	0.302194
C64	C	-0.338854	-0.405521	0.802194
C65	C	-0.797505	-0.945559	0.342309
C66	C	-0.297505	-0.445559	0.842309
C67	C	-0.838705	-0.985626	0.382436
C68	C	-0.338705	-0.485626	0.882436
C69	C	-0.921253	-0.985647	0.382447
C70	C	-0.421253	-0.485647	0.882447
C71	C	-0.715104	-0.865436	0.262053
C72	C	-0.215104	-0.365436	0.762053
C73	C	-0.714951	-0.945536	0.342297
C74	C	-0.214951	-0.445536	0.842297
C75	C	-0.174363	-0.905561	0.302216
C76	C	0.325637	-0.405561	0.802216
C77	C	-0.086507	-0.905590	0.302232
C78	C	0.413493	-0.405590	0.802232
C79	C	-0.380490	-1.068915	0.302253
C80	C	0.119510	-0.568915	0.802253
C81	C	-0.380473	-1.138556	0.302284
C82	C	0.119527	-0.638556	0.802284
C83	C	-0.431228	-0.640361	0.342095
C84	C	0.068772	-0.140361	0.842095
C85	C	-0.431209	-0.574926	0.342123
C86	C	0.068791	-0.074926	0.842123
C87	C	-0.380580	-0.542194	0.302135
C88	C	0.119420	-0.042194	0.802135
C89	C	-0.329952	-0.574903	0.262128
C90	C	0.170048	-0.074903	0.762128
C91	C	-0.329967	-0.640337	0.262106
C92	C	0.170033	-0.140337	0.762106
C93	C	-0.374212	-0.438468	0.245730
C94	C	0.125788	0.061532	0.745730
C95	C	-0.374203	-0.373035	0.245751
C96	C	0.125797	0.126965	0.745751
C97	C	-0.380528	-0.340373	0.302205
C98	C	0.119472	0.159627	0.802205
C99	C	-0.386881	-0.373152	0.358638
C100	C	0.113119	0.126848	0.858638
C101	C	-0.386896	-0.438586	0.358616
C102	C	0.113104	0.061414	0.858616
C103	C	-0.380558	-0.471242	0.302155
C104	C	0.119442	0.028758	0.802155
C105	C	-0.431128	-0.236720	0.342243
C106	C	0.068872	0.263280	0.842243
C107	C	-0.431103	-0.171283	0.342272
C108	C	0.068897	0.328717	0.842272
C109	C	-0.329850	-0.171262	0.262271
C110	C	0.170150	0.328738	0.762271
C111	C	-0.329871	-0.236697	0.262248
C112	C	0.170129	0.263303	0.762248
C113	C	-0.380514	-0.269422	0.302233
C114	C	0.119486	0.230578	0.802233
C115	C	-0.380491	-0.905476	0.139392
C116	C	0.119509	-0.405476	0.639392
C117	C	-0.380275	-0.905575	0.069751
C118	C	0.119725	-0.405575	0.569751
C119	C	-0.329942	-0.945654	0.567985
C120	C	0.170058	-0.445654	1.067985
C121	C	-0.329908	-0.945653	0.633421
C122	C	0.170092	-0.445653	1.133421
C123	C	-0.380455	-0.905570	0.666113
C124	C	0.119545	-0.405570	1.166113
C125	C	-0.431026	-0.865474	0.633364
C126	C	0.068974	-0.365474	1.133364
C127	C	-0.431053	-0.865471	0.567929
C128	C	0.068947	-0.365471	1.067929
C129	C	-0.451628	-0.900605	0.769778
C130	C	0.048372	-0.400605	1.269778
C131	C	-0.451602	-0.900612	0.835211
C132	C	0.048398	-0.400612	1.335211
C133	C	-0.380372	-0.905574	0.867934
C134	C	0.119628	-0.405574	1.367934
C135	C	-0.309164	-0.910543	0.835215
C136	C	0.190836	-0.410543	1.335215
C137	C	-0.309191	-0.910541	0.769781
C138	C	0.190809	-0.410541	1.269781
C139	C	-0.380431	-0.905568	0.737065
C140	C	0.119569	-0.405568	1.237065
C141	C	-0.329763	-0.945664	0.971627
C142	C	0.170237	-0.445664	1.471627
C143	C	-0.329728	-0.945659	1.037064
C144	C	0.170272	-0.445659	1.537064
C145	C	-0.430853	-0.865483	1.037005
C146	C	0.069147	-0.365483	1.537005
C147	C	-0.430881	-0.865485	0.971570
C148	C	0.069119	-0.365485	1.471570
C149	C	-0.380337	-0.905579	0.938885
C150	C	0.119663	-0.405579	1.438885
H151	H	-0.805029	-1.018223	0.415101
H152	H	-0.305029	-0.518223	0.915101
H153	H	-0.472230	-0.832823	0.541272
H154	H	0.027770	-0.332823	1.041272
H155	H	-1.078974	-0.832929	0.229449
H156	H	-0.578974	-0.332929	0.729449
H157	H	-0.288656	-0.263322	0.229669
H158	H	0.211344	0.236678	0.729669
H159	H	-0.288784	-0.978301	0.541377
H160	H	0.211216	-0.478301	1.041377
N161	N	-0.275370	-0.675604	0.218950
N162	N	0.224630	-0.175604	0.718950
H163	H	-0.307444	-0.702698	0.189858
H164	H	0.192556	-0.202698	0.689858
H165	H	-0.238804	-0.702770	0.244497
H166	H	0.261196	-0.202770	0.744497
N167	N	-0.275365	-0.988893	0.668745
N168	N	0.224635	-0.488893	1.168745
H169	H	-0.243350	-1.014291	0.638110
H170	H	0.256650	-0.514291	1.138110
H171	H	-0.307529	-1.017875	0.695915
H172	H	0.192471	-0.517875	1.195915
H173	H	-0.251211	-0.914585	0.743145
H174	H	0.248789	-0.414585	1.243145
N175	N	-1.089583	-0.988839	0.385632
N176	N	-0.589583	-0.488839	0.885632
H177	H	-1.075163	-1.033606	0.375957
H178	H	-0.575163	-0.533606	0.875957
H179	H	-1.148139	-0.982730	0.379538
H180	H	-0.648139	-0.482730	0.879538
N181	N	-0.485434	-0.822245	0.936264
N182	N	0.014566	-0.322245	1.436264
H183	H	-0.522073	-0.847689	0.909134
H184	H	-0.022073	-0.347689	1.409134
H185	H	-0.453277	-0.793224	0.909131
H186	H	0.046723	-0.293224	1.409131
H187	H	-0.955227	-0.792842	0.189310
H188	H	-0.455227	-0.292842	0.689310
N189	N	-0.485551	-0.822247	0.668622
N190	N	0.014449	-0.322247	1.168622
H191	H	-0.517591	-0.796849	0.637948
H192	H	-0.017591	-0.296849	1.137948
H193	H	-0.453373	-0.793264	0.695751
H194	H	0.046627	-0.293264	1.195751
H195	H	-0.509618	-0.896396	0.743140
H196	H	-0.009618	-0.396396	1.243140
N197	N	-0.367358	-0.337684	0.184887
N198	N	0.132642	0.162316	0.684887
H199	H	-0.363343	-0.368302	0.149122
H200	H	0.136657	0.131698	0.649122
H201	H	-0.318652	-0.310565	0.185869
H202	H	0.181348	0.189435	0.685869
N203	N	-0.794569	-0.782206	0.178671
N204	N	-0.294569	-0.282206	0.678671
H205	H	-0.833290	-0.756847	0.153261
H206	H	-0.333290	-0.256847	0.653261
H207	H	-0.760310	-0.807719	0.149703
H208	H	-0.260310	-0.307719	0.649703
H209	H	-0.681563	-0.832811	0.229385
H210	H	-0.181563	-0.332811	0.729385
N211	N	-0.485848	-0.675658	0.385220
N212	N	0.014152	-0.175658	0.885220
H213	H	-0.517911	-0.645008	0.410567
H214	H	-0.017911	-0.145008	0.910567
H215	H	-0.453736	-0.702859	0.414254
H216	H	0.046264	-0.202859	0.914254
N217	N	-0.485805	-0.539645	0.385273
N218	N	0.014195	-0.039645	0.885273
H219	H	-0.517887	-0.570305	0.410600
H220	H	-0.017887	-0.070305	0.910600
H221	H	-0.522326	-0.512445	0.359722
H222	H	-0.022326	-0.012445	0.859722
N223	N	-0.670350	-0.988719	0.385562
N224	N	-0.170350	-0.488719	0.885562
H225	H	-0.684663	-1.033495	0.375889
H226	H	-0.184663	-0.533495	0.875889
H227	H	-0.684720	-0.978918	0.430302
H228	H	-0.184720	-0.478918	0.930302
H229	H	-0.392066	-0.465272	0.404566
H230	H	0.107934	0.034728	0.904566
N231	N	-0.528399	-0.895252	0.870498
N232	N	-0.028399	-0.395252	1.370498
H233	H	-0.535797	-0.933421	0.897672
H234	H	-0.035797	-0.433421	1.397672
H235	H	-0.573479	-0.892080	0.839801
H236	H	-0.073479	-0.392080	1.339801
N237	N	-0.965689	-1.028859	0.425725
N238	N	-0.465689	-0.528859	0.925725
H239	H	-1.024257	-1.022795	0.419646
H240	H	-0.524257	-0.522795	0.919646
H241	H	-0.951243	-1.019080	0.470457
H242	H	-0.451243	-0.519080	0.970457
H243	H	-0.392030	-0.346560	0.404608
H244	H	0.107970	0.153440	0.904608
N245	N	-0.485744	-0.272022	0.385368
N246	N	0.014256	0.227978	0.885368
H247	H	-0.517804	-0.241374	0.410720
H248	H	-0.017804	0.258626	0.910720
H249	H	-0.453630	-0.299227	0.414398
H250	H	0.046370	0.200773	0.914398
H251	H	-0.288545	-0.978303	1.063721
H252	H	0.211455	-0.478303	1.563721
H253	H	-0.288624	-0.144612	0.229715
H254	H	0.211376	0.355388	0.729715
N255	N	-0.485704	-0.136009	0.385419
N256	N	0.014296	0.363991	0.885419
H257	H	-0.517789	-0.166672	0.410741
H258	H	-0.017789	0.333328	0.910741
H259	H	-0.522222	-0.108809	0.359865
H260	H	-0.022222	0.391191	0.859865
N261	N	-0.232329	-0.915902	0.870498
N262	N	0.267671	-0.415902	1.370498
H263	H	-0.243113	-0.915147	0.916915
H264	H	0.256887	-0.415147	1.416915
H265	H	-0.197003	-0.879683	0.859031
H266	H	0.302997	-0.379683	1.359031
H267	H	-0.369058	-0.465056	0.199756
H268	H	0.130942	0.034944	0.699756
N269	N	-0.485367	-0.822244	1.072256
N270	N	0.014633	-0.322244	1.572256
H271	H	-0.477676	-0.828326	1.118677
H272	H	0.022324	-0.328326	1.618677
H273	H	-0.541822	-0.831975	1.060829
H274	H	-0.041822	-0.331975	1.560829
N275	N	-0.275355	-0.539602	0.218991
N276	N	0.224645	-0.039602	0.718991
H277	H	-0.238768	-0.512498	0.244508
H278	H	0.261232	-0.012498	0.744508
H279	H	-0.307486	-0.512443	0.189931
H280	H	0.192514	-0.012443	0.689931
N281	N	-0.275249	-0.988904	0.936368
N282	N	0.224751	-0.488904	1.436368
H283	H	-0.243204	-1.014297	0.967042
H284	H	0.256796	-0.514297	1.467042
H285	H	-0.238690	-0.963412	0.909197
H286	H	0.261310	-0.463412	1.409197
