data_functionalizedCrystal
_audit_creation_method	'MofGen! by Chris Wilmer'
_symmetry_space_group_name_H-M	'P1'
_symmetry_Int_Tables_number	1
_symmetry_cell_setting	triclinic
loop_
_symmetry_equiv_pos_as_xyz
  x,y,z
_cell_length_a	19.121308
_cell_length_b	18.215404
_cell_length_c	18.215399
_cell_angle_alpha	90.027515
_cell_angle_beta	87.580143
_cell_angle_gamma	87.587527
loop_
_atom_site_label
_atom_site_type_symbol
_atom_site_fract_x
_atom_site_fract_y
_atom_site_fract_z
Zn1	Zn	-1.073686	0.340925	-0.368118
Zn2	Zn	-1.073601	0.463993	-0.245056
Zn3	Zn	-0.956240	0.335705	-0.250316
Zn4	Zn	-0.956209	0.458710	-0.373329
O5	O	-1.014934	0.399833	-0.309205
O6	O	-1.171955	0.361646	-0.347412
O7	O	-1.058009	0.447001	-0.142771
O8	O	-0.971868	0.233415	-0.265963
O9	O	-1.171892	0.452063	-0.256999
O10	O	-1.058155	0.237251	-0.352511
O11	O	-0.971785	0.352749	-0.146635
O12	O	-0.857956	0.347626	-0.271016
O13	O	-0.971816	0.443059	-0.475621
O14	O	-0.857933	0.437998	-0.361394
O15	O	-1.058125	0.356523	-0.471793
O16	O	-1.057980	0.566274	-0.262052
O17	O	-0.971733	0.562393	-0.356294
C18	C	-0.832462	0.391673	-0.317341
C19	C	-0.754399	0.388200	-0.320840
C20	C	-0.312895	0.366139	-0.343025
C21	C	-0.386243	0.369417	-0.339734
C22	C	-0.422876	0.418053	-0.290939
C23	C	-0.386156	0.463421	-0.245437
C24	C	-0.312810	0.460147	-0.248733
C25	C	-0.644333	0.430293	-0.278634
C26	C	-0.717685	0.433562	-0.275340
C27	C	-0.717767	0.339559	-0.369638
C28	C	-0.644419	0.336286	-0.372926
C29	C	-0.607706	0.381656	-0.327427
C30	C	-0.497849	0.421402	-0.287572
C31	C	-0.532734	0.378310	-0.330798
C32	C	-0.198119	0.408022	-0.301029
C33	C	-0.276181	0.411502	-0.297525
C34	C	-1.014863	0.591036	-0.309183
C35	C	-1.014897	0.672837	-0.309195
C36	C	-1.014977	0.399784	-0.501156
C37	C	-1.014995	0.399764	-0.582954
C38	C	-1.059915	0.863032	-0.260215
C39	C	-1.059947	0.939892	-0.260236
C40	C	-0.970061	0.935887	-0.358296
C41	C	-0.970032	0.859029	-0.358278
C42	C	-1.014958	0.822603	-0.309234
C43	C	-1.015019	0.976322	-0.309272
C44	C	-1.015055	1.059657	-0.309294
C45	C	-1.014924	0.739262	-0.309212
C46	C	-1.015029	1.207884	-0.309256
C47	C	-1.015080	1.126088	-0.309311
C48	C	-1.059952	0.354661	-0.769155
C49	C	-1.059961	0.354640	-0.846013
C50	C	-0.970087	0.444755	-0.849989
C51	C	-0.970076	0.444771	-0.773132
C52	C	-1.015012	0.399726	-0.732717
C53	C	-1.015032	0.399688	-0.886432
C54	C	-1.015041	0.399665	-0.969766
C55	C	-1.015003	0.399747	-0.649378
C56	C	-1.014932	0.399831	-0.117999
C57	C	-1.015050	0.399650	-0.036195
H58	H	-0.416133	0.332480	-0.376787
H59	H	-0.933423	0.826109	-0.398199
F60	F	-0.922268	0.492695	-0.893008
F61	F	-1.107776	0.306718	-0.726145
H62	H	-0.933483	0.965554	-0.398225
F63	F	-1.107797	0.306681	-0.884790
F64	F	-1.107798	0.982917	-0.208065
F65	F	-0.605437	0.284522	-0.424862
F66	F	-0.756845	0.291278	-0.418060
F67	F	-0.922239	0.492734	-0.734350
H68	H	-0.614450	0.467235	-0.241583
H69	H	-0.747509	0.473171	-0.235604
F70	F	-0.273915	0.314369	-0.394955
H71	H	-0.415988	0.503024	-0.205710
H72	H	-1.096497	0.833376	-0.220281
F73	F	-0.273736	0.508433	-0.200310
F74	F	-0.536842	0.473162	-0.235640
F75	F	-0.493746	0.326552	-0.382731
