data_functionalizedCrystal
_audit_creation_method	'MofGen! by Chris Wilmer'
_symmetry_space_group_name_H-M	'P1'
_symmetry_Int_Tables_number	1
_symmetry_cell_setting	triclinic
loop_
_symmetry_equiv_pos_as_xyz
  x,y,z
_cell_length_a	11.792254
_cell_length_b	12.996460
_cell_length_c	11.792241
_cell_angle_alpha	90.006284
_cell_angle_beta	84.196007
_cell_angle_gamma	90.005520
loop_
_atom_site_label
_atom_site_type_symbol
_atom_site_fract_x
_atom_site_fract_y
_atom_site_fract_z
O1	O	1.506902	0.085566	0.155638
O2	O	2.006902	0.585566	0.655638
O3	O	1.176563	0.085569	0.171656
O4	O	1.676563	0.585569	0.671656
O5	O	1.349749	0.085560	-0.001523
O6	O	1.849749	0.585560	0.498477
O7	O	1.333716	0.085575	0.328818
O8	O	1.833716	0.585575	0.828818
O9	O	1.349730	-0.085574	-0.001533
O10	O	1.849730	0.414426	0.498467
O11	O	1.176544	-0.085565	0.171647
O12	O	1.676544	0.414435	0.671647
O13	O	1.506884	-0.085567	0.155629
O14	O	2.006884	0.414433	0.655629
Cu15	Cu	1.341712	-0.101192	0.163637
Cu16	Cu	1.841712	0.398808	0.663637
Cu17	Cu	1.341734	0.101193	0.163648
Cu18	Cu	1.841734	0.601193	0.663648
O19	O	1.333698	-0.085559	0.328808
O20	O	1.833698	0.414441	0.828808
C21	C	1.134263	0.000002	0.170642
C22	C	1.634263	0.500002	0.670642
C23	C	1.008250	0.000003	0.167622
C24	C	1.508250	0.500003	0.667622
C25	C	0.905913	0.000007	0.165168
C26	C	1.405913	0.500007	0.665168
C27	C	0.777527	0.000008	0.162100
C28	C	1.277527	0.500008	0.662100
N29	N	1.341705	-0.243539	0.163628
N30	N	1.841705	0.256461	0.663628
C31	C	1.341732	-0.663354	0.163649
C32	C	1.841732	-0.163354	0.663649
C33	C	1.341721	-0.546548	0.163647
C34	C	1.841721	-0.046548	0.663647
C35	C	1.341719	-0.453450	0.163640
C36	C	1.841719	0.046550	0.663640
C37	C	1.341707	-0.336638	0.163636
C38	C	1.841707	0.163362	0.663636
C39	C	1.549183	0.000002	0.156643
C40	C	2.049183	0.500002	0.656643
C41	C	1.675196	0.000008	0.159663
C42	C	2.175196	0.500008	0.659663
C43	C	1.348732	-0.000006	-0.043819
C44	C	1.848732	0.499994	0.456181
C45	C	1.345718	-0.000005	-0.169832
C46	C	1.845718	0.499995	0.330168
N47	N	1.341750	0.243541	0.163648
N48	N	1.841750	0.743541	0.663648
C49	C	1.340175	0.000012	-0.400545
C50	C	1.840175	0.500012	0.099455
C51	C	1.343255	0.000003	-0.272160
C52	C	1.843255	0.500003	0.227840
C53	C	1.334714	0.000010	0.371104
C54	C	1.834714	0.500010	0.871104
C55	C	1.337728	0.000016	0.497118
C56	C	1.837728	0.500016	0.997118
