data_functionalizedCrystal
_audit_creation_method	'MofGen! by Chris Wilmer'
_symmetry_space_group_name_H-M	'P1'
_symmetry_Int_Tables_number	1
_symmetry_cell_setting	triclinic
loop_
_symmetry_equiv_pos_as_xyz
  x,y,z
_cell_length_a	16.974867
_cell_length_b	14.853554
_cell_length_c	16.053789
_cell_angle_alpha	87.117258
_cell_angle_beta	90.756315
_cell_angle_gamma	83.510317
loop_
_atom_site_label
_atom_site_type_symbol
_atom_site_fract_x
_atom_site_fract_y
_atom_site_fract_z
O1	O	-1.049197	-0.114795	-0.001384
O2	O	-0.819673	-0.130196	0.014107
O3	O	-0.940572	0.008772	0.005947
O4	O	-0.928299	-0.253763	0.006776
O5	O	-0.934624	0.015529	-0.132511
O6	O	-0.813725	-0.123439	-0.124351
O7	O	-1.043250	-0.108038	-0.139842
Zn8	Zn	-0.927543	-0.114666	-0.154080
Zn9	Zn	-0.935380	-0.123568	0.028345
O10	O	-0.922351	-0.247006	-0.131682
C11	C	-0.787326	-0.126358	-0.053139
C12	C	-0.699802	-0.124980	-0.047231
C13	C	-0.207487	-0.117592	-0.005820
C14	C	-0.289725	-0.118886	-0.011382
C15	C	-0.327593	-0.115857	-0.089637
C16	C	-0.283220	-0.111524	-0.162335
C17	C	-0.200985	-0.110223	-0.156772
C18	C	-0.573193	-0.119346	-0.114367
C19	C	-0.655434	-0.120650	-0.119924
C20	C	-0.661934	-0.128011	0.031030
C21	C	-0.579696	-0.126716	0.036586
C22	C	-0.535330	-0.122378	-0.036112
N23	N	-0.411653	-0.117183	-0.095324
N24	N	-0.451273	-0.121046	-0.030424
C25	C	-0.937044	0.045736	-0.063243
C26	C	-0.935383	0.145810	-0.063126
C27	C	-0.931580	0.565261	0.012823
C28	C	-0.925096	0.572622	-0.138129
C29	C	-0.926662	0.478598	-0.138235
C30	C	-0.930687	0.427901	-0.062811
C31	C	-0.933145	0.471227	0.012719
C32	C	-0.924197	0.435263	-0.213764
C33	C	-0.925763	0.341233	-0.213874
C34	C	-0.929793	0.290535	-0.138449
C35	C	-0.932252	0.333868	-0.062916
C36	C	-0.936276	0.283170	0.012509
C37	C	-0.938741	0.326502	0.088043
C38	C	-0.937175	0.420529	0.088144
C39	C	-0.931359	0.196508	-0.138550
C40	C	-0.937841	0.189137	0.012404
C41	C	-0.075597	-0.111878	-0.072598
C42	C	-0.163120	-0.113262	-0.078512
C43	C	-0.925883	0.716031	-0.062490
C44	C	-0.927555	0.615958	-0.062601
N45	N	-0.922201	-0.108589	-0.278580
C46	C	-0.968204	-0.160958	-0.325375
C47	C	-0.964477	-0.156701	-0.412530
C48	C	-0.914743	-0.100080	-0.452889
C49	C	-0.868739	-0.047706	-0.406088
C50	C	-0.872470	-0.051958	-0.318934
C51	C	-0.898455	-0.081515	-0.713200
C52	C	-0.894725	-0.077269	-0.800360
C53	C	-0.990466	-0.186263	-0.806797
C54	C	-0.994189	-0.190515	-0.719641
C55	C	-0.948187	-0.138137	-0.672848
N56	N	-0.910931	-0.095730	-0.541976
N57	N	-0.952004	-0.142482	-0.583763
N58	N	-0.940728	-0.129637	0.152845
H59	H	-0.698065	-0.131542	0.090216
H60	H	-0.314059	-0.109051	-0.226052
C61	C	-1.012466	0.301694	0.212110
C62	C	-0.943160	0.270766	0.170947
H63	H	-1.015188	0.267284	0.263291
H64	H	-1.057320	0.294879	0.177980
H65	H	-1.011883	0.363894	0.222986
H66	H	-0.943745	0.208567	0.160065
H67	H	-0.898294	0.277572	0.205084
C68	C	-0.394760	-0.047129	0.069342
C69	C	-0.338496	-0.123650	0.068523
H70	H	-0.424866	-0.050069	0.118677
H71	H	-0.429076	-0.045513	0.021945
H72	H	-0.368492	0.006091	0.067974
H73	H	-0.364765	-0.176870	0.069884
H74	H	-0.304176	-0.125275	0.115932
H75	H	-0.933590	0.600546	0.074321
H76	H	-0.939181	0.455818	0.149640
H77	H	-0.921814	0.613904	-0.199535
C78	C	-0.784483	-0.067256	-0.891226
C79	C	-0.840055	-0.015022	-0.844719
H80	H	-0.750730	-0.028829	-0.918605
H81	H	-0.811344	-0.097830	-0.931567
H82	H	-0.753677	-0.110524	-0.855041
H83	H	-0.870864	0.028242	-0.880905
H84	H	-0.813191	0.015568	-0.804374
H85	H	-0.686263	-0.118189	-0.183652
H86	H	-0.941122	0.147866	0.073824
C87	C	-0.991487	0.250216	-0.306130
C88	C	-0.923063	0.293604	-0.296896
H89	H	-0.989819	0.220807	-0.357383
H90	H	-1.036939	0.293835	-0.306055
H91	H	-0.994101	0.206570	-0.261221
H92	H	-0.920452	0.337255	-0.341803
H93	H	-0.877598	0.249980	-0.296979
C94	C	-1.042399	-0.245447	-0.588900
C95	C	-1.048848	-0.252765	-0.675280
H96	H	-1.076136	-0.283889	-0.561514
H97	H	-1.057610	-0.184412	-0.575601
H98	H	-0.989079	-0.263093	-0.571002
H99	H	-1.102167	-0.235113	-0.693179
H100	H	-1.033642	-0.313814	-0.688585
H101	H	-1.027918	-0.228906	-0.844906
H102	H	-0.835009	-0.009314	-0.280834
C103	C	-0.861624	0.084583	-0.221649
C104	C	-0.928644	0.148870	-0.221565
H105	H	-0.859946	0.055177	-0.272903
H106	H	-0.864257	0.040945	-0.176747
H107	H	-0.815215	0.114035	-0.215366
H108	H	-0.975053	0.119417	-0.227841
H109	H	-0.926017	0.192515	-0.266479
H110	H	-0.860998	-0.038865	-0.675112
C111	C	-0.202814	-0.103087	-0.306540
C112	C	-0.152212	-0.105467	-0.236678
H113	H	-0.172702	-0.100154	-0.355871
H114	H	-0.240982	-0.051184	-0.305975
H115	H	-0.229065	-0.156320	-0.305160
H116	H	-0.125965	-0.052231	-0.238055
H117	H	-0.114030	-0.157376	-0.237243
H118	H	-0.537082	-0.115801	-0.173563
C119	C	-0.918968	0.582677	-0.280624
C120	C	-0.919801	0.490993	-0.296668
H121	H	-0.916268	0.617086	-0.331810
H122	H	-0.874099	0.589495	-0.246517
H123	H	-0.965981	0.603633	-0.252677
H124	H	-0.872785	0.470036	-0.324610
H125	H	-0.964674	0.484171	-0.330788
H126	H	-1.008698	-0.207070	-0.292521
H127	H	-1.001939	-0.199344	-0.450627
H128	H	-0.828248	-0.001600	-0.438955
H129	H	-0.548870	-0.129181	0.100309
C130	C	-0.222181	-0.124994	0.142831
C131	C	-0.165867	-0.120924	0.080202
H132	H	-0.196487	-0.127044	0.195937
H133	H	-0.248160	-0.177912	0.137926
H134	H	-0.260081	-0.072776	0.137109
H135	H	-0.127970	-0.173145	0.085920
H136	H	-0.139875	-0.068000	0.085109
