data_functionalizedCrystal
_audit_creation_method	'MofGen! by Chris Wilmer'
_symmetry_space_group_name_H-M	'P1'
_symmetry_Int_Tables_number	1
_symmetry_cell_setting	triclinic
loop_
_symmetry_equiv_pos_as_xyz
  x,y,z
_cell_length_a	25.639239
_cell_length_b	21.395362
_cell_length_c	21.395355
_cell_angle_alpha	89.956060
_cell_angle_beta	90.019334
_cell_angle_gamma	89.945436
loop_
_atom_site_label
_atom_site_type_symbol
_atom_site_fract_x
_atom_site_fract_y
_atom_site_fract_z
Zn1	Zn	-0.207990	-0.957825	0.354582
Zn2	Zn	0.292010	-0.457825	0.854582
Zn3	Zn	-0.295409	-0.957713	0.249803
Zn4	Zn	0.204591	-0.457713	0.749803
Zn5	Zn	-0.208014	-0.853040	0.249783
Zn6	Zn	0.291986	-0.353040	0.749783
Zn7	Zn	-0.295420	-0.852994	0.354508
Zn8	Zn	0.204580	-0.352994	0.854508
O9	O	-0.251708	-0.905393	0.302169
O10	O	0.248292	-0.405393	0.802169
O11	O	-0.219571	-1.045488	0.340722
O12	O	0.280429	-0.545488	0.840722
O13	O	-0.283822	-0.943800	0.162122
O14	O	0.216178	-0.443800	0.662122
O15	O	-0.134846	-0.867006	0.263708
O16	O	0.365154	-0.367006	0.763708
O17	O	-0.283798	-1.045405	0.263742
O18	O	0.216202	-0.545405	0.763742
O19	O	-0.134828	-0.943991	0.340703
O20	O	0.365172	-0.443991	0.840703
O21	O	-0.219613	-0.866897	0.162108
O22	O	0.280387	-0.366897	0.662108
O23	O	-0.219623	-0.765356	0.263636
O24	O	0.280377	-0.265356	0.763636
O25	O	-0.283817	-0.866928	0.442196
O26	O	0.216183	-0.366928	0.942196
O27	O	-0.283840	-0.765322	0.340576
O28	O	0.216160	-0.265322	0.840576
O29	O	-0.219582	-0.943947	0.442250
O30	O	0.280418	-0.443947	0.942250
O31	O	-0.368576	-0.943756	0.263669
O32	O	0.131424	-0.443756	0.763669
O33	O	-0.368584	-0.866820	0.340596
O34	O	0.131416	-0.366820	0.840596
C35	C	-0.251736	-0.742605	0.302096
C36	C	0.248264	-0.242605	0.802096
C37	C	-0.251760	-0.672964	0.302080
C38	C	0.248240	-0.172964	0.802080
C39	C	-0.387551	-0.905288	0.302140
C40	C	0.112449	-0.405288	0.802140
C41	C	-0.445665	-0.905300	0.302149
C42	C	0.054335	-0.405300	0.802149
C43	C	-0.251698	-0.905445	0.465592
C44	C	0.248302	-0.405445	0.965592
C45	C	-0.251693	-0.905467	0.535234
C46	C	0.248307	-0.405467	1.035234
C47	C	-0.806011	-0.945558	0.262182
C48	C	-0.306011	-0.445558	0.762182
C49	C	-0.860616	-0.945582	0.262190
C50	C	-0.360616	-0.445582	0.762190
O51	O	-0.888838	-0.979702	0.228177
O52	O	-0.388838	-0.479702	0.728177
N53	N	-0.887947	-0.905503	0.302211
N54	N	-0.387947	-0.405503	0.802211
C55	C	-0.860672	-0.865401	0.342230
C56	C	-0.360672	-0.365401	0.842230
O57	O	-0.888934	-0.831313	0.376271
O58	O	-0.388934	-0.331313	0.876271
C59	C	-0.806069	-0.865381	0.342224
C60	C	-0.306069	-0.365381	0.842224
C61	C	-0.778740	-0.905458	0.302196
C62	C	-0.278740	-0.405458	0.802196
C63	C	-0.778682	-0.985633	0.222158
C64	C	-0.278682	-0.485633	0.722158
C65	C	-0.724082	-0.985608	0.222149
C66	C	-0.224082	-0.485608	0.722149
C67	C	-0.696810	-0.945508	0.262164
C68	C	-0.196810	-0.445508	0.762164
C69	C	-0.724139	-0.905433	0.302187
C70	C	-0.224139	-0.405433	0.802187
C71	C	-0.778794	-0.825282	0.382246
C72	C	-0.278794	-0.325282	0.882246
C73	C	-0.724187	-0.825266	0.382237
C74	C	-0.224187	-0.325266	0.882237
C75	C	-0.696858	-0.865343	0.342209
C76	C	-0.196858	-0.365343	0.842209
C77	C	-0.642267	-0.865308	0.342193
C78	C	-0.142267	-0.365308	0.842193
N79	N	-0.614935	-0.905387	0.302173
N80	N	-0.114935	-0.405387	0.802173
C81	C	-0.642207	-0.945487	0.262158
C82	C	-0.142207	-0.445487	0.762158
C83	C	-0.975343	-0.865448	0.342239
C84	C	-0.475343	-0.365448	0.842239
C85	C	-1.029945	-0.865465	0.342242
C86	C	-0.529945	-0.365465	0.842242
C87	C	-1.029885	-0.945648	0.262204
C88	C	-0.529885	-0.445648	0.762204
C89	C	-0.975281	-0.945627	0.262198
C90	C	-0.475281	-0.445627	0.762198
C91	C	-0.948011	-0.905528	0.302219
C92	C	-0.448011	-0.405528	0.802219
C93	C	-0.527542	-0.945430	0.262142
C94	C	-0.027542	-0.445430	0.762142
C95	C	-0.472937	-0.945400	0.262134
C96	C	0.027063	-0.445400	0.762134
C97	C	-0.473002	-0.865220	0.342175
C98	C	0.026998	-0.365220	0.842175
C99	C	-0.527602	-0.865248	0.342180
C100	C	-0.027602	-0.365248	0.842180
C101	C	-0.554871	-0.905358	0.302162
C102	C	-0.054871	-0.405358	0.802162
O103	O	-0.614010	-0.831207	0.376190
O104	O	-0.114010	-0.331207	0.876190
O105	O	-0.613939	-0.979575	0.228128
O106	O	-0.113939	-0.479575	0.728128
C107	C	-0.115335	-0.905516	0.302212
C108	C	0.384665	-0.405516	0.802212
C109	C	-0.057221	-0.905568	0.302230
C110	C	0.442779	-0.405568	0.802230
C111	C	-0.251681	-1.068816	0.302242
C112	C	0.248319	-0.568816	0.802242
C113	C	-0.251669	-1.138458	0.302274
C114	C	0.248331	-0.638458	0.802274
C115	C	-0.285243	-0.640250	0.342083
C116	C	0.214757	-0.140250	0.842083
C117	C	-0.285230	-0.574814	0.342111
C118	C	0.214770	-0.074814	0.842111
C119	C	-0.251740	-0.542096	0.302125
C120	C	0.248260	-0.042096	0.802125
C121	C	-0.218252	-0.574818	0.262119
C122	C	0.281748	-0.074818	0.762119
C123	C	-0.218262	-0.640252	0.262097
C124	C	0.281738	-0.140252	0.762097
C125	C	-0.247528	-0.438372	0.245720
C126	C	0.252472	0.061628	0.745720
C127	C	-0.247522	-0.372939	0.245741
C128	C	0.252478	0.127061	0.745741
C129	C	-0.251706	-0.340275	0.302194
C130	C	0.248294	0.159725	0.802194
C131	C	-0.255908	-0.373052	0.358627
C132	C	0.244092	0.126948	0.858627
C133	C	-0.255918	-0.438486	0.358605
C134	C	0.244082	0.061514	0.858605
C135	C	-0.251725	-0.471143	0.302145
C136	C	0.248275	0.028857	0.802145
C137	C	-0.285176	-0.236608	0.342231
C138	C	0.214824	0.263392	0.842231
C139	C	-0.285160	-0.171172	0.342260
C140	C	0.214840	0.328828	0.842260
C141	C	-0.218185	-0.171176	0.262262
C142	C	0.281815	0.328824	0.762262
C143	C	-0.218198	-0.236612	0.262239
C144	C	0.281802	0.263388	0.762239
C145	C	-0.251697	-0.269324	0.302222
C146	C	0.248303	0.230676	0.802222
C147	C	-0.251681	-0.905377	0.139381
C148	C	0.248319	-0.405377	0.639381
C149	C	-0.251538	-0.905476	0.069741
C150	C	0.248462	-0.405476	0.569741
C151	C	-0.218245	-0.945569	0.567976
C152	C	0.281755	-0.445569	1.067976
C153	C	-0.218222	-0.945568	0.633412
C154	C	0.281778	-0.445568	1.133412
C155	C	-0.251658	-0.905472	0.666102
C156	C	0.248342	-0.405472	1.166102
C157	C	-0.285108	-0.865362	0.633352
C158	C	0.214892	-0.365362	1.133352
C159	C	-0.285126	-0.865360	0.567917
C160	C	0.214874	-0.365360	1.067917
C161	C	-0.298736	-0.900488	0.769765
C162	C	0.201264	-0.400488	1.269765
C163	C	-0.298719	-0.900495	0.835198
C164	C	0.201281	-0.400495	1.335198
C165	C	-0.251602	-0.905476	0.867923
C166	C	0.248398	-0.405476	1.367923
C167	C	-0.204501	-0.910463	0.835207
C168	C	0.295499	-0.410463	1.335207
C169	C	-0.204519	-0.910461	0.769773
C170	C	0.295481	-0.410461	1.269773
C171	C	-0.251642	-0.905470	0.737054
C172	C	0.248358	-0.405470	1.237054
C173	C	-0.218127	-0.945579	0.971618
C174	C	0.281873	-0.445579	1.471618
C175	C	-0.218103	-0.945574	1.037055
C176	C	0.281897	-0.445574	1.537055
C177	C	-0.284994	-0.865371	1.036993
C178	C	0.215006	-0.365371	1.536993
C179	C	-0.285013	-0.865373	0.971558
C180	C	0.214987	-0.365373	1.471558
C181	C	-0.251580	-0.905480	0.938874
C182	C	0.248420	-0.405480	1.438874
H183	H	-0.549738	-0.978093	0.229556
H184	H	-0.049738	-0.478093	0.729556
N185	N	-0.260177	-0.471957	0.416255
N186	N	0.239823	0.028043	0.916255
N187	N	-0.224680	-0.508521	0.432723
N188	N	0.275320	-0.008521	0.932723
H189	H	-0.227679	-0.532157	0.473442
H190	H	0.272321	-0.032157	0.973442
N191	N	-0.947489	-0.824488	0.383126
N192	N	-0.447489	-0.324488	0.883126
N193	N	-0.953568	-0.828618	0.440946
N194	N	-0.453568	-0.328618	0.940946
H195	H	-0.933899	-0.799691	0.469824
H196	H	-0.433899	-0.299691	0.969824
N197	N	-0.445129	-0.824270	0.383047
N198	N	0.054871	-0.324270	0.883047
N199	N	-0.414619	-0.846292	0.422989
N200	N	0.085381	-0.346292	0.922989
H201	H	-0.394931	-0.817374	0.451857
H202	H	0.105069	-0.317374	0.951857
H203	H	-0.190914	-0.144537	0.229707
H204	H	0.309086	0.355463	0.729707
H205	H	-0.549855	-0.832616	0.374776
H206	H	-0.049855	-0.332616	0.874776
N207	N	-0.260198	-0.339687	0.416291
N208	N	0.239802	0.160313	0.916291
N209	N	-0.260194	-0.281264	0.416305
N210	N	0.239806	0.218736	0.916305
H211	H	-0.263230	-0.257696	0.457027
H212	H	0.236770	0.242304	0.957027
N213	N	-0.184069	-0.673681	0.221229
N214	N	0.315931	-0.173681	0.721229
N215	N	-0.184086	-0.732104	0.221211
N216	N	0.315914	-0.232104	0.721211
H217	H	-0.159938	-0.755716	0.192346
H218	H	0.340062	-0.255716	0.692346
N219	N	-0.184084	-0.986532	0.534604
N220	N	0.315916	-0.486532	1.034604
N221	N	-0.135838	-0.982421	0.541916
N222	N	0.364162	-0.482421	1.041916
H223	H	-0.111710	-1.011351	0.518347
H224	H	0.388290	-0.511351	1.018347
N225	N	-0.183995	-0.270022	0.221370
N226	N	0.316005	0.229978	0.721370
N227	N	-0.154094	-0.240805	0.185672
N228	N	0.345906	0.259195	0.685672
H229	H	-0.129935	-0.264400	0.156807
H230	H	0.370065	0.235600	0.656807
H231	H	-0.450687	-0.978036	0.229537
H232	H	0.049313	-0.478036	0.729537
N233	N	-0.806526	-1.026605	0.181280
N234	N	-0.306526	-0.526605	0.681280
N235	N	-0.782108	-1.062381	0.145553
N236	N	-0.282108	-0.562381	0.645553
H237	H	-0.801769	-1.091318	0.116677
H238	H	-0.301769	-0.591318	0.616677
N239	N	-0.947367	-0.986575	0.221323
N240	N	-0.447367	-0.486575	0.721323
N241	N	-0.916851	-1.026483	0.243412
N242	N	-0.416851	-0.526483	0.743412
H243	H	-0.897138	-1.055405	0.214543
H244	H	-0.397138	-0.555405	0.714543
H245	H	-0.701834	-1.018244	0.189557
H246	H	-0.201834	-0.518244	0.689557
H247	H	-0.312330	-0.832714	0.659972
H248	H	0.187670	-0.332714	1.159972
H249	H	-0.312495	-0.548173	0.374689
H250	H	0.187505	-0.048173	0.874689
H251	H	-0.801036	-0.792644	0.414837
H252	H	-0.301036	-0.292644	0.914837
N253	N	-1.057756	-0.986605	0.221331
N254	N	-0.557756	-0.486605	0.721331
N255	N	-1.106508	-0.986614	0.221348
N256	N	-0.606508	-0.486614	0.721348
H257	H	-1.126194	-1.015537	0.192482
H258	H	-0.626194	-0.515537	0.692482
H259	H	-1.052192	-0.832824	0.374831
H260	H	-0.552192	-0.332824	0.874831
H261	H	-0.701986	-0.792613	0.414829
H262	H	-0.201986	-0.292613	0.914829
N263	N	-0.319462	-0.673654	0.382928
N264	N	0.180538	-0.173654	0.882928
N265	N	-0.349354	-0.644431	0.418644
N266	N	0.150646	-0.144431	0.918644
H267	H	-0.373522	-0.668023	0.447492
H268	H	0.126478	-0.168023	0.947492
H269	H	-0.312363	-0.832701	0.541259
H270	H	0.187637	-0.332701	1.041259
N271	N	-0.319373	-0.137755	0.383114
N272	N	0.180627	0.362245	0.883114
N273	N	-0.352656	-0.101174	0.361003
N274	N	0.147344	0.398826	0.861003
H275	H	-0.376821	-0.077574	0.389855
H276	H	0.123179	0.422426	0.889855
H277	H	-0.190984	-0.548174	0.229563
H278	H	0.309016	-0.048174	0.729563
N279	N	-0.183942	-0.986547	1.070503
N280	N	0.316058	-0.486547	1.570503
N281	N	-0.202324	-1.026454	1.107046
N282	N	0.297676	-0.526454	1.607046
H283	H	-0.178197	-1.055394	1.130670
H284	H	0.321803	-0.555394	1.630670
N285	N	-0.184047	-0.986532	0.666857
N286	N	0.315953	-0.486532	1.166857
N287	N	-0.154197	-1.022334	0.637668
N288	N	0.345803	-0.522334	1.137668
H289	H	-0.130059	-1.051265	0.661286
H290	H	0.369941	-0.551265	1.161286
N291	N	-0.156406	-0.915555	0.736363
N292	N	0.343594	-0.415555	1.236363
N293	N	-0.114339	-0.920005	0.765582
N294	N	0.385661	-0.420005	1.265582
H295	H	-0.080358	-0.923601	0.741987
H296	H	0.419642	-0.423601	1.241987
N297	N	-0.319396	-0.270018	0.383074
N298	N	0.180604	0.229982	0.883074
N299	N	-0.349286	-0.240797	0.418793
N300	N	0.150714	0.259203	0.918793
H301	H	-0.373455	-0.264391	0.447639
H302	H	0.126545	0.235609	0.947639
N303	N	-0.183965	-0.986537	0.938237
N304	N	0.316035	-0.486537	1.438237
N305	N	-0.135719	-0.982420	0.945542
N306	N	0.364281	-0.482420	1.445542
H307	H	-0.111591	-1.011346	0.921968
H308	H	0.388409	-0.511346	1.421968
H309	H	-0.244104	-0.346256	0.199789
H310	H	0.255896	0.153744	0.699789
N311	N	-0.346833	-0.895395	0.868606
N312	N	0.153167	-0.395395	1.368606
N313	N	-0.360540	-0.937924	0.905148
N314	N	0.139460	-0.437924	1.405148
H315	H	-0.394524	-0.934317	0.928736
H316	H	0.105476	-0.434317	1.428736
H317	H	-0.244119	-0.464961	0.199746
H318	H	0.255881	0.035039	0.699746
N319	N	-0.156373	-0.915550	0.868635
N320	N	0.343627	-0.415550	1.368635
N321	N	-0.156361	-0.915546	0.927057
N322	N	0.343639	-0.415546	1.427057
H323	H	-0.122371	-0.919139	0.950669
H324	H	0.377629	-0.419139	1.450669
N325	N	-0.319140	-0.824411	1.070387
N326	N	0.180860	-0.324411	1.570387
N327	N	-0.319118	-0.824415	1.128810
N328	N	0.180882	-0.324415	1.628810
H329	H	-0.343232	-0.795484	1.152398
H330	H	0.156768	-0.295484	1.652398
N331	N	-0.346873	-0.895393	0.736351
N332	N	0.153127	-0.395393	1.236351
N333	N	-0.388922	-0.890946	0.765566
N334	N	0.111078	-0.390946	1.265566
H335	H	-0.422917	-0.887347	0.741968
H336	H	0.077083	-0.387347	1.241968
H337	H	-0.312253	-0.832722	0.944899
H338	H	0.187747	-0.332722	1.444899
