data_functionalizedCrystal
_audit_creation_method	'MofGen! by Chris Wilmer'
_symmetry_space_group_name_H-M	'P1'
_symmetry_Int_Tables_number	1
_symmetry_cell_setting	triclinic
loop_
_symmetry_equiv_pos_as_xyz
  x,y,z
_cell_length_a	10.723023
_cell_length_b	10.489741
_cell_length_c	9.798715
_cell_angle_alpha	89.997135
_cell_angle_beta	89.996770
_cell_angle_gamma	84.503361
loop_
_atom_site_label
_atom_site_type_symbol
_atom_site_fract_x
_atom_site_fract_y
_atom_site_fract_z
O1	O	1.657297	0.178901	-0.113476
O2	O	1.294155	0.196027	-0.113482
O3	O	1.483989	0.001861	-0.113471
O4	O	1.467463	0.373067	-0.113487
O5	O	1.483975	0.001861	0.113511
O6	O	1.294141	0.196027	0.113500
O7	O	1.657283	0.178901	0.113506
Zn8	Zn	1.475710	0.187464	0.149541
Zn9	Zn	1.475729	0.187464	-0.149517
O10	O	1.467449	0.373067	0.113495
C11	C	1.247648	0.194781	0.000008
C12	C	1.109091	0.191053	0.000006
C13	C	1.047311	0.189390	0.117589
C14	C	0.904105	0.185537	0.117590
C15	C	1.482734	-0.045670	0.000019
C16	C	1.479000	-0.187297	0.000017
C17	C	1.358214	-0.255360	0.000005
C18	C	1.415265	-0.347519	0.111920
C19	C	1.415308	-0.347493	-0.111867
C20	C	1.536101	-0.277591	0.112024
C21	C	1.536126	-0.277556	-0.111863
C22	C	1.593265	-0.369688	0.000079
C23	C	1.703791	0.180147	0.000012
C24	C	1.842347	0.183875	0.000006
C25	C	1.468704	0.420598	0.000002
C26	C	1.472439	0.562225	-0.000005
N27	N	1.475706	0.187462	0.353641
N28	N	1.475742	0.187456	-0.353617
C29	C	1.555412	0.105578	0.421423
C30	C	1.555432	0.105574	0.578585
H31	H	0.850975	0.184115	0.218256
H32	H	1.055965	0.189620	-0.100660
H33	H	1.407503	0.257568	0.588102
O34	O	0.912711	0.185752	-0.133351
H35	H	0.961702	0.274129	-0.139193
H36	H	1.587196	-0.246544	-0.206482
H37	H	1.364152	-0.378498	0.206534
H38	H	1.623633	0.035472	0.363104
O39	O	1.385336	0.280345	0.430865
H40	H	1.324102	0.226229	0.495994
O41	O	1.226677	-0.189487	0.000142
H42	H	1.176834	-0.217327	0.093186
H43	H	1.692664	-0.419175	0.000143
H44	H	1.100438	0.190812	0.218255
H45	H	1.587157	-0.246792	0.206746
H46	H	1.364191	-0.378424	-0.206491
H47	H	1.623676	0.035474	0.636874
