data_functionalizedCrystal
_audit_creation_method	'MofGen! by Chris Wilmer'
_symmetry_space_group_name_H-M	'P1'
_symmetry_Int_Tables_number	1
_symmetry_cell_setting	triclinic
loop_
_symmetry_equiv_pos_as_xyz
  x,y,z
_cell_length_a	27.732048
_cell_length_b	17.699083
_cell_length_c	16.176319
_cell_angle_alpha	90.007696
_cell_angle_beta	90.001929
_cell_angle_gamma	82.962835
loop_
_atom_site_label
_atom_site_type_symbol
_atom_site_fract_x
_atom_site_fract_y
_atom_site_fract_z
O1	O	-0.641253	-0.090060	-0.068642
O2	O	-0.500509	-0.103753	-0.068667
O3	O	-0.574857	0.013318	-0.068646
O4	O	-0.566904	-0.207130	-0.068662
O5	O	-0.574847	0.013325	0.068847
O6	O	-0.500498	-0.103746	0.068826
O7	O	-0.641243	-0.090052	0.068851
Cu8	Cu	-0.570870	-0.096898	0.081393
Cu9	Cu	-0.570882	-0.096907	-0.081209
O10	O	-0.566894	-0.207123	0.068831
C11	C	-0.482496	-0.103462	0.000076
C12	C	-0.428838	-0.102596	0.000067
C13	C	-0.574567	0.041516	0.000100
C14	C	-0.573712	0.125527	0.000100
C15	C	-0.659256	-0.090343	0.000106
C16	C	-0.712914	-0.091209	0.000110
C17	C	-0.090252	-0.166329	0.000098
C18	C	0.111419	-0.163117	0.000106
O19	O	0.142466	-0.221396	0.000137
N20	N	0.130793	-0.093699	0.000109
C21	C	0.099745	-0.025079	0.000116
O22	O	0.120851	0.034039	0.000128
C23	C	-0.101925	-0.028291	0.000115
C24	C	-0.121296	-0.097714	0.000103
C25	C	-0.109623	-0.235746	0.000087
C26	C	-0.160037	-0.236548	0.000081
C27	C	-0.191081	-0.167933	0.000085
C28	C	-0.171710	-0.098516	0.000096
C29	C	-0.132972	0.040329	0.000128
C30	C	-0.183392	0.039519	0.000129
C31	C	-0.202763	-0.029903	0.000117
C32	C	-0.253169	-0.030703	0.000095
N33	N	-0.272543	-0.100121	0.000091
C34	C	-0.241499	-0.168736	0.000086
C35	C	0.205625	-0.023397	0.000116
C36	C	0.256042	-0.022594	0.000115
C37	C	0.267713	-0.160633	0.000106
C38	C	0.217295	-0.161435	0.000101
C39	C	0.186252	-0.092815	0.000112
C40	C	-0.347374	-0.170415	0.000072
C41	C	-0.397794	-0.171211	0.000062
C42	C	-0.409460	-0.033173	0.000076
C43	C	-0.359045	-0.032376	0.000081
C44	C	-0.328002	-0.101004	0.000082
O45	O	-0.284244	0.027545	0.000072
O46	O	-0.262614	-0.227845	0.000093
C47	C	-0.039837	-0.165526	0.000105
C48	C	-0.020466	-0.096109	0.000116
C49	C	-0.051510	-0.027494	0.000120
C50	C	0.029951	-0.095306	0.000115
C51	C	0.060995	-0.163921	0.000110
C52	C	0.041622	-0.233339	0.000106
C53	C	-0.008793	-0.234141	0.000100
C54	C	-0.032137	0.041924	0.000124
C55	C	0.018279	0.042720	0.000129
C56	C	0.049323	-0.025895	0.000125
C57	C	-0.567184	-0.235321	0.000082
C58	C	-0.568039	-0.319332	0.000077
N59	N	-0.570865	-0.096892	0.195758
C60	C	-0.617353	0.174532	0.000109
C61	C	-0.616547	0.253469	0.000102
C62	C	-0.572099	0.283398	0.000091
C63	C	-0.528455	0.234386	0.000080
C64	C	-0.529262	0.155451	0.000081
C65	C	-0.525201	0.552720	0.000073
C66	C	-0.524398	0.631661	0.000074
C67	C	-0.612486	0.650738	0.000093
C68	C	-0.613293	0.571803	0.000095
C69	C	-0.569649	0.522798	0.000079
C70	C	-0.570524	0.437207	0.000085
C71	C	-0.571224	0.368987	0.000091
N72	N	-0.570891	-0.096907	-0.195574
C73	C	-0.603796	-0.045074	0.239031
C74	C	-0.603799	-0.045073	0.325579
C75	C	-0.570872	-0.096894	0.368851
C76	C	-0.537937	-0.148715	0.325571
C77	C	-0.537932	-0.148711	0.239026
C78	C	-0.537953	-0.148729	0.674600
C79	C	-0.537961	-0.148730	0.761151
C80	C	-0.603819	-0.045090	0.761152
C81	C	-0.603815	-0.045087	0.674607
C82	C	-0.570879	-0.096904	0.631335
C83	C	-0.570876	-0.096904	0.537491
C84	C	-0.570876	-0.096899	0.462693
H85	H	-0.322104	-0.226298	0.000076
H86	H	-0.489663	0.512829	0.000060
C87	C	-0.181337	-0.312917	0.000082
C88	C	-0.169579	-0.369730	0.071483
C89	C	-0.190873	-0.446105	0.071490
C90	C	-0.223925	-0.465668	0.000097
C91	C	-0.235685	-0.408854	-0.071309
C92	C	-0.214391	-0.332479	-0.071316
H93	H	-0.145110	-0.355250	0.124337
H94	H	-0.182167	-0.488162	0.124350
H95	H	-0.239688	-0.522205	0.000102
H96	H	-0.260154	-0.423334	-0.124163
H97	H	-0.223097	-0.290421	-0.124176
C98	C	-0.662186	0.538881	0.000104
C99	C	-0.674856	0.487229	-0.071290
C100	C	-0.723749	0.454307	-0.071284
C101	C	-0.759972	0.473038	0.000116
C102	C	-0.747303	0.524693	0.071515
C103	C	-0.698410	0.557614	0.071509
H104	H	-0.648040	0.473361	-0.124149
H105	H	-0.733127	0.416069	-0.124139
H106	H	-0.796166	0.448667	0.000120
H107	H	-0.774119	0.538561	0.124374
H108	H	-0.689032	0.595853	0.124364
C109	C	-0.479561	0.267305	0.000061
C110	C	-0.478671	0.354129	0.000059
C111	C	-0.429776	0.387046	0.000039
C112	C	-0.381772	0.333138	0.000022
C113	C	-0.382660	0.246309	0.000024
C114	C	-0.431555	0.213392	0.000043
H115	H	-0.514209	0.394039	0.000072
H116	H	-0.429119	0.451323	0.000038
H117	H	-0.345577	0.357505	0.000008
H118	H	-0.347122	0.206398	0.000011
H119	H	-0.432212	0.149114	0.000045
H120	H	-0.630637	-0.002895	0.796393
C121	C	-0.640017	0.011932	0.191437
C122	C	-0.676239	0.068934	0.239041
C123	C	-0.712460	0.125944	0.191449
C124	C	-0.712459	0.125951	0.096253
C125	C	-0.676236	0.068948	0.048643
C126	C	-0.640015	0.011938	0.096235
H127	H	-0.676240	0.068930	0.309516
H128	H	-0.739274	0.168142	0.226694
H129	H	-0.739272	0.168153	0.061022
H130	H	-0.676234	0.068951	-0.021832
H131	H	-0.613201	-0.030260	0.060990
H132	H	-0.511124	-0.190906	0.360809
C133	C	-0.640034	0.011918	0.627007
C134	C	-0.676257	0.068923	0.674605
C135	C	-0.712476	0.125931	0.627005
C136	C	-0.712470	0.125935	0.531809
C137	C	-0.676246	0.068928	0.484206
C138	C	-0.640028	0.011919	0.531805
H139	H	-0.676262	0.068923	0.745080
H140	H	-0.739291	0.168132	0.662245
H141	H	-0.739281	0.168136	0.496573
H142	H	-0.676241	0.068928	0.413731
H143	H	-0.613212	-0.030281	0.496566
C144	C	-0.217540	0.115004	0.000139
C145	C	-0.215421	0.172055	0.071543
C146	C	-0.249568	0.247538	0.071550
C147	C	-0.285833	0.265971	0.000153
C148	C	-0.287953	0.208919	-0.071256
C149	C	-0.253807	0.133436	-0.071263
H150	H	-0.188574	0.158411	0.124400
H151	H	-0.247998	0.289772	0.124412
H152	H	-0.311110	0.321849	0.000159
H153	H	-0.314800	0.222563	-0.124113
H154	H	-0.255376	0.091203	-0.124125
C155	C	-0.075480	-0.311231	0.000078
C156	C	-0.077609	-0.368275	-0.071328
C157	C	-0.043470	-0.443767	-0.071344
C158	C	-0.007202	-0.462214	0.000046
C159	C	-0.005072	-0.405168	0.071458
C160	C	-0.039211	-0.329676	0.071475
H161	H	-0.104457	-0.354621	-0.124181
H162	H	-0.045047	-0.485996	-0.124209
H163	H	0.018069	-0.518097	0.000034
H164	H	0.021777	-0.418822	0.124311
H165	H	-0.037634	-0.287447	0.124339
H166	H	-0.648023	0.690647	0.000102
C167	C	-0.501708	-0.205714	0.191423
C168	C	-0.465505	-0.262743	0.239017
C169	C	-0.429278	-0.319745	0.191415
C170	C	-0.429253	-0.319717	0.096219
C171	C	-0.465457	-0.262686	0.048619
C172	C	-0.501684	-0.205684	0.096221
H173	H	-0.465522	-0.262766	0.309492
H174	H	-0.402477	-0.361963	0.226653
H175	H	-0.402435	-0.361913	0.060981
H176	H	-0.465440	-0.262664	-0.021856
H177	H	-0.528485	-0.163466	0.060983
H178	H	0.034045	0.099257	0.000132
H179	H	-0.511146	-0.190930	0.796382
H180	H	-0.652084	0.293367	0.000111
C181	C	0.195990	-0.237800	0.000095
C182	C	0.207744	-0.294624	0.071487
C183	C	0.186442	-0.370992	0.071483
C184	C	0.153386	-0.390537	0.000088
C185	C	0.141630	-0.333712	-0.071310
C186	C	0.162932	-0.257344	-0.071306
H187	H	0.232215	-0.280156	0.124343
H188	H	0.195144	-0.413057	0.124337
H189	H	0.137616	-0.447069	0.000085
H190	H	0.117158	-0.348179	-0.124166
H191	H	0.154230	-0.215279	-0.124160
C192	C	0.171482	0.052092	0.000119
C193	C	0.173607	0.109150	0.071513
C194	C	0.139467	0.184640	0.071511
C195	C	0.103201	0.203072	0.000114
C196	C	0.101075	0.146012	-0.071286
C197	C	0.135215	0.070522	-0.071284
H198	H	0.200454	0.095507	0.124370
H199	H	0.141041	0.226880	0.124366
H200	H	0.077929	0.258954	0.000112
H201	H	0.074228	0.159655	-0.124144
H202	H	0.133641	0.028283	-0.124139
H203	H	-0.493725	0.115551	0.000074
C204	C	-0.066280	0.117407	0.000122
C205	C	-0.064160	0.174466	0.071517
C206	C	-0.098300	0.249956	0.071508
C207	C	-0.134561	0.268386	0.000105
C208	C	-0.136683	0.211325	-0.071296
C209	C	-0.102542	0.135836	-0.071287
H210	H	-0.037316	0.160825	0.124379
H211	H	-0.096730	0.292196	0.124364
H212	H	-0.159834	0.324267	0.000098
H213	H	-0.163527	0.224967	-0.124157
H214	H	-0.104113	0.093596	-0.124143
H215	H	0.292998	-0.216502	0.000102
H216	H	-0.488201	0.656025	0.000067
H217	H	-0.630613	-0.002878	0.360811
H218	H	0.271809	0.033937	0.000111
H219	H	-0.343273	0.024153	0.000079
C220	C	-0.501729	-0.205731	0.627003
C221	C	-0.465525	-0.262758	0.674597
C222	C	-0.429300	-0.319763	0.626995
C223	C	-0.429279	-0.319741	0.531798
C224	C	-0.465485	-0.262711	0.484199
C225	C	-0.501710	-0.205706	0.531801
H226	H	-0.465539	-0.262776	0.745072
H227	H	-0.402498	-0.361980	0.662231
H228	H	-0.402464	-0.361939	0.496560
H229	H	-0.465471	-0.262693	0.413724
H230	H	-0.528512	-0.163489	0.496565
H231	H	-0.413562	-0.227746	0.000052
H232	H	-0.434745	0.022692	0.000076
H233	H	-0.024559	-0.290672	0.000091
H234	H	0.066907	-0.289208	0.000099
H235	H	-0.117210	0.096860	0.000138
H236	H	-0.653548	0.150171	0.000123
