data_functionalizedCrystal
_audit_creation_method	'MofGen! by Chris Wilmer'
_symmetry_space_group_name_H-M	'P1'
_symmetry_Int_Tables_number	1
_symmetry_cell_setting	triclinic
loop_
_symmetry_equiv_pos_as_xyz
  x,y,z
_cell_length_a	13.635800
_cell_length_b	11.102291
_cell_length_c	25.235388
_cell_angle_alpha	90.942692
_cell_angle_beta	67.934957
_cell_angle_gamma	71.394248
loop_
_atom_site_label
_atom_site_type_symbol
_atom_site_fract_x
_atom_site_fract_y
_atom_site_fract_z
V1	V	-2.065313	0.396978	0.079168
O2	O	-2.034828	0.388681	-0.003797
O3	O	-2.063080	0.394974	0.156970
O4	O	-2.053559	0.569789	0.077954
O5	O	-2.044415	0.212656	0.075766
V6	V	-2.302668	0.374845	0.069244
O7	O	-2.205609	0.445528	0.100937
O8	O	-2.387471	0.326295	0.047475
O9	O	-2.193297	0.376849	-0.008558
O10	O	-2.391851	0.383141	0.152209
O11	O	-2.382264	0.559166	0.072646
O12	O	-2.202819	0.202034	0.070459
C13	C	-1.990522	0.388895	0.175936
C14	C	-2.029423	0.388409	0.239540
C15	C	-1.978376	0.611887	0.075142
C16	C	-2.009553	0.753166	0.074664
V17	V	-1.565313	0.396978	0.079168
O18	O	-1.534828	0.388681	-0.003797
O19	O	-1.563080	0.394974	0.156970
O20	O	-1.553559	0.569789	0.077954
O21	O	-1.544415	0.212656	0.075766
V22	V	-1.802668	0.374845	0.069244
O23	O	-1.705609	0.445528	0.100937
O24	O	-1.887471	0.326295	0.047475
O25	O	-1.693297	0.376849	-0.008558
O26	O	-1.891851	0.383141	0.152209
O27	O	-1.882264	0.559166	0.072646
O28	O	-1.702819	0.202034	0.070459
C29	C	-2.140060	0.394557	0.272327
C30	C	-2.176631	0.394119	0.332092
C31	C	-2.102561	0.387524	0.359068
C32	C	-1.991915	0.381380	0.326277
C33	C	-1.955348	0.381827	0.266514
C34	C	-2.109673	0.159929	0.073272
C35	C	-2.068114	0.018649	0.073747
C36	C	-2.116547	0.826038	0.077293
C37	C	-2.145827	0.958780	0.076832
C38	C	-1.961110	0.945767	0.071116
C39	C	-1.931828	0.813026	0.071573
C40	C	-2.223194	0.833553	0.080596
C41	C	-2.252474	0.966295	0.080135
C42	C	-2.097527	0.382924	-0.027521
C43	C	-2.048246	0.383419	-0.091125
C44	C	-1.701701	0.269887	-0.493716
C45	C	-1.655375	0.270334	-0.553479
O46	O	-1.596685	0.171526	-0.591340
N47	N	-1.673013	0.387020	-0.575193
C48	C	-1.736972	0.503267	-0.537141
O49	O	-1.747719	0.602559	-0.561098
C50	C	-1.783289	0.502819	-0.477378
C51	C	-1.765656	0.386125	-0.455668
C52	C	-1.684070	0.153202	-0.472004
C53	C	-1.730394	0.152756	-0.412246
C54	C	-1.794349	0.268994	-0.374198
C55	C	-1.811980	0.385679	-0.395909
C56	C	-1.847240	0.619066	-0.439327
C57	C	-1.893556	0.618608	-0.379561
C58	C	-1.875923	0.501914	-0.357851
C59	C	-1.922260	0.501470	-0.298102
N60	N	-1.904622	0.384784	-0.276388
C61	C	-1.840667	0.268546	-0.314436
C62	C	-1.639697	0.504199	-0.662646
C63	C	-1.593388	0.504647	-0.722407
C64	C	-1.511792	0.271714	-0.738741
C65	C	-1.558110	0.271266	-0.678979
C66	C	-1.622059	0.387513	-0.640931
C67	C	-1.937955	0.267617	-0.188937
C68	C	-1.984291	0.267181	-0.129172
C69	C	-2.065877	0.500114	-0.112843
C70	C	-2.019550	0.500551	-0.172603
C71	C	-1.955583	0.384292	-0.210649
O72	O	-1.980957	0.600228	-0.260207
O73	O	-1.829918	0.169272	-0.290469
C74	C	-1.490522	0.388895	0.175936
C75	C	-1.529423	0.388409	0.239540
C76	C	-1.478376	0.611887	0.075142
C77	C	-1.509553	0.753166	0.074664
C78	C	-1.597527	0.382924	-0.027521
C79	C	-1.548246	0.383419	-0.091125
C80	C	-1.609673	0.159929	0.073272
C81	C	-1.568114	0.018649	0.073747
C82	C	-1.610103	0.377274	-0.123911
C83	C	-1.563804	0.377718	-0.183675
C84	C	-1.455652	0.384316	-0.210651
C85	C	-1.393791	0.390457	-0.177861
C86	C	-1.440086	0.390004	-0.118098
C87	C	-1.616547	0.826038	0.077293
C88	C	-1.645827	0.958780	0.076832
C89	C	-1.461110	0.945767	0.071116
C90	C	-1.431828	0.813026	0.071573
C91	C	-1.723194	0.833553	0.080596
C92	C	-1.752474	0.966295	0.080135
H93	H	-2.200386	0.399919	0.250371
C94	C	-2.298339	0.400863	0.368151
C95	C	-2.378499	0.513250	0.417815
C96	C	-2.500204	0.519992	0.453872
C97	C	-2.541748	0.414347	0.440266
C98	C	-2.461586	0.301952	0.390599
C99	C	-2.339882	0.295210	0.354542
H100	H	-2.347747	0.591462	0.427890
H101	H	-2.559544	0.603195	0.490639
H102	H	-2.631841	0.419338	0.466957
H103	H	-2.492339	0.223740	0.380525
H104	H	-2.280541	0.212008	0.317776
H105	H	-1.885871	0.172949	-0.219908
H106	H	-2.132350	0.387162	0.407731
C107	C	-1.730014	0.769438	0.028134
C108	C	-1.765089	0.851866	-0.014623
C109	C	-1.771908	0.787752	-0.067083
C110	C	-1.743650	0.641210	-0.076786
C111	C	-1.708572	0.558773	-0.034028
C112	C	-1.701753	0.622887	0.018432
H113	H	-1.786010	0.960353	-0.007441
H114	H	-1.797875	0.848778	-0.098736
H115	H	-1.748697	0.593748	-0.115620
H116	H	-1.687652	0.450286	-0.041209
H117	H	-1.675786	0.561862	0.050085
H118	H	-1.969927	0.172150	-0.111500
H119	H	-2.265808	0.995028	0.039511
H120	H	-2.117962	0.594752	-0.081854
C121	C	-1.856270	1.038214	0.136020
C122	C	-1.968119	1.014610	0.150155
C123	C	-2.071908	1.086532	0.206038
C124	C	-2.063848	1.182058	0.247786
C125	C	-1.951994	1.205667	0.233652
C126	C	-1.848205	1.133745	0.177769
H127	H	-1.974089	0.943891	0.119250
H128	H	-2.154709	1.069054	0.216501
H129	H	-2.140678	1.235299	0.289154
H130	H	-1.946023	1.276386	0.264557
H131	H	-1.765404	1.151223	0.167306
C132	C	-2.230014	0.769438	0.028134
C133	C	-2.265089	0.851866	-0.014623
C134	C	-2.271908	0.787752	-0.067083
C135	C	-2.243650	0.641210	-0.076786
C136	C	-2.208572	0.558773	-0.034028
C137	C	-2.201753	0.622887	0.018432
H138	H	-2.286010	0.960353	-0.007441
H139	H	-2.297875	0.848778	-0.098736
H140	H	-2.248697	0.593748	-0.115620
H141	H	-2.187652	0.450286	-0.041209
H142	H	-2.175786	0.561862	0.050085
C143	C	-1.631870	0.370978	-0.219734
C144	C	-1.747223	0.476622	-0.206125
C145	C	-1.815291	0.469884	-0.242182
C146	C	-1.768006	0.357502	-0.291848
C147	C	-1.652647	0.251849	-0.305459
C148	C	-1.584579	0.258587	-0.269403
H149	H	-1.782231	0.559821	-0.169357
H150	H	-1.900688	0.548096	-0.232106
H151	H	-1.818395	0.352514	-0.318539
H152	H	-1.617639	0.168650	-0.342227
H153	H	-1.499183	0.180375	-0.279479
H154	H	-2.276036	0.809477	0.123264
H155	H	-1.931615	0.376011	0.348250
C156	C	-1.710973	0.024387	-0.388371
C157	C	-1.751893	-0.077712	-0.406115
C158	C	-1.732459	-0.206088	-0.382246
C159	C	-1.672103	-0.232365	-0.340633
C160	C	-1.631179	-0.130263	-0.322886
C161	C	-1.650614	-0.001887	-0.346755
H162	H	-1.796575	-0.058263	-0.436922
H163	H	-1.762754	-0.281671	-0.395384
H164	H	-1.657717	-0.327397	-0.322964
H165	H	-1.586497	-0.149712	-0.292080
H166	H	-1.620319	0.073696	-0.333618
H167	H	-1.865254	0.376813	0.239823
H168	H	-1.844706	0.753698	0.069433
H169	H	-1.897833	0.994520	0.068598
H170	H	-1.389710	0.395019	-0.091407
C171	C	-2.038953	0.628909	-0.196491
C172	C	-1.937360	0.667316	-0.232544
C173	C	-1.956758	0.795675	-0.256428
C174	C	-2.077748	0.885628	-0.244258
C175	C	-2.179349	0.847223	-0.208203
C176	C	-2.159951	0.718863	-0.184320
H177	H	-1.847789	0.600726	-0.241554
H178	H	-1.881545	0.824105	-0.283118
H179	H	-2.092107	0.980647	-0.261939
H180	H	-2.268920	0.913813	-0.199193
H181	H	-2.235163	0.690434	-0.157630
C182	C	-2.356265	1.038215	0.136022
C183	C	-2.465917	1.126707	0.132580
C184	C	-2.569699	1.198630	0.188466
C185	C	-2.563830	1.182059	0.247793
C186	C	-2.454174	1.093563	0.251237
C187	C	-2.350391	1.021640	0.195352
H188	H	-2.470266	1.138977	0.088660
H189	H	-2.650874	1.264141	0.185916
H190	H	-2.640655	1.235300	0.289162
H191	H	-2.449825	1.081293	0.295157
H192	H	-2.269217	0.956129	0.197902
C193	C	-1.770502	1.005134	0.025261
C194	C	-1.885828	1.098980	0.030432
C195	C	-1.903849	1.137826	-0.024441
C196	C	-1.806543	1.082825	-0.084486
C197	C	-1.691209	0.988973	-0.089659
C198	C	-1.673188	0.950128	-0.034786
H199	H	-1.957867	1.139700	0.074883
H200	H	-1.989227	1.207301	-0.020611
H201	H	-1.819883	1.111580	-0.125107
H202	H	-1.619170	0.948253	-0.134110
H203	H	-1.587809	0.880653	-0.038616
H204	H	-1.945624	0.713273	-0.348585
H205	H	-1.631992	0.058542	-0.502978
H206	H	-1.543744	0.176243	-0.661307
H207	H	-1.459706	0.177066	-0.769730
C208	C	-1.794572	0.801012	0.138235
C209	C	-1.885902	0.909891	0.187156
C210	C	-1.957275	0.877350	0.244797
C211	C	-1.937318	0.735929	0.253518
C212	C	-1.845984	0.627041	0.204595
C213	C	-1.774611	0.659583	0.146954
H214	H	-1.900680	1.014588	0.180702
H215	H	-2.024887	0.957957	0.281012
H216	H	-1.990153	0.711840	0.296187
H217	H	-1.831206	0.522345	0.211049
H218	H	-1.706999	0.578975	0.110739
H219	H	-1.344706	0.753698	0.069433
H220	H	-1.417968	0.384683	-0.259314
H221	H	-1.607770	0.599670	-0.740078
H222	H	-1.691776	0.598866	-0.631670
H223	H	-1.861601	0.714092	-0.456992
H224	H	-1.698168	0.371903	-0.101955
H225	H	-1.305728	0.395827	-0.199834
H226	H	-1.397833	0.994520	0.068598
