data_functionalizedCrystal
_audit_creation_method	'MofGen! by Chris Wilmer'
_symmetry_space_group_name_H-M	'P1'
_symmetry_Int_Tables_number	1
_symmetry_cell_setting	triclinic
loop_
_symmetry_equiv_pos_as_xyz
  x,y,z
_cell_length_a	17.699083
_cell_length_b	19.188930
_cell_length_c	16.776229
_cell_angle_alpha	89.988225
_cell_angle_beta	89.998886
_cell_angle_gamma	83.213899
loop_
_atom_site_label
_atom_site_type_symbol
_atom_site_fract_x
_atom_site_fract_y
_atom_site_fract_z
O1	O	1.003962	0.088294	-0.066185
O2	O	1.503962	0.588294	0.433815
O3	O	0.783569	0.099782	-0.066213
O4	O	1.283569	0.599782	0.433787
O5	O	0.900126	-0.007611	-0.066183
O6	O	1.400126	0.492389	0.433817
O7	O	0.887405	0.195686	-0.066215
O8	O	1.387405	0.695686	0.433785
O9	O	0.900110	-0.007617	0.066394
O10	O	1.400110	0.492383	0.566394
O11	O	0.783553	0.099775	0.066364
O12	O	1.283553	0.599775	0.566364
O13	O	1.003947	0.088288	0.066391
O14	O	1.503947	0.588288	0.566391
Zn15	Zn	0.893748	0.094030	0.087427
Zn16	Zn	1.393748	0.594030	0.587427
Zn17	Zn	0.893768	0.094039	-0.087249
Zn18	Zn	1.393768	0.594039	0.412751
O19	O	0.887390	0.195680	0.066361
O20	O	1.387390	0.695680	0.566361
C21	C	0.755365	0.099367	0.000072
C22	C	1.255365	0.599367	0.500072
C23	C	0.671348	0.098132	0.000062
C24	C	1.171348	0.598132	0.500062
C25	C	0.622644	0.161169	0.000053
C26	C	1.122644	0.661169	0.500053
C27	C	0.543702	0.160004	0.000063
C28	C	1.043702	0.660004	0.500063
C29	C	0.513466	0.095802	0.000078
C30	C	1.013466	0.595802	0.500078
C31	C	0.562176	0.032761	0.000090
C32	C	1.062176	0.532761	0.500090
C33	C	0.641117	0.033926	0.000085
C34	C	1.141117	0.533926	0.500085
C35	C	0.243819	0.028060	0.000111
C36	C	0.743819	0.528060	0.500111
C37	C	0.164873	0.026900	0.000113
C38	C	0.664873	0.526900	0.500113
C39	C	0.146405	0.154139	0.000088
C40	C	0.646405	0.654139	0.500088
C41	C	0.225345	0.155304	0.000084
C42	C	0.725345	0.655304	0.500084
C43	C	0.274049	0.092263	0.000100
C44	C	0.774049	0.592263	0.500100
C45	C	0.359646	0.093526	0.000090
C46	C	0.859646	0.593526	0.500090
C47	C	0.427870	0.094538	0.000082
C48	C	0.927870	0.594538	0.500082
C49	C	0.899706	-0.033625	0.000108
C50	C	1.399706	0.466375	0.500108
C51	C	0.898469	-0.111131	0.000114
C52	C	1.398469	0.388869	0.500114
C53	C	0.966861	-0.155978	0.000127
C54	C	1.466861	0.344022	0.500127
C55	C	0.965699	-0.228804	0.000114
C56	C	1.465699	0.271196	0.500114
C57	C	0.896142	-0.256778	0.000105
C58	C	1.396142	0.243222	0.500105
C59	C	0.827741	-0.211921	0.000088
C60	C	1.327741	0.288079	0.500088
C61	C	0.828905	-0.139098	0.000093
C62	C	1.328905	0.360902	0.500093
N63	N	0.842969	-0.364845	0.045216
N64	N	1.342969	0.135155	0.545216
N65	N	0.841868	-0.434025	0.045213
N66	N	1.341868	0.065975	0.545213
C67	C	0.892632	-0.476191	0.000088
C68	C	1.392632	0.023809	0.500088
N69	N	0.944550	-0.446565	-0.045024
N70	N	1.444550	0.053435	0.454976
N71	N	0.945653	-0.377379	-0.045018
N72	N	1.445653	0.122621	0.454982
C73	C	0.894873	-0.335742	0.000099
C74	C	1.394873	0.164258	0.500099
C75	C	0.959769	-0.600004	0.000085
C76	C	1.459769	-0.100004	0.500085
C77	C	0.958604	-0.672830	0.000067
C78	C	1.458604	-0.172830	0.500067
C79	C	0.820644	-0.655946	0.000049
C80	C	1.320644	-0.155946	0.500049
C81	C	0.821811	-0.583121	0.000059
C82	C	1.321811	-0.083121	0.500059
C83	C	0.891375	-0.555155	0.000081
C84	C	1.391375	-0.055155	0.500081
C85	C	1.032151	0.088703	0.000104
C86	C	1.532151	0.588703	0.500104
C87	C	1.116167	0.089938	0.000109
C88	C	1.616167	0.589938	0.500109
C89	C	0.887810	0.221695	0.000069
C90	C	1.387810	0.721695	0.500069
C91	C	0.889046	0.299201	0.000057
C92	C	1.389046	0.799201	0.500057
N93	N	0.893739	0.094024	0.206638
N94	N	1.393739	0.594024	0.706638
N95	N	0.893782	0.094040	-0.206460
N96	N	1.393782	0.594040	0.293540
C97	C	0.945366	0.046490	0.248368
C98	C	1.445366	0.546490	0.748368
C99	C	0.945370	0.046490	0.331821
C100	C	1.445370	0.546490	0.831821
C101	C	0.893751	0.094027	0.373541
C102	C	1.393751	0.594027	0.873541
C103	C	0.842118	0.141563	0.331805
C104	C	1.342118	0.641563	0.831805
C105	C	0.842111	0.141559	0.248354
C106	C	1.342111	0.641559	0.748354
C107	C	0.842146	0.141576	0.668352
C108	C	1.342146	0.641576	1.168352
C109	C	0.842158	0.141578	0.751808
C110	C	1.342158	0.641578	1.251808
C111	C	0.945405	0.046507	0.751818
C112	C	1.445405	0.546507	1.251818
C113	C	0.945398	0.046503	0.668368
C114	C	1.445398	0.546503	1.168368
C115	C	0.893763	0.094037	0.626639
C116	C	1.393763	0.594037	1.126639
C117	C	0.893758	0.094036	0.536150
C118	C	1.393758	0.594036	1.036150
C119	C	0.893759	0.094031	0.464028
C120	C	1.393759	0.594031	0.964028
H121	H	0.647256	0.213450	0.000040
H122	H	1.147256	0.713450	0.500040
H123	H	0.800070	0.180265	0.214378
H124	H	1.300070	0.680265	0.714378
C125	C	0.753673	-0.089760	0.000081
C126	C	1.253673	0.410240	0.500081
H127	H	0.764329	-0.042384	0.000082
H128	H	1.264329	0.457616	0.500082
H129	H	0.725131	-0.098237	0.046306
H130	H	1.225131	0.401763	0.546306
H131	H	0.725151	-0.098216	-0.046165
H132	H	1.225151	0.401784	0.453835
C133	C	1.033839	-0.722163	0.000082
C134	C	1.533839	-0.222163	0.500082
H135	H	1.075432	-0.695074	0.000104
H136	H	1.575432	-0.195074	0.500104
H137	H	1.036265	-0.750912	-0.046152
H138	H	1.536265	-0.250912	0.453848
H139	H	1.036240	-0.750931	0.046319
H140	H	1.536240	-0.250931	0.546319
H141	H	0.764009	-0.678722	0.000038
H142	H	1.264009	-0.178722	0.500038
H143	H	0.680771	-0.017406	0.000093
H144	H	1.180771	0.482594	0.500093
H145	H	0.766119	-0.546605	0.000054
H146	H	1.266119	-0.046605	0.500054
C147	C	0.092830	0.223484	0.000081
C148	C	0.592830	0.723484	0.500081
H149	H	0.041485	0.213599	0.000095
H150	H	0.541485	0.713599	0.500095
H151	H	0.101969	0.249817	-0.046158
H152	H	0.601969	0.749817	0.453842
H153	H	0.101977	0.249813	0.046313
H154	H	0.601977	0.749813	0.546313
C155	C	0.751228	-0.242687	0.000075
C156	C	1.251228	0.257313	0.500075
H157	H	0.710662	-0.205544	0.000061
H158	H	1.210662	0.294456	0.500061
H159	H	0.747897	-0.270754	0.046304
H160	H	1.247897	0.229246	0.546304
H161	H	0.747917	-0.270733	-0.046167
H162	H	1.247917	0.229267	0.453833
H163	H	1.016412	-0.577233	0.000099
H164	H	1.516412	-0.077233	0.500099
C165	C	0.528918	-0.037860	0.000105
C166	C	1.028918	0.462140	0.500105
H167	H	0.474929	-0.029527	0.000098
H168	H	0.974929	0.470473	0.500098
H169	H	0.545651	-0.063814	0.046340
H170	H	1.045651	0.436186	0.546340
H171	H	0.545651	-0.063805	-0.046130
H172	H	1.045651	0.436195	0.453870
C173	C	0.785356	0.193867	0.622460
C174	C	1.285356	0.693867	1.122460
H175	H	0.754623	0.222182	0.659262
H176	H	1.254623	0.722182	1.159262
H177	H	0.753930	0.168789	0.589917
H178	H	1.253930	0.668789	1.089917
H179	H	0.812485	0.222901	0.589896
H180	H	1.312485	0.722901	1.089896
H181	H	0.504050	0.211335	0.000054
H182	H	1.004050	0.711335	0.500054
C183	C	0.785360	0.193858	0.797700
C184	C	1.285360	0.693858	1.297700
H185	H	0.754599	0.222160	0.760896
H186	H	1.254599	0.722160	1.260896
H187	H	0.812478	0.222898	0.830247
H188	H	1.312478	0.722898	1.330247
H189	H	0.753951	0.168761	0.830260
H190	H	1.253951	0.668761	1.330260
H191	H	1.023506	-0.133213	0.000142
H192	H	1.523506	0.366787	0.500142
H193	H	0.987404	0.007783	0.214405
H194	H	1.487404	0.507783	0.714405
C195	C	1.040933	-0.278144	0.000133
C196	C	1.540933	0.221856	0.500133
H197	H	1.082529	-0.251058	0.000151
H198	H	1.582529	0.248942	0.500151
H199	H	1.043357	-0.306897	-0.046098
H200	H	1.543357	0.193103	0.453902
H201	H	1.043332	-0.306909	0.046372
H202	H	1.543332	0.193091	0.546372
H203	H	0.987409	0.007784	0.365797
H204	H	1.487409	0.507784	0.865797
C205	C	1.002177	-0.005789	0.622480
C206	C	1.502177	0.494211	1.122480
H207	H	1.032921	-0.034104	0.659286
H208	H	1.532921	0.465896	1.159286
H209	H	1.033594	0.019287	0.589911
H210	H	1.533594	0.519287	1.089911
H211	H	0.975039	-0.034825	0.589941
H212	H	1.475039	0.465175	1.089941
C213	C	0.785339	0.193854	0.377695
C214	C	1.285339	0.693854	0.877695
H215	H	0.792742	0.187054	0.433372
H216	H	1.292742	0.687054	0.933372
H217	H	0.734852	0.186331	0.364029
H218	H	1.234852	0.686331	0.864029
H219	H	0.793406	0.240444	0.364001
H220	H	1.293406	0.740444	0.864001
H221	H	0.987447	0.007800	0.785803
H222	H	1.487447	0.507800	1.285803
C223	C	0.258605	0.225924	0.000065
C224	C	0.758605	0.725924	0.500065
H225	H	0.312595	0.217589	0.000056
H226	H	0.812595	0.717589	0.500056
H227	H	0.241876	0.251874	0.046292
H228	H	0.741876	0.751874	0.546292
H229	H	0.241872	0.251874	-0.046178
H230	H	0.741872	0.751874	0.453822
H231	H	0.140258	-0.025384	0.000126
H232	H	0.640258	0.474616	0.500126
H233	H	0.283465	-0.023272	0.000125
H234	H	0.783465	0.476728	0.500125
