data_functionalizedCrystal
_audit_creation_method	'MofGen! by Chris Wilmer'
_symmetry_space_group_name_H-M	'P1'
_symmetry_Int_Tables_number	1
_symmetry_cell_setting	triclinic
loop_
_symmetry_equiv_pos_as_xyz
  x,y,z
_cell_length_a	10.540539
_cell_length_b	13.262430
_cell_length_c	12.376457
_cell_angle_alpha	116.832113
_cell_angle_beta	78.605562
_cell_angle_gamma	84.478184
loop_
_atom_site_label
_atom_site_type_symbol
_atom_site_fract_x
_atom_site_fract_y
_atom_site_fract_z
O1	O	-0.026904	-1.512622	-0.559093
O2	O	-0.071387	-1.185851	-0.458620
O3	O	0.136192	-1.356692	-0.511150
O4	O	-0.234482	-1.341781	-0.506563
O5	O	0.084365	-1.313997	-0.310010
O6	O	-0.123214	-1.143156	-0.257480
O7	O	-0.078731	-1.469927	-0.357953
Zn8	Zn	-0.109201	-1.299762	-0.275781
Zn9	Zn	-0.040916	-1.356015	-0.540792
O10	O	-0.286309	-1.299086	-0.305423
C11	C	-0.099574	-1.122661	-0.345185
C12	C	-0.106333	-0.997983	-0.306850
C13	C	-0.012359	-0.739641	-0.637375
C14	C	-0.006002	-0.856784	-0.673395
C15	C	-0.031084	-0.892089	-0.581762
C16	C	-0.062524	-0.810241	-0.454103
C17	C	-0.068872	-0.693088	-0.418080
C18	C	-0.087597	-0.845536	-0.362467
C19	C	-0.119037	-0.763688	-0.234808
C20	C	-0.125385	-0.646547	-0.198792
C21	C	-0.100302	-0.611241	-0.290425
C22	C	-0.081250	-0.962689	-0.398489
C23	C	-0.137763	-0.916136	-0.179194
C24	C	-0.144120	-0.798993	-0.143175
C25	C	-0.307604	-1.321552	-0.406337
C26	C	-0.448270	-1.324897	-0.407365
C27	C	-0.620739	-1.453185	-0.447245
C28	C	-0.474527	-1.449695	-0.445739
C29	C	-0.544608	-1.240459	-0.274042
C30	C	-0.690815	-1.244699	-0.275265
C31	C	-0.632594	-1.290713	-0.503218
C32	C	-0.485320	-1.289884	-0.504373
C33	C	0.157488	-1.334227	-0.410239
C34	C	0.298155	-1.330883	-0.409218
C35	C	-0.050545	-0.533117	-0.471387
C36	C	-0.043789	-0.657794	-0.509720
N37	N	-0.155802	-1.261379	-0.094921
N38	N	0.005695	-1.394407	-0.721655
C39	C	0.113896	-1.483506	0.191765
C40	C	0.146512	-1.510364	0.065167
C41	C	0.070937	-1.448120	0.025139
C42	C	-0.037261	-1.359014	0.111721
C43	C	-0.069886	-1.332159	0.238330
C44	C	-0.112846	-1.296773	0.071703
C45	C	-0.221043	-1.207667	0.158286
C46	C	-0.253662	-1.180816	0.284881
C47	C	-0.178087	-1.243060	0.324910
C48	C	-0.080220	-1.323628	-0.054905
C49	C	-0.264003	-1.172280	-0.008341
C50	C	-0.296618	-1.145422	0.118257
H51	H	-0.055654	-1.029319	-0.502430
Cl52	Cl	0.019236	-0.695256	-0.752557
H53	H	0.175414	-1.534184	0.224365
Cl54	Cl	-0.436660	-1.496129	-0.340984
Cl55	Cl	-0.023098	-1.039356	-0.627046
Cl56	Cl	0.282523	-1.622377	-0.043675
Cl57	Cl	-0.164903	-0.543655	-0.038306
Cl58	Cl	-0.693553	-1.502151	-0.344100
H59	H	0.019603	-0.923417	-0.777335
Cl60	Cl	-0.625675	-1.556299	-0.597826
H61	H	-0.737390	-1.270863	-0.203056
H62	H	-0.466997	-1.200372	-0.483335
H63	H	-0.105481	-0.515856	-0.261104
Cl64	Cl	-0.219087	-1.209289	0.484070
Cl65	Cl	-0.716958	-1.151795	-0.461621
H66	H	-0.520524	-1.264044	-0.201394
H67	H	-0.325545	-1.121597	-0.040930
Cl68	Cl	-0.778676	-1.104420	-0.224587
H69	H	-0.169718	-0.732337	-0.039233
Cl70	Cl	-0.169286	-0.960512	-0.063991
Cl71	Cl	0.055795	-1.435642	-0.163735
H72	H	-0.406707	-1.514435	-0.542601
Cl73	Cl	-0.432636	-1.033407	0.227114
H74	H	-0.531104	-1.147903	-0.241590
H75	H	-0.638300	-1.349580	-0.602695
H76	H	0.097497	-1.469992	-0.077944
H77	H	-0.418774	-1.351807	-0.602837
Cl78	Cl	-0.389694	-1.068810	0.393725
