data_functionalizedCrystal
_audit_creation_method	'MofGen! by Chris Wilmer'
_symmetry_space_group_name_H-M	'P1'
_symmetry_Int_Tables_number	1
_symmetry_cell_setting	triclinic
loop_
_symmetry_equiv_pos_as_xyz
  x,y,z
_cell_length_a	19.288867
_cell_length_b	16.176319
_cell_length_c	19.288857
_cell_angle_alpha	90.008960
_cell_angle_beta	83.135089
_cell_angle_gamma	90.005931
loop_
_atom_site_label
_atom_site_type_symbol
_atom_site_fract_x
_atom_site_fract_y
_atom_site_fract_z
O1	O	0.921348	0.068721	0.086656
O2	O	0.719087	0.068730	0.098344
O3	O	0.826064	0.068716	-0.008631
O4	O	0.814370	0.068736	0.193631
O5	O	0.826050	-0.068778	-0.008637
O6	O	0.719072	-0.068763	0.098337
O7	O	0.921333	-0.068772	0.086650
Cu8	Cu	0.820201	-0.081322	0.092493
Cu9	Cu	0.820219	0.081280	0.092501
O10	O	0.814355	-0.068757	0.193624
C11	C	0.693203	-0.000016	0.097964
C12	C	0.616100	-0.000013	0.096834
C13	C	0.060543	0.074924	0.088702
C14	C	0.132990	0.074928	0.089759
C15	C	0.169211	-0.000020	0.090287
C16	C	0.132980	-0.074976	0.089740
C17	C	0.060535	-0.074977	0.088676
C18	C	0.278531	-0.057435	0.132652
C19	C	0.350974	-0.057431	0.133721
C20	C	0.392656	-0.000020	0.093566
C21	C	0.361885	0.057401	0.052352
C22	C	0.289440	0.057400	0.051288
C23	C	0.247765	-0.000027	0.091441
C24	C	0.507435	0.074935	0.095255
C25	C	0.579884	0.074935	0.096308
C26	C	0.579872	-0.074970	0.096296
C27	C	0.507425	-0.074968	0.095236
C28	C	0.471210	-0.000013	0.094719
N29	N	0.820194	-0.195687	0.092487
C30	C	0.867578	-0.238957	0.045138
C31	C	0.867582	-0.325505	0.045137
C32	C	0.820204	-0.368779	0.092489
C33	C	0.772815	-0.325503	0.139840
C34	C	0.772809	-0.238957	0.139837
C35	C	0.772839	-0.674531	0.139853
C36	C	0.772850	-0.761083	0.139854
C37	C	0.867612	-0.761078	0.045153
C38	C	0.867605	-0.674533	0.045150
C39	C	0.820214	-0.631264	0.092498
C40	C	0.820210	-0.537420	0.092498
C41	C	0.820211	-0.462622	0.092493
C42	C	0.947217	-0.000024	0.087029
C43	C	1.024320	-0.000022	0.088159
C44	C	0.825682	-0.000032	-0.034511
C45	C	0.824555	-0.000034	-0.111614
N46	N	0.820231	0.195645	0.092501
C47	C	0.824037	0.074914	-0.147821
C48	C	0.822968	0.074920	-0.220267
C49	C	0.822431	-0.000026	-0.256506
C50	C	0.822946	-0.074984	-0.220289
C51	C	0.824007	-0.074988	-0.147844
C52	C	0.861427	-0.057441	-0.376740
C53	C	0.860370	-0.057433	-0.449184
C54	C	0.819154	-0.000017	-0.479951
C55	C	0.779004	0.057407	-0.438266
C56	C	0.780066	0.057403	-0.365820
C57	C	0.821280	-0.000030	-0.335061
C58	C	0.817476	0.074943	-0.594712
C59	C	0.816403	0.074946	-0.667159
C60	C	0.816387	-0.074959	-0.667181
C61	C	0.817453	-0.074960	-0.594734
C62	C	0.818001	-0.000007	-0.558505
C63	C	0.814738	-0.000008	0.219504
C64	C	0.815865	-0.000000	0.296608
H65	H	0.031043	-0.136009	0.088237
C66	C	0.822357	-0.157422	-0.260148
H67	H	0.821657	-0.146686	-0.308481
H68	H	0.782031	-0.188216	-0.242858
H69	H	0.863028	-0.188219	-0.253704
C70	C	0.735898	0.120555	-0.319968
H71	H	0.711194	0.154750	-0.348662
H72	H	0.765644	0.153758	-0.295627
H73	H	0.703594	0.092112	-0.287333
H74	H	0.162487	0.135960	0.090205
C75	C	0.720731	-0.808688	0.191939
H76	H	0.727529	-0.866428	0.185163
H77	H	0.674400	-0.794522	0.184510
H78	H	0.728123	-0.794491	0.238281
H79	H	0.824426	-0.136021	-0.118364
H80	H	0.264389	0.104153	0.017729
H81	H	0.734253	-0.639308	0.178407
C82	C	0.619706	-0.157411	0.096876
H83	H	0.668039	-0.146678	0.097591
H84	H	0.613255	-0.188210	0.056204
H85	H	0.602405	-0.188202	0.137201
H86	H	0.817918	0.135975	-0.565212
H87	H	0.734223	-0.203727	0.178393
C88	C	0.407726	0.120558	0.008181
H89	H	0.455279	0.112331	0.014710
H90	H	0.393941	0.174968	0.022316
H91	H	0.402246	0.113324	-0.039738
C92	C	0.720702	-0.373103	0.191928
H93	H	0.727496	-0.430844	0.185154
H94	H	0.674370	-0.358934	0.184503
H95	H	0.728101	-0.358903	0.238267
C96	C	0.919698	-0.191359	-0.006944
H97	H	0.912915	-0.133617	-0.000160
H98	H	0.912310	-0.205553	-0.053284
H99	H	0.966029	-0.205534	0.000492
H100	H	0.815978	0.135980	-0.696637
H101	H	0.906164	-0.360735	0.006581
C102	C	0.919735	-0.808676	-0.006937
H103	H	0.912950	-0.866418	-0.000162
H104	H	0.966063	-0.794481	0.000489
H105	H	0.912335	-0.794502	-0.053278
H106	H	0.815945	-0.135982	-0.696684
H107	H	0.477947	0.135968	0.094831
C108	C	0.919718	-0.626935	-0.006939
H109	H	0.947935	-0.665101	-0.035144
H110	H	0.948548	-0.593158	0.017970
H111	H	0.894816	-0.593190	-0.035793
H112	H	0.817881	-0.135991	-0.565255
H113	H	0.822542	0.135953	-0.249752
C114	C	0.619729	0.157380	0.096905
H115	H	0.587781	0.202017	0.096451
H116	H	0.653415	0.160501	0.056824
H117	H	0.642564	0.160492	0.137821
H118	H	0.824481	0.135947	-0.118328
H119	H	0.745443	0.104162	-0.463314
C120	C	0.904530	-0.120596	-0.495031
H121	H	0.929219	-0.154802	-0.466332
H122	H	0.936837	-0.092170	-0.527670
H123	H	0.874774	-0.153797	-0.519367
C124	C	0.906766	-0.120604	-0.342903
H125	H	0.930532	-0.154793	-0.378104
H126	H	0.877847	-0.153811	-0.310718
H127	H	0.939901	-0.092170	-0.319021
H128	H	0.477932	-0.135997	0.094796
C129	C	0.020713	0.157371	0.088115
H130	H	0.052667	0.202007	0.088581
H131	H	-0.012979	0.160498	0.128191
H132	H	-0.002114	0.160478	0.047194
H133	H	0.244599	-0.104195	0.165347
C134	C	0.384819	-0.120586	0.179054
H135	H	0.433933	-0.112357	0.173945
H136	H	0.374862	-0.174997	0.164568
H137	H	0.366548	-0.113355	0.226624
C138	C	0.172819	-0.157415	0.090324
H139	H	0.221152	-0.146681	0.091043
H140	H	0.166372	-0.188215	0.049651
H141	H	0.155516	-0.188207	0.130648
