data_functionalizedCrystal
_audit_creation_method	'MofGen! by Chris Wilmer'
_symmetry_space_group_name_H-M	'P1'
_symmetry_Int_Tables_number	1
_symmetry_cell_setting	triclinic
loop_
_symmetry_equiv_pos_as_xyz
  x,y,z
_cell_length_a	11.169417
_cell_length_b	18.050590
_cell_length_c	11.169409
_cell_angle_alpha	90.037983
_cell_angle_beta	90.019824
_cell_angle_gamma	90.019431
loop_
_atom_site_label
_atom_site_type_symbol
_atom_site_fract_x
_atom_site_fract_y
_atom_site_fract_z
Zn1	Zn	1.834894	-0.295582	0.678496
Zn2	Zn	2.084894	-0.045582	0.928496
Zn3	Zn	2.334894	0.204418	1.178496
Zn4	Zn	2.584894	0.454418	1.428496
Zn5	Zn	1.834754	-0.419797	0.477793
Zn6	Zn	2.084754	-0.169797	0.727793
Zn7	Zn	2.334754	0.080203	0.977793
Zn8	Zn	2.584754	0.330203	1.227793
Zn9	Zn	1.634180	-0.295627	0.477830
Zn10	Zn	1.884180	-0.045627	0.727830
Zn11	Zn	2.134180	0.204373	0.977830
Zn12	Zn	2.384180	0.454373	1.227830
Zn13	Zn	1.634158	-0.419736	0.678438
Zn14	Zn	1.884158	-0.169736	0.928438
Zn15	Zn	2.134158	0.080264	1.178438
Zn16	Zn	2.384158	0.330264	1.428438
O17	O	1.734497	-0.357686	0.578139
O18	O	1.984497	-0.107686	0.828139
O19	O	2.234497	0.142314	1.078139
O20	O	2.484497	0.392314	1.328139
O21	O	2.002825	-0.312066	0.651881
O22	O	2.252825	-0.062066	0.901881
O23	O	2.502825	0.187934	1.151881
O24	O	2.752825	0.437934	1.401881
O25	O	1.808098	-0.403370	0.309848
O26	O	2.058098	-0.153370	0.559848
O27	O	2.308098	0.096630	0.809848
O28	O	2.558098	0.346630	1.059848
O29	O	1.660872	-0.191697	0.504489
O30	O	1.910872	0.058303	0.754489
O31	O	2.160872	0.308303	1.004489
O32	O	2.410872	0.558303	1.254489
O33	O	2.002723	-0.403326	0.504425
O34	O	2.252723	-0.153326	0.754425
O35	O	2.502723	0.096674	1.004425
O36	O	2.752723	0.346674	1.254425
O37	O	1.808336	-0.191663	0.651917
O38	O	2.058336	0.058337	0.901917
O39	O	2.308336	0.308337	1.151917
O40	O	2.558336	0.558337	1.401917
O41	O	1.660737	-0.312143	0.309875
O42	O	1.910737	-0.062143	0.559875
O43	O	2.160737	0.187857	0.809875
O44	O	2.410737	0.437857	1.059875
O45	O	1.466227	-0.312084	0.504432
O46	O	1.716227	-0.062084	0.754432
O47	O	1.966227	0.187916	1.004432
O48	O	2.216227	0.437916	1.254432
O49	O	1.660836	-0.403223	0.846395
O50	O	1.910836	-0.153223	1.096395
O51	O	2.160836	0.096777	1.346395
O52	O	2.410836	0.346777	1.596395
O53	O	1.466212	-0.403267	0.651818
O54	O	1.716212	-0.153267	0.901818
O55	O	1.966212	0.096733	1.151818
O56	O	2.216212	0.346733	1.401818
O57	O	1.808315	-0.312007	0.846438
O58	O	2.058315	-0.062007	1.096438
O59	O	2.308315	0.187993	1.346438
O60	O	2.558315	0.437993	1.596438
O61	O	1.808078	-0.523714	0.504369
O62	O	2.058078	-0.273714	0.754369
O63	O	2.308078	-0.023714	1.004369
O64	O	2.558078	0.226286	1.254369
O65	O	1.660701	-0.523669	0.651782
O66	O	1.910701	-0.273669	0.901782
O67	O	2.160701	-0.023669	1.151782
O68	O	2.410701	0.226331	1.401782
C69	C	1.422672	-0.357674	0.578124
C70	C	1.672672	-0.107674	0.828124
C71	C	1.922672	0.142326	1.078124
C72	C	2.172672	0.392326	1.328124
C73	C	1.289272	-0.357687	0.578145
C74	C	1.539272	-0.107687	0.828145
C75	C	1.789272	0.142313	1.078145
C76	C	2.039272	0.392313	1.328145
C77	C	1.734404	-0.550638	0.578091
C78	C	1.984404	-0.300638	0.828091
C79	C	2.234404	-0.050638	1.078091
C80	C	2.484404	0.199362	1.328091
C81	C	1.734475	-0.633184	0.578111
C82	C	1.984475	-0.383184	0.828111
C83	C	2.234475	-0.133184	1.078111
C84	C	2.484475	0.116816	1.328111
C85	C	1.814785	-0.832631	0.498060
C86	C	2.064785	-0.582631	0.748060
C87	C	2.314785	-0.332631	0.998060
C88	C	2.564785	-0.082631	1.248060
C89	C	1.844109	-0.881952	0.607596
C90	C	2.094109	-0.631952	0.857596
C91	C	2.344109	-0.381952	1.107596
C92	C	2.594109	-0.131952	1.357596
C93	C	1.734543	-0.784314	0.578159
C94	C	1.984543	-0.534314	0.828159
C95	C	2.234543	-0.284314	1.078159
C96	C	2.484543	-0.034314	1.328159
C97	C	1.705341	-0.882074	0.468672
C98	C	1.955341	-0.632074	0.718672
C99	C	2.205341	-0.382074	0.968672
C100	C	2.455341	-0.132074	1.218672
C101	C	1.734611	-0.930299	0.578195
C102	C	1.984611	-0.680299	0.828195
C103	C	2.234611	-0.430299	1.078195
C104	C	2.484611	-0.180299	1.328195
C105	C	1.763923	-0.832548	0.687752
C106	C	2.013923	-0.582548	0.937752
C107	C	2.263923	-0.332548	1.187752
C108	C	2.513923	-0.082548	1.437752
C109	C	1.625104	-0.832665	0.548755
C110	C	1.875104	-0.582665	0.798755
C111	C	2.125104	-0.332665	1.048755
C112	C	2.375104	-0.082665	1.298755
C113	C	1.654386	-0.881964	0.658366
C114	C	1.904386	-0.631964	0.908366
C115	C	2.154386	-0.381964	1.158366
C116	C	2.404386	-0.131964	1.408366
C117	C	1.734507	-0.700216	0.578136
C118	C	1.984507	-0.450216	0.828136
C119	C	2.234507	-0.200216	1.078136
C120	C	2.484507	0.049784	1.328136
C121	C	1.734647	-1.014395	0.578230
C122	C	1.984647	-0.764395	0.828230
C123	C	2.234647	-0.514395	1.078230
C124	C	2.484647	-0.264395	1.328230
C125	C	2.047539	-0.357697	0.578155
C126	C	2.297539	-0.107697	0.828155
C127	C	2.547539	0.142303	1.078155
C128	C	2.797539	0.392303	1.328155
C129	C	2.180939	-0.357703	0.578162
C130	C	2.430939	-0.107703	0.828162
C131	C	2.680939	0.142297	1.078162
C132	C	2.930939	0.392297	1.328162
C133	C	1.734589	-0.357603	0.891182
C134	C	1.984589	-0.107603	1.141182
C135	C	2.234589	0.142397	1.391182
C136	C	2.484589	0.392397	1.641182
C137	C	1.734628	-0.357568	1.024582
C138	C	1.984628	-0.107568	1.274582
C139	C	2.234628	0.142432	1.524582
C140	C	2.484628	0.392432	1.774582
C141	C	1.734622	-0.163980	0.578213
C142	C	1.984622	0.086020	0.828213
C143	C	2.234622	0.336020	1.078213
C144	C	2.484622	0.586020	1.328213
C145	C	1.734675	-0.081434	0.578245
C146	C	1.984675	0.168566	0.828245
C147	C	2.234675	0.418566	1.078245
C148	C	2.484675	0.668566	1.328245
C149	C	1.734474	-0.357714	0.266314
C150	C	1.984474	-0.107714	0.516314
C151	C	2.234474	0.142286	0.766314
C152	C	2.484474	0.392286	1.016314
C153	C	1.734667	-0.357540	0.132915
C154	C	1.984667	-0.107540	0.382915
C155	C	2.234667	0.142460	0.632915
C156	C	2.484667	0.392460	0.882915
H157	H	1.882666	-0.810969	0.430392
H158	H	2.132666	-0.560969	0.680392
H159	H	2.382666	-0.310969	0.930392
H160	H	2.632666	-0.060969	1.180392
H161	H	1.936688	-0.903604	0.632489
H162	H	2.186688	-0.653604	0.882489
H163	H	2.436688	-0.403604	1.132489
H164	H	2.686688	-0.153604	1.382489
H165	H	1.680614	-0.903828	0.376065
H166	H	1.930614	-0.653828	0.626065
H167	H	2.180614	-0.403828	0.876065
H168	H	2.430614	-0.153828	1.126065
H169	H	1.586557	-0.903489	0.726198
H170	H	1.836557	-0.653489	0.976198
H171	H	2.086557	-0.403489	1.226198
H172	H	2.336557	-0.153489	1.476198
H173	H	1.788558	-0.810886	0.780439
H174	H	2.038558	-0.560886	1.030439
H175	H	2.288558	-0.310886	1.280439
H176	H	2.538558	-0.060886	1.530439
F177	F	1.504126	-0.804347	0.516179
F178	F	1.754126	-0.554347	0.766179
F179	F	2.004126	-0.304347	1.016179
F180	F	2.254126	-0.054347	1.266179
