data_functionalizedCrystal
_audit_creation_method	'MofGen! by Chris Wilmer'
_symmetry_space_group_name_H-M	'P1'
_symmetry_Int_Tables_number	1
_symmetry_cell_setting	triclinic
loop_
_symmetry_equiv_pos_as_xyz
  x,y,z
_cell_length_a	29.839131
_cell_length_b	14.908610
_cell_length_c	14.908308
_cell_angle_alpha	89.826017
_cell_angle_beta	93.261283
_cell_angle_gamma	93.265418
loop_
_atom_site_label
_atom_site_type_symbol
_atom_site_fract_x
_atom_site_fract_y
_atom_site_fract_z
Zn1	Zn	-0.234474	-1.345126	-0.587563
Zn2	Zn	-0.305531	-1.353655	-0.437188
Zn3	Zn	-0.225842	-1.203447	-0.428559
Zn4	Zn	-0.304993	-1.194683	-0.578837
O5	O	-0.267710	-1.274228	-0.508037
O6	O	-0.247737	-1.472081	-0.574878
O7	O	-0.291573	-1.340967	-0.310220
O8	O	-0.164123	-1.222340	-0.449692
O9	O	-0.299943	-1.478347	-0.464399
O10	O	-0.170466	-1.326431	-0.566511
O11	O	-0.233025	-1.230610	-0.303880
O12	O	-0.232504	-1.076462	-0.441231
O13	O	-0.299027	-1.207402	-0.705818
O14	O	-0.290656	-1.070022	-0.551639
O15	O	-0.247216	-1.317932	-0.712229
O16	O	-0.368323	-1.332468	-0.455938
O17	O	-0.367928	-1.215672	-0.560006
C18	C	-0.260585	-1.040617	-0.494552
C19	C	-0.257549	-0.940677	-0.488805
C20	C	-0.222952	-0.803135	-0.423315
C21	C	-0.225803	-0.897039	-0.428711
C22	C	-0.286445	-0.890404	-0.543507
C23	C	-0.283594	-0.796500	-0.538111
C24	C	-0.251847	-0.752870	-0.478011
C25	C	-0.248999	-0.658965	-0.472611
C26	C	-0.309638	-0.652331	-0.587411
C27	C	-0.312489	-0.746234	-0.592808
C28	C	-0.384426	-1.274068	-0.507983
C29	C	-0.434362	-1.274080	-0.507995
C30	C	-0.744209	-1.335143	-0.453938
C31	C	-0.931886	-1.335252	-0.453980
O32	O	-0.956320	-1.387043	-0.407977
N33	N	-0.955160	-1.274410	-0.508115
C34	C	-0.931511	-1.213541	-0.562249
O35	O	-0.955613	-1.161800	-0.608302
C36	C	-0.743835	-1.213437	-0.562212
C37	C	-0.720563	-1.274277	-0.508066
C38	C	-0.720938	-1.395979	-0.399798
C39	C	-0.674021	-1.395947	-0.399784
C40	C	-0.650375	-1.335081	-0.453912
C41	C	-0.673647	-1.274245	-0.508052
C42	C	-0.720187	-1.152572	-0.616350
C43	C	-0.673265	-1.152553	-0.616337
C44	C	-0.649994	-1.213393	-0.562191
C45	C	-0.603084	-1.213348	-0.562166
N46	N	-0.579811	-1.274190	-0.508031
C47	C	-0.603457	-1.335056	-0.453903
C48	C	-1.030044	-1.213599	-0.562263
C49	C	-1.076962	-1.213623	-0.562271
C50	C	-1.077334	-1.335336	-0.454003
C51	C	-1.030415	-1.335306	-0.453991
C52	C	-1.006770	-1.274440	-0.508128
C53	C	-0.504928	-1.334986	-0.453879
C54	C	-0.458007	-1.334947	-0.453867
C55	C	-0.457639	-1.213238	-0.562138
C56	C	-0.504556	-1.213273	-0.562147
C57	C	-0.528199	-1.274155	-0.508014
O58	O	-0.578623	-1.161591	-0.608152
O59	O	-0.579347	-1.386803	-0.407872
C60	C	-0.791126	-1.335174	-0.453952
C61	C	-0.814397	-1.274339	-0.508093
C62	C	-0.790751	-1.213472	-0.562220
C63	C	-0.861316	-1.274364	-0.508101
C64	C	-0.884961	-1.335230	-0.453974
C65	C	-0.861688	-1.396072	-0.399838
C66	C	-0.814771	-1.396041	-0.399824
C67	C	-0.814025	-1.152630	-0.616356
C68	C	-0.860941	-1.152666	-0.616364
C69	C	-0.884587	-1.213532	-0.562237
C70	C	-0.150539	-1.274412	-0.508112
C71	C	-0.100608	-1.274490	-0.508144
C72	C	-0.274024	-1.260738	-0.742560
C73	C	-0.276715	-1.254990	-0.842500
C74	C	-0.274859	-0.508751	-0.521567
C75	C	-0.277895	-0.608692	-0.527314
C76	C	-0.227810	-1.359280	-1.036976
C77	C	-0.230337	-1.353881	-1.130878
C78	C	-0.284292	-1.238790	-1.124210
C79	C	-0.281766	-1.244189	-1.030307
C80	C	-0.253524	-1.304436	-0.986694
C81	C	-0.251000	-1.309839	-0.892789
C82	C	-0.304953	-1.194744	-0.886123
C83	C	-0.307480	-1.189346	-0.980025
C84	C	-0.261389	-1.287717	-0.274428
C85	C	-0.258578	-1.293640	-0.174499
H86	H	-0.202272	-0.937962	-0.384174
O87	O	-1.005321	-1.400941	-0.395602
H88	H	-0.986395	-1.444325	-0.438524
O89	O	-0.202595	-1.413023	-1.185107
H90	H	-0.209090	-1.399140	-1.257731
H91	H	-0.338335	-0.781771	-0.641741
O92	O	-0.745279	-1.086951	-0.674753
H93	H	-0.769084	-1.124536	-0.722855
H94	H	-0.228005	-1.358897	-0.857281
O95	O	-0.432907	-1.400578	-0.395476
H96	H	-0.439567	-1.389292	-0.324010
H97	H	-0.333166	-0.611394	-0.631949
O98	O	-0.214763	-0.611890	-0.407794
H99	H	-0.180481	-0.629046	-0.424384
H100	H	-0.524173	-1.384563	-0.409801
H101	H	-1.010795	-1.164032	-0.606349
O102	O	-1.102842	-1.401003	-0.395638
H103	H	-1.139377	-1.390802	-0.404756
H104	H	-0.312289	-0.925944	-0.592442
O105	O	-1.102061	-1.147995	-0.620659
H106	H	-1.095406	-1.159300	-0.692125
H107	H	-0.654016	-1.102990	-0.660425
O108	O	-0.648924	-1.461580	-0.341398
H109	H	-0.673255	-1.503911	-0.303776
H110	H	-0.740185	-1.445548	-0.355721
O111	O	-0.332676	-1.135547	-0.831903
H112	H	-0.368891	-1.149859	-0.850786
O113	O	-0.188714	-0.756066	-0.358497
H114	H	-0.169099	-0.806797	-0.321370
O115	O	-0.529660	-1.147654	-0.620542
H116	H	-0.505333	-1.105328	-0.658181
O117	O	-0.197358	-1.424267	-0.989927
H118	H	-0.172126	-1.386524	-0.944828
O119	O	-0.432132	-1.147594	-0.620523
H120	H	-0.395598	-1.157808	-0.611420
H121	H	-0.795827	-1.445582	-0.355734
O122	O	-0.887196	-1.461741	-0.341474
H123	H	-0.923731	-1.451543	-0.350598
O124	O	-0.886040	-1.087043	-0.674769
H125	H	-0.861711	-1.044724	-0.712409
H126	H	-0.794776	-1.103067	-0.660434
O127	O	-0.314743	-1.173798	-1.171256
H128	H	-0.312177	-1.179258	-1.244999
O129	O	-0.337937	-1.124363	-1.027066
H130	H	-0.335376	-1.129823	-1.100811
