data_functionalizedCrystal
_audit_creation_method	'MofGen! by Chris Wilmer'
_symmetry_space_group_name_H-M	'P1'
_symmetry_Int_Tables_number	1
_symmetry_cell_setting	triclinic
loop_
_symmetry_equiv_pos_as_xyz
  x,y,z
_cell_length_a	15.944551
_cell_length_b	15.944551
_cell_length_c	15.021413
_cell_angle_alpha	89.996935
_cell_angle_beta	89.997174
_cell_angle_gamma	96.501262
loop_
_atom_site_label
_atom_site_type_symbol
_atom_site_fract_x
_atom_site_fract_y
_atom_site_fract_z
O1	O	1.114529	-0.108321	-0.073941
O2	O	1.614529	0.391679	0.426059
O3	O	0.869979	-0.121677	-0.073964
O4	O	1.369979	0.378323	0.426036
O5	O	0.998932	0.007276	-0.073944
O6	O	1.498932	0.507276	0.426056
O7	O	0.985576	-0.237274	-0.073961
O8	O	1.485576	0.262726	0.426039
O9	O	0.998912	0.007257	0.074121
O10	O	1.498912	0.507257	0.574121
O11	O	0.869959	-0.121695	0.074101
O12	O	1.369959	0.378305	0.574101
O13	O	1.114508	-0.108339	0.074123
O14	O	1.614508	0.391661	0.574123
Zn15	Zn	0.992230	-0.115020	0.097620
Zn16	Zn	1.492230	0.384980	0.597620
Zn17	Zn	0.992257	-0.114996	-0.097461
Zn18	Zn	1.492257	0.385004	0.402539
O19	O	0.985555	-0.237292	0.074103
O20	O	1.485555	0.262708	0.574103
C21	C	0.838675	-0.121132	0.000066
C22	C	1.338675	0.378868	0.500066
C23	C	0.745429	-0.119470	0.000057
C24	C	1.245429	0.380530	0.500057
C25	C	0.530572	-0.035565	0.000081
C26	C	1.030572	0.464435	0.500081
C27	C	0.469562	-0.074518	-0.072926
C28	C	0.969562	0.425482	0.427074
C29	C	0.574703	-0.116462	0.000068
C30	C	1.074703	0.383538	0.500068
C31	C	0.469564	-0.074556	0.073054
C32	C	0.969564	0.425444	0.573054
C33	C	0.409790	-0.113551	0.000083
C34	C	0.909790	0.386449	0.500083
C35	C	0.514921	-0.155438	-0.072998
C36	C	1.014921	0.344562	0.427002
C37	C	0.514930	-0.155464	0.073047
C38	C	1.014930	0.344536	0.573047
C39	C	0.453937	-0.194476	0.000023
C40	C	0.953937	0.305524	0.500023
C41	C	0.669705	-0.118137	0.000059
C42	C	1.169705	0.381863	0.500059
C43	C	0.314789	-0.111883	0.000085
C44	C	0.814789	0.388117	0.500085
C45	C	0.998367	0.038561	0.000089
C46	C	1.498367	0.538561	0.500089
C47	C	0.996705	0.131807	0.000089
C48	C	1.496705	0.631807	0.500089
C49	C	1.145813	-0.108885	0.000092
C50	C	1.645813	0.391115	0.500092
C51	C	1.239059	-0.110547	0.000094
C52	C	1.739059	0.389453	0.500094
C53	C	0.986120	-0.268577	0.000069
C54	C	1.486120	0.231423	0.500069
C55	C	0.987782	-0.361823	0.000063
C56	C	1.487782	0.138177	0.500063
N57	N	0.992218	-0.115036	0.230758
N58	N	1.492218	0.384964	0.730758
C59	C	0.912801	0.346663	0.000069
C60	C	1.412801	0.846663	0.500069
C61	C	0.951753	0.407672	0.073077
C62	C	1.451753	0.907672	0.573077
C63	C	0.993698	0.302533	0.000082
C64	C	1.493698	0.802533	0.500082
C65	C	0.951792	0.407673	-0.072903
C66	C	1.451792	0.907673	0.427097
C67	C	0.990787	0.467445	0.000071
C68	C	1.490787	0.967445	0.500071
C69	C	1.032672	0.362313	0.073150
C70	C	1.532672	0.862313	0.573150
C71	C	1.032700	0.362308	-0.072895
C72	C	1.532700	0.862308	0.427105
C73	C	1.071711	0.423298	0.000131
C74	C	1.571711	0.923298	0.500131
C75	C	0.995372	0.207530	0.000089
C76	C	1.495372	0.707530	0.500089
C77	C	0.989119	0.562446	0.000070
C78	C	1.489119	1.062446	0.500070
N79	N	0.992276	-0.114973	-0.230598
N80	N	1.492276	0.385027	0.269402
C81	C	0.932581	-0.174636	0.470432
C82	C	1.432581	0.325364	0.970432
C83	C	1.008481	-0.190943	0.529772
C84	C	1.508481	0.309057	1.029772
C85	C	0.992239	-0.115015	0.412365
C86	C	1.492239	0.384985	0.912365
C87	C	0.916360	-0.098727	0.529766
C88	C	1.416360	0.401273	1.029766
C89	C	0.992253	-0.114997	0.587789
C90	C	1.492253	0.385003	1.087789
C91	C	1.068178	-0.131360	0.470398
C92	C	1.568178	0.368640	0.970398
C93	C	0.976006	-0.039111	0.470387
C94	C	1.476006	0.460889	0.970387
C95	C	1.051962	-0.055386	0.529701
C96	C	1.551962	0.444614	1.029701
C97	C	0.992230	-0.115028	0.311307
C98	C	1.492230	0.384972	0.811307
C99	C	0.992271	-0.114984	0.688844
C100	C	1.492271	0.385016	1.188844
H101	H	0.845652	0.313356	0.000136
H102	H	1.345652	0.813356	0.500136
O103	O	0.541597	-0.200751	0.154803
O104	O	1.041597	0.299249	0.654803
H105	H	0.509670	-0.266329	0.155364
H106	H	1.009670	0.233671	0.655364
H107	H	0.917574	0.427758	-0.134630
H108	H	1.417574	0.927758	0.365370
O109	O	1.153205	-0.149702	0.436004
O110	O	1.653205	0.350298	0.936004
H111	H	1.202700	-0.100467	0.460295
H112	H	1.702700	0.399533	0.960295
H113	H	0.882181	-0.225096	0.444409
H114	H	1.382181	0.274904	0.944409
O115	O	1.026662	-0.275947	0.564380
O116	O	1.526662	0.224053	1.064380
H117	H	0.977041	-0.325337	0.540668
H118	H	1.477041	0.174663	1.040668
H119	H	1.102474	-0.004956	0.555561
H120	H	1.602474	0.495044	1.055561
O121	O	0.410023	-0.283502	-0.000027
O122	O	0.910023	0.216498	0.499973
H123	H	0.369549	-0.293256	-0.060089
H124	H	0.869549	0.206744	0.439911
O125	O	0.541389	-0.200712	-0.154855
O126	O	1.041389	0.299288	0.345145
H127	H	0.522784	-0.167311	-0.215307
H128	H	1.022784	0.332689	0.284693
O129	O	0.957777	0.045877	0.435796
O130	O	1.457777	0.545877	0.935796
H131	H	0.894718	0.059247	0.459529
H132	H	1.394718	0.559247	0.959529
O133	O	0.442921	-0.029185	-0.154670
O134	O	0.942921	0.470815	0.345330
H135	H	0.499478	-0.007296	-0.195072
H136	H	0.999478	0.492704	0.304928
O137	O	0.831356	-0.080477	0.564312
O138	O	1.331356	0.419523	1.064312
H139	H	0.781945	-0.130061	0.540565
H140	H	1.281945	0.369939	1.040565
H141	H	0.917528	0.427772	0.134794
H142	H	1.417528	0.927772	0.634794
O143	O	1.077943	0.335835	0.155005
O144	O	1.577943	0.835835	0.655005
H145	H	1.078787	0.266325	0.154385
H146	H	1.578787	0.766325	0.654385
O147	O	0.442954	-0.029232	0.154817
O148	O	0.942954	0.470768	0.654817
H149	H	0.410886	0.025922	0.134259
H150	H	0.910886	0.525922	0.634259
O151	O	0.574655	0.053394	0.000001
O152	O	1.074655	0.553394	0.500001
H153	H	0.615173	0.063053	-0.060043
H154	H	1.115173	0.563053	0.439957
O155	O	1.160730	0.467231	0.000139
O156	O	1.660730	0.967231	0.500139
H157	H	1.170506	0.507723	0.060185
H158	H	1.670506	1.007723	0.560185
O159	O	1.077997	0.335638	-0.154644
O160	O	1.577997	0.835638	0.345356
H161	H	1.044294	0.353592	-0.215162
H162	H	1.544294	0.853592	0.284838
