data_functionalizedCrystal
_audit_creation_method	'MofGen! by Chris Wilmer'
_symmetry_space_group_name_H-M	'P1'
_symmetry_Int_Tables_number	1
_symmetry_cell_setting	triclinic
loop_
_symmetry_equiv_pos_as_xyz
  x,y,z
_cell_length_a	12.759401
_cell_length_b	29.839131
_cell_length_c	12.759393
_cell_angle_alpha	90.045545
_cell_angle_beta	90.018496
_cell_angle_gamma	90.035390
loop_
_atom_site_label
_atom_site_type_symbol
_atom_site_fract_x
_atom_site_fract_y
_atom_site_fract_z
Zn1	Zn	1.606106	-0.178825	0.593879
Zn2	Zn	1.605937	-0.253963	0.418157
Zn3	Zn	1.430407	-0.178848	0.418219
Zn4	Zn	1.430333	-0.253929	0.593798
O5	O	1.518196	-0.216391	0.506013
O6	O	1.753104	-0.188797	0.570577
O7	O	1.582613	-0.244024	0.271144
O8	O	1.453816	-0.115978	0.441580
O9	O	1.752980	-0.244001	0.441475
O10	O	1.582900	-0.115961	0.570638
O11	O	1.453652	-0.188837	0.271189
O12	O	1.283377	-0.188803	0.441502
O13	O	1.453689	-0.243942	0.740830
O14	O	1.283322	-0.243965	0.570499
O15	O	1.582828	-0.188763	0.740890
O16	O	1.582541	-0.316826	0.441396
O17	O	1.453526	-0.316801	0.570439
C18	C	1.245228	-0.216383	0.505999
C19	C	1.128452	-0.216390	0.506018
C20	C	1.073589	-0.245159	0.573075
C21	C	0.963865	-0.245165	0.573087
C22	C	0.963876	-0.187632	0.438974
C23	C	1.073598	-0.187624	0.438968
C24	C	1.128442	-0.273925	0.640125
C25	C	1.073579	-0.302696	0.707187
C26	C	0.963855	-0.302702	0.707199
C27	C	0.908994	-0.273936	0.640148
C28	C	1.518036	-0.333114	0.505925
C29	C	1.518063	-0.383048	0.505922
C30	C	1.585395	-0.692648	0.573309
C31	C	1.585509	-0.880321	0.573372
O32	O	1.642601	-0.904548	0.630601
N33	N	1.518374	-0.903833	0.506130
C34	C	1.451201	-0.880425	0.438872
O35	O	1.394093	-0.904730	0.381687
C36	C	1.451082	-0.692753	0.438815
C37	C	1.518229	-0.669243	0.506054
C38	C	1.652536	-0.669138	0.640543
C39	C	1.652511	-0.622222	0.640523
C40	C	1.585345	-0.598817	0.573268
C41	C	1.518204	-0.622327	0.506033
C42	C	1.383904	-0.669345	0.371563
C43	C	1.383879	-0.622424	0.371556
C44	C	1.451026	-0.598914	0.438795
C45	C	1.451013	-0.552006	0.438758
N46	N	1.518148	-0.528494	0.506000
C47	C	1.585314	-0.551899	0.573255
C48	C	1.451269	-0.978955	0.438905
C49	C	1.451300	-1.025873	0.438918
C50	C	1.585608	-1.025766	0.573420
C51	C	1.585581	-0.978847	0.573401
C52	C	1.518404	-0.955443	0.506147
C53	C	1.585257	-0.453373	0.573206
C54	C	1.585229	-0.406454	0.573177
C55	C	1.450918	-0.406565	0.438679
C56	C	1.450950	-0.453480	0.438704
C57	C	1.518123	-0.476884	0.505976
O58	O	1.393943	-0.527750	0.381567
O59	O	1.642397	-0.527586	0.630448
C60	C	1.585421	-0.739563	0.573329
C61	C	1.518280	-0.763073	0.506095
C62	C	1.451114	-0.739668	0.438840
C63	C	1.518310	-0.809991	0.506108
C64	C	1.585477	-0.833397	0.573363
C65	C	1.652612	-0.809884	0.640605
C66	C	1.652587	-0.762969	0.640584
C67	C	1.383978	-0.763181	0.371597
C68	C	1.384010	-0.810096	0.371623
C69	C	1.451176	-0.833501	0.438878
C70	C	1.792229	-0.216400	0.506028
C71	C	1.909006	-0.216404	0.506034
C72	C	1.518269	-0.216346	0.780047
C73	C	1.518301	-0.216327	0.896823
C74	C	1.518385	-0.099213	0.506125
C75	C	1.518466	-0.049279	0.506173
C76	C	1.518183	-0.216404	0.233046
C77	C	1.518355	-0.216297	0.116270
C78	C	1.585553	-0.187593	0.951718
C79	C	1.585578	-0.187576	1.061442
C80	C	1.451096	-0.245032	1.061367
C81	C	1.451066	-0.245046	0.951645
C82	C	1.652787	-0.158873	0.896897
C83	C	1.720046	-0.130137	0.951791
C84	C	1.720071	-0.130121	1.061516
C85	C	1.652837	-0.158841	1.116345
H86	H	1.118254	-0.326113	0.761784
C87	C	1.133362	-0.156409	0.366276
C88	C	1.241191	-0.162550	0.380646
C89	C	1.296278	-0.133796	0.313713
H90	H	1.115477	-0.162919	0.295611
H91	H	1.115480	-0.126223	0.381804
H92	H	1.259066	-0.192729	0.365111
H93	H	1.259107	-0.156036	0.451296
H94	H	1.278396	-0.103610	0.329241
H95	H	1.278385	-0.140309	0.243052
H96	H	1.369446	-0.137956	0.323461
H97	H	1.707264	-0.743830	0.695337
H98	H	1.652777	-0.158884	0.807554
C99	C	0.904477	-0.333985	0.780049
C100	C	0.976004	-0.359181	0.838744
C101	C	0.921346	-0.388010	0.905853
H102	H	0.861708	-0.316877	0.826004
H103	H	0.861659	-0.353565	0.739793
H104	H	1.018804	-0.339603	0.878997
H105	H	1.018775	-0.376298	0.792816
H106	H	0.878528	-0.407590	0.865597
H107	H	0.878580	-0.370898	0.951801
H108	H	0.969869	-0.405112	0.945679
H109	H	1.396288	-0.268437	0.906949
C110	C	1.658001	-0.380953	0.646363
C111	C	1.635051	-0.392324	0.750297
C112	C	1.702053	-0.368838	0.817744
H113	H	1.728642	-0.388604	0.631193
H114	H	1.648363	-0.349653	0.636794
H115	H	1.644698	-0.423616	0.759861
H116	H	1.564422	-0.384671	0.765499
H117	H	1.692415	-0.337539	0.808175
H118	H	1.772690	-0.376492	0.802564
H119	H	1.686484	-0.376547	0.888270
C120	C	1.310899	-0.597095	0.298421
C121	C	1.252125	-0.627730	0.239530
C122	C	1.184898	-0.604415	0.172139
H123	H	1.264999	-0.578792	0.338450
H124	H	1.351073	-0.578806	0.252610
H125	H	1.211954	-0.646012	0.285336
H126	H	1.297998	-0.646035	0.199480
H127	H	1.225072	-0.586126	0.126327
H128	H	1.139004	-0.586113	0.212175
H129	H	1.145018	-0.625197	0.132166
H130	H	1.639949	-0.472423	0.627993
C131	C	0.904453	-0.156432	0.365999
C132	C	0.931119	-0.166154	0.262006
C133	C	0.876412	-0.137419	0.194749
H134	H	0.831232	-0.160528	0.375459
H135	H	0.922493	-0.126246	0.381448
H136	H	0.913071	-0.196334	0.246562
H137	H	1.004330	-0.162055	0.252513
H138	H	0.894453	-0.107233	0.210198
H139	H	0.803195	-0.141518	0.204219
H140	H	0.894505	-0.144009	0.124183
C141	C	1.725420	-0.835382	0.713588
C142	C	1.711041	-0.881502	0.699222
C143	C	1.778074	-0.905007	0.766445
H144	H	1.796061	-0.827731	0.698345
H145	H	1.709987	-0.827698	0.784186
H146	H	1.726481	-0.889183	0.628640
H147	H	1.640414	-0.889166	0.714473
H148	H	1.762642	-0.897322	0.837043
H149	H	1.848711	-0.897352	0.751196
H150	H	1.768321	-0.936301	0.756714
C151	C	1.793075	-0.098906	0.892458
C152	C	1.851955	-0.073729	0.964021
C153	C	1.919232	-0.044950	0.909404
H154	H	1.838907	-0.116049	0.849637
H155	H	1.752932	-0.079312	0.849695
H156	H	1.892096	-0.093321	1.006766
H157	H	1.806151	-0.056577	1.006844
H158	H	1.879088	-0.025355	0.866642
H159	H	1.965056	-0.062096	0.866586
H160	H	1.959183	-0.027861	0.957952
H161	H	1.707185	-0.603083	0.695278
H162	H	1.774828	-0.106719	1.106208
H163	H	1.652851	-0.158820	1.205690
H164	H	1.396281	-0.472623	0.383944
H165	H	1.329282	-0.744128	0.316831
C166	C	0.789864	-0.273921	0.640398
C167	C	0.753644	-0.262515	0.740491
C168	C	0.643910	-0.262495	0.740768
H169	H	0.764934	-0.252668	0.590943
H170	H	0.764925	-0.302903	0.622160
H171	H	0.778571	-0.233536	0.758717
H172	H	0.778545	-0.283764	0.789964
H173	H	0.618972	-0.291478	0.722529
H174	H	0.618990	-0.241242	0.691309
H175	H	0.619321	-0.254760	0.808682
H176	H	1.329332	-0.829234	0.316858
H177	H	1.707231	-0.688189	0.695317
C178	C	1.658412	-1.051264	0.646407
C179	C	1.644039	-1.097383	0.632037
C180	C	1.711067	-1.120888	0.699267
H181	H	1.729054	-1.043612	0.631171
H182	H	1.642972	-1.043580	0.717004
H183	H	1.659486	-1.105064	0.561457
H184	H	1.573411	-1.105049	0.647281
H185	H	1.695627	-1.113204	0.769863
H186	H	1.781705	-1.113232	0.684025
H187	H	1.701317	-1.152182	0.689533
H188	H	1.396235	-0.387501	0.383918
C189	C	1.378228	-0.276199	1.121082
C190	C	1.392671	-0.270046	1.228922
C191	C	1.325576	-0.298756	1.283962
H192	H	1.307599	-0.269654	1.103235
H193	H	1.393563	-0.306396	1.103124
H194	H	1.377328	-0.239856	1.246872
H195	H	1.463286	-0.276594	1.246800
H196	H	1.340912	-0.328953	1.266004
H197	H	1.254951	-0.292208	1.266107
H198	H	1.335373	-0.294588	1.357137
C199	C	1.378204	-0.953526	0.366048
C200	C	1.310784	-0.926601	0.425455
C201	C	1.243456	-0.903177	0.358373
H202	H	1.418282	-0.935189	0.320276
H203	H	1.338172	-0.974239	0.326026
H204	H	1.350811	-0.905891	0.465460
H205	H	1.270683	-0.944927	0.471225
H206	H	1.203425	-0.923890	0.318350
H207	H	1.283542	-0.884843	0.312604
H208	H	1.197697	-0.884909	0.398671
H209	H	1.217785	-0.273924	0.640121
C210	C	1.310921	-0.694917	0.298740
C211	C	1.243581	-0.721857	0.358188
C212	C	1.176333	-0.745422	0.291140
H213	H	1.270817	-0.674301	0.258676
H214	H	1.351093	-0.713251	0.253004
H215	H	1.203413	-0.703524	0.403905
H216	H	1.283656	-0.742481	0.398250
H217	H	1.216504	-0.763757	0.245404
H218	H	1.136236	-0.724803	0.251079
H219	H	1.130641	-0.763707	0.331465
C220	C	1.378290	-1.051314	0.365866
C221	C	1.319446	-1.020769	0.306990
C222	C	1.252162	-1.044187	0.239696
H223	H	1.418393	-1.069622	0.320032
H224	H	1.332443	-1.069608	0.405996
H225	H	1.365287	-1.002483	0.266862
H226	H	1.279322	-1.002461	0.352796
H227	H	1.206315	-1.062481	0.279827
H228	H	1.292274	-1.062494	0.193869
H229	H	1.212222	-1.023466	0.199748
H230	H	1.640258	-0.959708	0.628153
