data_functionalizedCrystal
_audit_creation_method	'MofGen! by Chris Wilmer'
_symmetry_space_group_name_H-M	'P1'
_symmetry_Int_Tables_number	1
_symmetry_cell_setting	triclinic
loop_
_symmetry_equiv_pos_as_xyz
  x,y,z
_cell_length_a	16.625547
_cell_length_b	12.594516
_cell_length_c	16.625539
_cell_angle_alpha	90.021811
_cell_angle_beta	89.978691
_cell_angle_gamma	89.973331
loop_
_atom_site_label
_atom_site_type_symbol
_atom_site_fract_x
_atom_site_fract_y
_atom_site_fract_z
Zn1	Zn	1.232629	0.423762	-0.456027
Zn2	Zn	1.232530	0.601757	-0.321205
Zn3	Zn	1.097799	0.423793	-0.321197
Zn4	Zn	1.097751	0.601698	-0.455985
O5	O	1.165177	0.512752	-0.388603
O6	O	1.345448	0.447385	-0.438163
O7	O	1.214636	0.578187	-0.208371
O8	O	1.115745	0.274843	-0.339097
O9	O	1.345376	0.578157	-0.339110
O10	O	1.214804	0.274820	-0.438156
O11	O	1.115650	0.447438	-0.208366
O12	O	0.984960	0.447381	-0.339056
O13	O	1.115664	0.578057	-0.568823
O14	O	0.984925	0.578087	-0.438084
O15	O	1.214758	0.447328	-0.568854
O16	O	1.214590	0.750695	-0.339069
O17	O	1.115568	0.750652	-0.438091
C18	C	0.955686	0.512732	-0.388565
C19	C	0.866065	0.512749	-0.388568
C20	C	0.793283	0.512751	-0.388578
C21	C	0.701974	0.512756	-0.388598
C22	C	0.629198	0.512766	-0.388619
C23	C	0.537884	0.512773	-0.388638
C24	C	1.165085	0.789293	-0.388594
C25	C	1.165120	0.907599	-0.388617
C26	C	1.111247	0.976867	-0.442437
C27	C	1.091596	1.047724	-0.368861
C28	C	1.184814	1.047541	-0.462205
C29	C	1.145430	0.976898	-0.315002
C30	C	1.238682	0.976708	-0.408396
C31	C	1.219060	1.047533	-0.334769
C32	C	1.375486	0.512774	-0.388642
C33	C	1.465107	0.512783	-0.388659
C34	C	1.165217	0.512682	-0.598912
C35	C	1.165233	0.512652	-0.688534
C36	C	1.165256	1.235132	-0.388629
C37	C	1.165199	1.116826	-0.388637
C38	C	1.165247	0.512629	-0.761316
C39	C	1.165265	0.512589	-0.852625
C40	C	1.165284	0.512552	-0.925401
C41	C	1.165305	0.512513	-1.016715
C42	C	1.165184	0.512746	-0.179113
C43	C	1.165324	0.512476	-0.089492
H44	H	1.065619	0.945838	-0.487885
N45	N	1.013604	1.086860	-0.347860
N46	N	0.983082	1.062988	-0.281573
H47	H	0.927998	1.090623	-0.266743
H48	H	1.201440	1.078571	-0.524430
H49	H	1.128733	0.945996	-0.252760
N50	N	1.276246	1.086243	-0.277620
N51	N	1.285934	1.183959	-0.268731
H52	H	1.326318	1.211302	-0.228368
H53	H	1.300841	0.945493	-0.425144
