data_functionalizedCrystal
_audit_creation_method	'MofGen! by Chris Wilmer'
_symmetry_space_group_name_H-M	'P1'
_symmetry_Int_Tables_number	1
_symmetry_cell_setting	triclinic
loop_
_symmetry_equiv_pos_as_xyz
  x,y,z
_cell_length_a	31.640172
_cell_length_b	31.640172
_cell_length_c	31.640172
_cell_angle_alpha	60.007454
_cell_angle_beta	60.001942
_cell_angle_gamma	90.009666
loop_
_atom_site_label
_atom_site_type_symbol
_atom_site_fract_x
_atom_site_fract_y
_atom_site_fract_z
Zr1	Zr	0.407103	-0.055390	0.462652
O2	O	0.427778	-0.122880	0.462663
O3	O	0.339625	-0.034702	0.462641
O4	O	0.339607	-0.122867	0.550820
O5	O	0.497358	0.034832	0.304935
O6	O	0.339604	-0.122856	0.620369
O7	O	0.427796	-0.034715	0.374484
O8	O	0.339636	0.034855	0.462632
O9	O	0.497327	-0.122879	0.462672
O10	O	0.384711	-0.025870	0.514549
O11	O	0.436627	0.026024	0.410742
O12	O	0.436606	-0.077779	0.514562
O13	O	0.488522	-0.025885	0.410755
Zr14	Zr	0.518041	0.055546	0.462652
Zr15	Zr	0.407098	-0.055373	0.573574
Zr16	Zr	0.518046	0.055529	0.351730
Zr17	Zr	0.518024	-0.055389	0.462666
Zr18	Zr	0.407120	0.055545	0.462638
O19	O	0.585519	0.034858	0.462663
O20	O	0.427772	-0.122855	0.620380
O21	O	0.585526	0.034833	0.304946
O22	O	0.497365	0.123036	0.462641
O23	O	0.339618	-0.034677	0.620358
O24	O	0.497372	0.123011	0.304924
O25	O	0.427786	-0.034676	0.620369
O26	O	0.585537	0.123023	0.374484
O27	O	0.585540	0.123012	0.304935
O28	O	0.497348	0.034871	0.550820
O29	O	0.497323	-0.122865	0.550840
O30	O	0.427821	0.123021	0.374464
O31	O	0.427817	0.123035	0.462632
O32	O	0.339632	0.034869	0.550801
O33	O	0.585512	-0.034713	0.374504
O34	O	0.585508	-0.034699	0.462672
O35	O	0.488538	0.077935	0.410742
O36	O	0.436622	0.026041	0.514549
O37	O	0.488517	-0.025868	0.514562
O38	O	0.540433	0.026026	0.410755
C39	C	0.323826	0.000076	0.462635
C40	C	0.276737	0.000076	0.462629
C41	C	-0.042397	-0.027005	0.516844
C42	C	-0.219393	-0.027005	0.516854
O43	O	-0.265326	-0.050024	0.562938
N44	N	-0.214424	0.000082	0.462669
C45	C	-0.165201	0.027174	0.408476
O46	O	-0.165035	0.050217	0.362388
C47	C	0.011794	0.027176	0.408467
C48	C	0.006820	0.000083	0.462656
C49	C	-0.047369	-0.054096	0.571029
C50	C	-0.003122	-0.054098	0.571025
C51	C	0.046096	-0.027010	0.516838
C52	C	0.051067	0.000081	0.462653
C53	C	0.061015	0.054270	0.354275
C54	C	0.105264	0.054270	0.354278
C55	C	0.100291	0.027177	0.408467
C56	C	0.144531	0.027167	0.408462
N57	N	0.139561	0.000080	0.462647
C58	C	0.090344	-0.027008	0.516835
C59	C	-0.258127	0.027170	0.408485
C60	C	-0.302376	0.027168	0.408488
C61	C	-0.356565	-0.027010	0.516866
C62	C	-0.312315	-0.027011	0.516863
C63	C	-0.263097	0.000083	0.462671
C64	C	0.183267	-0.027011	0.516825
C65	C	0.227519	-0.027012	0.516817
C66	C	0.281705	0.027168	0.408439
C67	C	0.237456	0.027167	0.408447
C68	C	0.188236	0.000077	0.462644
O69	O	0.190479	0.050179	0.362402
O70	O	0.090189	-0.050039	0.562916
C71	C	-0.086644	-0.027003	0.516847
C72	C	-0.081673	0.000087	0.462662
C73	C	-0.032455	0.027176	0.408474
C74	C	-0.125921	0.000086	0.462664
C75	C	-0.175139	-0.027002	0.516852
C76	C	-0.180108	-0.054089	0.571038
C77	C	-0.135861	-0.054092	0.571035
C78	C	-0.027486	0.054263	0.354289
C79	C	-0.071735	0.054262	0.354296
C80	C	-0.120952	0.027174	0.408484
C81	C	0.462550	-0.138685	0.462670
C82	C	0.462543	-0.185780	0.462676
C83	C	0.489682	-0.450698	0.408460
C84	C	0.489694	-0.627683	0.408450
O85	O	0.512761	-0.627532	0.362367
N86	N	0.462595	-0.676901	0.462636
C87	C	0.435492	-0.681872	0.516828
O88	O	0.412447	-0.727796	0.562916
C89	C	0.435483	-0.504887	0.516838
C90	C	0.462580	-0.455670	0.462648
C91	C	0.516777	-0.401483	0.354276
C92	C	0.516771	-0.357240	0.354279
C93	C	0.489670	-0.362212	0.408467
C94	C	0.462574	-0.411427	0.462652
C95	C	0.408384	-0.509859	0.571029
C96	C	0.408385	-0.465607	0.571027
C97	C	0.435483	-0.416390	0.516837
C98	C	0.435467	-0.372155	0.516843
N99	N	0.462567	-0.322937	0.462657
C100	C	0.489668	-0.317966	0.408469
C101	C	0.435498	-0.774789	0.516819
C102	C	0.435500	-0.819035	0.516817
C103	C	0.489703	-0.764844	0.408439
C104	C	0.489698	-0.720597	0.408442
C105	C	0.462598	-0.725572	0.462633
C106	C	0.489654	-0.225053	0.408480
C107	C	0.489644	-0.180809	0.408488
C108	C	0.435444	-0.235004	0.516865
C109	C	0.435451	-0.279245	0.516858
C110	C	0.462560	-0.274266	0.462660
O111	O	0.412418	-0.372267	0.562902
O112	O	0.512720	-0.272038	0.362388
C113	C	0.489687	-0.494942	0.408457
C114	C	0.462592	-0.544157	0.462642
C115	C	0.435490	-0.549129	0.516830
C116	C	0.462593	-0.588403	0.462640
C117	C	0.489695	-0.583431	0.408452
C118	C	0.516794	-0.534213	0.354266
C119	C	0.516789	-0.489970	0.354269
C120	C	0.408391	-0.598346	0.571016
C121	C	0.408398	-0.642587	0.571008
C122	C	0.435499	-0.637616	0.516820
C123	C	0.601318	0.000080	0.462670
C124	C	0.648407	0.000080	0.462676
C125	C	0.462578	0.000056	0.323906
C126	C	0.462580	0.000049	0.276816
C127	C	0.462594	0.138841	0.462635
C128	C	0.462601	0.185936	0.462629
C129	C	0.489671	-0.027012	-0.059485
C130	C	0.489671	-0.027030	0.117514
O131	O	0.512726	-0.050059	0.140387
N132	N	0.462582	0.000064	0.139641
C133	C	0.435494	0.027168	0.117513
O134	O	0.412457	0.050217	0.140391
C135	C	0.435497	0.027188	-0.059487
C136	C	0.462583	0.000087	-0.081608
C137	C	0.516756	-0.054110	-0.081606
C138	C	0.516753	-0.054108	-0.125851
C139	C	0.489665	-0.027008	-0.147974
C140	C	0.462581	0.000090	-0.125853
C141	C	0.408412	0.054294	-0.081617
C142	C	0.408416	0.054297	-0.125872
C143	C	0.435502	0.027197	-0.147992
C144	C	0.435490	0.027192	-0.192221
N145	N	0.462579	0.000098	-0.214348
C146	C	0.489667	-0.027002	-0.192225
C147	C	0.435494	0.027154	0.210442
C148	C	0.435492	0.027149	0.254693
C149	C	0.489671	-0.027048	0.254689
C150	C	0.489669	-0.027045	0.210441
C151	C	0.462583	0.000060	0.188315
C152	C	0.489659	-0.026996	-0.285142
C153	C	0.489652	-0.026993	-0.329389
C154	C	0.435476	0.027206	-0.329383
C155	C	0.435480	0.027201	-0.285138
C156	C	0.462576	0.000099	-0.263020
O157	O	0.412453	0.050214	-0.215126
O158	O	0.512709	-0.050039	-0.215120
C159	C	0.489674	-0.027015	-0.015240
C160	C	0.462589	0.000083	0.006881
C161	C	0.435501	0.027183	-0.015242
C162	C	0.462587	0.000077	0.051132
C163	C	0.489675	-0.027023	0.073255
C164	C	0.516764	-0.054117	0.051128
C165	C	0.516761	-0.054115	0.006883
C166	C	0.408412	0.054277	0.006885
C167	C	0.408417	0.054272	0.051130
C168	C	0.435504	0.027172	0.073254
C169	C	0.462566	0.000100	0.601399
C170	C	0.462564	0.000107	0.648488
C171	C	0.323798	-0.138665	0.601399
C172	C	0.276700	-0.185753	0.648488
C173	C	0.323820	0.000098	0.601381
C174	C	0.276729	0.000105	0.648465
C175	C	0.462600	0.138819	0.323888
C176	C	0.462609	0.185907	0.276793
C177	C	0.601324	0.000058	0.323923
C178	C	0.648415	0.000051	0.276840
C179	C	0.601345	0.138821	0.323906
C180	C	0.648444	0.185909	0.276816
C181	C	0.462544	-0.138664	0.601416
C182	C	0.462535	-0.185751	0.648511
C183	C	0.281671	-0.234967	0.670613
C184	C	0.237421	-0.279215	0.714865
C185	C	0.188201	-0.274249	0.736988
C186	C	0.183231	-0.225030	0.714861
C187	C	0.227481	-0.180783	0.670613
C188	C	0.227513	-0.026993	0.670580
C189	C	0.183262	-0.026997	0.714826
C190	C	0.188228	0.000101	0.736953
C191	C	0.237449	0.027199	0.714835
C192	C	0.281699	0.027200	0.670593
C193	C	0.489715	0.235121	0.254672
C194	C	0.489735	0.279369	0.210415
C195	C	0.462644	0.274402	0.188282
C196	C	0.435537	0.225183	0.210405
C197	C	0.435521	0.180936	0.254659
C198	C	0.697631	0.027144	0.254729
C199	C	0.741882	0.027136	0.210495
C200	C	0.736916	0.000037	0.188370
C201	C	0.687695	-0.027060	0.210485
C202	C	0.643445	-0.027054	0.254721
C203	C	0.697655	0.180926	0.254705
C204	C	0.741913	0.225166	0.210453
C205	C	0.736959	0.274389	0.188317
C206	C	0.687743	0.279371	0.210430
C207	C	0.643486	0.235131	0.254678
C208	C	0.489628	-0.180767	0.670632
C209	C	0.489617	-0.225007	0.714889
C210	C	0.462517	-0.274230	0.737021
C211	C	0.435420	-0.279212	0.714899
C212	C	0.435428	-0.234973	0.670646
H213	H	-0.007176	-0.076158	0.615151
Cl214	Cl	0.343542	-0.241224	0.642817
H215	H	0.683717	0.319453	0.192400
Cl216	Cl	0.523721	-0.061068	-0.257342
Cl217	Cl	0.523765	-0.658728	0.340316
H218	H	0.538812	-0.076174	-0.143860
H219	H	0.241485	0.049261	0.732858
H220	H	0.781983	0.221100	0.192455
H221	H	0.143188	-0.049064	0.732827
H222	H	0.321772	0.049270	0.652588
H223	H	0.511777	0.239175	0.272685
H224	H	0.511808	0.319441	0.192409
Cl225	Cl	0.681460	-0.061122	0.182662
H226	H	0.386360	0.076371	-0.143885
Cl227	Cl	0.401370	-0.241248	0.642836
Cl228	Cl	-0.241990	-0.088145	0.639159
Cl229	Cl	0.792551	0.000036	0.132757
H230	H	0.386350	0.076357	-0.063610
H231	H	0.241477	-0.319287	0.732873
H232	H	0.538840	-0.317168	0.310152
Cl233	Cl	0.132593	0.000096	0.792571
H234	H	0.413356	-0.319296	0.732925
H235	H	0.511685	-0.220940	0.732894
Cl236	Cl	0.523711	-0.118936	0.340359
H237	H	0.241506	0.049222	0.364321
Cl238	Cl	0.581574	-0.061114	0.282508
H239	H	0.152175	-0.310282	0.773018
H240	H	0.143151	-0.220994	0.732880
Cl241	Cl	0.343585	0.061220	0.340321
Cl242	Cl	0.462668	0.330033	0.132650
Cl243	Cl	0.523700	-0.118892	0.642820
H244	H	0.701684	0.049215	0.272735
H245	H	0.413481	0.221146	0.192378
H246	H	0.223465	-0.049077	0.560945
Cl247	Cl	0.221223	-0.118916	0.642795
H248	H	0.065075	0.076333	0.310149
Cl249	Cl	0.803754	0.061206	0.182700
Cl250	Cl	0.167139	0.088333	0.286146
H251	H	0.413430	0.049274	-0.267132
Cl252	Cl	0.121396	-0.061067	0.584960
H253	H	0.223460	-0.049065	0.652576
Cl254	Cl	0.703897	0.119052	0.282524
Cl255	Cl	0.401439	0.061233	0.182632
Cl256	Cl	0.462514	-0.329840	0.792653
H257	H	0.413445	0.140865	0.272669
H258	H	-0.087442	-0.076154	0.615157
H259	H	-0.316369	-0.049072	0.560988
Cl260	Cl	0.401425	0.061273	-0.357204
Cl261	Cl	0.792603	0.330000	0.132692
H262	H	0.603417	0.239196	0.272680
Cl263	Cl	0.550852	-0.395220	0.286144
H264	H	-0.396646	-0.049067	0.560988
H265	H	-0.298320	0.049224	0.364361
H266	H	-0.139916	-0.076153	0.615161
Cl267	Cl	-0.196255	0.061234	0.340351
Cl268	Cl	-0.065473	0.088323	0.286165
Cl269	Cl	0.523720	-0.061120	0.282513
Cl270	Cl	0.523733	-0.218787	0.340345
Cl271	Cl	0.034385	0.088321	0.286159
H272	H	0.413428	-0.859108	0.560942
Cl273	Cl	0.523771	-0.758602	0.340317
Cl274	Cl	0.401431	0.061211	0.282505
Cl275	Cl	0.374309	-0.571723	0.639157
Cl276	Cl	0.374316	-0.471866	0.639158
Cl277	Cl	0.401423	-0.781053	0.584953
H278	H	0.413380	-0.319321	0.560983
H279	H	0.538854	-0.449898	0.310143
Cl280	Cl	0.401373	-0.241244	0.584984
Cl281	Cl	0.550863	-0.527972	0.286145
H282	H	0.386322	-0.602401	0.615142
Cl283	Cl	0.374324	-0.704459	0.639139
H284	H	0.511709	-0.049063	-0.347396
H285	H	0.538817	-0.076177	-0.063600
Cl286	Cl	0.523723	-0.061114	0.182635
H287	H	0.538818	-0.076182	-0.011124
H288	H	0.538817	-0.076185	0.069151
H289	H	0.386355	0.076339	0.069140
H290	H	0.386354	0.076346	-0.011124
