data_functionalizedCrystal
_audit_creation_method	'MofGen! by Chris Wilmer'
_symmetry_space_group_name_H-M	'P1'
_symmetry_Int_Tables_number	1
_symmetry_cell_setting	triclinic
loop_
_symmetry_equiv_pos_as_xyz
  x,y,z
_cell_length_a	10.723022
_cell_length_b	8.559649
_cell_length_c	7.088929
_cell_angle_alpha	95.325015
_cell_angle_beta	96.280928
_cell_angle_gamma	102.877055
loop_
_atom_site_label
_atom_site_type_symbol
_atom_site_fract_x
_atom_site_fract_y
_atom_site_fract_z
O1	O	0.027906	2.103423	-0.158958
O2	O	-0.036470	1.638923	-0.158965
O3	O	0.178393	1.881889	-0.158959
O4	O	-0.186957	1.860457	-0.158964
O5	O	0.207165	1.914358	0.159017
O6	O	-0.007698	1.671392	0.159011
O7	O	0.056678	2.135892	0.159018
Cu8	Cu	0.027117	1.906607	0.188048
Cu9	Cu	-0.006909	1.868208	-0.187995
O10	O	-0.158185	1.892926	0.159012
C11	C	-0.026962	1.595681	0.000022
C12	C	-0.041484	1.418460	0.000019
C13	C	-0.218911	1.878251	0.000023
C14	C	-0.356987	1.882915	0.000020
C15	C	-0.391184	2.023025	0.000022
C16	C	-0.533892	2.027849	0.000019
C17	C	0.239119	1.896564	0.000026
C18	C	0.377194	1.891898	0.000016
C19	C	0.047170	2.179133	0.000027
C20	C	0.061691	2.356353	0.000018
N21	N	0.051052	1.933626	0.452537
N22	N	-0.030832	1.841201	-0.452484
H23	H	-0.140934	1.336042	0.000007
O24	O	-0.132213	1.727087	0.450209
C25	C	-0.248685	1.759526	0.499014
H26	H	-0.232014	1.892934	0.554141
H27	H	-0.283398	1.683285	0.615071
C28	C	-0.372017	1.553885	0.253374
C29	C	-0.351544	1.717742	0.321067
H30	H	-0.435468	1.528104	0.143613
H31	H	-0.293549	1.532025	0.220497
H32	H	-0.400938	1.490370	0.350105
H33	H	-0.322609	1.781253	0.224346
H34	H	-0.430011	1.739612	0.353924
H35	H	-0.593303	1.771931	0.000005
H36	H	0.161133	1.438760	0.000010
H37	H	0.135905	2.029432	0.534195
H38	H	-0.433360	1.766535	0.000030
O39	O	-0.569302	2.170841	0.000102
C40	C	-0.703908	2.143821	0.000046
H41	H	-0.740810	2.025705	0.060243
H42	H	-0.753178	2.136311	-0.152506
C43	C	-0.689215	2.429076	0.050807
C44	C	-0.734538	2.284011	0.124757
H45	H	-0.708111	2.515554	0.127726
H46	H	-0.598529	2.447281	0.050837
H47	H	-0.730278	2.422795	-0.076319
H48	H	-0.693462	2.290286	0.251870
H49	H	-0.825218	2.265810	0.124750
H50	H	-0.314808	2.139407	0.000035
