data_functionalizedCrystal
_audit_creation_method	'MofGen! by Chris Wilmer'
_symmetry_space_group_name_H-M	'P1'
_symmetry_Int_Tables_number	1
_symmetry_cell_setting	triclinic
loop_
_symmetry_equiv_pos_as_xyz
  x,y,z
_cell_length_a	31.640172
_cell_length_b	14.395555
_cell_length_c	14.395555
_cell_angle_alpha	90.002465
_cell_angle_beta	60.006145
_cell_angle_gamma	59.997204
loop_
_atom_site_label
_atom_site_type_symbol
_atom_site_fract_x
_atom_site_fract_y
_atom_site_fract_z
Zr1	Zr	0.462570	-0.121849	0.895050
O2	O	0.550743	-0.270185	0.746741
O3	O	0.374402	-0.076378	0.940496
O4	O	0.462572	-0.270177	0.940516
O5	O	0.462569	0.076488	0.746726
O6	O	0.462569	-0.270169	1.093390
O7	O	0.462572	-0.076386	0.746721
O8	O	0.304848	0.076503	1.093354
O9	O	0.620291	-0.270184	0.746762
O10	O	0.410663	-0.056977	1.073989
O11	O	0.410663	0.057105	0.959904
O12	O	0.514472	-0.171069	0.959928
O13	O	0.514472	-0.056986	0.845843
Zr14	Zr	0.462560	0.121980	1.138875
Zr15	Zr	0.462565	-0.121836	1.138866
Zr16	Zr	0.462565	0.121967	0.895058
Zr17	Zr	0.573491	-0.121846	0.895083
Zr18	Zr	0.351640	0.121978	1.138841
O19	O	0.550729	0.076509	1.093428
O20	O	0.550736	-0.270167	1.093416
O21	O	0.550736	0.076490	0.746753
O22	O	0.374387	0.270316	1.287184
O23	O	0.374395	-0.076359	1.287171
O24	O	0.374395	0.270298	0.940508
O25	O	0.462561	-0.076357	1.287198
O26	O	0.462558	0.270308	1.093409
O27	O	0.462561	0.270300	0.940534
O28	O	0.462558	0.076517	1.287203
O29	O	0.620287	-0.270173	0.940563
O30	O	0.304844	0.270304	1.093361
O31	O	0.304840	0.270315	1.287163
O32	O	0.304844	0.076513	1.287156
O33	O	0.620287	-0.076382	0.746768
O34	O	0.620283	-0.076372	0.940570
O35	O	0.410658	0.171200	1.073996
O36	O	0.410658	0.057117	1.188081
O37	O	0.514468	-0.056974	1.074020
O38	O	0.514468	0.057108	0.959936
C39	C	0.323821	0.000062	1.016920
C40	C	0.276732	0.000061	1.016906
C41	C	0.462572	0.000049	0.711985
C42	C	0.462574	0.000044	0.608478
C43	C	0.462559	0.305043	1.016973
C44	C	0.462557	0.408549	1.016976
C45	C	-0.015309	-0.059474	1.076536
C46	C	-0.192305	-0.059473	1.076559
O47	O	-0.215210	-0.110077	1.127247
N48	N	-0.214434	0.000074	1.017007
C49	C	-0.192315	0.059632	0.957451
O50	O	-0.215202	0.110290	0.906808
C51	C	-0.015323	0.059637	0.957435
C52	C	0.006808	0.000077	1.016981
C53	C	0.006821	-0.119029	1.136079
C54	C	0.051070	-0.119033	1.136067
C55	C	0.073188	-0.059483	1.076513
C56	C	0.051057	0.000072	1.016970
C57	C	0.006793	0.119201	0.897886
C58	C	0.051043	0.119199	0.897889
C59	C	0.073174	0.059639	0.957436
C60	C	0.117424	0.059618	0.957404
N61	N	0.139553	0.000070	1.016956
C62	C	0.117435	-0.059480	1.076511
C63	C	-0.285237	0.059623	0.957462
C64	C	-0.329484	0.059620	0.957464
C65	C	-0.329472	-0.059483	1.076574
C66	C	-0.285222	-0.059486	1.076565
C67	C	-0.263108	0.000076	1.017014
C68	C	0.210360	-0.059486	1.076481
C69	C	0.254615	-0.059489	1.076460
C70	C	0.254597	0.059619	0.957355
C71	C	0.210349	0.059617	0.957371
C72	C	0.188230	0.000063	1.016942
O73	O	0.140351	0.110205	0.906754
O74	O	0.140321	-0.110110	1.127166
C75	C	-0.059558	-0.059469	1.076547
C76	C	-0.081689	0.000086	1.017004
C77	C	-0.059571	0.059636	0.957450
C78	C	-0.125936	0.000083	1.017007
C79	C	-0.148054	-0.059467	1.076561
C80	C	-0.125925	-0.119015	1.136113
C81	C	-0.081676	-0.119019	1.136102
C82	C	-0.081700	0.119183	0.897898
C83	C	-0.125948	0.119182	0.897913
C84	C	-0.148066	0.059632	0.957468
C85	C	0.601310	0.000069	1.017004
C86	C	0.648398	0.000070	1.017018
C87	C	0.462572	-0.304912	1.016951
C88	C	0.462574	-0.408418	1.016948
C89	C	0.405955	0.531346	1.079162
C90	C	0.434249	0.562177	1.124253
C91	C	0.434265	0.562142	0.971909
C92	C	0.490851	0.438017	1.062130
C93	C	0.490859	0.437985	0.909726
C94	C	0.519194	0.468742	0.954790
C95	C	0.519175	-0.062154	0.485698
C96	C	0.490882	-0.107232	0.454853
C97	C	0.490865	0.045113	0.454901
C98	C	0.434280	-0.045096	0.578996
C99	C	0.434271	0.107308	0.579041
C100	C	0.405936	0.062257	0.548268
C101	C	0.462559	0.000082	1.321939
C102	C	0.462557	0.000087	1.425446
C103	C	0.323815	0.000078	1.321898
C104	C	0.276724	0.000083	1.425390
C105	C	0.323815	0.305039	1.016931
C106	C	0.276724	0.408545	1.016920
C107	C	0.323808	0.305056	1.321908
C108	C	0.276716	0.408566	1.425404
C109	C	0.601322	-0.304925	0.712016
C110	C	0.648415	-0.408435	0.608520
C111	C	0.601316	0.000053	0.712027
C112	C	0.648406	0.000048	0.608534
C113	C	0.601316	-0.304908	1.016993
C114	C	0.648406	-0.408414	1.017004
C115	C	0.254612	-0.059482	1.414436
C116	C	0.210372	-0.059500	1.511669
C117	C	0.188241	0.000053	1.619854
C118	C	0.210357	0.059619	1.630806
C119	C	0.254600	0.059630	1.533574
C120	C	0.254607	0.516718	1.076470
C121	C	0.210367	0.613982	1.076456
C122	C	0.188241	0.603069	1.016898
C123	C	0.210362	0.494885	0.957340
C124	C	0.254605	0.397623	0.957349
C125	C	0.254600	0.397627	1.533568
C126	C	0.210358	0.494877	1.630823
C127	C	0.188228	0.603066	1.619911
C128	C	0.210348	0.614003	1.511736
C129	C	0.254593	0.516754	1.414484
C130	C	0.670536	-0.397496	0.500356
C131	C	0.714792	-0.494746	0.403101
C132	C	0.736924	-0.602935	0.414013
C133	C	0.714801	-0.613872	0.522188
C134	C	0.670549	-0.516623	0.619441
C135	C	0.670523	0.059602	0.619488
C136	C	0.714776	0.059594	0.522255
C137	C	0.736908	0.000038	0.414070
C138	C	0.714790	-0.059523	0.403118
C139	C	0.670541	-0.059521	0.500350
C140	C	0.670518	-0.397465	1.076574
C141	C	0.714759	-0.494710	1.076606
C142	C	0.736890	-0.602903	1.017061
C143	C	0.714774	-0.613849	0.957489
C144	C	0.670531	-0.516605	0.957464
H145	H	0.272633	-0.107995	1.124950
H146	H	0.732762	-0.485775	1.125114
H147	H	0.772916	-0.682075	1.017090
H148	H	0.272631	-0.107991	1.326355
Br149	Br	0.530752	0.108612	0.365732
Br150	Br	0.394378	0.651370	1.275406
H151	H	0.152201	0.682243	1.699109
H152	H	0.567037	-0.114833	0.460267
Br153	Br	0.744805	-0.479875	0.256307
Br154	Br	-0.155948	-0.199839	1.216930
Br155	Br	0.180365	-0.140343	1.496779
Br156	Br	-0.023231	0.200041	0.817069
H157	H	0.152215	0.000035	1.699017
Br158	Br	0.796961	0.000047	0.282123
Br159	Br	0.326121	0.149862	0.590891
H160	H	-0.063697	0.167681	0.849403
H161	H	0.514805	-0.197926	0.401339
H162	H	0.652532	-0.525536	0.908951
Br163	Br	0.128197	0.735080	1.016898
H164	H	0.732800	-0.701953	0.909009
H165	H	0.272617	0.525625	1.124970
Br166	Br	0.180347	-0.140306	1.157333
H167	H	0.410376	-0.083299	0.632346
Br168	Br	0.180309	0.760841	1.496947
H169	H	0.652535	-0.108014	0.491415
H170	H	0.069085	-0.167529	1.184559
H171	H	0.192332	0.108104	1.718903
Br172	Br	0.530692	0.349083	1.125814
H173	H	0.732817	-0.108012	0.315021
H174	H	0.192340	0.486016	0.908850
Br175	Br	0.640494	-0.250644	1.157394
H176	H	0.652518	-0.309411	0.491450
H177	H	0.272606	0.309547	0.908860
Br178	Br	-0.359498	-0.140301	1.157398
Br179	Br	-0.023185	-0.199864	1.216907
H180	H	0.069047	0.167701	0.849393
H181	H	0.192361	0.702061	1.124959
Br182	Br	-0.255191	-0.140321	1.157381
Br183	Br	0.394380	0.651325	0.908398
Br184	Br	-0.359503	0.140434	0.876625
H185	H	-0.267236	0.108129	0.908966
Br186	Br	0.744782	0.140436	0.537145
H187	H	0.652538	-0.525544	0.707510
H188	H	0.410368	0.197982	0.632551
H189	H	0.192336	0.108101	0.908868
H190	H	0.272598	0.108141	1.542509
Br191	Br	0.284599	0.531622	1.267693
H192	H	0.772957	-0.682112	0.334815
H193	H	0.272615	0.108099	0.908864
Br194	Br	0.284627	0.250811	1.548408
Br195	Br	-0.155974	0.200015	0.817084
H196	H	0.652506	0.108108	0.707569
Br197	Br	0.599029	0.425991	0.867141
Br198	Br	0.326184	0.573749	1.166929
H199	H	0.192353	0.485951	1.718895
H200	H	0.514762	0.384472	0.819057
Br201	Br	0.744842	-0.760709	0.536977
H202	H	-0.063660	-0.167519	1.184590
