data_functionalizedCrystal
_audit_creation_method	'MofGen! by Chris Wilmer'
_symmetry_space_group_name_H-M	'P1'
_symmetry_Int_Tables_number	1
_symmetry_cell_setting	triclinic
loop_
_symmetry_equiv_pos_as_xyz
  x,y,z
_cell_length_a	19.288840
_cell_length_b	11.792254
_cell_length_c	18.366186
_cell_angle_alpha	89.993617
_cell_angle_beta	89.983729
_cell_angle_gamma	83.662307
loop_
_atom_site_label
_atom_site_type_symbol
_atom_site_fract_x
_atom_site_fract_y
_atom_site_fract_z
O1	O	0.922171	0.141446	-0.060672
O2	O	1.422171	0.641446	0.439328
O3	O	0.720017	0.160575	-0.060647
O4	O	1.220017	0.660575	0.439353
O5	O	0.825995	-0.014234	-0.060655
O6	O	1.325995	0.485766	0.439345
O7	O	0.816193	0.316255	-0.060664
O8	O	1.316193	0.816255	0.439336
O9	O	0.825977	-0.014243	0.060445
O10	O	1.325977	0.485757	0.560445
O11	O	0.719999	0.160566	0.060453
O12	O	1.219999	0.660566	0.560453
O13	O	0.922153	0.141437	0.060428
O14	O	1.422153	0.641437	0.560428
Zn15	Zn	0.821073	0.151000	0.079667
Zn16	Zn	1.321073	0.651000	0.579667
Zn17	Zn	0.821097	0.151012	-0.079886
Zn18	Zn	1.321097	0.651012	0.420114
O19	O	0.816175	0.316246	0.060436
O20	O	1.316175	0.816246	0.560436
C21	C	0.694128	0.159960	-0.000094
C22	C	1.194128	0.659960	0.499906
C23	C	0.617013	0.158126	-0.000084
C24	C	1.117013	0.658126	0.499916
C25	C	0.580814	0.157250	-0.066097
C26	C	1.080814	0.657250	0.433903
C27	C	0.508358	0.155515	-0.066106
C28	C	1.008358	0.655515	0.433894
C29	C	0.472104	0.154633	-0.000098
C30	C	0.972104	0.654633	0.499902
C31	C	0.508311	0.155515	0.065924
C32	C	1.008311	0.655515	0.565924
C33	C	0.580765	0.157262	0.065931
C34	C	1.080765	0.657262	0.565931
C35	C	0.362373	0.085385	0.050465
C36	C	0.862373	0.585385	0.550465
C37	C	0.289921	0.083631	0.050456
C38	C	0.789921	0.583631	0.550456
C39	C	0.248630	0.149250	-0.000117
C40	C	0.748630	0.649250	0.499883
C41	C	0.279801	0.216608	-0.050691
C42	C	0.779801	0.716608	0.449309
C43	C	0.352256	0.218355	-0.050684
C44	C	0.852256	0.718355	0.449316
C45	C	0.393539	0.152739	-0.000098
C46	C	0.893539	0.652739	0.499902
C47	C	0.133865	0.146494	-0.066144
C48	C	0.633865	0.646494	0.433856
C49	C	0.061406	0.144766	-0.066150
C50	C	0.561406	0.644766	0.433850
C51	C	0.061362	0.144755	0.065882
C52	C	0.561362	0.644755	0.565882
C53	C	0.133818	0.146495	0.065886
C54	C	0.633818	0.646495	0.565886
C55	C	0.170066	0.147359	-0.000129
C56	C	0.670066	0.647359	0.499871
C57	C	0.825369	-0.056520	-0.000105
C58	C	1.325369	0.443480	0.499895
C59	C	0.823521	-0.182505	-0.000105
C60	C	1.323521	0.317495	0.499895
C61	C	0.822019	-0.284818	-0.000108
C62	C	1.322019	0.215182	0.499892
C63	C	0.820141	-0.413176	-0.000114
C64	C	1.320141	0.086824	0.499886
C65	C	0.948042	0.142052	-0.000127
C66	C	1.448042	0.642052	0.499873
C67	C	1.025157	0.143886	-0.000141
C68	C	1.525157	0.643886	0.499859
C69	C	0.816802	0.358532	-0.000115
C70	C	1.316802	0.858532	0.499885
C71	C	0.818650	0.484517	-0.000120
C72	C	1.318650	0.984517	0.499880
N73	N	0.821062	0.150992	0.188559
N74	N	1.321062	0.650992	0.688559
N75	N	0.821114	0.151011	-0.188777
N76	N	1.321114	0.651011	0.311223
C77	C	0.868005	0.073624	0.226655
C78	C	1.368005	0.573624	0.726655
C79	C	0.868009	0.073619	0.302883
C80	C	1.368009	0.573619	0.802883
C81	C	0.821077	0.151001	0.341011
C82	C	1.321077	0.651001	0.841011
C83	C	0.774126	0.228375	0.302905
C84	C	1.274126	0.728375	0.802905
C85	C	0.774118	0.228370	0.226679
C86	C	1.274118	0.728370	0.726679
C87	C	0.812370	0.254413	0.461769
C88	C	1.312370	0.754413	0.961769
C89	C	0.812382	0.254419	0.537994
C90	C	1.312382	0.754419	1.037994
C91	C	0.821097	0.151015	0.576119
C92	C	1.321097	0.651015	1.076119
C93	C	0.829815	0.047601	0.538009
C94	C	1.329815	0.547601	1.038009
C95	C	0.829807	0.047596	0.461782
C96	C	1.329807	0.547596	0.961782
C97	C	0.821080	0.151014	0.423666
C98	C	1.321080	0.651014	0.923666
C99	C	0.868047	0.073636	0.696871
C100	C	1.368047	0.573636	1.196871
C101	C	0.868047	0.073629	0.773100
C102	C	1.368047	0.573629	1.273100
C103	C	0.774167	0.228395	0.773120
C104	C	1.274167	0.728395	1.273120
C105	C	0.774164	0.228391	0.696893
C106	C	1.274164	0.728391	1.196893
C107	C	0.821108	0.151013	0.658772
C108	C	1.321108	0.651013	1.158772
H109	H	0.377632	0.273203	-0.091863
H110	H	0.877632	0.773203	0.408137
H111	H	0.836903	-0.036607	0.430756
H112	H	1.336903	0.463393	0.930756
H113	H	0.610238	0.157977	0.119689
H114	H	1.110238	0.657977	0.619689
H115	H	0.735952	0.291396	0.804164
H116	H	1.235952	0.791396	1.304164
O117	O	0.022351	0.143820	-0.137349
O118	O	0.522351	0.643820	0.362651
H119	H	-0.004758	0.065691	-0.140491
H120	H	0.495242	0.565691	0.359509
O121	O	0.619911	0.158197	-0.137295
O122	O	1.119911	0.658197	0.362705
H123	H	0.582561	0.157307	-0.183200
H124	H	1.082561	0.657307	0.316800
O125	O	0.723541	0.311851	0.655794
O126	O	1.223541	0.811851	1.155794
H127	H	0.690910	0.365668	0.695111
H128	H	1.190910	0.865668	1.195111
H129	H	0.478879	0.154803	-0.119863
H130	H	0.978879	0.654803	0.380137
H131	H	0.163292	0.147201	0.119641
H132	H	0.663292	0.647201	0.619641
O133	O	0.235278	0.287400	-0.105240
O134	O	0.735278	0.787400	0.394760
H135	H	0.179658	0.274885	-0.096744
H136	H	0.679658	0.774885	0.403256
H137	H	0.735912	0.291379	0.333953
H138	H	1.235912	0.791379	0.833953
O139	O	0.256300	0.010992	0.105004
O140	O	0.756300	0.510992	0.605004
H141	H	0.297181	-0.034323	0.140182
H142	H	0.797181	0.465677	0.640182
O143	O	0.172968	0.147446	-0.137340
O144	O	0.672968	0.647446	0.362660
H145	H	0.135618	0.146566	-0.183247
H146	H	0.635618	0.646566	0.316753
O147	O	0.406909	0.014599	0.105010
O148	O	0.906909	0.514599	0.605010
H149	H	0.373064	-0.032547	0.140166
H150	H	0.873064	0.467453	0.640166
O151	O	0.918690	-0.009814	0.814189
O152	O	1.418690	0.490186	1.314189
H153	H	0.909522	-0.098258	0.799565
H154	H	1.409522	0.401742	1.299565
H155	H	0.805260	0.338622	0.430735
H156	H	1.305260	0.838622	0.930735
H157	H	0.031844	0.144044	0.119627
H158	H	0.531844	0.644044	0.619627
O159	O	0.469174	0.155113	0.137120
O160	O	0.969174	0.655113	0.637120
H161	H	0.412695	0.153940	0.126025
H162	H	0.912695	0.653940	0.626025
H163	H	0.906227	0.010616	0.195620
H164	H	1.406227	0.510616	0.695620
H165	H	0.906237	0.010615	0.333907
H166	H	1.406237	0.510615	0.833907
O167	O	0.839210	-0.063941	0.579115
O168	O	1.339210	0.436059	1.079115
H169	H	0.837741	-0.046570	0.638522
H170	H	1.337741	0.453430	1.138522
O171	O	0.802994	0.365951	0.579098
O172	O	1.302994	0.865951	1.079098
H173	H	0.796923	0.437853	0.539784
H174	H	1.296923	0.937853	1.039784
O175	O	0.918667	-0.009830	0.655746
O176	O	1.418667	0.490170	1.155746
H177	H	0.951303	-0.063646	0.695047
H178	H	1.451303	0.436354	1.195047
H179	H	0.735891	0.291373	0.195660
H180	H	1.235891	0.791373	0.695660
