data_functionalizedCrystal
_audit_creation_method	'MofGen! by Chris Wilmer'
_symmetry_space_group_name_H-M	'P1'
_symmetry_Int_Tables_number	1
_symmetry_cell_setting	triclinic
loop_
_symmetry_equiv_pos_as_xyz
  x,y,z
_cell_length_a	18.050589
_cell_length_b	18.215407
_cell_length_c	18.215399
_cell_angle_alpha	89.983140
_cell_angle_beta	90.023603
_cell_angle_gamma	89.975646
loop_
_atom_site_label
_atom_site_type_symbol
_atom_site_fract_x
_atom_site_fract_y
_atom_site_fract_z
Zn1	Zn	-0.295744	-1.125055	0.416080
Zn2	Zn	-0.419939	-1.124956	0.293023
Zn3	Zn	-0.295759	-1.001987	0.293033
Zn4	Zn	-0.419888	-1.001946	0.416054
O5	O	-0.357832	-1.063486	0.354547
O6	O	-0.312233	-1.228026	0.399762
O7	O	-0.403493	-1.108620	0.190040
O8	O	-0.191832	-1.018371	0.309371
O9	O	-0.403479	-1.227953	0.309353
O10	O	-0.191821	-1.108788	0.399773
O11	O	-0.312259	-1.018275	0.190048
O12	O	-0.312210	-0.898998	0.309346
O13	O	-0.403393	-1.018301	0.519042
O14	O	-0.403407	-0.898967	0.399729
O15	O	-0.312184	-1.108748	0.519061
O16	O	-0.523857	-1.108580	0.309328
O17	O	-0.523819	-1.018205	0.399718
C18	C	-0.357805	-0.872280	0.354536
C19	C	-0.357811	-0.790481	0.354549
C20	C	-0.405384	-0.525427	0.401546
C21	C	-0.405380	-0.602286	0.401542
C22	C	-0.310274	-0.602287	0.307563
C23	C	-0.310283	-0.525429	0.307563
C24	C	-0.357837	-0.487001	0.354559
C25	C	-0.357823	-0.640717	0.354555
C26	C	-0.357818	-0.724051	0.354551
C27	C	-0.357843	-0.403662	0.354562
C28	C	-0.550784	-1.063397	0.354535
C29	C	-0.633330	-1.063427	0.354555
C30	C	-0.832788	-1.014329	0.403692
C31	C	-0.882227	-0.996389	0.336539
C32	C	-0.784461	-1.063499	0.354564
C33	C	-0.882103	-1.081475	0.421725
C34	C	-0.930446	-1.063567	0.354579
C35	C	-0.832812	-1.045524	0.287375
C36	C	-0.832684	-1.130641	0.372607
C37	C	-0.882101	-1.112726	0.305408
C38	C	-0.700362	-1.063458	0.354556
C39	C	-1.014542	-1.063609	0.354580
C40	C	-0.164127	-1.063595	0.354576
C41	C	-0.081581	-1.063642	0.354588
C42	C	-0.357781	-1.063531	0.546500
C43	C	-0.357759	-1.063550	0.628299
C44	C	-0.357854	-0.255439	0.354559
C45	C	-0.357849	-0.337238	0.354565
C46	C	-0.357830	-1.063484	0.163341
C47	C	-0.357642	-1.063607	0.081543
C48	C	-0.310223	-1.110663	0.816504
C49	C	-0.310201	-1.110672	0.893363
C50	C	-0.405181	-1.016489	0.893332
C51	C	-0.405198	-1.016477	0.816475
C52	C	-0.357720	-1.063568	0.778063
C53	C	-0.357681	-1.063589	0.931779
C54	C	-0.357658	-1.063598	1.015113
C55	C	-0.357742	-1.063558	0.694724
H56	H	-0.444106	-0.494141	0.439812
H57	H	-0.443876	-0.978122	0.785175
H58	H	-0.444098	-0.633568	0.439802
H59	H	-0.811134	-0.972687	0.445179
H60	H	-0.271556	-0.633584	0.269302
H61	H	-0.271563	-0.494142	0.269298
H62	H	-0.443838	-0.978151	0.924617
H63	H	-0.810909	-1.187375	0.387887
H64	H	-0.904004	-0.939642	0.321291
H65	H	-0.811250	-1.030281	0.230569
H66	H	-0.903618	-1.154337	0.263821
H67	H	-0.903755	-1.096652	0.478516
H68	H	-0.271561	-1.149006	0.785232
H69	H	-0.271523	-1.149020	0.924659
