data_functionalizedCrystal
_audit_creation_method	'MofGen! by Chris Wilmer'
_symmetry_space_group_name_H-M	'P1'
_symmetry_Int_Tables_number	1
_symmetry_cell_setting	triclinic
loop_
_symmetry_equiv_pos_as_xyz
  x,y,z
_cell_length_a	21.395362
_cell_length_b	25.639239
_cell_length_c	25.639233
_cell_angle_alpha	89.981253
_cell_angle_beta	89.967207
_cell_angle_gamma	90.054564
loop_
_atom_site_label
_atom_site_type_symbol
_atom_site_fract_x
_atom_site_fract_y
_atom_site_fract_z
Zn1	Zn	0.957756	-0.207993	-0.295891
Zn2	Zn	0.957664	-0.295412	-0.208455
Zn3	Zn	0.852991	-0.208016	-0.208438
Zn4	Zn	0.852925	-0.295423	-0.295829
O5	O	0.905334	-0.251711	-0.252153
O6	O	1.045422	-0.219574	-0.284325
O7	O	0.943768	-0.283823	-0.135287
O8	O	0.866954	-0.134848	-0.220058
O9	O	1.045354	-0.283801	-0.220086
O10	O	0.943924	-0.134831	-0.284309
O11	O	0.866865	-0.219614	-0.135275
O12	O	0.765304	-0.219626	-0.219998
O13	O	0.866842	-0.283821	-0.369002
O14	O	0.765256	-0.283843	-0.284203
O15	O	0.943861	-0.219586	-0.369048
O16	O	0.943704	-0.368578	-0.220026
O17	O	0.866753	-0.368587	-0.284219
C18	C	0.742546	-0.251739	-0.252092
C19	C	0.672905	-0.251763	-0.252079
C20	C	0.640183	-0.285245	-0.285460
C21	C	0.574748	-0.285233	-0.285484
C22	C	0.542037	-0.251743	-0.252116
C23	C	0.574767	-0.218254	-0.218732
C24	C	0.640201	-0.218264	-0.218714
C25	C	0.438324	-0.247530	-0.205047
C26	C	0.372891	-0.247524	-0.205065
C27	C	0.340216	-0.251709	-0.252174
C28	C	0.372982	-0.255911	-0.299266
C29	C	0.438417	-0.255921	-0.299248
C30	C	0.471085	-0.251728	-0.252133
C31	C	0.236542	-0.285179	-0.285584
C32	C	0.171105	-0.285163	-0.285608
C33	C	0.171125	-0.218187	-0.218852
C34	C	0.236561	-0.218201	-0.218832
C35	C	0.269265	-0.251699	-0.252197
C36	C	0.905229	-0.387554	-0.252129
C37	C	0.905241	-0.445668	-0.252136
C38	C	0.945507	-0.806014	-0.218785
C39	C	0.945531	-0.860618	-0.218792
O40	O	0.979658	-0.888840	-0.190409
N41	N	0.905444	-0.887950	-0.252188
C42	C	0.865335	-0.860675	-0.285583
O43	O	0.831240	-0.888937	-0.313990
C44	C	0.865314	-0.806072	-0.285578
C45	C	0.905399	-0.778742	-0.252176
C46	C	0.985590	-0.778684	-0.185386
C47	C	0.985564	-0.724084	-0.185378
C48	C	0.945457	-0.696813	-0.218770
C49	C	0.905374	-0.724142	-0.252168
C50	C	0.825208	-0.778798	-0.318975
C51	C	0.825191	-0.724191	-0.318968
C52	C	0.865276	-0.696861	-0.285566
C53	C	0.865241	-0.642270	-0.285552
N54	N	0.905328	-0.614938	-0.252156
C55	C	0.945436	-0.642209	-0.218765
C56	C	0.865382	-0.975346	-0.285591
C57	C	0.865399	-1.029948	-0.285593
C58	C	0.945597	-1.029887	-0.218803
C59	C	0.945576	-0.975284	-0.218798
C60	C	0.905469	-0.948014	-0.252195
C61	C	0.945379	-0.527544	-0.218751
C62	C	0.945349	-0.472939	-0.218745
C63	C	0.865154	-0.473005	-0.285537
C64	C	0.865182	-0.527605	-0.285542
C65	C	0.905300	-0.554874	-0.252147
O66	O	0.831134	-0.614013	-0.313922
O67	O	0.979531	-0.613941	-0.190368
C68	C	1.068757	-0.251684	-0.252214
C69	C	1.138399	-0.251672	-0.252240
C70	C	0.905354	-0.251702	-0.388526
C71	C	0.905363	-0.251698	-0.446640
C72	C	0.905457	-0.115338	-0.252189
C73	C	0.905509	-0.057224	-0.252204
C74	C	0.945517	-0.218152	-0.807033
C75	C	0.945525	-0.218137	-0.861637
O76	O	0.979615	-0.189676	-0.889899
N77	N	0.905432	-0.251575	-0.888923
C78	C	0.865324	-0.285027	-0.861602
O79	O	0.831222	-0.313467	-0.889824
C80	C	0.865314	-0.285038	-0.806998
C81	C	0.905414	-0.251601	-0.779715
C82	C	0.985614	-0.184717	-0.779750
C83	C	0.985607	-0.184732	-0.725149
C84	C	0.945503	-0.218182	-0.697832
C85	C	0.905407	-0.251617	-0.725115
C86	C	0.825203	-0.318486	-0.779678
C87	C	0.825196	-0.318494	-0.725071
C88	C	0.865296	-0.285058	-0.697788
C89	C	0.865296	-0.285082	-0.643197
N90	N	0.905389	-0.251643	-0.615911
C91	C	0.945493	-0.218194	-0.643228
C92	C	0.865348	-0.284999	-0.976272
C93	C	0.865361	-0.284991	-1.030875
C94	C	0.945562	-0.218101	-1.030906
C95	C	0.945551	-0.218112	-0.976303
C96	C	0.905441	-0.251561	-0.948986
C97	C	0.945475	-0.218228	-0.528563
C98	C	0.945466	-0.218248	-0.473958
C99	C	0.865264	-0.285136	-0.473931
C100	C	0.865275	-0.285119	-0.528531
C101	C	0.905383	-0.251661	-0.555846
O102	O	0.831222	-0.313526	-0.614900
O103	O	0.979583	-0.189753	-0.614999
C104	C	0.905350	-0.251682	-0.116311
C105	C	0.905463	-0.251539	-0.058197
H106	H	0.977991	-0.450689	-0.191543
H107	H	0.792526	-0.345728	-0.702832
O108	O	0.988805	-0.182013	-1.060380
H109	H	1.020660	-0.205400	-1.085274
O110	O	0.822113	-0.321056	-1.060300
H111	H	0.794224	-0.344312	-1.032125
H112	H	0.666843	-0.190997	-0.191530
O113	O	0.337753	-0.260421	-0.350083
H114	H	0.286748	-0.259700	-0.342188
H115	H	0.144493	-0.190916	-0.191685
H116	H	0.792563	-0.801040	-0.346172
H117	H	0.832496	-0.450792	-0.312722
O118	O	0.675454	-0.321374	-0.321450
H119	H	0.726453	-0.315760	-0.315827
H120	H	0.832628	-0.312351	-0.550746
H121	H	0.464922	-0.244120	-0.166683
O122	O	1.028859	-0.808090	-0.149371
H123	H	1.022153	-0.850653	-0.154982
O124	O	0.822006	-0.321210	-0.444463
H125	H	0.828735	-0.315594	-0.401911
H126	H	0.548100	-0.312498	-0.312669
H127	H	0.832685	-0.312240	-0.954034
O128	O	0.822107	-0.945940	-0.321608
H129	H	0.850109	-0.921024	-0.348245
H130	H	0.978217	-0.953035	-0.191600
H131	H	0.978049	-0.549740	-0.191559
H132	H	0.465092	-0.259341	-0.337592
O133	O	0.781944	-0.354543	-0.809097
H134	H	0.754052	-0.377795	-0.780919
O135	O	0.988867	-1.059310	-0.182797
H136	H	0.960861	-1.084237	-0.156174
O137	O	0.271823	-0.321301	-0.321575
H138	H	0.238073	-0.344575	-0.344799
H139	H	0.832752	-1.052195	-0.312788
O140	O	0.781932	-0.694777	-0.354989
H141	H	0.750065	-0.669943	-0.331551
H142	H	1.018207	-0.701835	-0.158181
O143	O	0.988733	-0.182136	-0.558011
H144	H	0.960719	-0.155525	-0.582872
O145	O	0.821947	-0.557087	-0.321565
H146	H	0.794056	-0.528948	-0.344784
O147	O	0.988718	-0.182183	-0.444530
H148	H	1.016600	-0.158918	-0.472703
H149	H	1.018259	-0.157504	-0.702940
H150	H	0.144464	-0.312427	-0.312794
H151	H	1.018271	-0.157475	-0.801986
H152	H	0.263203	-0.190938	-0.191646
H153	H	0.978203	-0.190884	-0.954093
H154	H	0.346218	-0.244106	-0.166719
H155	H	0.548129	-0.190986	-0.191565
