data_functionalizedCrystal
_audit_creation_method	'MofGen! by Chris Wilmer'
_symmetry_space_group_name_H-M	'P1'
_symmetry_Int_Tables_number	1
_symmetry_cell_setting	triclinic
loop_
_symmetry_equiv_pos_as_xyz
  x,y,z
_cell_length_a	17.699097
_cell_length_b	22.010155
_cell_length_c	17.699083
_cell_angle_alpha	89.997223
_cell_angle_beta	96.714278
_cell_angle_gamma	90.012040
loop_
_atom_site_label
_atom_site_type_symbol
_atom_site_fract_x
_atom_site_fract_y
_atom_site_fract_z
O1	O	1.004075	0.050585	-0.095748
O2	O	0.783698	0.050576	-0.108190
O3	O	0.900113	0.050566	0.008219
O4	O	0.887660	0.050595	-0.212158
O5	O	0.900092	-0.050484	0.008202
O6	O	0.783677	-0.050474	-0.108208
O7	O	1.004054	-0.050465	-0.095766
Cu8	Cu	0.893863	-0.059696	-0.101989
Cu9	Cu	0.893888	0.059807	-0.101968
O10	O	0.887639	-0.050455	-0.212176
C11	C	0.755491	0.000050	-0.107752
C12	C	0.671473	0.000046	-0.106409
C13	C	0.155766	0.055152	-0.098170
C14	C	0.234710	0.055149	-0.099426
C15	C	0.274165	0.000064	-0.100065
C16	C	0.234672	-0.055022	-0.099440
C17	C	0.155730	-0.055018	-0.098178
C18	C	0.553036	-0.055037	-0.104528
C19	C	0.631983	-0.055036	-0.105792
C20	C	0.632016	0.055130	-0.105776
C21	C	0.553075	0.055134	-0.104514
C22	C	0.513589	0.000048	-0.103885
C23	C	0.427989	0.000052	-0.102521
C24	C	0.359763	0.000060	-0.101434
N25	N	0.893851	-0.143749	-0.102003
C26	C	0.945440	-0.563533	-0.050429
C27	C	0.945443	-0.627140	-0.050424
O28	O	0.989275	-0.660036	-0.006584
N29	N	0.893888	-0.658956	-0.101952
C30	C	0.842321	-0.627161	-0.153484
O31	O	0.798469	-0.660063	-0.197312
C32	C	0.842314	-0.563554	-0.153485
C33	C	0.893878	-0.531742	-0.101958
C34	C	0.996999	-0.531720	0.001094
C35	C	0.996996	-0.468117	0.001088
C36	C	0.945434	-0.436326	-0.050442
C37	C	0.893875	-0.468139	-0.101965
C38	C	0.790744	-0.531760	-0.205012
C39	C	0.790741	-0.468149	-0.205008
C40	C	0.842305	-0.436337	-0.153482
C41	C	0.842311	-0.372745	-0.153500
N42	N	0.893866	-0.340929	-0.101972
C43	C	0.945428	-0.372720	-0.050443
C44	C	0.842337	-0.760738	-0.153477
C45	C	0.842347	-0.824344	-0.153480
C46	C	0.945469	-0.824319	-0.050419
C47	C	0.945462	-0.760713	-0.050420
C48	C	0.893893	-0.728923	-0.101949
C49	C	0.945419	-0.239149	-0.050460
C50	C	0.945413	-0.175540	-0.050473
C51	C	0.842289	-0.175570	-0.153531
C52	C	0.842297	-0.239173	-0.153521
C53	C	0.893864	-0.270961	-0.101980
O54	O	0.798499	-0.339809	-0.197316
O55	O	0.989266	-0.339810	-0.006615
C56	C	1.032261	0.000063	-0.096205
C57	C	1.116279	0.000070	-0.097547
C58	C	0.899656	0.000038	0.036408
C59	C	0.898317	0.000031	0.120426
N60	N	0.893907	0.143860	-0.101948
C61	C	0.966650	0.000029	0.169044
C62	C	0.965388	0.000027	0.247987
C63	C	0.895792	0.000024	0.278311
C64	C	0.827454	0.000027	0.229687
C65	C	0.828717	0.000033	0.150745
C66	C	0.822359	0.000005	0.548050
C67	C	0.821101	-0.000003	0.626999
C68	C	0.959030	-0.000001	0.645292
C69	C	0.960293	0.000005	0.566350
C70	C	0.891955	0.000012	0.517733
C71	C	0.893325	0.000015	0.432134
C72	C	0.894422	0.000017	0.363909
C73	C	0.888096	0.000052	0.759636
C74	C	0.889435	-0.000001	0.675618
H75	H	0.520954	0.099990	-0.103997
C76	C	0.753046	0.104052	-0.107692
C77	C	0.675423	0.115683	-0.106456
H78	H	0.779840	0.141434	-0.108109
H79	H	0.760122	0.081428	-0.152017
H80	H	0.771820	0.081414	-0.063779
H81	H	0.656647	0.138317	-0.150372
H82	H	0.668342	0.138317	-0.062126
H83	H	0.266803	-0.099873	-0.099956
C84	C	0.355738	0.104063	-0.101353
C85	C	0.278115	0.115696	-0.100116
H86	H	0.382533	0.141445	-0.101774
H87	H	0.362812	0.081436	-0.145676
H88	H	0.374512	0.081427	-0.057438
H89	H	0.259339	0.138328	-0.144034
H90	H	0.271036	0.138333	-0.055788
H91	H	0.123648	0.100009	-0.097655
H92	H	0.123579	-0.099871	-0.097679
H93	H	0.800310	-0.149676	-0.195488
H94	H	0.987405	-0.149640	-0.008514
C95	C	1.047353	-0.232718	0.051409
C96	C	1.002103	-0.274083	0.006194
H97	H	1.082351	-0.254286	0.086379
H98	H	1.015897	-0.207916	0.078589
H99	H	1.074509	-0.207903	0.019921
H100	H	0.974943	-0.298895	0.037682
H101	H	1.033563	-0.298895	-0.020988
H102	H	0.800316	-0.265075	-0.195486
C103	C	1.098917	-0.474502	0.102965
C104	C	1.053669	-0.433155	0.057737
H105	H	1.133900	-0.452919	0.137943
H106	H	1.126082	-0.499300	0.071491
H107	H	1.067452	-0.499321	0.130142
H108	H	1.085133	-0.408338	0.030555
H109	H	1.026501	-0.408346	0.089214
C110	C	0.692249	0.000027	0.140586
C111	C	0.753603	0.000034	0.097301
H112	H	0.645876	0.000026	0.107591
H113	H	0.694634	0.035260	0.171760
H114	H	0.694621	-0.035217	0.171755
H115	H	0.751234	0.035281	0.066137
H116	H	0.751217	-0.035203	0.066115
H117	H	0.800367	-0.850241	-0.195446
C118	C	1.102864	0.000040	0.195064
C119	C	1.043154	0.000037	0.135716
H120	H	1.150095	0.000051	0.174489
H121	H	1.099499	-0.035200	0.225468
H122	H	1.099500	0.035278	0.225478
H123	H	1.046515	-0.035203	0.105305
H124	H	1.046521	0.035281	0.105299
C125	C	1.044008	0.051974	0.347369
C126	C	1.040505	0.000027	0.301424
H127	H	1.090387	0.051976	0.380354
H128	H	1.002388	0.051968	0.376728
H129	H	1.041637	0.087208	0.316183
H130	H	1.042870	-0.035207	0.332610
H131	H	1.082137	0.000028	0.272062
C132	C	0.757922	-0.000013	0.739890
C133	C	0.744596	-0.000002	0.660333
H134	H	0.710693	-0.000017	0.760468
H135	H	0.786061	0.035220	0.756584
H136	H	0.786042	-0.035257	0.756571
H137	H	0.716481	0.035244	0.643651
H138	H	0.716445	-0.035239	0.643632
H139	H	1.038987	-0.557599	0.043059
H140	H	1.016965	0.000005	0.541665
C141	C	1.037654	0.051946	0.744681
C142	C	1.034151	0.000001	0.698733
H143	H	1.084032	0.051946	0.777668
H144	H	0.996032	0.051940	0.774038
H145	H	1.035286	0.087181	0.713497
H146	H	1.036514	-0.035235	0.729918
H147	H	1.075785	0.000001	0.669374
C148	C	0.624028	-0.163940	-0.105660
C149	C	0.675355	-0.115590	-0.106484
H150	H	0.650807	-0.201321	-0.106083
H151	H	0.587388	-0.161650	-0.149283
H152	H	0.599091	-0.161646	-0.061045
H153	H	0.700289	-0.117882	-0.151102
H154	H	0.712009	-0.117882	-0.062856
C155	C	0.685893	-0.000011	0.537908
C156	C	0.747243	0.000001	0.494618
H157	H	0.639518	-0.000019	0.504917
H158	H	0.688274	0.035224	0.569078
H159	H	0.688274	-0.035253	0.569081
H160	H	0.744864	0.035246	0.463449
H161	H	0.744860	-0.035238	0.463435
H162	H	0.770787	0.000028	0.254383
C163	C	0.740415	-0.767162	-0.255359
C164	C	0.785657	-0.725798	-0.210133
H165	H	0.705427	-0.745592	-0.290338
H166	H	0.713255	-0.791974	-0.223884
H167	H	0.771883	-0.791965	-0.282536
H168	H	0.754190	-0.700997	-0.182952
H169	H	0.812820	-0.700975	-0.241612
C170	C	0.472897	-0.118961	-0.038062
C171	C	0.509649	-0.115589	-0.103831
H172	H	0.446116	-0.156349	-0.037630
H173	H	0.438096	-0.086165	-0.037508
H174	H	0.509558	-0.116667	0.005555
H175	H	0.472987	-0.117879	-0.147449
H176	H	0.544452	-0.148395	-0.104393
C177	C	1.047391	-0.767092	0.051450
C178	C	1.002136	-0.725748	0.006225
H179	H	1.082376	-0.745507	0.086426
H180	H	1.074555	-0.791889	0.019975
H181	H	1.015932	-0.791912	0.078632
H182	H	1.033596	-0.700930	-0.020961
H183	H	0.974970	-0.700940	0.037705
H184	H	0.748756	-0.557653	-0.246969
H185	H	0.987453	-0.850215	-0.008460
C186	C	0.688806	-0.474568	-0.306879
C187	C	0.734057	-0.433207	-0.261656
H188	H	0.653817	-0.452995	-0.341854
H189	H	0.661647	-0.499379	-0.275401
H190	H	0.720268	-0.499373	-0.334060
H191	H	0.702595	-0.408405	-0.234470
H192	H	0.761218	-0.408386	-0.293138
