data_functionalizedCrystal
_audit_creation_method	'MofGen! by Chris Wilmer'
_symmetry_space_group_name_H-M	'P1'
_symmetry_Int_Tables_number	1
_symmetry_cell_setting	triclinic
loop_
_symmetry_equiv_pos_as_xyz
  x,y,z
_cell_length_a	23.532407
_cell_length_b	15.995350
_cell_length_c	14.472310
_cell_angle_alpha	89.998838
_cell_angle_beta	89.989680
_cell_angle_gamma	96.829440
loop_
_atom_site_label
_atom_site_type_symbol
_atom_site_fract_x
_atom_site_fract_y
_atom_site_fract_z
O1	O	0.755658	-0.101636	-0.076778
O2	O	0.589851	-0.116343	-0.076792
O3	O	0.677287	0.012936	-0.076784
O4	O	0.668222	-0.230915	-0.076787
O5	O	0.677265	0.012928	0.076898
O6	O	0.589829	-0.116350	0.076890
O7	O	0.755636	-0.101644	0.076904
Cu8	Cu	0.672730	-0.108998	0.090929
Cu9	Cu	0.672757	-0.108989	-0.090818
O10	O	0.668200	-0.230922	0.076895
C11	C	0.568623	-0.115972	0.000047
C12	C	0.505401	-0.114846	0.000041
C13	C	0.238921	-0.033698	0.000067
C14	C	0.298326	-0.034744	0.000067
O15	O	0.334823	0.029629	0.000100
N16	N	0.321248	-0.111600	0.000060
C17	C	0.284762	-0.187415	0.000062
O18	O	0.309713	-0.252884	0.000057
C19	C	0.225359	-0.186369	0.000069
C20	C	0.202440	-0.109507	0.000067
C21	C	0.216002	0.043157	0.000066
C22	C	0.156602	0.044202	0.000064
C23	C	0.120121	-0.031607	0.000064
C24	C	0.143040	-0.108462	0.000066
C25	C	0.188874	-0.262183	0.000079
C26	C	0.129468	-0.261129	0.000086
C27	C	0.106549	-0.184268	0.000084
C28	C	0.047159	-0.183226	0.000064
N29	N	0.024237	-0.106369	0.000071
C30	C	0.060718	-0.030560	0.000071
C31	C	0.409513	-0.189608	0.000050
C32	C	0.468915	-0.190656	0.000036
C33	C	0.482475	-0.037984	0.000042
C34	C	0.423071	-0.036937	0.000049
C35	C	0.386591	-0.112752	0.000057
C36	C	-0.064027	-0.028370	0.000067
C37	C	-0.123433	-0.027331	0.000062
C38	C	-0.136988	-0.180002	0.000061
C39	C	-0.077587	-0.181042	0.000061
C40	C	-0.041108	-0.105219	0.000067
O41	O	0.010627	-0.247565	0.000035
O42	O	0.035758	0.034897	0.000088
C43	C	0.676901	0.044124	0.000055
C44	C	0.675778	0.137065	0.000050
C45	C	0.776864	-0.102015	0.000062
C46	C	0.840086	-0.103141	0.000062
C47	C	0.668586	-0.262110	0.000054
C48	C	0.669709	-0.355051	0.000053
N49	N	0.672716	-0.109004	0.218760
C50	C	0.671743	0.474779	0.000052
C51	C	0.609473	0.426827	-0.000297
C52	C	0.610596	0.330146	0.000049
C53	C	0.673744	0.307235	0.000051
C54	C	0.704445	0.348563	0.087811
C55	C	0.702881	0.445186	0.087885
C56	C	0.704193	0.445564	-0.086880
C57	C	0.704178	0.348618	-0.088040
C58	C	0.674878	0.212547	0.000053
C59	C	0.670610	0.569467	0.000057
N60	N	0.672776	-0.108976	-0.218649
C61	C	0.672756	-0.108985	0.592851
C62	C	0.625814	-0.177930	0.553681
C63	C	0.625922	-0.178179	0.446593
C64	C	0.672735	-0.108994	0.407260
C65	C	0.732157	-0.127582	0.446102
C66	C	0.731894	-0.128072	0.553224
C67	C	0.660806	-0.021245	0.553380
C68	C	0.659443	-0.021842	0.446252
C69	C	0.672728	-0.108998	0.302372
C70	C	0.672768	-0.108984	0.697739
H71	H	-0.034332	0.033372	0.000072
H72	H	0.404416	0.025650	0.000048
H73	H	0.767923	-0.078681	0.420622
N74	N	0.779555	-0.064048	0.587526
H75	H	0.807033	-0.093186	0.626182
H76	H	0.762888	-0.020433	0.626273
H77	H	0.512189	0.023744	0.000043
N78	N	0.746446	-0.211348	0.410557
H79	H	0.714516	-0.237370	0.369303
H80	H	0.751108	-0.250059	0.464454
H81	H	0.618416	-0.003249	0.580444
H82	H	0.750104	0.477706	-0.087469
N83	N	0.090128	-0.342910	0.000109
H84	H	0.097508	-0.376468	-0.056856
H85	H	0.049032	-0.330531	0.000150
N86	N	0.677243	0.472550	-0.174994
H87	H	0.643723	0.503993	-0.159448
H88	H	0.663530	0.421182	-0.213077
N89	N	0.745834	-0.212816	0.586305
H90	H	0.713025	-0.240679	0.624613
H91	H	0.781735	-0.204985	0.625119
N92	N	0.576508	0.451103	-0.083654
H93	H	0.596801	0.436266	-0.141832
H94	H	0.573970	0.513680	-0.082357
N95	N	0.706140	0.046714	0.586950
H96	H	0.698241	0.102938	0.561376
H97	H	0.744974	0.033900	0.565273
N98	N	0.765179	0.328785	-0.095065
H99	H	0.773991	0.292533	-0.041000
H100	H	0.792042	0.382947	-0.094310
H101	H	0.581753	-0.167178	0.420333
N102	N	0.601523	-0.003165	0.412693
H103	H	0.583965	-0.050949	0.372390
H104	H	0.606062	0.050812	0.375795
H105	H	0.691413	0.031829	0.419482
H106	H	0.581501	-0.167117	0.579465
H107	H	0.633339	-0.242685	0.580590
H108	H	0.487569	-0.253244	0.000025
N109	N	0.635877	-0.264500	0.412626
H110	H	0.640232	-0.302529	0.467241
H111	H	0.671827	-0.259908	0.373913
H112	H	0.137948	0.106790	0.000066
N113	N	-0.148156	0.055569	0.000063
H114	H	-0.134845	0.088764	-0.056904
H115	H	-0.134853	0.088686	0.057073
N116	N	0.255345	0.124929	0.000073
H117	H	0.231803	0.173767	0.000075
H118	H	0.280291	0.127831	-0.056902
H119	H	0.379813	-0.251349	0.000049
N120	N	0.674484	0.312228	-0.174046
H121	H	0.641456	0.269112	-0.156032
H122	H	0.702529	0.284464	-0.212990
H123	H	-0.058926	-0.243628	0.000062
N124	N	0.213584	-0.345084	0.000071
H125	H	0.181451	-0.392941	0.000075
H126	H	0.237929	-0.348854	0.057040
N127	N	-0.176339	-0.261767	0.000061
H128	H	-0.201283	-0.264732	-0.056906
H129	H	-0.201255	-0.264681	0.057071
N130	N	0.578628	0.292233	-0.083282
H131	H	0.597495	0.316931	-0.141454
H132	H	0.537679	0.305171	-0.080919
N133	N	0.576633	0.452491	0.082596
H134	H	0.574394	0.515127	0.080437
H135	H	0.596846	0.438088	0.141003
N136	N	0.578394	0.292955	0.083519
H137	H	0.563415	0.339375	0.120234
H138	H	0.604967	0.263325	0.123437
H139	H	0.680475	0.463298	0.153486
H140	H	0.748598	0.477814	0.091868
H141	H	0.750838	0.334823	0.091076
H142	H	0.683103	0.320001	0.153119
