data_functionalizedCrystal
_audit_creation_method	'MofGen! by Chris Wilmer'
_symmetry_space_group_name_H-M	'P1'
_symmetry_Int_Tables_number	1
_symmetry_cell_setting	triclinic
loop_
_symmetry_equiv_pos_as_xyz
  x,y,z
_cell_length_a	23.532407
_cell_length_b	14.971506
_cell_length_c	22.610064
_cell_angle_alpha	89.991454
_cell_angle_beta	89.999397
_cell_angle_gamma	83.235533
loop_
_atom_site_label
_atom_site_type_symbol
_atom_site_fract_x
_atom_site_fract_y
_atom_site_fract_z
O1	O	0.074262	1.186155	-0.049195
O2	O	0.574262	1.686155	0.450805
O3	O	0.083138	0.925664	-0.049196
O4	O	0.583138	1.425664	0.450804
O5	O	-0.004198	1.063765	-0.049185
O6	O	0.495802	1.563765	0.450815
O7	O	0.161598	1.048054	-0.049206
O8	O	0.661598	1.548054	0.450794
O9	O	-0.004185	1.063740	0.049185
O10	O	0.495815	1.563740	0.549185
O11	O	0.083150	0.925639	0.049173
O12	O	0.583150	1.425639	0.549173
O13	O	0.074275	1.186131	0.049174
O14	O	0.574275	1.686131	0.549174
Zn15	Zn	0.078715	1.055881	0.064792
Zn16	Zn	0.578715	1.555881	0.564792
Zn17	Zn	0.078698	1.055913	-0.064814
Zn18	Zn	0.578698	1.555913	0.435186
O19	O	0.161610	1.048030	0.049163
O20	O	0.661610	1.548030	0.549163
C21	C	0.082745	0.892331	-0.000011
C22	C	0.582745	1.392331	0.499989
C23	C	0.081549	0.793048	-0.000011
C24	C	0.581549	1.293048	0.499989
C25	C	-0.025409	1.063352	0.000002
C26	C	0.474591	1.563352	0.500002
C27	C	-0.088631	1.062149	0.000006
C28	C	0.411369	1.562149	0.500006
C29	C	0.128294	0.354271	-0.000023
C30	C	0.628294	0.854271	0.499977
C31	C	0.129413	0.447560	-0.000026
C32	C	0.629413	0.947560	0.499974
C33	C	0.078101	0.505322	-0.000017
C34	C	0.578101	1.005322	0.499983
C35	C	0.025665	0.469791	-0.000011
C36	C	0.525665	0.969791	0.499989
C37	C	0.024547	0.376505	-0.000012
C38	C	0.524547	0.876505	0.499988
C39	C	0.028000	0.664230	-0.000006
C40	C	0.528000	1.164230	0.499994
C41	C	0.029118	0.757523	-0.000003
C42	C	0.529118	1.257523	0.499997
C43	C	0.132867	0.735285	-0.000020
C44	C	0.632867	1.235285	0.499980
C45	C	0.131748	0.641998	-0.000022
C46	C	0.631748	1.141998	0.499978
C47	C	0.079313	0.606474	-0.000014
C48	C	0.579313	1.106474	0.499986
C49	C	-0.487413	1.136330	-0.000026
C50	C	0.012587	1.636330	0.499974
C51	C	-0.546818	1.135213	-0.000031
C52	C	-0.046818	1.635213	0.499969
O53	O	-0.583265	1.203980	-0.000052
O54	O	-0.083265	1.703980	0.499948
N55	N	-0.569800	1.053112	-0.000030
N56	N	-0.069800	1.553112	0.499970
C57	C	-0.533373	0.972123	-0.000032
C58	C	-0.033373	1.472123	0.499968
O59	O	-0.558375	0.902188	-0.000033
O60	O	-0.058375	1.402188	0.499967
C61	C	-0.473969	0.973242	-0.000032
C62	C	0.026031	1.473242	0.499968
C63	C	-0.450991	1.055348	-0.000026
C64	C	0.049009	1.555348	0.499974
C65	C	-0.464435	1.218430	-0.000021
C66	C	0.035565	1.718430	0.499979
C67	C	-0.405034	1.219547	-0.000015
C68	C	0.094966	1.719547	0.499985
C69	C	-0.368611	1.138564	-0.000015
C70	C	0.131389	1.638564	0.499985
C71	C	-0.391590	1.056465	-0.000020
C72	C	0.108410	1.556465	0.499980
C73	C	-0.437543	0.892254	-0.000037
C74	C	0.062457	1.392254	0.499963
C75	C	-0.378136	0.893379	-0.000037
C76	C	0.121864	1.393379	0.499963
C77	C	-0.355158	0.975485	-0.000032
C78	C	0.144842	1.475485	0.499968
C79	C	-0.295767	0.976599	-0.000014
C80	C	0.204233	1.476599	0.499986
N81	N	-0.272785	1.058700	-0.000014
N82	N	0.227215	1.558700	0.499986
C83	C	-0.309207	1.139683	-0.000015
C84	C	0.190793	1.639683	0.499985
C85	C	-0.658126	0.969781	-0.000033
C86	C	-0.158126	1.469781	0.499967
C87	C	-0.717528	0.968662	-0.000030
C88	C	-0.217528	1.468662	0.499970
C89	C	-0.730970	1.131752	-0.000029
C90	C	-0.230970	1.631752	0.499971
C91	C	-0.671566	1.132870	-0.000029
C92	C	-0.171566	1.632870	0.499971
C93	C	-0.635144	1.051882	-0.000034
C94	C	-0.135144	1.551882	0.499966
C95	C	-0.184461	1.142022	-0.000002
C96	C	0.315539	1.642022	0.499998
C97	C	-0.125054	1.143132	0.000006
C98	C	0.374946	1.643132	0.500006
C99	C	-0.111618	0.980042	0.000002
C100	C	0.388382	1.480042	0.500002
C101	C	-0.171019	0.978932	-0.000003
C102	C	0.328981	1.478932	0.499997
C103	C	-0.207440	1.059929	-0.000007
C104	C	0.292560	1.559929	0.499993
O105	O	-0.259285	0.907869	0.000005
O106	O	0.240715	1.407869	0.500005
O107	O	-0.284197	1.209607	-0.000022
O108	O	0.215803	1.709607	0.499978
C109	C	0.182822	1.048442	-0.000025
C110	C	0.682822	1.548442	0.499975
C111	C	0.246044	1.049645	-0.000033
C112	C	0.746044	1.549645	0.499967
C113	C	0.074668	1.219463	-0.000012
C114	C	0.574668	1.719463	0.499988
C115	C	0.075863	1.318747	-0.000016
C116	C	0.575863	1.818747	0.499984
N117	N	0.078726	1.055866	0.153244
N118	N	0.578726	1.555866	0.653244
N119	N	0.078682	1.055936	-0.153266
N120	N	0.578682	1.555936	0.346734
C121	C	0.040032	1.117067	0.561891
C122	C	0.540032	1.617067	1.061891
C123	C	0.040028	1.117072	0.623811
C124	C	0.540028	1.617072	1.123811
O125	O	0.007137	1.169069	0.655834
O126	O	0.507137	1.669069	1.155834
N127	N	0.078686	1.055913	0.654782
N128	N	0.578686	1.555913	1.154782
C129	C	0.117347	0.994739	0.623829
C130	C	0.617347	1.494739	1.123829
O131	O	0.150229	0.942718	0.655858
O132	O	0.650229	1.442718	1.155858
C133	C	0.117348	0.994731	0.561910
C134	C	0.617348	1.494731	1.061910
C135	C	0.078691	1.055900	0.530943
C136	C	0.578691	1.555900	1.030943
C137	C	0.001377	1.178230	0.530923
C138	C	0.501377	1.678230	1.030923
C139	C	0.001382	1.178227	0.469008
C140	C	0.501382	1.678227	0.969008
C141	C	0.040042	1.117060	0.438060
C142	C	0.540042	1.617060	0.938060
C143	C	0.078696	1.055896	0.469027
C144	C	0.578696	1.555896	0.969027
C145	C	0.156006	0.933554	0.530959
C146	C	0.656006	1.433554	1.030959
C147	C	0.156004	0.933550	0.469036
C148	C	0.656004	1.433550	0.969036
C149	C	0.117347	0.994719	0.438069
C150	C	0.617347	1.494719	0.938069
C151	C	0.117361	0.994725	0.376164
C152	C	0.617361	1.494725	0.876164
N153	N	0.078702	1.055884	0.345193
N154	N	0.578702	1.555884	0.845193
C155	C	0.040043	1.117051	0.376141
C156	C	0.540043	1.617051	0.876141
C157	C	0.117342	0.994760	0.753863
C158	C	0.617342	1.494760	1.253863
C159	C	0.117344	0.994771	0.815780
C160	C	0.617344	1.494771	1.315780
C161	C	0.040023	1.117103	0.815758
C162	C	0.540023	1.617103	1.315758
C163	C	0.040024	1.117095	0.753839
C164	C	0.540024	1.617095	1.253839
C165	C	0.078683	1.055919	0.722892
C166	C	0.578683	1.555919	1.222892
C167	C	0.040056	1.117040	0.246113
C168	C	0.540056	1.617040	0.746113
C169	C	0.040066	1.117033	0.184192
C170	C	0.540066	1.617033	0.684192
C171	C	0.117385	0.994698	0.184221
C172	C	0.617385	1.494698	0.684221
C173	C	0.117377	0.994708	0.246136
C174	C	0.617377	1.494708	0.746136
C175	C	0.078708	1.055882	0.277081
C176	C	0.578708	1.555882	0.777081
O177	O	0.150233	0.942752	0.344101
O178	O	0.650233	1.442752	0.844101
O179	O	0.007162	1.169055	0.344104
O180	O	0.507162	1.669055	0.844104
H181	H	0.170080	0.307247	-0.000027
H182	H	0.670080	0.807247	0.499973
O183	O	-0.040320	1.244189	0.435609
O184	O	0.459680	1.744189	0.935609
H185	H	-0.067204	1.286710	0.467540
H186	H	0.432796	1.786710	0.967540
O187	O	0.159043	0.928782	0.720481
O188	O	0.659043	1.428782	1.220481
H189	H	0.203451	0.939790	0.732361
H190	H	0.703451	1.439790	1.232361
O191	O	-0.072325	0.892702	0.000001
O192	O	0.427675	1.392702	0.500001
H193	H	-0.080497	0.853372	0.040094
H194	H	0.419503	1.353372	0.540094
H195	H	0.187484	0.883744	0.556164
H196	H	0.687484	1.383744	1.056164
O197	O	0.189425	0.773591	-0.000034
O198	O	0.689425	1.273591	0.499966
H199	H	0.181584	0.848163	-0.000040
H200	H	0.681584	1.348163	0.499960
H201	H	0.148863	0.944899	0.159013
H202	H	0.648863	1.444899	0.659013
O203	O	-0.100273	1.231696	0.000002
O204	O	0.399727	1.731696	0.500002
H205	H	-0.114906	1.270580	0.040091
H206	H	0.385094	1.770580	0.540091
O207	O	-0.028554	0.625909	0.000007
O208	O	0.471446	1.125909	0.500007
H209	H	-0.064048	0.681745	0.000022
H210	H	0.435952	1.181745	0.500022
O211	O	-0.029680	0.532091	0.000006
O212	O	0.470320	1.032091	0.500006
H213	H	-0.031659	0.575147	-0.040082
H214	H	0.468341	1.075147	0.459918
H215	H	0.187484	0.883730	0.443842
H216	H	0.687484	1.383730	0.943842
O217	O	0.159071	0.928737	0.279543
O218	O	0.659071	1.428737	0.779543
H219	H	0.185952	0.886201	0.247618
H220	H	0.685952	1.386201	0.747618
H221	H	-0.652862	1.199728	-0.000025
H222	H	-0.152862	1.699728	0.499975
O223	O	-0.380252	1.308104	-0.000015
O224	O	0.119748	1.808104	0.499985
H225	H	-0.353506	1.312519	-0.040107
H226	H	0.146494	1.812519	0.459893
O227	O	-0.032003	0.338181	0.000002
O228	O	0.467997	0.838181	0.500002
H229	H	-0.067497	0.394017	0.000016
H230	H	0.432503	0.894017	0.500016
O231	O	-0.338853	0.806024	-0.000041
O232	O	0.161147	1.306024	0.499959
H233	H	-0.311467	0.802622	0.040053
H234	H	0.188533	1.302622	0.540053
H235	H	0.172108	0.476479	-0.000038
H236	H	0.672108	0.976479	0.499962
H237	H	-0.494085	1.284380	-0.000023
H238	H	0.005915	1.784380	0.499977
H239	H	0.173532	0.594970	-0.000025
H240	H	0.673532	1.094970	0.499975
H241	H	-0.012665	0.804551	-0.000001
H242	H	0.487335	1.304551	0.499999
O243	O	-0.223739	1.229380	0.000002
O244	O	0.276261	1.729380	0.500002
H245	H	-0.197772	1.286650	0.000013
H246	H	0.302228	1.786650	0.500013
O247	O	-0.770259	1.219103	-0.000036
O248	O	-0.270259	1.719103	0.499964
H249	H	-0.815425	1.204524	-0.000044
H250	H	-0.315425	1.704524	0.499956
H251	H	0.008544	1.166908	0.840967
H252	H	0.508544	1.666908	1.340967
O253	O	-0.001639	1.182996	0.150791
O254	O	0.498361	1.682996	0.650791
H255	H	0.022376	1.226259	0.122576
H256	H	0.522376	1.726259	0.622576
H257	H	-0.030106	1.228040	0.556116
H258	H	0.469894	1.728040	1.056116
O259	O	-0.742310	0.880106	-0.000028
O260	O	-0.242310	1.380106	0.499972
H261	H	-0.706998	0.823986	-0.000030
H262	H	-0.206998	1.323986	0.499970
O263	O	0.159059	0.928818	0.849171
O264	O	0.659059	1.428818	1.349171
H265	H	0.151735	0.859155	0.837299
H266	H	0.651735	1.359155	1.337299
O267	O	-0.618842	0.882425	-0.000023
O268	O	-0.118842	1.382425	0.499977
H269	H	-0.644808	0.825153	-0.000015
H270	H	-0.144808	1.325153	0.499985
H271	H	-0.456241	0.825394	-0.000046
H272	H	0.043759	1.325394	0.499954
H273	H	-0.189729	0.912075	0.000009
H274	H	0.310271	1.412075	0.500009
O275	O	-0.001642	1.183029	0.279486
O276	O	0.498358	1.683029	0.779486
H277	H	-0.028512	1.225561	0.247542
H278	H	0.471488	1.725561	0.747542
O279	O	-0.001675	1.183060	0.720439
O280	O	0.498325	1.683060	1.220439
H281	H	-0.028557	1.225587	0.752367
H282	H	0.471443	1.725587	1.252367
