data_functionalizedCrystal
_audit_creation_method	'MofGen! by Chris Wilmer'
_symmetry_space_group_name_H-M	'P1'
_symmetry_Int_Tables_number	1
_symmetry_cell_setting	triclinic
loop_
_symmetry_equiv_pos_as_xyz
  x,y,z
_cell_length_a	6.817900
_cell_length_b	23.752963
_cell_length_c	13.212942
_cell_angle_alpha	90.520383
_cell_angle_beta	106.298313
_cell_angle_gamma	100.066732
loop_
_atom_site_label
_atom_site_type_symbol
_atom_site_fract_x
_atom_site_fract_y
_atom_site_fract_z
V1	V	-4.029542	-0.062298	-0.326008
V2	V	-3.529542	0.437702	0.173992
O3	O	-4.034214	0.020314	-0.319172
O4	O	-3.534214	0.520314	0.180828
O5	O	-3.964487	-0.140186	-0.324385
O6	O	-3.464487	0.359814	0.175615
O7	O	-3.989906	-0.053740	-0.467915
O8	O	-3.489906	0.446260	0.032085
O9	O	-4.008618	-0.066730	-0.174648
O10	O	-3.508618	0.433270	0.325352
V11	V	-4.514192	-0.053315	-0.307831
V12	V	-4.014192	0.446685	0.192169
O13	O	-4.288327	-0.082004	-0.365882
O14	O	-3.788327	0.417996	0.134118
O15	O	-4.705605	-0.033609	-0.267957
O16	O	-4.205605	0.466391	0.232043
O17	O	-4.356041	0.024572	-0.309454
O18	O	-3.856041	0.524572	0.190546
O19	O	-4.626918	-0.135928	-0.314667
O20	O	-4.126918	0.364072	0.185333
O21	O	-4.652513	-0.048884	-0.459191
O22	O	-4.152513	0.451116	0.040809
O23	O	-4.330622	-0.061873	-0.165924
O24	O	-3.830622	0.438127	0.334076
C25	C	-3.805152	-0.159410	-0.319398
C26	C	-3.305152	0.340590	0.180602
C27	C	-3.833307	-0.223035	-0.319017
C28	C	-3.333307	0.276965	0.180983
C29	C	-3.837576	-0.049140	-0.502484
C30	C	-3.337576	0.450860	-0.002484
C31	C	-3.886343	-0.042658	-0.618498
C32	C	-3.386343	0.457342	-0.118498
C33	C	-3.925067	0.018081	-0.766700
C34	C	-3.425067	0.518081	-0.266700
C35	C	-3.879237	0.011992	-0.657695
C36	C	-3.379237	0.511992	-0.157695
C37	C	-3.939290	-0.091222	-0.688316
C38	C	-3.439290	0.408778	-0.188316
C39	C	-3.985119	-0.085133	-0.797321
C40	C	-3.485119	0.414867	-0.297321
C41	C	-3.978002	-0.030479	-0.836509
C42	C	-3.478002	0.469521	-0.336509
C43	C	-4.023819	-0.024390	-0.945517
C44	C	-3.523819	0.475610	-0.445517
C45	C	-4.083884	-0.127605	-0.976136
C46	C	-3.583884	0.372395	-0.476136
C47	C	-4.038055	-0.133694	-0.867130
C48	C	-3.538055	0.366306	-0.367130
C49	C	-3.963800	-0.614352	-0.220902
C50	C	-3.463800	-0.114352	0.279098
C51	C	-3.990277	-0.674134	-0.220529
C52	C	-3.490277	-0.174134	0.279471
O53	O	-3.966408	-0.702313	-0.139006
O54	O	-3.466408	-0.202313	0.360994
N55	N	-4.047758	-0.707257	-0.315980
N56	N	-3.547758	-0.207257	0.184020
C57	C	-4.078784	-0.680594	-0.411811
C58	C	-3.578784	-0.180594	0.088189
O59	O	-4.130110	-0.714257	-0.492965
O60	O	-3.630110	-0.214257	0.007035
C61	C	-4.052322	-0.620814	-0.412183
C62	C	-3.552322	-0.120814	0.087817
C63	C	-3.994819	-0.587694	-0.316725
C64	C	-3.494819	-0.087694	0.183275
C65	C	-3.906303	-0.581232	-0.125451
C66	C	-3.406303	-0.081232	0.374549
C67	C	-3.879824	-0.521454	-0.125825
C68	C	-3.379824	-0.021454	0.374175
C69	C	-3.910843	-0.494796	-0.221648
C70	C	-3.410843	0.005204	0.278352
C71	C	-3.968340	-0.527915	-0.317098
C72	C	-3.468340	-0.027915	0.182902
C73	C	-4.083362	-0.594153	-0.508014
C74	C	-3.583362	-0.094153	-0.008014
C75	C	-4.056895	-0.534367	-0.508378
C76	C	-3.556895	-0.034367	-0.008378
C77	C	-3.999392	-0.501247	-0.412920
C78	C	-3.499392	-0.001247	0.087080
C79	C	-3.972879	-0.441479	-0.413295
C80	C	-3.472879	0.058521	0.086705
N81	N	-3.915398	-0.408356	-0.317844
N82	N	-3.415398	0.091644	0.182156
C83	C	-3.884380	-0.435015	-0.222020
C84	C	-3.384380	0.064985	0.277980
C85	C	-4.134358	-0.806138	-0.411022
C86	C	-3.634358	-0.306138	0.088978
C87	C	-4.160807	-0.865918	-0.410650
C88	C	-3.660807	-0.365918	0.089350
C89	C	-4.072301	-0.859454	-0.219368
C90	C	-3.572301	-0.359454	0.280632
C91	C	-4.045838	-0.799673	-0.219740
C92	C	-3.545838	-0.299673	0.280260
C93	C	-4.076877	-0.773016	-0.315571
C94	C	-3.576877	-0.273016	0.184429
C95	C	-3.828774	-0.309477	-0.222812
C96	C	-3.328774	0.190523	0.277188
C97	C	-3.802289	-0.249693	-0.223193
C98	C	-3.302289	0.250307	0.276807
C99	C	-3.890807	-0.256163	-0.414475
C100	C	-3.390807	0.243837	0.085525
C101	C	-3.917280	-0.315941	-0.414094
C102	C	-3.417280	0.184059	0.085906
C103	C	-3.886265	-0.342596	-0.318254
C104	C	-3.386265	0.157404	0.181746
O105	O	-3.996721	-0.413261	-0.494777
O106	O	-3.496721	0.086739	0.005223
O107	O	-3.833084	-0.401346	-0.140880
O108	O	-3.333084	0.098654	0.359120
C109	C	-4.178717	0.043794	-0.314438
C110	C	-3.678717	0.543794	0.185562
C111	C	-4.129801	0.107418	-0.314826
C112	C	-3.629801	0.607418	0.185174
C113	C	-4.146293	-0.066476	-0.131349
C114	C	-3.646293	0.433524	0.368651
C115	C	-4.076766	-0.072955	-0.015335
C116	C	-3.576766	0.427045	0.484665
H117	H	-4.018030	0.020111	-0.977421
H118	H	-3.518030	0.520111	-0.477421
H119	H	-4.130185	-0.621109	-0.585746
H120	H	-3.630185	-0.121109	-0.085746
F121	F	-4.140136	-0.179288	-1.050438
F122	F	-3.640136	0.320712	-0.550438
F123	F	-4.039294	-0.887836	-0.117383
F124	F	-3.539294	-0.387836	0.382617
H125	H	-3.916047	-0.234447	-0.492492
H126	H	-3.416047	0.265553	0.007508
F127	F	-3.818640	-0.486213	-0.024225
F128	F	-3.318640	0.013787	0.475775
H129	H	-4.207596	-0.892879	-0.488381
H130	H	-3.707596	-0.392879	0.011619
F131	F	-3.873287	-0.609595	-0.023454
F132	F	-3.373287	-0.109595	0.476546
H133	H	-3.919276	0.062583	-0.798608
H134	H	-3.419276	0.562583	-0.298608
F135	F	-3.822903	0.063677	-0.583402
F136	F	-3.322903	0.563677	-0.083402
H137	H	-3.755457	-0.222729	-0.145456
H138	H	-3.255457	0.277271	0.354544
F139	F	-4.167379	-0.777773	-0.513024
F140	F	-3.667379	-0.277773	-0.013024
H141	H	-3.803516	-0.331172	-0.144769
H142	H	-3.303516	0.168828	0.355231
F143	F	-3.946889	-0.149384	-0.646591
F144	F	-3.446889	0.350616	-0.146591
F145	F	-4.045633	-0.191857	-0.825412
F146	F	-3.545633	0.308143	-0.325412
H147	H	-3.999014	-0.772710	-0.142009
H148	H	-3.499014	-0.272710	0.357991
H149	H	-4.082197	-0.512667	-0.586417
H150	H	-3.582197	-0.012667	-0.086417
H151	H	-3.964069	-0.342908	-0.491823
H152	H	-3.464069	0.157092	0.008177
