data_functionalizedCrystal
_audit_creation_method	'MofGen! by Chris Wilmer'
_symmetry_space_group_name_H-M	'P1'
_symmetry_Int_Tables_number	1
_symmetry_cell_setting	triclinic
loop_
_symmetry_equiv_pos_as_xyz
  x,y,z
_cell_length_a	17.699083
_cell_length_b	16.098538
_cell_length_c	17.699083
_cell_angle_alpha	87.283618
_cell_angle_beta	83.283015
_cell_angle_gamma	92.727089
loop_
_atom_site_label
_atom_site_type_symbol
_atom_site_fract_x
_atom_site_fract_y
_atom_site_fract_z
O1	O	1.007465	0.069141	0.092328
O2	O	0.787088	0.069168	0.104779
O3	O	0.903503	0.069146	-0.011635
O4	O	0.891051	0.069163	0.208743
O5	O	0.896702	-0.069365	-0.004861
O6	O	0.780288	-0.069343	0.111553
O7	O	1.000665	-0.069371	0.099102
Zn8	Zn	0.889397	-0.091349	0.106403
Zn9	Zn	0.898356	0.091146	0.097478
O10	O	0.884251	-0.069349	0.215516
C11	C	0.755491	-0.000084	0.107720
C12	C	0.671474	-0.000074	0.106381
N13	N	0.883287	-0.215897	0.112493
C14	C	0.622853	-0.000069	0.174714
C15	C	0.543909	-0.000080	0.173452
C16	C	0.513588	-0.000090	0.103856
C17	C	0.562215	-0.000097	0.035518
C18	C	0.641157	-0.000092	0.036781
C19	C	0.243851	-0.000118	0.030424
C20	C	0.164902	-0.000120	0.029166
C21	C	0.146603	-0.000106	0.167095
C22	C	0.225545	-0.000101	0.168358
C23	C	0.274165	-0.000113	0.100020
C24	C	0.359764	-0.000102	0.101389
C25	C	0.427990	-0.000094	0.102486
C26	C	0.932716	-0.259491	0.063100
C27	C	0.928450	-0.346679	0.067368
C28	C	0.874757	-0.390272	0.121033
C29	C	0.825323	-0.346671	0.170429
C30	C	0.829587	-0.259485	0.166157
C31	C	0.859301	-0.653519	0.136506
C32	C	0.855043	-0.740711	0.140775
C33	C	0.958169	-0.740714	0.037713
C34	C	0.962431	-0.653525	0.033449
C35	C	0.912994	-0.609933	0.082842
C36	C	0.870396	-0.479392	0.125398
C37	C	0.917352	-0.520814	0.078473
C38	C	1.032262	-0.000117	0.096161
C39	C	1.116280	-0.000122	0.097500
C40	C	0.899656	-0.000110	-0.036445
C41	C	0.898318	-0.000110	-0.120463
N42	N	0.904472	0.215694	0.091382
C43	C	0.966651	-0.000119	-0.169084
C44	C	0.965389	-0.000112	-0.248027
C45	C	0.895793	-0.000101	-0.278349
C46	C	0.827455	-0.000088	-0.229722
C47	C	0.828718	-0.000090	-0.150780
C48	C	0.822360	-0.000081	-0.548086
C49	C	0.821102	-0.000082	-0.627034
C50	C	0.959031	-0.000103	-0.645333
C51	C	0.960294	-0.000105	-0.566391
C52	C	0.891956	-0.000088	-0.517771
C53	C	0.893326	-0.000095	-0.432172
C54	C	0.894422	-0.000100	-0.363946
C55	C	0.888097	-0.000091	0.240326
C56	C	0.889436	-0.000086	0.324344
H57	H	0.647534	-0.000061	0.231387
H58	H	0.250228	-0.000089	0.225030
Cl59	Cl	1.000223	-0.204699	-0.004365
Cl60	Cl	0.742810	-0.000075	-0.089657
Cl61	Cl	0.126786	-0.000133	-0.058333
H62	H	1.016966	-0.000118	-0.541708
Cl63	Cl	1.044943	-0.000120	-0.706459
Cl64	Cl	0.524096	-0.000114	-0.051975
H65	H	0.764425	-0.000074	-0.651717
H66	H	1.021032	-0.000122	-0.287612
H67	H	0.961066	-0.485319	0.034775
H68	H	0.968698	-0.382174	0.027147
Cl69	Cl	1.029932	-0.598724	-0.034016
Cl70	Cl	1.020312	-0.795520	-0.024380
Cl71	Cl	0.736450	-0.000058	-0.486974
H72	H	0.789335	-0.223991	0.206377
Cl73	Cl	0.787538	-0.795507	0.208248
H74	H	0.770789	-0.000074	-0.254416
H75	H	0.680744	-0.000096	-0.018863
H76	H	0.107007	-0.000101	0.222739
Cl77	Cl	0.797157	-0.598722	0.198601
H78	H	0.504325	-0.000075	0.229096
H79	H	0.283428	-0.000128	-0.025221
H80	H	0.826680	-0.514892	0.169095
Cl81	Cl	0.757819	-0.401471	0.237891
H82	H	1.023323	-0.000134	-0.144403
