data_functionalizedCrystal
_audit_creation_method	'MofGen! by Chris Wilmer'
_symmetry_space_group_name_H-M	'P1'
_symmetry_Int_Tables_number	1
_symmetry_cell_setting	triclinic
loop_
_symmetry_equiv_pos_as_xyz
  x,y,z
_cell_length_a	23.196402
_cell_length_b	14.395555
_cell_length_c	23.196401
_cell_angle_alpha	90.015017
_cell_angle_beta	60.008822
_cell_angle_gamma	60.000171
loop_
_atom_site_label
_atom_site_type_symbol
_atom_site_fract_x
_atom_site_fract_y
_atom_site_fract_z
Zr1	Zr	0.630974	0.894913	-0.075598
O2	O	0.751245	0.746552	-0.167649
O3	O	0.510707	0.940390	-0.047383
O4	O	0.630974	0.940349	-0.167648
O5	O	0.630976	0.746630	0.047487
O6	O	0.630970	1.093223	-0.167643
O7	O	0.630978	0.746593	-0.047384
O8	O	0.415834	1.093296	0.047490
O9	O	0.846112	0.746557	-0.167645
O10	O	0.560170	1.073878	-0.035341
O11	O	0.560172	0.959817	0.035456
O12	O	0.701771	0.959768	-0.106140
O13	O	0.701773	0.845708	-0.035343
Zr14	Zr	0.630965	1.138788	0.075719
Zr15	Zr	0.630967	1.138730	-0.075590
Zr16	Zr	0.630972	0.894971	0.075711
Zr17	Zr	0.782276	0.894920	-0.075591
Zr18	Zr	0.479662	1.138781	0.075713
O19	O	0.751232	1.093311	0.047504
O20	O	0.751235	1.093228	-0.167638
O21	O	0.751241	0.746635	0.047493
O22	O	0.510694	1.287148	0.167771
O23	O	0.510697	1.287065	-0.047371
O24	O	0.510704	0.940473	0.167759
O25	O	0.630962	1.287071	-0.047366
O26	O	0.630965	1.093352	0.167769
O27	O	0.630969	0.940478	0.167764
O28	O	0.630961	1.287107	0.047505
O29	O	0.846107	0.940358	-0.167639
O30	O	0.415832	1.093343	0.167760
O31	O	0.415827	1.287144	0.167766
O32	O	0.415828	1.287098	0.047496
O33	O	0.846110	0.746603	-0.047375
O34	O	0.846105	0.940405	-0.047368
O35	O	0.560168	1.073932	0.106262
O36	O	0.560166	1.187993	0.035464
O37	O	0.701767	1.073884	-0.035335
O38	O	0.701769	0.959823	0.035463
C39	C	0.441713	1.016842	0.000053
C40	C	0.377481	1.016839	0.000050
C41	C	0.630978	0.711873	0.000051
C42	C	0.630981	0.608367	0.000047
C43	C	0.347310	1.076370	-0.036908
C44	C	0.286949	1.076381	-0.036903
C45	C	0.256773	1.016839	0.000052
C46	C	0.286948	0.957306	0.037018
C47	C	0.347303	0.957306	0.037017
C48	C	0.194747	0.917084	-0.005226
C49	C	0.134397	0.917081	-0.005230
C50	C	0.070618	1.016840	0.000059
C51	C	0.067204	1.116602	0.005338
C52	C	0.127558	1.116602	0.005337
C53	C	0.191329	1.016833	0.000057
C54	C	-0.025004	1.076388	-0.036895
C55	C	-0.085370	1.076403	-0.036884
C56	C	-0.085363	0.957316	0.037032
C57	C	-0.025005	0.957313	0.037026
C58	C	0.005174	1.016847	0.000058
C59	C	0.708188	0.485560	-0.038550
C60	C	0.669593	0.454712	-0.066525
C61	C	0.669573	0.454791	0.028018
C62	C	0.592385	0.578882	-0.027967
C63	C	0.592376	0.578958	0.066612
C64	C	0.553725	0.548183	0.038653
C65	C	0.820226	1.016859	0.000069
C66	C	0.884457	1.016862	0.000072
C67	C	0.630972	1.016777	-0.189204
C68	C	0.630973	1.016753	-0.253438
C69	C	0.630961	1.321828	0.000071
C70	C	0.630958	1.425334	0.000074
C71	C	0.704885	0.957194	-0.320568
C72	C	0.704886	0.957223	-0.380923
C73	C	0.630971	1.016795	-0.374145
C74	C	0.557049	1.076366	-0.307003
C75	C	0.557050	1.076345	-0.246650
C76	C	0.574343	1.008333	-0.441464
C77	C	0.574346	1.008346	-0.501818
C78	C	0.630965	1.016867	-0.560292
C79	C	0.687596	1.025352	-0.558412
C80	C	0.687597	1.025331	-0.498059
C81	C	0.630962	1.016825	-0.439583
C82	C	0.704883	0.957337	-0.692868
C83	C	0.704881	0.957374	-0.753223
C84	C	0.557042	1.076510	-0.679301
C85	C	0.557046	1.076480	-0.618948
C86	C	0.630969	1.016888	-0.625737
C87	C	0.630966	1.016923	0.189325
C88	C	0.630965	1.016948	0.253560
C89	C	0.441704	1.321819	0.000063
C90	C	0.377470	1.425323	0.000063
C91	C	0.441710	1.016915	0.189317
C92	C	0.377477	1.016937	0.253549
C93	C	0.441702	1.321892	0.189327
C94	C	0.377466	1.425421	0.253562
C95	C	0.820237	0.711809	-0.189206
C96	C	0.884473	0.608280	-0.253441
C97	C	0.820234	0.711881	0.000059
C98	C	0.884469	0.608378	0.000058
C99	C	0.820228	1.016786	-0.189196
C100	C	0.884461	1.016764	-0.253427
C101	C	0.347307	1.414362	-0.036902
C102	C	0.286960	1.511606	-0.036916
C103	C	0.256773	1.619809	0.000041
C104	C	0.286942	1.630767	0.037008
C105	C	0.347292	1.533525	0.037016
C106	C	0.347311	1.076514	0.320679
C107	C	0.286966	1.076531	0.381037
C108	C	0.256784	1.016975	0.374264
C109	C	0.286957	0.957391	0.307127
C110	C	0.347305	0.957368	0.246770
C111	C	0.347299	1.533588	0.246772
C112	C	0.286951	1.630873	0.307122
C113	C	0.256767	1.619989	0.374262
C114	C	0.286940	1.511811	0.381050
C115	C	0.347291	1.414528	0.320701
C116	C	0.914647	0.500113	-0.246651
C117	C	0.975014	0.402828	-0.307001
C118	C	1.005201	0.413712	-0.374140
C119	C	0.975024	0.521890	-0.380929
C120	C	0.914663	0.619173	-0.320580
C121	C	0.914638	0.619338	0.037017
C122	C	0.975002	0.522095	0.037014
C123	C	1.005191	0.413892	0.000055
C124	C	0.975019	0.402934	-0.036908
C125	C	0.914661	0.500176	-0.036909
C126	C	0.914624	1.076331	-0.246632
C127	C	0.974969	1.076332	-0.306979
C128	C	1.005155	1.016760	-0.374121
C129	C	0.974987	0.957191	-0.380915
C130	C	0.914639	0.957197	-0.320569
H131	H	0.371877	1.124849	-0.067007
H132	H	0.890095	0.707245	-0.326117
H133	H	0.207625	1.699212	0.423396
Br134	Br	1.087121	0.281672	-0.456037
H135	H	0.890063	0.707434	0.067118
Br136	Br	0.723982	0.365626	0.067426
H137	H	0.262406	1.125056	0.435697
Br138	Br	0.873720	0.485280	-0.087070
Br139	Br	0.245967	1.497059	0.472174
Br140	Br	0.245987	0.876571	0.297947
Br141	Br	0.281301	0.781685	-0.012403
H142	H	0.773474	0.460107	-0.071239
Br143	Br	0.174882	1.017017	0.456186
H144	H	0.702224	0.401174	-0.122807
H145	H	0.999558	0.531040	0.067117
Br146	Br	0.388254	1.157355	0.329890
Br147	Br	0.538059	0.667774	-0.067505
H148	H	0.371884	1.326267	-0.067006
H149	H	0.890087	0.908686	-0.326112
H150	H	0.262355	1.718879	0.067096
Br151	Br	0.245989	0.876512	0.087180
H152	H	0.371859	0.908857	0.192112
H153	H	0.207631	1.698980	0.000028
Br154	Br	0.444853	0.590843	0.093016
Br155	Br	0.388254	1.548391	0.155662
H156	H	0.999526	1.124838	-0.301433
H157	H	0.262390	1.718948	0.301582
Br158	Br	0.388221	1.267733	0.329929
Br159	Br	0.538034	0.668192	0.160401
Br160	Br	0.805208	0.876290	-0.329783
H161	H	1.054339	0.334720	0.000062
Br162	Br	1.016000	0.536642	-0.472053
H163	H	0.765076	0.908721	-0.435590
Br164	Br	0.764449	1.036845	-0.495507
H165	H	0.262378	1.124860	-0.067000
H166	H	0.890072	0.491229	-0.191988
H167	H	0.999573	0.314754	-0.301460
H168	H	0.999608	0.314822	-0.066999
Br169	Br	0.246027	1.496707	-0.087087
Br170	Br	0.873670	1.157188	-0.155518
H171	H	0.371843	1.542465	0.067122
H172	H	1.054295	1.016764	-0.423253
H173	H	0.733704	1.032285	-0.606025
H174	H	0.124773	1.197832	0.009637
Br175	Br	0.015951	1.157189	-0.087059
Br176	Br	-0.019345	1.251998	0.012510
Br177	Br	0.456726	1.157378	-0.670094
H178	H	-0.109940	1.124887	-0.066977
Br179	Br	-0.126311	0.876510	0.087187
Br180	Br	1.015970	0.876337	-0.472042
H181	H	0.137186	0.835848	-0.009532
Br182	Br	0.015945	0.876517	0.087186
H183	H	0.371869	0.908826	0.067113
Br184	Br	0.805200	0.876548	-0.844334
Br185	Br	0.805204	0.876492	-0.702076
H186	H	0.528236	1.001431	-0.503344
Br187	Br	0.456731	1.157290	-0.527838
H188	H	0.528237	1.001386	-0.393856
H189	H	0.496867	1.124871	-0.301488
Br190	Br	0.456733	1.157175	-0.155539
