data_functionalizedCrystal
_audit_creation_method	'MofGen! by Chris Wilmer'
_symmetry_space_group_name_H-M	'P1'
_symmetry_Int_Tables_number	1
_symmetry_cell_setting	triclinic
loop_
_symmetry_equiv_pos_as_xyz
  x,y,z
_cell_length_a	19.077105
_cell_length_b	15.297327
_cell_length_c	19.076919
_cell_angle_alpha	101.510342
_cell_angle_beta	90.076224
_cell_angle_gamma	97.818066
loop_
_atom_site_label
_atom_site_type_symbol
_atom_site_fract_x
_atom_site_fract_y
_atom_site_fract_z
Zn1	Zn	0.997096	-0.436205	-0.496821
Zn2	Zn	0.981405	-0.581179	-0.398060
Zn3	Zn	0.886008	-0.424127	-0.373052
Zn4	Zn	0.859303	-0.580636	-0.510742
O5	O	0.930953	-0.505537	-0.444669
O6	O	1.092606	-0.460719	-0.488360
O7	O	0.973359	-0.555519	-0.295787
O8	O	0.918487	-0.299557	-0.373179
O9	O	1.081077	-0.567231	-0.415800
O10	O	1.000103	-0.308431	-0.464111
O11	O	0.903272	-0.440133	-0.277414
O12	O	0.784875	-0.439605	-0.386678
O13	O	0.872972	-0.566304	-0.607851
O14	O	0.765254	-0.554592	-0.487838
O15	O	0.974208	-0.460192	-0.597623
O16	O	0.947464	-0.707279	-0.429299
O17	O	0.857757	-0.706880	-0.512086
C18	C	0.749760	-0.495730	-0.436055
C19	C	0.672241	-0.491557	-0.432390
C20	C	0.625617	-0.549547	-0.483277
C21	C	0.552781	-0.545614	-0.479834
C22	C	0.526571	-0.483695	-0.425502
C23	C	0.573201	-0.425698	-0.374613
C24	C	0.646036	-0.429627	-0.378058
C25	C	0.309833	-0.465511	-0.409558
C26	C	0.236992	-0.461589	-0.406115
C27	C	0.216578	-0.581504	-0.511338
C28	C	0.289415	-0.585431	-0.514776
C29	C	0.336039	-0.527431	-0.463889
N30	N	0.452121	-0.479676	-0.421981
N31	N	0.410488	-0.531447	-0.467414
C32	C	0.898028	-0.739796	-0.474933
C33	C	0.884005	-0.840018	-0.487907
C34	C	1.031451	-1.123247	-0.352197
C35	C	1.044626	-1.029084	-0.340004
C36	C	1.004472	-0.981812	-0.376979
C37	C	0.951141	-1.028714	-0.426149
C38	C	0.937961	-1.122886	-0.438339
C39	C	0.910982	-0.981452	-0.463121
C40	C	0.857651	-1.028353	-0.512291
C41	C	0.844474	-1.122517	-0.524480
C42	C	0.884628	-1.169788	-0.487505
C43	C	0.924162	-0.887280	-0.450930
C44	C	0.830672	-0.886919	-0.537073
C45	C	0.817497	-0.981082	-0.549266
C46	C	1.112853	-0.515383	-0.453317
C47	C	1.190368	-0.519579	-0.457002
C48	C	0.922362	-0.514535	-0.629112
C49	C	0.918700	-0.518369	-0.707711
C50	C	0.964025	-0.270365	-0.414303
C51	C	0.978118	-0.170148	-0.401362
C52	C	0.969686	-0.464926	-0.739314
C53	C	0.966238	-0.468525	-0.813165
C54	C	0.911807	-0.525572	-0.855413
C55	C	0.860816	-0.579017	-0.823806
C56	C	0.864262	-0.575413	-0.749955
C57	C	0.895847	-0.542271	-1.076853
C58	C	0.892406	-0.545873	-1.150709
C59	C	0.997828	-0.435379	-1.140063
C60	C	1.001271	-0.431784	-1.066212
C61	C	0.950279	-0.485225	-1.034610
N62	N	0.908282	-0.529254	-0.930901
N63	N	0.953801	-0.481538	-0.959123
C64	C	0.939560	-0.496511	-0.260936
C65	C	0.943392	-0.492430	-0.182311
H66	H	0.514822	-0.592837	-0.521271
H67	H	1.015202	-0.905140	-0.367047
O68	O	1.054180	-0.376475	-1.025144
C69	C	1.093991	-0.428130	-0.991160
H70	H	1.087316	-0.500459	-1.022792
H71	H	1.152279	-0.398345	-0.988634
H72	H	1.074574	-0.427355	-0.934577
H73	H	1.039343	-0.391869	-1.165801
O74	O	1.070495	-1.169023	-0.316199
C75	C	1.120408	-1.107441	-0.270203
H76	H	1.101355	-1.038680	-0.257688
H77	H	1.126671	-1.132357	-0.218374
H78	H	1.173558	-1.101490	-0.297351
H79	H	0.178609	-0.628722	-0.552768
O80	O	0.211652	-0.401354	-0.353306
C81	C	0.268420	-0.351018	-0.309120
H82	H	0.319427	-0.352163	-0.340148
H83	H	0.257699	-0.278468	-0.291496
H84	H	0.274036	-0.381720	-0.259987
H85	H	0.848079	-0.592330	-1.185107
H86	H	0.873905	-1.246463	-0.497431
H87	H	0.797974	-0.848431	-0.567180
H88	H	0.822738	-0.618923	-0.724225
H89	H	0.801040	-1.160700	-0.564509
O90	O	0.355175	-0.409304	-0.360108
C91	C	0.392215	-0.460581	-0.322966
H92	H	0.392375	-0.530759	-0.357169
H93	H	0.449030	-0.426130	-0.311205
H94	H	0.365193	-0.466319	-0.270491
O95	O	0.975923	-0.841818	-0.403086
C96	C	0.960781	-0.860604	-0.334856
H97	H	0.924468	-0.927482	-0.340951
H98	H	1.012166	-0.864968	-0.305993
H99	H	0.933467	-0.804554	-0.302451
H100	H	1.007757	-0.425008	-0.838892
O101	O	0.846268	-0.594260	-1.046279
C102	C	0.797476	-0.645359	-1.099404
H103	H	0.823154	-0.652616	-1.153807
H104	H	0.781021	-0.714947	-1.086878
H105	H	0.748800	-0.609838	-1.100485
H106	H	0.774074	-1.019283	-0.589301
H107	H	0.551855	-0.375279	-0.330377
H108	H	1.014012	-0.418475	-0.704920
H109	H	0.816495	-0.625463	-0.858210
H110	H	0.646951	-0.599971	-0.527518
O111	O	1.096339	-0.983480	-0.292160
C112	C	1.066415	-0.924686	-0.237535
H113	H	1.007716	-0.949940	-0.234196
H114	H	1.094363	-0.922333	-0.184198
H115	H	1.072968	-0.854245	-0.250040
O116	O	0.314758	-0.645605	-0.567621
C117	C	0.257985	-0.695964	-0.611787
H118	H	0.211139	-0.656359	-0.607061
H119	H	0.275081	-0.709550	-0.669742
H120	H	0.241828	-0.762702	-0.594274
H121	H	0.683998	-0.382401	-0.336624
