data_functionalizedCrystal
_audit_creation_method	'MofGen! by Chris Wilmer'
_symmetry_space_group_name_H-M	'P1'
_symmetry_Int_Tables_number	1
_symmetry_cell_setting	triclinic
loop_
_symmetry_equiv_pos_as_xyz
  x,y,z
_cell_length_a	12.759400
_cell_length_b	17.077404
_cell_length_c	17.077396
_cell_angle_alpha	90.017258
_cell_angle_beta	89.972811
_cell_angle_gamma	89.988247
loop_
_atom_site_label
_atom_site_type_symbol
_atom_site_fract_x
_atom_site_fract_y
_atom_site_fract_z
Zn1	Zn	-0.418332	-1.200080	-0.443863
Zn2	Zn	-0.594037	-1.200012	-0.312603
Zn3	Zn	-0.418364	-1.068818	-0.312610
Zn4	Zn	-0.593960	-1.068799	-0.443826
O5	O	-0.506173	-1.134427	-0.378226
O6	O	-0.441658	-1.309918	-0.426463
O7	O	-0.570779	-1.182588	-0.202757
O8	O	-0.271339	-1.086267	-0.330039
O9	O	-0.570748	-1.309868	-0.330027
O10	O	-0.271315	-1.182705	-0.426470
O11	O	-0.441713	-1.086200	-0.202762
O12	O	-0.441638	-0.958968	-0.330004
O13	O	-0.570617	-1.086235	-0.553678
O14	O	-0.570648	-0.958955	-0.426408
O15	O	-0.441584	-1.182686	-0.553705
O16	O	-0.741048	-1.182570	-0.329992
O17	O	-0.740992	-1.086168	-0.426401
C18	C	-0.506139	-0.930479	-0.378203
C19	C	-0.506150	-0.843230	-0.378212
C20	C	-0.439051	-0.802266	-0.428502
C21	C	-0.439057	-0.720286	-0.428504
C22	C	-0.506166	-0.679270	-0.378219
C23	C	-0.573268	-0.720239	-0.327924
C24	C	-0.573257	-0.802218	-0.327919
C25	C	-0.573288	-0.549369	-0.327939
C26	C	-0.573301	-0.467385	-0.327945
C27	C	-0.439088	-0.467437	-0.428524
C28	C	-0.439077	-0.549416	-0.428519
C29	C	-0.506180	-0.590379	-0.378225
C30	C	-0.779141	-1.134381	-0.378209
C31	C	-0.895917	-1.134433	-0.378228
C32	C	-0.950774	-1.184685	-0.328084
C33	C	-1.060498	-1.184733	-0.328108
C34	C	-1.060499	-1.084270	-0.428424
C35	C	-0.950777	-1.084227	-0.428403
C36	C	-0.950774	-1.242683	-0.270165
C37	C	-1.060498	-1.242732	-0.270189
C38	C	-0.232140	-1.134495	-0.378259
C39	C	-0.115363	-1.134524	-0.378274
C40	C	-0.506088	-1.134466	-0.582970
C41	C	-0.506052	-1.134483	-0.670220
C42	C	-0.506203	-0.339172	-0.378243
C43	C	-0.506202	-0.426421	-0.378235
C44	C	-0.573135	-1.184743	-1.046034
C45	C	-0.573165	-1.184723	-0.964054
C46	C	-0.505978	-1.134533	-0.923069
C47	C	-0.438763	-1.084354	-0.964069
C48	C	-0.438738	-1.084370	-1.046048
C49	C	-0.438817	-1.084325	-0.793199
C50	C	-0.438840	-1.084309	-0.711214
C51	C	-0.573244	-1.184677	-0.711205
C52	C	-0.573219	-1.184694	-0.793184
C53	C	-0.506003	-1.134515	-0.834178
C54	C	-0.506182	-1.134434	-0.174278
C55	C	-0.505923	-1.134569	-0.087028
H56	H	-0.627948	-0.433992	-0.287000
C57	C	-0.891407	-1.029584	-0.482879
C58	C	-0.962939	-0.985611	-0.526804
C59	C	-0.908286	-0.935256	-0.576989
H60	H	-0.848535	-1.059487	-0.517167
H61	H	-0.848692	-0.995338	-0.452830
H62	H	-1.005635	-1.019853	-0.556851
H63	H	-1.005812	-0.955692	-0.492536
H64	H	-0.865571	-0.901010	-0.546940
H65	H	-0.865416	-0.965165	-0.611273
H66	H	-0.956811	-0.905409	-0.606794
H67	H	-0.627928	-0.582719	-0.286982
C68	C	-1.105578	-1.319811	-0.299278
C69	C	-1.023597	-1.370825	-0.318532
C70	C	-1.065086	-1.441838	-0.345323
H71	H	-1.147431	-1.310586	-0.344327
H72	H	-1.147468	-1.342612	-0.259330
H73	H	-0.981725	-1.348029	-0.358478
H74	H	-0.981737	-1.380072	-0.273495
H75	H	-1.106976	-1.464638	-0.305374
H76	H	-1.106939	-1.432605	-0.390370
H77	H	-1.009470	-1.476461	-0.358383
C78	C	-0.646261	-0.675668	-0.273459
C79	C	-0.713700	-0.628632	-0.317824
C80	C	-0.780968	-0.587572	-0.267680
H81	H	-0.606142	-0.643613	-0.239296
H82	H	-0.686283	-0.711782	-0.243519
H83	H	-0.673683	-0.592523	-0.347750
H84	H	-0.753842	-0.660668	-0.351985
H85	H	-0.820990	-0.623686	-0.237740
H86	H	-0.740841	-0.555521	-0.233519
H87	H	-0.826740	-0.555659	-0.297774
C88	C	-1.100524	-1.221135	-0.189160
C89	C	-1.210256	-1.221263	-0.189390
C90	C	-1.247164	-1.201384	-0.114762
H91	H	-1.075894	-1.170467	-0.175454
H92	H	-1.075766	-1.258243	-0.152084
H93	H	-1.235003	-1.184157	-0.226454
H94	H	-1.234914	-1.271924	-0.203082
H95	H	-1.222406	-1.238492	-0.077686
H96	H	-1.222527	-1.150717	-0.101062
H97	H	-1.321620	-1.201475	-0.114906
C98	C	-0.905342	-1.213808	-0.193129
C99	C	-0.843591	-1.272845	-0.159867
C100	C	-0.801709	-1.246268	-0.088908
H101	H	-0.960728	-1.200761	-0.158300
H102	H	-0.863413	-1.168783	-0.202391
H103	H	-0.885517	-1.317856	-0.150601
H104	H	-0.788189	-1.285899	-0.194674
H105	H	-0.759780	-1.201243	-0.098170
H106	H	-0.857101	-1.233221	-0.054086
H107	H	-0.759798	-1.286317	-0.066335
H108	H	-0.627894	-0.835569	-0.286967
C109	C	-1.120253	-1.029790	-0.482808
C110	C	-1.228085	-1.040571	-0.472084
C111	C	-1.283160	-0.990389	-0.522162
H112	H	-1.102332	-1.041190	-0.535588
H113	H	-1.102399	-0.977030	-0.471261
H114	H	-1.245933	-1.093319	-0.483636
H115	H	-1.246038	-1.029166	-0.419314
H116	H	-1.265306	-0.937629	-0.510615
H117	H	-1.265231	-1.001792	-0.574939
H118	H	-1.356330	-0.997692	-0.514887
C119	C	-0.646168	-1.239292	-0.919687
C120	C	-0.704974	-1.283271	-0.973126
C121	C	-0.772225	-1.333559	-0.932285
H122	H	-0.692048	-1.209341	-0.887691
H123	H	-0.606010	-1.273537	-0.887737
H124	H	-0.745129	-1.249030	-1.005063
H125	H	-0.659122	-1.313238	-1.005124
H126	H	-0.732067	-1.367804	-0.900335
H127	H	-0.818098	-1.303601	-0.900291
H128	H	-0.812126	-1.363409	-0.968537
H129	H	-0.920922	-1.303458	-0.286495
H130	H	-0.384420	-0.686937	-0.469456
C131	C	-0.646190	-1.239068	-0.666559
C132	C	-0.631859	-1.228296	-0.585993
C133	C	-0.699042	-1.278379	-0.544839
H134	H	-0.630887	-1.291849	-0.679905
H135	H	-0.716796	-1.227556	-0.679938
H136	H	-0.561269	-1.239813	-0.572619
H137	H	-0.647170	-1.175525	-0.572624
H138	H	-0.769648	-1.266867	-0.558218
H139	H	-0.683733	-1.331157	-0.558191
H140	H	-0.689335	-1.271072	-0.490171
C141	C	-0.365871	-1.029720	-0.666856
C142	C	-0.307031	-0.985756	-0.720301
C143	C	-0.239815	-0.935449	-0.679466
H144	H	-0.320011	-1.059658	-0.634881
H145	H	-0.406056	-0.995466	-0.634884
H146	H	-0.266848	-1.020005	-0.752259
H147	H	-0.352863	-0.955802	-0.752277
H148	H	-0.280001	-0.901196	-0.647495
H149	H	-0.193962	-0.965393	-0.647493
H150	H	-0.199891	-0.905609	-0.715722
H151	H	-0.384006	-1.043515	-1.079424
H152	H	-0.627924	-1.225567	-0.826551
C153	C	-0.366012	-1.029751	-0.837751
C154	C	-0.425469	-0.979416	-0.884785
C155	C	-0.358436	-0.929131	-0.925831
H156	H	-0.320214	-1.059710	-0.869806
H157	H	-0.326015	-0.999813	-0.801628
H158	H	-0.465448	-1.009351	-0.920904
H159	H	-0.471264	-0.949439	-0.852750
H160	H	-0.318439	-0.899193	-0.889707
H161	H	-0.312642	-0.959097	-0.957881
H162	H	-0.398768	-0.894968	-0.957743
H163	H	-0.384406	-0.835656	-0.469452
H164	H	-0.384436	-0.582809	-0.469470
H165	H	-0.384448	-0.434081	-0.469474
H166	H	-0.384063	-1.043485	-0.930692
H167	H	-0.627841	-1.225617	-1.079398
