data_functionalizedCrystal
_audit_creation_method	'MofGen! by Chris Wilmer'
_symmetry_space_group_name_H-M	'P1'
_symmetry_Int_Tables_number	1
_symmetry_cell_setting	triclinic
loop_
_symmetry_equiv_pos_as_xyz
  x,y,z
_cell_length_a	17.699097
_cell_length_b	26.210047
_cell_length_c	27.732064
_cell_angle_alpha	89.991443
_cell_angle_beta	97.031088
_cell_angle_gamma	89.986704
loop_
_atom_site_label
_atom_site_type_symbol
_atom_site_fract_x
_atom_site_fract_y
_atom_site_fract_z
O1	O	-1.003542	0.042475	0.061149
O2	O	-0.503542	0.542475	0.561149
O3	O	-0.783096	0.042464	0.069095
O4	O	-0.283096	0.542464	0.569095
O5	O	-0.900159	0.042472	-0.005250
O6	O	-0.400159	0.542472	0.494750
O7	O	-0.886479	0.042467	0.135493
O8	O	-0.386479	0.542467	0.635493
O9	O	-0.900137	-0.042386	-0.005238
O10	O	-0.400137	0.457614	0.494762
O11	O	-0.783073	-0.042394	0.069106
O12	O	-0.283073	0.457606	0.569106
O13	O	-1.003520	-0.042383	0.061160
O14	O	-0.503520	0.457617	0.561160
Cu15	Cu	-0.893295	-0.050137	0.065134
Cu16	Cu	-0.393295	0.449863	0.565134
Cu17	Cu	-0.893321	0.050218	0.065121
Cu18	Cu	-0.393321	0.550218	0.565121
O19	O	-0.886457	-0.042391	0.135505
O20	O	-0.386457	0.457609	0.635505
C21	C	-0.754890	0.000034	0.068815
C22	C	-0.254890	0.500034	0.568815
C23	C	-0.670880	0.000030	0.067957
C24	C	-0.170880	0.500030	0.567957
C25	C	-0.155220	0.046303	0.062695
C26	C	0.344780	0.546303	0.562695
C27	C	-0.234157	0.046301	0.063498
C28	C	0.265843	0.546301	0.563498
C29	C	-0.273607	0.000043	0.063906
C30	C	0.226393	0.500043	0.563906
C31	C	-0.234117	-0.046216	0.063507
C32	C	0.265883	0.453784	0.563507
C33	C	-0.155183	-0.046214	0.062701
C34	C	0.344817	0.453786	0.562701
C35	C	-0.552453	-0.046227	0.066756
C36	C	-0.052453	0.453773	0.566756
C37	C	-0.631393	-0.046226	0.067563
C38	C	-0.131393	0.453774	0.567563
C39	C	-0.631428	0.046287	0.067552
C40	C	-0.131428	0.546287	0.567552
C41	C	-0.552493	0.046290	0.066747
C42	C	-0.052493	0.546290	0.566747
C43	C	-0.513011	0.000031	0.066345
C44	C	-0.013011	0.500031	0.566345
C45	C	-0.427418	0.000034	0.065474
C46	C	0.072582	0.500034	0.565474
C47	C	-0.359198	0.000040	0.064780
C48	C	0.140802	0.500040	0.564780
N49	N	-0.893281	-0.120721	0.065144
N50	N	-0.393281	0.379279	0.565144
C51	C	-0.945151	-0.473231	0.032208
C52	C	-0.445151	0.026769	0.532208
C53	C	-0.945168	-0.686890	0.032202
C54	C	-0.445168	-0.186890	0.532202
O55	O	-0.989241	-0.714509	0.004201
O56	O	-0.489241	-0.214509	0.504201
N57	N	-0.893325	-0.713615	0.065110
N58	N	-0.393325	-0.213615	0.565110
C59	C	-0.841471	-0.686921	0.098020
C60	C	-0.341471	-0.186921	0.598020
O61	O	-0.797371	-0.714555	0.126007
O62	O	-0.297371	-0.214555	0.626007
C63	C	-0.841452	-0.473264	0.098024
C64	C	-0.341452	0.026736	0.598024
C65	C	-0.893303	-0.446542	0.065117
C66	C	-0.393303	0.053458	0.565117
C67	C	-0.996998	-0.446509	-0.000697
C68	C	-0.496998	0.053491	0.499303
C69	C	-0.996996	-0.393098	-0.000693
C70	C	-0.496996	0.106902	0.499307
C71	C	-0.945148	-0.366409	0.032216
C72	C	-0.445148	0.133591	0.532216
C73	C	-0.893301	-0.393130	0.065121
C74	C	-0.393301	0.106870	0.565121
C75	C	-0.789595	-0.446572	0.130932
C76	C	-0.289595	0.053428	0.630932
C77	C	-0.789593	-0.393154	0.130929
C78	C	-0.289593	0.106846	0.630929
C79	C	-0.841444	-0.366432	0.098022
C80	C	-0.341444	0.133568	0.598022
C81	C	-0.841451	-0.313029	0.098033
C82	C	-0.341451	0.186971	0.598033
N83	N	-0.893293	-0.286305	0.065125
N84	N	-0.393293	0.213695	0.565125
C85	C	-0.945142	-0.312994	0.032216
C86	C	-0.445142	0.187006	0.532216
C87	C	-0.841486	-0.799095	0.098016
C88	C	-0.341486	-0.299095	0.598016
C89	C	-0.841492	-0.852509	0.098016
C90	C	-0.341492	-0.352509	0.598016
C91	C	-0.945188	-0.852474	0.032197
C92	C	-0.445188	-0.352474	0.532197
C93	C	-0.945185	-0.799059	0.032200
C94	C	-0.445185	-0.299059	0.532200
C95	C	-0.893329	-0.772370	0.065108
C96	C	-0.393329	-0.272370	0.565108
C97	C	-0.945134	-0.200826	0.032227
C98	C	-0.445134	0.299174	0.532227
C99	C	-0.945130	-0.147410	0.032235
C100	C	-0.445130	0.352590	0.532235
C101	C	-0.841431	-0.147450	0.098052
C102	C	-0.341431	0.352550	0.598052
C103	C	-0.841438	-0.200862	0.098046
C104	C	-0.341438	0.299138	0.598046
C105	C	-0.893293	-0.227548	0.065130
C106	C	-0.393293	0.272452	0.565130
O107	O	-0.797395	-0.285378	0.126016
O108	O	-0.297395	0.214622	0.626016
O109	O	-0.989224	-0.285352	0.004226
O110	O	-0.489224	0.214648	0.504226
C111	C	-0.945153	-0.526643	0.032205
C112	C	-0.445153	-0.026643	0.532205
C113	C	-0.893307	-0.553365	0.065110
C114	C	-0.393307	-0.053365	0.565110
C115	C	-0.841458	-0.526675	0.098018
C116	C	-0.341458	-0.026675	0.598018
C117	C	-0.893313	-0.606779	0.065109
C118	C	-0.393313	-0.106779	0.565109
C119	C	-0.945161	-0.633468	0.032200
C120	C	-0.445161	-0.133468	0.532200
C121	C	-0.997004	-0.606744	-0.000708
C122	C	-0.497004	-0.106744	0.499292
C123	C	-0.997002	-0.553332	-0.000704
C124	C	-0.497002	-0.053332	0.499296
C125	C	-0.789616	-0.553400	0.130927
C126	C	-0.289616	-0.053400	0.630927
C127	C	-0.789622	-0.606811	0.130920
C128	C	-0.289622	-0.106811	0.630920
C129	C	-0.841471	-0.633501	0.098012
C130	C	-0.341471	-0.133501	0.598012
C131	C	-0.031725	0.000046	0.061440
C132	C	0.468275	0.500046	0.561440
C133	C	-0.115735	0.000047	0.062298
C134	C	0.384265	0.500047	0.562298
C135	C	-0.899859	0.000044	-0.023252
C136	C	-0.399859	0.500044	0.476748
C137	C	-0.898988	0.000049	-0.076909
C138	C	-0.398988	0.500049	0.423091
N139	N	-0.893341	0.120802	0.065107
N140	N	-0.393341	0.620802	0.565107
C141	C	-0.823884	0.000047	-0.454254
C142	C	-0.323884	0.500047	0.045746
C143	C	-0.827088	0.000048	-0.252583
C144	C	-0.327088	0.500048	0.247417
O145	O	-0.768809	0.000066	-0.221541
O146	O	-0.268809	0.500066	0.278459
N147	N	-0.896504	0.000052	-0.233203
N148	N	-0.396504	0.500052	0.266797
C149	C	-0.965124	0.000058	-0.264246
C150	C	-0.465124	0.500058	0.235754
O151	O	-1.024241	0.000066	-0.243135
O152	O	-0.524241	0.500066	0.256865
C153	C	-0.961920	0.000061	-0.465916
C154	C	-0.461920	0.500061	0.034084
C155	C	-0.892499	0.000052	-0.485293
C156	C	-0.392499	0.500052	0.014707
C157	C	-0.754469	0.000039	-0.473631
C158	C	-0.254469	0.500039	0.026369
C159	C	-0.753668	0.000036	-0.524046
C160	C	-0.253668	0.500036	-0.024046
C161	C	-0.822283	0.000041	-0.555084
C162	C	-0.322283	0.500041	-0.055084
C163	C	-0.891699	0.000049	-0.535708
C164	C	-0.391699	0.500049	-0.035708
C165	C	-1.030539	0.000071	-0.496958
C166	C	-0.530539	0.500071	0.003042
C167	C	-1.029732	0.000073	-0.547378
C168	C	-0.529732	0.500073	-0.047378
C169	C	-0.960311	0.000065	-0.566754
C170	C	-0.460311	0.500065	-0.066754
C171	C	-0.959513	0.000051	-0.617161
C172	C	-0.459513	0.500051	-0.117161
N173	N	-0.890097	0.000048	-0.636540
N174	N	-0.390097	0.500048	-0.136540
C175	C	-0.821482	0.000043	-0.605502
C176	C	-0.321482	0.500043	-0.105502
C177	C	-0.966802	0.000056	-0.158365
C178	C	-0.466802	0.500056	0.341635
C179	C	-0.967603	0.000054	-0.107948
C180	C	-0.467603	0.500054	0.392052
C181	C	-0.829566	0.000045	-0.096288
C182	C	-0.329566	0.500045	0.403712
C183	C	-0.828766	0.000043	-0.146706
C184	C	-0.328766	0.500043	0.353294
C185	C	-0.897386	0.000052	-0.177744
C186	C	-0.397386	0.500052	0.322256
C187	C	-0.819807	0.000036	-0.711378
C188	C	-0.319807	0.500036	-0.211378
C189	C	-0.819012	0.000031	-0.761797
C190	C	-0.319012	0.500031	-0.261797
C191	C	-0.957049	0.000043	-0.773453
C192	C	-0.457049	0.500043	-0.273453
C193	C	-0.957844	0.000045	-0.723037
C194	C	-0.457844	0.500045	-0.223037
C195	C	-0.889216	0.000044	-0.692000
C196	C	-0.389216	0.500044	-0.192000
O197	O	-1.017761	0.000040	-0.648231
O198	O	-0.517761	0.500040	-0.148231
O199	O	-0.762374	0.000046	-0.626622
O200	O	-0.262374	0.500046	-0.126622
C201	C	-0.824684	0.000050	-0.403839
C202	C	-0.324684	0.500050	0.096161
C203	C	-0.894099	0.000058	-0.384463
C204	C	-0.394099	0.500058	0.115537
C205	C	-0.962714	0.000063	-0.415501
C206	C	-0.462714	0.500063	0.084499
C207	C	-0.894901	0.000057	-0.334045
C208	C	-0.394901	0.500057	0.165955
C209	C	-0.826286	0.000052	-0.303007
C210	C	-0.326286	0.500052	0.196993
C211	C	-0.756869	0.000048	-0.322386
C212	C	-0.256869	0.500048	0.177614
C213	C	-0.756069	0.000045	-0.372801
C214	C	-0.256069	0.500045	0.127199
C215	C	-1.032131	0.000067	-0.396122
C216	C	-0.532131	0.500067	0.103878
C217	C	-1.032925	0.000069	-0.345706
C218	C	-0.532925	0.500069	0.154294
C219	C	-0.964310	0.000064	-0.314668
C220	C	-0.464310	0.500064	0.185332
C221	C	-0.886757	0.000038	0.153507
C222	C	-0.386757	0.500038	0.653507
C223	C	-0.887627	0.000036	0.207164
C224	C	-0.387627	0.500036	0.707164
H225	H	-0.987356	-0.125655	0.005438
H226	H	-0.487356	0.374345	0.505438
Cl227	Cl	-0.670612	0.000040	-0.283357
Cl228	Cl	-0.170612	0.500040	0.216643
H229	H	-0.123105	0.083971	0.062366
H230	H	0.376895	0.583971	0.562366
Cl231	Cl	-1.116002	0.000087	-0.586394
Cl232	Cl	-0.616002	0.500087	-0.086394
H233	H	-0.663585	0.083953	0.067877
H234	H	-0.163585	0.583953	0.567877
Cl235	Cl	-0.283712	-0.104369	0.064019
Cl236	Cl	0.216288	0.395631	0.564019
H237	H	-0.987406	-0.874213	0.005402
H238	H	-0.487406	-0.374213	0.505402
Cl239	Cl	-0.731734	0.000020	-0.786152
Cl240	Cl	-0.231734	0.500020	-0.286152
Cl241	Cl	-0.105545	-0.104366	0.062197
Cl242	Cl	0.394455	0.395634	0.562197
H243	H	-1.039224	-0.628483	-0.027502
H244	H	-0.539224	-0.128483	0.472498
Cl245	Cl	-1.118399	0.000071	-0.435134
Cl246	Cl	-0.618399	0.500071	0.064866
H247	H	-0.266303	0.083967	0.063818
H248	H	0.233697	0.583967	0.563818
Cl249	Cl	-0.680987	-0.104383	0.068076
Cl250	Cl	-0.180987	0.395617	0.568076
H251	H	-0.799258	-0.777368	0.124816
H252	H	-0.299258	-0.277368	0.624816
Cl253	Cl	-0.724434	-0.640399	0.172296
Cl254	Cl	-0.224434	-0.140399	0.672296
Cl255	Cl	-0.502902	0.104445	0.066236
Cl256	Cl	-0.002902	0.604445	0.566236
Cl257	Cl	-1.045116	0.000038	-0.698678
Cl258	Cl	-0.545116	0.500038	-0.198678
Cl259	Cl	-1.010325	-0.234367	-0.009154
Cl260	Cl	-0.510325	0.265633	0.490846
H261	H	-1.087069	0.000079	-0.481191
H262	H	-0.587069	0.500079	0.018809
Cl263	Cl	-0.502825	-0.104381	0.066264
Cl264	Cl	-0.002825	0.395619	0.566264
Cl265	Cl	-1.062178	-0.359511	-0.042067
Cl266	Cl	-0.562178	0.140489	0.457933
Cl267	Cl	-0.666392	0.000032	-0.548397
Cl268	Cl	-0.166392	0.500032	-0.048397
Cl269	Cl	-0.724396	-0.359606	0.172302
Cl270	Cl	-0.224396	0.140394	0.672302
H271	H	-1.039219	-0.468235	-0.027497
H272	H	-0.539219	0.031765	0.472503
H273	H	-0.772237	0.000034	-0.162479
H274	H	-0.272237	0.500034	0.337521
H275	H	-0.987407	-0.777305	0.005404
H276	H	-0.487407	-0.277305	0.505404
H277	H	-0.799278	-0.874262	0.124817
H278	H	-0.299278	-0.374262	0.624817
H279	H	-0.799223	-0.222619	0.124847
H280	H	-0.299223	0.277381	0.624847
Cl281	Cl	-0.724429	-0.519854	0.172302
Cl282	Cl	-0.224429	-0.019854	0.672302
Cl283	Cl	-0.724405	-0.480154	0.172302
Cl284	Cl	-0.224405	0.019846	0.672302
Cl285	Cl	-0.668197	0.000034	-0.434620
Cl286	Cl	-0.168197	0.500034	0.065380
Cl287	Cl	-0.776253	-0.113889	0.139422
Cl288	Cl	-0.276253	0.386111	0.639422
Cl289	Cl	-1.043303	0.000046	-0.812481
Cl290	Cl	-0.543303	0.500046	-0.312481
Cl291	Cl	-0.743308	0.000039	-0.057259
Cl292	Cl	-0.243308	0.500039	0.442741
H293	H	-1.039224	-0.531579	-0.027500
H294	H	-0.539224	-0.031579	0.472500
Cl295	Cl	-0.733531	0.000033	-0.672367
Cl296	Cl	-0.233531	0.500033	-0.172367
H297	H	-1.024133	0.000053	-0.092176
H298	H	-0.524133	0.500053	0.407824
H299	H	-1.022684	0.000062	-0.183632
H300	H	-0.522684	0.500062	0.316368
Cl301	Cl	-0.668792	0.000036	-0.397152
Cl302	Cl	-0.168792	0.500036	0.102848
H303	H	-1.089460	0.000072	-0.329935
H304	H	-0.589460	0.500072	0.170065
