data_functionalizedCrystal
_audit_creation_method	'MofGen! by Chris Wilmer'
_symmetry_space_group_name_H-M	'P1'
_symmetry_Int_Tables_number	1
_symmetry_cell_setting	triclinic
loop_
_symmetry_equiv_pos_as_xyz
  x,y,z
_cell_length_a	21.395362
_cell_length_b	15.297327
_cell_length_c	21.395355
_cell_angle_alpha	99.659679
_cell_angle_beta	89.956060
_cell_angle_gamma	99.725883
loop_
_atom_site_label
_atom_site_type_symbol
_atom_site_fract_x
_atom_site_fract_y
_atom_site_fract_z
Zn1	Zn	0.914743	-0.358918	-0.397693
Zn2	Zn	0.896524	-0.509774	-0.311034
Zn3	Zn	0.809953	-0.358960	-0.292899
Zn4	Zn	0.791803	-0.509792	-0.415741
O5	O	0.853256	-0.434361	-0.354342
O6	O	1.000007	-0.378904	-0.386234
O7	O	0.885011	-0.489778	-0.220951
O8	O	0.839075	-0.232697	-0.291658
O9	O	0.986621	-0.489737	-0.322566
O10	O	0.916063	-0.232666	-0.368649
O11	O	0.821408	-0.378975	-0.207628
O12	O	0.719864	-0.378993	-0.309158
O13	O	0.808140	-0.489769	-0.501023
O14	O	0.706530	-0.489810	-0.399409
O15	O	0.898464	-0.378922	-0.487764
O16	O	0.867411	-0.636034	-0.340066
O17	O	0.790473	-0.636048	-0.416993
C18	C	0.690462	-0.434409	-0.354275
C19	C	0.620816	-0.434451	-0.354263
C20	C	0.581167	-0.492229	-0.401206
C21	C	0.515734	-0.492207	-0.401232
C22	C	0.489952	-0.434416	-0.354304
C23	C	0.529610	-0.376627	-0.307357
C24	C	0.595042	-0.376644	-0.307337
C25	C	0.387100	-0.427148	-0.297026
C26	C	0.321669	-0.427137	-0.297046
C27	C	0.288138	-0.434357	-0.354366
C28	C	0.320045	-0.441608	-0.411670
C29	C	0.385477	-0.441625	-0.411650
C30	C	0.419003	-0.434390	-0.354321
C31	C	0.177539	-0.492115	-0.401340
C32	C	0.112106	-0.492086	-0.401366
C33	C	0.125983	-0.376510	-0.307486
C34	C	0.191415	-0.376534	-0.307465
C35	C	0.217189	-0.434341	-0.354392
C36	C	0.825013	-0.668778	-0.382470
C37	C	0.812988	-0.769063	-0.394524
C38	C	0.939459	-1.051594	-0.268402
C39	C	0.950757	-0.957372	-0.257073
C40	C	0.916316	-0.910290	-0.291435
C41	C	0.870575	-0.957440	-0.337127
C42	C	0.859272	-1.051671	-0.348454
C43	C	0.836129	-0.910367	-0.371487
C44	C	0.790387	-0.957517	-0.417179
C45	C	0.779087	-1.051739	-0.428503
C46	C	0.813528	-1.098821	-0.394142
C47	C	0.847431	-0.816135	-0.360160
C48	C	0.767244	-0.816212	-0.440212
C49	C	0.755946	-0.910435	-0.451540
C50	C	1.016685	-0.434314	-0.354409
C51	C	1.086328	-0.434294	-0.354438
C52	C	0.853310	-0.434343	-0.517763
C53	C	0.853333	-0.434335	-0.587403
C54	C	0.881626	-0.199029	-0.326118
C55	C	0.893716	-0.098744	-0.314090
C56	C	0.900363	-0.376615	-0.613213
C57	C	0.900367	-0.376576	-0.678643
C58	C	0.853345	-0.434273	-0.718264
C59	C	0.806307	-0.491998	-0.692447
C60	C	0.806301	-0.492029	-0.627017
C61	C	0.838610	-0.515514	-0.831685
C62	C	0.838620	-0.515485	-0.897115
C63	C	0.853361	-0.434178	-0.920074
C64	C	0.868104	-0.352898	-0.877594
C65	C	0.868098	-0.352928	-0.812164
C66	C	0.853346	-0.434246	-0.789213
C67	C	0.900398	-0.376411	-1.016830
C68	C	0.900397	-0.376370	-1.082262
C69	C	0.806339	-0.491801	-1.096065
C70	C	0.806338	-0.491833	-1.030634
C71	C	0.853370	-0.434139	-0.991020
C72	C	0.853246	-0.434314	-0.191548
C73	C	0.853374	-0.434068	-0.121878
H74	H	0.295694	-0.421238	-0.250386
H75	H	0.741834	-1.090126	-0.465702
H76	H	0.768020	-0.538973	-0.724710
H77	H	0.483445	-0.539257	-0.439461
H78	H	0.804334	-1.175544	-0.403365
H79	H	0.718703	-0.948837	-0.488743
H80	H	0.938691	-0.329428	-0.984574
H81	H	0.104993	-0.329452	-0.269279
Cl82	Cl	0.723940	-0.757030	-0.483408
Cl83	Cl	0.959535	-0.303815	-1.114710
H84	H	0.768048	-0.538770	-1.128323
Cl85	Cl	0.820096	-0.617742	-0.802831
Cl86	Cl	0.904933	-0.756873	-0.302721
Cl87	Cl	0.613565	-0.564897	-0.460202
Cl88	Cl	0.425587	-0.450734	-0.483686
H89	H	0.938660	-0.329635	-0.580963
Cl90	Cl	0.959485	-0.303989	-0.711096
H91	H	0.925517	-0.833570	-0.282208
Cl92	Cl	1.008264	-0.898105	-0.199641
Cl93	Cl	0.982749	-1.110787	-0.225209
Cl94	Cl	0.820092	-0.617665	-0.950510
Cl95	Cl	0.886627	-0.250752	-0.758764
Cl96	Cl	0.277901	-0.450680	-0.483735
Cl97	Cl	0.747213	-0.564404	-0.998186
H98	H	0.768000	-0.539030	-0.606004
H99	H	0.198525	-0.539180	-0.439553
H100	H	0.880108	-0.286690	-0.896285
Cl101	Cl	0.644890	-0.304002	-0.248317
Cl102	Cl	0.062260	-0.564724	-0.460388
H103	H	0.223698	-0.329489	-0.269237
H104	H	0.414396	-0.421264	-0.250345
Cl105	Cl	0.497200	-0.303970	-0.248364
