data_functionalizedCrystal
_audit_creation_method	'MofGen! by Chris Wilmer'
_symmetry_space_group_name_H-M	'P1'
_symmetry_Int_Tables_number	1
_symmetry_cell_setting	triclinic
loop_
_symmetry_equiv_pos_as_xyz
  x,y,z
_cell_length_a	12.759401
_cell_length_b	12.759400
_cell_length_c	13.032268
_cell_angle_alpha	82.849813
_cell_angle_beta	82.834476
_cell_angle_gamma	90.013728
loop_
_atom_site_label
_atom_site_type_symbol
_atom_site_fract_x
_atom_site_fract_y
_atom_site_fract_z
Zn1	Zn	1.530776	-0.493686	0.590793
Zn2	Zn	2.030776	0.006314	1.090793
Zn3	Zn	1.552994	-0.647088	0.416057
Zn4	Zn	2.052994	-0.147088	0.916057
Zn5	Zn	1.377400	-0.471423	0.416076
Zn6	Zn	1.877400	0.028577	0.916076
Zn7	Zn	1.355071	-0.669315	0.590755
Zn8	Zn	1.855071	-0.169315	1.090755
O9	O	1.454060	-0.570378	0.503420
O10	O	1.954060	-0.070378	1.003420
O11	O	1.680743	-0.514049	0.567622
O12	O	2.180743	-0.014049	1.067622
O13	O	1.548344	-0.605166	0.269828
O14	O	2.048344	-0.105166	0.769828
O15	O	1.397791	-0.327358	0.439277
O16	O	1.897791	0.172642	0.939277
O17	O	1.697067	-0.626753	0.439244
O18	O	2.197067	-0.126753	0.939244
O19	O	1.510476	-0.343714	0.567641
O20	O	2.010476	0.156286	1.067641
O21	O	1.419336	-0.476106	0.269842
O22	O	1.919336	0.023894	0.769842
O23	O	1.227418	-0.497659	0.439239
O24	O	1.727418	0.002341	0.939239
O25	O	1.359736	-0.664637	0.736992
O26	O	1.859736	-0.164637	1.236992
O27	O	1.211013	-0.643050	0.567575
O28	O	1.711013	-0.143050	1.067575
O29	O	1.488825	-0.535603	0.737020
O30	O	1.988825	-0.035603	1.237020
O31	O	1.526694	-0.797054	0.439207
O32	O	2.026694	-0.297054	0.939207
O33	O	1.381280	-0.813385	0.567557
O34	O	1.881280	-0.313385	1.067557
C35	C	1.181095	-0.570351	0.503406
C36	C	1.681095	-0.070351	1.003406
C37	C	1.064316	-0.570368	0.503424
C38	C	1.564316	-0.070368	1.003424
C39	C	1.000934	-0.511824	0.570374
C40	C	1.500934	-0.011824	1.070374
C41	C	0.891209	-0.511844	0.570381
C42	C	1.391209	-0.011844	1.070381
C43	C	0.908258	-0.628964	0.436485
C44	C	1.408258	-0.128964	0.936485
C45	C	1.017981	-0.628936	0.436474
C46	C	1.517981	-0.128936	0.936474
C47	C	1.047268	-0.453256	0.637325
C48	C	1.547268	0.046744	1.137325
C49	C	0.983885	-0.394707	0.704282
C50	C	1.483885	0.105293	1.204282
C51	C	0.874160	-0.394728	0.704288
C52	C	1.374160	0.105272	1.204288
C53	C	0.827818	-0.453298	0.637338
C54	C	1.327818	0.046702	1.137338
C55	C	1.454001	-0.843342	0.503399
C56	C	1.954001	-0.343342	1.003399
C57	C	1.454067	-0.960122	0.503424
C58	C	1.954067	-0.460122	1.003424
C59	C	1.529849	-1.006455	0.436666
C60	C	2.029849	-0.506455	0.936666
C61	C	1.529909	-1.116184	0.436699
C62	C	2.029909	-0.616184	0.936699
C63	C	1.378396	-1.133236	0.570249
C64	C	1.878396	-0.633236	1.070249
C65	C	1.378342	-1.023510	0.570222
C66	C	1.878342	-0.523510	1.070222
C67	C	1.605574	-0.943067	0.369869
C68	C	2.105574	-0.443067	0.869869
C69	C	1.681361	-0.989400	0.303105
C70	C	2.181361	-0.489400	0.803105
C71	C	1.681421	-1.099128	0.303137
C72	C	2.181421	-0.599128	0.803137
C73	C	1.605695	-1.162524	0.369933
C74	C	2.105695	-0.662524	0.869933
C75	C	1.728091	-0.570405	0.503436
C76	C	2.228091	-0.070405	1.003436
C77	C	1.844867	-0.570417	0.503442
C78	C	2.344867	-0.070417	1.003442
C79	C	1.419311	-0.605083	0.775982
C80	C	1.919311	-0.105083	1.275982
C81	C	1.404503	-0.619872	0.892132
C82	C	1.904503	-0.119872	1.392132
C83	C	1.454146	-0.296350	0.503465
C84	C	1.954146	0.203650	1.003465
C85	C	1.454182	-0.179576	0.503484
C86	C	1.954182	0.320424	1.003484
C87	C	1.488734	-0.535732	0.231919
C88	C	1.988734	-0.035732	0.731919
C89	C	1.503746	-0.520647	0.115770
C90	C	2.003746	-0.020647	0.615770
C91	C	1.461772	-0.562621	0.943929
C92	C	1.961772	-0.062621	1.443929
C93	C	1.446469	-0.577905	1.063976
C94	C	1.946469	-0.077905	1.563976
H95	H	0.822557	-0.347046	0.758800
H96	H	1.322557	0.152954	1.258800
Cl97	Cl	1.776563	-0.909707	0.219147
Cl98	Cl	2.276563	-0.409707	0.719147
H99	H	1.344137	-0.680194	0.936660
H100	H	1.844137	-0.180194	1.436660
H101	H	0.738475	-0.453285	0.637327
H102	H	1.238475	0.046715	1.137327
H103	H	1.069589	-0.676609	0.381957
H104	H	1.569589	-0.176609	0.881957
H105	H	1.605531	-0.853720	0.369832
H106	H	2.105531	-0.353720	0.869832
Cl107	Cl	0.849998	-0.702592	0.352329
Cl108	Cl	1.349998	-0.202592	0.852329
H109	H	1.743137	-1.136850	0.248782
H110	H	2.243137	-0.636850	0.748782
Cl111	Cl	1.353265	-0.671051	1.132711
Cl112	Cl	1.853265	-0.171051	1.632711
Cl113	Cl	1.554940	-0.469448	0.875189
Cl114	Cl	2.054940	0.030552	1.375189
H115	H	1.316634	-0.985786	0.624583
H116	H	1.816634	-0.485786	1.124583
Cl117	Cl	1.185206	-0.453230	0.637326
Cl118	Cl	1.685206	0.046770	1.137326
H119	H	1.605757	-1.251872	0.369962
H120	H	2.105757	-0.751872	0.869962
Cl121	Cl	1.042143	-0.321072	0.788433
Cl122	Cl	1.542143	0.178928	1.288433
H123	H	1.564104	-0.460308	1.071247
H124	H	2.064104	0.039692	1.571247
Cl125	Cl	1.283201	-1.212933	0.654212
Cl126	Cl	1.783201	-0.712933	1.154212
