data_functionalizedCrystal
_audit_creation_method	'MofGen! by Chris Wilmer'
_symmetry_space_group_name_H-M	'P1'
_symmetry_Int_Tables_number	1
_symmetry_cell_setting	triclinic
loop_
_symmetry_equiv_pos_as_xyz
  x,y,z
_cell_length_a	11.169417
_cell_length_b	11.169416
_cell_length_c	11.169409
_cell_angle_alpha	90.028030
_cell_angle_beta	89.981053
_cell_angle_gamma	89.984328
loop_
_atom_site_label
_atom_site_type_symbol
_atom_site_fract_x
_atom_site_fract_y
_atom_site_fract_z
Zn1	Zn	1.834939	0.477627	-0.678551
Zn2	Zn	2.334939	0.977627	-0.178551
Zn3	Zn	1.834819	0.678368	-0.477883
Zn4	Zn	2.334819	1.178368	0.022117
Zn5	Zn	1.634225	0.477706	-0.477888
Zn6	Zn	2.134225	0.977706	0.022112
Zn7	Zn	1.634223	0.678276	-0.678531
Zn8	Zn	2.134223	1.178276	-0.178531
O9	O	1.734552	0.577994	-0.578213
O10	O	2.234552	1.077994	-0.078213
O11	O	2.002873	0.504261	-0.651938
O12	O	2.502873	1.004261	-0.151938
O13	O	1.808161	0.651821	-0.309933
O14	O	2.308161	1.151821	0.190067
O15	O	1.660902	0.309746	-0.504517
O16	O	2.160902	0.809746	-0.004517
O17	O	2.002785	0.651744	-0.504508
O18	O	2.502785	1.151744	-0.004508
O19	O	1.808365	0.309688	-0.651943
O20	O	2.308365	0.809688	-0.151943
O21	O	1.660785	0.504396	-0.309937
O22	O	2.160785	1.004396	0.190063
O23	O	1.466275	0.504307	-0.504498
O24	O	1.966275	1.004307	-0.004498
O25	O	1.660898	0.651588	-0.846483
O26	O	2.160898	1.151588	-0.346483
O27	O	1.466274	0.651665	-0.651909
O28	O	1.966274	1.151665	-0.151909
O29	O	1.808363	0.504172	-0.846498
O30	O	2.308363	1.004172	-0.346498
O31	O	1.808158	0.846305	-0.504488
O32	O	2.308158	1.346305	-0.004488
O33	O	1.660781	0.846238	-0.651903
O34	O	2.160781	1.346238	-0.151903
C35	C	1.422727	0.577985	-0.578202
C36	C	1.922727	1.077985	-0.078202
C37	C	1.289327	0.578010	-0.578226
C38	C	1.789327	1.078010	-0.078226
C39	C	1.734489	0.889819	-0.578219
C40	C	2.234489	1.389819	-0.078219
C41	C	1.734572	1.023219	-0.578262
C42	C	2.234572	1.523219	-0.078262
C43	C	1.734644	0.577861	-0.891256
C44	C	2.234644	1.077861	-0.391256
C45	C	1.734683	0.577804	-1.024656
C46	C	2.234683	1.077804	-0.524656
C47	C	2.047594	0.578004	-0.578224
C48	C	2.547594	1.078004	-0.078224
C49	C	2.180994	0.578008	-0.578229
C50	C	2.680994	1.078008	-0.078229
C51	C	1.734635	1.264952	-0.578245
C52	C	2.234635	1.764952	-0.078245
C53	C	1.734640	1.131552	-0.578291
C54	C	2.234640	1.631552	-0.078291
C55	C	1.734529	0.578040	-0.266388
C56	C	2.234529	1.078040	0.233612
C57	C	1.734722	0.577759	-0.132989
C58	C	2.234722	1.077759	0.367011
