data_functionalizedCrystal
_audit_creation_method	'MofGen! by Chris Wilmer'
_symmetry_space_group_name_H-M	'P1'
_symmetry_Int_Tables_number	1
_symmetry_cell_setting	triclinic
loop_
_symmetry_equiv_pos_as_xyz
  x,y,z
_cell_length_a	17.077404
_cell_length_b	17.077402
_cell_length_c	17.077396
_cell_angle_alpha	89.970216
_cell_angle_beta	89.979055
_cell_angle_gamma	90.016362
loop_
_atom_site_label
_atom_site_type_symbol
_atom_site_fract_x
_atom_site_fract_y
_atom_site_fract_z
Zn1	Zn	-1.200055	0.312645	0.443866
Zn2	Zn	-1.199962	0.443920	0.312597
Zn3	Zn	-1.068786	0.312657	0.312610
Zn4	Zn	-1.068754	0.443858	0.443817
O5	O	-1.134389	0.378270	0.378223
O6	O	-1.309889	0.330079	0.426467
O7	O	-1.182536	0.426538	0.202752
O8	O	-1.086252	0.202808	0.330048
O9	O	-1.309821	0.426527	0.330025
O10	O	-1.182694	0.202799	0.426481
O11	O	-1.086162	0.330100	0.202762
O12	O	-0.958935	0.330040	0.330001
O13	O	-1.086197	0.426421	0.553671
O14	O	-0.958912	0.426433	0.426398
O15	O	-1.182663	0.330019	0.553706
O16	O	-1.182504	0.553758	0.329977
O17	O	-1.086107	0.553713	0.426384
C18	C	-0.930441	0.378231	0.378196
C19	C	-0.843192	0.378234	0.378203
C20	C	-1.134314	0.582218	0.378191
C21	C	-1.134353	0.669467	0.378204
C22	C	-0.467386	0.428551	0.428346
C23	C	-0.549366	0.428544	0.428336
C24	C	-0.590343	0.378272	0.378224
C25	C	-0.549335	0.328011	0.328113
C26	C	-0.467356	0.328023	0.328120
C27	C	-0.720205	0.327988	0.328104
C28	C	-0.802189	0.327974	0.328098
C29	C	-0.802215	0.428509	0.428320
C30	C	-0.720236	0.428521	0.428327
C31	C	-0.679234	0.378258	0.378217
C32	C	-0.339134	0.378300	0.378245
C33	C	-0.426383	0.378292	0.378241
C34	C	-1.134437	0.378212	0.582967
C35	C	-1.134457	0.378187	0.670217
C36	C	-1.134487	0.173525	0.378271
C37	C	-1.134528	0.086276	0.378292
C38	C	-1.184598	0.710455	0.328059
C39	C	-1.184637	0.792436	0.328079
C40	C	-1.134425	0.833427	0.378241
C41	C	-1.084178	0.792433	0.428391
C42	C	-1.084144	0.710454	0.428375
C43	C	-1.084250	0.963303	0.428421
C44	C	-1.084283	1.045288	0.428437
C45	C	-1.184743	1.045285	0.328125
C46	C	-1.184709	0.963306	0.328109
C47	C	-1.134461	0.922318	0.378259
C48	C	-1.134387	0.378271	0.174275
C49	C	-1.134519	0.378074	0.087025
C50	C	-1.184689	0.327987	0.711227
C51	C	-1.184698	0.327961	0.793207
C52	C	-1.134479	0.378139	0.834176
C53	C	-1.084242	0.428342	0.793160
C54	C	-1.084229	0.428364	0.711181
C55	C	-1.084274	0.428295	0.964031
C56	C	-1.084288	0.428275	1.046015
C57	C	-1.184742	0.327892	1.046056
C58	C	-1.184730	0.327913	0.964077
C59	C	-1.134493	0.378117	0.923067
H60	H	-0.434028	0.469484	0.469158
H61	H	-1.225483	0.677086	0.287208
C62	C	-1.239933	0.272784	0.666169
N63	N	-1.281543	0.231201	0.632233
C64	C	-1.028993	0.483532	0.838229
N65	N	-0.987378	0.525102	0.872174
H66	H	-1.225626	0.287058	0.930723
C67	C	-1.029040	0.483469	1.091080
N68	N	-0.987425	0.525041	1.125022
C69	C	-1.239932	0.918217	0.272916
N70	N	-1.281525	0.884256	0.231341
C71	C	-1.240002	0.272666	1.091169
N72	N	-1.281625	0.231075	1.125152
C73	C	-0.594412	0.272705	0.272995
N74	N	-0.628364	0.231044	0.231484
H75	H	-1.225551	0.825804	0.287245
C76	C	-1.028942	0.837526	0.483568
N77	N	-0.987333	0.871490	0.525124
H78	H	-0.582746	0.469472	0.469135
C79	C	-0.422254	0.272731	0.273002
N80	N	-0.388284	0.231085	0.231485
C81	C	-1.240024	1.090373	0.272966
N82	N	-1.281660	1.124337	0.231422
H83	H	-1.043411	1.078661	0.469298
C84	C	-0.675163	0.483829	0.483446
N85	N	-0.641214	0.525493	0.524958
C86	C	-1.028870	0.665368	0.483539
N87	N	-0.987238	0.631410	0.525092
C88	C	-1.239958	0.272737	0.838315
N89	N	-1.281582	0.231141	0.872289
H90	H	-1.043335	0.929933	0.469261
H91	H	-0.835603	0.469433	0.469123
H92	H	-1.043354	0.469164	0.930643
C93	C	-1.028972	0.483589	0.666071
N94	N	-0.987349	0.525186	0.632095
H95	H	-0.686823	0.287057	0.287300
C96	C	-0.847262	0.272680	0.272965
N97	N	-0.881211	0.231033	0.231436
