data_functionalizedCrystal
_audit_creation_method	'MofGen! by Chris Wilmer'
_symmetry_space_group_name_H-M	'P1'
_symmetry_Int_Tables_number	1
_symmetry_cell_setting	triclinic
loop_
_symmetry_equiv_pos_as_xyz
  x,y,z
_cell_length_a	13.635800
_cell_length_b	27.923496
_cell_length_c	27.692841
_cell_angle_alpha	80.109086
_cell_angle_beta	84.884300
_cell_angle_gamma	81.036054
loop_
_atom_site_label
_atom_site_type_symbol
_atom_site_fract_x
_atom_site_fract_y
_atom_site_fract_z
V1	V	1.901356	-0.067879	0.151588
O2	O	1.908833	0.002488	0.148386
O3	O	1.866737	-0.133848	0.150854
O4	O	1.833383	-0.067174	0.217562
O5	O	1.942418	-0.064647	0.081217
V6	V	2.150193	-0.059422	0.143134
O7	O	2.016467	-0.086430	0.170131
O8	O	2.260181	-0.040871	0.124590
O9	O	2.073209	0.006547	0.143867
O10	O	2.201415	-0.129789	0.146335
O11	O	2.167830	-0.062654	0.213504
O12	O	2.106563	-0.060127	0.077160
V13	V	2.401356	-0.067879	0.151588
O14	O	2.408833	0.002488	0.148386
O15	O	2.366737	-0.133848	0.150854
O16	O	2.333383	-0.067174	0.217562
O17	O	2.442418	-0.064647	0.081217
V18	V	2.650193	-0.059422	0.143134
O19	O	2.516467	-0.086430	0.170131
O20	O	2.760181	-0.040871	0.124590
O21	O	2.573209	0.006547	0.143867
O22	O	2.701415	-0.129789	0.146335
O23	O	2.667830	-0.062654	0.213504
O24	O	2.606563	-0.060127	0.077160
C25	C	1.788119	-0.149920	0.148541
C26	C	1.800165	-0.203853	0.148382
C27	C	1.963988	-0.540788	0.149876
C28	C	2.009310	-0.743494	0.149299
O29	O	2.090879	-0.771820	0.151314
N30	N	1.925946	-0.766356	0.146792
C31	C	1.831245	-0.738540	0.144433
O32	O	1.761378	-0.762637	0.142293
C33	C	1.785923	-0.535835	0.145014
C34	C	1.869294	-0.512975	0.147516
C35	C	2.047351	-0.517927	0.152379
C36	C	2.036021	-0.467253	0.152520
C37	C	1.941327	-0.439440	0.150160
C38	C	1.857964	-0.462301	0.147657
C39	C	1.691222	-0.508020	0.142658
C40	C	1.679899	-0.457341	0.142805
C41	C	1.763270	-0.434480	0.145307
C42	C	1.751941	-0.383813	0.145439
N43	N	1.835304	-0.360951	0.147945
C44	C	1.929997	-0.388764	0.150306
C45	C	1.855046	-0.844962	0.144127
C46	C	1.866376	-0.895638	0.143981
C47	C	2.044440	-0.900589	0.148848
C48	C	2.033109	-0.849912	0.148990
C49	C	1.938409	-0.822100	0.146634
C50	C	1.906197	-0.282345	0.150603
C51	C	1.894858	-0.231666	0.150742
C52	C	1.716795	-0.226720	0.145878
C53	C	1.728133	-0.277394	0.145736
C54	C	1.822841	-0.305206	0.148100
O55	O	1.670402	-0.355458	0.143430
O56	O	1.999848	-0.364659	0.152457
C57	C	1.975318	-0.591462	0.149735
C58	C	1.891954	-0.614322	0.147233
C59	C	1.797261	-0.586509	0.144872
C60	C	1.903285	-0.664998	0.147086
C61	C	1.997978	-0.692812	0.149447
C62	C	2.081341	-0.669949	0.151954
C63	C	2.070011	-0.619275	0.152095
C64	C	1.713898	-0.609371	0.142365
C65	C	1.725235	-0.660046	0.142223
C66	C	1.819929	-0.687859	0.144584
C67	C	1.745572	-0.064870	0.233632
C68	C	1.730569	-0.064730	0.287569
C69	C	1.983499	0.022616	0.146179
C70	C	1.961070	0.076548	0.146342
C71	C	2.026046	-0.062433	0.061086
C72	C	2.030669	-0.062570	0.007150
C73	C	2.288119	-0.149920	0.148541
C74	C	2.300165	-0.203853	0.148382
C75	C	2.245572	-0.064870	0.233632
C76	C	2.230569	-0.064730	0.287569
C77	C	2.034559	-0.061132	0.670227
C78	C	2.090874	-0.061743	0.467526
O79	O	2.022459	-0.059733	0.439205
N80	N	2.186923	-0.064253	0.444660
C81	C	2.268897	-0.066608	0.472471
O82	O	2.351883	-0.068752	0.448370
C83	C	2.212580	-0.065993	0.675171
C84	C	2.116527	-0.063487	0.698035
C85	C	1.938513	-0.058626	0.693092
C86	C	1.924436	-0.058476	0.743765
C87	C	2.006405	-0.060832	0.771573
C88	C	2.102450	-0.063337	0.748708
C89	C	2.294553	-0.068344	0.702981
C90	C	2.280464	-0.068188	0.753659
C91	C	2.184412	-0.065683	0.776523
C92	C	2.170342	-0.065543	0.827189
N93	N	2.074294	-0.063033	0.850055
C94	C	1.992325	-0.060677	0.822247
C95	C	2.298458	-0.066931	0.366051
C96	C	2.312538	-0.067086	0.315377
C97	C	2.134514	-0.062220	0.310435
C98	C	2.120436	-0.062069	0.361111
C99	C	2.202410	-0.064421	0.388918
C100	C	1.962770	-0.060362	0.928664
C101	C	1.948700	-0.060214	0.979342
C102	C	2.126725	-0.065077	0.984279
C103	C	2.140794	-0.065228	0.933606
C104	C	2.058808	-0.062868	0.905799
O105	O	2.238709	-0.067546	0.855539
O106	O	1.909346	-0.058522	0.846356
C107	C	2.048635	-0.061282	0.619555
C108	C	2.144681	-0.063788	0.596690
C109	C	2.226649	-0.066143	0.624498
C110	C	2.158760	-0.063942	0.546016
C111	C	2.076792	-0.061587	0.518208
C112	C	1.980743	-0.059077	0.541074
C113	C	1.966667	-0.058926	0.591747
C114	C	2.322698	-0.068653	0.601632
C115	C	2.336767	-0.068804	0.550959
C116	C	2.254799	-0.066448	0.523151
C117	C	2.483499	0.022616	0.146179
C118	C	2.461070	0.076548	0.146342
C119	C	2.526046	-0.062433	0.061086
C120	C	2.530669	-0.062570	0.007150
C121	C	1.812535	-0.067096	0.315382
C122	C	1.798450	-0.066959	0.366060
C123	C	1.702401	-0.064459	0.388924
C124	C	1.620429	-0.062091	0.361107
C125	C	1.634514	-0.062225	0.310429
C126	C	2.394858	-0.231666	0.150742
C127	C	2.406189	-0.282343	0.150600
C128	C	2.322826	-0.305206	0.148093
C129	C	2.228124	-0.277389	0.145734
C130	C	2.216794	-0.226713	0.145880
C131	C	2.538869	0.104362	0.143982
C132	C	2.517809	0.155038	0.144127
C133	C	2.418948	0.177901	0.146635
C134	C	2.341143	0.150084	0.148993
C135	C	2.362204	0.099409	0.148844
C136	C	2.444481	-0.065064	-0.015702
C137	C	2.448808	-0.065187	-0.066382
C138	C	2.539326	-0.062820	-0.094208
C139	C	2.625520	-0.060324	-0.071353
C140	C	2.621190	-0.060197	-0.020675
H141	H	1.962753	-0.213055	0.152778
H142	H	1.690946	-0.064350	0.430190
H143	H	2.067774	-0.060303	0.287785
H144	H	1.846222	-0.056434	0.762376
Br145	Br	2.738176	-0.056819	0.010333
Br146	Br	2.034728	-0.320082	0.153812
H147	H	2.581173	0.177680	0.142208
Br148	Br	1.490083	-0.058705	0.392146
Br149	Br	1.909710	-0.070174	0.403801
Br150	Br	1.523261	-0.059020	0.272690
Br151	Br	2.508010	-0.200651	0.154148
Br152	Br	2.321622	-0.068278	0.022051
H153	H	1.914004	-0.057161	0.518424
Br154	Br	1.827251	-0.055431	0.655362
Br155	Br	2.206980	0.181120	0.152392
H156	H	2.414989	-0.070848	0.532348
H157	H	2.298846	0.076766	0.150770
Br158	Br	2.748361	-0.057116	-0.109124
H159	H	2.390753	-0.069134	0.296766
Br160	Br	2.331823	-0.068578	-0.097388
Br161	Br	2.545186	-0.062993	-0.162986
H162	H	2.332065	-0.346470	0.147974
H163	H	1.639696	-0.204065	0.143954
H164	H	2.483307	-0.304985	0.152519
Br165	Br	1.753227	-0.926654	0.140572
Br166	Br	2.114998	-0.308424	0.142330
H167	H	2.389450	-0.070570	0.624268
Br168	Br	2.673047	0.073346	0.140580
Br169	Br	2.149177	-0.436236	0.155909
Br170	Br	2.390382	0.246676	0.146835
H171	H	2.124464	-0.540568	0.154303
H172	H	2.100999	-0.831303	0.151027
Br173	Br	2.172954	-0.938346	0.152053
H174	H	1.777927	-0.822322	0.142207
H175	H	2.137902	-0.600667	0.154132
Br176	Br	2.088270	-0.188972	0.142672
H177	H	1.623331	-0.526623	0.140617
H178	H	1.660244	-0.296008	0.143702
Br179	Br	1.551369	-0.419599	0.139610
Br180	Br	2.209856	-0.707705	0.155153
H181	H	1.870481	-0.058175	0.997956
H182	H	1.657338	-0.678653	0.140183
Br183	Br	1.851500	-0.057159	0.890934
Br184	Br	1.990076	-0.058669	0.392136
Br185	Br	2.409725	-0.070128	0.403783
Br186	Br	1.585374	-0.571632	0.139161
H187	H	2.347221	-0.070104	0.776297
Br188	Br	2.424914	-0.071744	0.671964
H189	H	2.219009	-0.067275	0.914990
Br190	Br	1.942899	-0.070489	0.284363
H191	H	2.193459	-0.066997	1.006929
H192	H	1.888453	-0.056886	0.610358
