data_functionalizedCrystal
_audit_creation_method	'MofGen! by Chris Wilmer'
_symmetry_space_group_name_H-M	'P1'
_symmetry_Int_Tables_number	1
_symmetry_cell_setting	triclinic
loop_
_symmetry_equiv_pos_as_xyz
  x,y,z
_cell_length_a	19.288864
_cell_length_b	17.699083
_cell_length_c	18.366186
_cell_angle_alpha	89.992864
_cell_angle_beta	89.977106
_cell_angle_gamma	83.209630
loop_
_atom_site_label
_atom_site_type_symbol
_atom_site_fract_x
_atom_site_fract_y
_atom_site_fract_z
O1	O	0.921465	0.094417	-0.060785
O2	O	0.719219	0.107154	-0.060735
O3	O	0.826056	-0.009412	-0.060755
O4	O	0.814628	0.210983	-0.060765
O5	O	0.826038	-0.009417	0.060345
O6	O	0.719201	0.107148	0.060364
O7	O	0.921446	0.094412	0.060315
Zn8	Zn	0.820321	0.100779	0.079567
Zn9	Zn	0.820345	0.100786	-0.079987
O10	O	0.814610	0.210977	0.060335
C11	C	0.693333	0.106741	-0.000179
C12	C	0.616228	0.105511	-0.000160
C13	C	0.571613	0.173906	-0.000174
C14	C	0.499164	0.172751	-0.000182
C15	C	0.471334	0.103196	-0.000190
C16	C	0.515959	0.034791	-0.000172
C17	C	0.588406	0.035949	-0.000156
C18	C	0.363014	0.048520	-0.042639
C19	C	0.290568	0.047365	-0.042659
C20	C	0.247884	0.099622	-0.000234
C21	C	0.277654	0.153047	0.042200
C22	C	0.350101	0.154205	0.042216
C23	C	0.392779	0.101932	-0.000206
C24	C	0.124712	0.166769	-0.000256
C25	C	0.052262	0.165610	-0.000260
C26	C	0.069059	0.027649	-0.000257
C27	C	0.141507	0.028809	-0.000246
C28	C	0.169329	0.098371	-0.000249
C29	C	0.825637	-0.037611	-0.000205
C30	C	0.824409	-0.121627	-0.000204
C31	C	0.887120	-0.170336	-0.000219
C32	C	0.885961	-0.249278	-0.000225
C33	C	0.822091	-0.279509	-0.000211
C34	C	0.759375	-0.230794	-0.000199
C35	C	0.760535	-0.151854	-0.000198
C36	C	0.754699	-0.549150	-0.000204
C37	C	0.753545	-0.628097	-0.000203
C38	C	0.880126	-0.646575	-0.000230
C39	C	0.881285	-0.567635	-0.000230
C40	C	0.818570	-0.518926	-0.000221
C41	C	0.819827	-0.433329	-0.000216
C42	C	0.820834	-0.365105	-0.000211
C43	C	0.947332	0.094824	-0.000243
C44	C	1.024437	0.096054	-0.000267
C45	C	0.815028	0.239176	-0.000217
C46	C	0.816257	0.323193	-0.000222
N47	N	0.820310	0.100773	0.188458
N48	N	0.820361	0.100786	-0.188878
C49	C	0.867632	0.049183	0.226550
C50	C	0.867637	0.049180	0.302777
C51	C	0.820325	0.100780	0.340911
C52	C	0.772993	0.152373	0.302810
C53	C	0.772986	0.152370	0.226583
C54	C	0.811108	0.169742	0.461669
C55	C	0.811121	0.169746	0.537894
C56	C	0.820345	0.100789	0.576018
C57	C	0.829571	0.031825	0.537908
C58	C	0.829563	0.031822	0.461681
C59	C	0.820328	0.100788	0.423565
C60	C	0.867675	0.049191	0.696765
C61	C	0.867674	0.049187	0.772994
C62	C	0.773034	0.152387	0.773025
C63	C	0.773031	0.152385	0.696797
C64	C	0.820355	0.100788	0.658672
H65	H	0.594260	0.230549	-0.000178
H66	H	0.906174	0.007168	0.333797
H67	H	0.933295	-0.543025	-0.000237
H68	H	0.734500	0.194397	0.665781
N69	N	0.956011	-0.137737	-0.000228
H70	H	0.959323	-0.105388	-0.045118
H71	H	0.959262	-0.105443	0.044695
H72	H	0.931192	-0.686243	-0.000241
H73	H	0.462831	0.228448	-0.000192
H74	H	0.709469	-0.112195	-0.000187
N75	N	0.801167	0.244123	0.578996
H76	H	0.795310	0.287806	0.543280
H77	H	0.758179	0.245816	0.610643
H78	H	0.707371	-0.255414	-0.000193
H79	H	0.937027	-0.288934	-0.000235
H80	H	0.015936	0.221308	-0.000268
H81	H	0.803585	0.225898	0.430635
N82	N	0.721960	0.208024	0.343934
H83	H	0.729146	0.200200	0.398004
H84	H	0.729885	0.261696	0.330596
H85	H	0.734449	0.194382	0.195569
H86	H	0.046401	-0.028984	-0.000308
H87	H	0.374336	0.197703	0.076770
N88	N	0.684654	-0.660705	-0.000184
H89	H	0.645099	-0.617871	-0.000179
H90	H	0.681426	-0.693055	-0.045074
N91	N	0.918670	-0.006467	0.185428
H92	H	0.948649	-0.039151	0.221131
H93	H	0.892135	-0.039858	0.153823
N94	N	0.231628	0.209420	0.087958
H95	H	0.181216	0.200580	0.081514
H96	H	0.245125	0.202545	0.140881
H97	H	0.177834	-0.026886	-0.000238
N98	N	0.154727	0.241791	-0.000256
H99	H	0.115466	0.284946	-0.000261
H100	H	0.184397	0.245273	0.044641
H101	H	0.266335	0.003866	-0.077214
N102	N	0.687060	-0.496621	-0.000192
H103	H	0.646425	-0.527753	-0.000180
H104	H	0.684776	-0.463470	0.044701
H105	H	0.837073	-0.024330	0.430655
N106	N	0.918689	-0.006472	0.655625
H107	H	0.949391	0.022355	0.623973
H108	H	0.948620	-0.039158	0.691363
N109	N	0.485946	-0.040228	-0.000188
H110	H	0.525206	-0.083383	-0.000177
H111	H	0.456225	-0.043716	0.044697
H112	H	0.837081	-0.024326	0.568947
H113	H	0.624733	-0.019749	-0.000145
N114	N	0.409049	-0.007849	-0.088397
H115	H	0.379198	-0.041863	-0.115285
H116	H	0.435737	0.020485	-0.124629
N117	N	0.918729	-0.006447	0.814083
H118	H	0.948711	-0.039125	0.778360
H119	H	0.949376	0.022467	0.845681
N120	N	0.721998	0.208037	0.814143
H121	H	0.729182	0.200210	0.868213
H122	H	0.729925	0.261709	0.800808
