data_functionalizedCrystal
_audit_creation_method	'MofGen! by Chris Wilmer'
_symmetry_space_group_name_H-M	'P1'
_symmetry_Int_Tables_number	1
_symmetry_cell_setting	triclinic
loop_
_symmetry_equiv_pos_as_xyz
  x,y,z
_cell_length_a	18.215407
_cell_length_b	10.686285
_cell_length_c	18.215399
_cell_angle_alpha	85.609148
_cell_angle_beta	89.980167
_cell_angle_gamma	85.632014
loop_
_atom_site_label
_atom_site_type_symbol
_atom_site_fract_x
_atom_site_fract_y
_atom_site_fract_z
Zn1	Zn	1.147639	-0.502344	-0.393704
Zn2	Zn	1.397639	-0.252344	-0.143704
Zn3	Zn	1.647639	-0.002344	0.106296
Zn4	Zn	1.897639	0.247656	0.356296
Zn5	Zn	1.157027	-0.713359	-0.261223
Zn6	Zn	1.407027	-0.463359	-0.011223
Zn7	Zn	1.657027	-0.213359	0.238777
Zn8	Zn	1.907027	0.036641	0.488777
Zn9	Zn	1.024574	-0.502385	-0.270649
Zn10	Zn	1.274574	-0.252385	-0.020649
Zn11	Zn	1.524574	-0.002385	0.229351
Zn12	Zn	1.774574	0.247615	0.479351
Zn13	Zn	1.034014	-0.713289	-0.384251
Zn14	Zn	1.284014	-0.463289	-0.134251
Zn15	Zn	1.534014	-0.213289	0.115749
Zn16	Zn	1.784014	0.036711	0.365749
O17	O	1.090813	-0.607844	-0.327457
O18	O	1.340813	-0.357844	-0.077457
O19	O	1.590813	-0.107844	0.172543
O20	O	1.840813	0.142156	0.422543
O21	O	1.251869	-0.530347	-0.376141
O22	O	1.501869	-0.280347	-0.126141
O23	O	1.751869	-0.030347	0.123859
O24	O	2.001869	0.219653	0.373859
O25	O	1.139435	-0.685420	-0.159487
O26	O	1.389435	-0.435420	0.090513
O27	O	1.639435	-0.185420	0.340513
O28	O	1.889435	0.064580	0.590513
O29	O	1.033019	-0.325804	-0.294874
O30	O	1.283019	-0.075804	-0.044874
O31	O	1.533019	0.174196	0.205126
O32	O	1.783019	0.424196	0.455126
O33	O	1.258767	-0.685380	-0.278808
O34	O	1.508767	-0.435380	-0.028808
O35	O	1.758767	-0.185380	0.221192
O36	O	2.008767	0.064620	0.471192
O37	O	1.123434	-0.325774	-0.385281
O38	O	1.373434	-0.075774	-0.135281
O39	O	1.623434	0.174226	0.114719
O40	O	1.873434	0.424226	0.364719
O41	O	1.042122	-0.530418	-0.166413
O42	O	1.292122	-0.280418	0.083587
O43	O	1.542122	-0.030418	0.333587
O44	O	1.792122	0.219582	0.583587
O45	O	0.922841	-0.530350	-0.285708
O46	O	1.172841	-0.280350	-0.035708
O47	O	1.422841	-0.030350	0.214292
O48	O	1.672841	0.219650	0.464292
O49	O	1.049109	-0.685260	-0.488492
O50	O	1.299109	-0.435260	-0.238492
O51	O	1.549109	-0.185260	0.011508
O52	O	1.799109	0.064740	0.261508
O53	O	0.929777	-0.685300	-0.369171
O54	O	1.179777	-0.435300	-0.119171
O55	O	1.429777	-0.185300	0.130829
O56	O	1.679777	0.064700	0.380829
O57	O	1.132588	-0.530279	-0.495436
O58	O	1.382588	-0.280279	-0.245436
O59	O	1.632588	-0.030279	0.004564
O60	O	1.882588	0.219721	0.254564
O61	O	1.148589	-0.889925	-0.269642
O62	O	1.398589	-0.639925	-0.019642
O63	O	1.648589	-0.389925	0.230358
O64	O	1.898589	-0.139925	0.480358
O65	O	1.058212	-0.889873	-0.360030
O66	O	1.308212	-0.639873	-0.110030
O67	O	1.558212	-0.389873	0.139970
O68	O	1.808212	-0.139873	0.389970
C69	C	0.899606	-0.607823	-0.327437
C70	C	1.149606	-0.357823	-0.077437
C71	C	1.399606	-0.107823	0.172563
C72	C	1.649606	0.142177	0.422563
C73	C	0.817808	-0.607844	-0.327444
C74	C	1.067808	-0.357844	-0.077444
C75	C	1.317808	-0.107844	0.172556
C76	C	1.567808	0.142156	0.422556
C77	C	0.633251	-0.688653	-0.370839
C78	C	0.883251	-0.438653	-0.120839
C79	C	1.133251	-0.188653	0.129161
C80	C	1.383251	0.061347	0.379161
C81	C	0.556392	-0.688657	-0.370848
C82	C	0.806392	-0.438657	-0.120848
C83	C	1.056392	-0.188657	0.129152
C84	C	1.306392	0.061343	0.379152
C85	C	0.549129	-0.527058	-0.284090
C86	C	0.799129	-0.277058	-0.034090
C87	C	1.049129	-0.027058	0.215910
C88	C	1.299129	0.222942	0.465910
C89	C	0.625986	-0.527049	-0.284086
C90	C	0.875986	-0.277049	-0.034086
C91	C	1.125986	-0.027049	0.215914
C92	C	1.375986	0.222951	0.465914
C93	C	0.668045	-0.607853	-0.327459
C94	C	0.918045	-0.357853	-0.077459
C95	C	1.168045	-0.107853	0.172541
C96	C	1.418045	0.142147	0.422541
C97	C	0.514330	-0.607867	-0.327472
C98	C	0.764330	-0.357867	-0.077472
C99	C	1.014330	-0.107867	0.172528
C100	C	1.264330	0.142133	0.422528
C101	C	0.430996	-0.607870	-0.327482
C102	C	0.680996	-0.357870	-0.077482
C103	C	0.930996	-0.107870	0.172518
C104	C	1.180996	0.142130	0.422518
C105	C	0.751384	-0.607848	-0.327450
C106	C	1.001384	-0.357848	-0.077450
C107	C	1.251384	-0.107848	0.172550
C108	C	1.501384	0.142152	0.422550
C109	C	1.105463	-0.935683	-0.312804
C110	C	1.355463	-0.685683	-0.062804
C111	C	1.605463	-0.435683	0.187196
C112	C	1.855463	-0.185683	0.437196
C113	C	1.111798	-1.075934	-0.306560
C114	C	1.361798	-0.825934	-0.056560
C115	C	1.611798	-0.575934	0.193440
C116	C	1.861798	-0.325934	0.443440
C117	C	1.282767	-0.607867	-0.327478
C118	C	1.532767	-0.357867	-0.077478
C119	C	1.782767	-0.107867	0.172522
C120	C	2.032767	0.142133	0.422522
C121	C	1.364567	-0.607876	-0.327486
C122	C	1.614567	-0.357876	-0.077486
C123	C	1.864567	-0.107876	0.172514
C124	C	2.114567	0.142124	0.422514
C125	C	1.090854	-0.607757	-0.519414
C126	C	1.340854	-0.357757	-0.269414
C127	C	1.590854	-0.107757	-0.019414
C128	C	1.840854	0.142243	0.230586
C129	C	1.090872	-0.607720	-0.601214
C130	C	1.340872	-0.357720	-0.351214
C131	C	1.590872	-0.107720	-0.101214
C132	C	1.840872	0.142280	0.148786
C133	C	1.076126	-0.278725	-0.342183
C134	C	1.326126	-0.028725	-0.092183
C135	C	1.576126	0.221275	0.157817
C136	C	1.826126	0.471275	0.407817
C137	C	1.069867	-0.138474	-0.348459
C138	C	1.319867	0.111526	-0.098459
C139	C	1.569867	0.361526	0.151541
C140	C	1.819867	0.611526	0.401541
C141	C	1.134353	-0.526946	-0.793029
C142	C	1.384353	-0.276946	-0.543029
C143	C	1.634353	-0.026946	-0.293029
C144	C	1.884353	0.223054	-0.043029
C145	C	1.134360	-0.526909	-0.869890
C146	C	1.384360	-0.276909	-0.619890
C147	C	1.634360	-0.026909	-0.369890
C148	C	1.884360	0.223091	-0.119890
C149	C	1.047434	-0.688299	-0.862646
C150	C	1.297434	-0.438299	-0.612646
C151	C	1.547434	-0.188299	-0.362646
C152	C	1.797434	0.061701	-0.112646
C153	C	1.047423	-0.688328	-0.785788
C154	C	1.297423	-0.438328	-0.535788
C155	C	1.547423	-0.188328	-0.285788
C156	C	1.797423	0.061672	-0.035788
C157	C	1.090887	-0.607654	-0.750981
C158	C	1.340887	-0.357654	-0.500981
C159	C	1.590887	-0.107654	-0.250981
C160	C	1.840887	0.142346	-0.000981
C161	C	1.090905	-0.607588	-0.904700
C162	C	1.340905	-0.357588	-0.654700
C163	C	1.590905	-0.107588	-0.404700
C164	C	1.840905	0.142412	-0.154700
C165	C	1.090912	-0.607548	-0.988036
C166	C	1.340912	-0.357548	-0.738036
C167	C	1.590912	-0.107548	-0.488036
C168	C	1.840912	0.142452	-0.238036
C169	C	1.090879	-0.607691	-0.667640
C170	C	1.340879	-0.357691	-0.417640
C171	C	1.590879	-0.107691	-0.167640
C172	C	1.840879	0.142309	0.082360
C173	C	1.090811	-0.607840	-0.136251
C174	C	1.340811	-0.357840	0.113749
C175	C	1.590811	-0.107840	0.363749
C176	C	1.840811	0.142160	0.613749
C177	C	1.090920	-0.607521	-0.054467
C178	C	1.340920	-0.357521	0.195533
C179	C	1.590920	-0.107521	0.445533
C180	C	1.840920	0.142479	0.695533
H181	H	0.514875	-0.461271	-0.248777
H182	H	0.764875	-0.211271	0.001223
H183	H	1.014875	0.038729	0.251223
H184	H	1.264875	0.288729	0.501223
H185	H	1.012048	-0.753984	-0.890995
H186	H	1.262048	-0.503984	-0.640995
H187	H	1.512048	-0.253984	-0.390995
H188	H	1.762048	-0.003984	-0.140995
H189	H	1.029123	-1.084722	-0.389109
H190	H	1.279123	-0.834722	-0.139109
H191	H	1.529123	-0.584722	0.110891
H192	H	1.779123	-0.334722	0.360891
Cl193	Cl	1.174701	-1.158925	-0.243786
Cl194	Cl	1.424701	-0.908925	0.006214
Cl195	Cl	1.674701	-0.658925	0.256214
Cl196	Cl	1.924701	-0.408925	0.506214
Cl197	Cl	1.188991	-0.425522	-0.749275
Cl198	Cl	1.438991	-0.175522	-0.499275
Cl199	Cl	1.688991	0.074478	-0.249275
Cl200	Cl	1.938991	0.324478	0.000725
H201	H	1.169754	-0.461187	-0.904122
H202	H	1.419754	-0.211187	-0.654122
H203	H	1.669754	0.038813	-0.404122
H204	H	1.919754	0.288813	-0.154122
H205	H	1.012022	-0.754049	-0.751551
H206	H	1.262022	-0.504049	-0.501551
H207	H	1.512022	-0.254049	-0.251551
H208	H	1.762022	-0.004049	-0.001551
H209	H	0.667493	-0.754447	-0.406158
H210	H	0.917493	-0.504447	-0.156158
H211	H	1.167493	-0.254447	0.093842
H212	H	1.417493	-0.004447	0.343842
Cl213	Cl	0.669731	-0.425455	-0.229551
Cl214	Cl	0.919731	-0.175455	0.020449
Cl215	Cl	1.169731	0.074545	0.270449
Cl216	Cl	1.419731	0.324545	0.520449
Cl217	Cl	0.512654	-0.790237	-0.425387
Cl218	Cl	0.762654	-0.540237	-0.175387
Cl219	Cl	1.012654	-0.290237	0.074613
Cl220	Cl	1.262654	-0.040237	0.324613
