data_functionalizedCrystal
_audit_creation_method	'MofGen! by Chris Wilmer'
_symmetry_space_group_name_H-M	'P1'
_symmetry_Int_Tables_number	1
_symmetry_cell_setting	triclinic
loop_
_symmetry_equiv_pos_as_xyz
  x,y,z
_cell_length_a	17.699083
_cell_length_b	9.065218
_cell_length_c	8.140239
_cell_angle_alpha	90.001686
_cell_angle_beta	89.996690
_cell_angle_gamma	84.149450
loop_
_atom_site_label
_atom_site_type_symbol
_atom_site_fract_x
_atom_site_fract_y
_atom_site_fract_z
O1	O	-1.005529	-0.186555	-0.136376
O2	O	-0.785340	-0.210827	-0.136429
O3	O	-0.899986	0.016086	-0.136398
O4	O	-0.890883	-0.413468	-0.136407
O5	O	-0.899979	0.016089	0.136829
O6	O	-0.785333	-0.210824	0.136798
O7	O	-1.005522	-0.186553	0.136851
Zn8	Zn	-0.895427	-0.198688	0.180205
Zn9	Zn	-0.895435	-0.198691	-0.179783
O10	O	-0.890877	-0.413466	0.136820
C11	C	-0.899108	0.071048	0.000212
C12	C	-0.896492	0.234814	0.000204
C13	C	-0.757133	-0.209956	0.000177
C14	C	-0.673094	-0.207347	0.000157
C15	C	-1.033729	-0.187423	0.000240
C16	C	-1.117768	-0.190033	0.000250
C17	C	-0.625512	-0.340540	0.000155
C18	C	-0.546550	-0.338080	0.000176
C19	C	-0.515171	-0.202425	0.000188
C20	C	-0.562759	-0.069221	0.000195
C21	C	-0.641720	-0.071683	0.000186
C22	C	-0.244319	-0.059289	0.000236
C23	C	-0.165352	-0.056838	0.000241
C24	C	-0.149148	-0.325686	0.000226
C25	C	-0.228109	-0.328148	0.000217
C26	C	-0.275691	-0.194946	0.000233
C27	C	-0.361311	-0.197615	0.000213
C28	C	-0.429552	-0.199754	0.000196
C29	C	-0.891755	-0.468428	0.000206
C30	C	-0.894370	-0.632193	0.000203
N31	N	-0.895427	-0.198685	0.425888
N32	N	-0.895441	-0.198683	-0.425466
H33	H	-0.651054	-0.451006	0.000144
H34	H	-0.507811	-0.446539	0.000172
C35	C	-0.097613	-0.470472	0.000143
C36	C	-0.141996	-0.589796	0.000078
C37	C	-0.094551	-0.723189	-0.000028
H38	H	-0.066464	-0.475320	0.095402
H39	H	-0.066480	-0.475178	-0.095171
H40	H	-0.173116	-0.585091	0.095383
H41	H	-0.173144	-0.584997	-0.095173
H42	H	-0.063418	-0.727896	-0.095342
H43	H	-0.063404	-0.728022	0.095233
H44	H	-0.124658	-0.804166	-0.000087
H45	H	-0.139807	0.053635	0.000252
C46	C	-0.295845	0.085486	0.000162
C47	C	-0.251461	0.204807	0.000126
C48	C	-0.298904	0.338202	0.000037
H49	H	-0.327002	0.090328	0.095417
H50	H	-0.326971	0.090201	-0.095157
H51	H	-0.220348	0.200094	0.095435
H52	H	-0.220304	0.200014	-0.095122
H53	H	-0.330029	0.342918	-0.095281
H54	H	-0.330059	0.343029	0.095293
H55	H	-0.268796	0.419178	-0.000002
H56	H	-0.680462	0.036777	0.000186
C57	C	-0.528548	0.077915	0.000127
C58	C	-0.449213	0.051567	0.000087
C59	C	-0.417674	0.187076	-0.000003
H60	H	-0.544738	0.132858	0.095382
H61	H	-0.544772	0.132759	-0.095191
H62	H	-0.432995	-0.003253	0.095394
H63	H	-0.433002	-0.003354	-0.095162
H64	H	-0.433898	0.241919	-0.095321
H65	H	-0.433869	0.242009	0.095254
H66	H	-0.363842	0.169217	-0.000046
H67	H	-0.253653	-0.438612	0.000200
