data_functionalizedCrystal
_audit_creation_method	'MofGen! by Chris Wilmer'
_symmetry_space_group_name_H-M	'P1'
_symmetry_Int_Tables_number	1
_symmetry_cell_setting	triclinic
loop_
_symmetry_equiv_pos_as_xyz
  x,y,z
_cell_length_a	17.666332
_cell_length_b	19.188930
_cell_length_c	19.188930
_cell_angle_alpha	83.144779
_cell_angle_beta	89.988397
_cell_angle_gamma	89.976766
loop_
_atom_site_label
_atom_site_type_symbol
_atom_site_fract_x
_atom_site_fract_y
_atom_site_fract_z
O1	O	0.063200	-0.926150	-0.087169
O2	O	0.563200	-0.426150	0.412831
O3	O	0.063149	-0.722838	-0.098903
O4	O	0.563149	-0.222838	0.401097
O5	O	0.063161	-0.830361	0.008620
O6	O	0.563161	-0.330361	0.508620
O7	O	0.063188	-0.818627	-0.194692
O8	O	0.563188	-0.318627	0.305308
O9	O	-0.062735	-0.830342	0.008625
O10	O	0.437265	-0.330342	0.508625
O11	O	-0.062747	-0.722820	-0.098897
O12	O	0.437253	-0.222820	0.401103
O13	O	-0.062697	-0.926131	-0.087163
O14	O	0.437303	-0.426131	0.412837
Cu15	Cu	-0.074217	-0.824473	-0.093030
Cu16	Cu	0.425783	-0.324473	0.406970
Cu17	Cu	0.074670	-0.824496	-0.093036
Cu18	Cu	0.574670	-0.324496	0.406964
O19	O	-0.062709	-0.818608	-0.194686
O20	O	0.437291	-0.318608	0.305314
C21	C	0.000194	-0.696818	-0.098520
C22	C	0.500194	-0.196818	0.401480
C23	C	0.000174	-0.619313	-0.097380
C24	C	0.500174	-0.119313	0.402620
N25	N	-0.178937	-0.824463	-0.093025
N26	N	0.321063	-0.324463	0.406975
C27	C	0.000211	-0.829972	0.034634
C28	C	0.500211	-0.329972	0.534634
C29	C	0.000204	-0.828831	0.112138
C30	C	0.500204	-0.328831	0.612138
C31	C	-0.218541	-0.872089	-0.045437
C32	C	0.281459	-0.372089	0.454563
C33	C	-0.297789	-0.872093	-0.045433
C34	C	0.202211	-0.372093	0.454567
C35	C	-0.337429	-0.824478	-0.093030
C36	C	0.162571	-0.324478	0.406970
C37	C	-0.297815	-0.776842	-0.140621
C38	C	0.202185	-0.276842	0.359379
C39	C	-0.218569	-0.776835	-0.140619
C40	C	0.281431	-0.276835	0.359381
N41	N	-0.461841	-0.815401	-0.154837
N42	N	0.038159	-0.315401	0.345163
N43	N	-0.537121	-0.815413	-0.154837
N44	N	-0.037121	-0.315413	0.345163
C45	C	-0.576193	-0.824496	-0.093040
C46	C	-0.076193	-0.324496	0.406960
N47	N	-0.537140	-0.833582	-0.031239
N48	N	-0.037140	-0.333582	0.468761
N49	N	-0.461853	-0.833574	-0.031240
N50	N	0.038147	-0.333574	0.468760
C51	C	-0.423358	-0.824480	-0.093038
C52	C	0.076642	-0.324480	0.406962
C53	C	-0.701727	-0.872130	-0.045444
C54	C	-0.201727	-0.372130	0.454556
C55	C	-0.780976	-0.872129	-0.045440
C56	C	-0.280976	-0.372129	0.454560
C57	C	-0.781000	-0.776881	-0.140634
C58	C	-0.281000	-0.276881	0.359366
C59	C	-0.701753	-0.776878	-0.140632
C60	C	-0.201753	-0.276878	0.359368
C61	C	-0.662121	-0.824506	-0.093038
C62	C	-0.162121	-0.324506	0.406962
N63	N	0.179390	-0.824512	-0.093036
N64	N	0.679390	-0.324512	0.406964
C65	C	0.000260	-0.952151	-0.087546
C66	C	0.500260	-0.452151	0.412454
C67	C	0.000285	-1.029656	-0.088687
C68	C	0.500285	-0.529656	0.411313
C69	C	0.000194	-0.574389	-0.160470
C70	C	0.500194	-0.074389	0.339530
C71	C	0.000203	-0.501566	-0.159399
C72	C	0.500203	-0.001566	0.340601
C73	C	0.000206	-0.473669	-0.095233
C74	C	0.500206	0.026331	0.404767
C75	C	0.000181	-0.518603	-0.032133
C76	C	0.500181	-0.018603	0.467867
C77	C	0.000166	-0.591425	-0.033207
C78	C	0.500166	-0.091425	0.466793
N79	N	0.043078	-0.365695	-0.046188
N80	N	0.543078	0.134305	0.453812
N81	N	0.043095	-0.296517	-0.045172
N82	N	0.543095	0.203483	0.454828
C83	C	0.000252	-0.254260	-0.091994
C84	C	0.500252	0.245740	0.408006
N85	N	-0.042599	-0.283795	-0.139881
N86	N	0.457401	0.216205	0.360119
N87	N	-0.042612	-0.352979	-0.140899
N88	N	0.457388	0.147021	0.359101
C89	C	0.000222	-0.394707	-0.094062
C90	C	0.500222	0.105293	0.405938
C91	C	0.000280	-0.130372	-0.153928
C92	C	0.500280	0.369628	0.346072
C93	C	0.000283	-0.057547	-0.152853
C94	C	0.500283	0.442453	0.347147
C95	C	0.000270	-0.074586	-0.025586
C96	C	0.500270	0.425414	0.474414
C97	C	0.000258	-0.147409	-0.026662
C98	C	0.500258	0.352591	0.473338
C99	C	0.000267	-0.175298	-0.090835
C100	C	0.500267	0.324702	0.409165
C101	C	0.000244	-0.818997	-0.220700
C102	C	0.500244	-0.318997	0.279300
C103	C	0.000255	-0.820138	-0.298204
C104	C	0.500255	-0.320138	0.201796
C105	C	0.000216	-0.891922	0.157062
C106	C	0.500216	-0.391922	0.657062
C107	C	0.000228	-0.890850	0.229886
C108	C	0.500228	-0.390850	0.729886
C109	C	0.000212	-0.826684	0.257782
C110	C	0.500212	-0.326684	0.757782
C111	C	0.000205	-0.763585	0.212849
C112	C	0.500205	-0.263585	0.712849
C113	C	0.000200	-0.764658	0.140026
C114	C	0.500200	-0.264658	0.640026
N115	N	-0.042645	-0.777630	0.365789
N116	N	0.457355	-0.277630	0.865789
N117	N	-0.042642	-0.776615	0.434968
N118	N	0.457358	-0.276615	0.934968
C119	C	0.000227	-0.823446	0.477191
C120	C	0.500227	-0.323446	0.977191
N121	N	0.043084	-0.871341	0.447624
N122	N	0.543084	-0.371341	0.947624
N123	N	0.043079	-0.872359	0.378439
N124	N	0.543079	-0.372359	0.878439
C125	C	0.000218	-0.825513	0.336745
C126	C	0.500218	-0.325513	0.836745
C127	C	0.000253	-0.885379	0.601079
C128	C	0.500253	-0.385379	1.101079
C129	C	0.000270	-0.884305	0.673904
C130	C	0.500270	-0.384305	1.173904
C131	C	0.000239	-0.757038	0.656865
C132	C	0.500239	-0.257038	1.156865
C133	C	0.000230	-0.758114	0.584042
C134	C	0.500230	-0.258114	1.084042
C135	C	0.000233	-0.822287	0.556154
C136	C	0.500233	-0.322287	1.056154
H137	H	-0.186275	-0.910869	-0.006681
H138	H	0.313725	-0.410869	0.493319
H139	H	0.000295	-0.020970	-0.204232
H140	H	0.500295	0.479030	0.295768
F141	F	0.000181	-0.488912	0.036157
F142	F	0.500181	0.011088	0.536157
F143	F	0.000241	-0.195223	0.040488
F144	F	0.500241	0.304777	0.540488
F145	F	0.000236	-0.960220	0.127385
F146	F	0.500236	-0.460220	0.627385
F147	F	0.000242	-0.958003	0.277706
F148	F	0.500242	-0.458003	0.777706
F149	F	0.000201	-0.604066	-0.228769
F150	F	0.500201	-0.104066	0.271231
H151	H	-0.813222	-0.910910	-0.006684
H152	H	-0.313222	-0.410910	0.493316
H153	H	0.000194	-0.711340	0.235567
H154	H	0.500194	-0.211340	0.735567
F155	F	0.000144	-0.639238	0.033946
F156	F	0.500144	-0.139238	0.533946
H157	H	-0.669457	-0.910909	-0.006688
H158	H	-0.169457	-0.410909	0.493312
H159	H	0.000190	-0.713281	0.103448
H160	H	0.500190	-0.213281	0.603448
H161	H	0.000276	-0.153080	-0.206181
H162	H	0.500276	0.346920	0.293819
F163	F	-0.823185	-0.726201	-0.191285
F164	F	-0.323185	-0.226201	0.308715
H165	H	0.000284	-0.935683	0.710481
H166	H	0.500284	-0.435683	1.210481
F167	F	0.000226	-0.688747	0.686550
F168	F	0.500226	-0.188747	1.186550
H169	H	0.000319	-0.051874	0.026659
H170	H	0.500319	0.448126	0.526659
F171	F	0.000214	-0.690963	0.536229
F172	F	0.500214	-0.190963	1.036229
F173	F	-0.339946	-0.922787	0.005219
F174	F	0.160054	-0.422787	0.505219
F175	F	-0.340003	-0.726164	-0.191275
F176	F	0.159997	-0.226164	0.308725
H177	H	0.000259	-0.937632	0.578372
H178	H	0.500259	-0.437632	1.078372
F179	F	-0.659600	-0.726191	-0.191285
F180	F	-0.159600	-0.226191	0.308715
F181	F	-0.176417	-0.726143	-0.191271
F182	F	0.323583	-0.226143	0.308729
H183	H	0.000217	-0.464982	-0.210776
H184	H	0.500217	0.035018	0.289224
