data_functionalizedCrystal
_audit_creation_method	'MofGen! by Chris Wilmer'
_symmetry_space_group_name_H-M	'P1'
_symmetry_Int_Tables_number	1
_symmetry_cell_setting	triclinic
loop_
_symmetry_equiv_pos_as_xyz
  x,y,z
_cell_length_a	13.262390
_cell_length_b	15.944493
_cell_length_c	11.804365
_cell_angle_alpha	101.834508
_cell_angle_beta	62.657606
_cell_angle_gamma	83.974277
loop_
_atom_site_label
_atom_site_type_symbol
_atom_site_fract_x
_atom_site_fract_y
_atom_site_fract_z
O1	O	1.519272	0.012350	-0.591093
O2	O	1.190902	0.042787	-0.484737
O3	O	1.364090	-0.095179	-0.540841
O4	O	1.346083	0.150317	-0.534989
O5	O	1.318496	-0.058892	-0.328015
O6	O	1.145308	0.079075	-0.271911
O7	O	1.473678	0.048637	-0.378267
Cu8	Cu	1.305330	0.067169	-0.305656
Cu9	Cu	1.359250	0.024255	-0.557348
O10	O	1.300490	0.186604	-0.322163
C11	C	1.126085	0.062562	-0.364715
C12	C	1.000881	0.067412	-0.324163
C13	C	0.747376	0.001949	-0.673920
C14	C	0.865013	-0.002612	-0.712022
C15	C	0.898986	0.014894	-0.615061
C16	C	0.815310	0.036962	-0.479990
C17	C	0.697662	0.041517	-0.441884
C18	C	0.849272	0.054461	-0.383025
C19	C	0.765596	0.076529	-0.247954
C20	C	0.647961	0.081084	-0.209855
C21	C	0.613988	0.063578	-0.306816
C22	C	0.966920	0.049906	-0.421131
C23	C	0.917206	0.089474	-0.189095
C24	C	0.799569	0.094035	-0.150993
C25	C	1.340559	-0.108293	-0.434195
C26	C	1.338356	-0.201430	-0.433497
C27	C	1.440292	-0.442488	-0.466491
C28	C	1.407799	-0.508088	-0.553619
C29	C	1.334265	-0.371936	-0.432157
C30	C	1.362823	-0.472287	-0.343781
C31	C	1.330321	-0.536637	-0.430860
C32	C	1.301819	-0.436324	-0.519382
C33	C	1.256838	-0.400503	-0.309455
C34	C	1.224273	-0.466071	-0.396583
C35	C	1.336541	-0.277056	-0.432907
C36	C	1.328039	-0.631515	-0.430118
C37	C	1.538495	0.028862	-0.498292
C38	C	1.663701	0.024010	-0.538852
C39	C	1.324022	0.199718	-0.428812
C40	C	1.326226	0.292853	-0.429518
N41	N	1.267414	0.097352	-0.128633
N42	N	1.397175	-0.005934	-0.734374
C43	C	1.488226	-0.078429	0.173784
C44	C	1.516908	-0.101265	0.039831
C45	C	1.454537	-0.051613	-0.002292
C46	C	1.363479	0.020880	0.089552
C47	C	1.334799	0.043722	0.223517
C48	C	1.301110	0.070538	0.047441
C49	C	1.210052	0.143031	0.139285
C50	C	1.181377	0.165869	0.273236
C51	C	1.243749	0.116217	0.315359
C52	C	1.329789	0.047695	-0.086524
C53	C	1.176363	0.169847	-0.036791
C54	C	1.147680	0.192683	0.097162
H55	H	0.731425	0.112003	-0.041016
Cl56	Cl	1.402645	-0.497198	-0.229222
Cl57	Cl	1.083177	-0.482628	-0.350962
Cl58	Cl	1.581330	-0.425716	-0.512318
H59	H	0.518200	0.067294	-0.275800
H60	H	0.933135	-0.020585	-0.821997
H61	H	1.591048	-0.160287	-0.034944
Cl62	Cl	1.262106	-0.411619	-0.634123
H63	H	0.579836	0.099038	-0.099872
H64	H	1.220393	0.134808	0.424434
H65	H	1.471582	-0.554489	-0.656837
H66	H	1.125576	0.210279	-0.071085
H67	H	0.994772	0.011179	-0.646092
H68	H	1.107241	0.224903	0.348014
Cl69	Cl	1.158444	-0.328820	-0.150114
Cl70	Cl	1.444257	-0.043435	-0.201967
H71	H	0.944865	0.103727	-0.110141
Cl72	Cl	1.490592	-0.080325	-0.170692
Cl73	Cl	1.566636	-0.140835	0.226739
H74	H	0.719703	-0.012310	-0.752852
Cl75	Cl	1.033211	0.283815	0.212634
H76	H	1.035038	0.031940	-0.531106
