data_functionalizedCrystal
_audit_creation_method	'MofGen! by Chris Wilmer'
_symmetry_space_group_name_H-M	'P1'
_symmetry_Int_Tables_number	1
_symmetry_cell_setting	triclinic
loop_
_symmetry_equiv_pos_as_xyz
  x,y,z
_cell_length_a	16.109301
_cell_length_b	13.596369
_cell_length_c	16.109301
_cell_angle_alpha	90.001433
_cell_angle_beta	96.538519
_cell_angle_gamma	89.996453
loop_
_atom_site_label
_atom_site_type_symbol
_atom_site_fract_x
_atom_site_fract_y
_atom_site_fract_z
O1	O	1.103135	-0.081732	-0.106861
O2	O	1.436468	0.251601	0.226472
O3	O	1.769801	0.584934	0.559806
O4	O	0.861073	-0.081748	-0.120160
O5	O	1.194406	0.251585	0.213173
O6	O	1.527739	0.584918	0.546506
O7	O	0.988753	-0.081730	0.007520
O8	O	1.322087	0.251603	0.340854
O9	O	1.655420	0.584937	0.674187
O10	O	0.975454	-0.081751	-0.234542
O11	O	1.308787	0.251583	0.098792
O12	O	1.642121	0.584916	0.432125
O13	O	0.988737	0.081853	0.007512
O14	O	1.322070	0.415186	0.340845
O15	O	1.655403	0.748520	0.674179
O16	O	0.861056	0.081835	-0.120169
O17	O	1.194389	0.415168	0.213165
O18	O	1.527723	0.748501	0.546498
O19	O	1.103118	0.081851	-0.106869
O20	O	1.436451	0.415184	0.226464
O21	O	1.769785	0.748517	0.559797
Zn22	Zn	0.982084	0.107815	-0.113520
Zn23	Zn	1.315418	0.441148	0.219813
Zn24	Zn	1.648751	0.774482	0.553147
Zn25	Zn	0.982106	-0.107713	-0.113509
Zn26	Zn	1.315440	0.225621	0.219824
Zn27	Zn	1.648773	0.558954	0.553157
O28	O	0.975437	0.081832	-0.234550
O29	O	1.308771	0.415165	0.098783
O30	O	1.642104	0.748499	0.432117
C31	C	0.830090	0.000041	-0.119626
C32	C	1.163423	0.333374	0.213708
C33	C	1.496756	0.666708	0.547041
C34	C	0.737794	0.000035	-0.118011
C35	C	1.071128	0.333369	0.215323
C36	C	1.404461	0.666702	0.548656
N37	N	0.982075	0.254907	-0.113527
N38	N	1.315409	0.588240	0.219806
N39	N	1.648742	0.921573	0.553140
C40	C	0.515522	0.000041	-0.190018
C41	C	0.848855	0.333374	0.143315
C42	C	1.182188	0.666707	0.476648
C43	C	0.428801	0.000047	-0.188494
C44	C	0.762135	0.333380	0.144839
C45	C	1.095468	0.666714	0.478172
C46	C	0.448676	0.000056	-0.037006
C47	C	0.782009	0.333389	0.296328
C48	C	1.115342	0.666723	0.629661
C49	C	0.535394	0.000057	-0.038530
C50	C	0.868728	0.333390	0.294803
C51	C	1.202061	0.666723	0.628136
C52	C	0.568815	0.000044	-0.115039
C53	C	0.902148	0.333377	0.218294
C54	C	1.235482	0.666711	0.551627
C55	C	0.395376	0.000050	-0.111990
C56	C	0.728709	0.333383	0.221343
C57	C	1.062042	0.666716	0.554676
C58	C	0.301350	0.000057	-0.110337
C59	C	0.634683	0.333390	0.222996
C60	C	0.968016	0.666723	0.556329
C61	C	0.662847	0.000039	-0.116693
C62	C	0.996180	0.333372	0.216641
C63	C	1.329514	0.666705	0.549974
C64	C	0.982079	0.343905	-0.113529
C65	C	1.315413	0.677238	0.219804
C66	C	1.648746	1.010571	0.553137
C67	C	0.982087	0.455556	-0.113524
C68	C	1.315420	0.788889	0.219809
C69	C	1.648753	1.122223	0.553142
C70	C	0.982097	0.544546	-0.113515
C71	C	1.315430	0.877880	0.219818
C72	C	1.648764	1.211213	0.553151
C73	C	0.982106	0.656205	-0.113511
C74	C	1.315439	0.989538	0.219822
C75	C	1.648772	1.322872	0.553155
C76	C	1.134101	0.000059	-0.107404
C77	C	1.467435	0.333392	0.225929
C78	C	1.800768	0.666726	0.559263
C79	C	1.226397	0.000058	-0.109019
C80	C	1.559730	0.333392	0.224314
C81	C	1.893063	0.666725	0.557648
C82	C	0.988206	0.000062	0.038491
C83	C	1.321540	0.333395	0.371824
C84	C	1.654873	0.666729	0.705158
C85	C	0.986591	0.000063	0.130786
C86	C	1.319925	0.333397	0.464120
C87	C	1.653258	0.666730	0.797453
N88	N	0.982116	0.745195	-0.113502
N89	N	1.315449	1.078529	0.219831
N90	N	1.648783	1.411862	0.553164
C91	C	0.975984	0.000038	-0.265521
C92	C	1.309318	0.333371	0.067813
C93	C	1.642651	0.666705	0.401146
C94	C	0.977600	0.000030	-0.357816
C95	C	1.310933	0.333364	-0.024483
C96	C	1.644266	0.666697	0.308851
C97	C	1.058599	0.000052	0.353059
C98	C	1.391932	0.333386	0.686392
C99	C	1.725266	0.666719	1.019725
C100	C	1.057075	0.000044	0.439779
C101	C	1.390408	0.333378	0.773112
C102	C	1.723742	0.666711	1.106446
C103	C	0.905586	0.000038	0.419905
C104	C	1.238919	0.333371	0.753238
C105	C	1.572253	0.666705	1.086571
C106	C	0.907111	0.000039	0.333186
C107	C	1.240444	0.333373	0.666519
C108	C	1.573778	0.666706	0.999853
C109	C	0.983620	0.000051	0.299766
C110	C	1.316953	0.333385	0.633099
C111	C	1.650287	0.666718	0.966432
C112	C	0.980571	0.000042	0.473205
C113	C	1.313904	0.333375	0.806538
C114	C	1.647238	0.666709	1.139871
C115	C	0.978918	0.000033	0.567231
C116	C	1.312251	0.333367	0.900564
C117	C	1.645585	0.666700	1.233897
C118	C	0.985273	0.000058	0.205734
C119	C	1.318607	0.333392	0.539067
C120	C	1.651940	0.666725	0.872400
H121	H	0.542730	0.000038	-0.252317
H122	H	0.876063	0.333371	0.081017
H123	H	1.209396	0.666704	0.414350
H124	H	0.385413	0.000046	-0.249550
H125	H	0.718746	0.333380	0.083783
H126	H	1.052080	0.666713	0.417117
F127	F	0.413100	0.000065	0.044416
F128	F	0.746433	0.333399	0.377749
F129	F	1.079766	0.666732	0.711083
F130	F	0.592117	0.000067	0.041277
F131	F	0.925450	0.333400	0.374610
F132	F	1.258784	0.666733	0.707944
H133	H	0.843295	0.000030	0.447127
H134	H	1.176628	0.333363	0.780460
H135	H	1.509962	0.666697	1.113793
H136	H	1.120897	0.000060	0.325851
H137	H	1.454231	0.333394	0.659184
H138	H	1.787564	0.666727	0.992518
H139	H	0.846050	0.000036	0.289792
H140	H	1.179384	0.333369	0.623126
H141	H	1.512717	0.666702	0.956459
H142	H	1.118130	0.000043	0.483168
H143	H	1.451464	0.333376	0.816501
H144	H	1.784797	0.666710	1.149834
