data_functionalizedCrystal
_audit_creation_method	'MofGen! by Chris Wilmer'
_symmetry_space_group_name_H-M	'P1'
_symmetry_Int_Tables_number	1
_symmetry_cell_setting	triclinic
loop_
_symmetry_equiv_pos_as_xyz
  x,y,z
_cell_length_a	16.992694
_cell_length_b	10.540539
_cell_length_c	16.053802
_cell_angle_alpha	92.593658
_cell_angle_beta	87.249047
_cell_angle_gamma	87.596857
loop_
_atom_site_label
_atom_site_type_symbol
_atom_site_fract_x
_atom_site_fract_y
_atom_site_fract_z
O1	O	1.045174	0.264306	-0.069318
O2	O	0.816873	0.261349	-0.069343
O3	O	0.936232	0.078573	-0.069329
O4	O	0.925815	0.447082	-0.069332
O5	O	0.929662	0.088589	0.069529
O6	O	0.810303	0.271366	0.069516
O7	O	1.038604	0.274322	0.069540
Zn8	Zn	0.923410	0.274434	0.091575
Zn9	Zn	0.932067	0.261237	-0.091377
O10	O	0.919245	0.457098	0.069526
C11	C	0.784355	0.262556	0.000083
C12	C	0.697247	0.251215	0.000074
C13	C	0.647620	0.360635	0.000073
C14	C	0.565773	0.349973	0.000085
C15	C	0.533555	0.229889	0.000091
C16	C	0.583189	0.120461	0.000094
C17	C	0.665034	0.131125	0.000088
C18	C	0.289709	0.185691	0.000114
C19	C	0.207858	0.175036	0.000117
C20	C	0.190447	0.404549	0.000110
C21	C	0.272294	0.415202	0.000099
C22	C	0.321921	0.305774	0.000106
N23	N	0.449895	0.218988	0.000100
N24	N	0.405579	0.316677	0.000103
C25	C	0.932166	0.036210	0.000099
C26	C	0.929829	-0.104941	0.000094
C27	C	0.840283	-0.296162	-0.000227
C28	C	0.842638	-0.149316	0.000086
C29	C	0.968037	-0.157237	0.079393
C30	C	0.965058	-0.304035	0.079460
C31	C	0.974303	-0.315790	-0.078448
C32	C	0.975156	-0.168814	-0.079496
C33	C	1.071123	0.273115	0.000112
C34	C	1.158230	0.284456	0.000117
C35	C	0.923311	0.499461	0.000097
C36	C	0.925649	0.640612	0.000096
N37	N	0.917508	0.283440	0.216434
N38	N	0.937975	0.252222	-0.216237
C39	C	0.968315	0.205700	0.260134
C40	C	0.964193	0.212013	0.347540
C41	C	0.909269	0.296073	0.391245
C42	C	0.858458	0.373817	0.347539
C43	C	0.862576	0.367497	0.260134
C44	C	0.891281	0.323645	0.652653
C45	C	0.887169	0.329962	0.740063
C46	C	0.992904	0.168156	0.740059
C47	C	0.997020	0.161848	0.652652
C48	C	0.946206	0.239587	0.608954
N49	N	0.905057	0.302531	0.480588
N50	N	0.950415	0.233122	0.519612
H51	H	0.150032	0.493638	0.000105
N52	N	1.047703	0.084302	0.787188
H53	H	1.104180	0.103533	0.771967
H54	H	1.036695	0.101095	0.849175
N55	N	0.173107	0.045511	0.000118
H56	H	0.216964	-0.022195	0.000122
H57	H	0.137095	0.039807	0.051594
H58	H	0.298520	0.512986	0.000084
H59	H	0.821203	0.430799	0.224555
N60	N	0.799223	0.464490	0.394676
H61	H	0.767661	0.512778	0.353727
H62	H	0.762561	0.414941	0.430953
N63	N	0.512281	0.468033	0.000100
H64	H	0.480350	0.465063	-0.051363
H65	H	0.475567	0.472397	0.051620
H66	H	0.948927	-0.354127	-0.138551
H67	H	0.931243	-0.330650	0.138731
H68	H	0.673844	0.458420	0.000068
H69	H	0.330106	0.096587	0.000120
N70	N	0.718563	0.013106	0.000081
H71	H	0.775300	0.038081	0.000080
H72	H	0.705630	-0.035153	0.051560
N73	N	0.548445	-0.009059	0.000114
H74	H	0.489066	0.000786	0.000117
H75	H	0.568981	-0.061029	-0.051360
N76	N	0.802466	-0.102096	-0.075208
H77	H	0.783065	-0.176706	-0.108901
H78	H	0.756297	-0.042621	-0.056209
N79	N	1.047884	-0.360045	0.084259
H80	H	1.061514	-0.418228	0.033437
H81	H	1.086118	-0.289283	0.086351
N82	N	0.798215	-0.343435	-0.075550
H83	H	0.834080	-0.406299	-0.110196
H84	H	0.748865	-0.386302	-0.056563
N85	N	0.791296	-0.334703	0.074666
H86	H	0.824160	-0.392942	0.108803
H87	H	0.772950	-0.256362	0.110008
H88	H	0.842440	0.398419	0.775644
H89	H	0.806696	-0.106338	0.057018
H90	H	1.031928	-0.129114	0.082349
H91	H	0.936097	-0.112911	0.138399
H92	H	0.849907	0.386945	0.617080
H93	H	1.041744	0.093400	0.617070
N94	N	0.938218	-0.123741	-0.157209
H95	H	0.892316	-0.062199	-0.140937
H96	H	0.978748	-0.079889	-0.192394
H97	H	1.038951	-0.139421	-0.084277
H98	H	1.005563	0.148710	0.383120
H99	H	1.037306	-0.357589	-0.078974
H100	H	1.013043	0.137255	0.224555
