data_functionalizedCrystal
_audit_creation_method	'MofGen! by Chris Wilmer'
_symmetry_space_group_name_H-M	'P1'
_symmetry_Int_Tables_number	1
_symmetry_cell_setting	triclinic
loop_
_symmetry_equiv_pos_as_xyz
  x,y,z
_cell_length_a	15.625020
_cell_length_b	17.666332
_cell_length_c	15.538191
_cell_angle_alpha	89.996359
_cell_angle_beta	113.261192
_cell_angle_gamma	108.092715
loop_
_atom_site_label
_atom_site_type_symbol
_atom_site_fract_x
_atom_site_fract_y
_atom_site_fract_z
O1	O	1.156091	0.380329	-0.122916
O2	O	0.888799	0.306948	-0.137565
O3	O	1.074475	0.357926	0.006822
O4	O	0.970414	0.329351	-0.267303
O5	O	1.074452	0.232023	0.006826
O6	O	0.888776	0.181045	-0.137561
O7	O	1.156068	0.254426	-0.122912
Cu8	Cu	1.022420	0.206240	-0.130236
Cu9	Cu	1.022447	0.355135	-0.130241
O10	O	0.970391	0.203448	-0.267299
C11	C	0.855414	0.234835	-0.136900
C12	C	0.755975	0.207536	-0.134913
N13	N	1.022407	0.101517	-0.130232
C14	C	0.615807	0.100435	-0.132109
C15	C	0.709245	0.126094	-0.133976
C16	C	0.709281	0.263351	-0.133977
C17	C	0.615844	0.237704	-0.132105
C18	C	0.569114	0.156245	-0.131172
C19	C	0.569150	0.293514	-0.131169
C20	C	0.475718	0.267868	-0.129302
C21	C	0.428980	0.186412	-0.128371
C22	C	0.475682	0.130598	-0.129305
C23	C	0.615879	0.374972	-0.132108
C24	C	0.569185	0.430782	-0.131171
C25	C	0.475755	0.405137	-0.129298
C26	C	0.429017	0.323681	-0.128368
C27	C	0.429053	0.460951	-0.128364
C28	C	0.335621	0.435304	-0.126497
C29	C	0.335585	0.298035	-0.126501
C30	C	1.058355	0.071781	-0.187450
C31	C	1.058370	-0.007463	-0.187447
C32	C	1.022418	-0.056973	-0.130237
C33	C	0.986471	-0.027227	-0.073008
C34	C	0.986465	0.052018	-0.073005
N35	N	0.944323	-0.202851	-0.127564
N36	N	0.944328	-0.278130	-0.127572
C37	C	1.022433	-0.295732	-0.130241
N38	N	1.100527	-0.235213	-0.132920
N39	N	1.100519	-0.159928	-0.132917
C40	C	1.022420	-0.142901	-0.130233
C41	C	1.058401	-0.411392	-0.187459
C42	C	1.058420	-0.490636	-0.187449
C43	C	0.986510	-0.510401	-0.073015
C44	C	0.986501	-0.431156	-0.073019
C45	C	1.022443	-0.381657	-0.130246
C46	C	1.189453	0.326541	-0.123577
C47	C	1.288891	0.353845	-0.125564
C48	C	1.085351	0.297966	0.041905
C49	C	1.117782	0.306877	0.146437
N50	N	1.022469	0.459860	-0.130238
C51	C	0.959515	0.263410	-0.302382
C52	C	0.927085	0.254504	-0.406914
C53	C	0.795595	0.218410	0.434644
C54	C	0.826091	0.226780	0.532870
C55	C	0.997623	0.273872	0.555092
C56	C	0.967142	0.265509	0.456865
C57	C	0.866126	0.237777	0.396649
C58	C	1.037673	0.284876	0.418870
C59	C	1.007194	0.276510	0.320652
C60	C	0.906183	0.248777	0.260429
C61	C	0.835647	0.229411	0.298431
C62	C	1.138688	0.312603	0.479088
C63	C	1.209220	0.331970	0.441093
C64	C	1.178741	0.323609	0.342873
C65	C	1.077730	0.295876	0.282650
C66	C	1.249277	0.342976	0.304871
C67	C	1.218797	0.334609	0.206654
C68	C	1.047250	0.287510	0.184432
H69	H	0.297529	0.231701	-0.125753
O70	O	0.951495	-0.402407	-0.017421
C71	C	0.880225	-0.430362	0.096121
C72	C	0.919818	-0.463028	0.033179
H73	H	0.854624	-0.479352	0.137062
H74	H	0.815257	-0.411126	0.049947
H75	H	0.941557	-0.376395	0.148004
H76	H	0.858556	-0.517017	-0.018713
H77	H	0.984811	-0.482209	0.079412
O78	O	0.614537	0.509946	-0.131952
C79	C	0.680096	0.645237	-0.050983
C80	C	0.628715	0.555613	-0.049992
H81	H	0.691593	0.682183	0.015283
H82	H	0.631933	0.665912	-0.116413
H83	H	0.754869	0.653959	-0.052528
H84	H	0.553946	0.546823	-0.048414
H85	H	0.676949	0.534982	0.015430
H86	H	0.964993	0.264933	0.135400
H87	H	0.957191	0.076227	-0.026410
O88	O	0.876690	0.240581	0.165035
C89	C	0.879939	0.176230	0.030170
C90	C	0.913428	0.185450	0.138213
H91	H	0.909610	0.131646	0.008449
H92	H	0.909717	0.237058	0.008382
H93	H	0.795627	0.153120	-0.006317
H94	H	0.997733	0.208532	0.174776
H95	H	0.883576	0.124607	0.159930
H96	H	0.753390	0.206834	0.249398
O97	O	1.093397	-0.363398	-0.243064
C98	C	1.164668	-0.352171	-0.356605
C99	C	1.125085	-0.406601	-0.293662
H100	H	1.190279	-0.387083	-0.397546
H101	H	1.229628	-0.297245	-0.310432
H102	H	1.103328	-0.331899	-0.408489
H103	H	1.186357	-0.426932	-0.241770
H104	H	1.060101	-0.461485	-0.339895
O105	O	1.093182	0.119751	-0.243167
C106	C	1.076454	0.139442	-0.401720
C107	C	1.036927	0.085032	-0.338730
H108	H	1.030977	0.111401	-0.478997
H109	H	1.157294	0.146048	-0.380945
H110	H	1.070315	0.201198	-0.391846
H111	H	1.042998	0.023248	-0.348572
H112	H	0.956105	0.078495	-0.359519
H113	H	0.957199	-0.067542	-0.026426
H114	H	1.276231	0.350379	0.175718
O115	O	0.570529	0.021270	-0.131239
C116	C	0.580375	-0.112171	-0.131363
C117	C	0.631754	-0.022550	-0.132373
H118	H	0.629862	-0.147623	-0.132259
H119	H	0.506850	-0.135840	-0.196349
H120	H	0.566399	-0.119387	-0.064659
H121	H	0.645798	-0.015264	-0.199034
H122	H	0.705242	0.001077	-0.067343
O123	O	1.093433	-0.036238	-0.242980
C124	C	1.233040	-0.022176	-0.280024
C125	C	1.193455	0.010503	-0.217084
H126	H	1.313918	0.015589	-0.259097
H127	H	1.187706	-0.019028	-0.357315
H128	H	1.226812	-0.087328	-0.270214
H129	H	1.199679	0.075665	-0.226812
H130	H	1.238795	0.007294	-0.139817
H131	H	0.297601	0.480750	-0.125737
H132	H	0.747257	0.080640	-0.134745
O133	O	0.338202	0.161354	-0.126598
C134	C	0.204137	0.049234	-0.123859
C135	C	0.306930	0.077500	-0.125890
H136	H	0.178831	-0.018561	-0.123266
H137	H	0.148920	0.064446	-0.189210
H138	H	0.208592	0.080911	-0.057523
H139	H	0.302571	0.045839	-0.192183
H140	H	0.362106	0.062302	-0.060494
H141	H	0.713338	0.195833	0.385611
O142	O	0.430403	0.051433	-0.128436
C143	C	0.440250	-0.082007	-0.128560
C144	C	0.491628	0.007613	-0.129570
H145	H	0.489737	-0.117459	-0.129456
H146	H	0.366725	-0.105676	-0.193545
H147	H	0.426274	-0.089223	-0.061856
H148	H	0.505672	0.014899	-0.196230
H149	H	0.565116	0.031240	-0.064539
H150	H	0.957239	-0.550711	-0.026433
O151	O	0.754722	0.342441	-0.135010
C152	C	0.823289	0.440941	-0.218652
C153	C	0.771851	0.351344	-0.217594
H154	H	0.837135	0.448170	-0.285424
H155	H	0.896873	0.464578	-0.153729
H156	H	0.773872	0.476415	-0.217613
H157	H	0.821189	0.315805	-0.218665
H158	H	0.698257	0.327770	-0.282511
O159	O	0.757535	0.208095	0.569736
C160	C	0.620219	0.235598	0.580755
C161	C	0.697815	0.256851	0.538957
H162	H	0.571901	0.274995	0.555871
H163	H	0.659303	0.246377	0.661302
H164	H	0.571961	0.169638	0.555983
H165	H	0.746095	0.322809	0.563657
H166	H	0.658668	0.246016	0.458415
O167	O	1.095734	0.300943	0.613629
C168	C	1.229698	0.402924	0.737460
C169	C	1.118577	0.372364	0.671208
H170	H	1.248197	0.460662	0.784043
H171	H	1.274925	0.415394	0.693477
H172	H	1.248224	0.355297	0.783953
H173	H	1.099958	0.419956	0.624701
H174	H	1.073410	0.359870	0.715246
O175	O	1.168345	0.320610	0.574504
C176	C	1.259178	0.280345	0.721554
C177	C	1.225643	0.271187	0.613505
H178	H	1.305527	0.240406	0.753121
H179	H	1.191449	0.261707	0.738423
H180	H	1.305443	0.345756	0.753117
H181	H	1.179399	0.205791	0.581867
H182	H	1.293414	0.289876	0.596702
H183	H	1.291467	0.354547	0.490134
H184	H	1.087700	-0.514843	-0.234040
H185	H	0.467110	0.527274	-0.129133
O186	O	0.706714	0.399873	-0.133755
C187	C	0.877664	0.409117	-0.054952
C188	C	0.774854	0.380894	-0.052957
H189	H	0.932779	0.393768	0.010355
H190	H	0.903113	0.476929	-0.055406
H191	H	0.873191	0.377495	-0.121331
H192	H	0.779247	0.412458	0.013411
H193	H	0.749444	0.313075	-0.052555
O194	O	1.347359	0.369931	0.363505
C195	C	1.470339	0.403631	0.524665
C196	C	1.359229	0.373114	0.458373
H197	H	1.479971	0.406199	0.601379
H198	H	1.506693	0.466313	0.510914
H199	H	1.506612	0.360915	0.510769
H200	H	1.322871	0.415771	0.472230
H201	H	1.322948	0.310418	0.472137
