data_functionalizedCrystal
_audit_creation_method	'MofGen! by Chris Wilmer'
_symmetry_space_group_name_H-M	'P1'
_symmetry_Int_Tables_number	1
_symmetry_cell_setting	triclinic
loop_
_symmetry_equiv_pos_as_xyz
  x,y,z
_cell_length_a	17.640280
_cell_length_b	14.908571
_cell_length_c	17.639309
_cell_angle_alpha	82.702066
_cell_angle_beta	109.656097
_cell_angle_gamma	74.921313
loop_
_atom_site_label
_atom_site_type_symbol
_atom_site_fract_x
_atom_site_fract_y
_atom_site_fract_z
Zn1	Zn	-0.290348	1.341053	0.455999
Zn2	Zn	-0.459245	1.417430	0.293564
Zn3	Zn	-0.313496	1.228418	0.313470
Zn4	Zn	-0.423367	1.228393	0.423410
O5	O	-0.371614	1.303824	0.371611
O6	O	-0.318080	1.477435	0.439760
O7	O	-0.464614	1.424332	0.182215
O8	O	-0.193760	1.211406	0.354346
O9	O	-0.442168	1.533549	0.320419
O10	O	-0.176753	1.294158	0.459062
O11	O	-0.357533	1.285466	0.196840
O12	O	-0.322743	1.102164	0.322746
O13	O	-0.381019	1.211362	0.541723
O14	O	-0.403465	1.102145	0.403518
O15	O	-0.283290	1.294133	0.565666
O16	O	-0.571151	1.424307	0.288819
O17	O	-0.544792	1.285422	0.384216
C18	C	-0.361723	1.069419	0.361756
C19	C	-0.357508	0.969140	0.357556
C20	C	-0.588219	1.363169	0.330840
C21	C	-0.680881	1.388633	0.313429
C22	C	-0.433837	0.780819	0.433600
C23	C	-0.429879	0.686598	0.429656
C24	C	-0.345626	0.686473	0.345728
C25	C	-0.349585	0.780694	0.349673
C26	C	-0.393693	0.827864	0.393609
C27	C	-0.397657	0.922090	0.397548
C28	C	-0.313400	0.921961	0.313626
C29	C	-0.309441	0.827740	0.309681
C30	C	-0.917207	1.110668	0.504193
C31	C	-1.004283	1.134604	0.487807
C32	C	-1.031646	1.279267	0.388578
C33	C	-0.944570	1.255346	0.404959
C34	C	-0.887357	1.171045	0.462767
C35	C	-0.914721	1.315722	0.363533
C36	C	-0.827653	1.291800	0.379910
C37	C	-0.770435	1.207501	0.437713
C38	C	-0.800290	1.147122	0.479144
C39	C	-0.971936	1.400019	0.305721
C40	C	-0.942086	1.460396	0.264295
C41	C	-0.855016	1.436477	0.280675
C42	C	-0.797798	1.352179	0.338479
C43	C	-0.825162	1.496856	0.239245
C44	C	-0.738094	1.472934	0.255621
C45	C	-0.710731	1.328256	0.354855
C46	C	-0.154160	1.244265	0.412560
C47	C	-0.061495	1.218885	0.430009
C48	C	-0.325570	1.244225	0.584077
C49	C	-0.305949	1.218828	0.674617
C50	C	-0.381544	1.539143	0.381504
C51	C	-0.385776	1.639422	0.385720
C52	C	-0.417421	1.363225	0.159985
C53	C	-0.436814	1.388733	0.069496
C54	C	-0.222548	1.110738	0.809845
C55	C	-0.240991	1.134611	0.724767
C56	C	-0.352492	1.279203	0.709531
C57	C	-0.334061	1.255340	0.794608
C58	C	-0.269087	1.171107	0.844759
C59	C	-0.380600	1.315709	0.829522
C60	C	-0.362167	1.291849	0.914592
C61	C	-0.297195	1.207621	0.964749
C62	C	-0.250655	1.147247	0.929829
C63	C	-0.445570	1.399945	0.779371
C64	C	-0.492109	1.460314	0.814285
C65	C	-0.473680	1.436451	0.899355
C66	C	-0.408708	1.352223	0.949512
C67	C	-0.520221	1.496825	0.934275
C68	C	-0.501788	1.472966	1.019346
C69	C	-0.390275	1.328364	1.034582
H70	H	-0.433573	0.960495	0.433321
H71	H	-0.197749	1.078654	0.970664
H72	H	-0.699541	1.188021	0.451039
H73	H	-0.309710	0.648048	0.309964
O74	O	-0.880651	1.578826	0.183151
C75	C	-0.859251	1.657862	0.208819
H76	H	-0.789319	1.633562	0.252105
H77	H	-0.900428	1.689908	0.242783
C78	C	-0.960610	1.763579	0.079343
C79	C	-0.874716	1.733735	0.132501
H80	H	-0.970153	1.810384	0.032267
H81	H	-0.975030	1.710332	0.062050
H82	H	-0.994913	1.790278	0.107656
H83	H	-0.840415	1.707026	0.104191
H84	H	-0.860290	1.786979	0.149787
H85	H	-0.169643	1.042145	0.850680
H86	H	-0.282185	1.188199	1.034019
O87	O	-0.583242	1.578741	0.885615
C88	C	-0.564330	1.657840	0.913628
H89	H	-0.492853	1.637599	0.949751
H90	H	-0.599327	1.679809	0.955579
C91	C	-0.680740	1.766767	0.794395
C92	C	-0.592950	1.741910	0.838756
H93	H	-0.698397	1.818628	0.748212
H94	H	-0.693484	1.713478	0.775524
H95	H	-0.709893	1.785069	0.829364
H96	H	-0.563798	1.723597	0.803791
H97	H	-0.580201	1.795199	0.857621
H98	H	-0.273527	0.789320	0.273912
H99	H	-0.405392	1.347788	0.668687
H100	H	-0.203085	1.085448	0.696346
H101	H	-0.337369	1.259771	1.075418
H102	H	-0.713791	1.522098	0.221887
H103	H	-0.460573	1.419370	0.710102
O104	O	-0.274529	0.967801	0.274717
C105	C	-0.335626	1.050040	0.215377
H106	H	-0.393237	1.073464	0.232702
H107	H	-0.356253	1.033128	0.151772
C108	C	-0.225919	1.102304	0.191796
C109	C	-0.296675	1.131079	0.213078
H110	H	-0.201892	1.152292	0.190374
H111	H	-0.184756	1.046897	0.231772
H112	H	-0.243118	1.088210	0.138793
H113	H	-0.279473	1.145161	0.266084
H114	H	-0.337834	1.186491	0.173111
O115	O	-0.476688	0.826493	0.476340
C116	C	-0.511295	0.764774	0.510771
H117	H	-0.473709	0.687444	0.517261
H118	H	-0.580631	0.780488	0.468511
C119	C	-0.552375	0.875569	0.588728
C120	C	-0.506206	0.780590	0.596706
H121	H	-0.549240	0.885327	0.641735
H122	H	-0.529063	0.917153	0.565529
H123	H	-0.610150	0.888653	0.553509
H124	H	-0.448431	0.767512	0.631916
H125	H	-0.529509	0.739005	0.619912
O126	O	-1.033131	1.075867	0.528157
C127	C	-0.963962	0.996323	0.582673
H128	H	-0.902810	1.015413	0.598752
H129	H	-0.958349	0.933683	0.551644
C130	C	-1.053704	0.944813	0.642673
C131	C	-0.978597	0.968263	0.662426
H132	H	-1.062732	0.927501	0.691867
H133	H	-1.100306	0.998401	0.605943
H134	H	-1.049017	0.892616	0.616814
H135	H	-0.983289	1.020466	0.688275
H136	H	-0.931996	0.914683	0.699163
H137	H	-0.545008	1.528898	0.773441
H138	H	-0.539684	1.522125	1.047773
H139	H	-1.078241	1.347903	0.341509
O140	O	-1.056521	1.423429	0.289820
C141	C	-1.084630	1.511957	0.308994
H142	H	-1.039613	1.554027	0.306745
H143	H	-1.085497	1.499097	0.373758
C144	C	-1.230263	1.517533	0.248254
C145	C	-1.174976	1.569207	0.245485
H146	H	-1.285994	1.552847	0.209082
H147	H	-1.211326	1.457889	0.235339
H148	H	-1.230976	1.506820	0.302228
H149	H	-1.174256	1.579909	0.191516
H150	H	-1.193915	1.628855	0.258389
H151	H	-0.664144	1.259615	0.401935
H152	H	-0.462566	0.648296	0.462223
O153	O	-0.997576	1.542368	0.208205
C154	C	-0.976171	1.621400	0.233879
H155	H	-0.906238	1.597095	0.277161
H156	H	-1.017343	1.653442	0.267848
C157	C	-1.077534	1.727129	0.104410
C158	C	-0.991638	1.697279	0.157564
H159	H	-1.087078	1.773937	0.057336
H160	H	-1.091957	1.673885	0.087114
H161	H	-1.111834	1.753824	0.132727
H162	H	-0.957341	1.670573	0.129250
H163	H	-0.977209	1.750520	0.174854
H164	H	-0.870620	1.042027	0.551272
H165	H	-0.753703	1.078481	0.526223
