data_functionalizedCrystal
_audit_creation_method	'MofGen! by Chris Wilmer'
_symmetry_space_group_name_H-M	'P1'
_symmetry_Int_Tables_number	1
_symmetry_cell_setting	triclinic
loop_
_symmetry_equiv_pos_as_xyz
  x,y,z
_cell_length_a	27.440280
_cell_length_b	12.970454
_cell_length_c	12.970454
_cell_angle_alpha	60.000396
_cell_angle_beta	90.003573
_cell_angle_gamma	59.998366
loop_
_atom_site_label
_atom_site_type_symbol
_atom_site_fract_x
_atom_site_fract_y
_atom_site_fract_z
Zr1	Zr	0.469504	1.128394	-0.135165
O2	O	0.391686	1.343502	-0.299808
O3	O	0.493359	0.913300	-0.084695
O4	O	0.493360	1.128387	-0.299783
O5	O	0.391684	1.128415	0.084947
O6	O	0.573563	1.128368	-0.299761
O7	O	0.391685	1.128414	-0.084720
O8	O	0.573561	0.743615	0.084992
O9	O	0.391686	1.513168	-0.299806
O10	O	0.563388	1.001752	-0.063152
O11	O	0.503533	1.001767	0.063452
O12	O	0.503534	1.255005	-0.189786
O13	O	0.443679	1.255021	-0.063182
Zr14	Zr	0.597417	1.128364	0.135467
Zr15	Zr	0.597418	1.128363	-0.135131
Zr16	Zr	0.469503	1.128396	0.135433
Zr17	Zr	0.469504	1.398992	-0.135163
Zr18	Zr	0.597417	0.857766	0.135465
O19	O	0.573562	1.343459	0.084997
O20	O	0.573563	1.343457	-0.299760
O21	O	0.391684	1.343504	0.084949
O22	O	0.675235	0.913257	0.300110
O23	O	0.675236	0.913254	-0.084647
O24	O	0.493358	0.913302	0.300062
O25	O	0.675237	1.128343	-0.084645
O26	O	0.573561	1.128371	0.300085
O27	O	0.493358	1.128391	0.300063
O28	O	0.675236	1.128344	0.085022
O29	O	0.493361	1.513142	-0.299779
O30	O	0.573560	0.743616	0.300081
O31	O	0.675235	0.743591	0.300108
O32	O	0.675236	0.743589	0.085019
O33	O	0.391685	1.513169	-0.084717
O34	O	0.493360	1.513144	-0.084690
O35	O	0.563387	1.001753	0.190088
O36	O	0.623242	1.001737	0.063484
O37	O	0.563388	1.254991	-0.063150
O38	O	0.503533	1.255007	0.063454
C39	C	0.533460	0.789903	0.000148
C40	C	0.533460	0.675027	0.000147
C41	C	0.373459	1.128419	0.000109
C42	C	0.319156	1.128432	0.000094
C43	C	0.013702	0.996159	0.066287
C44	C	-0.037317	0.996151	0.066299
O45	O	-0.037134	0.883724	0.122554
N46	N	-0.094077	1.128346	0.000196
C47	C	-0.099817	1.260557	-0.065912
O48	O	-0.152780	1.372997	-0.122136
C49	C	-0.048799	1.260563	-0.065915
C50	C	0.007960	1.128360	0.000182
C51	C	0.070458	0.863967	0.132380
C52	C	0.121473	0.863976	0.132367
C53	C	0.115731	0.996176	0.066261
C54	C	0.058975	1.128369	0.000168
C55	C	-0.054540	1.392773	-0.132015
C56	C	-0.003516	1.392768	-0.132011
C57	C	0.053243	1.260565	-0.065915
C58	C	0.104248	1.260578	-0.065951
N59	N	0.161007	1.128384	0.000152
C60	C	0.166749	0.996183	0.066258
C61	C	-0.206956	1.260533	-0.065899
C62	C	-0.257973	1.260528	-0.065904
C63	C	-0.195469	0.996122	0.066309
C64	C	-0.144451	0.996128	0.066306
C65	C	-0.150196	1.128338	0.000204
C66	C	0.273882	0.996211	0.066224
C67	C	0.324898	0.996231	0.066200
C68	C	0.262390	1.260636	-0.066007
C69	C	0.211378	1.260617	-0.065989
C70	C	0.217128	1.128392	0.000135
O71	O	0.104111	1.372948	-0.122174
O72	O	0.219714	0.883761	0.122485
C73	C	0.693462	1.128339	0.000193
C74	C	0.747764	1.128326	0.000208
C75	C	0.533462	1.128377	-0.338327
C76	C	0.533462	1.128377	-0.453203
C77	C	0.533461	1.466855	0.000154
C78	C	0.533461	1.581731	0.000155
C79	C	0.533459	1.128381	0.338629
C80	C	0.533459	1.128381	0.453505
C81	C	0.693461	0.789863	0.000191
C82	C	0.747764	0.674974	0.000204
C83	C	0.533459	0.789905	0.338626
C84	C	0.533458	0.675029	0.453501
C85	C	0.693460	0.789865	0.338668
C86	C	0.747762	0.674976	0.453558
C87	C	0.373461	1.466893	-0.338366
C88	C	0.319159	1.581782	-0.453256
C89	C	0.373460	1.466895	0.000111
C90	C	0.319157	1.581784	0.000098
C91	C	0.533462	1.466854	-0.338324
C92	C	0.533463	1.581729	-0.453199
C93	C	0.742022	0.621028	-0.065904
C94	C	0.793040	0.513092	-0.065917
C95	C	0.849800	0.459097	0.000187
C96	C	0.855541	0.513054	0.066296
C97	C	0.804523	0.620995	0.066301
C98	C	0.804512	0.621015	0.441425
C99	C	0.855540	0.513080	0.549365
C100	C	0.849816	0.459101	0.669438
C101	C	0.793060	0.513072	0.681568
C102	C	0.742034	0.621013	0.573629
C103	C	0.262409	1.635756	-0.441123
C104	C	0.211381	1.743725	-0.549063
C105	C	0.217104	1.797710	-0.669136
C106	C	0.273860	1.743731	-0.681266
C107	C	0.324887	1.635772	-0.573327
C108	C	0.324899	1.635741	0.066195
C109	C	0.273881	1.743707	0.066177
C110	C	0.217121	1.797706	0.000070
C111	C	0.211380	1.743744	-0.066034
C112	C	0.262398	1.635788	-0.066024
H113	H	0.278572	0.888541	0.120070
C114	C	0.387311	1.576396	-0.586689
C115	C	0.430974	1.413146	-0.530684
C116	C	0.493397	1.353779	-0.544059
C117	C	0.512155	1.457661	-0.613439
C118	C	0.468490	1.620920	-0.669448
C119	C	0.406068	1.680288	-0.656073
H120	H	0.417089	1.336238	-0.479321
H121	H	0.525720	1.232923	-0.502596
H122	H	0.558364	1.413713	-0.623340
H123	H	0.482376	1.697829	-0.720811
H124	H	0.373745	1.801144	-0.697536
C125	C	-0.082019	0.850705	0.139022
C126	C	-0.063258	0.741639	0.104515
C127	C	-0.000827	0.596209	0.177238
C128	C	0.042844	0.559844	0.284467
C129	C	0.024085	0.668912	0.318979
C130	C	-0.038347	0.814342	0.246257
H131	H	-0.095586	0.768556	0.025133
H132	H	0.013060	0.515469	0.151689
H133	H	0.089060	0.452187	0.338300
H134	H	0.056413	0.641994	0.398361
H135	H	-0.052234	0.895081	0.271805
C136	C	0.917979	0.453632	0.139024
C137	C	0.974091	0.334883	0.139026
C138	C	1.036531	0.275446	0.211766
C139	C	1.042859	0.334757	0.284503
C140	C	0.986745	0.453513	0.284504
C141	C	0.924305	0.512950	0.211764
H142	H	0.969409	0.290971	0.085179
H143	H	1.078071	0.187534	0.211765
H144	H	1.089081	0.290758	0.338349
H145	H	0.991427	0.497425	0.338351
H146	H	0.882766	0.600862	0.211765
C147	C	-0.009839	1.538206	-0.204730
C148	C	0.016642	1.574576	-0.133876
C149	C	0.010319	1.720013	-0.206596
C150	C	-0.022485	1.829079	-0.350172
C151	C	-0.048968	1.792712	-0.421035
C152	C	-0.042645	1.647276	-0.348314
H153	H	0.040928	1.493836	-0.027585
H154	H	0.029924	1.746933	-0.154138
H155	H	-0.027166	1.936740	-0.404004
H156	H	-0.073254	1.873453	-0.527325
H157	H	-0.062250	1.620355	-0.400772
H158	H	0.901748	0.469147	0.539466
C159	C	0.679610	0.680346	0.586987
C160	C	0.673321	0.620949	0.719069
C161	C	0.610898	0.680274	0.732439
C162	C	0.554763	0.798997	0.613727
C163	C	0.561049	0.858401	0.481635
C164	C	0.623473	0.799075	0.468266
H165	H	0.714877	0.533057	0.806955
H166	H	0.606245	0.636299	0.830222
H167	H	0.508553	0.842913	0.623624
H168	H	0.519493	0.946292	0.393749
H169	H	0.628126	0.843051	0.370482
H170	H	0.809207	0.664903	0.120141
H171	H	0.165160	1.787727	-0.119857
C172	C	0.256082	1.406053	-0.138711
C173	C	0.312203	1.406045	-0.138703
C174	C	0.305895	1.551462	-0.211395
C175	C	0.243467	1.696887	-0.284097
C176	C	0.187341	1.696899	-0.284108
C177	C	0.193649	1.551482	-0.211416
H178	H	0.358420	1.298388	-0.084882
H179	H	0.347444	1.551452	-0.211387
H180	H	0.238798	1.804533	-0.337909
H181	H	0.141124	1.804556	-0.337929
H182	H	0.152100	1.551493	-0.211424
C183	C	0.148955	1.803072	-0.535700
C184	C	0.130205	1.877232	-0.466293
C185	C	0.067781	1.936573	-0.452926
C186	C	0.024108	1.921754	-0.508964
C187	C	0.042857	1.847592	-0.578375
C188	C	0.105280	1.788250	-0.591743
H189	H	0.162536	1.888204	-0.424806
H190	H	0.053902	1.991473	-0.401543
H191	H	-0.022102	1.965682	-0.499068
H192	H	0.010526	1.836619	-0.619862
H193	H	0.119159	1.733350	-0.643125
H194	H	0.371114	0.888571	0.120028
H195	H	0.167685	0.756322	0.186184
H196	H	0.075144	0.756307	0.186218
H197	H	-0.190802	0.888476	0.120132
H198	H	0.371111	1.591784	0.120035
H199	H	0.809184	0.664949	0.343666
H200	H	0.891370	0.371209	0.757319
H201	H	0.788409	0.469106	0.779345
H202	H	0.278567	1.787624	0.120013
H203	H	-0.304185	1.368181	-0.119743
H204	H	0.165161	1.368267	-0.119827
H205	H	0.257737	1.591807	-0.343364
H206	H	0.175551	1.885617	-0.757017
H207	H	-0.211642	1.368201	-0.119733
H208	H	0.175584	1.885611	0.000072
H209	H	-0.100748	1.500427	-0.185837
H210	H	0.257714	1.591859	-0.119844
H211	H	0.695810	0.664990	-0.119748
H212	H	0.788354	0.469174	-0.119751
H213	H	0.891337	0.371203	0.000174
H214	H	0.278514	1.787700	-0.779042
