data_functionalizedCrystal
_audit_creation_method	'MofGen! by Chris Wilmer'
_symmetry_space_group_name_H-M	'P1'
_symmetry_Int_Tables_number	1
_symmetry_cell_setting	triclinic
loop_
_symmetry_equiv_pos_as_xyz
  x,y,z
_cell_length_a	14.519709
_cell_length_b	9.565339
_cell_length_c	14.519731
_cell_angle_alpha	90.000753
_cell_angle_beta	83.684499
_cell_angle_gamma	89.997945
loop_
_atom_site_label
_atom_site_type_symbol
_atom_site_fract_x
_atom_site_fract_y
_atom_site_fract_z
O1	O	1.223876	0.116081	0.120883
O2	O	0.955400	0.116124	0.135120
O3	O	1.096746	0.116089	-0.006236
O4	O	1.082530	0.116117	0.262239
O5	O	1.096735	-0.116431	-0.006227
O6	O	0.955389	-0.116396	0.135129
O7	O	1.223865	-0.116439	0.120892
Zn8	Zn	1.089625	-0.153335	0.128012
Zn9	Zn	1.089640	0.153020	0.128000
O10	O	1.082519	-0.116404	0.262248
C11	C	0.921035	-0.000130	0.134461
C12	C	0.818654	-0.000114	0.132473
C13	C	0.443757	-0.000179	0.125153
C14	C	0.548065	-0.000160	0.127186
C15	C	0.631202	-0.000145	0.128813
C16	C	0.735517	-0.000130	0.130846
N17	N	1.089622	-0.362414	0.128019
C18	C	1.024234	-0.453601	0.193370
C19	C	1.107603	-0.546791	0.211402
C20	C	1.006290	-0.546779	0.109994
C21	C	1.173032	-0.453553	0.146093
C22	C	1.071665	-0.453533	0.044649
C23	C	1.155093	-0.546681	0.062646
C24	C	1.258230	-0.000181	0.121551
C25	C	1.360612	-0.000188	0.123539
C26	C	1.096075	-0.000171	-0.040591
C27	C	1.094079	-0.000172	-0.142971
N28	N	1.089651	0.362100	0.127986
C29	C	1.092457	-0.000168	-0.226115
C30	C	1.090430	-0.000157	-0.330424
C31	C	1.088822	-0.000148	-0.413563
C32	C	1.086795	-0.000140	-0.517878
C33	C	1.083191	-0.000140	0.296603
C34	C	1.085187	-0.000131	0.398983
H35	H	1.122811	-0.587754	0.281891
H36	H	1.056430	-0.412537	-0.025818
H37	H	0.935805	-0.587734	0.094763
O38	O	1.221212	-0.594909	-0.003319
C39	C	1.267838	-0.480858	-0.048897
H40	H	1.260386	-0.384970	-0.002042
H41	H	1.236457	-0.457861	-0.115890
C42	C	1.380382	-0.634639	-0.129026
C43	C	1.371235	-0.516871	-0.071476
H44	H	1.444161	-0.656854	-0.142958
H45	H	1.348968	-0.711479	-0.098323
H46	H	1.354225	-0.615459	-0.184847
H47	H	1.397381	-0.536058	-0.015652
H48	H	1.402657	-0.440035	-0.102170
O49	O	0.958441	-0.404659	0.259406
C50	C	1.000741	-0.321600	0.323073
H51	H	1.069898	-0.280685	0.288767
H52	H	1.012898	-0.387244	0.386146
C53	C	0.852167	-0.247721	0.395894
C54	C	0.937103	-0.197458	0.353756
H55	H	0.812911	-0.171147	0.414825
H56	H	0.823667	-0.303682	0.353003
H57	H	0.862310	-0.302424	0.448449
H58	H	0.926960	-0.142771	0.301195
H59	H	0.965599	-0.141484	0.396639
O60	O	1.257054	-0.404683	0.164457
C61	C	1.256008	-0.257291	0.164301
H62	H	1.181515	-0.218741	0.178615
H63	H	1.287441	-0.217327	0.093795
C64	C	1.404526	-0.249697	0.222459
C65	C	1.313033	-0.202349	0.240047
H66	H	1.439704	-0.215804	0.269179
H67	H	1.405232	-0.348998	0.222560
H68	H	1.430707	-0.216390	0.163701
H69	H	1.286850	-0.235671	0.298798
H70	H	1.312323	-0.103052	0.239957
