data_functionalizedCrystal
_audit_creation_method	'MofGen! by Chris Wilmer'
_symmetry_space_group_name_H-M	'P1'
_symmetry_Int_Tables_number	1
_symmetry_cell_setting	triclinic
loop_
_symmetry_equiv_pos_as_xyz
  x,y,z
_cell_length_a	12.477989
_cell_length_b	21.606444
_cell_length_c	12.477989
_cell_angle_alpha	64.370870
_cell_angle_beta	89.511470
_cell_angle_gamma	64.368266
loop_
_atom_site_label
_atom_site_type_symbol
_atom_site_fract_x
_atom_site_fract_y
_atom_site_fract_z
Zr1	Zr	0.984914	0.737160	-0.193120
O2	O	0.832981	0.843363	-0.345045
O3	O	1.031491	0.615066	-0.146552
O4	O	1.044506	0.729215	-0.358067
O5	O	0.809699	0.741023	0.033324
O6	O	1.211358	0.741023	-0.368334
O7	O	0.819967	0.729215	-0.133529
O8	O	1.188077	0.536833	0.010029
O9	O	0.832979	0.945214	-0.345039
O10	O	1.175873	0.679983	-0.134347
O11	O	1.043690	0.679983	-0.002165
O12	O	1.059013	0.814378	-0.251197
O13	O	0.926831	0.814378	-0.119015
Zr14	Zr	1.234647	0.774827	0.056617
Zr15	Zr	1.251023	0.755994	-0.209494
Zr16	Zr	0.968537	0.755994	0.072991
Zr17	Zr	0.984910	0.899601	-0.193111
Zr18	Zr	1.234650	0.612386	0.056608
O19	O	1.188069	0.896921	0.010048
O20	O	1.211355	0.870142	-0.368327
O21	O	0.809696	0.870142	0.033331
O22	O	1.386579	0.668624	0.208542
O23	O	1.409865	0.641845	-0.169834
O24	O	1.008205	0.641845	0.231824
O25	O	1.409862	0.770964	-0.169827
O26	O	1.175055	0.782772	0.221564
O27	O	1.008203	0.770964	0.231831
O28	O	1.399594	0.782772	-0.002974
O29	O	1.044501	0.960184	-0.358055
O30	O	1.175059	0.551803	0.221552
O31	O	1.386581	0.566773	0.208536
O32	O	1.399598	0.551803	-0.002987
O33	O	0.819962	0.960184	-0.133517
O34	O	1.031484	0.975155	-0.146532
O35	O	1.160547	0.697609	0.114694
O36	O	1.292730	0.697609	-0.017489
O37	O	1.175870	0.832004	-0.134339
O38	O	1.043687	0.832004	-0.002156
C39	C	1.109784	0.552805	-0.068263
C40	C	1.109786	0.483845	-0.068266
C41	C	1.178781	0.451447	-0.137266
C42	C	1.178785	0.386648	-0.137258
C43	C	1.109786	0.354251	-0.068256
C44	C	1.040788	0.386652	0.000751
C45	C	1.040792	0.451447	0.000749
C46	C	1.040773	0.125343	0.000763
C47	C	1.040772	0.060545	0.000757
C48	C	1.178766	0.060544	-0.137244
C49	C	1.178770	0.125338	-0.137247
C50	C	1.109777	0.157731	-0.068234
C51	C	1.109776	0.227993	-0.068242
C52	C	1.109780	0.283994	-0.068254
C53	C	0.776918	0.732436	-0.047770
C54	C	0.663947	0.724440	-0.040818
C55	C	1.442643	0.779552	-0.088733
C56	C	1.555613	0.787547	-0.095685
C57	C	1.130265	0.732436	-0.401116
C58	C	1.137217	0.724440	-0.514087
C59	C	1.109776	0.959182	-0.068241
C60	C	1.109775	1.028142	-0.068237
C61	C	1.089295	0.779551	0.264613
C62	C	1.082343	0.787547	0.377584
C63	C	1.442647	0.576363	-0.088744
C64	C	1.555619	0.515398	-0.095700
C65	C	1.089300	0.576363	0.264602
C66	C	1.082349	0.515398	0.377569
C67	C	1.422162	0.599921	0.244120
C68	C	1.528182	0.546951	0.350136
C69	C	0.797398	0.912066	-0.380623
C70	C	0.691379	0.965036	-0.486639
C71	C	0.776914	0.935624	-0.047759
C72	C	0.663942	0.996589	-0.040804
C73	C	1.130261	0.935624	-0.401105
C74	C	1.137212	0.996589	-0.514072
C75	C	1.547674	0.477567	-0.159976
C76	C	1.653815	0.420291	-0.166535
C77	C	1.767898	0.400842	-0.108810
C78	C	1.775840	0.438679	-0.044532
C79	C	1.669701	0.495959	-0.037981
C80	C	1.140082	0.495969	0.491630
C81	C	1.133545	0.438696	0.597785
C82	C	1.069282	0.400848	0.589876
C83	C	1.011542	0.420281	0.475804
C84	C	1.018072	0.477558	0.369652
C85	C	1.646979	0.522077	0.330923
C86	C	1.746606	0.472315	0.430526
C87	C	1.727434	0.447424	0.549340
C88	C	1.608624	0.472304	0.568550
C89	C	1.509000	0.522069	0.468949
C90	C	0.572582	0.989918	-0.467427
C91	C	0.472954	1.039700	-0.567029
C92	C	0.492127	1.064594	-0.685843
C93	C	0.610936	1.039710	-0.705054
C94	C	0.710561	0.989934	-0.605452
C95	C	0.671887	1.034426	0.023461
C96	C	0.565748	1.091718	0.029991
C97	C	0.451665	1.111169	-0.027737
C98	C	0.443723	1.073329	-0.092011
C99	C	0.549861	1.016042	-0.098547
C100	C	1.201485	1.034420	-0.506125
C101	C	1.208039	1.091697	-0.612261
C102	C	1.150313	1.111146	-0.726343
C103	C	1.086038	1.073308	-0.734288
C104	C	1.079491	1.016029	-0.628153
H105	H	1.234950	0.151716	-0.193439
H106	H	1.234962	0.477823	-0.193461
C107	C	1.011696	0.868803	-0.630957
N108	N	0.958483	0.930006	-0.637384
H109	H	1.868741	0.422836	0.002464
C110	C	0.672493	0.643181	0.029834
N111	N	0.678927	0.581977	0.083051
H112	H	1.676186	0.526755	0.014367
H113	H	0.365250	1.157817	-0.022405
H114	H	1.248493	1.018596	-0.413243
H115	H	0.543375	0.985235	-0.150875
H116	H	1.189520	0.664292	-0.507770
C117	C	1.157524	1.174159	-0.843083
N118	N	1.162957	1.221622	-0.931008
C119	C	0.632006	1.067093	-0.835760
N120	N	0.647872	1.087714	-0.934210
H121	H	1.063975	0.354211	0.676322
C122	C	0.940863	0.378637	0.467124
N123	N	0.887635	0.347264	0.460590
H124	H	1.260377	1.122500	-0.605768
H125	H	1.843338	0.452063	0.414863
H126	H	0.376224	1.059951	-0.551364
H127	H	1.454793	0.493400	-0.206999
H128	H	1.854313	0.354199	-0.114153
H129	H	1.234967	0.360269	-0.193441
C130	C	1.645050	0.378672	-0.237234
N131	N	1.638445	0.347325	-0.290482
H132	H	1.039040	1.089153	-0.827188
C133	C	1.254671	0.024900	-0.213149
N134	N	1.311840	-0.001945	-0.270319
H135	H	1.192411	0.526780	0.498092
C136	C	0.547067	0.868802	-0.166335
N137	N	0.540636	0.930005	-0.219549
H138	H	1.180570	0.422881	0.690657
C139	C	0.964897	0.024893	0.076701
N140	N	0.907761	-0.001964	0.133908
C141	C	0.954571	0.498914	0.244186
N142	N	0.906741	0.514994	0.149688
H143	H	0.984600	0.151707	0.056961
H144	H	1.662613	0.542335	0.234187
C145	C	0.574511	1.133327	0.100709
N146	N	0.581115	1.164663	0.153977
C147	C	1.837038	0.392675	0.658892
N148	N	1.919596	0.351434	0.741403
C149	C	0.964888	0.351014	0.076654
N150	N	0.907714	0.324174	0.133821
C151	C	1.587555	0.444910	0.699256
N152	N	1.571689	0.424270	0.797707
H153	H	1.412273	0.542315	0.484609
H154	H	0.556948	0.969651	-0.370691
H155	H	1.027148	0.985232	-0.634641
H156	H	0.984605	0.477826	0.056933
C157	C	0.318218	1.094723	-0.155487
N158	N	0.223684	1.110832	-0.203284
C159	C	0.382523	1.119343	-0.795395
N160	N	0.299964	1.160576	-0.877906
H161	H	0.807289	0.969674	-0.621110
H162	H	0.764769	1.018595	0.070480
