data_functionalizedCrystal
_audit_creation_method	'MofGen! by Chris Wilmer'
_symmetry_space_group_name_H-M	'P1'
_symmetry_Int_Tables_number	1
_symmetry_cell_setting	triclinic
loop_
_symmetry_equiv_pos_as_xyz
  x,y,z
_cell_length_a	12.645331
_cell_length_b	16.959453
_cell_length_c	16.959447
_cell_angle_alpha	90.031571
_cell_angle_beta	90.008701
_cell_angle_gamma	90.021961
loop_
_atom_site_label
_atom_site_type_symbol
_atom_site_fract_x
_atom_site_fract_y
_atom_site_fract_z
Zn1	Zn	1.620620	-0.314682	0.446783
Zn2	Zn	2.120620	0.185318	0.946783
Zn3	Zn	1.620508	-0.446875	0.314602
Zn4	Zn	2.120508	0.053125	0.814602
Zn5	Zn	1.443357	-0.314712	0.314634
Zn6	Zn	1.943357	0.185288	0.814634
Zn7	Zn	1.443301	-0.446821	0.446753
Zn8	Zn	1.943301	0.053179	0.946753
O9	O	1.531947	-0.380772	0.380693
O10	O	2.031947	0.119228	0.880693
O11	O	1.768953	-0.332228	0.429248
O12	O	2.268953	0.167772	0.929248
O13	O	1.596985	-0.429378	0.203995
O14	O	2.096985	0.070622	0.703995
O15	O	1.466941	-0.204097	0.332190
O16	O	1.966941	0.295903	0.832190
O17	O	1.768870	-0.429349	0.332135
O18	O	2.268870	0.070651	0.832135
O19	O	1.597176	-0.204075	0.429279
O20	O	2.097176	0.295925	0.929279
O21	O	1.466833	-0.332279	0.204019
O22	O	1.966833	0.167721	0.704019
O23	O	1.295002	-0.332227	0.332161
O24	O	1.795002	0.167773	0.832161
O25	O	1.466847	-0.429257	0.557368
O26	O	1.966847	0.070743	1.057368
O27	O	1.294961	-0.429286	0.429228
O28	O	1.794961	0.070714	0.929228
O29	O	1.597122	-0.332176	0.557390
O30	O	2.097122	0.167824	1.057390
O31	O	1.596931	-0.557478	0.332106
O32	O	2.096931	-0.057478	0.832106
O33	O	1.466738	-0.557439	0.429197
O34	O	1.966738	-0.057439	0.929197
C35	C	1.256517	-0.380755	0.380695
C36	C	1.756517	0.119245	0.880695
C37	C	1.138687	-0.380766	0.380715
C38	C	1.638687	0.119234	0.880715
C39	C	1.531845	-0.586139	0.380662
C40	C	2.031845	-0.086139	0.880662
C41	C	1.531899	-0.673995	0.380676
C42	C	2.031899	-0.173995	0.880676
C43	C	1.464174	-0.715349	0.330090
C44	C	1.964174	-0.215349	0.830090
C45	C	1.599669	-0.715195	0.431279
C46	C	2.099669	-0.215195	0.931279
C47	C	1.599718	-0.797741	0.431296
C48	C	2.099718	-0.297741	0.931296
C49	C	1.531993	-0.839095	0.380710
C50	C	2.031993	-0.339095	0.880710
C51	C	1.464219	-0.797903	0.330107
C52	C	1.964219	-0.297903	0.830107
C53	C	1.667484	-0.838939	0.481904
C54	C	2.167484	-0.338939	0.981904
C55	C	1.667535	-0.921490	0.481924
C56	C	2.167535	-0.421490	0.981924
C57	C	1.599815	-0.962845	0.431333
C58	C	2.099815	-0.462845	0.931333
C59	C	1.532039	-0.921648	0.380727
C60	C	2.032039	-0.421648	0.880727
C61	C	1.464314	-0.963002	0.330141
C62	C	1.964314	-0.463002	0.830141
C63	C	1.396542	-0.921806	0.279531
C64	C	1.896542	-0.421806	0.779531
C65	C	1.396498	-0.839258	0.279516
C66	C	1.896498	-0.339258	0.779516
C67	C	1.599858	-1.045394	0.431348
C68	C	2.099858	-0.545394	0.931348
C69	C	1.464359	-1.045555	0.330159
C70	C	1.964359	-0.545555	0.830159
C71	C	0.971133	-0.442161	0.441462
C72	C	1.471133	0.057839	0.941462
C73	C	1.093693	-0.441963	0.441716
C74	C	1.593693	0.058037	0.941716
C75	C	1.094215	-0.297513	0.403480
C76	C	1.594215	0.202487	0.903480
C77	C	0.971617	-0.297888	0.403908
C78	C	1.471617	0.202112	0.903908
C79	C	0.971453	-0.401953	0.297010
C80	C	1.471453	0.098047	0.797010
C81	C	1.094058	-0.403774	0.297461
C82	C	1.594058	0.096226	0.797461
C83	C	1.808452	-0.380791	0.380692
C84	C	2.308452	0.119209	0.880692
C85	C	1.926282	-0.380799	0.380691
C86	C	2.426282	0.119201	0.880691
C87	C	1.531991	-0.380707	0.586861
C88	C	2.031991	0.119293	1.086861
C89	C	1.532010	-0.380679	0.674718
C90	C	2.032010	0.119321	1.174718
C91	C	1.532078	-0.174604	0.380741
C92	C	2.032078	0.325396	0.880741
C93	C	1.532133	-0.086748	0.380762
C94	C	2.032133	0.413252	0.880762
C95	C	1.531964	-0.380781	0.175327
C96	C	2.031964	0.119219	0.675327
C97	C	1.532150	-0.380586	0.087471
C98	C	2.032150	0.119414	0.587471
C99	C	1.464308	-0.431142	1.046185
C100	C	1.964308	0.068858	1.546185
C101	C	1.599965	-0.330050	1.046203
C102	C	2.099965	0.169950	1.546203
C103	C	1.599937	-0.330067	0.963657
C104	C	2.099937	0.169933	1.463657
C105	C	1.532094	-0.380622	0.922371
C106	C	2.032094	0.119378	1.422371
C107	C	1.464280	-0.431162	0.963631
C108	C	1.964280	0.068838	1.463631
C109	C	1.667758	-0.279534	0.922391
C110	C	2.167758	0.220466	1.422391
C111	C	1.667733	-0.279549	0.839840
C112	C	2.167733	0.220451	1.339840
C113	C	1.599884	-0.330102	0.798552
C114	C	2.099884	0.169898	1.298552
C115	C	1.532066	-0.380642	0.839818
C116	C	2.032066	0.119358	1.339818
C117	C	1.464223	-0.431198	0.798532
C118	C	1.964223	0.068802	1.298532
C119	C	1.396399	-0.481736	0.839796
C120	C	1.896399	0.018264	1.339796
C121	C	1.396431	-0.481714	0.922344
C122	C	1.896431	0.018286	1.422344
C123	C	1.599852	-0.330123	0.716004
C124	C	2.099852	0.169877	1.216004
C125	C	1.464195	-0.431218	0.715978
C126	C	1.964195	0.068782	1.215978
H127	H	1.409211	-1.079220	0.288962
H128	H	1.909211	-0.579220	0.788962
Br129	Br	1.692043	-0.261450	1.102233
Br130	Br	2.192043	0.238550	1.602233
H131	H	1.722959	-0.238398	0.806250
H132	H	2.222959	0.261602	1.306250
H133	H	1.341395	-0.955487	0.238348
H134	H	1.841395	-0.455487	0.738348
Br135	Br	1.143813	-0.544869	0.417969
Br136	Br	1.643813	-0.044869	0.917969
Br137	Br	0.919771	-0.419150	0.544203
Br138	Br	1.419771	0.080850	1.044203
Br139	Br	1.372208	-0.659445	0.261402
Br140	Br	1.872208	-0.159445	0.761402
Br141	Br	1.304396	-0.550297	0.978349
Br142	Br	1.804396	-0.050297	1.478349
Br143	Br	1.759504	-0.977392	0.550611
Br144	Br	2.259504	-0.477392	1.050611
H145	H	1.341320	-0.805711	0.238312
H146	H	1.841320	-0.305711	0.738312
H147	H	1.655023	-1.078932	0.472564
H148	H	2.155023	-0.578932	0.972564
H149	H	1.124688	-0.362323	0.249753
H150	H	1.624688	0.137677	0.749753
H151	H	1.654803	-0.681522	0.472469
H152	H	2.154803	-0.181522	0.972469
Br153	Br	0.923110	-0.327460	0.221540
Br154	Br	1.423110	0.172540	0.721540
H155	H	1.341166	-0.522902	0.806170
H156	H	1.841166	-0.022902	1.306170
Br157	Br	1.759365	-0.782814	0.550571
Br158	Br	2.259365	-0.282814	1.050571
Br159	Br	1.372109	-0.499827	0.659954
Br160	Br	1.872109	0.000173	1.159954
Br161	Br	0.921964	-0.545404	0.417951
Br162	Br	1.421964	-0.045404	0.917951
H163	H	1.722998	-0.238379	0.956011
H164	H	2.222998	0.261621	1.456011
H165	H	0.943034	-0.279945	0.465083
H166	H	1.443034	0.220055	0.965083
Br167	Br	1.142605	-0.418630	0.545061
Br168	Br	1.642605	0.081370	1.045061
Br169	Br	0.922160	-0.219105	0.333355
Br170	Br	1.422160	0.280895	0.833355
Br171	Br	1.142791	-0.219235	0.332016
Br172	Br	1.642791	0.280765	0.832016
Br173	Br	1.372259	-0.499720	1.102182
Br174	Br	1.872259	0.000280	1.602182
H175	H	1.655077	-0.288979	0.682411
H176	H	2.155077	0.211021	1.182411
Br177	Br	1.145407	-0.267058	0.504338
Br178	Br	1.645407	0.232942	1.004338
H179	H	0.940527	-0.461626	0.276319
H180	H	1.440527	0.038374	0.776319
H181	H	1.123137	-0.465036	0.280291
H182	H	1.623137	0.034964	0.780291
