data_functionalizedCrystal
_audit_creation_method	'MofGen! by Chris Wilmer'
_symmetry_space_group_name_H-M	'P1'
_symmetry_Int_Tables_number	1
_symmetry_cell_setting	triclinic
loop_
_symmetry_equiv_pos_as_xyz
  x,y,z
_cell_length_a	14.971486
_cell_length_b	11.792254
_cell_length_c	13.448316
_cell_angle_alpha	89.993237
_cell_angle_beta	89.998199
_cell_angle_gamma	83.906363
loop_
_atom_site_label
_atom_site_type_symbol
_atom_site_fract_x
_atom_site_fract_y
_atom_site_fract_z
O1	O	1.187545	0.147909	-0.082578
O2	O	0.927217	0.165621	-0.082605
O3	O	1.063693	-0.008446	-0.082584
O4	O	1.051069	0.321975	-0.082599
O5	O	1.063675	-0.008456	0.082800
O6	O	0.927199	0.165610	0.082779
O7	O	1.187528	0.147898	0.082806
Cu8	Cu	1.057362	0.156753	0.097893
Cu9	Cu	1.057383	0.156766	-0.097692
O10	O	1.051052	0.321964	0.082785
C11	C	0.893880	0.164823	0.000083
C12	C	0.794574	0.162450	0.000073
C13	C	0.737762	0.264709	0.000070
C14	C	0.644453	0.262472	0.000085
C15	C	0.607958	0.157974	0.000096
C16	C	0.664778	0.055707	0.000102
C17	C	0.758084	0.057945	0.000095
C18	C	0.470296	0.051049	0.000116
C19	C	0.376983	0.048810	0.000122
C20	C	0.356665	0.255575	0.000107
C21	C	0.449972	0.257814	0.000099
C22	C	0.506785	0.155546	0.000103
C23	C	1.062889	-0.050737	0.000108
C24	C	1.060509	-0.176734	0.000107
C25	C	1.058575	-0.279058	0.000103
C26	C	1.056157	-0.407429	0.000093
C27	C	1.220865	0.148695	0.000115
C28	C	1.320171	0.151069	0.000119
C29	C	1.051856	0.364255	0.000091
C30	C	1.054236	0.490253	0.000086
N31	N	1.057354	0.156743	0.235458
N32	N	1.057398	0.156766	-0.235257
C33	C	1.117805	0.079698	0.287507
C34	C	1.117810	0.079697	0.391611
C35	C	1.057369	0.156748	0.443662
C36	C	0.996912	0.233796	0.391605
C37	C	0.996903	0.233791	0.287504
C38	C	0.996937	0.233804	0.608585
C39	C	0.996947	0.233811	0.712694
C40	C	1.117844	0.079711	0.712692
C41	C	1.117835	0.079705	0.608591
C42	C	1.057379	0.156755	0.556541
H43	H	0.598200	0.345742	0.000081
H44	H	1.167069	0.016974	0.755077
Br45	Br	0.499500	0.399633	0.000069
Br46	Br	0.914916	0.338384	0.783328
Br47	Br	0.279563	0.394368	0.000099
Br48	Br	1.199844	-0.024868	0.216877
Br49	Br	0.914883	0.338369	0.537949
Br50	Br	0.787280	0.406535	0.000045
Br51	Br	0.835188	-0.080841	0.000108
H52	H	0.635056	-0.029377	0.000126
Br53	Br	1.199870	-0.024853	0.537946
H54	H	0.516551	-0.032229	0.000121
Br55	Br	0.914876	0.338359	0.462242
Br56	Br	0.914853	0.338349	0.216864
H57	H	0.347273	-0.036281	0.000133
Br58	Br	1.199848	-0.024869	0.462253
