data_functionalizedCrystal
_audit_creation_method	'MofGen! by Chris Wilmer'
_symmetry_space_group_name_H-M	'P1'
_symmetry_Int_Tables_number	1
_symmetry_cell_setting	triclinic
loop_
_symmetry_equiv_pos_as_xyz
  x,y,z
_cell_length_a	15.995350
_cell_length_b	14.044191
_cell_length_c	13.101039
_cell_angle_alpha	86.337551
_cell_angle_beta	86.633551
_cell_angle_gamma	91.657925
loop_
_atom_site_label
_atom_site_type_symbol
_atom_site_fract_x
_atom_site_fract_y
_atom_site_fract_z
O1	O	-0.197663	1.262919	-0.085147
O2	O	0.302337	1.762919	0.414853
O3	O	-0.190372	0.986950	-0.085161
O4	O	0.309628	1.486950	0.414839
O5	O	-0.072693	1.132478	-0.085158
O6	O	0.427307	1.632478	0.414842
O7	O	-0.315341	1.117390	-0.085150
O8	O	0.184659	1.617390	0.414850
O9	O	-0.081152	1.122037	0.085272
O10	O	0.418848	1.622037	0.585272
O11	O	-0.198830	0.976509	0.085269
O12	O	0.301170	1.476509	0.585269
O13	O	-0.206121	1.252477	0.085282
O14	O	0.293879	1.752477	0.585282
Zn15	Zn	-0.203819	1.112835	0.112335
Zn16	Zn	0.296181	1.612835	0.612335
Zn17	Zn	-0.192674	1.126592	-0.112213
Zn18	Zn	0.307326	1.626592	0.387787
O19	O	-0.323800	1.106949	0.085279
O20	O	0.176200	1.606949	0.585279
C21	C	-0.191411	0.946415	0.000052
C22	C	0.308589	1.446415	0.500052
C23	C	-0.181898	0.841189	0.000046
C24	C	0.318102	1.341189	0.500046
C25	C	-0.231977	0.590902	0.000058
C26	C	0.268023	1.090902	0.500058
C27	C	-0.164519	0.648531	0.000054
C28	C	0.335481	1.148531	0.500054
C29	C	-0.174191	0.755736	0.000050
C30	C	0.325809	1.255736	0.500050
C31	C	-0.222306	0.483687	0.000063
C32	C	0.277694	0.983687	0.500063
C33	C	-0.350812	1.112793	0.000065
C34	C	0.149188	1.612793	0.500065
C35	C	-0.443902	1.114663	0.000068
C36	C	0.056098	1.614663	0.500068
C37	C	-0.782151	1.121380	0.000053
C38	C	-0.282151	1.621380	0.500053
C39	C	-0.742441	1.225046	-0.000323
C40	C	-0.242441	1.725046	0.499677
C41	C	-0.645631	1.223151	0.000067
C42	C	-0.145631	1.723151	0.500067
C43	C	-0.614342	1.118048	0.000060
C44	C	-0.114342	1.618048	0.500060
C45	C	-0.656435	1.060966	0.097377
C46	C	-0.156435	1.560966	0.597377
C47	C	-0.753269	1.063565	0.097453
C48	C	-0.253269	1.563565	0.597453
C49	C	-0.743838	1.073297	-0.096357
C50	C	-0.243838	1.573297	0.403643
C51	C	-0.646831	1.073400	-0.097638
C52	C	-0.146831	1.573400	0.402362
C53	C	-0.519504	1.116160	0.000067
C54	C	-0.019504	1.616160	0.500067
C55	C	-0.876989	1.123265	0.000052
C56	C	-0.376989	1.623265	0.500052
C57	C	-0.045681	1.126634	0.000054
C58	C	0.454319	1.626634	0.500054
C59	C	0.047410	1.124765	0.000044
C60	C	0.547410	1.624765	0.500044
C61	C	-0.205081	1.293013	0.000067
C62	C	0.294919	1.793013	0.500067
C63	C	-0.214595	1.398239	0.000066
C64	C	0.285405	1.898239	0.500066
N65	N	-0.211425	1.103453	0.265583
N66	N	0.288575	1.603453	0.765583
N67	N	-0.185062	1.135982	-0.265462
N68	N	0.314938	1.635982	0.234538
C69	C	-0.221780	1.090689	0.474626
C70	C	0.278220	1.590689	0.974626
C71	C	-0.174709	1.148743	0.525503
C72	C	0.325291	1.648743	1.025503
C73	C	-0.180471	1.141641	0.641821
C74	C	0.319529	1.641641	1.141821
C75	C	-0.216019	1.097790	0.358297
C76	C	0.283981	1.597790	0.858297
H77	H	-0.099500	0.617361	-0.000020
H78	H	0.400500	1.117361	0.499980
Br79	Br	-0.340335	0.642861	0.000051
Br80	Br	0.159665	1.142861	0.500051
Br81	Br	-0.100712	1.240875	0.452505
Br82	Br	0.399288	1.740875	0.952505
H83	H	-0.616745	1.267614	-0.069690
H84	H	-0.116745	1.767614	0.430310
H85	H	-0.760589	1.270742	-0.070122
H86	H	-0.260589	1.770742	0.429878
H87	H	-0.768641	1.262076	0.069013
H88	H	-0.268641	1.762076	0.569013
H89	H	-0.266404	1.035657	0.518421
H90	H	0.233596	1.535657	1.018421
H91	H	-0.624261	1.259321	0.069955
H92	H	-0.124261	1.759321	0.569955
H93	H	-0.777970	1.096386	0.170205
H94	H	-0.277970	1.596386	0.670205
Br95	Br	-0.797914	0.936292	0.104826
Br96	Br	-0.297914	1.436292	0.604826
Br97	Br	-0.623582	0.931894	0.103406
Br98	Br	-0.123582	1.431894	0.603406
Br99	Br	-0.619562	1.112751	0.218102
Br100	Br	-0.119562	1.612751	0.718102
Br101	Br	-0.600017	1.142962	-0.217639
Br102	Br	-0.100017	1.642962	0.282361
Br103	Br	-0.776193	1.137298	-0.219303
Br104	Br	-0.276193	1.637298	0.280697
H105	H	-0.625446	0.997117	-0.103523
H106	H	-0.125446	1.497117	0.396477
H107	H	-0.769844	0.996916	-0.097008
H108	H	-0.269844	1.496916	0.402992
