data_functionalizedCrystal
_audit_creation_method	'MofGen! by Chris Wilmer'
_symmetry_space_group_name_H-M	'P1'
_symmetry_Int_Tables_number	1
_symmetry_cell_setting	triclinic
loop_
_symmetry_equiv_pos_as_xyz
  x,y,z
_cell_length_a	18.050589
_cell_length_b	18.101398
_cell_length_c	18.101389
_cell_angle_alpha	90.006642
_cell_angle_beta	89.982037
_cell_angle_gamma	89.976974
loop_
_atom_site_label
_atom_site_type_symbol
_atom_site_fract_x
_atom_site_fract_y
_atom_site_fract_z
Zn1	Zn	-0.295811	-1.132121	-0.418550
Zn2	Zn	0.204189	-0.632121	0.081450
Zn3	Zn	-0.419994	-1.132028	-0.294719
Zn4	Zn	0.080006	-0.632028	0.205281
Zn5	Zn	-0.295811	-1.008285	-0.294746
Zn6	Zn	0.204189	-0.508285	0.205254
Zn7	Zn	-0.419953	-1.008237	-0.418541
Zn8	Zn	0.080047	-0.508237	0.081459
O9	O	-0.357892	-1.070168	-0.356639
O10	O	0.142108	-0.570168	0.143361
O11	O	-0.312302	-1.235742	-0.402117
O12	O	0.187698	-0.735742	0.097883
O13	O	-0.403538	-1.115594	-0.191089
O14	O	0.096462	-0.615594	0.308911
O15	O	-0.191887	-1.024771	-0.311184
O16	O	0.308113	-0.524771	0.188816
O17	O	-0.403538	-1.235673	-0.311138
O18	O	0.096462	-0.735673	0.188862
O19	O	-0.191887	-1.115753	-0.402143
O20	O	0.308113	-0.615753	0.097857
O21	O	-0.312302	-1.024680	-0.191109
O22	O	0.187698	-0.524680	0.308891
O23	O	-0.312262	-0.904646	-0.311175
O24	O	0.187738	-0.404646	0.188825
O25	O	-0.403468	-1.024690	-0.522175
O26	O	0.096532	-0.524690	-0.022175
O27	O	-0.403468	-0.904611	-0.402127
O28	O	0.096532	-0.404611	0.097873
O29	O	-0.312262	-1.115707	-0.522182
O30	O	0.187738	-0.615707	-0.022182
O31	O	-0.523913	-1.115548	-0.311129
O32	O	-0.023913	-0.615548	0.188871
O33	O	-0.523883	-1.024599	-0.402100
O34	O	-0.023883	-0.524599	0.097900
C35	C	-0.357861	-0.877757	-0.356653
C36	C	0.142139	-0.377757	0.143347
C37	C	-0.357865	-0.795443	-0.356677
C38	C	0.142135	-0.295443	0.143323
C39	C	-0.357905	-0.496352	-0.356652
C40	C	0.142095	0.003648	0.143348
C41	C	-0.415567	-0.527680	-0.413593
C42	C	0.084433	-0.027680	0.086407
C43	C	-0.415388	-0.613299	-0.413826
C44	C	0.084612	-0.113299	0.086174
C45	C	-0.357886	-0.644735	-0.356664
C46	C	0.142114	-0.144735	0.143336
C47	C	-0.279666	-0.613676	-0.377987
C48	C	0.220334	-0.113676	0.122013
C49	C	-0.280011	-0.528031	-0.378393
C50	C	0.219989	-0.028031	0.121607
C51	C	-0.377773	-0.527903	-0.278250
C52	C	0.122227	-0.027903	0.221750
C53	C	-0.379491	-0.613553	-0.278667
C54	C	0.120509	-0.113553	0.221333
C55	C	-0.357870	-0.728594	-0.356670
C56	C	0.142130	-0.228594	0.143330
C57	C	-0.357915	-0.412493	-0.356648
C58	C	0.142085	0.087507	0.143352
C59	C	-0.550845	-1.070078	-0.356627
C60	C	-0.050845	-0.570078	0.143373
C61	C	-0.633390	-1.070108	-0.356646
C62	C	-0.133390	-0.570108	0.143354
C63	C	-0.832851	-1.020699	-0.406099
C64	C	-0.332851	-0.520699	0.093901
C65	C	-0.882283	-1.002649	-0.338526
C66	C	-0.382283	-0.502649	0.161474
C67	C	-0.784521	-1.070181	-0.356656
C68	C	-0.284521	-0.570181	0.143344
C69	C	-0.882170	-1.088267	-0.424237
C70	C	-0.382170	-0.588267	0.075763
C71	C	-0.930506	-1.070250	-0.356671
C72	C	-0.430506	-0.570250	0.143329
C73	C	-0.832866	-1.052096	-0.289046
C74	C	-0.332866	-0.552096	0.210954
C75	C	-0.832748	-1.137744	-0.374804
C76	C	-0.332748	-0.637744	0.125196
C77	C	-0.882158	-1.119720	-0.307183
C78	C	-0.382158	-0.619720	0.192817
C79	C	-0.700422	-1.070139	-0.356648
C80	C	-0.200422	-0.570139	0.143352
C81	C	-1.014602	-1.070291	-0.356671
C82	C	-0.514602	-0.570291	0.143329
C83	C	-0.164187	-1.070278	-0.356667
C84	C	0.335813	-0.570278	0.143333
C85	C	-0.081641	-1.070325	-0.356680
C86	C	0.418359	-0.570325	0.143320
C87	C	-0.357860	-1.070204	-0.549801
C88	C	0.142140	-0.570204	-0.049801
C89	C	-0.357847	-1.070220	-0.632115
C90	C	0.142153	-0.570220	-0.132115
C91	C	-0.357921	-0.263330	-0.356630
C92	C	0.142079	0.236670	0.143370
C93	C	-0.357925	-0.345644	-0.356639
C94	C	0.142075	0.154356	0.143361
C95	C	-0.357789	-1.070247	-0.782824
C96	C	0.142211	-0.570247	-0.282824
C97	C	-0.415162	-1.012991	-0.814173
C98	C	0.084838	-0.512991	-0.314173
C99	C	-0.414960	-1.012783	-0.899791
C100	C	0.085040	-0.512783	-0.399791
C101	C	-0.357733	-1.070275	-0.931206
C102	C	0.142267	-0.570275	-0.431206
C103	C	-0.279417	-1.049384	-0.900122
C104	C	0.220583	-0.549384	-0.400122
C105	C	-0.279781	-1.048952	-0.814477
C106	C	0.220219	-0.548952	-0.314477
C107	C	-0.378036	-1.148545	-0.814379
C108	C	0.121964	-0.648545	-0.314379
C109	C	-0.379730	-1.148141	-0.900029
C110	C	0.120270	-0.648141	-0.400029
C111	C	-0.357697	-1.070291	-1.015066
C112	C	0.142303	-0.570291	-0.515066
C113	C	-0.357820	-1.070229	-0.698964
C114	C	0.142180	-0.570229	-0.198964
C115	C	-0.357871	-1.070174	-0.164228
C116	C	0.142129	-0.570174	0.335772
C117	C	-0.357675	-1.070302	-0.081915
C118	C	0.142325	-0.570302	0.418085
H119	H	-0.235539	-0.634039	-0.337806
H120	H	0.264461	-0.134039	0.162194
O121	O	-0.322141	-0.501067	-0.222050
O122	O	0.177859	-0.001067	0.277950
H123	H	-0.336539	-0.523581	-0.166851
H124	H	0.163461	-0.023581	0.333149
O125	O	-0.804298	-1.031781	-0.213328
O126	O	-0.304298	-0.531781	0.286672
H127	H	-0.824506	-1.072654	-0.172307
H128	H	-0.324506	-0.572654	0.327693
O129	O	-0.398377	-0.499194	-0.490100
O130	O	0.101623	0.000806	0.009900
H131	H	-0.387105	-0.546520	-0.527449
H132	H	0.112895	-0.046520	-0.027449
H133	H	-0.903671	-1.161595	-0.265329
H134	H	-0.403671	-0.661595	0.234671
H135	H	-0.810975	-1.194836	-0.390172
H136	H	-0.310975	-0.694836	0.109828
H137	H	-0.433835	-0.506293	-0.258873
H138	H	0.066165	-0.006293	0.241127
H139	H	-0.262509	-0.635138	-0.434678
H140	H	0.237491	-0.135138	0.065322
H141	H	-0.434193	-1.167606	-0.792778
H142	H	0.065807	-0.667606	-0.292778
H143	H	-0.437368	-1.163897	-0.920343
H144	H	0.062632	-0.663897	-0.420343
H145	H	-0.235560	-1.088857	-0.793738
H146	H	0.264440	-0.588857	-0.293738
O147	O	-0.911107	-0.927008	-0.318188
O148	O	-0.411107	-0.427008	0.181812
H149	H	-0.891365	-0.886002	-0.359301
H150	H	-0.391365	-0.386002	0.140699
O151	O	-0.804163	-0.965190	-0.461402
O152	O	-0.304163	-0.465190	0.038598
H153	H	-0.824764	-0.979660	-0.517328
H154	H	-0.324764	-0.479660	-0.017328
H155	H	-0.437049	-0.633861	-0.262586
H156	H	0.062951	-0.133861	0.237414
H157	H	-0.903828	-1.103536	-0.481384
H158	H	-0.403828	-0.603536	0.018616
H159	H	-0.340542	-0.634953	-0.233963
H160	H	0.159458	-0.134953	0.266037
O161	O	-0.257086	-0.973156	-0.788017
O162	O	0.242914	-0.473156	-0.288017
H163	H	-0.245960	-0.937153	-0.836393
H164	H	0.254040	-0.437153	-0.336393
O165	O	-0.221178	-0.500590	-0.325844
O166	O	0.278822	-0.000590	0.174156
H167	H	-0.247413	-0.466527	-0.282061
H168	H	0.252587	0.033473	0.217939
O169	O	-0.397605	-0.936573	-0.785685
O170	O	0.102395	-0.436573	-0.285685
H171	H	-0.341017	-0.920601	-0.803586
H172	H	0.158983	-0.420601	-0.303586
H173	H	-0.473025	-1.025824	-0.920809
H174	H	0.026975	-0.525824	-0.420809
O175	O	-0.397149	-0.935948	-0.926954
O176	O	0.102851	-0.435948	-0.426954
H177	H	-0.388640	-0.898797	-0.878916
H178	H	0.111360	-0.398797	-0.378916
H179	H	-0.473424	-1.025870	-0.793578
H180	H	0.026576	-0.525870	-0.293578
H181	H	-0.235484	-1.089817	-0.920469
H182	H	0.264516	-0.589817	-0.420469
O183	O	-0.397960	-0.640458	-0.490768
O184	O	0.102040	-0.140458	0.009232
H185	H	-0.440653	-0.619807	-0.529762
H186	H	0.059347	-0.119807	-0.029762
H187	H	-0.261975	-0.992796	-0.921580
H188	H	0.238025	-0.492796	-0.421580
O189	O	-0.257692	-0.501576	-0.454311
O190	O	0.242308	-0.001576	0.045689
H191	H	-0.246758	-0.549954	-0.490390
H192	H	0.253242	-0.049954	0.009610
H193	H	-0.336246	-1.191200	-0.794109
H194	H	0.163754	-0.691200	-0.294109
O195	O	-0.328410	-1.207651	-0.928339
O196	O	0.171590	-0.707651	-0.428339
H197	H	-0.331289	-1.209609	-0.989557
H198	H	0.168711	-0.709609	-0.489557
O199	O	-0.492220	-0.641122	-0.396129
O200	O	0.007780	-0.141122	0.103871
H201	H	-0.531743	-0.620557	-0.438356
H202	H	-0.031743	-0.120557	0.061644
O203	O	-0.492655	-0.500374	-0.396106
O204	O	0.007345	-0.000374	0.103894
H205	H	-0.490697	-0.464178	-0.346646
H206	H	0.009303	0.035822	0.153354
