data_functionalizedCrystal
_audit_creation_method	'MofGen! by Chris Wilmer'
_symmetry_space_group_name_H-M	'P1'
_symmetry_Int_Tables_number	1
_symmetry_cell_setting	triclinic
loop_
_symmetry_equiv_pos_as_xyz
  x,y,z
_cell_length_a	15.625950
_cell_length_b	23.532407
_cell_length_c	14.750779
_cell_angle_alpha	102.566003
_cell_angle_beta	59.909492
_cell_angle_gamma	83.582877
loop_
_atom_site_label
_atom_site_type_symbol
_atom_site_fract_x
_atom_site_fract_y
_atom_site_fract_z
O1	O	1.286039	0.017563	-0.367685
O2	O	0.998882	0.041858	-0.267755
O3	O	1.151124	-0.053655	-0.320753
O4	O	1.133796	0.113076	-0.314688
O5	O	1.194161	-0.080653	-0.495385
O6	O	1.041919	0.014860	-0.442387
O7	O	1.329076	-0.009434	-0.542317
Zn8	Zn	1.192330	-0.001574	-0.520079
Zn9	Zn	1.135627	0.033997	-0.289994
O10	O	1.176833	0.086079	-0.489320
C11	C	0.983669	0.029932	-0.342289
C12	C	0.874223	0.034613	-0.304203
C13	C	0.631439	-0.023523	-0.654773
C14	C	0.528582	-0.019106	-0.618936
C15	C	0.481716	0.010323	-0.428577
C16	C	0.584570	0.005911	-0.464398
C17	C	0.659424	-0.011013	-0.577497
C18	C	0.612555	0.018422	-0.387122
C19	C	0.715400	0.014007	-0.422941
C20	C	0.790261	-0.002918	-0.536035
C21	C	0.762269	-0.015428	-0.613316
C22	C	0.537700	0.035342	-0.274023
C23	C	0.565685	0.047852	-0.196747
C24	C	0.668532	0.043442	-0.232565
C25	C	0.743392	0.026517	-0.345660
C26	C	0.696523	0.055952	-0.155285
C27	C	0.799368	0.051537	-0.191104
C28	C	0.846237	0.022102	-0.381479
C29	C	1.172202	-0.088348	-0.407918
C30	C	1.170878	-0.151501	-0.407465
C31	C	1.252639	-0.554665	-0.435864
C32	C	1.251405	-0.614002	-0.435428
O33	O	1.327201	-0.654513	-0.461769
N34	N	1.160900	-0.632124	-0.403933
C35	C	1.071620	-0.590903	-0.372862
O36	O	0.994525	-0.611766	-0.346032
C37	C	1.072853	-0.531566	-0.373292
C38	C	1.163367	-0.513449	-0.404799
C39	C	1.343145	-0.536547	-0.467368
C40	C	1.344378	-0.477213	-0.467806
C41	C	1.255106	-0.435998	-0.436741
C42	C	1.164600	-0.454116	-0.405237
C43	C	0.983572	-0.490345	-0.342214
C44	C	0.984813	-0.431004	-0.342645
C45	C	1.075326	-0.412887	-0.374152
C46	C	1.076562	-0.353567	-0.374611
N47	N	1.167067	-0.335445	-0.406105
C48	C	1.256339	-0.376660	-0.437171
C49	C	1.069037	-0.715517	-0.371961
C50	C	1.067805	-0.774855	-0.371538
C51	C	1.247590	-0.797949	-0.434102
C52	C	1.248823	-0.738611	-0.434532
C53	C	1.159542	-0.697395	-0.403456
C54	C	1.258923	-0.252055	-0.438090
C55	C	1.260150	-0.192716	-0.438530
C56	C	1.080365	-0.169626	-0.375961
C57	C	1.079139	-0.228961	-0.375526
C58	C	1.168425	-0.270174	-0.406590
O59	O	1.000804	-0.313022	-0.348279
O60	O	1.333418	-0.355786	-0.463982
C61	C	1.344287	0.002492	-0.467781
C62	C	1.453732	-0.002188	-0.505860
C63	C	1.155754	0.120772	-0.402152
C64	C	1.157077	0.183926	-0.402598
N65	N	1.231036	-0.025850	-0.677108
C66	C	0.988830	0.126045	-0.944612
C67	C	1.015960	0.109036	-1.054555
C68	C	1.150798	0.024487	-1.101457
C69	C	1.123676	0.041486	-0.991514
C70	C	1.042692	0.092266	-0.913100
C71	C	1.177538	0.007708	-0.960002
C72	C	1.150422	0.024708	-0.850070
C73	C	1.069444	0.075486	-0.771650
C74	C	1.015576	0.109266	-0.803168
C75	C	1.258527	-0.043069	-1.038420
C76	C	1.312389	-0.076848	-1.006907
C77	C	1.285268	-0.059850	-0.896972
C78	C	1.204290	-0.009072	-0.818552
C79	C	1.339136	-0.093630	-0.865455
C80	C	1.312019	-0.076630	-0.755523
C81	C	1.177173	0.007928	-0.708621
N82	N	1.096929	0.058269	-0.132967
H83	H	0.692388	-0.037296	-0.746869
C84	C	0.956697	0.146199	-1.089210
N85	N	0.912062	0.174189	-1.115313
H86	H	1.378329	-0.118192	-1.070765
C87	C	1.441363	-0.581878	-0.501557
N88	N	1.515351	-0.616021	-0.527322
H89	H	0.949624	0.150612	-0.739316
H90	H	1.111221	0.049275	-0.644768
H91	H	1.322527	-0.723866	-0.460187
H92	H	0.635564	0.069725	-0.063200
H93	H	0.996332	-0.681961	-0.346662
H94	H	0.909865	-0.505083	-0.316551
H95	H	1.005442	-0.243716	-0.349899
H96	H	1.047370	0.089329	-0.682139
H97	H	1.007683	-0.136059	-0.350672
H98	H	0.912108	-0.397447	-0.317337
C99	C	0.399366	0.028940	-0.304170
N100	N	0.337340	0.042964	-0.210465
C101	C	0.497806	-0.032871	-0.703955
N102	N	0.474625	-0.043241	-0.767991
C103	C	0.899704	0.181884	-0.858335
N104	N	0.832565	0.223935	-0.793348
H105	H	1.216738	-0.016857	-1.165314
C106	C	1.345789	-0.843296	-0.468264
N107	N	1.419747	-0.877452	-0.493991
C108	C	0.903394	-0.007773	-0.575437
N109	N	0.988606	-0.011428	-0.605114
H110	H	1.280605	-0.056907	-1.127933
H111	H	0.994105	-0.789602	-0.345900
H112	H	1.405080	-0.134972	-0.929315
H113	H	0.907187	0.008330	-0.473575
C114	C	0.844615	-0.034042	-0.737731
N115	N	0.906637	-0.048063	-0.831437
C116	C	0.483336	0.066469	-0.072341
N117	N	0.421310	0.080493	0.021364
H118	H	0.822152	0.061727	-0.128177
H119	H	0.453957	0.038939	-0.244863
C120	C	1.359726	-0.172792	-0.473189
N121	N	1.434723	-0.157787	-0.499291
C122	C	1.371268	-0.113789	-0.720856
N123	N	1.415898	-0.141778	-0.694746
H124	H	1.331628	-0.285605	-0.463381
H125	H	1.418083	-0.462469	-0.493459
