data_functionalizedCrystal
_audit_creation_method	'MofGen! by Chris Wilmer'
_symmetry_space_group_name_H-M	'P1'
_symmetry_Int_Tables_number	1
_symmetry_cell_setting	triclinic
loop_
_symmetry_equiv_pos_as_xyz
  x,y,z
_cell_length_a	19.121102
_cell_length_b	19.121063
_cell_length_c	19.120904
_cell_angle_alpha	94.741613
_cell_angle_beta	90.088173
_cell_angle_gamma	90.126902
loop_
_atom_site_label
_atom_site_type_symbol
_atom_site_fract_x
_atom_site_fract_y
_atom_site_fract_z
Zn1	Zn	1.039579	-0.343506	-0.456040
Zn2	Zn	1.539579	0.156494	0.043960
Zn3	Zn	1.039493	-0.456149	-0.343386
Zn4	Zn	1.539493	0.043851	0.156614
Zn5	Zn	0.927792	-0.333518	-0.333417
Zn6	Zn	1.427792	0.166482	0.166583
Zn7	Zn	0.917325	-0.455677	-0.455570
Zn8	Zn	1.417325	0.044323	0.044430
O9	O	0.981047	-0.397212	-0.397103
O10	O	1.481047	0.102788	0.102897
O11	O	1.137479	-0.362826	-0.445465
O12	O	1.637479	0.137174	0.054535
O13	O	1.029020	-0.435899	-0.243797
O14	O	1.529020	0.064101	0.256203
O15	O	0.947038	-0.236577	-0.345708
O16	O	1.447038	0.263423	0.154292
O17	O	1.137415	-0.445584	-0.362699
O18	O	1.637415	0.054416	0.137301
O19	O	1.029167	-0.243915	-0.435798
O20	O	1.529167	0.256085	0.064202
O21	O	0.946954	-0.345802	-0.236473
O22	O	1.446954	0.154198	0.263527
O23	O	0.828493	-0.345345	-0.345252
O24	O	1.328493	0.154655	0.154748
O25	O	0.929198	-0.444780	-0.553899
O26	O	1.429198	0.055220	-0.053899
O27	O	0.820803	-0.435094	-0.434997
O28	O	1.320803	0.064906	0.065003
O29	O	1.019018	-0.362368	-0.554244
O30	O	1.519018	0.137632	-0.054244
O31	O	1.018870	-0.554352	-0.362243
O32	O	1.518870	-0.054352	0.137757
O33	O	0.929114	-0.554005	-0.444664
O34	O	1.429114	-0.054005	0.055336
C35	C	0.799261	-0.389085	-0.388992
C36	C	1.299261	0.110915	0.111008
C37	C	0.721490	-0.385626	-0.385539
C38	C	1.221490	0.114374	0.114461
C39	C	0.680968	-0.430793	-0.430575
C40	C	1.180968	0.069207	0.069425
C41	C	0.607894	-0.427534	-0.427334
C42	C	1.107894	0.072466	0.072666
C43	C	0.575344	-0.379110	-0.379053
C44	C	1.075344	0.120890	0.120947
C45	C	0.615872	-0.333937	-0.334016
C46	C	1.115872	0.166063	0.165984
C47	C	0.688944	-0.337194	-0.337261
C48	C	1.188944	0.162806	0.162739
C49	C	0.354913	-0.366933	-0.366924
C50	C	0.854913	0.133067	0.133076
C51	C	0.281835	-0.363681	-0.363681
C52	C	0.781835	0.136319	0.136319
C53	C	0.273863	-0.457277	-0.457000
C54	C	0.773863	0.042723	0.043000
C55	C	0.346937	-0.460532	-0.460238
C56	C	0.846937	0.039468	0.039762
C57	C	0.387458	-0.415357	-0.415203
C58	C	0.887458	0.084643	0.084797
C59	C	0.500651	-0.375778	-0.375738
C60	C	1.000651	0.124222	0.124262
C61	C	0.462149	-0.418686	-0.418523
C62	C	0.962149	0.081314	0.081477
C63	C	0.972865	-0.579659	-0.404501
C64	C	1.472865	-0.079659	0.095499
C65	C	0.969428	-0.657714	-0.407691
C66	C	1.469428	-0.157714	0.092309
C67	C	1.014577	-0.694545	-0.366317
C68	C	1.514577	-0.194545	0.133683
C69	C	1.011348	-0.767887	-0.369323
C70	C	1.511348	-0.267887	0.130677
C71	C	0.962966	-0.804396	-0.413699
C72	C	1.462966	-0.304396	0.086301
C73	C	0.917815	-0.767560	-0.455078
C74	C	1.417815	-0.267560	0.044922
C75	C	0.921048	-0.694220	-0.452076
C76	C	1.421048	-0.194220	0.047924
C77	C	0.950869	-1.025828	-0.424912
C78	C	1.450869	-0.525828	0.075088
C79	C	0.947638	-1.099173	-0.427909
C80	C	1.447638	-0.599173	0.072091
C81	C	1.041173	-1.099494	-0.342155
C82	C	1.541173	-0.599494	0.157845
C83	C	1.044399	-1.026153	-0.339154
C84	C	1.544399	-0.526153	0.160846
C85	C	0.999250	-0.989323	-0.380535
C86	C	1.499250	-0.489323	0.119465
C87	C	0.959663	-0.879363	-0.416770
C88	C	1.459663	-0.379363	0.083230
C89	C	1.002557	-0.914358	-0.377467
C90	C	1.502557	-0.414358	0.122533
C91	C	1.163544	-0.405372	-0.405246
C92	C	1.663544	0.094628	0.094754
C93	C	1.241313	-0.408849	-0.408717
C94	C	1.741313	0.091151	0.091283
C95	C	0.972950	-0.404635	-0.580263
C96	C	1.472950	0.095365	-0.080263
C97	C	0.969500	-0.407799	-0.658315
C98	C	1.469500	0.092201	-0.158315
C99	C	0.989280	-0.214054	-0.389693
C100	C	1.489280	0.285946	0.110307
C101	C	0.992788	-0.136003	-0.386535
C102	C	1.492788	0.363997	0.113465
C103	C	1.014640	-0.366379	-0.695165
C104	C	1.514640	0.133621	-0.195165
C105	C	1.011390	-0.369348	-0.768503
C106	C	1.511390	0.130652	-0.268503
C107	C	0.963001	-0.413741	-0.804990
C108	C	1.463001	0.086259	-0.304990
C109	C	0.917856	-0.455162	-0.768135
C110	C	1.417856	0.044838	-0.268135
C111	C	0.921103	-0.452188	-0.694798
C112	C	1.421103	0.047812	-0.194798
C113	C	0.950853	-0.424862	-1.026410
C114	C	1.450853	0.075138	-0.526410
C115	C	0.947610	-0.427833	-1.099752
C116	C	1.447610	0.072167	-0.599752
C117	C	1.041143	-0.342019	-1.100115
C118	C	1.541143	0.157981	-0.600115
C119	C	1.044390	-0.339052	-1.026777
C120	C	1.544390	0.160948	-0.526777
C121	C	0.999242	-0.380470	-0.989928
C122	C	1.499242	0.119530	-0.489928
C123	C	0.959679	-0.416779	-0.879953
C124	C	1.459679	0.083221	-0.379953
C125	C	1.002561	-0.377429	-0.914966
C126	C	1.502561	0.122571	-0.414966
C127	C	0.989156	-0.389769	-0.214655
C128	C	1.489156	0.110231	0.285345
C129	C	0.992751	-0.386414	-0.136602
C130	C	1.492751	0.113586	0.363398
H131	H	0.707464	-0.470228	-0.469888
H132	H	1.207464	0.029772	0.030112
H133	H	1.083794	-0.302905	-0.997075
H134	H	1.583794	0.197095	-0.497075
H135	H	0.920284	-0.452927	-0.909669
H136	H	1.420284	0.047073	-0.409669
H137	H	0.920269	-0.909097	-0.452900
H138	H	1.420269	-0.409097	0.047100
H139	H	0.914106	-0.995847	-0.458605
H140	H	1.414106	-0.495847	0.041395
H141	H	1.041956	-0.341281	-0.885255
H142	H	1.541956	0.158719	-0.385255
N143	N	1.057511	-0.327053	-0.806147
N144	N	1.557511	0.172947	-0.306147
N145	N	1.099170	-0.355417	-0.850062
N146	N	1.599170	0.144583	-0.350062
H147	H	1.131745	-0.325544	-0.876649
H148	H	1.631745	0.174456	-0.376649
N149	N	1.087241	-0.299697	-1.137756
N150	N	1.587241	0.200303	-0.637756
N151	N	1.085868	-0.234362	-1.126736
N152	N	1.585868	0.265638	-0.626736
H153	H	1.118424	-0.204467	-1.153320
H154	H	1.618424	0.295533	-0.653320
N155	N	1.064077	-0.321033	-0.657910
N156	N	1.564077	0.178967	-0.157910
N157	N	1.104376	-0.284055	-0.690824
N158	N	1.604376	0.215945	-0.190824
H159	H	1.139292	-0.252026	-0.664514
H160	H	1.639292	0.247974	-0.164514
N161	N	0.730349	-0.291068	-0.291256
N162	N	1.230349	0.208932	0.208744
N163	N	0.795591	-0.293982	-0.294159
N164	N	1.295591	0.206018	0.205841
H165	H	0.824834	-0.261403	-0.261669
H166	H	1.324834	0.238597	0.238331
N167	N	0.898154	-0.473162	-1.137010
N168	N	1.398154	0.026838	-0.637010
N169	N	0.857832	-0.510122	-1.104101
N170	N	1.357832	-0.010122	-0.604101
H171	H	0.822897	-0.542126	-1.130414
H172	H	1.322897	-0.042126	-0.630414
N173	N	1.057483	-0.805498	-0.327066
N174	N	1.557483	-0.305498	0.172934
N175	N	1.100681	-0.772893	-0.287451
N176	N	1.600681	-0.272893	0.212549
H177	H	1.133269	-0.799456	-0.257609
H178	H	1.633269	-0.299456	0.242391
H179	H	0.574904	-0.464315	-0.464006
H180	H	1.074904	0.035685	0.035994
N181	N	0.380172	-0.510003	-0.509558
N182	N	0.880172	-0.010003	-0.009558
N183	N	0.343983	-0.550328	-0.549766
N184	N	0.843983	-0.050328	-0.049766
H185	H	0.367455	-0.585270	-0.584598
H186	H	0.867455	-0.085270	-0.084598
H187	H	0.240863	-0.494055	-0.493666
H188	H	0.740863	0.005945	0.006334
N189	N	0.904732	-0.467173	-0.988787
N190	N	1.404732	0.032827	-0.488787
N191	N	0.861534	-0.506807	-1.021375
N192	N	1.361534	-0.006807	-0.521375
H193	H	0.828959	-0.536692	-0.994802
H194	H	1.328959	-0.036692	-0.494802
H195	H	0.488655	-0.458110	-0.457836
H196	H	0.988655	0.041890	0.042164
N197	N	0.868426	-0.500498	-0.805413
N198	N	1.368426	-0.000498	-0.305413
N199	N	0.865532	-0.503148	-0.870891
N200	N	1.365532	-0.003148	-0.370891
H201	H	0.830622	-0.535169	-0.897219
H202	H	1.330622	-0.035169	-0.397219
H203	H	0.255336	-0.324240	-0.324369
H204	H	0.755336	0.175760	0.175631
N205	N	0.874917	-0.656595	-0.494326
N206	N	1.374917	-0.156595	0.005674
N207	N	0.833246	-0.612727	-0.465922
N208	N	1.333246	-0.112727	0.034078
H209	H	0.800666	-0.586155	-0.495764
H210	H	1.300666	-0.086155	0.004236
N211	N	0.396287	-0.320788	-0.320915
N212	N	0.896287	0.179212	0.179085
N213	N	0.367213	-0.277561	-0.277807
N214	N	0.867213	0.222439	0.222193
H215	H	0.396436	-0.244971	-0.245309
H216	H	0.896436	0.255029	0.254691
N217	N	0.582614	-0.284472	-0.284707
N218	N	1.082614	0.215528	0.215293
N219	N	0.517371	-0.281570	-0.281815
N220	N	1.017371	0.218430	0.218185
H221	H	0.493883	-0.246635	-0.246989
H222	H	0.993883	0.253365	0.253011
H223	H	0.878424	-0.797292	-0.491213
H224	H	1.378424	-0.297292	0.008787
H225	H	0.474141	-0.336353	-0.336426
H226	H	0.974141	0.163647	0.163574
N227	N	1.063998	-0.657266	-0.320978
N228	N	1.563998	-0.157266	0.179022
N229	N	1.104306	-0.690163	-0.284040
N230	N	1.604306	-0.190163	0.215960
H231	H	1.139211	-0.663837	-0.252018
H232	H	1.639211	-0.163837	0.247982
H233	H	1.041952	-0.884631	-0.341339
H234	H	1.541952	-0.384631	0.158661
H235	H	0.884338	-0.485909	-0.664795
H236	H	1.384338	0.014091	-0.164795
H237	H	1.077932	-1.129489	-0.308466
H238	H	1.577932	-0.629489	0.191534
N239	N	1.093822	-0.988873	-0.293818
N240	N	1.593822	-0.488873	0.206182
N241	N	1.134131	-1.021766	-0.256879
N242	N	1.634131	-0.521766	0.243121
H243	H	1.169035	-0.995438	-0.224857
H244	H	1.669035	-0.495438	0.275143
H245	H	0.908248	-1.128897	-0.464059
H246	H	1.408248	-0.628897	0.035941
