data_functionalizedCrystal
_audit_creation_method	'MofGen! by Chris Wilmer'
_symmetry_space_group_name_H-M	'P1'
_symmetry_Int_Tables_number	1
_symmetry_cell_setting	triclinic
loop_
_symmetry_equiv_pos_as_xyz
  x,y,z
_cell_length_a	21.295418
_cell_length_b	19.076915
_cell_length_c	19.077174
_cell_angle_alpha	89.935824
_cell_angle_beta	87.664690
_cell_angle_gamma	87.653381
loop_
_atom_site_label
_atom_site_type_symbol
_atom_site_fract_x
_atom_site_fract_y
_atom_site_fract_z
Zn1	Zn	0.965555	0.295455	-0.386433
Zn2	Zn	1.215555	0.545455	-0.136433
Zn3	Zn	1.465555	0.795455	0.113567
Zn4	Zn	1.715555	1.045455	0.363567
Zn5	Zn	0.957024	0.408254	-0.264197
Zn6	Zn	1.207024	0.658254	-0.014197
Zn7	Zn	1.457024	0.908254	0.235803
Zn8	Zn	1.707024	1.158254	0.485803
Zn9	Zn	0.856240	0.290788	-0.268897
Zn10	Zn	1.106240	0.540788	-0.018897
Zn11	Zn	1.356240	0.790788	0.231103
Zn12	Zn	1.606240	1.040788	0.481103
Zn13	Zn	0.855847	0.412964	-0.381626
Zn14	Zn	1.105847	0.662964	-0.131626
Zn15	Zn	1.355847	0.912964	0.118374
Zn16	Zn	1.605847	1.162964	0.368374
O17	O	0.908666	0.351865	-0.325288
O18	O	1.158666	0.601865	-0.075288
O19	O	1.408666	0.851865	0.174712
O20	O	1.658666	1.101865	0.424712
O21	O	1.052515	0.310400	-0.370262
O22	O	1.302515	0.560400	-0.120262
O23	O	1.552515	0.810400	0.129738
O24	O	1.802515	1.060400	0.379738
O25	O	0.940248	0.388747	-0.166487
O26	O	1.190248	0.638747	0.083513
O27	O	1.440248	0.888747	0.333513
O28	O	1.690248	1.138747	0.583513
O29	O	0.874475	0.193069	-0.288467
O30	O	1.124475	0.443069	-0.038467
O31	O	1.374475	0.693069	0.211533
O32	O	1.624475	0.943069	0.461533
O33	O	1.046247	0.393273	-0.280457
O34	O	1.296247	0.643273	-0.030457
O35	O	1.546247	0.893273	0.219543
O36	O	1.796247	1.143273	0.469543
O37	O	0.954789	0.196498	-0.374820
O38	O	1.204789	0.446498	-0.124820
O39	O	1.454789	0.696498	0.125180
O40	O	1.704789	0.946498	0.375180
O41	O	0.866203	0.302445	-0.169940
O42	O	1.116203	0.552445	0.080060
O43	O	1.366203	0.802445	0.330060
O44	O	1.616203	1.052445	0.580060
O45	O	0.768096	0.307012	-0.283806
O46	O	1.018096	0.557012	-0.033806
O47	O	1.268096	0.807012	0.216194
O48	O	1.518096	1.057012	0.466194
O49	O	0.873807	0.401300	-0.480597
O50	O	1.123807	0.651300	-0.230597
O51	O	1.373807	0.901300	0.019403
O52	O	1.623807	1.151300	0.269403
O53	O	0.767808	0.396775	-0.366628
O54	O	1.017808	0.646775	-0.116628
O55	O	1.267808	0.896775	0.133372
O56	O	1.517808	1.146775	0.383372
O57	O	0.954409	0.314967	-0.484129
O58	O	1.204409	0.564967	-0.234129
O59	O	1.454409	0.814967	0.015871
O60	O	1.704409	1.064967	0.265871
O61	O	0.939868	0.507216	-0.275796
O62	O	1.189868	0.757216	-0.025796
O63	O	1.439868	1.007216	0.224204
O64	O	1.689868	1.257216	0.474204
O65	O	0.865534	0.510677	-0.362071
O66	O	1.115534	0.760677	-0.112071
O67	O	1.365534	1.010677	0.137929
O68	O	1.615534	1.260677	0.387929
C69	C	0.901750	0.534445	-0.317917
C70	C	1.151750	0.784445	-0.067917
C71	C	1.401750	1.034445	0.182083
C72	C	1.651750	1.284445	0.432083
C73	C	0.898850	0.612554	-0.314787
C74	C	1.148850	0.862554	-0.064787
C75	C	1.398850	1.112554	0.185213
C76	C	1.648850	1.362554	0.435213
C77	C	0.745111	0.351899	-0.325206
C78	C	0.995111	0.601899	-0.075206
C79	C	1.245111	0.851899	0.174794
C80	C	1.495111	1.101899	0.424794
C81	C	0.675141	0.351931	-0.325187
C82	C	0.925141	0.601931	-0.075187
C83	C	1.175141	0.851931	0.174813
C84	C	1.425141	1.101931	0.424813
C85	C	0.878022	1.052043	-0.292361
C86	C	1.128022	1.302043	-0.042361
C87	C	1.378022	1.552043	0.207639
C88	C	1.628022	1.802043	0.457639
C89	C	0.880749	0.978651	-0.295302
C90	C	1.130749	1.228651	-0.045302
C91	C	1.380749	1.478651	0.204698
C92	C	1.630749	1.728651	0.454698
C93	C	0.923901	0.943683	-0.341767
C94	C	1.173901	1.193683	-0.091767
C95	C	1.423901	1.443683	0.158233
C96	C	1.673901	1.693683	0.408233
C97	C	0.964324	0.982110	-0.385299
C98	C	1.214324	1.232110	-0.135299
C99	C	1.464324	1.482110	0.114701
C100	C	1.714324	1.732110	0.364701
C101	C	0.961594	1.055501	-0.382361
C102	C	1.211594	1.305501	-0.132361
C103	C	1.461594	1.555501	0.117639
C104	C	1.711594	1.805501	0.367639
C105	C	0.936544	0.724373	-0.355381
C106	C	1.186544	0.974373	-0.105381
C107	C	1.436544	1.224373	0.144619
C108	C	1.686544	1.474373	0.394619
C109	C	0.939272	0.650976	-0.358314
C110	C	1.189272	0.900976	-0.108314
C111	C	1.439272	1.150976	0.141686
C112	C	1.689272	1.400976	0.391686
C113	C	0.855695	0.647523	-0.268318
C114	C	1.105695	0.897523	-0.018318
C115	C	1.355695	1.147523	0.231682
C116	C	1.605695	1.397523	0.481682
C117	C	0.852971	0.720915	-0.265381
C118	C	1.102971	0.970915	-0.015381
C119	C	1.352971	1.220915	0.234619
C120	C	1.602971	1.470915	0.484619
C121	C	0.893393	0.759336	-0.308916
C122	C	1.143393	1.009336	-0.058916
C123	C	1.393393	1.259336	0.191084
C124	C	1.643393	1.509336	0.441084
N125	N	0.926690	0.868664	-0.344773
N126	N	1.176690	1.118664	-0.094773
N127	N	1.426690	1.368664	0.155227
N128	N	1.676690	1.618664	0.405227
N129	N	0.890600	0.834354	-0.305913
N130	N	1.140600	1.084354	-0.055913
N131	N	1.390600	1.334354	0.194087
N132	N	1.640600	1.584354	0.444087
C133	C	0.642136	0.398727	-0.368242
C134	C	0.892136	0.648727	-0.118242
C135	C	1.142136	0.898727	0.131758
C136	C	1.392136	1.148727	0.381758
C137	C	0.576395	0.398711	-0.368275
C138	C	0.826395	0.648711	-0.118275
C139	C	1.076395	0.898711	0.131725
C140	C	1.326395	1.148711	0.381725
C141	C	0.543661	0.351905	-0.325238
C142	C	0.793661	0.601905	-0.075238
C143	C	1.043661	0.851905	0.174762
C144	C	1.293661	1.101905	0.424762
C145	C	0.576674	0.305101	-0.282180
C146	C	0.826674	0.555101	-0.032180
C147	C	1.076674	0.805101	0.217820
C148	C	1.326674	1.055101	0.467820
C149	C	0.642414	0.305113	-0.282154
C150	C	0.892414	0.555113	-0.032154
C151	C	1.142414	0.805113	0.217846
C152	C	1.392414	1.055113	0.467846
N153	N	0.438479	0.343947	-0.263999
N154	N	0.688479	0.593947	-0.013999
N155	N	0.938479	0.843947	0.236001
N156	N	1.188479	1.093947	0.486001
N157	N	0.376029	0.343939	-0.264025
N158	N	0.626029	0.593939	-0.014025
N159	N	0.876029	0.843939	0.235975
N160	N	1.126029	1.093939	0.485975
C161	C	0.345591	0.351864	-0.325315
C162	C	0.595591	0.601864	-0.075315
C163	C	0.845591	0.851864	0.174685
C164	C	1.095591	1.101864	0.424685
N165	N	0.379961	0.359810	-0.386577
N166	N	0.629961	0.609810	-0.136577
N167	N	0.879961	0.859810	0.113423
N168	N	1.129961	1.109810	0.363423
N169	N	0.442417	0.359821	-0.386550
N170	N	0.692417	0.609821	-0.136550
N171	N	0.942417	0.859821	0.113450
N172	N	1.192417	1.109821	0.363450
C173	C	0.472377	0.351886	-0.325262
C174	C	0.722377	0.601886	-0.075262
C175	C	0.972377	0.851886	0.174738
C176	C	1.222377	1.101886	0.424738
C177	C	0.241302	0.398645	-0.368409
C178	C	0.491302	0.648645	-0.118409
C179	C	0.741302	0.898645	0.131591
C180	C	0.991302	1.148645	0.381591
C181	C	0.175560	0.398624	-0.368443
C182	C	0.425560	0.648624	-0.118443
C183	C	0.675560	0.898624	0.131557
C184	C	0.925560	1.148624	0.381557
C185	C	0.175840	0.305017	-0.282342
C186	C	0.425840	0.555017	-0.032342
C187	C	0.675840	0.805017	0.217658
C188	C	0.925840	1.055017	0.467658
C189	C	0.241581	0.305035	-0.282314
C190	C	0.491581	0.555035	-0.032314
C191	C	0.741581	0.805035	0.217686
C192	C	0.991581	1.055035	0.467686
C193	C	0.274308	0.351852	-0.325347
C194	C	0.524308	0.601852	-0.075347
C195	C	0.774308	0.851852	0.174653
C196	C	1.024308	1.101852	0.424653
C197	C	1.072861	0.351832	-0.325371
C198	C	1.322861	0.601832	-0.075371
C199	C	1.572861	0.851832	0.174629
C200	C	1.822861	1.101832	0.424629
C201	C	1.142831	0.351817	-0.325407
C202	C	1.392831	0.601817	-0.075407
C203	C	1.642831	0.851817	0.174593
C204	C	1.892831	1.101817	0.424593
C205	C	0.915015	0.359180	-0.508573
C206	C	1.165015	0.609180	-0.258573
C207	C	1.415015	0.859180	-0.008573
C208	C	1.665015	1.109180	0.241427
C209	C	0.917721	0.362297	-0.586677
C210	C	1.167721	0.612297	-0.336677
C211	C	1.417721	0.862297	-0.086677
C212	C	1.667721	1.112297	0.163323
C213	C	0.915590	1.168573	-0.332710
C214	C	1.165590	1.418573	-0.082710
C215	C	1.415590	1.668573	0.167290
C216	C	1.665590	1.918573	0.417290
C217	C	0.918444	1.090466	-0.335888
C218	C	1.168444	1.340466	-0.085888
C219	C	1.418444	1.590466	0.164112
C220	C	1.668444	1.840466	0.414112
C221	C	0.880442	0.318830	-0.625169
C222	C	1.130442	0.568830	-0.375169
C223	C	1.380442	0.818830	-0.125169
C224	C	1.630442	1.068830	0.124831
C225	C	0.882982	0.321764	-0.698556
C226	C	1.132982	0.571764	-0.448556
C227	C	1.382982	0.821764	-0.198556
C228	C	1.632982	1.071764	0.051444
C229	C	0.922804	0.368164	-0.733451
C230	C	1.172804	0.618164	-0.483451
C231	C	1.422804	0.868164	-0.233451
C232	C	1.672804	1.118164	0.016549
C233	C	0.960084	0.411636	-0.694955
C234	C	1.210084	0.661636	-0.444955
C235	C	1.460084	0.911636	-0.194955
C236	C	1.710084	1.161636	0.055045
C237	C	0.957541	0.408704	-0.621569
C238	C	1.207541	0.658704	-0.371569
C239	C	1.457541	0.908704	-0.121569
C240	C	1.707541	1.158704	0.128431
C241	C	0.934541	0.381753	-0.952740
C242	C	1.184541	0.631753	-0.702740
C243	C	1.434541	0.881753	-0.452740
C244	C	1.684541	1.131753	-0.202740
C245	C	0.937083	0.384680	-1.026132
C246	C	1.187083	0.634680	-0.776132
C247	C	1.437083	0.884680	-0.526132
C248	C	1.687083	1.134680	-0.276132
C249	C	0.859979	0.294809	-1.029728
C250	C	1.109979	0.544809	-0.779728
C251	C	1.359979	0.794809	-0.529728
C252	C	1.609979	1.044809	-0.279728
C253	C	0.857442	0.291879	-0.956340
C254	C	1.107442	0.541879	-0.706340
C255	C	1.357442	0.791879	-0.456340
C256	C	1.607442	1.041879	-0.206340
C257	C	0.894720	0.335353	-0.917850
C258	C	1.144720	0.585353	-0.667850
C259	C	1.394720	0.835353	-0.417850
C260	C	1.644720	1.085353	-0.167850
N261	N	0.925402	0.371163	-0.808465
N262	N	1.175402	0.621163	-0.558465
N263	N	1.425402	0.871163	-0.308465
N264	N	1.675402	1.121163	-0.058465
N265	N	0.892118	0.332357	-0.842837
N266	N	1.142118	0.582357	-0.592837
N267	N	1.392118	0.832357	-0.342837
N268	N	1.642118	1.082357	-0.092837
C269	C	0.902380	0.344528	-0.142719
C270	C	1.152380	0.594528	0.107281
C271	C	1.402380	0.844528	0.357281
C272	C	1.652380	1.094528	0.607281
C273	C	0.899804	0.341213	-0.064623
C274	C	1.149804	0.591213	0.185377
C275	C	1.399804	0.841213	0.435377
C276	C	1.649804	1.091213	0.685377
H277	H	0.842885	1.080509	-0.254522
H278	H	1.092885	1.330509	-0.004522
H279	H	1.342885	1.580509	0.245478
H280	H	1.592885	1.830509	0.495478
H281	H	0.992505	0.449418	-0.723372
H282	H	1.242505	0.699418	-0.473372
H283	H	1.492505	0.949418	-0.223372
H284	H	1.742505	1.199418	0.026628
H285	H	0.549518	0.436817	-0.403338
H286	H	0.799518	0.686817	-0.153338
H287	H	1.049518	0.936817	0.096662
H288	H	1.299518	1.186817	0.346662
H289	H	0.268453	0.266932	-0.247250
H290	H	0.518453	0.516932	0.002750
H291	H	0.768453	0.766932	0.252750
H292	H	1.018453	1.016932	0.502750
H293	H	0.848018	0.281042	-0.596762
H294	H	1.098018	0.531042	-0.346762
H295	H	1.348018	0.781042	-0.096762
H296	H	1.598018	1.031042	0.153238
Br297	Br	0.832351	0.262808	-0.750790
Br298	Br	1.082351	0.512808	-0.500790
Br299	Br	1.332351	0.762808	-0.250790
Br300	Br	1.582351	1.012808	-0.000790
Br301	Br	0.803399	0.228903	-0.908987
Br302	Br	1.053399	0.478903	-0.658987
Br303	Br	1.303399	0.728903	-0.408987
Br304	Br	1.553399	0.978903	-0.158987
H305	H	0.829629	0.259415	-1.061074
H306	H	1.079629	0.509415	-0.811074
H307	H	1.329629	0.759415	-0.561074
H308	H	1.579629	1.009415	-0.311074
H309	H	0.969514	0.422465	-1.054541
H310	H	1.219514	0.672465	-0.804541
H311	H	1.469514	0.922465	-0.554541
H312	H	1.719514	1.172465	-0.304541
Br313	Br	0.131423	0.241488	-0.223941
Br314	Br	0.381423	0.491488	0.026059
Br315	Br	0.631423	0.741488	0.276059
Br316	Br	0.881423	0.991488	0.526059
H317	H	0.987902	0.444095	-0.590230
H318	H	1.237902	0.694095	-0.340230
H319	H	1.487902	0.944095	-0.090230
H320	H	1.737902	1.194095	0.159770
H321	H	0.974414	0.622509	-0.396154
H322	H	1.224414	0.872509	-0.146154
H323	H	1.474414	1.122509	0.103846
H324	H	1.724414	1.372509	0.353846
H325	H	0.964888	0.417161	-0.921410
H326	H	1.214888	0.667161	-0.671410
H327	H	1.464888	0.917161	-0.421410
H328	H	1.714888	1.167161	-0.171410
Br329	Br	1.016452	1.107647	-0.441439
Br330	Br	1.266452	1.357647	-0.191439
Br331	Br	1.516452	1.607647	0.058561
Br332	Br	1.766452	1.857647	0.308561
Br333	Br	0.825877	0.926510	-0.236239
Br334	Br	1.075877	1.176510	0.013761
Br335	Br	1.325877	1.426510	0.263761
Br336	Br	1.575877	1.676510	0.513761
Br337	Br	1.022881	0.934654	-0.448369
Br338	Br	1.272881	1.184654	-0.198369
Br339	Br	1.522881	1.434654	0.051631
Br340	Br	1.772881	1.684654	0.301631
Br341	Br	0.794406	0.768368	-0.202319
Br342	Br	1.044406	1.018368	0.047681
Br343	Br	1.294406	1.268368	0.297681
Br344	Br	1.544406	1.518368	0.547681
Br345	Br	0.532251	0.241573	-0.223779
Br346	Br	0.782251	0.491573	0.026221
Br347	Br	1.032251	0.741573	0.276221
Br348	Br	1.282251	0.991573	0.526221
Br349	Br	0.800839	0.595377	-0.209241
Br350	Br	1.050839	0.845377	0.040759
Br351	Br	1.300839	1.095377	0.290759
Br352	Br	1.550839	1.345377	0.540759
Br353	Br	0.991394	0.776507	-0.414473
Br354	Br	1.241394	1.026507	-0.164473
Br355	Br	1.491394	1.276507	0.085527
Br356	Br	1.741394	1.526507	0.335527
Br357	Br	0.686548	0.462263	-0.426645
Br358	Br	0.936548	0.712263	-0.176645
Br359	Br	1.186548	0.962263	0.073355
Br360	Br	1.436548	1.212263	0.323355
H361	H	0.669286	0.267004	-0.247093
H362	H	0.919286	0.517004	0.002907
H363	H	1.169286	0.767004	0.252907
H364	H	1.419286	1.017004	0.502907
H365	H	0.267950	0.436763	-0.403452
H366	H	0.517950	0.686763	-0.153452
H367	H	0.767950	0.936763	0.096548
H368	H	1.017950	1.186763	0.346548
H369	H	0.148689	0.436730	-0.403508
H370	H	0.398689	0.686730	-0.153508
H371	H	0.648689	0.936730	0.096492
H372	H	0.898689	1.186730	0.346492
