data_functionalizedCrystal
_audit_creation_method	'MofGen! by Chris Wilmer'
_symmetry_space_group_name_H-M	'P1'
_symmetry_Int_Tables_number	1
_symmetry_cell_setting	triclinic
loop_
_symmetry_equiv_pos_as_xyz
  x,y,z
_cell_length_a	13.897449
_cell_length_b	18.050589
_cell_length_c	13.897441
_cell_angle_alpha	90.027873
_cell_angle_beta	90.020733
_cell_angle_gamma	90.029500
loop_
_atom_site_label
_atom_site_type_symbol
_atom_site_fract_x
_atom_site_fract_y
_atom_site_fract_z
Zn1	Zn	1.474632	-0.295610	0.545399
Zn2	Zn	1.807965	0.037723	0.878733
Zn3	Zn	2.141299	0.371056	1.212066
Zn4	Zn	1.474496	-0.419815	0.384108
Zn5	Zn	1.807830	-0.086481	0.717442
Zn6	Zn	2.141163	0.246852	1.050775
Zn7	Zn	1.313321	-0.295646	0.384118
Zn8	Zn	1.646655	0.037688	0.717451
Zn9	Zn	1.979988	0.371021	1.050784
Zn10	Zn	1.313273	-0.419766	0.545361
Zn11	Zn	1.646607	-0.086433	0.878694
Zn12	Zn	1.979940	0.246901	1.212028
O13	O	1.393931	-0.357709	0.464747
O14	O	1.727264	-0.024376	0.798080
O15	O	2.060597	0.308957	1.131413
O16	O	1.609596	-0.312092	0.524016
O17	O	1.942929	0.021241	0.857349
O18	O	2.276262	0.354575	1.190683
O19	O	1.453079	-0.403379	0.249128
O20	O	1.786413	-0.070045	0.582461
O21	O	2.119746	0.263288	0.915795
O22	O	1.334796	-0.191716	0.405532
O23	O	1.668130	0.141617	0.738865
O24	O	2.001463	0.474950	1.072199
O25	O	1.609496	-0.403344	0.405516
O26	O	1.942829	-0.070011	0.738850
O27	O	2.276163	0.263322	1.072183
O28	O	1.453311	-0.191690	0.524025
O29	O	1.786644	0.141643	0.857358
O30	O	2.119977	0.474976	1.190692
O31	O	1.334665	-0.312152	0.249135
O32	O	1.667998	0.021181	0.582468
O33	O	2.001331	0.354514	0.915802
O34	O	1.178333	-0.312105	0.405495
O35	O	1.511667	0.021228	0.738828
O36	O	1.845000	0.354562	1.072162
O37	O	1.334715	-0.403261	0.680348
O38	O	1.668048	-0.069928	1.013681
O39	O	2.001381	0.263405	1.347015
O40	O	1.178298	-0.403295	0.523960
O41	O	1.511631	-0.069962	0.857293
O42	O	1.844965	0.263371	1.190626
O43	O	1.453264	-0.312045	0.680376
O44	O	1.786598	0.021289	1.013709
O45	O	2.119931	0.354622	1.347043
O46	O	1.453033	-0.523733	0.405479
O47	O	1.786366	-0.190399	0.738812
O48	O	2.119700	0.142934	1.072146
O49	O	1.334583	-0.523697	0.523951
O50	O	1.667916	-0.190364	0.857284
O51	O	2.001250	0.142970	1.190617
C52	C	1.143316	-0.357699	0.464725
C53	C	1.476650	-0.024366	0.798058
C54	C	1.809983	0.308967	1.131391
C55	C	1.036102	-0.357713	0.464738
C56	C	1.369436	-0.024380	0.798072
C57	C	1.702769	0.308954	1.131405
C58	C	0.839807	-0.357716	0.464763
C59	C	1.173141	-0.024382	0.798097
C60	C	1.506474	0.308951	1.131430
C61	C	0.949040	-0.357712	0.464747
C62	C	1.282373	-0.024378	0.798080
C63	C	1.615707	0.308955	1.131413
C64	C	1.393814	-0.550661	0.464731
C65	C	1.727148	-0.217328	0.798064
C66	C	2.060481	0.116005	1.131397
C67	C	1.393853	-0.633207	0.464756
C68	C	1.727186	-0.299874	0.798089
C69	C	2.060519	0.033460	1.131423
C70	C	1.329503	-0.832665	0.529158
C71	C	1.662836	-0.499332	0.862492
C72	C	1.996170	-0.165999	1.195825
C73	C	1.305986	-0.882111	0.441140
C74	C	1.639319	-0.548778	0.774473
C75	C	1.972653	-0.215444	1.107807
C76	C	1.393947	-0.784337	0.464769
C77	C	1.727281	-0.451004	0.798102
C78	C	2.060614	-0.117671	1.131435
C79	C	1.417512	-0.881973	0.552797
C80	C	1.750845	-0.548640	0.886131
C81	C	2.084178	-0.215307	1.219464
C82	C	1.394037	-0.930323	0.464789
C83	C	1.727371	-0.596989	0.798122
C84	C	2.060704	-0.263656	1.131455
C85	C	1.370384	-0.832696	0.376703
C86	C	1.703718	-0.499363	0.710037
C87	C	2.037051	-0.166029	1.043370
C88	C	1.481951	-0.832554	0.488420
C89	C	1.815284	-0.499221	0.821754
C90	C	2.148618	-0.165887	1.155087
C91	C	1.458467	-0.881977	0.400341
C92	C	1.791801	-0.548644	0.733674
C93	C	2.125134	-0.215311	1.067008
C94	C	1.393893	-0.700239	0.464758
C95	C	1.727227	-0.366906	0.798092
C96	C	2.060560	-0.033573	1.131425
C97	C	1.394092	-1.014419	0.464789
C98	C	1.727425	-0.681086	0.798122
C99	C	2.060758	-0.347752	1.131456
C100	C	1.645524	-0.357720	0.464769
C101	C	1.978857	-0.024386	0.798103
C102	C	2.312190	0.308947	1.131436
C103	C	1.752738	-0.357724	0.464779
C104	C	2.086071	-0.024391	0.798112
C105	C	2.419404	0.308943	1.131446
C106	C	1.393999	-0.357644	0.716340
C107	C	1.727333	-0.024310	1.049673
C108	C	2.060666	0.309023	1.383006
C109	C	1.394028	-0.357616	0.823554
C110	C	1.727362	-0.024282	1.156887
C111	C	2.060695	0.309051	1.490220
C112	C	1.394074	-0.164004	0.464784
C113	C	1.727407	0.169330	0.798117
C114	C	2.060741	0.502663	1.131451
C115	C	1.394135	-0.081458	0.464800
C116	C	1.727468	0.251876	0.798133
C117	C	2.060802	0.585209	1.131466
C118	C	1.393918	-0.357721	0.214132
C119	C	1.727251	-0.024388	0.547466
C120	C	2.060585	0.308946	0.880799
C121	C	1.394076	-0.357540	0.106919
C122	C	1.727409	-0.024206	0.440252
C123	C	2.060742	0.309127	0.773586
C124	C	1.394055	-0.357565	1.019849
C125	C	1.727388	-0.024232	1.353182
C126	C	2.060721	0.309101	1.686516
C127	C	1.394037	-0.357595	0.910616
C128	C	1.727370	-0.024262	1.243950
C129	C	2.060704	0.309071	1.577283
H130	H	1.231606	-0.903895	0.421153
H131	H	1.564940	-0.570562	0.754487
H132	H	1.898273	-0.237228	1.087820
H133	H	1.350403	-0.811140	0.302246
H134	H	1.683736	-0.477806	0.635580
H135	H	2.017070	-0.144473	0.968913
H136	H	1.513005	-0.903493	0.345834
H137	H	1.846338	-0.570160	0.679168
H138	H	2.179671	-0.236827	1.012501
H139	H	1.274924	-0.811012	0.583534
H140	H	1.608258	-0.477679	0.916867
H141	H	1.941591	-0.144345	1.250200
H142	H	1.556314	-0.810772	0.508449
H143	H	1.889647	-0.477439	0.841782
H144	H	2.222981	-0.144105	1.175116
H145	H	1.437407	-0.903619	0.627234
H146	H	1.770740	-0.570286	0.960568
H147	H	2.104074	-0.236953	1.293901
