data_functionalizedCrystal
_audit_creation_method	'MofGen! by Chris Wilmer'
_symmetry_space_group_name_H-M	'P1'
_symmetry_Int_Tables_number	1
_symmetry_cell_setting	triclinic
loop_
_symmetry_equiv_pos_as_xyz
  x,y,z
_cell_length_a	13.032781
_cell_length_b	13.033304
_cell_length_c	13.032268
_cell_angle_alpha	90.922231
_cell_angle_beta	103.289483
_cell_angle_gamma	74.817397
loop_
_atom_site_label
_atom_site_type_symbol
_atom_site_fract_x
_atom_site_fract_y
_atom_site_fract_z
Zn1	Zn	-0.335811	-1.451136	-0.818130
Zn2	Zn	0.164189	-0.951136	-0.318130
Zn3	Zn	-0.490907	-1.451023	-0.663065
Zn4	Zn	0.009093	-0.951023	-0.163065
Zn5	Zn	-0.330108	-1.301800	-0.623680
Zn6	Zn	0.169892	-0.801800	-0.123680
Zn7	Zn	-0.535892	-1.250935	-0.818003
Zn8	Zn	-0.035892	-0.750935	-0.318003
O9	O	-0.423179	-1.363724	-0.730720
O10	O	0.076821	-0.863724	-0.230720
O11	O	-0.339945	-1.597356	-0.814096
O12	O	0.160055	-1.097356	-0.314096
O13	O	-0.448363	-1.452468	-0.511620
O14	O	0.051637	-0.952468	-0.011620
O15	O	-0.179834	-1.342944	-0.633045
O16	O	0.320166	-0.842944	-0.133045
O17	O	-0.453893	-1.597273	-0.700170
O18	O	0.046107	-1.097273	-0.200170
O19	O	-0.184024	-1.452661	-0.775907
O20	O	0.315976	-0.952661	-0.275907
O21	O	-0.330224	-1.342835	-0.482684
O22	O	0.169776	-0.842835	0.017316
O23	O	-0.373845	-1.148818	-0.632922
O24	O	0.126155	-0.648818	-0.132922
O25	O	-0.530564	-1.256252	-0.964241
O26	O	-0.030564	-0.756252	-0.464241
O27	O	-0.525034	-1.111448	-0.775690
O28	O	-0.025034	-0.611448	-0.275690
O29	O	-0.383565	-1.403339	-0.964334
O30	O	0.116435	-0.903339	-0.464334
O31	O	-0.647904	-1.403147	-0.700047
O32	O	-0.147904	-0.903147	-0.200047
O33	O	-0.680955	-1.256143	-0.813880
O34	O	-0.180955	-0.756143	-0.313880
C35	C	-0.453703	-1.092216	-0.700019
C36	C	0.046297	-0.592216	-0.200019
C37	C	-0.466791	-0.976056	-0.686913
C38	C	0.033209	-0.476056	-0.186913
C39	C	-0.416363	-0.924281	-0.737548
C40	C	0.083637	-0.424281	-0.237548
C41	C	-0.429888	-0.804224	-0.724003
C42	C	0.070112	-0.304224	-0.224003
C43	C	-0.703590	-1.324138	-0.761250
C44	C	-0.203590	-0.824138	-0.261250
C45	C	-0.823545	-1.307294	-0.774356
C46	C	-0.323545	-0.807294	-0.274356
C47	C	-0.984617	-1.355163	-0.737471
C48	C	-0.484617	-0.855163	-0.237471
C49	C	-0.860637	-1.372575	-0.723925
C50	C	-0.360637	-0.872575	-0.223925
C51	C	-0.141674	-1.403489	-0.700097
C52	C	0.358326	-0.903489	-0.200097
C53	C	-0.021713	-1.420434	-0.687047
C54	C	0.478287	-0.920434	-0.187047
C55	C	-0.462719	-1.324134	-1.003261
C56	C	0.037281	-0.824134	-0.503261
C57	C	-0.479569	-1.307264	-1.119401
C58	C	0.020431	-0.807264	-0.619401
C59	C	-0.392531	-0.636293	-0.761533
C60	C	0.107469	-0.136293	-0.261533
C61	C	-0.379453	-0.752451	-0.774644
C62	C	0.120547	-0.252451	-0.274644
C63	C	-0.414348	-1.372518	-1.171227
C64	C	0.085652	-0.872518	-0.671227
C65	C	-0.431762	-1.355083	-1.291264
C66	C	0.068238	-0.855083	-0.791264
C67	C	-0.383709	-1.403230	-0.459237
C68	C	0.116291	-0.903230	0.040763
C69	C	-0.366532	-1.420346	-0.343087
C70	C	0.133468	-0.920346	0.156913
H71	H	-0.519976	-0.931502	-0.633533
H72	H	-0.019976	-0.431502	-0.133533
H73	H	-0.363171	-0.968837	-0.790921
H74	H	0.136829	-0.468837	-0.290921
O75	O	-0.500343	-0.745228	-0.653284
O76	O	-0.000343	-0.245228	-0.153284
H77	H	-0.567667	-0.680973	-0.700379
H78	H	-0.067667	-0.180973	-0.200379
H79	H	-1.044643	-1.286394	-0.790674
H80	H	-0.544643	-0.786394	-0.290674
H81	H	-0.345616	-1.441288	-1.126728
H82	H	0.154384	-0.941288	-0.626728
H83	H	-0.800614	-1.441355	-0.670727
H84	H	-0.300614	-0.941355	-0.170727
O85	O	-0.308995	-0.811446	-0.845360
O86	O	0.191005	-0.311446	-0.345360
H87	H	-0.309433	-0.896484	-0.844911
H88	H	0.190567	-0.396484	-0.344911
H89	H	-0.500489	-1.286298	-1.335756
H90	H	-0.000489	-0.786298	-0.835756
O91	O	-0.903037	-1.216181	-0.844826
O92	O	-0.403037	-0.716181	-0.344826
H93	H	-0.987942	-1.216793	-0.844401
H94	H	-0.487942	-0.716793	-0.344401
H95	H	-0.297793	-1.489120	-1.298593
H96	H	0.202207	-0.989120	-0.798593
O97	O	-0.942216	-1.511547	-0.616589
O98	O	-0.442216	-1.011547	-0.116589
H99	H	-0.857312	-1.510927	-0.617009
H100	H	-0.357312	-1.010927	-0.117009
O101	O	-0.570611	-1.216157	-1.178327
O102	O	-0.070611	-0.716157	-0.678327
H103	H	-0.570004	-1.216763	-1.263363
H104	H	-0.070004	-0.716763	-0.763363
