data_functionalizedCrystal
_audit_creation_method	'MofGen! by Chris Wilmer'
_symmetry_space_group_name_H-M	'P1'
_symmetry_Int_Tables_number	1
_symmetry_cell_setting	triclinic
loop_
_symmetry_equiv_pos_as_xyz
  x,y,z
_cell_length_a	14.971475
_cell_length_b	14.971506
_cell_length_c	14.048226
_cell_angle_alpha	89.995147
_cell_angle_beta	89.994420
_cell_angle_gamma	83.616033
loop_
_atom_site_label
_atom_site_type_symbol
_atom_site_fract_x
_atom_site_fract_y
_atom_site_fract_z
O1	O	-1.186961	-0.116517	0.079138
O2	O	-0.926561	-0.130486	0.079144
O3	O	-1.063731	0.006698	0.079138
O4	O	-1.049791	-0.253701	0.079143
O5	O	-1.063715	0.006706	-0.079183
O6	O	-0.926545	-0.130478	-0.079178
O7	O	-1.186945	-0.116509	-0.079184
Zn8	Zn	-1.056742	-0.123492	-0.104318
Zn9	Zn	-1.056764	-0.123503	0.104278
O10	O	-1.049775	-0.253693	-0.079178
C11	C	-0.893228	-0.129859	-0.000016
C12	C	-0.793930	-0.127992	-0.000014
C13	C	-1.063096	0.040026	-0.000021
C14	C	-1.061218	0.139322	-0.000017
C15	C	-0.747276	-0.127108	-0.086316
C16	C	-0.653977	-0.125340	-0.086316
C17	C	-0.607333	-0.124462	-0.000014
C18	C	-0.653994	-0.125343	0.086294
C19	C	-0.747292	-0.127105	0.086294
C20	C	-0.459531	-0.121673	0.086289
C21	C	-0.366226	-0.119912	0.086290
C22	C	-0.366216	-0.119908	-0.086321
C23	C	-0.459515	-0.121670	-0.086321
C24	C	-0.506169	-0.122552	-0.000013
C25	C	-0.220277	-0.117142	-0.000020
C26	C	-0.319573	-0.119029	-0.000012
C27	C	-1.050410	-0.287021	-0.000017
C28	C	-1.052288	-0.386317	-0.000015
N29	N	-1.056734	-0.123484	-0.246678
C30	C	-1.134637	0.577607	-0.000019
C31	C	-1.136394	0.484307	-0.000025
C32	C	-1.055802	0.427084	-0.000020
C33	C	-0.973446	0.463166	-0.000019
C34	C	-0.971689	0.556464	-0.000019
C35	C	-0.977113	0.268703	-0.000015
C36	C	-0.978869	0.175398	-0.000013
C37	C	-1.141818	0.196546	-0.000021
C38	C	-1.140061	0.289844	-0.000022
C39	C	-1.057705	0.325919	-0.000018
C40	C	-1.117492	-0.062765	-0.296499
C41	C	-1.117498	-0.062764	-0.396156
C42	C	-1.056749	-0.123488	-0.445992
C43	C	-0.995985	-0.184211	-0.396164
C44	C	-0.995975	-0.184206	-0.296508
C45	C	-0.996011	-0.184217	-0.603879
C46	C	-0.996021	-0.184223	-0.703541
C47	C	-1.117533	-0.062775	-0.703527
C48	C	-1.117524	-0.062771	-0.603871
C49	C	-1.056760	-0.123495	-0.554050
N50	N	-1.056779	-0.123504	0.246638
H51	H	-0.785246	-0.127831	-0.156593
H52	H	-0.328226	-0.119189	-0.156597
H53	H	-0.913243	0.128808	-0.000014
O54	O	-1.212985	0.633099	0.000104
C55	C	-1.262982	0.616741	0.082107
H56	H	-1.241094	0.545993	0.109446
H57	H	-1.250709	0.667782	0.139525
C58	C	-1.390623	0.712386	0.023613
C59	C	-1.363745	0.625490	0.057186
H60	H	-1.452779	0.717787	0.008243
H61	H	-1.356939	0.723411	-0.031633
H62	H	-1.380389	0.754911	0.071467
H63	H	-1.373969	0.582968	0.009329
H64	H	-1.397434	0.614459	0.112424
O65	O	-1.216335	0.449162	0.000103
C66	C	-1.222247	0.395838	0.082110
H67	H	-1.151776	0.372674	0.109445
H68	H	-1.261776	0.437010	0.139528
C69	C	-1.357056	0.341716	0.023628
C70	C	-1.270501	0.313259	0.057197
H71	H	-1.386825	0.290779	0.008263
H72	H	-1.353076	0.377643	-0.031620
H73	H	-1.389985	0.376026	0.071482
H74	H	-1.237570	0.278960	0.009338
H75	H	-1.274477	0.277324	0.112436
O76	O	-0.891617	0.591362	0.000032
C77	C	-0.820860	0.520852	0.000015
H78	H	-0.846001	0.457442	0.029988
H79	H	-0.795984	0.507683	-0.075937
C80	C	-0.712331	0.625155	0.025295
C81	C	-0.743208	0.547276	0.062116
H82	H	-0.664430	0.641455	0.063598
H83	H	-0.760001	0.672660	0.025303
H84	H	-0.691608	0.614170	-0.037998
H85	H	-0.763941	0.558265	0.125403
H86	H	-0.695539	0.499774	0.062120
O87	O	-0.936880	-0.243108	-0.751916
C88	C	-0.848327	-0.228419	-0.727574
H89	H	-0.847825	-0.156805	-0.700178
H90	H	-0.822086	-0.277955	-0.669737
C91	C	-0.788336	-0.330150	-0.849769
C92	C	-0.787719	-0.242191	-0.816128
H93	H	-0.750949	-0.338649	-0.904392
H94	H	-0.847996	-0.340050	-0.866167
H95	H	-0.766472	-0.371421	-0.801564
H96	H	-0.809594	-0.200923	-0.864329
H97	H	-0.728061	-0.232284	-0.799740
H98	H	-0.497514	-0.122392	0.156571
H99	H	-0.328251	-0.119198	0.156565
H100	H	-0.616010	-0.124621	0.156563
H101	H	-1.166994	-0.013329	-0.563295
H102	H	-0.946499	-0.233650	-0.255946
O103	O	-0.608790	-0.124529	-0.170235
C104	C	-0.669968	-0.125667	-0.246407
H105	H	-0.732802	-0.155219	-0.221101
H106	H	-0.689197	-0.054153	-0.272952
C107	C	-0.548766	-0.147297	-0.359020
C108	C	-0.625937	-0.183601	-0.327941
H109	H	-0.521605	-0.183030	-0.409316
H110	H	-0.507549	-0.146527	-0.307703
H111	H	-0.564801	-0.087703	-0.381134
H112	H	-0.609899	-0.243190	-0.305816
H113	H	-0.667150	-0.184382	-0.379257
O114	O	-1.221742	0.161360	-0.000069
C115	C	-1.206015	0.066742	-0.000047
H116	H	-1.136235	0.044916	-0.030023
H117	H	-1.210380	0.040761	0.075907
C118	C	-1.362907	0.054777	-0.025317
C119	C	-1.277204	0.027968	-0.062141
H120	H	-1.406821	0.030858	-0.063615
H121	H	-1.373503	0.118522	-0.025328
H122	H	-1.366531	0.033123	0.037978
H123	H	-1.273576	0.049631	-0.125430
H124	H	-1.266608	-0.035775	-0.062142
H125	H	-0.910050	0.298071	-0.000025
H126	H	-0.946527	-0.233663	-0.563318
O127	O	-1.176615	-0.003757	-0.444404
C128	C	-1.230224	0.049846	-0.379049
H129	H	-1.231254	0.013176	-0.308003
H130	H	-1.201125	0.116350	-0.368470
C131	C	-1.325433	0.113140	-0.505177
C132	C	-1.326705	0.068097	-0.417920
H133	H	-1.384946	0.124402	-0.529155
H134	H	-1.289314	0.077029	-0.549209
H135	H	-1.301180	0.168554	-0.496350
H136	H	-1.350946	0.012679	-0.426750
H137	H	-1.362830	0.104199	-0.373890
O138	O	-1.176435	-0.003694	-0.751957
C139	C	-1.128488	0.051558	-0.809635
H140	H	-1.057947	0.053187	-0.779620
H141	H	-1.123839	0.023574	-0.885161
C142	C	-1.264324	0.145512	-0.848024
C143	C	-1.177686	0.147518	-0.811155
H144	H	-1.294672	0.204704	-0.848967
H145	H	-1.296628	0.108286	-0.809169
H146	H	-1.260437	0.122188	-0.910960
H147	H	-1.181574	0.170831	-0.748217
H148	H	-1.145384	0.184750	-0.850001
O149	O	-0.936936	-0.243075	-0.444679
C150	C	-0.881699	-0.195084	-0.502328
H151	H	-0.917249	-0.125150	-0.517258
H152	H	-0.815584	-0.188898	-0.463940
C153	C	-0.818988	-0.331381	-0.578651
C154	C	-0.862654	-0.245489	-0.596995
H155	H	-0.807236	-0.362474	-0.637045
H156	H	-0.856199	-0.363714	-0.539809
H157	H	-0.763897	-0.326213	-0.546659
H158	H	-0.917749	-0.250658	-0.628976
H159	H	-0.825451	-0.213158	-0.635844
H160	H	-0.497489	-0.122390	-0.156596
H161	H	-0.785276	-0.127826	0.156570
H162	H	-1.205687	0.336434	-0.000020
H163	H	-0.907826	0.416567	-0.000020
H164	H	-1.166964	-0.013320	-0.255929
