data_functionalizedCrystal
_audit_creation_method	'MofGen! by Chris Wilmer'
_symmetry_space_group_name_H-M	'P1'
_symmetry_Int_Tables_number	1
_symmetry_cell_setting	triclinic
loop_
_symmetry_equiv_pos_as_xyz
  x,y,z
_cell_length_a	13.033409
_cell_length_b	13.033855
_cell_length_c	10.686551
_cell_angle_alpha	102.085114
_cell_angle_beta	87.737689
_cell_angle_gamma	76.696889
loop_
_atom_site_label
_atom_site_type_symbol
_atom_site_fract_x
_atom_site_fract_y
_atom_site_fract_z
Zn1	Zn	1.697705	-0.608513	0.359365
Zn2	Zn	2.197705	-0.108513	0.859365
Zn3	Zn	1.706542	-0.799772	0.117697
Zn4	Zn	2.206542	-0.299772	0.617697
Zn5	Zn	1.509938	-0.596201	0.179117
Zn6	Zn	2.009938	-0.096201	0.679117
Zn7	Zn	1.542650	-0.763538	0.359381
Zn8	Zn	2.042650	-0.263538	0.859381
O9	O	1.614209	-0.692006	0.253890
O10	O	2.114209	-0.192006	0.753890
O11	O	1.846047	-0.654201	0.301596
O12	O	2.346047	-0.154201	0.801596
O13	O	1.670470	-0.782780	-0.050736
O14	O	2.170470	-0.282780	0.449264
O15	O	1.517457	-0.447761	0.228725
O16	O	2.017457	0.052239	0.728725
O17	O	1.852540	-0.794718	0.124043
O18	O	2.352540	-0.294718	0.624043
O19	O	1.655408	-0.456806	0.361153
O20	O	2.155408	0.043194	0.861153
O21	O	1.526026	-0.633217	-0.005611
O22	O	2.026026	-0.133217	0.494389
O23	O	1.367108	-0.598082	0.228740
O24	O	1.867108	-0.098082	0.728740
O25	O	1.573210	-0.732962	0.535959
O26	O	2.073210	-0.232962	1.035959
O27	O	1.391141	-0.721023	0.361180
O28	O	1.891141	-0.221023	0.861180
O29	O	1.687128	-0.619066	0.535948
O30	O	2.187128	-0.119066	1.035948
O31	O	1.702190	-0.945039	0.124059
O32	O	2.202190	-0.445039	0.624059
O33	O	1.581780	-0.918418	0.301623
O34	O	2.081780	-0.418418	0.801623
C35	C	1.340965	-0.654286	0.301627
C36	C	1.840965	-0.154286	0.801627
C37	C	1.224075	-0.638173	0.322075
C38	C	1.724075	-0.138173	0.822075
C39	C	1.054340	-0.683768	0.264375
C40	C	1.554340	-0.183768	0.764375
C41	C	1.175152	-0.700425	0.243234
C42	C	1.675152	-0.200425	0.743234
C43	C	1.646524	-0.970643	0.206200
C44	C	2.146524	-0.470643	0.706200
C45	C	1.660447	-1.089856	0.185824
C46	C	2.160447	-0.589856	0.685824
C47	C	1.607026	-1.129865	0.264535
C48	C	2.107026	-0.629865	0.764535
C49	C	1.621415	-1.253077	0.243477
C50	C	2.121415	-0.753077	0.743477
C51	C	1.888520	-0.729874	0.205967
C52	C	2.388520	-0.229874	0.705967
C53	C	2.005415	-0.746012	0.185545
C54	C	2.505415	-0.246012	0.685545
C55	C	1.632832	-0.673345	0.583019
C56	C	2.132832	-0.173345	1.083019
C57	C	1.640769	-0.665393	0.723274
C58	C	2.140769	-0.165393	1.223274
C59	C	1.581798	-0.412283	0.301788
C60	C	2.081798	0.087717	0.801788
C61	C	1.567986	-0.293082	0.322200
C62	C	2.067986	0.206918	0.822200
C63	C	1.595709	-0.710525	-0.073956
C64	C	2.095709	-0.210525	0.426044
C65	C	1.587942	-0.718203	-0.214194
C66	C	2.087942	-0.218203	0.285806
H67	H	1.176526	-0.572549	0.405224
H68	H	1.676526	-0.072549	0.905224
O69	O	1.493280	-1.217629	0.432111
O70	O	1.993280	-0.717629	0.932111
H71	H	1.412022	-1.228985	0.421135
H72	H	1.912022	-0.728985	0.921135
O73	O	1.735163	-1.165298	0.075923
O74	O	2.235163	-0.665298	0.575923
H75	H	1.734755	-1.250237	0.076644
H76	H	2.234755	-0.750237	0.576644
H77	H	1.222704	-0.766057	0.160094
H78	H	1.722704	-0.266057	0.660094
O79	O	1.519972	-0.786132	0.714590
O80	O	2.019972	-0.286132	1.214590
H81	H	1.436716	-0.754917	0.757397
H82	H	1.936716	-0.254917	1.257397
O83	O	0.991363	-0.596832	0.374502
O84	O	1.491363	-0.096832	0.874502
H85	H	0.906354	-0.597383	0.373816
H86	H	1.406354	-0.097383	0.873816
O87	O	1.068389	-0.832934	0.075404
O88	O	1.568389	-0.332934	0.575404
H89	H	1.153396	-0.832370	0.076076
H90	H	1.653396	-0.332370	0.576076
H91	H	1.692076	-0.614098	0.777043
H92	H	2.192076	-0.114098	1.277043
H93	H	1.677803	-1.310039	0.160491
H94	H	2.177803	-0.810039	0.660491
O95	O	1.532331	-1.054424	0.374457
O96	O	2.032331	-0.554424	0.874457
H97	H	1.532757	-0.969487	0.373753
H98	H	2.032757	-0.469487	0.873753
