data_functionalizedCrystal
_audit_creation_method	'MofGen! by Chris Wilmer'
_symmetry_space_group_name_H-M	'P1'
_symmetry_Int_Tables_number	1
_symmetry_cell_setting	triclinic
loop_
_symmetry_equiv_pos_as_xyz
  x,y,z
_cell_length_a	19.805406
_cell_length_b	19.805407
_cell_length_c	16.625527
_cell_angle_alpha	89.938328
_cell_angle_beta	89.925637
_cell_angle_gamma	90.001908
loop_
_atom_site_label
_atom_site_type_symbol
_atom_site_fract_x
_atom_site_fract_y
_atom_site_fract_z
Zn1	Zn	-0.269043	1.035136	-0.456013
Zn2	Zn	0.064291	1.368469	-0.122680
Zn3	Zn	0.397624	1.701802	0.210654
Zn4	Zn	-0.382350	1.035021	-0.321207
Zn5	Zn	-0.049016	1.368355	0.012126
Zn6	Zn	0.284317	1.701688	0.345460
Zn7	Zn	-0.269184	0.921869	-0.321189
Zn8	Zn	0.064149	1.255202	0.012144
Zn9	Zn	0.397483	1.588536	0.345478
Zn10	Zn	-0.382199	0.921966	-0.455993
Zn11	Zn	-0.048866	1.255299	-0.122659
Zn12	Zn	0.284468	1.588633	0.210674
O13	O	-0.325694	0.978498	-0.388600
O14	O	0.007640	1.311831	-0.055267
O15	O	0.340973	1.645165	0.278066
O16	O	-0.284077	1.129837	-0.438147
O17	O	0.049256	1.463170	-0.104813
O18	O	0.382589	1.796504	0.228520
O19	O	-0.367460	1.019923	-0.208372
O20	O	-0.034127	1.353256	0.124961
O21	O	0.299207	1.686590	0.458295
O22	O	-0.174449	0.936901	-0.339075
O23	O	0.158885	1.270235	-0.005741
O24	O	0.492218	1.603568	0.327592
O25	O	-0.367323	1.129753	-0.339105
O26	O	-0.033990	1.463086	-0.005772
O27	O	0.299343	1.796420	0.327562
O28	O	-0.174345	1.020118	-0.438129
O29	O	0.158988	1.353451	-0.104796
O30	O	0.492322	1.686785	0.228537
O31	O	-0.284318	0.936790	-0.208359
O32	O	0.049016	1.270124	0.124975
O33	O	0.382349	1.603457	0.458308
O34	O	-0.284172	0.827165	-0.339055
O35	O	0.049162	1.160499	-0.005722
O36	O	0.382495	1.493832	0.327612
O37	O	-0.367067	0.937067	-0.568828
O38	O	-0.033733	1.270400	-0.235495
O39	O	0.299600	1.603734	0.097839
O40	O	-0.367203	0.827237	-0.438095
O41	O	-0.033870	1.160570	-0.104762
O42	O	0.299463	1.493903	0.228572
O43	O	-0.283931	1.020212	-0.568843
O44	O	0.049402	1.353545	-0.235510
O45	O	0.382736	1.686879	0.097824
O46	O	-0.477046	1.020017	-0.339086
O47	O	-0.143713	1.353350	-0.005752
O48	O	0.189620	1.686684	0.327581
O49	O	-0.476936	0.936956	-0.438112
O50	O	-0.143602	1.270289	-0.104779
O51	O	0.189731	1.603623	0.228555
C52	C	-0.325687	0.802642	-0.388571
C53	C	0.007646	1.135975	-0.055238
C54	C	0.340980	1.469309	0.278095
C55	C	-0.325700	0.727410	-0.388578
C56	C	0.007633	1.060743	-0.055245
C57	C	0.340967	1.394077	0.278089
C58	C	-0.501550	0.978503	-0.388616
C59	C	-0.168216	1.311836	-0.055283
C60	C	0.165117	1.645170	0.278051
C61	C	-0.576782	0.978567	-0.388650
C62	C	-0.243448	1.311900	-0.055316
C63	C	0.089885	1.645234	0.278017
C64	C	-0.149151	0.978511	-0.388602
C65	C	0.184182	1.311845	-0.055269
C66	C	0.517516	1.645178	0.278064
C67	C	-0.073919	0.978517	-0.388603
C68	C	0.259414	1.311850	-0.055270
C69	C	0.592748	1.645184	0.278063
C70	C	-0.282428	0.265666	-0.440282
C71	C	0.050905	0.599000	-0.106948
C72	C	0.384238	0.932333	0.226385
C73	C	-0.282430	0.336355	-0.440276
C74	C	0.050904	0.669688	-0.106942
C75	C	0.384237	1.003021	0.226391
C76	C	-0.325704	0.371648	-0.388627
C77	C	0.007629	0.704982	-0.055293
C78	C	0.340963	1.038315	0.278040
C79	C	-0.368985	0.336250	-0.336985
C80	C	-0.035652	0.669583	-0.003652
C81	C	0.297682	1.002916	0.329681
C82	C	-0.368987	0.265563	-0.336996
C83	C	-0.035653	0.598896	-0.003663
C84	C	0.297680	0.932229	0.329671
C85	C	-0.368980	0.621323	-0.336943
C86	C	-0.035646	0.954656	-0.003609
C87	C	0.297687	1.287990	0.329724
C88	C	-0.368973	0.692015	-0.336935
C89	C	-0.035640	1.025348	-0.003601
C90	C	0.297693	1.358682	0.329732
C91	C	-0.282423	0.692115	-0.440223
C92	C	0.050910	1.025449	-0.106889
C93	C	0.384244	1.358782	0.226444
C94	C	-0.282425	0.621428	-0.440233
C95	C	0.050909	0.954761	-0.106900
C96	C	0.384242	1.288095	0.226434
C97	C	-0.325708	0.586036	-0.388595
C98	C	0.007626	0.919369	-0.055262
C99	C	0.340959	1.252702	0.278071
C100	C	-0.325707	0.509387	-0.388603
C101	C	0.007627	0.842721	-0.055270
C102	C	0.340960	1.176054	0.278063
C103	C	-0.325702	0.448295	-0.388614
C104	C	0.007631	0.781629	-0.055280
C105	C	0.340965	1.114962	0.278053
C106	C	-0.038628	0.935196	-0.337033
C107	C	0.294705	1.268529	-0.003700
C108	C	0.628039	1.601863	0.329634
C109	C	0.032061	0.935200	-0.337042
C110	C	0.365394	1.268534	-0.003708
C111	C	0.698727	1.601867	0.329625
C112	C	0.067456	0.978530	-0.388617
C113	C	0.400790	1.311863	-0.055284
C114	C	0.734123	1.645196	0.278049
C115	C	0.032160	1.021853	-0.440193
C116	C	0.365494	1.355186	-0.106860
C117	C	0.698827	1.688519	0.226473
C118	C	-0.038527	1.021844	-0.440188
C119	C	0.294806	1.355178	-0.106855
C120	C	0.628140	1.688511	0.226479
C121	C	0.317234	1.021886	-0.440217
C122	C	0.650567	1.355219	-0.106884
C123	C	0.983900	1.688553	0.226450
C124	C	0.387926	1.021892	-0.440217
C125	C	0.721259	1.355226	-0.106883
C126	C	1.054592	1.688559	0.226450
C127	C	0.387821	0.935242	-0.337071
C128	C	0.721154	1.268575	-0.003737
C129	C	1.054488	1.601908	0.329596
C130	C	0.317134	0.935234	-0.337065
C131	C	0.650467	1.268567	-0.003732
C132	C	0.983801	1.601900	0.329601
C133	C	0.281844	0.978554	-0.388644
C134	C	0.615177	1.311887	-0.055311
C135	C	0.948511	1.645220	0.278023
C136	C	0.205195	0.978548	-0.388635
C137	C	0.538529	1.311881	-0.055301
C138	C	0.871862	1.645214	0.278032
C139	C	0.144104	0.978540	-0.388623
C140	C	0.477437	1.311873	-0.055290
C141	C	0.810770	1.645206	0.278044
C142	C	-0.325872	0.978373	-0.179109
C143	C	0.007462	1.311706	0.154224
C144	C	0.340795	1.645039	0.487557
C145	C	-0.325778	0.978433	-0.089488
C146	C	0.007555	1.311767	0.243845
C147	C	0.340889	1.645100	0.577178
C148	C	-0.325701	1.155041	-0.388630
C149	C	0.007632	1.488374	-0.055297
C150	C	0.340965	1.821707	0.278037
C151	C	-0.325705	1.230273	-0.388643
C152	C	0.007629	1.563606	-0.055309
C153	C	0.340962	1.896939	0.278024
C154	C	-0.325466	0.978663	-0.598910
C155	C	0.007867	1.311996	-0.265577
C156	C	0.341200	1.645330	0.067757
C157	C	-0.325369	0.978733	-0.688531
C158	C	0.007964	1.312067	-0.355198
C159	C	0.341297	1.645400	-0.021865
C160	C	-0.325446	0.978684	0.238687
C161	C	0.007887	1.312018	0.572020
C162	C	0.341221	1.645351	0.905353
C163	C	-0.325541	0.978616	0.147378
C164	C	0.007793	1.311950	0.480712
C165	C	0.341126	1.645283	0.814045
C166	C	-0.325613	0.978558	0.074602
C167	C	0.007721	1.311892	0.407935
C168	C	0.341054	1.645225	0.741269
C169	C	-0.325706	0.978491	-0.016712
C170	C	0.007627	1.311825	0.316621
C171	C	0.340961	1.645158	0.649955
H172	H	-0.247185	0.236935	-0.482336
H173	H	0.086148	0.570269	-0.149002
H174	H	0.419481	0.903602	0.184331
H175	H	0.416562	0.899966	-0.295075
H176	H	0.749895	1.233299	0.038258
H177	H	1.083228	1.566632	0.371592
N178	N	-0.238219	0.372519	-0.493007
N179	N	0.095115	0.705852	-0.159674
N180	N	0.428448	1.039185	0.173660
N181	N	-0.238220	0.435631	-0.492992
N182	N	0.095113	0.768965	-0.159658
N183	N	0.428446	1.102298	0.173675
H184	H	-0.206994	0.461173	-0.530234
H185	H	0.126340	0.794507	-0.196901
H186	H	0.459673	1.127840	0.136433
N187	N	-0.238211	0.585388	-0.492990
N188	N	0.095122	0.918721	-0.159657
N189	N	0.428456	1.252055	0.173677
N190	N	-0.199574	0.616998	-0.539093
N191	N	0.133760	0.950332	-0.205760
N192	N	0.467093	1.283665	0.127573
H193	H	-0.168347	0.591546	-0.576356
H194	H	0.164986	0.924880	-0.243022
H195	H	0.498320	1.258213	0.090311
H196	H	0.060984	1.057130	-0.482192
H197	H	0.394317	1.390463	-0.148858
H198	H	0.727650	1.723796	0.184475
H199	H	-0.247182	0.720940	-0.482271
H200	H	0.086152	1.054274	-0.148937
H201	H	0.419485	1.387607	0.184396
N202	N	-0.413182	0.728057	-0.284166
N203	N	-0.079848	1.061391	0.049168
N204	N	0.253485	1.394724	0.382501
N205	N	-0.451823	0.696450	-0.238064
N206	N	-0.118489	1.029784	0.095270
N207	N	0.214844	1.363117	0.428603
H208	H	-0.483043	0.721905	-0.200796
H209	H	-0.149709	1.055238	0.132538
H210	H	0.183624	1.388571	0.465871
H211	H	-0.404222	0.592515	-0.294894
H212	H	-0.070888	0.925848	0.038439
H213	H	0.262445	1.259182	0.371773
H214	H	-0.404222	0.364991	-0.294935
H215	H	-0.070889	0.698325	0.038398
H216	H	0.262444	1.031658	0.371732
N217	N	-0.413199	0.229417	-0.284247
N218	N	-0.079866	0.562750	0.049087
N219	N	0.253467	0.896084	0.382420
N220	N	-0.451835	0.260935	-0.238135
N221	N	-0.118502	0.594268	0.095198
N222	N	0.214831	0.927602	0.428531
H223	H	-0.483065	0.235408	-0.200881
H224	H	-0.149731	0.568742	0.132452
H225	H	0.183602	0.902075	0.465785
H226	H	-0.067260	1.057116	-0.482188
H227	H	0.266073	1.390449	-0.148855
H228	H	0.599406	1.723782	0.184479
N229	N	-0.074770	0.890944	-0.284328
N230	N	0.258563	1.224277	0.049005
N231	N	0.591896	1.557610	0.382338
N232	N	-0.043248	0.852272	-0.238282
N233	N	0.290085	1.185606	0.095052
N234	N	0.623419	1.518939	0.428385
H235	H	-0.068771	0.821019	-0.201054
H236	H	0.264562	1.154352	0.132279
H237	H	0.597895	1.487686	0.465612
H238	H	0.060794	0.899925	-0.295050
H239	H	0.394128	1.233258	0.038283
H240	H	0.727461	1.566591	0.371617
H241	H	0.416744	1.057177	-0.482219
H242	H	0.750077	1.390511	-0.148885
H243	H	1.083411	1.723844	0.184448
H244	H	0.288318	0.899953	-0.295064
H245	H	0.621651	1.233286	0.038269
H246	H	0.954985	1.566619	0.371602
H247	H	0.288509	1.057168	-0.482206
H248	H	0.621842	1.390501	-0.148873
H249	H	0.955176	1.723834	0.184460
