data_functionalizedCrystal
_audit_creation_method	'MofGen! by Chris Wilmer'
_symmetry_space_group_name_H-M	'P1'
_symmetry_Int_Tables_number	1
_symmetry_cell_setting	triclinic
loop_
_symmetry_equiv_pos_as_xyz
  x,y,z
_cell_length_a	20.919309
_cell_length_b	14.446369
_cell_length_c	14.446369
_cell_angle_alpha	89.999773
_cell_angle_beta	62.592088
_cell_angle_gamma	57.441004
loop_
_atom_site_label
_atom_site_type_symbol
_atom_site_fract_x
_atom_site_fract_y
_atom_site_fract_z
Zr1	Zr	0.700795	-0.161009	0.931216
O2	O	0.834360	-0.316337	0.790933
O3	O	0.567232	-0.108175	0.969001
O4	O	0.700802	-0.308821	0.976518
O5	O	0.700784	0.036647	0.783424
O6	O	0.700806	-0.308829	1.128848
O7	O	0.700789	-0.115690	0.783416
O8	O	0.461873	0.050091	1.115402
O9	O	0.939716	-0.322273	0.796870
O10	O	0.622171	-0.091952	1.105104
O11	O	0.622163	0.021742	0.991428
O12	O	0.779425	-0.214494	1.000278
O13	O	0.779418	-0.100800	0.886602
Zr14	Zr	0.700792	0.081939	1.174178
Zr15	Zr	0.700802	-0.161022	1.174165
Zr16	Zr	0.700786	0.081951	0.931229
Zr17	Zr	0.868827	-0.170477	0.940686
Zr18	Zr	0.532760	0.091407	1.164708
O19	O	0.834356	0.029104	1.136393
O20	O	0.834369	-0.316354	1.136375
O21	O	0.834347	0.029122	0.790951
O22	O	0.567228	0.237267	1.314461
O23	O	0.567241	-0.108192	1.314444
O24	O	0.567219	0.237284	0.969019
O25	O	0.700804	-0.115717	1.321971
O26	O	0.700785	0.229751	1.128876
O27	O	0.700781	0.229759	0.976546
O28	O	0.700798	0.036620	1.321978
O29	O	0.939722	-0.322283	0.989983
O30	O	0.461866	0.243213	1.115412
O31	O	0.461871	0.243203	1.308524
O32	O	0.461878	0.050082	1.308514
O33	O	0.939709	-0.129152	0.796880
O34	O	0.939714	-0.129162	0.989992
O35	O	0.622162	0.135424	1.105116
O36	O	0.622169	0.021730	1.218793
O37	O	0.779424	-0.100812	1.113966
O38	O	0.779417	0.012882	1.000290
C39	C	0.490611	-0.027693	1.040852
C40	C	0.419278	-0.023673	1.036832
C41	C	0.700786	-0.039520	0.748805
C42	C	0.700783	-0.039514	0.645666
C43	C	0.700782	0.264372	1.052713
C44	C	0.700778	0.367515	1.052718
C45	C	0.385769	-0.081132	1.094278
C46	C	0.318738	-0.077345	1.090504
C47	C	0.285222	-0.016105	1.029276
C48	C	0.318734	0.041361	0.971828
C49	C	0.385759	0.037580	0.975610
C50	C	0.082846	-0.001712	1.014896
C51	C	0.015819	0.002062	1.011116
C52	C	0.015826	-0.116643	1.129794
C53	C	0.082856	-0.120424	1.133564
C54	C	0.116359	-0.062953	1.076121
C55	C	0.216708	-0.012235	1.025414
C56	C	0.184867	-0.066817	1.079991
C57	C	0.910976	-0.051378	1.064542
C58	C	0.982310	-0.055397	1.068562
C59	C	0.700805	-0.343442	1.052682
C60	C	0.700809	-0.446585	1.052676
C61	C	0.601608	0.591468	1.118460
C62	C	0.601541	0.484240	1.118866
C63	C	0.750044	0.368068	1.107790
C64	C	0.749415	0.475872	1.108270
C65	C	0.751452	0.474387	0.931832
C66	C	0.749583	0.368523	0.931930
C67	C	0.601593	0.037776	0.672500
C68	C	0.601557	0.037441	0.565244
C69	C	0.750355	-0.165907	0.465662
C70	C	0.749695	-0.165454	0.573415
C71	C	0.751144	0.008502	0.572548
C72	C	0.749301	0.011079	0.466455
C73	C	0.700802	-0.039550	1.356590
C74	C	0.700804	-0.039556	1.459728
C75	C	0.490619	-0.027708	1.344745
C76	C	0.419288	-0.023694	1.443863
C77	C	0.490600	0.276214	1.040868
C78	C	0.419262	0.383376	1.036853
C79	C	0.490608	0.276199	1.344760
C80	C	0.419273	0.383356	1.443884
C81	C	0.910979	-0.355269	0.760634
C82	C	0.982315	-0.462426	0.661511
C83	C	0.910968	-0.051362	0.760650
C84	C	0.982299	-0.055376	0.661531
C85	C	0.910987	-0.355284	1.064526
C86	C	0.982325	-0.462447	1.068541
C87	C	0.385791	-0.081160	1.431066
C88	C	0.318777	-0.077412	1.524189
C89	C	0.285257	-0.016190	1.630108
C90	C	0.318761	0.041278	1.642904
C91	C	0.385778	0.037522	1.549781
C92	C	0.385760	0.493052	1.094312
C93	C	0.318740	0.593751	1.090536
C94	C	0.285219	0.584773	1.029307
C95	C	0.318727	0.475085	0.971841
C96	C	0.385750	0.374388	0.975611
C97	C	0.385777	0.374331	1.549781
C98	C	0.318759	0.475007	1.642928
C99	C	0.285234	0.584706	1.630175
C100	C	0.318737	0.593728	1.524266
C101	C	0.385758	0.493054	1.431122
C102	C	1.015819	-0.453402	0.555613
C103	C	1.082857	-0.554079	0.462468
C104	C	1.116386	-0.663778	0.475221
C105	C	1.082879	-0.672800	0.581130
C106	C	1.015846	-0.572125	0.674273
C107	C	1.015803	0.002079	0.674329
C108	C	1.082836	-0.001697	0.581207
C109	C	1.116358	-0.062922	0.475288
C110	C	1.082851	-0.120385	0.462492
C111	C	1.015825	-0.116615	0.555614
C112	C	1.015826	-0.453430	1.129781
C113	C	1.082846	-0.554111	1.133574
C114	C	1.116370	-0.663807	1.076122
C115	C	1.082863	-0.672821	1.014880
C116	C	1.015839	-0.572141	1.011094
H117	H	0.413057	-0.131006	1.144131
Cl118	Cl	0.973740	-0.583497	0.934087
Cl119	Cl	0.276580	0.731646	1.508252
H120	H	0.562648	0.488884	1.207926
Cl121	Cl	0.201003	-0.011477	1.747166
Cl122	Cl	0.693447	0.154822	0.464466
Cl123	Cl	0.427886	0.504370	1.171297
Cl124	Cl	0.276652	0.463638	1.776057
Cl125	Cl	1.200620	-0.067647	0.358230
Cl126	Cl	0.427915	0.236435	1.565844
H127	H	1.170945	-0.745778	1.079214
Cl128	Cl	0.542093	-0.012862	0.753778
Cl129	Cl	1.124962	-0.542710	0.329339
H130	H	1.110121	-0.546749	1.183442
H131	H	0.413043	0.084366	0.928828
H132	H	0.714406	0.528191	1.197322
Cl133	Cl	0.124991	-0.197423	1.210533
H134	H	0.413021	0.500418	1.344898
Cl135	Cl	1.200655	-0.790333	0.358114
H136	H	0.230661	0.666673	1.706028
Cl137	Cl	0.174558	0.064766	0.948458
Cl138	Cl	0.697882	-0.226223	0.459145
H139	H	-0.011459	-0.163431	1.176563
H140	H	0.413082	-0.131028	1.344830
H141	H	1.110186	-0.762130	0.591501
H142	H	0.988541	-0.364120	1.176566
Cl143	Cl	0.864280	0.425652	0.855702
H144	H	0.988568	-0.579486	0.760497
H145	H	0.988514	0.051943	0.760565
Cl146	Cl	1.124941	0.070555	0.597317
H147	H	0.212154	-0.116674	1.129847
Cl148	Cl	0.541861	0.490090	1.061354
H149	H	1.110156	-0.170233	0.376240
Cl150	Cl	0.276633	-0.149609	1.162701
Cl151	Cl	0.276573	0.463818	0.894875
H152	H	0.988547	-0.163399	0.545178
H153	H	-0.011466	0.051931	0.961251
H154	H	0.291459	0.091122	1.729155
H155	H	0.988523	-0.364088	0.545208
Cl156	Cl	1.125025	-0.810734	0.942648
Cl157	Cl	0.863036	-0.258379	0.351194
H158	H	0.291436	0.091231	0.921981
H159	H	0.110113	0.045090	0.968126
Cl160	Cl	0.276626	0.731629	1.162789
H161	H	0.562672	0.647620	1.081366
H162	H	0.719167	0.099950	0.620919
Cl163	Cl	0.861780	0.428402	1.039559
Cl164	Cl	0.862699	0.240887	1.037751
Cl165	Cl	0.541787	0.679739	1.255120
H166	H	0.715828	0.367862	1.196027
H167	H	0.719707	0.526193	0.886355
Cl168	Cl	0.427875	0.109783	1.565888
Cl169	Cl	0.694117	0.372462	0.868488
Cl170	Cl	0.861467	0.240189	0.849321
H171	H	0.562699	0.130604	0.564801
H172	H	0.562437	0.131201	0.724395
H173	H	0.230644	0.666776	1.026246
H174	H	0.562879	0.004313	0.565350
H175	H	0.714898	-0.204173	0.621638
Cl176	Cl	0.427853	0.236515	0.903376
H177	H	0.822488	-0.225806	0.550882
Cl178	Cl	0.863954	-0.078084	0.536587
H179	H	0.821694	-0.039779	0.391416
H180	H	0.291506	-0.124209	1.513749
