data_functionalizedCrystal
_audit_creation_method	'MofGen! by Chris Wilmer'
_symmetry_space_group_name_H-M	'P1'
_symmetry_Int_Tables_number	1
_symmetry_cell_setting	triclinic
loop_
_symmetry_equiv_pos_as_xyz
  x,y,z
_cell_length_a	14.044220
_cell_length_b	14.044191
_cell_length_c	13.101039
_cell_angle_alpha	93.662449
_cell_angle_beta	86.332523
_cell_angle_gamma	93.190327
loop_
_atom_site_label
_atom_site_type_symbol
_atom_site_fract_x
_atom_site_fract_y
_atom_site_fract_z
O1	O	0.225377	1.281976	0.085169
O2	O	0.217064	1.005305	0.085182
O3	O	0.082885	1.139487	0.085166
O4	O	0.359556	1.147794	0.085186
O5	O	0.092530	1.129861	-0.085263
O6	O	0.226708	0.995679	-0.085247
O7	O	0.235022	1.272350	-0.085259
Zn8	Zn	0.232396	1.132486	-0.112312
Zn9	Zn	0.219689	1.145169	0.112235
O10	O	0.369200	1.138168	-0.085243
C11	C	0.218250	0.964870	-0.000031
C12	C	0.207402	0.858727	-0.000026
C13	C	0.264503	0.613268	-0.000032
C14	C	0.187587	0.664393	-0.000036
C15	C	0.198615	0.772531	-0.000031
C16	C	0.253476	0.505121	-0.000038
C17	C	0.052086	1.131038	-0.000049
C18	C	-0.054057	1.120194	-0.000050
C19	C	-0.248396	1.100368	-0.000034
C20	C	-0.299524	1.177283	-0.000034
C21	C	-0.407661	1.166252	-0.000026
C22	C	-0.140250	1.111398	-0.000043
C23	C	0.400000	1.146617	-0.000026
C24	C	0.506143	1.157462	-0.000019
C25	C	0.233836	1.312785	-0.000044
C26	C	0.244683	1.418929	-0.000042
N27	N	0.241069	1.123838	-0.265560
C28	C	0.252876	1.112072	-0.474601
C29	C	0.199205	1.165588	-0.525483
C30	C	0.205775	1.159041	-0.641801
C31	C	0.246308	1.118617	-0.358273
N32	N	0.211010	1.153824	0.265482
H33	H	0.113451	0.626954	0.000031
H34	H	-0.285836	1.026241	-0.000028
C35	C	0.415319	1.068415	-0.507859
C36	C	0.321569	1.043587	-0.533709
H37	H	0.457725	1.026132	-0.544355
H38	H	0.431966	1.132051	-0.525379
H39	H	0.419847	1.063883	-0.436312
H40	H	0.317040	1.048126	-0.605256
H41	H	0.304917	0.979935	-0.516197
C42	C	0.356263	0.762704	-0.000001
C43	C	0.364574	0.663809	-0.000011
H44	H	0.418042	0.793912	0.000021
H45	H	0.325937	0.777287	-0.059436
H46	H	0.319187	0.783982	0.059429
H47	H	0.401645	0.642529	-0.059446
H48	H	0.394914	0.649219	0.059430
H49	H	-0.262087	1.251420	0.000031
C50	C	0.136894	1.227070	-0.360912
C51	C	0.130291	1.233855	-0.466369
H52	H	0.094289	1.269152	-0.324417
H53	H	0.120444	1.163359	-0.343527
H54	H	0.200428	1.244113	-0.343273
H55	H	0.066759	1.216805	-0.484009
H56	H	0.146735	1.297580	-0.483761
