data_functionalizedCrystal
_audit_creation_method	'MofGen! by Chris Wilmer'
_symmetry_space_group_name_H-M	'P1'
_symmetry_Int_Tables_number	1
_symmetry_cell_setting	triclinic
loop_
_symmetry_equiv_pos_as_xyz
  x,y,z
_cell_length_a	17.640112
_cell_length_b	17.640280
_cell_length_c	19.076919
_cell_angle_alpha	81.491119
_cell_angle_beta	102.961715
_cell_angle_gamma	92.184069
loop_
_atom_site_label
_atom_site_type_symbol
_atom_site_fract_x
_atom_site_fract_y
_atom_site_fract_z
Zn1	Zn	1.216229	-0.076018	-0.165696
Zn2	Zn	1.716229	0.423982	0.334304
Zn3	Zn	1.246841	-0.195470	-0.021024
Zn4	Zn	1.746841	0.304530	0.478976
Zn5	Zn	1.092693	-0.096566	-0.066523
Zn6	Zn	1.592693	0.403434	0.433477
Zn7	Zn	1.115229	-0.228173	-0.156454
Zn8	Zn	1.615229	0.271827	0.343546
O9	O	1.167748	-0.149057	-0.102424
O10	O	1.667748	0.350943	0.397576
O11	O	1.327070	-0.069577	-0.131331
O12	O	1.827070	0.430423	0.368669
O13	O	1.229773	-0.177264	0.071123
O14	O	1.729773	0.322736	0.571123
O15	O	1.086838	0.011228	-0.102588
O16	O	1.586838	0.511228	0.397412
O17	O	1.349560	-0.157338	-0.025041
O18	O	1.849560	0.342662	0.474959
O19	O	1.177599	0.026325	-0.175449
O20	O	1.677599	0.526325	0.324551
O21	O	1.116521	-0.104600	0.037695
O22	O	1.616521	0.395400	0.537695
O23	O	0.988902	-0.136310	-0.093626
O24	O	1.488902	0.363690	0.406374
O25	O	1.125247	-0.213076	-0.255861
O26	O	1.625247	0.286924	0.244139
O27	O	1.005459	-0.233001	-0.159698
O28	O	1.505459	0.266999	0.340302
O29	O	1.199451	-0.101288	-0.262652
O30	O	1.699451	0.398712	0.237348
O31	O	1.251624	-0.304877	-0.016080
O32	O	1.751624	0.195123	0.483920
O33	O	1.154930	-0.328904	-0.115579
O34	O	1.654930	0.171096	0.384421
C35	C	0.969493	-0.190435	-0.130596
C36	C	1.469493	0.309565	0.369404
C37	C	0.884683	-0.208155	-0.142661
C38	C	1.384683	0.291845	0.357339
C39	C	1.209064	-0.344130	-0.059902
C40	C	1.709064	0.155870	0.440098
C41	C	1.226809	-0.427570	-0.041724
C42	C	1.726809	0.072430	0.458276
C43	C	0.562458	-0.014422	-0.010776
C44	C	1.062458	0.485578	0.489224
C45	C	0.482768	-0.031089	-0.022119
C46	C	0.982768	0.468911	0.477881
C47	C	0.500097	-0.131897	-0.090736
C48	C	1.000097	0.368103	0.409264
C49	C	0.579789	-0.115236	-0.079402
C50	C	1.079789	0.384764	0.420598
C51	C	0.610963	-0.056499	-0.039421
C52	C	1.110963	0.443501	0.460579
C53	C	0.628294	-0.157313	-0.108046
C54	C	1.128294	0.342687	0.391954
C55	C	0.707980	-0.140656	-0.096709
C56	C	1.207980	0.359344	0.403291
C57	C	0.739161	-0.081922	-0.056728
C58	C	1.239161	0.418078	0.443272
C59	C	0.690649	-0.039841	-0.028084
C60	C	1.190649	0.460159	0.471916
C61	C	0.597119	-0.216054	-0.148023
C62	C	1.097119	0.283946	0.351977
C63	C	0.645624	-0.258130	-0.176667
C64	C	1.145624	0.241870	0.323333
C65	C	0.725311	-0.241470	-0.165335
C66	C	1.225311	0.258530	0.334665
C67	C	0.756492	-0.182736	-0.125354
C68	C	1.256492	0.317264	0.374646
C69	C	0.773822	-0.283550	-0.193979
C70	C	1.273822	0.216450	0.306021
C71	C	0.853508	-0.266893	-0.182643
C72	C	1.353508	0.233107	0.317357
C73	C	0.836178	-0.166079	-0.114017
C74	C	1.336178	0.333921	0.385983
C75	C	1.033250	-0.764707	-0.240729
C76	C	1.533250	-0.264707	0.259271
C77	C	1.049926	-0.843110	-0.223625
C78	C	1.549926	-0.343110	0.276375
C79	C	1.150672	-0.818018	-0.120099
C80	C	1.650672	-0.318018	0.379901
C81	C	1.134007	-0.739610	-0.137195
C82	C	1.634007	-0.239610	0.362805
C83	C	1.075295	-0.712962	-0.197511
C84	C	1.575295	-0.212962	0.302489
C85	C	1.176051	-0.687865	-0.093977
C86	C	1.676051	-0.187865	0.406023
C87	C	1.159385	-0.609466	-0.111071
C88	C	1.659385	-0.109466	0.388929
C89	C	1.100674	-0.582811	-0.171382
C90	C	1.600674	-0.082811	0.328618
C91	C	1.058628	-0.634562	-0.214604
C92	C	1.558628	-0.134562	0.285396
C93	C	1.234760	-0.714516	-0.033659
C94	C	1.734760	-0.214516	0.466341
C95	C	1.276804	-0.662771	0.009559
C96	C	1.776804	-0.162771	0.509559
C97	C	1.260142	-0.584369	-0.007537
C98	C	1.760142	-0.084369	0.492463
C99	C	1.201431	-0.557714	-0.067849
C100	C	1.701431	-0.057714	0.432151
C101	C	1.302187	-0.532618	0.035685
C102	C	1.802187	-0.032618	0.535685
C103	C	1.285521	-0.454218	0.018592
C104	C	1.785521	0.045782	0.518592
C105	C	1.184764	-0.479315	-0.084942
C106	C	1.684764	0.020685	0.415058
C107	C	1.366776	-0.107518	-0.074142
C108	C	1.866776	0.392482	0.425858
C109	C	1.451591	-0.089816	-0.062090
C110	C	1.951591	0.410184	0.437910
C111	C	1.161448	-0.158538	-0.285426
C112	C	1.661448	0.341462	0.214574
C113	C	1.158764	-0.162578	-0.363410
C114	C	1.658764	0.337422	0.136590
C115	C	1.126290	0.046782	-0.145125
C116	C	1.626290	0.546782	0.354875
C117	C	1.108623	0.130236	-0.163321
C118	C	1.608623	0.630236	0.336679
C119	C	1.196135	-0.106277	-0.403584
C120	C	1.696135	0.393723	0.096416
C121	C	1.193602	-0.110072	-0.476861
C122	C	1.693602	0.389928	0.023139
C123	C	1.153703	-0.170172	-0.509961
C124	C	1.653703	0.329828	-0.009961
C125	C	1.116327	-0.226476	-0.469782
C126	C	1.616327	0.273524	0.030218
C127	C	1.118855	-0.222677	-0.396509
C128	C	1.618855	0.277323	0.103491
C129	C	1.141995	-0.187772	-0.728728
C130	C	1.641995	0.312228	-0.228728
C131	C	1.139472	-0.191568	-0.802007
C132	C	1.639472	0.308432	-0.302007
C133	C	1.216746	-0.075163	-0.809080
C134	C	1.716746	0.424837	-0.309080
C135	C	1.219274	-0.071372	-0.735804
C136	C	1.719274	0.428628	-0.235804
C137	C	1.181895	-0.127673	-0.695633
C138	C	1.681895	0.372327	-0.195633
N139	N	1.151116	-0.174054	-0.584861
N140	N	1.651116	0.325946	-0.084861
N141	N	1.184478	-0.123787	-0.620736
N142	N	1.684478	0.376213	-0.120736
C143	C	1.174055	-0.139549	0.079860
C144	C	1.674055	0.360451	0.579860
C145	C	1.176843	-0.135267	0.157819
C146	C	1.676843	0.364733	0.657819
H147	H	0.861558	-0.118238	-0.081473
H148	H	1.361558	0.381762	0.418527
Br149	Br	1.105092	-0.443140	-0.166807
Br150	Br	1.605092	0.056860	0.333193
H151	H	1.111572	-0.233625	-0.696026
H152	H	1.611572	0.266375	-0.196026
H153	H	1.106979	-0.240511	-0.828955
H154	H	1.606979	0.259489	-0.328955
Br155	Br	0.603312	-0.337854	-0.230912
Br156	Br	1.103312	0.162146	0.269088
Br157	Br	1.062172	-0.308038	-0.514705
Br158	Br	1.562172	0.191962	-0.014705
Br159	Br	0.953577	-0.728532	-0.322594
Br160	Br	1.453577	-0.228532	0.177406
Br161	Br	0.978956	-0.598387	-0.296469
Br162	Br	1.478956	-0.098387	0.203531
H163	H	1.251767	-0.022433	-0.708858
H164	H	1.751767	0.477567	-0.208858
H165	H	1.319758	-0.412086	0.053785
H166	H	1.819758	0.087914	0.553785
H167	H	0.748429	-0.331379	-0.226526
H168	H	1.248429	0.168621	0.273474
H169	H	0.893003	-0.301155	-0.205969
H170	H	1.393003	0.198845	0.294031
Br171	Br	0.604772	0.065301	0.043477
Br172	Br	1.104772	0.565301	0.543477
Br173	Br	0.457784	-0.211621	-0.144981
Br174	Br	0.957784	0.288379	0.355019
H175	H	1.349985	-0.554328	0.084798
H176	H	1.849985	-0.054328	0.584798
Br177	Br	1.068130	-0.299085	-0.341988
Br178	Br	1.568130	0.200915	0.158012
Br179	Br	0.992847	-0.913338	-0.282276
Br180	Br	1.492847	-0.413338	0.217724
Br181	Br	1.230350	-0.854191	-0.038245
Br182	Br	1.730350	-0.354191	0.461755
Br183	Br	1.356483	-0.698944	0.091412
Br184	Br	1.856483	-0.198944	0.591412
H185	H	0.443276	0.003184	0.001204
H186	H	0.943276	0.503184	0.501204
H187	H	1.247177	-0.029324	-0.841796
H188	H	1.747177	0.470676	-0.341796
H189	H	1.228628	-0.057339	-0.376638
H190	H	1.728628	0.442661	0.123362
H191	H	0.804047	-0.068362	-0.047497
H192	H	1.304047	0.431638	0.452503
Br193	Br	0.732963	0.039882	0.026169
Br194	Br	1.232963	0.539882	0.526169
Br195	Br	1.244366	-0.033687	-0.531367
Br196	Br	1.744366	0.466313	-0.031367
H197	H	1.087100	-0.518973	-0.185294
H198	H	1.587100	-0.018973	0.314706
H199	H	1.248329	-0.778355	-0.019745
H200	H	1.748329	-0.278355	0.480255
H201	H	0.532233	-0.229614	-0.157252
H202	H	1.032233	0.270386	0.342748
