data_functionalizedCrystal
_audit_creation_method	'MofGen! by Chris Wilmer'
_symmetry_space_group_name_H-M	'P1'
_symmetry_Int_Tables_number	1
_symmetry_cell_setting	triclinic
loop_
_symmetry_equiv_pos_as_xyz
  x,y,z
_cell_length_a	23.532357
_cell_length_b	10.654549
_cell_length_c	22.610064
_cell_angle_alpha	90.000891
_cell_angle_beta	89.994951
_cell_angle_gamma	83.656534
loop_
_atom_site_label
_atom_site_type_symbol
_atom_site_fract_x
_atom_site_fract_y
_atom_site_fract_z
O1	O	0.079973	1.665274	0.049179
O2	O	0.087594	1.299551	0.049184
O3	O	0.000922	1.493474	0.049169
O4	O	0.166645	1.471352	0.049194
O5	O	0.000944	1.493460	-0.049200
O6	O	0.087616	1.299538	-0.049185
O7	O	0.079996	1.665261	-0.049190
Zn8	Zn	0.083809	1.482397	-0.064806
Zn9	Zn	0.083780	1.482415	0.064800
O10	O	0.166668	1.471338	-0.049175
C11	C	0.087046	1.252764	-0.000000
C12	C	0.085372	1.113375	0.000001
C13	C	0.134826	0.901274	0.000006
C14	C	0.136403	1.032244	0.000010
C15	C	0.032760	1.063530	-0.000005
C16	C	0.031183	0.932562	-0.000005
C17	C	-0.020287	1.492914	-0.000017
C18	C	-0.083517	1.491250	-0.000023
C19	C	-0.475608	1.480813	0.053630
C20	C	-0.535018	1.479232	0.053634
O21	O	-0.565750	1.478377	0.099236
N22	N	-0.564722	1.478440	0.000013
C23	C	-0.535012	1.479217	-0.053614
O24	O	-0.565733	1.478398	-0.099222
C25	C	-0.475603	1.480790	-0.053617
C26	C	-0.445903	1.481594	0.000007
C27	C	-0.445908	1.481616	0.107250
C28	C	-0.386502	1.483200	0.107246
C29	C	-0.356797	1.483980	0.053623
C30	C	-0.386497	1.483178	0.000004
C31	C	-0.445894	1.481558	-0.107243
C32	C	-0.386481	1.483129	-0.107241
C33	C	-0.356781	1.483934	-0.053618
C34	C	-0.297387	1.485542	-0.053623
N35	N	-0.267683	1.486334	-0.000003
C36	C	-0.297388	1.485553	0.053620
C37	C	-0.659776	1.475913	-0.053604
C38	C	-0.719184	1.474350	-0.053602
C39	C	-0.719185	1.474362	0.053646
C40	C	-0.659776	1.475934	0.053643
C41	C	-0.630071	1.476704	0.000016
C42	C	-0.172632	1.488880	0.053609
C43	C	-0.113222	1.490469	0.053600
C44	C	-0.113225	1.490450	-0.053647
C45	C	-0.172631	1.488868	-0.053639
C46	C	-0.202333	1.488079	-0.000006
O47	O	-0.266617	1.486392	-0.099202
O48	O	-0.266659	1.486356	0.099221
C49	C	0.187877	1.471898	0.000012
C50	C	0.251106	1.473562	0.000022
C51	C	0.080544	1.712047	-0.000005
C52	C	0.082218	1.851437	-0.000002
N53	N	0.083829	1.482394	-0.153258
C54	C	0.122160	1.396498	-0.438100
C55	C	0.122166	1.396494	-0.376180
O56	O	0.154781	1.323423	-0.344156
N57	N	0.083806	1.482385	-0.345211
C58	C	0.045435	1.568277	-0.376164
O59	O	0.012807	1.641333	-0.344137
C60	C	0.045427	1.568274	-0.438083
C61	C	0.083793	1.482385	-0.469049
C62	C	0.160523	1.310615	-0.469066
C63	C	0.160518	1.310621	-0.530982
C64	C	0.122151	1.396508	-0.561931
C65	C	0.083788	1.482391	-0.530965
C66	C	0.007053	1.654159	-0.469036
C67	C	0.007049	1.654147	-0.530959
C68	C	0.045415	1.568259	-0.561925
C69	C	0.045416	1.568284	-0.623830
N70	N	0.083775	1.482393	-0.654799
C71	C	0.122143	1.396505	-0.623850
C72	C	0.045454	1.568277	-0.246131
C73	C	0.045464	1.568287	-0.184213
C74	C	0.122194	1.396502	-0.184233
C75	C	0.122186	1.396498	-0.246152
C76	C	0.083813	1.482385	-0.277100
C77	C	0.122130	1.396523	-0.753877
C78	C	0.122123	1.396540	-0.815798
C79	C	0.045391	1.568320	-0.815773
C80	C	0.045399	1.568308	-0.753858
C81	C	0.083771	1.482400	-0.722911
O82	O	0.012816	1.641314	-0.655894
O83	O	0.154760	1.323450	-0.655885
N84	N	0.083756	1.482427	0.153252
H85	H	-0.011659	0.891986	-0.000010
O86	O	-0.084456	1.491188	0.105746
C87	C	-0.123420	1.490186	0.153074
H88	H	-0.163564	1.449295	0.137353
H89	H	-0.135324	1.590777	0.169560
C90	C	-0.046371	1.458671	0.223045
C91	C	-0.095674	1.408437	0.203738
H92	H	-0.029255	1.408250	0.254299
H93	H	-0.020119	1.459351	0.191160
H94	H	-0.056297	1.542496	0.236780
H95	H	-0.085746	1.324621	0.189997
H96	H	-0.121923	1.407742	0.235622
O97	O	-0.747941	1.473529	-0.105745
C98	C	-0.708978	1.474593	-0.153070
H99	H	-0.664429	1.435962	-0.137346
H100	H	-0.708240	1.575517	-0.169559
C101	C	-0.782308	1.439054	-0.223045
C102	C	-0.727592	1.391597	-0.203734
H103	H	-0.793791	1.387864	-0.254298
H104	H	-0.808559	1.438342	-0.191162
H105	H	-0.781686	1.523157	-0.236782
H106	H	-0.728217	1.307502	-0.189991
H107	H	-0.701342	1.392293	-0.235616
H108	H	0.179241	1.072813	0.000017
O109	O	-0.016774	1.142466	0.000065
C110	C	-0.018982	1.219147	0.051017
H111	H	0.026243	1.225186	0.068010
H112	H	-0.045172	1.176401	0.086688
C113	C	-0.102651	1.345078	0.014663
C114	C	-0.047105	1.352504	0.035531
H115	H	-0.120001	1.427337	0.005112
H116	H	-0.101165	1.293414	-0.019663
H117	H	-0.124469	1.309451	0.044392
H118	H	-0.025286	1.388115	0.005799
H119	H	-0.048588	1.404177	0.069852
H120	H	0.153375	1.326567	-0.728688
H121	H	-0.196808	1.488231	0.097281
H122	H	-0.362325	1.483850	0.150912
O123	O	0.008102	1.651673	-0.276127
C124	C	-0.048357	1.631977	-0.260991
H125	H	-0.048482	1.583565	-0.216036
H126	H	-0.066241	1.569711	-0.295837
C127	C	-0.085548	1.819429	-0.313328
C128	C	-0.085703	1.759978	-0.258111
H129	H	-0.108586	1.898385	-0.311554
H130	H	-0.047511	1.832697	-0.323528
H131	H	-0.100450	1.767528	-0.342361
H132	H	-0.070795	1.811872	-0.229082
H133	H	-0.123739	1.746722	-0.247907
H134	H	0.191757	1.240680	-0.556191
H135	H	-0.470087	1.480975	0.150918
O136	O	0.008064	1.651567	-0.845873
C137	C	-0.027338	1.584748	-0.881692
H138	H	-0.028710	1.485739	-0.863023
H139	H	-0.009540	1.577922	-0.928620
C140	C	-0.086509	1.776331	-0.905573
C141	C	-0.088199	1.654730	-0.882641
H142	H	-0.124051	1.819501	-0.906161
H143	H	-0.062657	1.821350	-0.881443
H144	H	-0.071676	1.770626	-0.944677
H145	H	-0.103026	1.660437	-0.843535
H146	H	-0.112055	1.609713	-0.906764
O147	O	0.197852	1.227132	-0.439099
C148	C	0.231694	1.151320	-0.479721
H149	H	0.232538	1.202804	-0.523857
H150	H	0.212811	1.058276	-0.486302
C151	C	0.291993	1.061411	-0.401374
C152	C	0.293033	1.124651	-0.455581
H153	H	0.329829	1.044955	-0.386483
H154	H	0.269192	1.112484	-0.374006
H155	H	0.276254	0.983882	-0.406865
H156	H	0.308765	1.202184	-0.450088
H157	H	0.315838	1.073591	-0.482948
O158	O	0.008186	1.651531	-0.154045
C159	C	0.016364	1.633022	-0.092755
H160	H	0.061475	1.585713	-0.084275
H161	H	-0.016076	1.570241	-0.075245
C162	C	-0.047227	1.819624	-0.071329
C163	C	0.008181	1.761528	-0.060914
H164	H	-0.052277	1.898890	-0.051687
H165	H	-0.052739	1.832092	-0.112621
H166	H	-0.074253	1.767293	-0.056737
H167	H	0.035206	1.813850	-0.075512
H168	H	0.013697	1.749071	-0.019624
H169	H	0.153427	1.326560	-0.271361
H170	H	0.153434	1.326566	-0.159023
H171	H	-0.743382	1.473721	0.097309
O172	O	-0.030274	1.737634	-0.439057
C173	C	-0.064127	1.813441	-0.479663
H174	H	-0.064980	1.761955	-0.523799
H175	H	-0.045248	1.906487	-0.486253
C176	C	-0.124409	1.903344	-0.401290
C177	C	-0.125460	1.840103	-0.455497
H178	H	-0.162242	1.919796	-0.386383
H179	H	-0.101600	1.852275	-0.373932
H180	H	-0.108674	1.980875	-0.406789
H181	H	-0.141189	1.762566	-0.449996
H182	H	-0.148273	1.891159	-0.482854
O183	O	-0.631012	1.476648	0.105786
C184	C	-0.669979	1.475658	0.153111
H185	H	-0.710125	1.434778	0.137389
H186	H	-0.681878	1.576252	0.169596
C187	C	-0.592935	1.444125	0.223087
C188	C	-0.642240	1.393905	0.203778
H189	H	-0.575824	1.393701	0.254342
H190	H	-0.566681	1.444796	0.191204
H191	H	-0.602857	1.527952	0.236821
H192	H	-0.632316	1.310086	0.190038
H193	H	-0.668491	1.393218	0.235660
O194	O	0.159413	1.312978	-0.845787
C195	C	0.193284	1.237191	-0.805187
H196	H	0.169931	1.236081	-0.761046
H197	H	0.235763	1.277410	-0.798608
C198	C	0.233131	1.102941	-0.883568
C199	C	0.204446	1.101568	-0.829355
H200	H	0.240019	1.019284	-0.898476
H201	H	0.210313	1.154002	-0.910921
H202	H	0.268527	1.136463	-0.878078
H203	H	0.169048	1.068062	-0.834847
H204	H	0.227258	1.050498	-0.802003
O205	O	-0.630871	1.476849	-0.105664
C206	C	-0.602544	1.586547	-0.108887
H207	H	-0.595646	1.623049	-0.062332
H208	H	-0.629662	1.662105	-0.135344
C209	C	-0.552757	1.510170	-0.196738
C210	C	-0.544281	1.554996	-0.139558
H211	H	-0.516819	1.490711	-0.215659
H212	H	-0.571843	1.436266	-0.194568
H213	H	-0.575357	1.573142	-0.218778
H214	H	-0.521687	1.492019	-0.117517
H215	H	-0.525189	1.628889	-0.141725
H216	H	-0.024201	1.724085	-0.556154
O217	O	0.008181	1.651652	-0.723667
C218	C	-0.027253	1.584999	-0.687803
H219	H	-0.005050	1.486369	-0.678572
H220	H	-0.069432	1.577207	-0.711592
C221	C	-0.066245	1.777092	-0.640299
C222	C	-0.038973	1.655956	-0.628957
H223	H	-0.073477	1.820863	-0.604001
H224	H	-0.042374	1.821998	-0.664463
H225	H	-0.101391	1.770581	-0.660124
H226	H	-0.003824	1.662468	-0.609139
H227	H	-0.062838	1.611052	-0.604789
O228	O	0.184452	0.822647	0.000041
C229	C	0.231222	0.894726	0.000036
H230	H	0.217148	0.992672	0.018655
H231	H	0.247337	0.903838	-0.047153
C232	C	0.296842	0.708541	0.015755
C233	C	0.279557	0.828838	0.038629
H234	H	0.326658	0.667897	0.039559
H235	H	0.265332	0.659978	0.015757
H236	H	0.310268	0.716152	-0.023569
H237	H	0.266125	0.821225	0.077949
H238	H	0.311065	0.877397	0.038635
O239	O	-0.357718	1.483919	-0.159389
C240	C	-0.396674	1.482829	-0.206712
H241	H	-0.441225	1.521482	-0.190991
H242	H	-0.397414	1.381894	-0.223187
C243	C	-0.323331	1.518298	-0.276696
C244	C	-0.378048	1.565782	-0.257389
H245	H	-0.311840	1.569463	-0.307957
H246	H	-0.297084	1.519028	-0.244814
H247	H	-0.323954	1.434187	-0.290421
H248	H	-0.377422	1.649886	-0.243658
H249	H	-0.404294	1.565069	-0.289270
O250	O	-0.201395	1.488044	-0.105781
C251	C	-0.162436	1.489113	-0.153110
H252	H	-0.117884	1.450492	-0.137389
H253	H	-0.161704	1.590038	-0.169600
C254	C	-0.235770	1.453554	-0.223077
C255	C	-0.181051	1.406109	-0.203770
H256	H	-0.247253	1.402358	-0.254328
H257	H	-0.262018	1.452838	-0.191191
H258	H	-0.235153	1.537657	-0.236815
H259	H	-0.181670	1.322014	-0.190026
H260	H	-0.154803	1.406809	-0.235655
H261	H	-0.470066	1.480905	-0.150910
H262	H	-0.089029	1.491092	-0.097306
