data_functionalizedCrystal
_audit_creation_method	'MofGen! by Chris Wilmer'
_symmetry_space_group_name_H-M	'P1'
_symmetry_Int_Tables_number	1
_symmetry_cell_setting	triclinic
loop_
_symmetry_equiv_pos_as_xyz
  x,y,z
_cell_length_a	23.532407
_cell_length_b	23.532407
_cell_length_c	9.730223
_cell_angle_alpha	89.987127
_cell_angle_beta	89.999391
_cell_angle_gamma	82.848747
loop_
_atom_site_label
_atom_site_type_symbol
_atom_site_fract_x
_atom_site_fract_y
_atom_site_fract_z
O1	O	0.755259	0.069135	-0.114228
O2	O	1.255259	0.569135	0.385772
O3	O	0.589395	0.079138	-0.114253
O4	O	1.089395	0.579138	0.385747
O5	O	0.677328	-0.008795	-0.114202
O6	O	1.177328	0.491205	0.385798
O7	O	0.667325	0.157068	-0.114280
O8	O	1.167325	0.657068	0.385720
O9	O	0.677323	-0.008797	0.114378
O10	O	1.177323	0.491203	0.614378
O11	O	0.589390	0.079136	0.114326
O12	O	1.089390	0.579136	0.614326
O13	O	0.755253	0.069133	0.114352
O14	O	1.255253	0.569133	0.614352
Zn15	Zn	0.672320	0.074134	0.150631
Zn16	Zn	1.172320	0.574134	0.650631
Zn17	Zn	0.672328	0.074137	-0.150533
Zn18	Zn	1.172328	0.574137	0.349467
O19	O	0.667320	0.157066	0.114300
O20	O	1.167320	0.657066	0.614300
C21	C	0.568176	0.078882	0.000034
C22	C	1.068176	0.578882	0.500034
C23	C	0.504959	0.078116	0.000026
C24	C	1.004959	0.578116	0.500026
C25	C	0.238792	0.022921	0.000090
C26	C	0.738792	0.522921	0.500090
C27	C	0.298192	0.023632	0.000089
C28	C	0.798192	0.523632	0.500089
O29	O	0.334937	-0.020153	0.000157
O30	O	0.834937	0.479847	0.500157
N31	N	0.320818	0.075909	0.000055
N32	N	0.820818	0.575909	0.500055
C33	C	0.284041	0.127477	0.000035
C34	C	0.784041	0.627477	0.500035
O35	O	0.308740	0.172007	0.000008
O36	O	0.808740	0.672007	0.500008
C37	C	0.224642	0.126765	0.000046
C38	C	0.724642	0.626765	0.500046
C39	C	0.202019	0.074485	0.000066
C40	C	0.702019	0.574485	0.500066
C41	C	0.216168	-0.029354	0.000111
C42	C	0.716168	0.470646	0.500111
C43	C	0.156772	-0.030066	0.000109
C44	C	0.656772	0.469934	0.500109
C45	C	0.119999	0.021499	0.000086
C46	C	0.619999	0.521499	0.500086
C47	C	0.142623	0.073774	0.000064
C48	C	0.642623	0.573774	0.500064
C49	C	0.187865	0.178333	0.000036
C50	C	0.687865	0.678333	0.500036
C51	C	0.128463	0.177616	0.000048
C52	C	0.628463	0.677616	0.500048
C53	C	0.105840	0.125336	0.000068
C54	C	0.605840	0.625336	0.500068
C55	C	0.046454	0.124627	0.000039
C56	C	0.546454	0.624627	0.500039
N57	N	0.023828	0.072351	0.000073
N58	N	0.523828	0.572351	0.500073
C59	C	0.060600	0.020787	0.000096
C60	C	0.560600	0.520787	0.500096
C61	C	0.408783	0.128968	0.000016
C62	C	0.908783	0.628968	0.500016
C63	C	0.468181	0.129681	-0.000005
C64	C	0.968181	0.629681	0.499995
C65	C	0.482328	0.025836	0.000051
C66	C	0.982328	0.525836	0.500051
C67	C	0.422929	0.025124	0.000062
C68	C	0.922929	0.525124	0.500062
C69	C	0.386157	0.076692	0.000050
C70	C	0.886157	0.576692	0.500050
C71	C	-0.064136	0.019297	0.000091
C72	C	0.435864	0.519297	0.500091
C73	C	-0.123538	0.018590	0.000084
C74	C	0.376462	0.518590	0.500084
C75	C	-0.137680	0.122435	0.000035
C76	C	0.362320	0.622435	0.500035
C77	C	-0.078284	0.123142	0.000035
C78	C	0.421716	0.623142	0.500035
C79	C	-0.041512	0.071568	0.000068
C80	C	0.458488	0.571568	0.500068
O81	O	0.009675	0.168390	-0.000024
O82	O	0.509675	0.668390	0.499976
O83	O	0.035892	-0.023737	0.000142
O84	O	0.535892	0.476263	0.500142
C85	C	0.677071	-0.030012	0.000095
C86	C	1.177071	0.469988	0.500095
C87	C	0.676305	-0.093229	0.000116
C88	C	1.176305	0.406771	0.500116
C89	C	0.621110	-0.359397	0.000022
C90	C	1.121110	0.140603	0.500022
C91	C	0.621821	-0.299997	0.000033
C92	C	1.121821	0.200003	0.500033
O93	O	0.578035	-0.263252	-0.000018
O94	O	1.078035	0.236748	0.499982
N95	N	0.674097	-0.277370	0.000056
N96	N	1.174097	0.222630	0.500056
C97	C	0.725666	-0.314148	0.000056
C98	C	1.225666	0.185852	0.500056
O99	O	0.770196	-0.289448	0.000075
O100	O	1.270196	0.210552	0.500075
C101	C	0.724953	-0.373547	0.000035
C102	C	1.224953	0.126453	0.500035
C103	C	0.672674	-0.396170	0.000025
C104	C	1.172674	0.103830	0.500025
C105	C	0.568834	-0.382020	0.000011
C106	C	1.068834	0.117980	0.500011
C107	C	0.568123	-0.441416	0.000002
C108	C	1.068123	0.058584	0.500002
C109	C	0.619687	-0.478189	0.000006
C110	C	1.119687	0.021811	0.500006
C111	C	0.671963	-0.455566	0.000017
C112	C	1.171963	0.044434	0.500017
C113	C	0.776521	-0.410323	0.000024
C114	C	1.276521	0.089677	0.500024
C115	C	0.775805	-0.469726	0.000003
C116	C	1.275805	0.030274	0.500003
C117	C	0.723525	-0.492348	-0.000007
C118	C	1.223525	0.007652	0.499993
C119	C	0.722816	-0.551735	0.000012
C120	C	1.222816	-0.051735	0.500012
N121	N	0.670539	-0.574361	-0.000012
N122	N	1.170539	-0.074361	0.499988
C123	C	0.618975	-0.537588	-0.000015
C124	C	1.118975	-0.037588	0.499985
C125	C	0.727157	-0.189405	0.000096
C126	C	1.227157	0.310595	0.500096
C127	C	0.727870	-0.130007	0.000127
C128	C	1.227870	0.369993	0.500127
C129	C	0.624025	-0.115860	0.000101
C130	C	1.124025	0.384140	0.500101
C131	C	0.623313	-0.175259	0.000081
C132	C	1.123313	0.324741	0.500081
C133	C	0.674881	-0.212031	0.000072
C134	C	1.174881	0.287969	0.500072
C135	C	0.617485	-0.662325	-0.000031
C136	C	1.117485	-0.162325	0.499969
C137	C	0.616779	-0.721727	-0.000033
C138	C	1.116779	-0.221727	0.499967
C139	C	0.720623	-0.735869	-0.000015
C140	C	1.220623	-0.235869	0.499985
C141	C	0.721330	-0.676472	-0.000005
C142	C	1.221330	-0.176472	0.499995
C143	C	0.669757	-0.639701	-0.000018
C144	C	1.169757	-0.139701	0.499982
O145	O	0.766579	-0.588514	0.000057
O146	O	1.266579	-0.088514	0.500057
O147	O	0.574452	-0.562296	-0.000053
O148	O	1.074452	-0.062296	0.499947
C149	C	0.776472	0.069389	0.000061
C150	C	1.276472	0.569389	0.500061
C151	C	0.839689	0.070155	0.000060
C152	C	1.339689	0.570155	0.500060
C153	C	0.667577	0.178283	-0.000000
C154	C	1.167577	0.678283	0.500000
C155	C	0.668343	0.241500	-0.000030
C156	C	1.168343	0.741500	0.499970
N157	N	0.672319	0.074131	0.356167
N158	N	1.172319	0.574131	0.856167
N159	N	0.672333	0.074135	-0.356069
N160	N	1.172333	0.574135	0.143931
C161	C	0.711269	0.035211	0.428116
C162	C	1.211269	0.535211	0.928116
C163	C	0.711275	0.035211	0.571999
C164	C	1.211275	0.535211	1.071999
C165	C	0.633379	0.113057	0.571972
C166	C	1.133379	0.613057	1.071972
C167	C	0.633371	0.113054	0.428091
C168	C	1.133371	0.613054	0.928091
H169	H	0.138359	-0.072637	0.000132
H170	H	0.638359	0.427363	0.500132
Cl171	Cl	0.584399	0.161984	0.337632
Cl172	Cl	1.084399	0.661984	0.837632
H173	H	0.246104	-0.071347	0.000135
H174	H	0.746104	0.428653	0.500135
Cl175	Cl	0.504001	-0.335801	0.000004
Cl176	Cl	1.004001	0.164199	0.500004
H177	H	0.575489	-0.632392	-0.000041
H178	H	1.075489	-0.132392	0.499959
Cl179	Cl	0.551051	-0.750163	-0.000043
Cl180	Cl	1.051051	-0.250163	0.499957
H181	H	-0.141954	-0.023984	0.000097
H182	H	0.358046	0.476016	0.500097
Cl183	Cl	0.760231	-0.013723	0.337704
Cl184	Cl	1.260231	0.486277	0.837704
H185	H	0.512280	-0.016150	0.000071
H186	H	1.012280	0.483850	0.500071
H187	H	0.742991	0.003518	0.630576
H188	H	1.242991	0.503518	1.130576
H189	H	0.582038	-0.085909	0.000099
H190	H	1.082038	0.414091	0.500099
H191	H	0.770441	-0.111594	0.000156
H192	H	1.270441	0.388406	0.500156
H193	H	0.601669	0.144748	0.630547
H194	H	1.101669	0.644748	1.130547
H195	H	-0.034204	-0.022699	0.000118
H196	H	0.465796	0.477301	0.500118
Cl197	Cl	0.791992	-0.235628	0.000103
Cl198	Cl	1.291992	0.264372	0.500103
Cl199	Cl	0.496613	0.195407	-0.000059
Cl200	Cl	0.996613	0.695407	0.499941
Cl201	Cl	0.394496	-0.040601	0.000094
Cl202	Cl	0.894496	0.459399	0.500094
H203	H	0.378846	0.170964	-0.000004
H204	H	0.878846	0.670964	0.499996
H205	H	0.206274	0.220904	0.000014
H206	H	0.706274	0.720904	0.500014
H207	H	0.098525	0.219610	0.000044
H208	H	0.598525	0.719610	0.500044
Cl209	Cl	-0.049843	0.188865	-0.000008
Cl210	Cl	0.450157	0.688865	0.499992
Cl211	Cl	0.840637	-0.515951	-0.000012
Cl212	Cl	1.340637	-0.015951	0.499988
H213	H	0.819093	-0.391915	0.000031
H214	H	1.319093	0.108085	0.500031
Cl215	Cl	0.787054	-0.648031	0.000057
Cl216	Cl	1.287054	-0.148031	0.500057
H217	H	-0.167631	0.164417	0.000009
H218	H	0.332369	0.664417	0.500009
H219	H	0.525551	-0.459830	-0.000017
H220	H	1.025551	0.040170	0.499983
H221	H	0.580742	-0.193674	0.000078
H222	H	1.080742	0.306326	0.500078
Cl223	Cl	0.785443	-0.782108	-0.000002
Cl224	Cl	1.285443	-0.282108	0.499998
