data_functionalizedCrystal
_audit_creation_method	'MofGen! by Chris Wilmer'
_symmetry_space_group_name_H-M	'P1'
_symmetry_Int_Tables_number	1
_symmetry_cell_setting	triclinic
loop_
_symmetry_equiv_pos_as_xyz
  x,y,z
_cell_length_a	12.759401
_cell_length_b	16.120444
_cell_length_c	12.759393
_cell_angle_alpha	87.136376
_cell_angle_beta	90.019684
_cell_angle_gamma	92.925610
loop_
_atom_site_label
_atom_site_type_symbol
_atom_site_fract_x
_atom_site_fract_y
_atom_site_fract_z
Zn1	Zn	1.584963	-0.331877	0.615185
Zn2	Zn	2.084963	0.168123	1.115185
Zn3	Zn	1.575911	-0.471315	0.448401
Zn4	Zn	2.075911	0.028685	0.948401
Zn5	Zn	1.409262	-0.331918	0.439524
Zn6	Zn	1.909262	0.168082	0.939524
Zn7	Zn	1.400312	-0.471249	0.624034
Zn8	Zn	1.900312	0.028751	1.124034
O9	O	1.492612	-0.401590	0.531786
O10	O	1.992612	0.098410	1.031786
O11	O	1.730782	-0.350385	0.593073
O12	O	2.230782	0.149615	1.093073
O13	O	1.553762	-0.452869	0.300205
O14	O	2.053762	0.047131	0.800205
O15	O	1.440103	-0.215247	0.455408
O16	O	1.940103	0.284753	0.955408
O17	O	1.724132	-0.452829	0.470537
O18	O	2.224132	0.047171	0.970537
O19	O	1.569190	-0.215217	0.584465
O20	O	2.069190	0.284783	1.084465
O21	O	1.431326	-0.350455	0.293683
O22	O	1.931326	0.149545	0.793683
O23	O	1.261054	-0.350390	0.463988
O24	O	1.761054	0.149610	0.963988
O25	O	1.424848	-0.452716	0.769879
O26	O	1.924848	0.047284	1.269879
O27	O	1.254479	-0.452756	0.599547
O28	O	1.754479	0.047244	1.099547
O29	O	1.560511	-0.350320	0.763377
O30	O	2.060511	0.149680	1.263377
O31	O	1.545083	-0.587972	0.479117
O32	O	2.045083	-0.087972	0.979117
O33	O	1.416071	-0.587923	0.608154
O34	O	1.916071	-0.087923	1.108154
C35	C	1.219646	-0.401571	0.531765
C36	C	1.719646	0.098429	1.031765
C37	C	1.102868	-0.401583	0.531782
C38	C	1.602868	0.098417	1.031782
C39	C	1.051404	-0.348211	0.461316
C40	C	1.551404	0.151789	0.961316
C41	C	0.941679	-0.348230	0.461330
C42	C	1.441679	0.151770	0.961330
C43	C	0.934891	-0.454996	0.602287
C44	C	1.434891	0.045004	1.102287
C45	C	1.044615	-0.454980	0.602266
C46	C	1.544615	0.045020	1.102266
C47	C	1.055322	-0.286568	0.379938
C48	C	1.555322	0.213432	0.879938
C49	C	0.945597	-0.286587	0.379953
C50	C	1.445597	0.213413	0.879953
C51	C	1.478652	-0.618198	0.545582
C52	C	1.978652	-0.118198	1.045582
C53	C	1.472776	-0.710863	0.551519
C54	C	1.972776	-0.210863	1.051519
C55	C	1.523350	-0.921809	0.501213
C56	C	2.023350	-0.421809	1.001213
C57	C	1.462068	-0.880519	0.562369
C58	C	1.962068	-0.380519	1.062369
C59	C	1.468028	-0.786114	0.556330
C60	C	1.968028	-0.286114	1.056330
C61	C	1.517392	-1.016223	0.507251
C62	C	2.017392	-0.516223	1.007251
C63	C	1.766644	-0.401610	0.531808
C64	C	2.266644	0.098390	1.031808
C65	C	1.883420	-0.401618	0.531817
C66	C	2.383420	0.098382	1.031817
C67	C	1.492691	-0.401506	0.805814
C68	C	1.992691	0.098494	1.305814
C69	C	1.492724	-0.401470	0.922589
C70	C	1.992724	0.098530	1.422589
C71	C	1.506655	-0.184136	0.517959
C72	C	2.006655	0.315864	1.017959
C73	C	1.512639	-0.091471	0.512067
C74	C	2.012639	0.408529	1.012067
C75	C	1.492597	-0.401614	0.258820
C76	C	1.992597	0.098386	0.758820
C77	C	1.492782	-0.401415	0.142031
C78	C	1.992782	0.098585	0.642031
C79	C	1.563373	-0.348148	0.974067
C80	C	2.063373	0.151852	1.474067
C81	C	1.563400	-0.348117	1.083789
C82	C	2.063400	0.151883	1.583789
C83	C	1.422126	-0.454739	1.090545
C84	C	1.922126	0.045261	1.590545
C85	C	1.422095	-0.454765	0.980825
C86	C	1.922095	0.045235	1.480825
C87	C	1.644940	-0.286593	0.970167
C88	C	2.144940	0.213407	1.470167
C89	C	1.644967	-0.286563	1.079889
C90	C	2.144967	0.213437	1.579889
H91	H	1.083950	-0.303778	0.299622
H92	H	1.583950	0.196222	0.799622
H93	H	1.086512	-0.498449	0.659637
H94	H	1.586512	0.001551	1.159637
H95	H	1.580287	-0.886262	0.444324
H96	H	2.080287	-0.386262	0.944324
C97	C	1.509205	-0.189088	1.085720
C98	C	2.009205	0.310912	1.585720
C99	C	1.610991	-0.203743	1.120570
C100	C	2.110991	0.296257	1.620570
H101	H	1.488231	-0.137958	1.110829
H102	H	1.988231	0.362042	1.610829
H103	H	1.462314	-0.233058	1.111504
H104	H	1.962314	0.266942	1.611504
H105	H	1.508046	-0.186297	1.011188
H106	H	2.008046	0.313703	1.511188
H107	H	1.612148	-0.206541	1.195103
H108	H	2.112148	0.293459	1.695103
H109	H	1.657894	-0.159762	1.094791
H110	H	2.157894	0.340238	1.594791
H111	H	1.364562	-0.498182	0.938916
H112	H	1.864562	0.001818	1.438916
C113	C	0.810818	-0.466730	0.744351
C114	C	1.310818	0.033270	1.244351
C115	C	0.870855	-0.513682	0.679768
C116	C	1.370855	-0.013682	1.179768
H117	H	0.771291	-0.502962	0.792190
H118	H	1.271291	-0.002962	1.292190
H119	H	0.764468	-0.434956	0.702383
H120	H	1.264468	0.065044	1.202383
H121	H	0.855983	-0.430440	0.782292
H122	H	1.355983	0.069560	1.282292
H123	H	0.825688	-0.549968	0.641820
H124	H	1.325688	-0.049968	1.141820
H125	H	0.917209	-0.545471	0.721741
H126	H	1.417209	-0.045471	1.221741
H127	H	1.093307	-0.225257	0.405305
H128	H	1.593307	0.274743	0.905305
H129	H	1.405126	-0.916071	0.619262
H130	H	1.905126	-0.416071	1.119262
H131	H	1.364620	-0.498128	1.137975
H132	H	1.864620	0.001872	1.637975
C133	C	1.529775	-0.204640	0.863775
C134	C	2.029775	0.295360	1.363775
C135	C	1.621137	-0.199439	0.924423
C136	C	2.121137	0.300561	1.424423
H137	H	1.515085	-0.150836	0.835530
H138	H	2.015085	0.349164	1.335530
H139	H	1.472722	-0.226071	0.906493
H140	H	1.972722	0.273929	1.406493
H141	H	1.539566	-0.240530	0.808158
H142	H	2.039566	0.259470	1.308158
H143	H	1.611343	-0.163553	0.980045
H144	H	2.111343	0.336447	1.480045
H145	H	1.678203	-0.177996	0.881702
H146	H	2.178203	0.322004	1.381702
H147	H	0.910046	-0.309645	0.304080
H148	H	1.410046	0.190355	0.804080
H149	H	0.919974	-0.222042	0.397772
H150	H	1.419974	0.277958	0.897772
H151	H	1.720727	-0.309740	0.937609
H152	H	2.220727	0.190260	1.437609
H153	H	1.725228	-0.303857	1.110773
H154	H	2.225228	0.196143	1.610773
