data_functionalizedCrystal
_audit_creation_method	'MofGen! by Chris Wilmer'
_symmetry_space_group_name_H-M	'P1'
_symmetry_Int_Tables_number	1
_symmetry_cell_setting	triclinic
loop_
_symmetry_equiv_pos_as_xyz
  x,y,z
_cell_length_a	22.610064
_cell_length_b	10.723024
_cell_length_c	10.723024
_cell_angle_alpha	95.532131
_cell_angle_beta	89.994714
_cell_angle_gamma	89.991998
loop_
_atom_site_label
_atom_site_type_symbol
_atom_site_fract_x
_atom_site_fract_y
_atom_site_fract_z
O1	O	0.049179	-1.657197	0.175010
O2	O	0.049181	-1.294045	0.191764
O3	O	0.049178	-1.483997	0.001811
O4	O	0.049182	-1.467244	0.364963
O5	O	-0.049191	-1.483964	0.001839
O6	O	-0.049188	-1.294011	0.191791
O7	O	-0.049190	-1.657163	0.175038
Zn8	Zn	-0.064807	-1.475582	0.183419
Zn9	Zn	0.064798	-1.475626	0.183383
O10	O	-0.049187	-1.467211	0.364991
C11	C	-0.000003	-1.247528	0.190558
C12	C	-0.000003	-1.108974	0.186911
N13	N	-0.153260	-1.475561	0.183443
C14	C	-0.000006	-1.482762	-0.044675
C15	C	-0.000004	-1.479114	-0.183229
C16	C	-0.561903	-1.559741	0.099285
C17	C	-0.623823	-1.559747	0.099276
O18	O	-0.655842	-1.631268	0.027739
N19	N	-0.654797	-1.475625	0.183357
C20	C	-0.623848	-1.391482	0.267444
O21	O	-0.655880	-1.319929	0.338960
C22	C	-0.561930	-1.391471	0.267446
C23	C	-0.530958	-1.475607	0.183368
C24	C	-0.530931	-1.643870	0.015212
C25	C	-0.469016	-1.643865	0.015223
C26	C	-0.438071	-1.559731	0.099306
C27	C	-0.469043	-1.475602	0.183379
C28	C	-0.530982	-1.307323	0.351526
C29	C	-0.469059	-1.307318	0.351520
C30	C	-0.438088	-1.391455	0.267442
C31	C	-0.376183	-1.391463	0.267473
N32	N	-0.345208	-1.475586	0.183391
C33	C	-0.376153	-1.559720	0.099308
C34	C	-0.753882	-1.391511	0.267432
C35	C	-0.815800	-1.391527	0.267437
C36	C	-0.815770	-1.559791	0.099267
C37	C	-0.753851	-1.559780	0.099269
C38	C	-0.722907	-1.475633	0.183351
C39	C	-0.246125	-1.559704	0.099338
C40	C	-0.184204	-1.559695	0.099360
C41	C	-0.184240	-1.391427	0.267525
C42	C	-0.246155	-1.391439	0.267508
C43	C	-0.277097	-1.475583	0.183405
O44	O	-0.344123	-1.319976	0.338969
O45	O	-0.344113	-1.631250	0.027793
N46	N	0.153251	-1.475657	0.183349
C47	C	-0.000004	-1.703680	0.176243
C48	C	-0.000001	-1.842234	0.179891
C49	C	-0.000001	-1.033991	0.293198
C50	C	-0.000000	-0.890788	0.289431
C51	C	-0.000004	-1.585401	-0.258212
C52	C	-0.000002	-1.581634	-0.401415
C53	C	-0.000002	-1.468447	0.411477
C54	C	0.000000	-1.472094	0.550031
H55	H	-0.158989	-1.628213	0.030894
C56	C	-0.000001	-1.349160	-0.362948
H57	H	-0.000003	-1.279948	-0.411988
H58	H	0.034301	-1.345852	-0.311590
H59	H	-0.034310	-1.345830	-0.311587
C60	C	0.000002	-1.704559	-0.488449
H61	H	0.000008	-1.685901	-0.573279
H62	H	-0.034300	-1.751801	-0.472884
H63	H	0.034311	-1.751809	-0.472891
C64	C	0.000004	-0.803760	0.412360
H65	H	0.000010	-0.852799	0.481572
H66	H	-0.034297	-0.752382	0.415692
H67	H	0.034314	-0.752418	0.415665
C68	C	-0.000000	-0.929255	0.056957
H69	H	0.000004	-0.880215	-0.012255
H70	H	-0.034302	-0.980610	0.053643
H71	H	0.034309	-0.980620	0.053633
H72	H	0.000011	-1.067152	0.093125
H73	H	-0.271311	-1.628219	0.030852
C74	C	0.000001	-1.090477	0.419900
H75	H	0.000005	-1.179316	0.405810
H76	H	-0.034300	-1.063474	0.466040
H77	H	0.034311	-1.063500	0.466011
H78	H	-0.000008	-1.679187	-0.216390
H79	H	-0.443803	-1.712373	-0.053244
H80	H	0.000000	-1.385328	-0.225051
C81	C	-0.435025	-1.214760	0.444019
H82	H	-0.462342	-1.164667	0.494093
H83	H	-0.410870	-1.162431	0.398660
H84	H	-0.410873	-1.260094	0.496391
C85	C	-0.564961	-1.736432	-0.077281
H86	H	-0.537639	-1.786532	-0.127336
H87	H	-0.589120	-1.691126	-0.129653
H88	H	-0.589108	-1.788772	-0.031905
H89	H	-0.728691	-1.322992	0.335912
H90	H	-0.271373	-1.322940	0.335985
C91	C	-0.849816	-1.652326	0.006763
H92	H	-0.891128	-1.640265	0.018800
H93	H	-0.839667	-1.735727	0.021065
H94	H	-0.839666	-1.638048	-0.076649
C95	C	-0.719788	-1.652320	0.006775
H96	H	-0.747091	-1.702419	-0.043303
H97	H	-0.695627	-1.704645	0.052133
H98	H	-0.695639	-1.606978	-0.045594
H99	H	-0.159035	-1.322929	0.335989
C100	C	-0.565037	-1.214782	0.444024
H101	H	-0.537731	-1.164676	0.494087
H102	H	-0.589188	-1.260113	0.496387
H103	H	-0.589195	-1.162444	0.398662
C104	C	-0.849861	-1.298978	0.359924
H105	H	-0.822558	-1.248867	0.409989
H106	H	-0.874019	-1.344295	0.412286
H107	H	-0.874013	-1.246647	0.314541
