data_functionalizedCrystal
_audit_creation_method	'MofGen! by Chris Wilmer'
_symmetry_space_group_name_H-M	'P1'
_symmetry_Int_Tables_number	1
_symmetry_cell_setting	triclinic
loop_
_symmetry_equiv_pos_as_xyz
  x,y,z
_cell_length_a	10.489741
_cell_length_b	10.654541
_cell_length_c	9.130307
_cell_angle_alpha	90.003083
_cell_angle_beta	90.001169
_cell_angle_gamma	95.488449
loop_
_atom_site_label
_atom_site_type_symbol
_atom_site_fract_x
_atom_site_fract_y
_atom_site_fract_z
O1	O	1.693961	-0.177190	-0.121708
O2	O	1.322757	-0.193823	-0.121731
O3	O	1.516896	-0.002771	-0.121710
O4	O	1.499823	-0.368242	-0.121729
O5	O	1.516889	-0.002769	0.121889
O6	O	1.322751	-0.193821	0.121868
O7	O	1.693955	-0.177188	0.121891
Cu8	Cu	1.508352	-0.185504	0.144122
Cu9	Cu	1.508360	-0.185507	-0.143962
O10	O	1.499817	-0.368240	0.121870
C11	C	1.275223	-0.192565	0.000066
C12	C	1.133596	-0.188807	0.000057
C13	C	1.515640	0.044029	0.000088
C14	C	1.511891	0.183474	0.000086
N15	N	1.508356	-0.185502	0.346745
C16	C	1.065515	-0.067247	0.000077
C17	C	0.973363	-0.124672	-0.120030
C18	C	0.973391	-0.124699	0.120140
C19	C	1.043309	-0.246282	-0.120149
C20	C	1.043346	-0.246292	0.120129
C21	C	0.951222	-0.303806	-0.000008
C22	C	1.741489	-0.178446	0.000091
C23	C	1.883117	-0.182204	0.000090
C24	C	1.501073	-0.415040	0.000068
C25	C	1.504821	-0.554485	0.000061
C26	C	1.744036	0.211336	0.000119
C27	C	1.858342	0.290777	0.000138
C28	C	1.854812	0.421796	0.000133
C29	C	1.736963	0.473377	0.000105
C30	C	1.622657	0.393936	0.000085
C31	C	1.626200	0.262915	0.000095
C32	C	1.390515	0.366074	0.000042
C33	C	1.394042	0.235054	0.000057
C34	C	1.272666	0.417655	0.000014
C35	C	1.158358	0.338214	0.000005
C36	C	1.161893	0.207187	0.000011
C37	C	1.279736	0.155614	0.000038
N38	N	1.508366	-0.185499	-0.346585
C39	C	1.680337	-0.016376	0.346753
C40	C	1.766335	0.068184	0.423424
C41	C	1.766348	0.068185	0.576758
C42	C	1.680350	-0.016381	0.653424
C43	C	1.594352	-0.100940	0.576753
C44	C	1.594351	-0.100934	0.423416
C45	C	1.422367	-0.270059	0.576744
C46	C	1.422359	-0.270068	0.423411
C47	C	1.336370	-0.354624	0.653410
C48	C	1.250375	-0.439192	0.576739
C49	C	1.250367	-0.439190	0.423397
C50	C	1.336360	-0.354627	0.346740
H51	H	1.115254	0.032684	-0.000068
H52	H	0.942377	-0.073237	-0.221568
F53	F	0.886552	-0.434558	-0.000096
F54	F	1.158827	-0.529186	0.341810
F55	F	1.083893	-0.313466	0.252853
H56	H	1.734099	0.580061	0.000083
F57	F	1.032949	0.393117	-0.000041
H58	H	1.180356	-0.508033	0.639170
H59	H	1.269800	0.524339	0.000001
F60	F	1.336364	-0.354623	0.183548
H61	H	1.746922	0.104654	0.000142
F62	F	1.336377	-0.354617	0.816602
F63	F	1.857871	0.158188	0.658357
H64	H	1.947890	0.486478	0.000137
F65	F	1.083568	-0.313460	-0.253022
H66	H	1.068810	0.142512	-0.000011
F67	F	1.680346	-0.016382	0.183562
F68	F	0.932932	-0.057443	0.252864
F69	F	1.283508	0.016172	0.000055
F70	F	1.680352	-0.016363	0.816615
H71	H	1.954292	0.248765	0.000174
H72	H	1.836352	0.137039	0.360989
