data_functionalizedCrystal
_audit_creation_method	'MofGen! by Chris Wilmer'
_symmetry_space_group_name_H-M	'P1'
_symmetry_Int_Tables_number	1
_symmetry_cell_setting	triclinic
loop_
_symmetry_equiv_pos_as_xyz
  x,y,z
_cell_length_a	17.000371
_cell_length_b	17.038272
_cell_length_c	16.098571
_cell_angle_alpha	87.133130
_cell_angle_beta	86.758802
_cell_angle_gamma	83.355402
loop_
_atom_site_label
_atom_site_type_symbol
_atom_site_fract_x
_atom_site_fract_y
_atom_site_fract_z
O1	O	1.054623	0.025154	0.069260
O2	O	0.824802	0.053399	0.069261
O3	O	0.938347	-0.074445	0.069254
O4	O	0.941078	0.152998	0.069267
O5	O	0.945094	-0.068671	-0.069258
O6	O	0.831549	0.059173	-0.069251
O7	O	1.061369	0.030928	-0.069252
Zn8	Zn	0.947530	0.045967	-0.091243
Zn9	Zn	0.938641	0.038360	0.091252
O10	O	0.947825	0.158772	-0.069245
C11	C	0.798625	0.057803	0.000005
C12	C	0.710572	0.062314	0.000005
C13	C	0.673845	-0.007108	-0.000000
C14	C	0.591110	-0.002864	0.000006
C15	C	0.545101	0.070801	0.000012
C16	C	0.581833	0.140228	0.000020
C17	C	0.664567	0.135984	0.000019
C18	C	0.295065	0.087195	0.000018
C19	C	0.212326	0.091434	0.000016
C20	C	0.221608	-0.051659	0.000004
C21	C	0.304344	-0.055897	-0.000001
C22	C	0.341068	0.013530	0.000011
C23	C	0.460532	0.075140	0.000016
C24	C	0.425635	0.009190	0.000013
C25	C	0.939236	-0.100516	-0.000002
C26	C	0.931823	-0.186802	-0.000002
C27	C	0.999881	-0.241577	-0.000003
C28	C	0.992911	-0.322651	0.000005
C29	C	0.917882	-0.348947	0.000008
C30	C	0.849818	-0.294165	0.000012
C31	C	0.856789	-0.213093	0.000010
C32	C	0.893255	-0.593018	0.000020
C33	C	0.886290	-0.674097	0.000019
C34	C	1.029384	-0.702577	0.000014
C35	C	1.036348	-0.621503	0.000007
C36	C	0.968284	-0.566728	0.000015
C37	C	0.910755	-0.431816	0.000013
C38	C	0.975411	-0.483860	0.000015
C39	C	1.087547	0.026524	0.000005
C40	C	1.175600	0.022012	0.000011
C41	C	0.946936	0.184843	0.000013
C42	C	0.954348	0.271128	0.000018
N43	N	0.953602	0.051158	-0.215791
C44	C	0.981695	0.075269	-0.740606
C45	C	0.977451	0.071632	-0.653418
C46	C	0.924090	0.025883	-0.609825
C47	C	0.874965	-0.016225	-0.653425
C48	C	0.879205	-0.012583	-0.740612
C49	C	0.908718	0.012692	-0.346578
C50	C	0.904483	0.009051	-0.259385
C51	C	1.006968	0.096910	-0.259384
C52	C	1.011208	0.100544	-0.346572
C53	C	0.962079	0.058439	-0.390165
C54	C	0.919752	0.022162	-0.520705
C55	C	0.966414	0.062165	-0.479284
N56	N	0.932575	0.033162	0.215800
H57	H	0.694468	0.192514	0.000020
Br58	Br	0.736278	-0.107087	-0.000017
Br59	Br	0.541269	-0.097085	0.000028
Br60	Br	0.784458	-0.709783	0.000015
H61	H	0.463098	-0.050789	0.000013
Br62	Br	0.366779	-0.155875	-0.000019
Br63	Br	0.842042	-0.044449	-0.405728
H64	H	0.191698	-0.108183	0.000003
H65	H	0.174868	0.151425	0.000017
H66	H	1.046964	0.131190	-0.223882
H67	H	0.544366	0.200208	0.000030
Br68	Br	0.398086	0.175112	0.000028
Br69	Br	0.832088	-0.053072	-0.200223
Br70	Br	1.101712	-0.205898	-0.000020
H71	H	0.324955	0.143726	0.000034
Br72	Br	0.802539	-0.078307	-0.594264
Br73	Br	1.085281	-0.396987	0.000003
H74	H	1.097444	-0.600099	0.000004
Br75	Br	1.121751	-0.776917	0.000003
Br76	Br	0.800882	-0.518692	0.000036
Br77	Br	0.747991	-0.329852	0.000030
Br78	Br	1.054123	0.137352	-0.799760
Br79	Br	1.044087	0.128813	-0.594258
Br80	Br	1.083628	0.162634	-0.405728
H81	H	0.801368	-0.168494	0.000011
Br82	Br	0.812535	-0.069725	-0.799776
H83	H	1.036498	-0.462447	0.000031
H84	H	0.849666	-0.453236	0.000014
H85	H	1.009856	0.099418	-0.514781
H86	H	0.876307	-0.015089	-0.485202
