data_functionalizedCrystal
_audit_creation_method	'MofGen! by Chris Wilmer'
_symmetry_space_group_name_H-M	'P1'
_symmetry_Int_Tables_number	1
_symmetry_cell_setting	triclinic
loop_
_symmetry_equiv_pos_as_xyz
  x,y,z
_cell_length_a	16.956995
_cell_length_b	15.944551
_cell_length_c	16.053802
_cell_angle_alpha	92.564789
_cell_angle_beta	87.607939
_cell_angle_gamma	79.776605
loop_
_atom_site_label
_atom_site_type_symbol
_atom_site_fract_x
_atom_site_fract_y
_atom_site_fract_z
O1	O	1.061405	0.031039	-0.069487
O2	O	0.829249	0.060528	-0.069477
O3	O	0.951667	-0.076932	-0.069475
O4	O	0.938988	0.168498	-0.069489
O5	O	0.944929	-0.069395	0.069384
O6	O	0.822511	0.068065	0.069382
O7	O	1.054667	0.038576	0.069372
Zn8	Zn	0.937519	0.054517	0.091424
Zn9	Zn	0.946397	0.044587	-0.091529
O10	O	0.932250	0.176035	0.069369
C11	C	0.796172	0.065806	-0.000046
C12	C	0.707652	0.070295	-0.000042
C13	C	0.208355	0.103874	-0.000075
C14	C	0.291530	0.099649	-0.000074
C15	C	0.342613	0.020360	-0.000063
C16	C	0.310519	-0.054712	-0.000061
C17	C	0.227345	-0.050487	-0.000068
C18	C	0.592384	-0.000552	-0.000047
C19	C	0.675562	-0.004770	-0.000038
C20	C	0.656568	0.149591	-0.000052
C21	C	0.573393	0.153809	-0.000054
C22	C	0.541306	0.078738	-0.000057
N23	N	0.427632	0.016040	-0.000059
N24	N	0.456290	0.083058	-0.000066
C25	C	0.947771	-0.104420	-0.000045
C26	C	0.946193	-0.197557	-0.000045
C27	C	0.866542	-0.406879	-0.000053
C28	C	0.900207	-0.466751	0.068411
C29	C	0.943339	-0.368085	-0.000051
C30	C	0.906868	-0.474166	-0.068492
C31	C	0.940576	-0.532806	-0.000061
C32	C	0.977022	-0.426726	0.068470
C33	C	0.983676	-0.434138	-0.068496
C34	C	1.017397	-0.493995	-0.000015
C35	C	0.944928	-0.273193	-0.000045
C36	C	0.938992	-0.627697	-0.000061
C37	C	1.087744	0.033298	-0.000061
C38	C	1.176265	0.028808	-0.000071
C39	C	0.936145	0.203524	-0.000062
C40	C	0.937724	0.296660	-0.000068
N41	N	0.931466	0.061293	0.216284
N42	N	0.952457	0.037803	-0.216389
C43	C	0.983574	0.002822	0.259979
C44	C	0.979347	0.007570	0.347385
C45	C	0.923016	0.070792	0.391096
C46	C	0.870903	0.129266	0.347395
C47	C	0.875126	0.124514	0.259990
C48	C	0.904567	0.091525	0.652505
C49	C	0.900349	0.096274	0.739916
C50	C	1.008793	-0.025424	0.739901
C51	C	1.013015	-0.030167	0.652494
C52	C	0.960899	0.028304	0.608801
N53	N	0.918696	0.075648	0.480439
N54	N	0.965216	0.023444	0.519459
H55	H	0.682702	0.210710	-0.000051
H56	H	0.854475	0.147762	0.775501
C57	C	1.031315	-0.414230	-0.146699
N58	N	1.067190	-0.399233	-0.205609
H59	H	1.081196	-0.531585	0.000021
H60	H	1.006665	-0.405846	0.126414
H61	H	1.051223	-0.073029	0.775484
H62	H	0.825032	0.180741	0.382989
H63	H	0.862133	0.139136	0.616937
H64	H	0.877185	-0.495127	-0.126377
H65	H	0.832694	0.172126	0.224414
H66	H	0.166767	0.168441	-0.000078
H67	H	1.029448	-0.048657	0.224395
C68	C	0.366713	-0.141931	-0.000044
N69	N	0.409038	-0.207627	-0.000025
H70	H	1.021777	-0.040042	0.382961
H71	H	0.717154	-0.069341	-0.000033
H72	H	1.058884	-0.081648	0.616907
H73	H	0.201220	-0.111613	-0.000067
H74	H	0.566269	-0.061680	-0.000047
H75	H	0.317653	0.160775	-0.000085
H76	H	0.531806	0.218375	-0.000065
H77	H	0.802793	-0.369138	0.000019
C78	C	0.852530	-0.486627	0.146608
N79	N	0.816615	-0.501596	0.205502
