data_functionalizedCrystal
_audit_creation_method	'MofGen! by Chris Wilmer'
_symmetry_space_group_name_H-M	'P1'
_symmetry_Int_Tables_number	1
_symmetry_cell_setting	triclinic
loop_
_symmetry_equiv_pos_as_xyz
  x,y,z
_cell_length_a	16.120530
_cell_length_b	16.120444
_cell_length_c	12.759393
_cell_angle_alpha	87.135249
_cell_angle_beta	92.920001
_cell_angle_gamma	90.168401
loop_
_atom_site_label
_atom_site_type_symbol
_atom_site_fract_x
_atom_site_fract_y
_atom_site_fract_z
Zn1	Zn	1.254497	-0.395559	0.699373
Zn2	Zn	1.754497	0.104441	1.199373
Zn3	Zn	1.247331	-0.534631	0.532107
Zn4	Zn	1.747331	-0.034631	1.032107
Zn5	Zn	1.115429	-0.388539	0.514379
Zn6	Zn	1.615429	0.111461	1.014379
Zn7	Zn	1.108347	-0.527513	0.698414
Zn8	Zn	1.608347	-0.027513	1.198414
O9	O	1.181401	-0.461561	0.611068
O10	O	1.681401	0.038439	1.111068
O11	O	1.369912	-0.419924	0.685006
O12	O	1.869912	0.080076	1.185006
O13	O	1.229798	-0.515293	0.382735
O14	O	1.729798	-0.015293	0.882735
O15	O	1.139840	-0.273107	0.531901
O16	O	1.639840	0.226893	1.031901
O17	O	1.364647	-0.522100	0.562116
O18	O	1.864647	-0.022100	1.062116
O19	O	1.242013	-0.278265	0.667815
O20	O	1.742013	0.221735	1.167815
O21	O	1.132890	-0.407960	0.369710
O22	O	1.632890	0.092040	0.869710
O23	O	0.998124	-0.401057	0.530971
O24	O	1.498124	0.098943	1.030971
O25	O	1.127770	-0.509968	0.845562
O26	O	1.627770	-0.009968	1.345562
O27	O	0.992921	-0.503161	0.666181
O28	O	1.492921	-0.003161	1.166181
O29	O	1.235146	-0.413022	0.846267
O30	O	1.735146	0.086978	1.346267
O31	O	1.222931	-0.650050	0.561186
O32	O	1.722931	-0.150050	1.061186
O33	O	1.120821	-0.644820	0.683371
O34	O	1.620821	-0.144820	1.183371
C35	C	0.965350	-0.450575	0.596548
C36	C	1.465350	0.049425	1.096548
C37	C	0.872921	-0.445896	0.590363
C38	C	1.372921	0.054104	1.090363
C39	C	1.170352	-0.677608	0.624123
C40	C	1.670352	-0.177608	1.124123
C41	C	1.165702	-0.770037	0.629748
C42	C	1.665702	-0.270037	1.129748
C43	C	0.703694	-0.437333	0.579077
C44	C	1.203694	0.062667	1.079077
C45	C	0.659946	-0.485849	0.643140
C46	C	1.159946	0.014151	1.143140
C47	C	0.565782	-0.481085	0.636860
C48	C	1.065782	0.018915	1.136860
C49	C	0.797866	-0.442096	0.585355
C50	C	1.297866	0.057904	1.085355
C51	C	1.205730	-0.983014	0.582129
C52	C	1.705730	-0.483014	1.082129
C53	C	1.157226	-0.939263	0.640029
C54	C	1.657226	-0.439263	1.140029
C55	C	1.161943	-0.845097	0.634307
C56	C	1.661943	-0.345097	1.134307
C57	C	1.201014	-1.077189	0.587850
C58	C	1.701014	-0.577189	1.087850
C59	C	1.398296	-0.472589	0.625646
C60	C	1.898296	0.027411	1.125646
C61	C	1.490723	-0.477289	0.631858
C62	C	1.990723	0.022711	1.131858
C63	C	1.181467	-0.461484	0.885101
C64	C	1.681467	0.038516	1.385101
C65	C	1.181496	-0.461451	1.001878
C66	C	1.681496	0.038549	1.501878
C67	C	1.192516	-0.244671	0.597988
C68	C	1.692516	0.255329	1.097988
C69	C	1.197252	-0.152245	0.592413
C70	C	1.697252	0.347755	1.092413
C71	C	1.181386	-0.461579	0.338101
C72	C	1.681386	0.038421	0.838101
C73	C	1.181531	-0.461386	0.221322
C74	C	1.681531	0.038614	0.721322
C75	C	1.237411	-0.410963	1.057108
C76	C	1.737411	0.089037	1.557108
C77	C	1.237427	-0.410928	1.166831
C78	C	1.737427	0.089072	1.666831
C79	C	1.125610	-0.511876	1.166084
C80	C	1.625610	-0.011876	1.666084
C81	C	1.125590	-0.511906	1.056362
C82	C	1.625590	-0.011906	1.556362
H83	H	0.693211	-0.530962	0.702702
H84	H	1.193211	-0.030962	1.202702
Br85	Br	0.648252	-0.362144	0.479810
Br86	Br	1.148252	0.137856	0.979810
Br87	Br	1.280842	-0.927574	0.492348
Br88	Br	1.780842	-0.427574	0.992348
H89	H	1.282930	-0.369877	1.012750
H90	H	1.782930	0.130123	1.512750
Br91	Br	1.313320	-0.342412	1.241784
Br92	Br	1.813320	0.157588	1.741784
H93	H	1.112158	-0.972528	0.693897
H94	H	1.612158	-0.472528	1.193897
Br95	Br	1.049693	-0.580423	0.981399
Br96	Br	1.549693	-0.080423	1.481399
H97	H	1.080095	-0.552956	1.210459
H98	H	1.580095	-0.052956	1.710459
