data_functionalizedCrystal
_audit_creation_method	'MofGen! by Chris Wilmer'
_symmetry_space_group_name_H-M	'P1'
_symmetry_Int_Tables_number	1
_symmetry_cell_setting	triclinic
loop_
_symmetry_equiv_pos_as_xyz
  x,y,z
_cell_length_a	17.699083
_cell_length_b	23.532407
_cell_length_c	16.176319
_cell_angle_alpha	89.988536
_cell_angle_beta	89.998611
_cell_angle_gamma	83.065847
loop_
_atom_site_label
_atom_site_type_symbol
_atom_site_fract_x
_atom_site_fract_y
_atom_site_fract_z
O1	O	1.003713	0.072020	-0.068639
O2	O	0.783287	0.081390	-0.068667
O3	O	0.900147	-0.006208	-0.068637
O4	O	0.886853	0.159618	-0.068669
O5	O	0.900131	-0.006213	0.068856
O6	O	0.783271	0.081384	0.068826
O7	O	1.003697	0.072014	0.068854
Cu8	Cu	0.893483	0.076699	0.081394
Cu9	Cu	0.893502	0.076705	-0.081207
O10	O	0.886837	0.159612	0.068824
C11	C	0.755084	0.081051	0.000076
C12	C	0.671071	0.080044	0.000066
C13	C	0.622189	0.131462	0.000056
C14	C	0.543251	0.130512	0.000067
C15	C	0.513196	0.078144	0.000082
C16	C	0.562084	0.026722	0.000094
C17	C	0.641021	0.027672	0.000089
C18	C	0.243740	0.022888	0.000115
C19	C	0.164797	0.021942	0.000117
C20	C	0.145970	0.125728	0.000093
C21	C	0.224907	0.126678	0.000088
C22	C	0.273788	0.075257	0.000105
C23	C	0.359382	0.076287	0.000094
C24	C	0.427603	0.077113	0.000086
C25	C	0.899801	-0.027427	0.000111
C26	C	0.898783	-0.090647	0.000118
C27	C	0.961554	-0.489570	0.000080
C28	C	0.960609	-0.548973	0.000074
O29	O	1.018799	-0.585550	0.000051
N30	N	0.891136	-0.571799	0.000066
C31	C	0.822604	-0.535218	0.000055
O32	O	0.763424	-0.560088	0.000047
C33	C	0.823550	-0.475816	0.000056
C34	C	0.893028	-0.452994	0.000073
C35	C	1.031026	-0.466747	0.000096
C36	C	1.031972	-0.407348	0.000104
C37	C	0.963445	-0.370772	0.000096
C38	C	0.893973	-0.393595	0.000080
C39	C	0.755019	-0.439237	0.000040
C40	C	0.755971	-0.379832	0.000039
C41	C	0.825448	-0.357009	0.000056
C42	C	0.826391	-0.297620	0.000081
N43	N	0.895864	-0.274795	0.000089
C44	C	0.964391	-0.311371	0.000097
C45	C	0.820622	-0.659966	0.000053
C46	C	0.819674	-0.719367	0.000058
C47	C	0.957680	-0.733118	0.000075
C48	C	0.958626	-0.673716	0.000076
C49	C	0.890095	-0.637141	0.000061
C50	C	0.966371	-0.186628	0.000114
C51	C	0.967310	-0.127223	0.000125
C52	C	0.829305	-0.113478	0.000104
C53	C	0.828365	-0.172877	0.000097
C54	C	0.896904	-0.209452	0.000099
O55	O	0.768232	-0.261008	0.000100
O56	O	1.023560	-0.286493	0.000094
C57	C	1.031901	0.072353	0.000109
C58	C	1.115914	0.073360	0.000114
C59	C	0.887184	0.180832	0.000073
C60	C	0.888202	0.244052	0.000062
N61	N	0.893475	0.076694	0.195759
N62	N	0.893516	0.076706	-0.195573
C63	C	0.945236	0.037921	0.239037
C64	C	0.945240	0.037921	0.325584
C65	C	0.893486	0.076696	0.368852
C66	C	0.841719	0.115470	0.325568
C67	C	0.841713	0.115467	0.239023
C68	C	0.841745	0.115481	0.674597
C69	C	0.841758	0.115481	0.761148
C70	C	0.945273	0.037934	0.761158
C71	C	0.945266	0.037932	0.674612
C72	C	0.893497	0.076704	0.631336
C73	C	0.893493	0.076703	0.537492
C74	C	0.893493	0.076700	0.462695
H75	H	1.023889	-0.108645	0.000141
N76	N	0.744739	-0.743979	0.000063
H77	H	0.701475	-0.711790	0.000062
H78	H	0.741337	-0.768318	-0.050908
H79	H	0.764811	-0.630189	0.000048
N80	N	0.785907	0.157299	0.627937
H81	H	0.794317	0.197712	0.642984
H82	H	0.793771	0.151369	0.566559
H83	H	1.086833	-0.496522	0.000099
N84	N	1.001052	-0.003898	0.192362
H85	H	1.054720	0.002607	0.207410
H86	H	0.992576	-0.044292	0.207454
H87	H	1.013478	-0.762909	0.000079
H88	H	0.140330	-0.020705	0.000130
N89	N	0.654600	0.187947	0.000046
H90	H	0.712024	0.180749	0.000043
H91	H	0.636687	0.210445	-0.050927
H92	H	0.106161	0.167598	0.000084
N93	N	0.682046	-0.340390	0.000038
H94	H	0.679355	-0.315450	0.051012
H95	H	0.679401	-0.315463	-0.050959
H96	H	0.799563	0.147039	0.203787
N97	N	0.529672	-0.029762	0.000123
H98	H	0.472248	-0.022563	0.000124
H99	H	0.547580	-0.052259	-0.050841
N100	N	1.040293	-0.226071	0.000117
H101	H	1.084441	-0.202591	0.000130
H102	H	1.042903	-0.251025	0.051086
H103	H	1.088547	-0.388773	0.000114
H104	H	0.987387	0.006349	0.360820
N105	N	1.001085	-0.003895	0.627954
H106	H	0.972349	-0.029084	0.592061
H107	H	1.034417	0.017872	0.592079
H108	H	0.799576	0.147040	0.360802
N109	N	1.033562	-0.649103	0.000094
H110	H	1.076826	-0.681292	0.000102
H111	H	1.036972	-0.624751	-0.050876
N112	N	0.755396	-0.074023	0.000118
H113	H	0.766544	-0.032930	0.000128
H114	H	0.725096	-0.081386	-0.050854
N115	N	1.001110	-0.003887	0.807834
H116	H	0.993263	0.001995	0.869226
H117	H	0.992677	-0.044282	0.792719
H118	H	0.698442	-0.457808	0.000021
N119	N	0.785930	0.157301	0.807819
H120	H	0.753131	0.181861	0.767272
H121	H	0.752649	0.135523	0.843740
H122	H	0.680820	-0.014197	0.000096
N123	N	0.490561	0.185986	0.000125
H124	H	0.500169	0.208864	-0.050830
H125	H	0.436004	0.177421	0.000189
N126	N	0.257324	0.183161	0.000061
H127	H	0.214378	0.215591	0.000056
H128	H	0.289669	0.185815	0.051027
N129	N	0.296447	-0.032575	0.000133
H130	H	0.286823	-0.055425	-0.050830
H131	H	0.350995	-0.023989	0.000164
N132	N	0.753431	-0.197497	0.000090
H133	H	0.710164	-0.165310	0.000090
H134	H	0.750039	-0.221831	-0.050887
