data_functionalizedCrystal
_audit_creation_method	'MofGen! by Chris Wilmer'
_symmetry_space_group_name_H-M	'P1'
_symmetry_Int_Tables_number	1
_symmetry_cell_setting	triclinic
loop_
_symmetry_equiv_pos_as_xyz
  x,y,z
_cell_length_a	13.339071
_cell_length_b	19.188930
_cell_length_c	12.376492
_cell_angle_alpha	101.232892
_cell_angle_beta	75.589997
_cell_angle_gamma	99.387029
loop_
_atom_site_label
_atom_site_type_symbol
_atom_site_fract_x
_atom_site_fract_y
_atom_site_fract_z
O1	O	1.360194	0.340102	-0.094077
O2	O	1.065868	0.294199	-0.094067
O3	O	1.221520	0.217160	-0.094050
O4	O	1.204542	0.417141	-0.094094
O5	O	1.182619	0.236387	0.093958
O6	O	1.026967	0.313426	0.093940
O7	O	1.321293	0.359328	0.093931
Zn8	Zn	1.167954	0.339430	0.123786
Zn9	Zn	1.219207	0.314098	-0.123922
O10	O	1.165641	0.436367	0.093914
C11	C	1.008762	0.296059	-0.000062
C12	C	0.896562	0.272946	-0.000057
C13	C	0.856179	0.200872	-0.000038
C14	C	0.750762	0.179154	-0.000039
C15	C	0.685717	0.229509	-0.000051
C16	C	0.726098	0.301585	-0.000063
C17	C	0.831527	0.323304	-0.000070
C18	C	0.661065	0.351941	-0.000084
C19	C	0.701446	0.424017	-0.000095
C20	C	0.806864	0.445733	-0.000102
C21	C	0.871910	0.395378	-0.000090
C22	C	0.555636	0.330222	-0.000076
C23	C	0.530984	0.452654	-0.000109
C24	C	0.636401	0.474372	-0.000107
C25	C	1.201519	0.200655	-0.000043
C26	C	1.199865	0.122828	-0.000033
C27	C	1.291199	0.095791	-0.000031
C28	C	1.289651	0.022661	-0.000049
C29	C	1.196760	-0.023426	-0.000047
C30	C	1.105417	0.003619	-0.000056
C31	C	1.106969	0.076746	-0.000049
N32	N	1.112518	-0.138792	0.063938
N33	N	1.111049	-0.208259	0.063934
C34	C	1.192077	-0.243755	-0.000069
N35	N	1.274643	-0.207157	-0.064055
N36	N	1.276114	-0.137683	-0.064046
C37	C	1.195067	-0.102721	-0.000055
C38	C	1.281739	-0.350088	-0.000088
C39	C	1.280189	-0.423219	-0.000113
C40	C	1.095949	-0.442260	-0.000109
C41	C	1.097505	-0.369130	-0.000095
C42	C	1.190401	-0.323048	-0.000079
C43	C	1.378399	0.357469	-0.000077
C44	C	1.490601	0.380580	-0.000089
C45	C	1.185643	0.452872	-0.000096
C46	C	1.187298	0.530698	-0.000113
N47	N	1.132983	0.356719	0.292841
C48	C	1.335357	0.256661	0.647848
C49	C	1.359828	0.244559	0.529511
C50	C	1.303118	0.272598	0.470337
C51	C	1.221934	0.312741	0.529513
C52	C	1.197466	0.324849	0.647862
C53	C	1.165228	0.340786	0.470351
C54	C	1.084044	0.380929	0.529526
C55	C	1.059579	0.393034	0.647863
C56	C	1.116289	0.364995	0.707037
C57	C	1.189696	0.328678	0.352002
C58	C	1.051805	0.396865	0.352016
C59	C	1.027334	0.408967	0.470353
N60	N	1.254179	0.296808	0.707023
H61	H	0.522769	0.271537	-0.000067
Cl62	Cl	1.406649	0.221424	0.722238
H63	H	1.029785	-0.033911	-0.000056
H64	H	1.005629	0.419699	0.303838
H65	H	1.032592	0.098758	-0.000051
H66	H	1.357382	-0.312565	-0.000081
Cl67	Cl	1.395020	-0.457210	-0.000117
Cl68	Cl	0.979173	-0.500192	-0.000112
H69	H	1.366843	0.133307	-0.000022
Cl70	Cl	1.404479	-0.011338	-0.000047
H71	H	0.993483	0.425727	0.696044
H72	H	1.023130	-0.347116	-0.000091
H73	H	0.961233	0.441653	0.518548
Cl74	Cl	0.937954	0.137578	-0.000030
Cl75	Cl	1.461881	0.194097	0.455122
Cl76	Cl	0.553191	0.202205	-0.000050
Cl77	Cl	0.700010	0.088546	-0.000050
Cl78	Cl	1.004465	0.422666	-0.000210
H79	H	1.255796	0.295993	0.303832
H80	H	0.839742	0.504421	-0.000129
H81	H	1.096362	0.374846	0.803397
Cl82	Cl	0.687180	0.564979	-0.000127
Cl83	Cl	1.333880	0.257381	0.321569
H84	H	0.478024	0.493657	-0.000119
