data_functionalizedCrystal
_audit_creation_method	'MofGen! by Chris Wilmer'
_symmetry_space_group_name_H-M	'P1'
_symmetry_Int_Tables_number	1
_symmetry_cell_setting	triclinic
loop_
_symmetry_equiv_pos_as_xyz
  x,y,z
_cell_length_a	6.817900
_cell_length_b	9.582889
_cell_length_c	14.125465
_cell_angle_alpha	93.994381
_cell_angle_beta	100.398878
_cell_angle_gamma	111.207298
loop_
_atom_site_label
_atom_site_type_symbol
_atom_site_fract_x
_atom_site_fract_y
_atom_site_fract_z
V1	V	-4.031036	-0.205771	-0.299801
V2	V	-3.531036	0.294229	0.200199
O3	O	-3.977344	0.011211	-0.294276
O4	O	-3.477344	0.511211	0.205724
O5	O	-4.022075	-0.409281	-0.297577
O6	O	-3.522075	0.090719	0.202423
O7	O	-3.966455	-0.202025	-0.430635
O8	O	-3.466455	0.297975	0.069365
O9	O	-4.033349	-0.197480	-0.160296
O10	O	-3.533349	0.302520	0.339704
V11	V	-4.511650	-0.179886	-0.283137
V12	V	-4.011650	0.320114	0.216863
O13	O	-4.298675	-0.262552	-0.336357
O14	O	-3.798675	0.237448	0.163643
O15	O	-4.694209	-0.123105	-0.246581
O16	O	-4.194209	0.376895	0.253419
O17	O	-4.297405	0.023625	-0.285361
O18	O	-3.797405	0.523625	0.214639
O19	O	-4.682739	-0.396868	-0.288662
O20	O	-4.182739	0.103132	0.211338
O21	O	-4.626734	-0.188177	-0.422641
O22	O	-4.126734	0.311823	0.077359
O23	O	-4.353025	-0.183632	-0.152303
O24	O	-3.853025	0.316368	0.347697
C25	C	-3.877194	-0.458911	-0.292802
C26	C	-3.377194	0.041089	0.207198
C27	C	-3.951047	-0.625280	-0.291855
C28	C	-3.451047	-0.125280	0.208145
C29	C	-3.806244	-0.194533	-0.462530
C30	C	-3.306244	0.305467	0.037470
C31	C	-3.834986	-0.192817	-0.569485
C32	C	-3.334986	0.307183	-0.069485
C33	C	-3.887669	-0.189671	-0.765311
C34	C	-3.387669	0.310329	-0.265311
C35	C	-4.074385	-0.195983	-0.817627
C36	C	-3.574385	0.304017	-0.317627
C37	C	-4.103701	-0.194232	-0.926591
C38	C	-3.603701	0.305768	-0.426591
C39	C	-3.858346	-0.191422	-0.656337
C40	C	-3.358346	0.308578	-0.156337
C41	C	-4.105630	0.073246	-0.290133
C42	C	-3.605630	0.573246	0.209867
C43	C	-4.011015	0.239614	-0.291086
C44	C	-3.511015	0.739614	0.208914
C45	C	-4.176580	-0.191128	-0.120403
C46	C	-3.676580	0.308872	0.379597
C47	C	-4.127074	-0.192837	-0.013447
C48	C	-3.627074	0.307163	0.486553
H49	H	-3.749846	-0.182954	-0.802355
H50	H	-3.249846	0.317046	-0.302355
H51	H	-4.212229	-0.202717	-0.780583
H52	H	-3.712229	0.297283	-0.280583
