data_functionalizedCrystal
_audit_creation_method	'MofGen! by Chris Wilmer'
_symmetry_space_group_name_H-M	'P1'
_symmetry_Int_Tables_number	1
_symmetry_cell_setting	triclinic
loop_
_symmetry_equiv_pos_as_xyz
  x,y,z
_cell_length_a	15.625110
_cell_length_b	19.188924
_cell_length_c	14.750779
_cell_angle_alpha	77.399495
_cell_angle_beta	120.099500
_cell_angle_gamma	83.719059
loop_
_atom_site_label
_atom_site_type_symbol
_atom_site_fract_x
_atom_site_fract_y
_atom_site_fract_z
O1	O	1.286341	0.021421	0.368011
O2	O	0.999243	0.051221	0.268055
O3	O	1.151084	-0.065859	0.320931
O4	O	1.134501	0.138501	0.315135
O5	O	1.194008	-0.098952	0.495529
O6	O	1.042167	0.018128	0.442653
O7	O	1.329265	-0.011673	0.542609
Zn8	Zn	1.192531	-0.002027	0.520352
Zn9	Zn	1.135977	0.041576	0.290312
O10	O	1.177424	0.105407	0.489733
C11	C	0.983975	0.036606	0.342566
C12	C	0.874530	0.042352	0.304462
C13	C	0.696876	0.068490	0.155590
C14	C	0.799718	0.063088	0.191405
C15	C	0.846521	0.027013	0.381748
C16	C	0.743679	0.032415	0.345948
C17	C	0.668864	0.053153	0.232868
C18	C	0.715668	0.017079	0.423226
C19	C	0.612836	0.022477	0.387429
C20	C	0.538016	0.043212	0.274354
C21	C	0.566032	0.058551	0.197070
C22	C	0.790486	-0.003664	0.536306
C23	C	0.762474	-0.019001	0.613584
C24	C	0.659640	-0.013598	0.577787
C25	C	0.584819	0.007137	0.464712
C26	C	0.631623	-0.028938	0.655070
C27	C	0.528791	-0.023539	0.619273
C28	C	0.481987	0.012535	0.428915
C29	C	1.172010	-0.108383	0.408044
C30	C	1.170403	-0.185787	0.407487
C31	C	1.146255	-0.204099	0.312053
C32	C	1.144728	-0.276825	0.311514
C33	C	1.167370	-0.331239	0.406422
C34	C	1.191516	-0.312920	0.501867
C35	C	1.193032	-0.240194	0.502400
N36	N	1.238512	-0.467709	0.495961
N37	N	1.237072	-0.536795	0.495449
C38	C	1.162801	-0.550359	0.404822
N39	N	1.090033	-0.492226	0.314714
N40	N	1.091477	-0.423134	0.315224
C41	C	1.165728	-0.410100	0.405855
C42	C	1.136994	-0.647527	0.308796
C43	C	1.135462	-0.720253	0.308259
C44	C	1.182261	-0.756349	0.498618
C45	C	1.183782	-0.683622	0.499149
C46	C	1.161153	-0.629215	0.404237
C47	C	1.344533	0.002943	0.468096
C48	C	1.453976	-0.002801	0.506193
C49	C	1.156497	0.147932	0.402617
C50	C	1.158103	0.225338	0.403167
N51	N	1.231134	-0.031785	0.677351
N52	N	1.097382	0.071328	0.133316
C53	C	0.989568	0.154408	0.945047
C54	C	1.016626	0.133560	1.054969
C55	C	1.151108	0.029918	1.101763
C56	C	1.124058	0.050756	0.991842
C57	C	1.043288	0.113002	0.913492
C58	C	1.177778	0.009350	0.960287
C59	C	1.150734	0.030189	0.850376
C60	C	1.069969	0.092434	0.772021
C61	C	1.016243	0.133841	0.803581
C62	C	1.258553	-0.052892	1.038640
C63	C	1.312273	-0.094298	1.007085
C64	C	1.285224	-0.073463	0.897171
C65	C	1.204459	-0.011218	0.818816
C66	C	1.338949	-0.114870	0.865611
C67	C	1.311905	-0.094031	0.755701
C68	C	1.177414	0.009621	0.708906
H69	H	0.505111	0.075447	0.104989
H70	H	0.972874	0.167284	1.080651
H71	H	0.907449	0.010125	0.473818
H72	H	1.209949	-0.357228	0.579141
H73	H	0.874216	-0.008058	0.565448
H74	H	0.823402	-0.035889	0.705655
H75	H	1.111636	0.060303	0.645106
H76	H	1.378040	-0.144978	1.070890
H77	H	1.355651	-0.127748	0.730011
H78	H	1.047953	0.109402	0.682527
H79	H	1.404720	-0.165547	0.929419
H80	H	0.692553	-0.045829	0.747141
H81	H	0.822517	0.075583	0.128467
H82	H	0.454284	0.047607	0.245209
H83	H	0.421066	0.029431	0.336833
H84	H	1.216875	-0.020762	1.165568
H85	H	0.505983	-0.036015	0.682200
H86	H	1.280573	-0.069855	1.128136
H87	H	1.118562	-0.603225	0.231510
H88	H	1.127825	-0.159804	0.234766
H89	H	0.635954	0.085385	0.063508
H90	H	1.212693	-0.225286	0.580116
H91	H	1.125057	-0.291737	0.233795
H92	H	1.115792	-0.735158	0.230539
H93	H	1.200689	-0.800651	0.575892
H94	H	1.203455	-0.668715	0.576866
H95	H	0.950465	0.184523	0.739782
H96	H	0.923790	0.205091	0.881247
