data_functionalizedCrystal
_audit_creation_method	'MofGen! by Chris Wilmer'
_symmetry_space_group_name_H-M	'P1'
_symmetry_Int_Tables_number	1
_symmetry_cell_setting	triclinic
loop_
_symmetry_equiv_pos_as_xyz
  x,y,z
_cell_length_a	13.032831
_cell_length_b	13.897448
_cell_length_c	13.032268
_cell_angle_alpha	97.148041
_cell_angle_beta	90.886977
_cell_angle_gamma	82.822399
loop_
_atom_site_label
_atom_site_type_symbol
_atom_site_fract_x
_atom_site_fract_y
_atom_site_fract_z
Zn1	Zn	1.498483	-0.651422	-0.780818
Zn2	Zn	1.998483	-0.151422	-0.280818
Zn3	Zn	1.520226	-0.795137	-0.608835
Zn4	Zn	2.020226	-0.295137	-0.108835
Zn5	Zn	1.348341	-0.611127	-0.587060
Zn6	Zn	1.848341	-0.111127	-0.087060
Zn7	Zn	1.326474	-0.789922	-0.758960
Zn8	Zn	1.826474	-0.289922	-0.258960
O9	O	1.423381	-0.711902	-0.683918
O10	O	1.923381	-0.211902	-0.183918
O11	O	1.645288	-0.689533	-0.776265
O12	O	2.145288	-0.189533	-0.276265
O13	O	1.515676	-0.756047	-0.462030
O14	O	2.015676	-0.256047	0.037970
O15	O	1.368309	-0.481501	-0.612798
O16	O	1.868309	0.018499	-0.112798
O17	O	1.661262	-0.795119	-0.649909
O18	O	2.161262	-0.295119	-0.149909
O19	O	1.478618	-0.511106	-0.755151
O20	O	1.978618	-0.011106	-0.255151
O21	O	1.389393	-0.620856	-0.446032
O22	O	1.889393	-0.120856	0.053968
O23	O	1.201520	-0.615798	-0.591603
O24	O	1.701520	-0.115798	-0.091603
O25	O	1.331040	-0.786231	-0.905776
O26	O	1.831040	-0.286231	-0.405776
O27	O	1.185454	-0.747158	-0.717897
O28	O	1.685454	-0.247158	-0.217897
O29	O	1.457414	-0.684476	-0.921835
O30	O	1.957414	-0.184476	-0.421835
O31	O	1.494472	-0.929417	-0.628714
O32	O	1.994472	-0.429417	-0.128714
O33	O	1.352124	-0.925585	-0.739010
O34	O	1.852124	-0.425585	-0.239010
C35	C	1.156170	-0.676541	-0.650016
C36	C	1.656170	-0.176541	-0.150016
C37	C	1.041852	-0.661439	-0.635536
C38	C	1.541852	-0.161439	-0.135536
C39	C	1.423310	-0.962504	-0.683879
C40	C	1.923310	-0.462504	-0.183879
C41	C	1.423369	-1.069728	-0.683909
C42	C	1.923369	-0.569728	-0.183909
C43	C	0.982977	-0.719784	-0.691475
C44	C	1.482977	-0.219784	-0.191475
C45	C	0.864824	-0.704177	-0.676511
C46	C	1.364824	-0.204177	-0.176511
C47	C	1.423469	-1.266044	-0.683987
C48	C	1.923469	-0.766044	-0.183987
C49	C	1.423410	-1.156800	-0.683946
C50	C	1.923410	-0.656800	-0.183946
C51	C	1.691635	-0.747403	-0.717954
C52	C	2.191635	-0.247403	-0.217954
C53	C	1.805950	-0.762531	-0.732458
C54	C	2.305950	-0.262531	-0.232458
C55	C	1.389363	-0.739266	-0.952165
C56	C	1.889363	-0.239266	-0.452165
C57	C	1.374866	-0.750927	-1.066476
C58	C	1.874866	-0.250927	-0.566476
C59	C	1.423478	-0.460328	-0.683984
C60	C	1.923478	0.039672	-0.183984
C61	C	1.423519	-0.353122	-0.684012
C62	C	1.923519	0.146878	-0.184012
C63	C	1.430931	-0.705779	-1.125385
C64	C	1.930931	-0.205779	-0.625385
C65	C	1.415949	-0.717831	-1.243531
C66	C	1.915949	-0.217831	-0.743531
C67	C	1.457326	-0.684583	-0.416723
C68	C	1.957326	-0.184583	0.083277
C69	C	1.472021	-0.672677	-0.302438
C70	C	1.972021	-0.172677	0.197562
H71	H	1.020043	-0.781288	-0.750448
H72	H	1.520043	-0.281288	-0.250448
H73	H	1.004785	-0.599929	-0.576571
H74	H	1.504785	-0.099929	-0.076571
C75	C	0.814764	-0.621078	-0.596847
C76	C	1.314764	-0.121078	-0.096847
H77	H	0.741920	-0.621491	-0.597238
H78	H	1.241920	-0.121491	-0.097238
H79	H	0.830414	-0.560143	-0.614229
H80	H	1.330414	-0.060143	-0.114229
H81	H	0.841066	-0.630345	-0.529921
H82	H	1.341066	-0.130345	-0.029921
H83	H	1.490017	-0.658201	-1.088351
H84	H	1.990017	-0.158201	-0.588351
H85	H	0.843009	-0.824037	-0.791438
H86	H	1.343009	-0.324037	-0.291438
C87	C	1.295037	-0.815197	-1.116488
C88	C	1.795037	-0.315197	-0.616488
H89	H	1.261800	-0.841954	-1.064208
H90	H	1.761800	-0.341954	-0.564208
H91	H	1.329084	-0.866671	-1.163380
H92	H	1.829084	-0.366671	-0.663380
H93	H	1.244959	-0.776606	-1.152716
H94	H	1.744959	-0.276606	-0.652716
C95	C	1.336116	-0.782104	-1.293539
C96	C	1.836116	-0.282104	-0.793539
H97	H	1.302879	-0.808861	-1.241259
H98	H	1.802879	-0.308861	-0.741259
H99	H	1.370163	-0.833578	-1.340431
H100	H	1.870163	-0.333578	-0.840431
H101	H	1.286038	-0.743513	-1.329767
H102	H	1.786038	-0.243513	-0.829767
C103	C	1.551853	-0.608402	-1.252427
C104	C	2.051853	-0.108402	-0.752427
H105	H	1.551456	-0.608738	-1.179581
H106	H	2.051456	-0.108738	-0.679581
H107	H	1.534619	-0.543384	-1.268091
H108	H	2.034619	-0.043384	-0.768091
H109	H	1.618743	-0.633449	-1.278746
H110	H	2.118743	-0.133449	-0.778746
