data_functionalizedCrystal
_audit_creation_method	'MofGen! by Chris Wilmer'
_symmetry_space_group_name_H-M	'P1'
_symmetry_Int_Tables_number	1
_symmetry_cell_setting	triclinic
loop_
_symmetry_equiv_pos_as_xyz
  x,y,z
_cell_length_a	34.571875
_cell_length_b	34.571051
_cell_length_c	34.567439
_cell_angle_alpha	60.004367
_cell_angle_beta	60.008842
_cell_angle_gamma	59.994195
loop_
_atom_site_label
_atom_site_type_symbol
_atom_site_fract_x
_atom_site_fract_y
_atom_site_fract_z
O1	O	0.053721	-0.565181	0.472559
O2	O	0.553721	-0.065181	0.972559
O3	O	0.020283	-0.440038	0.380761
O4	O	0.520283	0.059962	0.880761
O5	O	0.099534	-0.519209	0.380676
O6	O	0.599534	-0.019209	0.880676
O7	O	-0.025530	-0.486010	0.472643
O8	O	0.474470	0.013990	0.972643
O9	O	0.125831	-0.492917	0.406885
O10	O	0.625831	0.007083	0.906885
O11	O	0.046580	-0.413746	0.406969
O12	O	0.546580	0.086254	0.906969
O13	O	0.080018	-0.538889	0.498767
O14	O	0.580018	-0.038889	0.998767
Zn15	Zn	0.067475	-0.472143	0.457030
Zn16	Zn	0.567475	0.027857	0.957030
Zn17	Zn	0.032827	-0.506784	0.422498
Zn18	Zn	0.532827	-0.006784	0.922498
O19	O	0.000767	-0.459718	0.498852
O20	O	0.500767	0.040282	0.998852
N21	N	0.091122	-0.448505	0.480598
N22	N	0.591122	0.051495	0.980598
N23	N	0.009184	-0.530426	0.398930
N24	N	0.509184	-0.030426	0.898930
C25	C	0.124402	-0.415465	0.717633
C26	C	0.624402	0.084535	1.217633
C27	C	0.328327	-0.415388	0.513477
C28	C	0.828327	0.084612	1.013477
C29	C	0.124221	-0.415437	0.513630
C30	C	0.624221	0.084563	1.013630
C31	C	0.124201	-0.211364	0.513624
C32	C	0.624201	0.288636	1.013624
C33	C	0.157075	-0.309853	0.546423
C34	C	0.657075	0.190147	1.046423
C35	C	0.157084	-0.382601	0.546423
C36	C	0.657084	0.117399	1.046423
C37	C	0.175289	-0.364414	0.564591
C38	C	0.675289	0.135586	1.064591
C39	C	0.254624	-0.350722	0.522790
C40	C	0.754624	0.149278	1.022790
C41	C	0.304220	-0.367243	0.506229
C42	C	0.804220	0.132757	1.006229
C43	C	0.304249	-0.447494	0.536832
C44	C	0.804249	0.052506	1.036832
C45	C	0.254655	-0.430972	0.553394
C46	C	0.754655	0.069028	1.053394
C47	C	0.169014	-0.285043	0.497667
C48	C	0.669014	0.214957	0.997667
C49	C	0.152454	-0.235444	0.481153
C50	C	0.652454	0.264556	0.981153
C51	C	0.112020	-0.235469	0.562154
C52	C	0.612020	0.264531	1.062154
C53	C	0.128580	-0.285068	0.578668
C54	C	0.628580	0.214932	1.078668
C55	C	0.108321	-0.370634	0.558439
C56	C	0.608321	0.129366	1.058439
C57	C	0.091776	-0.387168	0.541918
C58	C	0.591776	0.112832	1.041918
C59	C	0.172754	-0.427637	0.501375
C60	C	0.672754	0.072363	1.001375
C61	C	0.189301	-0.411103	0.517891
C62	C	0.689301	0.088897	1.017891
C63	C	0.108399	-0.370649	0.643978
C64	C	0.608399	0.129351	1.143978
C65	C	0.091911	-0.387197	0.693575
C66	C	0.591911	0.112803	1.193575
C67	C	0.172928	-0.427676	0.693511
C68	C	0.672928	0.072324	1.193511
C69	C	0.189415	-0.411128	0.643912
C70	C	0.689415	0.088872	1.143912
C71	C	0.157149	-0.382613	0.619147
C72	C	0.657149	0.117387	1.119147
C73	C	0.229844	-0.382585	0.546371
C74	C	0.729844	0.117415	1.046371
C75	C	0.105624	-0.433333	0.772186
C76	C	0.605624	0.066667	1.272186
C77	C	0.382878	-0.432925	0.495007
C78	C	0.882878	0.067075	0.995007
C79	C	0.105380	-0.433313	0.495792
C80	C	0.605380	0.066687	0.995792
C81	C	0.105683	-0.156808	0.496094
C82	C	0.605683	0.343192	0.996094
C83	C	-0.023527	-0.563458	0.161535
C84	C	0.476473	-0.063458	0.661535
C85	C	-0.023851	-0.767445	0.365663
C86	C	0.476149	-0.267445	0.865663
C87	C	-0.023821	-0.563448	0.365756
C88	C	0.476179	-0.063448	0.865756
C89	C	-0.227785	-0.563229	0.365355
C90	C	0.272215	-0.063229	0.865355
C91	C	-0.129302	-0.596153	0.332678
C92	C	0.370698	-0.096153	0.832678
C93	C	-0.056593	-0.596234	0.332823
C94	C	0.443407	-0.096234	0.832823
C95	C	-0.074746	-0.614396	0.314578
C96	C	0.425254	-0.114396	0.814578
C97	C	-0.088477	-0.693710	0.356299
C98	C	0.411523	-0.193710	0.856299
C99	C	-0.071982	-0.743310	0.372851
C100	C	0.428018	-0.243310	0.872851
C101	C	0.008266	-0.743392	0.342376
C102	C	0.508266	-0.243392	0.842376
C103	C	-0.008230	-0.693794	0.325823
C104	C	0.491770	-0.193794	0.825823
C105	C	-0.154162	-0.608103	0.381422
C106	C	0.345838	-0.108103	0.881422
C107	C	-0.203757	-0.591517	0.397874
C108	C	0.296243	-0.091517	0.897874
C109	C	-0.203630	-0.551037	0.316836
C110	C	0.296370	-0.051037	0.816836
C111	C	-0.154034	-0.567623	0.300384
C112	C	0.345966	-0.067623	0.800384
C113	C	-0.068543	-0.547475	0.320829
C114	C	0.431457	-0.047475	0.820829
C115	C	-0.052041	-0.530969	0.337421
C116	C	0.447959	-0.030969	0.837421
C117	C	-0.011639	-0.611977	0.377990
C118	C	0.488361	-0.111977	0.877990
C119	C	-0.028141	-0.628485	0.361404
C120	C	0.471859	-0.128485	0.861404
C121	C	-0.068417	-0.547482	0.235199
C122	C	0.431583	-0.047482	0.735199
C123	C	-0.051814	-0.530977	0.185602
C124	C	0.448186	-0.030977	0.685602
C125	C	-0.011349	-0.611990	0.185649
C126	C	0.488651	-0.111990	0.685649
C127	C	-0.027951	-0.628493	0.235248
C128	C	0.472049	-0.128493	0.735248
C129	C	-0.056486	-0.596238	0.260022
C130	C	0.443514	-0.096238	0.760022
C131	C	-0.056602	-0.668955	0.332787
C132	C	0.443398	-0.168955	0.832787
C133	C	-0.005599	-0.544662	0.106983
C134	C	0.494401	-0.044662	0.606983
C135	C	-0.006342	-0.821999	0.384121
C136	C	0.493658	-0.321999	0.884121
C137	C	-0.005979	-0.544649	0.383673
C138	C	0.494021	-0.044649	0.883673
C139	C	-0.282336	-0.544682	0.382817
C140	C	0.217664	-0.044682	0.882817
N141	N	0.427518	-0.448428	0.480350
N142	N	0.927518	0.051572	0.980350
O143	O	0.589573	-0.456297	0.363634
O144	O	1.089573	0.043703	0.863634
O145	O	0.589761	-0.548399	0.488643
O146	O	1.089761	-0.048399	0.988643
O147	O	0.589681	-0.548188	0.409364
O148	O	1.089681	-0.048188	0.909364
O149	O	0.589654	-0.456508	0.442913
O150	O	1.089654	0.043492	0.942913
O151	O	0.510890	-0.521988	0.435708
O152	O	1.010890	-0.021988	0.935708
O153	O	0.510970	-0.522199	0.514987
O154	O	1.010970	-0.022199	1.014987
O155	O	0.510782	-0.430098	0.389978
O156	O	1.010782	0.069902	0.889978
Zn157	Zn	0.498366	-0.471989	0.456665
Zn158	Zn	0.998366	0.028011	0.956665
Zn159	Zn	0.602177	-0.506508	0.421956
Zn160	Zn	1.102177	-0.006508	0.921956
O161	O	0.510862	-0.430308	0.469257
O162	O	1.010862	0.069692	0.969257
N163	N	0.673025	-0.530068	0.398267
N164	N	1.173025	-0.030068	0.898267
N165	N	0.091092	-0.112167	0.480590
N166	N	0.591092	0.387833	0.980590
O167	O	-0.025539	0.049976	0.472612
O168	O	0.474461	0.549976	0.972612
O169	O	0.099472	0.050011	0.380491
O170	O	0.599472	0.550011	0.880491
O171	O	0.020155	0.049979	0.380751
O172	O	0.520155	0.549979	0.880751
O173	O	0.053778	0.050009	0.472352
O174	O	0.553778	0.550009	0.972352
O175	O	0.046458	-0.028818	0.407008
O176	O	0.546458	0.471182	0.907008
O177	O	0.125775	-0.028785	0.406748
O178	O	0.625775	0.471215	0.906748
O179	O	0.000764	-0.028821	0.498869
O180	O	0.500764	0.471179	0.998869
Zn181	Zn	0.067445	-0.041314	0.456977
Zn182	Zn	0.567445	0.458686	0.956977
Zn183	Zn	0.032791	0.062504	0.422382
Zn184	Zn	0.532791	0.562504	0.922382
O185	O	0.080081	-0.028788	0.498609
O186	O	0.580081	0.471212	0.998609
N187	N	0.009138	0.133358	0.398771
N188	N	0.509138	0.633358	0.898771
N189	N	0.091421	-0.448552	0.816827
N190	N	0.591421	0.051448	1.316827
O191	O	0.083469	-0.565164	0.978960
O192	O	0.583469	-0.065164	1.478960
O193	O	-0.008614	-0.440110	0.979002
O194	O	0.491386	0.059890	1.479002
O195	O	-0.008399	-0.519410	0.978978
O196	O	0.491601	-0.019410	1.478978
O197	O	0.083253	-0.485863	0.978984
O198	O	0.583253	0.014137	1.478984
O199	O	0.017837	-0.493128	0.900185
O200	O	0.517837	0.006872	1.400185
O201	O	0.017621	-0.413827	0.900208
O202	O	0.517621	0.086173	1.400208
O203	O	0.109704	-0.538881	0.900167
O204	O	0.609704	-0.038881	1.400167
Zn205	Zn	0.067828	-0.472181	0.887677
Zn206	Zn	0.567828	0.027819	1.387677
Zn207	Zn	0.033262	-0.506810	0.991491
Zn208	Zn	0.533262	-0.006810	1.491491
O209	O	0.109489	-0.459581	0.900191
O210	O	0.609489	0.040419	1.400191
N211	N	0.009668	-0.530444	1.062341
N212	N	0.509668	-0.030444	1.562341
C213	C	0.030297	-0.411123	0.381218
C214	C	0.530297	0.088877	0.881218
C215	C	0.128439	-0.509167	0.381113
C216	C	0.628439	-0.009167	0.881113
C217	C	0.070004	-0.567805	0.498310
C218	C	0.570004	-0.067805	0.998310
C219	C	-0.028138	-0.469761	0.498415
C220	C	0.471862	0.030239	0.998415
C221	C	0.550388	-0.547982	0.517564
C222	C	1.050388	-0.047982	1.017564
C223	C	0.550290	-0.547721	0.419387
C224	C	1.050290	-0.047721	0.919387
C225	C	0.550153	-0.430514	0.361058
C226	C	1.050153	0.069486	0.861058
C227	C	0.550253	-0.430775	0.459234
C228	C	1.050253	0.069225	0.959234
C229	C	0.128339	0.010714	0.380902
C230	C	0.628339	0.510714	0.880902
C231	C	0.030148	0.010577	0.381256
C232	C	0.530148	0.510577	0.881256
C233	C	-0.028136	0.010574	0.498426
C234	C	0.471864	0.510574	0.998426
C235	C	0.070089	0.010613	0.498104
C236	C	0.570089	0.510613	0.998104
C237	C	-0.008178	-0.411214	0.939610
C238	C	0.491822	0.088786	1.439610
C239	C	-0.007906	-0.509413	0.939566
C240	C	0.492094	-0.009413	1.439566
C241	C	0.109268	-0.567777	0.939558
C242	C	0.609268	-0.067777	1.439558
C243	C	0.109002	-0.469572	0.939586
C244	C	0.609002	0.030428	1.439586
H245	H	0.052212	-0.377448	0.713786
H246	H	0.552212	0.122552	1.213786
O247	O	0.550265	-0.396370	0.467708
O248	O	1.050265	0.103630	0.967708
C249	C	0.550186	-0.355469	0.427043
C250	C	1.050186	0.144531	0.927043
H251	H	0.565074	-0.365803	0.394466
H252	H	1.065074	0.134197	0.894466
H253	H	0.573052	-0.337803	0.422873
H254	H	1.073052	0.162197	0.922873
H255	H	0.512369	-0.329726	0.430907
H256	H	1.012369	0.170274	0.930907
O257	O	-0.071010	-0.461375	0.532855
O258	O	0.428990	0.038625	1.032855
C259	C	-0.092009	-0.493922	0.545626
C260	C	0.407991	0.006078	1.045626
H261	H	-0.076344	-0.507744	0.515235
H262	H	0.423656	-0.007744	1.015235
H263	H	-0.131870	-0.475540	0.553421
H264	H	0.368130	0.024460	1.053421
H265	H	-0.084794	-0.524801	0.578548
H266	H	0.415206	-0.024801	1.078548
H267	H	0.138179	-0.603691	0.939539
H268	H	0.638179	-0.103691	1.439539
O269	O	-0.016418	-0.675863	0.259338
O270	O	0.483582	-0.175863	0.759338
C271	C	-0.033348	-0.696436	0.247157
C272	C	0.466652	-0.196436	0.747157
H273	H	-0.063899	-0.668172	0.233463
H274	H	0.436101	-0.168172	0.733463
H275	H	-0.046269	-0.725650	0.279762
H276	H	0.453731	-0.225650	0.779762
H277	H	-0.003568	-0.712121	0.218399
H278	H	0.496432	-0.212121	0.718399
H279	H	0.550303	-0.576522	0.412207
H280	H	1.050303	-0.076522	0.912207
H281	H	0.022945	0.010574	0.352477
H282	H	0.522945	0.510574	0.852477
O283	O	0.171288	-0.517680	0.346674
O284	O	0.671288	-0.017680	0.846674
C285	C	0.179752	-0.556014	0.335727
C286	C	0.679752	-0.056014	0.835727
H287	H	0.157619	-0.578781	0.367061
H288	H	0.657619	-0.078781	0.867061
H289	H	0.218919	-0.578322	0.328031
H290	H	0.718919	-0.078322	0.828031
H291	H	0.169564	-0.541937	0.303239
H292	H	0.669564	-0.041937	0.803239
H293	H	-0.036687	-0.516580	0.939532
H294	H	0.463313	-0.016580	1.439532
H295	H	0.137795	-0.462392	0.939581
H296	H	0.637795	0.037608	1.439581
O297	O	0.078764	0.010592	0.532396
O298	O	0.578764	0.510592	1.032396
C299	C	0.125329	0.010617	0.515114
C300	C	0.625329	0.510617	1.015114
H301	H	0.147725	-0.004292	0.484696
H302	H	0.647725	0.495708	0.984696
H303	H	0.141297	-0.012262	0.544771
H304	H	0.641297	0.487738	1.044771
H305	H	0.124621	0.048422	0.501901
H306	H	0.624621	0.548422	1.001901
O307	O	-0.070930	0.010482	0.532968
O308	O	0.429070	0.510482	1.032968
C309	C	-0.064657	-0.030318	0.572890
C310	C	0.435343	0.469682	1.072890
H311	H	-0.029966	-0.058838	0.561466
H312	H	0.470034	0.441162	1.061466
H313	H	-0.095384	-0.044026	0.589865
H314	H	0.404616	0.455974	1.089865
H315	H	-0.063550	-0.021083	0.599620
H316	H	0.436450	0.478917	1.099620
O317	O	0.550147	-0.395999	0.318227
O318	O	1.050147	0.104001	0.818227
C319	C	0.590934	-0.383247	0.297218
C320	C	1.090934	0.116753	0.797218
H321	H	0.604578	-0.392841	0.325924
H322	H	1.104578	0.107159	0.825924
H323	H	0.581707	-0.343475	0.277398
H324	H	1.081707	0.156525	0.777398
H325	H	0.619497	-0.403114	0.271343
H326	H	1.119497	0.096886	0.771343
H327	H	-0.037087	-0.375298	0.939623
H328	H	0.462913	0.124702	1.439623
H329	H	0.164166	0.010943	0.351910
H330	H	0.664166	0.510943	0.851910
O331	O	0.077036	-0.343019	0.619941
O332	O	0.577036	0.156981	1.119941
C333	C	0.048357	-0.368064	0.632089
C334	C	0.548357	0.131936	1.132089
H335	H	0.067526	-0.407745	0.645706
H336	H	0.567526	0.092255	1.145706
H337	H	0.040827	-0.359187	0.599487
H338	H	0.540827	0.140813	1.099487
H339	H	0.013528	-0.357514	0.660897
H340	H	0.513528	0.142486	1.160897
O341	O	0.204290	-0.455434	0.717543
O342	O	0.704290	0.044566	1.217543
C343	C	0.232978	-0.497018	0.705393
C344	C	0.732978	0.002982	1.205393
H345	H	0.213813	-0.503923	0.691781
H346	H	0.713813	-0.003923	1.191781
H347	H	0.240517	-0.528264	0.737994
H348	H	0.740517	-0.028264	1.237994
H349	H	0.267803	-0.492493	0.676582
H350	H	0.767803	0.007507	1.176582
O351	O	0.077005	-0.342878	0.586082
O352	O	0.577005	0.157122	1.086082
C353	C	0.048291	-0.301286	0.561069
C354	C	0.548291	0.198714	1.061069
H355	H	0.067413	-0.294378	0.521385
H356	H	0.567413	0.205622	1.021385
H357	H	0.040794	-0.270047	0.569947
H358	H	0.540794	0.229953	1.069947
H359	H	0.013448	-0.305801	0.571649
H360	H	0.513448	0.194199	1.071649
O361	O	0.236762	-0.422670	0.619740
O362	O	0.736762	0.077330	1.119740
C363	C	0.248724	-0.380989	0.591058
C364	C	0.748724	0.119011	1.091058
H365	H	0.216023	-0.349829	0.583654
H366	H	0.716023	0.150171	1.083654
H367	H	0.277463	-0.385415	0.556168
H368	H	0.777463	0.114585	1.056168
H369	H	0.262357	-0.374021	0.610156
H370	H	0.762357	0.125979	1.110156
O371	O	0.196669	-0.309047	0.466282
O372	O	0.696669	0.190953	0.966282
C373	C	0.203659	-0.276510	0.419706
C374	C	0.703659	0.223490	0.919706
H375	H	0.173747	-0.241162	0.419818
H376	H	0.673747	0.258838	0.919818
H377	H	0.203896	-0.290837	0.396169
H378	H	0.703896	0.209163	0.896169
H379	H	0.238986	-0.271223	0.405469
H380	H	0.738986	0.228777	0.905469
O381	O	0.550534	-0.582491	0.560375
O382	O	1.050534	-0.082491	1.060375
C383	C	0.591354	-0.593454	0.568843
C384	C	1.091354	-0.093454	1.068843
H385	H	0.619838	-0.582940	0.533662
H386	H	1.119838	-0.082940	1.033662
H387	H	0.605096	-0.633127	0.587971
H388	H	1.105096	-0.133127	1.087971
H389	H	0.582135	-0.573162	0.591742
H390	H	1.082135	-0.073162	1.091742
O391	O	0.044403	-0.375605	0.553671
O392	O	0.544403	0.124395	1.053671
C393	C	0.023848	-0.392577	0.603351
C394	C	0.523848	0.107423	1.103351
H395	H	0.052115	-0.423162	0.619310
H396	H	0.552115	0.076838	1.119310
H397	H	-0.005383	-0.405466	0.612863
H398	H	0.494617	0.094534	1.112863
H399	H	0.008192	-0.362829	0.618051
H400	H	0.508192	0.137171	1.118051
H401	H	0.198991	-0.450848	0.478149
H402	H	0.698991	0.049152	0.978149
H403	H	0.229008	-0.420842	0.508101
H404	H	0.729008	0.079158	1.008101
H405	H	0.324452	-0.486894	0.542541
H406	H	0.824452	0.013106	1.042541
O407	O	0.230603	-0.461934	0.576223
O408	O	0.730603	0.038066	1.076223
C409	C	0.242709	-0.485163	0.545875
C410	C	0.742709	0.014837	1.045875
H411	H	0.256311	-0.462574	0.507478
H412	H	0.756311	0.037426	1.007478
H413	H	0.210090	-0.490745	0.551753
H414	H	0.710090	0.009255	1.051753
H415	H	0.271514	-0.520954	0.553851
H416	H	0.771514	-0.020954	1.053851
O417	O	0.328220	-0.336224	0.483312
O418	O	0.828220	0.163776	0.983312
C419	C	0.295686	-0.289975	0.480675
C420	C	0.795686	0.210025	0.980675
H421	H	0.260325	-0.288050	0.483948
H422	H	0.760325	0.211950	0.983948
H423	H	0.309989	-0.263758	0.445224
H424	H	0.809989	0.236242	0.945224
H425	H	0.290435	-0.280718	0.510720
H426	H	0.790435	0.219282	1.010720
O427	O	0.078518	-0.610726	0.532665
O428	O	0.578518	-0.110726	1.032665
C429	C	0.089655	-0.646407	0.516400
C430	C	0.589655	-0.146407	1.016400
H431	H	0.074380	-0.630245	0.486971
H432	H	0.574380	-0.130245	0.986971
H433	H	0.073816	-0.674767	0.546935
H434	H	0.573816	-0.174767	1.046935
H435	H	0.129773	-0.663061	0.502144
H436	H	0.629773	-0.163061	1.002144
O437	O	0.163989	-0.211266	0.433804
O438	O	0.663989	0.288734	0.933804
C439	C	0.143274	-0.162174	0.426143
C440	C	0.643274	0.337826	0.926143
H441	H	0.111456	-0.155415	0.458703
H442	H	0.611456	0.344585	0.958703
H443	H	0.131211	-0.143319	0.394013
H444	H	0.631211	0.356681	0.894013
H445	H	0.170405	-0.148091	0.419516
H446	H	0.670405	0.351909	0.919516
O447	O	0.084398	-0.211439	0.593517
O448	O	0.584398	0.288561	1.093517
C449	C	0.109478	-0.223540	0.622153
C450	C	0.609478	0.276460	1.122153
H451	H	0.138360	-0.259545	0.622624
H452	H	0.638360	0.240455	1.122624
H453	H	0.084057	-0.225246	0.659774
H454	H	0.584057	0.274754	1.159774
H455	H	0.126298	-0.195614	0.607219
H456	H	0.626298	0.304386	1.107219
O457	O	-0.063494	-0.483607	0.161516
O458	O	0.436506	0.016393	0.661516
C459	C	-0.113164	-0.462969	0.173569
C460	C	0.386836	0.037031	0.673569
H461	H	-0.129160	-0.491186	0.187169
H462	H	0.370840	0.008814	0.687169
H463	H	-0.122607	-0.433730	0.140922
H464	H	0.377393	0.066270	0.640922
H465	H	-0.127888	-0.447302	0.202360
H466	H	0.372112	0.052698	0.702360
O467	O	-0.096061	-0.516132	0.259248
O468	O	0.403939	-0.016132	0.759248
C469	C	-0.071009	-0.487488	0.247170
C470	C	0.428991	0.012512	0.747170
H471	H	-0.031331	-0.506676	0.233588
H472	H	0.468669	-0.006676	0.733588
H473	H	-0.079916	-0.479988	0.279800
H474	H	0.420084	0.020012	0.779800
H475	H	-0.081522	-0.452640	0.218358
H476	H	0.418478	0.047360	0.718358
H477	H	0.234427	-0.311322	0.517070
H478	H	0.734427	0.188678	1.017070
H479	H	0.011877	-0.638258	0.165483
H480	H	0.511877	-0.138258	0.665483
O481	O	-0.096252	-0.516125	0.293141
O482	O	0.403748	-0.016125	0.793141
C483	C	-0.137855	-0.487408	0.318135
C484	C	0.362145	0.012592	0.818135
H485	H	-0.144808	-0.506548	0.357824
H486	H	0.355192	-0.006548	0.857824
H487	H	-0.169069	-0.479876	0.309195
H488	H	0.330931	0.020124	0.809195
H489	H	-0.133332	-0.452580	0.307596
H490	H	0.366668	0.047420	0.807596
H491	H	-0.061773	-0.491265	0.327657
H492	H	0.438227	0.008735	0.827657
O493	O	0.015980	-0.643371	0.405762
O494	O	0.515980	-0.143371	0.905762
C495	C	0.022998	-0.689946	0.412774
C496	C	0.522998	-0.189946	0.912774
H497	H	-0.006881	-0.689823	0.407167
H498	H	0.493119	-0.189823	0.907167
H499	H	0.023199	-0.713486	0.450410
H500	H	0.523199	-0.213486	0.950410
H501	H	0.058350	-0.704189	0.386418
H502	H	0.558350	-0.204189	0.886418
H503	H	0.118851	-0.305270	0.618371
H504	H	0.618851	0.194730	1.118371
H505	H	-0.018411	-0.668189	0.371171
H506	H	0.481589	-0.168189	0.871171
H507	H	0.047655	-0.763617	0.336709
H508	H	0.547655	-0.263617	0.836709
O509	O	0.022788	-0.669796	0.302935
O510	O	0.522788	-0.169796	0.802935
C511	C	0.056491	-0.681940	0.262065
C512	C	0.556491	-0.181940	0.762065
H513	H	0.058817	-0.717943	0.266534
H514	H	0.558817	-0.217943	0.766534
H515	H	0.092576	-0.683673	0.256708
H516	H	0.592576	-0.183673	0.756708
H517	H	0.045334	-0.654025	0.229904
H518	H	0.545334	-0.154025	0.729904
O519	O	-0.103008	-0.767284	0.395669
O520	O	0.396992	-0.267284	0.895669
C521	C	-0.126216	-0.755163	0.365293
C522	C	0.373784	-0.255163	0.865293
H523	H	-0.125006	-0.719185	0.337025
H524	H	0.374994	-0.219185	0.837025
H525	H	-0.164678	-0.753387	0.386710
H526	H	0.335322	-0.253387	0.886710
H527	H	-0.107733	-0.783114	0.347583
H528	H	0.392267	-0.283114	0.847583
O529	O	-0.130209	-0.635795	0.412855
O530	O	0.369791	-0.135795	0.912855
C531	C	-0.162788	-0.642790	0.459407
C532	C	0.337212	-0.142790	0.959407
H533	H	-0.198120	-0.612858	0.459262
H534	H	0.301880	-0.112858	0.959262
H535	H	-0.148498	-0.643064	0.482999
H536	H	0.351502	-0.143064	0.982999
H537	H	-0.168089	-0.678103	0.473603
H538	H	0.331911	-0.178103	0.973603
O539	O	-0.227963	-0.603142	0.445216
O540	O	0.272037	-0.103142	0.945216
C541	C	-0.256650	-0.628079	0.457138
C542	C	0.243350	-0.128079	0.957138
H543	H	-0.264022	-0.619127	0.424414
H544	H	0.235978	-0.119127	0.924414
H545	H	-0.291554	-0.617492	0.485859
H546	H	0.208446	-0.117492	0.985859
H547	H	-0.237573	-0.667783	0.470782
H548	H	0.262427	-0.167783	0.970782
O549	O	-0.135445	-0.669525	0.362972
O550	O	0.364555	-0.169525	0.862972
C551	C	-0.142110	-0.640851	0.318664
C552	C	0.357890	-0.140851	0.818664
H553	H	-0.107983	-0.633467	0.291077
H554	H	0.392017	-0.133467	0.791077
H555	H	-0.171872	-0.605950	0.321481
H556	H	0.328128	-0.105950	0.821481
H557	H	-0.151866	-0.659948	0.307605
H558	H	0.348134	-0.159948	0.807605
O559	O	-0.227585	-0.523315	0.285403
O560	O	0.272415	-0.023315	0.785403
C561	C	-0.195007	-0.516344	0.238850
C562	C	0.304993	-0.016344	0.738850
H563	H	-0.159669	-0.521921	0.239001
H564	H	0.340331	-0.021921	0.739001
H565	H	-0.209288	-0.478727	0.215270
H566	H	0.290712	0.021273	0.715270
H567	H	-0.189722	-0.542744	0.224635
H568	H	0.310278	-0.042744	0.724635
H569	H	0.023152	-0.375173	0.352387
H570	H	0.523152	0.124827	0.852387
H571	H	-0.133793	-0.557888	0.260690
H572	H	0.366207	-0.057888	0.760690
