data_functionalizedCrystal
_audit_creation_method	'MofGen! by Chris Wilmer'
_symmetry_space_group_name_H-M	'P1'
_symmetry_Int_Tables_number	1
_symmetry_cell_setting	triclinic
loop_
_symmetry_equiv_pos_as_xyz
  x,y,z
_cell_length_a	25.993477
_cell_length_b	25.993440
_cell_length_c	25.993511
_cell_angle_alpha	89.997521
_cell_angle_beta	59.999654
_cell_angle_gamma	60.000225
loop_
_atom_site_label
_atom_site_type_symbol
_atom_site_fract_x
_atom_site_fract_y
_atom_site_fract_z
O1	O	-0.368214	-0.438491	0.015296
O2	O	-0.262869	-0.363677	-0.015237
O3	O	-0.368212	-0.363677	0.090105
O4	O	-0.262871	-0.438491	-0.090047
O5	O	-0.453773	-0.278114	0.090098
O6	O	-0.348430	-0.278115	-0.015244
O7	O	-0.453775	-0.352928	0.015289
Cu8	Cu	-0.408915	-0.307709	0.000022
Cu9	Cu	-0.307729	-0.408897	0.000030
O10	O	-0.348432	-0.352929	-0.090053
C11	C	-0.255141	-0.184158	-0.022170
C12	C	-0.291260	-0.116296	-0.017795
C13	C	-0.285807	-0.215405	-0.022610
C14	C	-0.161977	-0.277321	-0.022178
C15	C	-0.098483	-0.309069	-0.017811
C16	C	-0.192784	-0.308427	-0.022618
C17	C	-0.255135	-0.277322	-0.022181
C18	C	-0.291247	-0.309070	-0.017818
C19	C	-0.192791	-0.215405	-0.022607
C20	C	-0.565863	-0.621962	0.037074
C21	C	-0.628211	-0.590717	0.037507
C22	C	-0.565859	-0.528803	0.037067
C23	C	-0.628207	-0.497700	0.037500
C24	C	-0.659018	-0.528804	0.037067
C25	C	-0.535193	-0.590716	0.037507
C26	C	-0.464938	-0.722646	0.029522
C27	C	-0.430643	-0.786267	0.024755
C28	C	-0.460084	-0.818176	0.022364
C29	C	-0.422900	-0.887159	0.017192
C30	C	-0.523824	-0.786470	0.024744
C31	C	-0.558119	-0.722851	0.029514
C32	C	-0.528674	-0.690942	0.031900
C33	C	-0.752145	-0.529048	0.029507
C34	C	-0.810995	-0.499724	0.024733
C35	C	-0.840508	-0.438377	0.022334
C36	C	-0.904314	-0.406581	0.017155
C37	C	-0.811181	-0.406343	0.024715
C38	C	-0.752337	-0.435664	0.029492
C39	C	-0.722819	-0.497016	0.031885
C40	C	-0.464930	-0.529044	0.029508
C41	C	-0.430626	-0.499722	0.024726
C42	C	-0.460063	-0.438375	0.022327
C43	C	-0.422875	-0.406577	0.017148
C44	C	-0.523798	-0.406344	0.024705
C45	C	-0.558102	-0.435664	0.029484
C46	C	-0.528666	-0.497014	0.031885
C47	C	-0.150799	-0.528799	-0.471156
C48	C	-0.088452	-0.590713	-0.502257
C49	C	-0.150799	-0.528800	-0.377996
C50	C	-0.088452	-0.590713	-0.409239
C51	C	-0.057643	-0.621958	-0.471151
C52	C	-0.181467	-0.497696	-0.409244
C53	C	-0.251725	-0.435432	-0.470919
C54	C	-0.286022	-0.405905	-0.500245
C55	C	-0.256585	-0.437738	-0.561592
C56	C	-0.293771	-0.405728	-0.593391
C57	C	-0.192845	-0.499096	-0.593623
C58	C	-0.158548	-0.528619	-0.564300
C59	C	-0.187991	-0.496787	-0.502947
C60	C	0.035480	-0.722643	-0.564515
C61	C	0.094329	-0.786264	-0.594038
C62	C	0.123844	-0.818173	-0.562204
C63	C	0.187649	-0.887156	-0.594210
C64	C	0.094520	-0.786466	-0.500846
C65	C	0.035677	-0.722847	-0.471326
C66	C	0.006157	-0.690938	-0.503160
C67	C	-0.251724	-0.435433	-0.277314
C68	C	-0.286026	-0.405910	-0.213691
C69	C	-0.256587	-0.437743	-0.181780
C70	C	-0.293772	-0.405734	-0.112797
C71	C	-0.192853	-0.499099	-0.213482
C72	C	-0.158551	-0.528624	-0.277103
C73	C	-0.187989	-0.496789	-0.309016
O74	O	0.074798	-0.352933	0.015296
O75	O	-0.074835	-0.278111	-0.015227
O76	O	-0.074828	-0.278128	0.090111
O77	O	0.074791	-0.352916	-0.090042
O78	O	-0.074823	-0.363696	0.090101
O79	O	-0.074829	-0.363679	-0.015237
O80	O	0.074803	-0.438501	0.015286
Cu81	Cu	-0.000013	-0.408903	0.000023
Cu82	Cu	-0.000019	-0.307709	0.000035
O83	O	0.074796	-0.438483	-0.090053
O84	O	-0.453797	0.090091	0.015329
O85	O	-0.348447	-0.090066	-0.015215
O86	O	-0.453787	0.015262	0.090132
O87	O	-0.348457	-0.015237	-0.090018
O88	O	-0.368224	0.015263	0.090135
O89	O	-0.262884	-0.090065	-0.015212
O90	O	-0.368234	0.090092	0.015332
Cu91	Cu	-0.307746	0.000013	0.000060
Cu92	Cu	-0.408934	0.000012	0.000057
O93	O	-0.262894	-0.015236	-0.090015
O94	O	0.358156	-1.090059	-0.636255
O95	O	0.208535	-0.909907	-0.561448
O96	O	0.208531	-1.015247	-0.561443
O97	O	0.358161	-0.984719	-0.636260
O98	O	0.208529	-1.015245	-0.647007
O99	O	0.208533	-0.909905	-0.647012
O100	O	0.358154	-1.090057	-0.721819
Cu101	Cu	0.283344	-0.999981	-0.692228
Cu102	Cu	0.283346	-0.999983	-0.591039
O103	O	0.358159	-0.984717	-0.721824
O104	O	-0.368212	-0.363677	-0.721856
O105	O	-0.262875	-0.438488	-0.647037
O106	O	-0.368216	-0.438489	-0.647036
O107	O	-0.262871	-0.363676	-0.721856
O108	O	-0.453778	-0.352925	-0.561477
O109	O	-0.348436	-0.352925	-0.561477
O110	O	-0.453774	-0.278113	-0.636296
Cu111	Cu	-0.408918	-0.307706	-0.591074
Cu112	Cu	-0.307731	-0.408895	-0.692259
O113	O	-0.348433	-0.278112	-0.636297
C114	C	-0.554666	-0.184166	0.277344
C115	C	-0.618156	-0.116307	0.309086
C116	C	-0.523858	-0.215411	0.308450
C117	C	-0.461510	-0.277325	0.184189
C118	C	-0.425396	-0.309070	0.116330
C119	C	-0.430843	-0.308428	0.215437
C120	C	-0.461510	-0.277324	0.277350
C121	C	-0.425397	-0.309070	0.309098
C122	C	-0.523857	-0.215412	0.215431
C123	C	-0.255130	-0.277363	0.277343
C124	C	-0.291242	-0.309114	0.309081
C125	C	-0.285803	-0.215450	0.308451
C126	C	-0.161971	-0.277351	0.184193
C127	C	-0.098477	-0.309090	0.116334
C128	C	-0.192785	-0.215438	0.215442
C129	C	-0.255136	-0.184199	0.277354
C130	C	-0.291255	-0.116340	0.309104
C131	C	-0.192779	-0.308460	0.215431
C132	C	-0.461509	0.022180	0.277376
C133	C	-0.425392	0.017806	0.309121
C134	C	-0.523855	0.022610	0.308478
C135	C	-0.461517	0.022195	0.184220
C136	C	-0.425407	0.017837	0.116362
C137	C	-0.523863	0.022624	0.215463
C138	C	-0.554668	0.022179	0.277374
C139	C	-0.618156	0.017804	0.309117
C140	C	-0.430846	0.022625	0.215465
C141	C	0.434156	-0.621914	-0.471151
C142	C	0.464823	-0.590664	-0.502248
C143	C	0.340991	-0.528763	-0.377990
C144	C	0.371799	-0.497654	-0.409228
C145	C	0.434150	-0.528751	-0.471140
C146	C	0.371805	-0.590676	-0.409239
C147	C	0.441479	-0.722605	-0.470920
C148	C	0.475579	-0.786226	-0.500249
C149	C	0.539323	-0.818129	-0.561594
C150	C	0.576301	-0.887111	-0.593396
C151	C	0.568972	-0.786416	-0.593622
C152	C	0.534873	-0.722797	-0.564296
C153	C	0.471129	-0.690894	-0.502945
C154	C	0.535079	-0.528981	-0.564498
C155	C	0.569374	-0.499652	-0.594017
C156	C	0.539931	-0.438305	-0.562180
C157	C	0.577115	-0.406502	-0.594182
C158	C	0.476187	-0.406277	-0.500823
C159	C	0.441892	-0.435604	-0.471307
C160	C	0.471340	-0.496956	-0.503144
C161	C	0.247863	-0.529017	-0.277312
C162	C	0.189015	-0.499702	-0.213689
C163	C	0.159496	-0.438355	-0.181776
C164	C	0.095686	-0.406565	-0.112794
C165	C	0.188819	-0.406318	-0.213474
C166	C	0.247667	-0.435631	-0.277094
C167	C	0.277186	-0.496981	-0.309011
O168	O	-0.368251	0.090052	0.352965
O169	O	-0.262887	-0.090103	0.278147
O170	O	-0.368247	0.015231	0.278157
O171	O	-0.262891	-0.015281	0.352955
O172	O	-0.453794	0.015213	0.363724
O173	O	-0.348434	-0.090120	0.363714
O174	O	-0.453798	0.090035	0.438531
Cu175	Cu	-0.408927	-0.000044	0.408935
Cu176	Cu	-0.307758	-0.000023	0.307743
O177	O	-0.348438	-0.015298	0.438522
C178	C	-0.057691	-0.036940	-0.471113
C179	C	-0.088504	-0.037371	-0.502216
C180	C	-0.150842	-0.036956	-0.377958
C181	C	-0.181513	-0.037386	-0.409202
C182	C	-0.150850	-0.036941	-0.471114
C183	C	-0.088495	-0.037386	-0.409201
C184	C	0.035435	-0.029379	-0.470869
C185	C	0.094283	-0.024603	-0.500191
C186	C	0.123793	-0.022199	-0.561537
C187	C	0.187597	-0.017016	-0.593332
C188	C	0.094465	-0.024577	-0.593570
C189	C	0.035623	-0.029356	-0.564250
C190	C	0.006108	-0.031755	-0.502900
C191	C	-0.158177	-0.029366	-0.564478
C192	C	-0.192276	-0.024590	-0.594003
C193	C	-0.256015	-0.022202	-0.562172
C194	C	-0.292993	-0.017020	-0.594180
C195	C	-0.285661	-0.024595	-0.500816
C196	C	-0.251562	-0.029374	-0.471294
C197	C	-0.187822	-0.031757	-0.503125
C198	C	-0.158151	-0.029412	-0.277275
C199	C	-0.192247	-0.024642	-0.213652
C200	C	-0.255986	-0.022254	-0.181744
C201	C	-0.292955	-0.017088	-0.112763
C202	C	-0.285640	-0.024630	-0.213449
C203	C	-0.251549	-0.029396	-0.277069
C204	C	-0.187805	-0.031787	-0.308979
H205	H	-0.653986	-0.446831	0.038193
H206	H	-0.549646	-0.190324	0.359321
C207	C	-0.356129	-0.338417	-0.178825
N208	N	-0.408933	-0.287579	-0.152562
C209	C	-0.353587	-0.181515	-0.023555
N210	N	-0.404638	-0.155989	-0.024265
C211	C	-0.363065	-0.377150	0.181551
N212	N	-0.312017	-0.428910	0.156029
H213	H	-0.549629	0.023293	0.359344
H214	H	0.011808	-0.697031	-0.421371
H215	H	0.011451	-0.696664	-0.590443
C216	C	0.156343	-0.338829	-0.178366
N217	N	0.131877	-0.287996	-0.151921
C218	C	-0.556212	-0.821576	0.022121
N219	N	-0.580611	-0.848015	0.020149
H220	H	0.621272	-0.525735	-0.643974
C221	C	0.336977	-0.624573	-0.375356
N222	N	0.310746	-0.650104	-0.349834
C223	C	-0.363068	0.023574	0.181578
N224	N	-0.312020	0.024288	0.156054
H225	H	-0.166991	-0.359301	-0.023326
C226	C	0.126577	-0.821135	-0.661529
N227	N	0.150869	-0.847405	-0.712363
H228	H	0.118562	-0.812456	-0.474929
C229	C	0.532605	-0.624547	-0.570969
N230	N	0.583658	-0.650067	-0.622727
H231	H	-0.167006	-0.190317	-0.023308
H232	H	-0.549632	-0.190317	0.190340
C233	C	-0.088440	-0.596116	-0.311975
N234	N	-0.035631	-0.646951	-0.338241
H235	H	-0.167002	-0.190349	0.190358
H236	H	-0.728458	-0.409582	0.031426
C237	C	-0.663031	-0.624615	0.038431
N238	N	-0.689250	-0.650149	0.039117
C239	C	-0.467414	-0.624605	0.038453
N240	N	-0.416365	-0.650129	0.039165
H241	H	-0.275697	-0.409506	-0.303297
H242	H	-0.335971	-0.190375	0.359322
C243	C	-0.157938	-0.377184	0.181539
N244	N	-0.131695	-0.428945	0.156011
C245	C	0.336968	-0.428935	-0.375330
N246	N	0.310738	-0.377180	-0.349798
H247	H	-0.168884	-0.525021	-0.187493
H248	H	-0.378733	-0.525806	0.022792
H249	H	-0.440960	-0.578997	0.031467
H250	H	-0.549654	0.023338	0.190378
H251	H	0.165143	-0.525791	-0.187887
C252	C	-0.249243	-0.428973	-0.375358
N253	N	-0.300290	-0.377213	-0.349836
H254	H	0.271893	-0.578970	-0.303297
C255	C	-0.284169	-0.032011	-0.311944
N256	N	-0.308740	-0.033981	-0.338211
H257	H	0.389573	-0.696631	-0.420966
H258	H	-0.275701	-0.409506	-0.420964
C259	C	-0.088057	-0.031995	-0.599500
N260	N	-0.035244	-0.033972	-0.625878
C261	C	0.442964	-0.821105	-0.465016
N262	N	0.418398	-0.847377	-0.438479
C263	C	0.639100	-0.821518	-0.661107
N264	N	0.691920	-0.847954	-0.711937
H265	H	0.559012	-0.696976	-0.590376
C266	C	0.443802	-0.338789	-0.465802
N267	N	0.419408	-0.287958	-0.439422
C268	C	-0.053654	-0.038341	-0.375315
N269	N	-0.027411	-0.039064	-0.349793
H270	H	0.118501	-0.022619	-0.643525
H271	H	-0.062662	-0.615791	-0.553131
H272	H	-0.440960	-0.696667	0.031469
C273	C	-0.360531	-0.821139	0.022135
N274	N	-0.307722	-0.847406	0.020163
C275	C	-0.356133	-0.338417	-0.465009
N276	N	-0.408942	-0.287581	-0.438469
C277	C	-0.843252	-0.534964	0.022122
N278	N	-0.867554	-0.561502	0.020157
H279	H	-0.337547	-0.022681	-0.187463
H280	H	-0.168130	-0.022644	-0.643960
C281	C	-0.843650	-0.338856	0.022072
N282	N	-0.868102	-0.288025	0.020080
H283	H	-0.609997	-0.409582	0.031417
H284	H	0.559055	-0.578934	-0.590429
C285	C	-0.159622	-0.022031	-0.178782
N286	N	-0.135051	-0.020062	-0.152515
H287	H	0.389991	-0.409526	-0.421351
C288	C	0.126536	-0.021984	-0.464952
N289	N	0.150832	-0.020014	-0.438410
C290	C	-0.355783	-0.021964	-0.465801
N291	N	-0.408599	-0.019982	-0.439426
H292	H	0.271541	-0.409543	-0.302902
H293	H	-0.231682	-0.038091	-0.384116
C294	C	-0.160467	-0.534112	-0.661110
N295	N	-0.136079	-0.560488	-0.711940
H296	H	-0.610018	-0.697037	0.031453
H297	H	-0.547764	-0.356390	0.022747
H298	H	-0.062719	-0.038064	-0.553085
H299	H	-0.106245	-0.031362	-0.303254
H300	H	0.011411	-0.031339	-0.420916
H301	H	-0.728117	-0.579003	0.031460
C302	C	-0.088435	-0.596110	-0.599533
N303	N	-0.035626	-0.646945	-0.626070
H304	H	-0.062669	-0.615797	-0.384149
H305	H	0.011738	-0.031283	-0.590330
H306	H	-0.275698	-0.031326	-0.421339
