data_functionalizedCrystal
_audit_creation_method	'MofGen! by Chris Wilmer'
_symmetry_space_group_name_H-M	'P1'
_symmetry_Int_Tables_number	1
_symmetry_cell_setting	triclinic
loop_
_symmetry_equiv_pos_as_xyz
  x,y,z
_cell_length_a	11.792241
_cell_length_b	19.288865
_cell_length_c	17.766277
_cell_angle_alpha	89.988397
_cell_angle_beta	89.994854
_cell_angle_gamma	83.664832
loop_
_atom_site_label
_atom_site_type_symbol
_atom_site_fract_x
_atom_site_fract_y
_atom_site_fract_z
O1	O	1.505473	0.095201	-0.062531
O2	O	2.005473	0.595201	0.437469
O3	O	1.174983	0.105012	-0.062549
O4	O	1.674983	0.605012	0.437451
O5	O	1.349777	-0.000970	-0.062524
O6	O	1.849777	0.499030	0.437476
O7	O	1.330678	0.201183	-0.062555
O8	O	1.830678	0.701183	0.437445
O9	O	1.349747	-0.000975	0.062664
O10	O	1.849747	0.499025	0.562664
O11	O	1.174952	0.105007	0.062639
O12	O	1.674952	0.605007	0.562639
O13	O	1.505442	0.095195	0.062658
O14	O	2.005442	0.595195	0.562658
Cu15	Cu	1.340194	0.100100	0.074079
Cu16	Cu	1.840194	0.600100	0.574079
Cu17	Cu	1.340230	0.100107	-0.073971
Cu18	Cu	1.840230	0.600107	0.426029
O19	O	1.330647	0.201177	0.062633
O20	O	1.830647	0.701177	0.562633
C21	C	1.349147	-0.026852	0.000072
C22	C	1.849147	0.473148	0.500072
C23	C	1.347303	-0.103966	0.000079
C24	C	1.847303	0.396034	0.500079
C25	C	1.132686	0.104393	0.000043
C26	C	1.632686	0.604393	0.500043
C27	C	1.006700	0.102548	0.000037
C28	C	1.506700	0.602548	0.500037
C29	C	1.449864	-0.148080	0.000088
C30	C	1.949864	0.351920	0.500088
C31	C	1.448131	-0.220537	0.000076
C32	C	1.948131	0.279463	0.500076
C33	C	1.343830	-0.248877	0.000070
C34	C	1.843830	0.251123	0.500070
C35	C	1.241255	-0.204754	0.000056
C36	C	1.741255	0.295246	0.500056
C37	C	1.242992	-0.132298	0.000060
C38	C	1.742992	0.367702	0.500060
C39	C	1.261827	-0.357632	0.043916
C40	C	1.761827	0.142368	0.543916
C41	C	1.260096	-0.430086	0.043916
C42	C	1.760096	0.069914	0.543916
C43	C	1.338472	-0.472353	0.000053
C44	C	1.838472	0.027647	0.500053
C45	C	1.418599	-0.442158	-0.043802
C46	C	1.918599	0.057842	0.456198
C47	C	1.420335	-0.369703	-0.043797
C48	C	1.920335	0.130297	0.456203
C49	C	1.341936	-0.327442	0.000064
C50	C	1.841936	0.172558	0.500064
C51	C	1.439161	-0.595033	0.000048
C52	C	1.939161	-0.095033	0.500048
C53	C	1.437423	-0.667491	0.000031
C54	C	1.937423	-0.167491	0.500031
C55	C	1.230545	-0.651706	0.000019
C56	C	1.730545	-0.151706	0.500019
C57	C	1.232285	-0.579250	0.000028
C58	C	1.732285	-0.079250	0.500028
C59	C	1.336596	-0.550918	0.000046
C60	C	1.836596	-0.050918	0.500046
C61	C	0.776039	0.099156	0.000059
C62	C	1.276039	0.599156	0.500059
C63	C	0.904396	0.101041	0.000047
C64	C	1.404396	0.601041	0.500047
C65	C	1.547739	0.095814	0.000064
C66	C	2.047739	0.595814	0.500064
C67	C	1.673725	0.097659	0.000066
C68	C	2.173725	0.597659	0.500066
C69	C	1.331277	0.227060	0.000035
C70	C	1.831277	0.727060	0.500035
C71	C	1.333122	0.304174	0.000024
C72	C	1.833122	0.804174	0.500024
N73	N	1.340177	0.100095	0.178210
N74	N	1.840177	0.600095	0.678210
N75	N	1.340257	0.100107	-0.178101
N76	N	1.840257	0.600107	0.321899
C77	C	1.417601	0.053190	0.217608
C78	C	1.917601	0.553190	0.717608
C79	C	1.417607	0.053187	0.296409
C80	C	1.917607	0.553187	0.796409
C81	C	1.340201	0.100101	0.335810
C82	C	1.840201	0.600101	0.835810
C83	C	1.262763	0.147010	0.296403
C84	C	1.762763	0.647010	0.796403
C85	C	1.262751	0.147007	0.217603
C86	C	1.762751	0.647007	0.717603
C87	C	1.325007	0.163302	0.460638
C88	C	1.825007	0.663302	0.960638
C89	C	1.325027	0.163306	0.539437
C90	C	1.825027	0.663306	1.039437
C91	C	1.340231	0.100110	0.578857
C92	C	1.840231	0.600110	1.078857
C93	C	1.355440	0.036907	0.539468
C94	C	1.855440	0.536907	1.039468
C95	C	1.355428	0.036904	0.460667
C96	C	1.855428	0.536904	0.960667
C97	C	1.340205	0.100109	0.421256
C98	C	1.840205	0.600109	0.921256
C99	C	1.417667	0.053197	0.703700
C100	C	1.917667	0.553197	1.203700
C101	C	1.417665	0.053193	0.782504
C102	C	1.917665	0.553193	1.282504
C103	C	1.262826	0.147022	0.782496
C104	C	1.762826	0.647022	1.282496
C105	C	1.262822	0.147020	0.703694
C106	C	1.762822	0.647020	1.203694
C107	C	1.340248	0.100108	0.664301
C108	C	1.840248	0.600108	1.164301
H109	H	1.534802	-0.125017	0.000100
H110	H	2.034802	0.374983	0.500100
C111	C	1.177589	0.198610	0.174263
C112	C	1.677589	0.698610	0.674263
H113	H	1.131491	0.226554	0.209012
H114	H	1.631491	0.726554	0.709012
H115	H	1.130475	0.173431	0.143532
H116	H	1.630475	0.673431	0.643532
H117	H	1.218271	0.227694	0.143515
H118	H	1.718271	0.727694	0.643515
C119	C	1.372139	-0.032612	0.417340
C120	C	1.872139	0.467388	0.917340
H121	H	1.381352	-0.070250	0.452095
H122	H	1.881352	0.429750	0.952095
H123	H	1.438128	-0.033705	0.386507
H124	H	1.938128	0.466295	0.886507
H125	H	1.307223	-0.036772	0.386695
H126	H	1.807223	0.463228	0.886695
H127	H	1.148769	-0.543331	0.000024
H128	H	1.648769	-0.043331	0.500024
H129	H	1.159471	-0.096380	0.000053
H130	H	1.659471	0.403620	0.500053
C131	C	1.175607	-0.311145	0.092168
C132	C	1.675607	0.188855	0.592168
H133	H	1.127651	-0.339505	0.118292
H134	H	1.627651	0.160495	0.618292
H135	H	1.130465	-0.279377	0.060549
H136	H	1.630465	0.220623	0.560549
H137	H	1.215521	-0.285883	0.127443
H138	H	1.715521	0.214117	0.627443
H139	H	1.485575	-0.345121	-0.079506
H140	H	1.985575	0.154879	0.420494
H141	H	1.480709	0.014996	0.671625
H142	H	1.980709	0.514996	1.171625
C143	C	1.126528	-0.235925	0.000052
C144	C	1.626528	0.264075	0.500052
H145	H	1.140183	-0.285395	0.000058
H146	H	1.640183	0.214605	0.500058
H147	H	1.084322	-0.220800	-0.043606
H148	H	1.584322	0.279200	0.456394
H149	H	1.084305	-0.220816	0.043711
H150	H	1.584305	0.279184	0.543711
C151	C	1.115813	-0.682868	0.000009
C152	C	1.615813	-0.182868	0.500009
H153	H	1.054978	-0.646215	0.000001
H154	H	1.554978	-0.146215	0.500001
H155	H	1.110821	-0.710817	0.043661
H156	H	1.610821	-0.210817	0.543661
H157	H	1.110850	-0.710792	-0.043657
H158	H	1.610850	-0.210792	0.456343
H159	H	1.194847	-0.454665	0.079620
H160	H	1.694847	0.045335	0.579620
C161	C	1.177621	0.198616	0.339740
C162	C	1.677621	0.698616	0.839740
H163	H	1.188724	0.191905	0.392314
H164	H	1.688724	0.691905	0.892314
H165	H	1.101915	0.190761	0.326841
H166	H	1.601915	0.690761	0.826841
H167	H	1.189710	0.245025	0.326810
H168	H	1.689710	0.745025	0.826810
H169	H	1.312650	0.214770	0.571501
H170	H	1.812650	0.714770	1.071501
C171	C	1.504811	-0.488641	-0.092059
C172	C	2.004811	0.011359	0.407941
H173	H	1.492295	-0.536116	-0.085791
H174	H	1.992295	-0.036116	0.414209
H175	H	1.580184	-0.482503	-0.076636
H176	H	2.080184	0.017497	0.423364
H177	H	1.495122	-0.475988	-0.143527
H178	H	1.995122	0.024012	0.356473
H179	H	1.480657	0.014989	0.328493
H180	H	1.980657	0.514989	0.828493
C181	C	1.560952	-0.269071	0.000092
C182	C	2.060952	0.230929	0.500092
H183	H	1.623323	-0.241820	0.000108
H184	H	2.123323	0.258180	0.500108
H185	H	1.564593	-0.297658	-0.043563
H186	H	2.064593	0.202342	0.456437
H187	H	1.564551	-0.297669	0.043754
H188	H	2.064551	0.202331	0.543754
H189	H	1.524097	-0.571964	0.000059
H190	H	2.024097	-0.071964	0.500059
C191	C	1.177666	0.198624	0.660354
C192	C	1.677666	0.698624	1.160354
H193	H	1.131572	0.226569	0.695104
H194	H	1.631572	0.726569	1.195104
H195	H	1.130550	0.173445	0.629625
H196	H	1.630550	0.673445	1.129625
H197	H	1.218347	0.227707	0.629604
H198	H	1.718347	0.727707	1.129604
C199	C	1.502838	0.001595	0.825842
C200	C	2.002838	0.501595	1.325842
H201	H	1.548953	-0.026337	0.791092
H202	H	2.048953	0.473663	1.291092
H203	H	1.462177	-0.027490	0.856594
H204	H	1.962177	0.472510	1.356594
H205	H	1.549951	0.026786	0.856568
H206	H	2.049951	0.526786	1.356568
C207	C	1.308274	0.232821	0.417280
C208	C	1.808274	0.732821	0.917280
H209	H	1.310431	0.223768	0.364709
H210	H	1.810431	0.723768	0.864709
H211	H	1.367484	0.260286	0.430177
H212	H	1.867484	0.760286	0.930177
H213	H	1.236561	0.257291	0.430199
H214	H	1.736561	0.757291	0.930199
H215	H	1.520945	-0.703409	0.000035
H216	H	2.020945	-0.203409	0.500035
C217	C	1.177679	0.198627	0.825827
C218	C	1.677679	0.698627	1.325827
H219	H	1.188778	0.191914	0.878401
H220	H	1.688778	0.691914	1.378401
H221	H	1.101975	0.190772	0.812924
H222	H	1.601975	0.690772	1.312924
H223	H	1.189770	0.245036	0.812899
H224	H	1.689770	0.745036	1.312899
C225	C	1.502754	0.001582	0.174279
C226	C	2.002754	0.501582	0.674279
H227	H	1.548859	-0.026359	0.209034
H228	H	2.048859	0.473641	0.709034
H229	H	1.549862	0.026758	0.143523
H230	H	2.049862	0.526758	0.643523
H231	H	1.462066	-0.027505	0.143557
H232	H	1.962066	0.472495	0.643557
C233	C	1.372156	-0.032614	0.582818
C234	C	1.872156	0.467386	1.082818
H235	H	1.369971	-0.023563	0.635390
H236	H	1.869971	0.476437	1.135390
H237	H	1.443859	-0.057090	0.569906
H238	H	1.943859	0.442910	1.069906
H239	H	1.312933	-0.060071	0.569914
H240	H	1.812933	0.439929	1.069914
