data_functionalizedCrystal
_audit_creation_method	'MofGen! by Chris Wilmer'
_symmetry_space_group_name_H-M	'P1'
_symmetry_Int_Tables_number	1
_symmetry_cell_setting	triclinic
loop_
_symmetry_equiv_pos_as_xyz
  x,y,z
_cell_length_a	33.428889
_cell_length_b	33.428139
_cell_length_c	33.424847
_cell_angle_alpha	60.004234
_cell_angle_beta	60.008465
_cell_angle_gamma	59.994972
loop_
_atom_site_label
_atom_site_type_symbol
_atom_site_fract_x
_atom_site_fract_y
_atom_site_fract_z
O1	O	0.055565	-0.584504	0.488714
O2	O	0.555565	-0.084504	0.988714
O3	O	0.020982	-0.455083	0.393778
O4	O	0.520982	0.044917	0.893778
O5	O	0.102943	-0.536959	0.393689
O6	O	0.602943	-0.036959	0.893689
O7	O	-0.026396	-0.502628	0.488803
O8	O	0.473604	-0.002628	0.988803
O9	O	0.130140	-0.509767	0.420792
O10	O	0.630140	-0.009767	0.920792
O11	O	0.048179	-0.427891	0.420881
O12	O	0.548179	0.072109	0.920881
O13	O	0.082762	-0.557312	0.515817
O14	O	0.582762	-0.057312	1.015817
Cu15	Cu	0.067954	-0.490119	0.470823
Cu16	Cu	0.567954	0.009881	0.970823
Cu17	Cu	0.035790	-0.522276	0.438771
Cu18	Cu	0.535790	-0.022276	0.938771
O19	O	0.000801	-0.475436	0.515906
O20	O	0.500801	0.024564	1.015906
N21	N	0.090577	-0.467504	0.493370
N22	N	0.590577	0.032496	0.993370
N23	N	0.013171	-0.544895	0.416225
N24	N	0.513171	-0.044895	0.916225
C25	C	0.143377	-0.280390	0.546067
C26	C	0.643377	0.219610	1.046067
C27	C	0.143515	-0.414755	0.680369
C28	C	0.643515	0.085245	1.180369
C29	C	0.143392	-0.414735	0.546069
C30	C	0.643392	0.085265	1.046069
C31	C	0.277766	-0.414702	0.545966
C32	C	0.777766	0.085298	1.045966
C33	C	0.158177	-0.324719	0.560828
C34	C	0.658177	0.175281	1.060828
C35	C	0.158255	-0.399967	0.636038
C36	C	0.658255	0.100033	1.136038
C37	C	0.233434	-0.399936	0.560773
C38	C	0.733434	0.100064	1.060773
C39	C	0.158186	-0.399955	0.560829
C40	C	0.658186	0.100045	1.060829
C41	C	0.124540	-0.223964	0.527278
C42	C	0.624540	0.276036	1.027278
C43	C	0.124565	-0.433545	0.527281
C44	C	0.624565	0.066455	1.027281
C45	C	0.177014	-0.381145	0.579617
C46	C	0.677014	0.118855	1.079617
C47	C	0.359814	-0.400540	0.502735
C48	C	0.859814	0.099460	1.002735
C49	C	0.411105	-0.417624	0.485606
C50	C	0.911105	0.082376	0.985606
C51	C	0.411136	-0.500620	0.517255
C52	C	0.911136	-0.000620	1.017255
C53	C	0.359845	-0.483534	0.534385
C54	C	0.859845	0.016466	1.034385
C55	C	0.136887	-0.198305	0.476855
C56	C	0.636887	0.301695	0.976855
C57	C	0.119761	-0.147011	0.459777
C58	C	0.619761	0.352989	0.959777
C59	C	0.077945	-0.147038	0.543547
C60	C	0.577945	0.352962	1.043547
C61	C	0.095072	-0.198332	0.560625
C62	C	0.595072	0.301668	1.060625
C63	C	0.074134	-0.421169	0.539710
C64	C	0.574134	0.078831	1.039710
C65	C	0.057023	-0.438269	0.522625
C66	C	0.557023	0.061731	1.022625
C67	C	0.140770	-0.480120	0.480694
C68	C	0.640770	0.019880	0.980694
C69	C	0.157883	-0.463020	0.497773
C70	C	0.657883	0.036980	0.997773
C71	C	0.074339	-0.421208	0.762475
C72	C	0.574339	0.078792	1.262475
C73	C	0.057288	-0.438323	0.813768
C74	C	0.557288	0.061677	1.313768
C75	C	0.141075	-0.480183	0.813699
C76	C	0.641075	0.019817	1.313699
C77	C	0.158125	-0.463069	0.762404
C78	C	0.658125	0.036931	1.262404
C79	C	0.124756	-0.433580	0.736794
C80	C	0.624756	0.066420	1.236794
C81	C	0.334186	-0.433494	0.527123
C82	C	0.834186	0.066506	1.027123
C83	C	-0.173769	-0.597444	0.363037
C84	C	0.326231	-0.097444	0.863037
C85	C	-0.039302	-0.597595	0.228856
C86	C	0.460698	-0.097595	0.728856
C87	C	-0.039496	-0.597587	0.363300
C88	C	0.460504	-0.097587	0.863300
C89	C	-0.039512	-0.731889	0.363237
C90	C	0.460488	-0.231889	0.863237
C91	C	-0.129442	-0.612265	0.348329
C92	C	0.370558	-0.112265	0.848329
C93	C	-0.054138	-0.612351	0.273187
C94	C	0.445862	-0.112351	0.773187
C95	C	-0.054257	-0.687554	0.348440
C96	C	0.445743	-0.187554	0.848440
C97	C	-0.054247	-0.612346	0.348477
C98	C	0.445753	-0.112346	0.848477
C99	C	-0.230191	-0.578579	0.381758
C100	C	0.269809	-0.078579	0.881758
C101	C	-0.020722	-0.578803	0.382168
C102	C	0.479278	-0.078803	0.882168
C103	C	-0.073020	-0.631130	0.329609
C104	C	0.426980	-0.131130	0.829609
C105	C	-0.053713	-0.813916	0.406386
C106	C	0.446287	-0.313916	0.906386
C107	C	-0.036654	-0.865210	0.423504
C108	C	0.463346	-0.365210	0.923504
C109	C	0.046338	-0.865293	0.391984
C110	C	0.546338	-0.365293	0.891984
C111	C	0.029278	-0.813999	0.374865
C112	C	0.529278	-0.313999	0.874865
C113	C	-0.255900	-0.590938	0.432169
C114	C	0.244100	-0.090938	0.932169
C115	C	-0.307191	-0.573786	0.449185
C116	C	0.192809	-0.073786	0.949185
C117	C	-0.307060	-0.531922	0.365377
C118	C	0.192940	-0.031922	0.865377
C119	C	-0.255769	-0.549074	0.348360
C120	C	0.244231	-0.049074	0.848360
C121	C	-0.033081	-0.528377	0.369764
C122	C	0.466919	-0.028377	0.869764
C123	C	-0.016014	-0.511306	0.386922
C124	C	0.483986	-0.011306	0.886922
C125	C	0.025770	-0.595083	0.428877
C126	C	0.525770	-0.095083	0.928877
C127	C	0.008703	-0.612156	0.411725
C128	C	0.508703	-0.112156	0.911725
C129	C	-0.032755	-0.528393	0.146761
C130	C	0.467245	-0.028393	0.646761
C131	C	-0.015585	-0.511324	0.095468
C132	C	0.484415	-0.011324	0.595468
C133	C	0.026262	-0.595106	0.095516
C134	C	0.526262	-0.095106	0.595516
C135	C	0.009094	-0.612174	0.146811
C136	C	0.509094	-0.112174	0.646811
C137	C	-0.020417	-0.578816	0.172432
C138	C	0.479583	-0.078816	0.672432
C139	C	-0.020748	-0.788312	0.382068
C140	C	0.479252	-0.288312	0.882068
N141	N	0.436037	-0.467415	0.493101
N142	N	0.936037	0.032585	0.993101
O143	O	0.592642	-0.471896	0.376066
O144	O	1.092642	0.028104	0.876066
O145	O	0.592838	-0.567146	0.505347
O146	O	1.092838	-0.067146	1.005347
O147	O	0.592754	-0.566928	0.423360
O148	O	1.092754	-0.066928	0.923360
O149	O	0.592727	-0.472113	0.458053
O150	O	1.092727	0.027887	0.958053
O151	O	0.511269	-0.539835	0.450606
O152	O	1.011269	-0.039835	0.950606
O153	O	0.511353	-0.540052	0.532594
O154	O	1.011353	-0.040052	1.032594
O155	O	0.511157	-0.444802	0.403312
O156	O	1.011157	0.055198	0.903312
Cu157	Cu	0.503815	-0.489954	0.470441
Cu158	Cu	1.003815	0.010046	0.970441
Cu159	Cu	0.600180	-0.521995	0.438219
Cu160	Cu	1.100180	-0.021995	0.938219
O161	O	0.511242	-0.445020	0.485300
O162	O	1.011242	0.054980	0.985300
N163	N	0.667959	-0.544533	0.415554
N164	N	1.167959	-0.044533	0.915554
N165	N	0.090544	-0.122107	0.493359
N166	N	0.590544	0.377893	0.993359
O167	O	-0.026406	0.034587	0.488773
O168	O	0.473594	0.534587	0.988773
O169	O	0.102877	0.034627	0.393499
O170	O	0.602877	0.534627	0.893499
O171	O	0.020848	0.034591	0.393771
O172	O	0.520848	0.534591	0.893771
O173	O	0.055623	0.034623	0.488500
O174	O	0.555623	0.534623	0.988500
O175	O	0.048051	-0.046899	0.420925
O176	O	0.548051	0.453101	0.920925
O177	O	0.130080	-0.046864	0.420653
O178	O	0.630080	0.453136	0.920653
O179	O	0.000796	-0.046903	0.515927
O180	O	0.500796	0.453097	1.015927
Cu181	Cu	0.067922	-0.054324	0.470769
Cu182	Cu	0.567922	0.445676	0.970769
Cu183	Cu	0.035752	0.042048	0.438656
Cu184	Cu	0.535752	0.542048	0.938656
O185	O	0.082825	-0.046867	0.515655
O186	O	0.582825	0.453133	1.015655
N187	N	0.013123	0.109830	0.416068
N188	N	0.513123	0.609830	0.916068
N189	N	0.090892	-0.467554	0.838649
N190	N	0.590892	0.032446	1.338649
O191	O	0.086330	-0.584488	0.995334
O192	O	0.586330	-0.084488	1.495334
O193	O	-0.008902	-0.455160	0.995379
O194	O	0.491098	0.044840	1.495379
O195	O	-0.008679	-0.537172	0.995355
O196	O	0.491321	-0.037172	1.495355
O197	O	0.086107	-0.502475	0.995358
O198	O	0.586107	-0.002475	1.495358
O199	O	0.018452	-0.509990	0.913868
O200	O	0.518452	-0.009990	1.413868
O201	O	0.018230	-0.427978	0.913891
O202	O	0.518230	0.072022	1.413891
O203	O	0.113461	-0.557306	0.913847
O204	O	0.613461	-0.057306	1.413847
Cu205	Cu	0.068323	-0.490160	0.906429
Cu206	Cu	0.568323	0.009840	1.406429
Cu207	Cu	0.036237	-0.522306	1.002797
Cu208	Cu	0.536237	-0.022306	1.502797
O209	O	0.113239	-0.475293	0.913870
O210	O	0.613239	0.024707	1.413870
N211	N	0.013667	-0.544916	1.070577
N212	N	0.513667	-0.044916	1.570577
C213	C	0.031339	-0.425179	0.394250
C214	C	0.531339	0.074821	0.894250
C215	C	0.132837	-0.526572	0.394139
C216	C	0.632837	-0.026572	0.894139
C217	C	0.072405	-0.587216	0.515344
C218	C	0.572405	-0.087216	1.015344
C219	C	-0.029093	-0.485823	0.515455
C220	C	0.470907	0.014177	1.015455
C221	C	0.552119	-0.566716	0.535258
C222	C	1.052119	-0.066716	1.035258
C223	C	0.552016	-0.566447	0.433726
C224	C	1.052016	-0.066447	0.933726
C225	C	0.551873	-0.445232	0.373402
C226	C	1.051873	0.054768	0.873402
C227	C	0.551980	-0.445502	0.474933
C228	C	1.051980	0.054498	0.974933
C229	C	0.132731	-0.006013	0.393923
C230	C	0.632731	0.493987	0.893923
C231	C	0.031182	-0.006158	0.394293
C232	C	0.531182	0.493842	0.894293
C233	C	-0.029092	-0.006163	0.515469
C234	C	0.470908	0.493837	1.015469
C235	C	0.072491	-0.006119	0.515133
C236	C	0.572491	0.493881	1.015133
C237	C	-0.008451	-0.425276	0.954641
C238	C	0.491549	0.074724	1.454641
C239	C	-0.008170	-0.526833	0.954596
C240	C	0.491830	-0.026833	1.454596
C241	C	0.113010	-0.587190	0.954585
C242	C	0.613010	-0.087190	1.454585
C243	C	0.112735	-0.485627	0.954611
C244	C	0.612735	0.014373	1.454611
H245	H	0.016234	-0.428240	0.834672
H246	H	0.516234	0.071760	1.334672
H247	H	0.552029	-0.596233	0.426301
H248	H	1.052029	-0.096233	0.926301
C249	C	0.551965	-0.405263	0.484958
C250	C	1.051965	0.094737	0.984958
H251	H	0.552003	-0.417240	0.517394
H252	H	1.052003	0.082760	1.017394
H253	H	0.580354	-0.396310	0.462334
H254	H	1.080354	0.103690	0.962334
H255	H	0.523519	-0.377414	0.481340
H256	H	1.023519	0.122586	0.981340
H257	H	0.169783	-0.005775	0.363939
H258	H	0.669783	0.494225	0.863939
H259	H	0.023949	-0.388000	0.364433
H260	H	0.523949	0.112000	0.864433
C261	C	0.021126	-0.006173	0.354088
C262	C	0.521126	0.493827	0.854088
H263	H	-0.011316	-0.006189	0.366081
H264	H	0.488684	0.493811	0.866081
H265	H	0.024757	0.022245	0.326220
H266	H	0.524757	0.522245	0.826220
H267	H	0.043730	-0.034593	0.345166
H268	H	0.543730	0.465407	0.845166
C269	C	-0.079247	-0.006178	0.555875
C270	C	0.420753	0.493822	1.055875
H271	H	-0.099849	-0.006186	0.544058
H272	H	0.400151	0.493814	1.044058
H273	H	-0.074933	-0.034593	0.583716
H274	H	0.425067	0.465407	1.083716
H275	H	-0.093906	0.022245	0.564774
H276	H	0.406094	0.522245	1.064774
C277	C	0.082550	-0.006111	0.555340
C278	C	0.582550	0.493889	1.055340
H279	H	0.114994	-0.006102	0.543349
H280	H	0.614994	0.493898	1.043349
H281	H	0.059947	0.022303	0.564270
H282	H	0.559947	0.522303	1.064270
H283	H	0.078922	-0.034536	0.583205
H284	H	0.578922	0.465464	1.083205
C285	C	0.183018	-0.536451	0.353790
C286	C	0.683018	-0.036451	0.853790
H287	H	0.203582	-0.568880	0.365669
H288	H	0.703582	-0.068880	0.865669
H289	H	0.178732	-0.532767	0.325955
H290	H	0.678732	-0.032767	0.825955
H291	H	0.197703	-0.513803	0.344860
H292	H	0.697703	-0.013803	0.844860
C293	C	-0.048841	-0.375100	0.954651
C294	C	0.451159	0.124900	1.454651
H295	H	-0.077282	-0.375053	0.954648
H296	H	0.422718	0.124947	1.454648
H297	H	-0.056545	-0.369118	0.983069
H298	H	0.443455	0.130882	1.483069
H299	H	-0.037614	-0.350171	0.926232
H300	H	0.462386	0.149829	1.426232
H301	H	-0.328125	-0.583847	0.490235
H302	H	0.171875	-0.083847	0.990235
H303	H	0.551811	-0.415327	0.336274
H304	H	1.051811	0.084673	0.836274
C305	C	-0.048381	-0.536843	0.954549
C306	C	0.451619	-0.036843	1.454549
H307	H	-0.036400	-0.569284	0.954525
H308	H	0.463600	-0.069284	1.454525
H309	H	-0.076253	-0.533194	0.982960
H310	H	0.423747	-0.033194	1.482960
H311	H	-0.057293	-0.514228	0.926123
H312	H	0.442707	-0.014228	1.426123
C313	C	0.153402	-0.637364	0.954565
C314	C	0.653402	-0.137364	1.454565
H315	H	0.141568	-0.657952	0.954563
H316	H	0.641568	-0.157952	1.454563
H317	H	0.181237	-0.633068	0.926146
H318	H	0.681237	-0.133068	1.426146
H319	H	0.162313	-0.652029	0.982982
H320	H	0.662313	-0.152029	1.482982
H321	H	0.129813	-0.126117	0.418717
H322	H	0.629813	0.373883	0.918717
C323	C	0.552195	-0.607114	0.585415
C324	C	1.052195	-0.107114	1.085415
H325	H	0.552212	-0.595278	0.605997
H326	H	1.052212	-0.095278	1.105997
H327	H	0.523798	-0.616046	0.600098
H328	H	1.023798	-0.116046	1.100098
H329	H	0.580633	-0.634941	0.581094
H330	H	1.080633	-0.134941	1.081094
H331	H	0.079796	-0.624394	0.545162
H332	H	0.579796	-0.124394	1.045162
C333	C	0.058712	-0.631800	0.067335
C334	C	0.558712	-0.131800	0.567335
H335	H	0.063603	-0.664275	0.089970
H336	H	0.563603	-0.164275	0.589970
H337	H	0.043087	-0.626855	0.047281
H338	H	0.543087	-0.126855	0.547281
H339	H	0.089475	-0.626910	0.047373
H340	H	0.589475	-0.126910	0.547373
C341	C	0.152966	-0.475598	0.954602
C342	C	0.652966	0.024402	1.454602
H343	H	0.140991	-0.443150	0.954606
H344	H	0.640991	0.056850	1.454606
H345	H	0.161906	-0.498203	0.983010
H346	H	0.661906	0.001797	1.483010
H347	H	0.180820	-0.479244	0.926173
H348	H	0.680820	0.020756	1.426173
C349	C	-0.079275	-0.475945	0.555804
C350	C	0.420725	0.024055	1.055804
H351	H	-0.099838	-0.443514	0.543927
H352	H	0.400162	0.056486	1.043927
H353	H	-0.093959	-0.498593	0.564737
H354	H	0.406041	0.001407	1.064737
H355	H	-0.074988	-0.479625	0.583638
H356	H	0.425012	0.020375	1.083638
H357	H	0.047163	-0.397193	0.741627
H358	H	0.547163	0.102807	1.241627
H359	H	0.168250	-0.504186	0.834549
H360	H	0.668250	-0.004186	1.334549
H361	H	0.047002	-0.397168	0.563734
H362	H	0.547002	0.102832	1.063734
C363	C	0.213586	-0.476678	0.734158
C364	C	0.713586	0.023322	1.234158
H365	H	0.231015	-0.496685	0.756759
H366	H	0.731015	0.003315	1.256759
H367	H	0.221985	-0.494076	0.714146
H368	H	0.721985	0.005924	1.214146
H369	H	0.221973	-0.447664	0.714150
H370	H	0.721973	0.052336	1.214150
H371	H	0.167905	-0.504126	0.456671
H372	H	0.667905	-0.004126	0.956671
C373	C	0.001550	-0.424662	0.536297
C374	C	0.501550	0.075338	1.036297
H375	H	-0.015843	-0.404666	0.556324
H376	H	0.484157	0.095334	1.056324
H377	H	-0.006893	-0.407254	0.507311
H378	H	0.493107	0.092746	1.007311
H379	H	-0.006836	-0.453677	0.553701
H380	H	0.493164	0.046323	1.053701
H381	H	0.198948	-0.473094	0.487648
H382	H	0.698948	0.026906	0.987648
H383	H	0.338981	-0.510371	0.554246
H384	H	0.838981	-0.010371	1.054246
H385	H	0.432025	-0.541365	0.523165
H386	H	0.932025	-0.041365	1.023165
H387	H	0.338923	-0.359792	0.496821
H388	H	0.838923	0.140208	0.996821
C389	C	0.439301	-0.381377	0.458775
C390	C	0.939301	0.118623	0.958775
H391	H	0.473522	-0.398722	0.449616
H392	H	0.973522	0.101278	0.949616
H393	H	0.430866	-0.357890	0.430282
H394	H	0.930866	0.142110	0.930282
H395	H	0.430914	-0.365164	0.479879
H396	H	0.930914	0.134836	0.979879
C397	C	0.169299	-0.226499	0.440174
C398	C	0.669299	0.273501	0.940174
H399	H	0.177734	-0.260723	0.457568
H400	H	0.677734	0.239277	0.957568
H401	H	0.151874	-0.218095	0.420186
H402	H	0.651874	0.281905	0.920186
H403	H	0.198292	-0.218079	0.420146
H404	H	0.698292	0.281921	0.920146
C405	C	0.045534	-0.118842	0.580228
C406	C	0.545534	0.381158	1.080228
H407	H	0.040636	-0.141472	0.612705
H408	H	0.540636	0.358528	1.112705
H409	H	0.061191	-0.098823	0.575285
H410	H	0.561191	0.401177	1.075285
H411	H	0.014774	-0.098843	0.575328
H412	H	0.514774	0.401157	1.075328
H413	H	-0.025639	-0.470264	0.074572
H414	H	0.474361	0.029736	0.574572
C415	C	0.081509	-0.226554	0.616090
C416	C	0.581509	0.273446	1.116090
H417	H	0.061513	-0.203941	0.633503
H418	H	0.561513	0.296059	1.133503
H419	H	0.064115	-0.246581	0.624528
H420	H	0.564115	0.253419	1.124528
H421	H	0.110538	-0.246549	0.624461
H422	H	0.610538	0.253451	1.124461
H423	H	0.019144	-0.653235	0.167709
H424	H	0.519144	-0.153235	0.667709
C425	C	-0.065216	-0.491697	0.174940
C426	C	0.434784	0.008303	0.674940
H427	H	-0.070102	-0.459222	0.152304
H428	H	0.429898	0.040778	0.652304
H429	H	-0.095974	-0.496589	0.194904
H430	H	0.404026	0.003411	0.694904
H431	H	-0.049588	-0.496638	0.194992
H432	H	0.450412	0.003362	0.694992
C433	C	-0.072913	-0.893379	0.450260
C434	C	0.427087	-0.393379	0.950260
H435	H	-0.055586	-0.927607	0.459422
H436	H	0.444414	-0.427607	0.959422
H437	H	-0.096424	-0.884949	0.478747
H438	H	0.403576	-0.384949	0.978747
H439	H	-0.089094	-0.884965	0.429114
H440	H	0.410906	-0.384965	0.929114
H441	H	-0.057039	-0.501216	0.345698
H442	H	0.442961	-0.001216	0.845698
H443	H	0.049734	-0.622248	0.452940
H444	H	0.549734	-0.122248	0.952940
C445	C	-0.029605	-0.455839	0.373282
C446	C	0.470395	0.044161	0.873282
H447	H	-0.015231	-0.450449	0.387738
H448	H	0.484769	0.049551	0.887738
H449	H	-0.017758	-0.441451	0.338676
H450	H	0.482242	0.058549	0.838676
H451	H	-0.064214	-0.441398	0.385026
H452	H	0.435786	0.058602	0.885026
C453	C	0.022298	-0.667624	0.425366
C454	C	0.522298	-0.167624	0.925366
H455	H	0.042270	-0.685043	0.445423
H456	H	0.542270	-0.185043	0.945423
H457	H	-0.006716	-0.676001	0.442720
H458	H	0.493284	-0.176001	0.942720
H459	H	0.039738	-0.676051	0.396368
H460	H	0.539738	-0.176051	0.896368
H461	H	0.087072	-0.886205	0.386121
H462	H	0.587072	-0.386205	0.886121
C463	C	0.065540	-0.785837	0.348111
C464	C	0.565540	-0.285837	0.848111
H465	H	0.048219	-0.751609	0.338941
H466	H	0.548219	-0.251609	0.838941
H467	H	0.081721	-0.794255	0.369256
H468	H	0.581721	-0.294255	0.869256
H469	H	0.089051	-0.794269	0.319622
H470	H	0.589051	-0.294269	0.819622
C471	C	-0.108742	-0.785658	0.414306
C472	C	0.391258	-0.285658	0.914306
H473	H	-0.114184	-0.751442	0.400634
H474	H	0.385816	-0.251442	0.900634
H475	H	-0.119328	-0.794051	0.398769
H476	H	0.380672	-0.294051	0.898769
H477	H	-0.126661	-0.794045	0.448408
H478	H	0.373339	-0.294045	0.948408
C479	C	-0.227764	-0.623385	0.468904
C480	C	0.272236	-0.123385	0.968904
H481	H	-0.193535	-0.631832	0.451549
H482	H	0.306465	-0.131832	0.951549
H483	H	-0.236194	-0.605974	0.488916
H484	H	0.263806	-0.105974	0.988916
H485	H	-0.236199	-0.652373	0.488904
H486	H	0.263801	-0.152373	0.988904
C487	C	-0.335198	-0.499471	0.328641
C488	C	0.164802	0.000529	0.828641
H489	H	-0.312539	-0.494569	0.296180
H490	H	0.187461	0.005431	0.796180
H491	H	-0.355210	-0.515105	0.333530
H492	H	0.144790	-0.015105	0.833530
H493	H	-0.355196	-0.468712	0.333545
H494	H	0.144804	0.031288	0.833545
H495	H	-0.234840	-0.539009	0.307312
H496	H	0.265160	-0.039009	0.807312
