data_functionalizedCrystal
_audit_creation_method	'MofGen! by Chris Wilmer'
_symmetry_space_group_name_H-M	'P1'
_symmetry_Int_Tables_number	1
_symmetry_cell_setting	triclinic
loop_
_symmetry_equiv_pos_as_xyz
  x,y,z
_cell_length_a	16.109301
_cell_length_b	22.610064
_cell_length_c	16.109301
_cell_angle_alpha	90.002647
_cell_angle_beta	96.538519
_cell_angle_gamma	90.005509
loop_
_atom_site_label
_atom_site_type_symbol
_atom_site_fract_x
_atom_site_fract_y
_atom_site_fract_z
O1	O	1.103138	0.049149	-0.106856
O2	O	1.603138	0.549149	0.393144
O3	O	0.861076	0.049159	-0.120155
O4	O	1.361076	0.549159	0.379845
O5	O	0.988756	0.049148	0.007525
O6	O	1.488756	0.549148	0.507525
O7	O	0.975457	0.049160	-0.234536
O8	O	1.475457	0.549160	0.265464
O9	O	0.988734	-0.049222	0.007507
O10	O	1.488734	0.450778	0.507507
O11	O	0.861053	-0.049211	-0.120174
O12	O	1.361053	0.450789	0.379826
O13	O	1.103115	-0.049220	-0.106874
O14	O	1.603115	0.450780	0.393126
Zn15	Zn	0.982080	-0.064834	-0.113527
Zn16	Zn	1.482080	0.435166	0.386473
Zn17	Zn	0.982110	0.064772	-0.113503
Zn18	Zn	1.482110	0.564772	0.386497
O19	O	0.975434	-0.049209	-0.234555
O20	O	1.475434	0.450791	0.265445
C21	C	0.830090	-0.000025	-0.119626
C22	C	1.330090	0.499975	0.380374
C23	C	0.737794	-0.000021	-0.118011
C24	C	1.237794	0.499979	0.381989
N25	N	0.982066	-0.153286	-0.113543
N26	N	1.482066	0.346714	0.386457
C27	C	0.515522	-0.000024	-0.190018
C28	C	1.015522	0.499976	0.309982
C29	C	0.428801	-0.000028	-0.188494
C30	C	0.928801	0.499972	0.311506
C31	C	0.448676	-0.000034	-0.037006
C32	C	0.948676	0.499966	0.462994
C33	C	0.535394	-0.000034	-0.038530
C34	C	1.035394	0.499966	0.461470
C35	C	0.568815	-0.000026	-0.115039
C36	C	1.068815	0.499974	0.384961
C37	C	0.395376	-0.000030	-0.111990
C38	C	0.895376	0.499970	0.388010
C39	C	0.301350	-0.000034	-0.110337
C40	C	0.801350	0.499966	0.389663
C41	C	0.662847	-0.000023	-0.116693
C42	C	1.162847	0.499977	0.383307
C43	C	1.038650	-0.561932	-0.056974
C44	C	1.538650	-0.061932	0.443026
C45	C	1.038654	-0.623852	-0.056968
C46	C	1.538654	-0.123852	0.443032
O47	O	1.086728	-0.655875	-0.008883
O48	O	1.586728	-0.155875	0.491117
N49	N	0.982110	-0.654823	-0.113485
N50	N	1.482110	-0.154823	0.386515
C51	C	0.925552	-0.623871	-0.170006
C52	C	1.425552	-0.123871	0.329994
O53	O	0.877456	-0.655900	-0.218078
O54	O	1.377456	-0.155900	0.281922
C55	C	0.925544	-0.561952	-0.170008
C56	C	1.425544	-0.061952	0.329992
C57	C	0.982098	-0.530984	-0.113493
C58	C	1.482098	-0.030984	0.386507
C59	C	1.095198	-0.530965	-0.000463
C60	C	1.595198	-0.030965	0.499537
C61	C	1.095195	-0.469049	-0.000470
C62	C	1.595195	0.030951	0.499530
C63	C	1.038643	-0.438101	-0.056989
C64	C	1.538643	0.061899	0.443011
C65	C	0.982094	-0.469069	-0.113500
C66	C	1.482094	0.030931	0.386500
C67	C	0.868983	-0.531001	-0.226524
C68	C	1.368983	-0.031001	0.273476
C69	C	0.868980	-0.469078	-0.226520
C70	C	1.368980	0.030922	0.273480
C71	C	0.925533	-0.438110	-0.170005
C72	C	1.425533	0.061890	0.329995
C73	C	0.925539	-0.376205	-0.170026
C74	C	1.425539	0.123795	0.329974
N75	N	0.982083	-0.345234	-0.113509
N76	N	1.482083	0.154766	0.386491
C77	C	1.038635	-0.376182	-0.056990
C78	C	1.538635	0.123818	0.443010
C79	C	0.925571	-0.753905	-0.169998
C80	C	1.425571	-0.253905	0.330002
C81	C	0.925582	-0.815822	-0.170002
C82	C	1.425582	-0.315822	0.329998
C83	C	1.038683	-0.815799	-0.056962
C84	C	1.538683	-0.315799	0.443038
C85	C	1.038676	-0.753880	-0.056963
C86	C	1.538676	-0.253880	0.443037
C87	C	0.982115	-0.722934	-0.113481
C88	C	1.482115	-0.222934	0.386519
C89	C	1.038624	-0.246155	-0.057010
C90	C	1.538624	0.253845	0.442990
C91	C	1.038618	-0.184234	-0.057025
C92	C	1.538618	0.315766	0.442975
C93	C	0.925514	-0.184262	-0.170061
C94	C	1.425514	0.315738	0.329939
C95	C	0.925523	-0.246178	-0.170050
C96	C	1.425523	0.253822	0.329950
C97	C	0.982081	-0.277123	-0.113517
C98	C	1.482081	0.222877	0.386483
O99	O	0.877487	-0.344143	-0.218084
O100	O	1.377487	0.155857	0.281916
O101	O	1.086716	-0.344146	-0.008920
O102	O	1.586716	0.155854	0.491080
C103	C	1.134101	-0.000035	-0.107404
C104	C	1.634101	0.499965	0.392596
C105	C	1.226397	-0.000035	-0.109019
C106	C	1.726397	0.499965	0.390981
C107	C	0.988206	-0.000037	0.038491
C108	C	1.488206	0.499963	0.538491
C109	C	0.986591	-0.000038	0.130786
C110	C	1.486591	0.499962	0.630786
N111	N	0.982131	0.153225	-0.113480
N112	N	1.482131	0.653225	0.386520
C113	C	0.975984	-0.000023	-0.265521
C114	C	1.475984	0.499977	0.234479
C115	C	0.977600	-0.000018	-0.357816
C116	C	1.477600	0.499982	0.142184
C117	C	1.058599	-0.000032	0.353059
C118	C	1.558599	0.499968	0.853059
C119	C	1.057075	-0.000027	0.439779
C120	C	1.557075	0.499973	0.939779
C121	C	0.905586	-0.000023	0.419905
C122	C	1.405586	0.499977	0.919905
C123	C	0.907111	-0.000024	0.333186
C124	C	1.407111	0.499976	0.833186
C125	C	0.983620	-0.000031	0.299766
C126	C	1.483620	0.499969	0.799766
C127	C	0.980571	-0.000025	0.473205
C128	C	1.480571	0.499975	0.973205
C129	C	0.978918	-0.000020	0.567231
C130	C	1.478918	0.499980	1.067231
C131	C	0.985273	-0.000035	0.205734
C132	C	1.485273	0.499965	0.705734
H133	H	0.542730	-0.000023	-0.252317
H134	H	1.042730	0.499977	0.247683
N135	N	0.864565	-0.720528	-0.230963
N136	N	1.364565	-0.220528	0.269037
H137	H	0.828750	-0.749548	-0.266762
H138	H	1.328750	-0.249548	0.233238
H139	H	0.896373	-0.694835	-0.267734
H140	H	1.396373	-0.194835	0.232266
H141	H	1.118130	-0.000026	0.483168
H142	H	1.618130	0.499974	0.983168
N143	N	0.412618	-0.000035	0.045506
N144	N	0.912618	0.499965	0.545506
H145	H	0.432060	0.036429	0.078360
H146	H	0.932060	0.536429	0.578360
H147	H	0.432053	-0.036526	0.078284
H148	H	0.932053	0.463474	0.578284
N149	N	0.371320	-0.000059	-0.269364
N150	N	0.871320	0.499941	0.230636
H151	H	0.405654	-0.000065	-0.318060
H152	H	0.905654	0.499935	0.181940
H153	H	0.334888	0.036396	-0.272056
H154	H	0.834888	0.536396	0.227944
H155	H	1.141250	-0.556157	0.045565
H156	H	1.641250	-0.056157	0.545565
N157	N	0.826237	-0.000019	0.275698
N158	N	1.326237	0.499981	0.775698
H159	H	0.777538	-0.000018	0.310026
H160	H	1.277538	0.499982	0.810026
H161	H	0.823564	-0.036485	0.239280
H162	H	1.323564	0.463515	0.739280
H163	H	1.084726	-0.728670	-0.010944
H164	H	1.584726	-0.228670	0.489056
H165	H	0.578788	-0.000037	0.022530
H166	H	1.078788	0.499963	0.522530
H167	H	0.822931	-0.556206	-0.272544
H168	H	1.322931	-0.056206	0.227456
H169	H	1.084674	-0.159022	-0.011003
H170	H	1.584674	0.340978	0.488997
H171	H	0.879472	-0.159055	-0.216080
H172	H	1.379472	0.340945	0.283920
N173	N	1.099630	-0.279526	0.003957
N174	N	1.599630	0.220474	0.503957
H175	H	1.135451	-0.250505	0.039748
H176	H	1.635451	0.249495	0.539748
H177	H	1.136375	-0.305212	-0.027887
H178	H	1.636375	0.194788	0.472113
N179	N	0.864527	-0.279576	-0.231011
N180	N	1.364527	0.220424	0.268989
H181	H	0.827725	-0.305263	-0.199225
H182	H	1.327725	0.194737	0.300775
H183	H	0.896338	-0.305235	-0.267820
H184	H	1.396338	0.194765	0.232180
H185	H	1.141243	-0.443839	0.045551
H186	H	1.641243	0.056161	0.545551
N187	N	1.141115	-0.000039	0.317010
N188	N	1.641115	0.499961	0.817010
H189	H	1.188382	-0.000037	0.363933
H190	H	1.688382	0.499963	0.863933
H191	H	1.145054	0.036427	0.281464
H192	H	1.645054	0.536427	0.781464
H193	H	1.084730	-0.841008	-0.010940
H194	H	1.584730	-0.341008	0.489060
N195	N	0.823067	-0.000021	0.455947
N196	N	1.323067	0.499979	0.955947
H197	H	0.819062	0.036443	0.491489
H198	H	1.319062	0.536443	0.991489
H199	H	0.819101	-0.036512	0.491437
H200	H	1.319101	0.463488	0.991437
N201	N	0.864589	-0.849220	-0.230961
N202	N	1.364589	-0.349220	0.269039
H203	H	0.828765	-0.820213	-0.266762
H204	H	1.328765	-0.320213	0.233238
H205	H	0.827847	-0.874908	-0.199114
H206	H	1.327847	-0.374908	0.300886
H207	H	0.822918	-0.443884	-0.272543
H208	H	1.322918	0.056116	0.227457
