data_functionalizedCrystal
_audit_creation_method	'MofGen! by Chris Wilmer'
_symmetry_space_group_name_H-M	'P1'
_symmetry_Int_Tables_number	1
_symmetry_cell_setting	triclinic
loop_
_symmetry_equiv_pos_as_xyz
  x,y,z
_cell_length_a	19.121241
_cell_length_b	19.121063
_cell_length_c	19.120904
_cell_angle_alpha	94.741613
_cell_angle_beta	90.124528
_cell_angle_gamma	84.996879
loop_
_atom_site_label
_atom_site_type_symbol
_atom_site_fract_x
_atom_site_fract_y
_atom_site_fract_z
Zn1	Zn	1.043557	0.254510	0.452551
Zn2	Zn	1.543557	0.754510	0.952551
Zn3	Zn	1.043470	0.367161	0.339898
Zn4	Zn	1.543470	0.867161	0.839898
Zn5	Zn	0.931342	0.254092	0.330304
Zn6	Zn	1.431342	0.754092	0.830304
Zn7	Zn	0.920835	0.377147	0.452491
Zn8	Zn	1.420835	0.877147	0.952491
O9	O	0.984801	0.313228	0.393811
O10	O	1.484801	0.813228	0.893811
O11	O	1.141831	0.265449	0.441648
O12	O	1.641831	0.765449	0.941648
O13	O	1.032957	0.347808	0.240344
O14	O	1.532957	0.847808	0.740344
O15	O	0.950661	0.155504	0.342530
O16	O	1.450661	0.655504	0.842530
O17	O	1.141767	0.348213	0.358882
O18	O	1.641767	0.848213	0.858882
O19	O	1.033105	0.155811	0.432344
O20	O	1.533105	0.655811	0.932344
O21	O	0.950577	0.264736	0.233295
O22	O	1.450577	0.764736	0.733295
O23	O	0.831663	0.274420	0.342472
O24	O	1.331663	0.774420	0.842472
O25	O	0.932754	0.365234	0.550781
O26	O	1.432754	0.865234	1.050781
O27	O	0.823943	0.364828	0.432242
O28	O	1.323943	0.864828	0.932242
O29	O	1.022917	0.275133	0.550825
O30	O	1.522917	0.775133	1.050825
O31	O	1.022769	0.467129	0.358824
O32	O	1.522769	0.967129	0.858824
O33	O	0.932669	0.474466	0.441546
O34	O	1.432669	0.974466	0.941546
C35	C	0.802319	0.320663	0.386310
C36	C	1.302319	0.820663	0.886310
C37	C	0.724250	0.323861	0.383118
C38	C	1.224250	0.823861	0.883118
C39	C	0.687602	0.282348	0.424782
C40	C	1.187602	0.782348	0.924782
C41	C	0.614249	0.285349	0.421777
C42	C	1.114249	0.785349	0.921777
C43	C	0.577546	0.329869	0.377111
C44	C	1.077546	0.829869	0.877111
C45	C	0.614200	0.371384	0.335443
C46	C	1.114200	0.871384	0.835443
C47	C	0.687552	0.368378	0.338445
C48	C	1.187552	0.868378	0.838445
C49	C	0.356069	0.341093	0.365885
C50	C	0.856069	0.841093	0.865885
C51	C	0.282712	0.344097	0.362887
C52	C	0.782712	0.844097	0.862887
C53	C	0.282766	0.258061	0.449221
C54	C	0.782766	0.758061	0.949221
C55	C	0.356119	0.255063	0.452222
C56	C	0.856119	0.755063	0.952222
C57	C	0.392767	0.296575	0.410551
C58	C	0.892767	0.796575	0.910551
C59	C	0.502567	0.332939	0.374040
C60	C	1.002567	0.832939	0.874040
C61	C	0.467744	0.293500	0.413619
C62	C	0.967744	0.793500	0.913619
C63	C	0.976588	0.496375	0.401236
C64	C	1.476588	0.996375	0.901236
C65	C	0.973137	0.574724	0.404438
C66	C	1.473137	1.074724	0.904438
C67	C	0.976673	0.321344	0.576998
C68	C	1.476673	0.821344	1.076998
C69	C	0.973209	0.324803	0.655062
C70	C	1.473209	0.824803	1.155062
C71	C	1.167996	0.305764	0.401342
C72	C	1.667996	0.805764	0.901342
C73	C	1.246063	0.302584	0.404551
C74	C	1.746063	0.802584	0.904551
C75	C	0.993065	0.129365	0.386373
C76	C	1.493065	0.629365	0.886373
C77	C	0.996587	0.051014	0.383204
C78	C	1.496587	0.551014	0.883204
C79	C	1.018459	0.607690	0.362913
C80	C	1.518459	1.107690	0.862913
C81	C	1.015218	0.681308	0.365929
C82	C	1.515218	1.181308	0.865929
C83	C	0.966651	0.721959	0.410467
C84	C	1.466651	1.221959	0.910467
C85	C	0.921327	0.688989	0.451998
C86	C	1.421327	1.188989	0.951998
C87	C	0.924572	0.615372	0.448985
C88	C	1.424572	1.115372	0.948985
C89	C	0.954507	0.944426	0.421721
C90	C	1.454507	1.444426	0.921721
C91	C	0.951264	1.018048	0.424729
C92	C	1.451264	1.518048	0.924729
C93	C	1.045157	1.010363	0.338661
C94	C	1.545157	1.510363	0.838661
C95	C	1.048395	0.936745	0.335649
C96	C	1.548395	1.436745	0.835649
C97	C	1.003073	0.903781	0.377182
C98	C	1.503073	1.403781	0.877182
C99	C	0.963335	0.797209	0.413550
C100	C	1.463335	1.297209	0.913550
C101	C	1.006393	0.828532	0.374103
C102	C	1.506393	1.328532	0.874103
C103	C	0.992940	0.305090	0.211336
C104	C	1.492940	0.805090	0.711336
C105	C	0.996549	0.301428	0.133270
C106	C	1.496549	0.801428	0.633270
C107	C	1.018523	0.279519	0.691760
C108	C	1.518523	0.779519	1.191760
C109	C	1.015260	0.282766	0.765109
C110	C	1.515260	0.782766	1.265109
C111	C	0.966686	0.331301	0.801758
C112	C	1.466686	0.831301	1.301758
C113	C	0.921368	0.376587	0.765054
C114	C	1.421368	0.876587	1.265054
C115	C	0.924628	0.373336	0.691707
C116	C	1.424628	0.873336	1.191707
C117	C	0.954491	0.343462	1.023219
C118	C	1.454491	0.843462	1.523219
C119	C	0.951236	0.346711	1.096572
C120	C	1.451236	0.846711	1.596572
C121	C	1.045127	0.252889	1.096621
C122	C	1.545127	0.752889	1.596621
C123	C	1.048386	0.249645	1.023272
C124	C	1.548386	0.749645	1.523272
C125	C	1.003065	0.294928	0.986575
C126	C	1.503065	0.794928	1.486575
C127	C	0.963351	0.334623	0.876732
C128	C	1.463351	0.834623	1.376732
C129	C	1.006397	0.291602	0.911602
C130	C	1.506397	0.791602	1.411602
H131	H	0.717390	0.402182	0.304517
H132	H	1.217390	0.902182	0.804517
H133	H	0.497631	0.257250	0.449982
H134	H	0.997631	0.757250	0.949982
H135	H	1.045943	0.252083	0.881759
H136	H	1.545943	0.752083	1.381759
H137	H	0.917597	0.380345	0.993349
H138	H	1.417597	0.880345	1.493349
C139	C	1.059814	0.783814	0.325110
C140	C	1.559814	1.283814	0.825110
N141	N	1.100048	0.750126	0.288206
N142	N	1.600048	1.250126	0.788206
C143	C	1.101805	0.892034	0.286634
C144	C	1.601805	1.392034	0.786634
N145	N	1.142027	0.858358	0.249707
N146	N	1.642027	1.358358	0.749707
C147	C	0.909917	0.388006	0.917053
C148	C	1.409917	0.888006	1.417053
N149	N	0.869667	0.428211	0.947425
N150	N	1.369667	0.928211	1.447425
C151	C	1.101814	0.196246	0.982963
C152	C	1.601814	0.696246	1.482963
N153	N	1.142056	0.156024	0.952602
N154	N	1.642056	0.656024	1.452602
C155	C	0.867900	0.733707	0.500988
C156	C	1.367900	1.233707	1.000988
N157	N	0.827655	0.767389	0.537886
N158	N	1.327655	1.267389	1.037886
C159	C	0.904686	0.908176	0.467446
C160	C	1.404686	1.408176	0.967446
N161	N	0.867171	0.880869	0.501903
N162	N	1.367171	1.380869	1.001903
H163	H	1.082056	1.037210	0.304849
H164	H	1.582056	1.537210	0.804849
C165	C	0.396372	0.386761	0.320048
C166	C	0.896372	0.886761	0.820048
N167	N	0.426731	0.421161	0.285522
N168	N	0.926731	0.921161	0.785522
H169	H	0.252919	0.224264	0.483146
H170	H	0.752919	0.724264	0.983146
H171	H	0.584412	0.251546	0.455705
H172	H	1.084412	0.751546	0.955705
H173	H	0.584311	0.407629	0.299072
H174	H	1.084311	0.907629	0.799072
H175	H	1.052160	0.245893	0.794986
H176	H	1.552160	0.745893	1.294986
C177	C	0.867929	0.429969	0.805371
C178	C	1.367929	0.929969	1.305371
N179	N	0.827678	0.470178	0.835736
N180	N	1.327678	0.970178	1.335736
H181	H	1.058005	0.574597	0.326641
H182	H	1.558005	1.074597	0.826641
H183	H	1.082024	0.216022	1.126508
H184	H	1.582024	0.716022	1.626508
H185	H	0.911723	1.051145	0.461011
H186	H	1.411723	1.551145	0.961011
H187	H	0.911679	0.386236	1.126409
H188	H	1.411679	0.886236	1.626409
C189	C	1.071957	0.226125	0.651453
C190	C	1.571957	0.726125	1.151453
N191	N	1.112204	0.185906	0.621095
N192	N	1.612204	0.685906	1.121095
C193	C	0.874714	0.579110	0.494667
C194	C	1.374714	1.079110	0.994667
N195	N	0.837161	0.551799	0.529078
N196	N	1.337161	1.051799	1.029078
C197	C	0.874780	0.423152	0.651339
C198	C	1.374780	0.923152	1.151339
N199	N	0.837232	0.460675	0.620935
N200	N	1.337232	0.960675	1.120935
H201	H	0.923790	0.830315	0.449812
H202	H	1.423790	1.330315	0.949812
H203	H	0.385997	0.218813	0.488596
H204	H	0.885997	0.718813	0.988596
C205	C	0.242340	0.393074	0.313750
C206	C	0.742340	0.893074	0.813750
N207	N	0.211932	0.429963	0.276743
N208	N	0.711932	0.929963	0.776743
H209	H	0.717480	0.246097	0.461155
H210	H	1.217480	0.746097	0.961155
H211	H	0.472675	0.369187	0.337673
H212	H	0.972675	0.869187	0.837673
H213	H	1.052124	0.708145	0.332114
H214	H	1.552124	1.208145	0.832114
