data_functionalizedCrystal
_audit_creation_method	'MofGen! by Chris Wilmer'
_symmetry_space_group_name_H-M	'P1'
_symmetry_Int_Tables_number	1
_symmetry_cell_setting	triclinic
loop_
_symmetry_equiv_pos_as_xyz
  x,y,z
_cell_length_a	10.686285
_cell_length_b	10.686220
_cell_length_c	10.686551
_cell_angle_alpha	89.692081
_cell_angle_beta	99.084519
_cell_angle_gamma	90.345593
loop_
_atom_site_label
_atom_site_type_symbol
_atom_site_fract_x
_atom_site_fract_y
_atom_site_fract_z
Zn1	Zn	-0.307891	1.994012	0.537155
Zn2	Zn	-0.536478	1.993911	0.308660
Zn3	Zn	-0.340199	1.770410	0.340824
Zn4	Zn	-0.533920	1.800161	0.534647
O5	O	-0.429622	1.889623	0.430322
O6	O	-0.325764	2.168662	0.494434
O7	O	-0.525033	1.951770	0.136185
O8	O	-0.159176	1.787663	0.381378
O9	O	-0.493706	2.168588	0.326560
O10	O	-0.135440	1.951942	0.525622
O11	O	-0.380828	1.787565	0.159816
O12	O	-0.378347	1.599693	0.378946
O13	O	-0.489345	1.838368	0.711721
O14	O	-0.520672	1.621551	0.521347
O15	O	-0.323283	1.980790	0.713564
O16	O	-0.712876	1.980618	0.324127
O17	O	-0.710996	1.838270	0.490159
C18	C	-0.452739	1.565334	0.453365
C19	C	-0.462656	1.426605	0.463250
C20	C	-0.757758	1.912698	0.403406
C21	C	-0.898124	1.922686	0.391925
C22	C	-0.100201	1.866495	0.457368
C23	C	0.040179	1.856639	0.468893
C24	C	-0.402425	1.912909	0.759751
C25	C	-0.390835	1.922832	0.900134
C26	C	-0.406416	2.215179	0.407189
C27	C	-0.396527	2.353912	0.397331
C28	C	-0.456618	1.866493	0.102176
C29	C	-0.467835	1.856787	-0.038195
H30	H	-0.332328	1.397813	0.333321
Br31	Br	-0.569677	1.353448	0.569917
H32	H	-0.905253	1.792449	0.543579
H33	H	-0.952688	1.986863	0.317237
H34	H	-0.316045	1.986977	0.954738
H35	H	-0.542628	1.792656	0.907206
