data_functionalizedCrystal
_audit_creation_method	'MofGen! by Chris Wilmer'
_symmetry_space_group_name_H-M	'P1'
_symmetry_Int_Tables_number	1
_symmetry_cell_setting	triclinic
loop_
_symmetry_equiv_pos_as_xyz
  x,y,z
_cell_length_a	8.497374
_cell_length_b	12.759401
_cell_length_c	12.759399
_cell_angle_alpha	89.983359
_cell_angle_beta	89.991562
_cell_angle_gamma	90.001753
loop_
_atom_site_label
_atom_site_type_symbol
_atom_site_fract_x
_atom_site_fract_y
_atom_site_fract_z
Zn1	Zn	0.891958	1.606064	0.418406
Zn2	Zn	0.628160	1.606013	0.594052
Zn3	Zn	0.628185	1.430422	0.418393
Zn4	Zn	0.891892	1.430354	0.594048
O5	O	0.760048	1.518213	0.506225
O6	O	0.856982	1.753079	0.441713
O7	O	0.407401	1.582728	0.570747
O8	O	0.663213	1.453771	0.271373
O9	O	0.663171	1.753041	0.570760
O10	O	0.857005	1.582815	0.271383
O11	O	0.407419	1.453722	0.441691
O12	O	0.663149	1.283392	0.441686
O13	O	1.112663	1.453655	0.570752
O14	O	0.856893	1.283342	0.570739
O15	O	1.112711	1.582749	0.441709
O16	O	0.663107	1.582661	0.741073
O17	O	0.856869	1.453605	0.741069
C18	C	0.760017	1.245246	0.506212
C19	C	0.760041	1.128469	0.506232
C20	C	0.760013	1.518149	0.779192
C21	C	0.760050	1.518217	0.895969
C22	C	0.860765	1.073609	0.573532
C23	C	0.860796	0.963885	0.573536
C24	C	0.659366	0.963891	0.438937
C25	C	0.659344	1.073613	0.438928
C26	C	1.171529	1.518205	0.506226
C27	C	1.350173	1.518208	0.506237
C28	C	0.760081	1.792246	0.506238
C29	C	0.760095	1.909023	0.506244
C30	C	0.760119	1.518307	0.232191
C31	C	0.760149	1.518346	0.115415
C32	C	0.659273	1.585494	0.950797
C33	C	0.659326	1.585561	1.060521
C34	C	0.860938	1.451067	1.060578
C35	C	0.860891	1.451006	0.950856
H36	H	0.942763	1.118269	0.628332
O37	O	0.959011	1.385700	0.897704
C38	C	1.227284	1.334581	0.864043
C39	C	1.116343	1.408578	0.924321
H40	H	1.354512	1.353066	0.885524
H41	H	1.199613	1.249873	0.885712
H42	H	1.209850	1.346069	0.776200
H43	H	1.133716	1.397183	1.012178
H44	H	1.144042	1.493259	0.902565
O45	O	0.561602	0.910440	0.373662
C46	C	0.472440	0.741411	0.313970
C47	C	0.583213	0.801810	0.387966
H48	H	0.489897	0.653573	0.325493
H49	H	0.345143	0.762886	0.332278
H50	H	0.500353	0.763070	0.229295
H51	H	0.555442	0.780183	0.472665
H52	H	0.710477	0.780329	0.369567
O53	O	0.561266	1.126865	0.373662
C54	C	0.293053	1.160381	0.322330
C55	C	0.403931	1.100028	0.396324
H56	H	0.165827	1.138690	0.340611
H57	H	0.310204	1.248237	0.333888
H58	H	0.321065	1.138843	0.237652
H59	H	0.375989	1.121479	0.481031
H60	H	0.386760	1.012187	0.384676
O61	O	0.958585	0.910431	0.638815
C62	C	1.047835	0.741398	0.698526
C63	C	0.937028	0.801802	0.624526
H64	H	1.030421	0.653561	0.687015
H65	H	1.175120	0.762916	0.680213
H66	H	1.019915	0.763012	0.783199
H67	H	0.964806	0.780221	0.539828
H68	H	0.809776	0.780280	0.642929
H69	H	0.577265	1.640346	1.105158
O70	O	0.561276	1.650884	0.897641
C71	C	0.361245	1.784246	0.909171
C72	C	0.472172	1.710260	0.969496
H73	H	0.289152	1.832256	0.967239
H74	H	0.433645	1.839183	0.857761
H75	H	0.278737	1.736011	0.857840
H76	H	0.554703	1.758411	1.020884
H77	H	0.399674	1.655320	1.020840
O78	O	0.958730	1.385808	1.114061
C79	C	1.048212	1.326333	1.283118
C80	C	0.937360	1.400280	1.222684
H81	H	1.030996	1.338023	1.370950
H82	H	1.020384	1.241598	1.261700
H83	H	1.175419	1.344686	1.261432
H84	H	0.810116	1.382021	1.244337
H85	H	0.965323	1.484992	1.244107
