data_functionalizedCrystal
_audit_creation_method	'MofGen! by Chris Wilmer'
_symmetry_space_group_name_H-M	'P1'
_symmetry_Int_Tables_number	1
_symmetry_cell_setting	triclinic
loop_
_symmetry_equiv_pos_as_xyz
  x,y,z
_cell_length_a	18.050590
_cell_length_b	18.050590
_cell_length_c	18.050591
_cell_angle_alpha	90.005734
_cell_angle_beta	89.986577
_cell_angle_gamma	90.007719
loop_
_atom_site_label
_atom_site_type_symbol
_atom_site_fract_x
_atom_site_fract_y
_atom_site_fract_z
Zn1	Zn	1.135250	-0.296050	0.419597
Zn2	Zn	1.635250	0.203950	0.919597
Zn3	Zn	1.135209	-0.420195	0.295406
Zn4	Zn	1.635209	0.079805	0.795406
Zn5	Zn	1.011096	-0.296000	0.295456
Zn6	Zn	1.511096	0.204000	0.795456
Zn7	Zn	1.011038	-0.420180	0.419588
Zn8	Zn	1.511038	0.079820	0.919588
O9	O	1.073148	-0.358106	0.357512
O10	O	1.573148	0.141894	0.857512
O11	O	1.239169	-0.312546	0.403106
O12	O	1.739169	0.187454	0.903106
O13	O	1.118752	-0.403706	0.191488
O14	O	1.618752	0.096294	0.691488
O15	O	1.027607	-0.192082	0.311948
O16	O	1.527607	0.307918	0.811948
O17	O	1.239139	-0.403755	0.311863
O18	O	1.739139	0.096245	0.811863
O19	O	1.118822	-0.192119	0.403154
O20	O	1.618822	0.307881	0.903154
O21	O	1.027567	-0.312461	0.191524
O22	O	1.527567	0.187539	0.691524
O23	O	0.907164	-0.312445	0.311939
O24	O	1.407164	0.187555	0.811939
O25	O	1.027507	-0.403728	0.523514
O26	O	1.527507	0.096272	1.023514
O27	O	0.907121	-0.403679	0.403139
O28	O	1.407121	0.096321	0.903139
O29	O	1.118765	-0.312531	0.523521
O30	O	1.618765	0.187469	1.023521
O31	O	1.118696	-0.524118	0.311854
O32	O	1.618696	-0.024118	0.811854
O33	O	1.027468	-0.524106	0.403091
O34	O	1.527468	-0.024106	0.903091
C35	C	0.880196	-0.358056	0.357544
C36	C	1.380196	0.141944	0.857544
C37	C	0.797650	-0.358052	0.357575
C38	C	1.297650	0.141948	0.857575
C39	C	0.598198	-0.407807	0.407052
C40	C	1.098198	0.092193	0.907052
C41	C	0.548789	-0.340098	0.425328
C42	C	1.048789	0.159902	0.925328
C43	C	0.646520	-0.358093	0.357539
C44	C	1.146520	0.141907	0.857539
C45	C	0.548847	-0.425842	0.339262
C46	C	1.048847	0.074158	0.839262
C47	C	0.500535	-0.358139	0.357505
C48	C	1.000535	0.141861	0.857505
C49	C	0.598199	-0.290348	0.375850
C50	C	1.098199	0.209652	0.875850
C51	C	0.598260	-0.376138	0.289753
C52	C	1.098260	0.123862	0.789753
C53	C	0.548874	-0.308382	0.308003
C54	C	1.048874	0.191618	0.808003
C55	C	0.730618	-0.358068	0.357560
C56	C	1.230618	0.141932	0.857560
C57	C	0.416438	-0.358157	0.357484
C58	C	0.916438	0.141843	0.857484
C59	C	1.073091	-0.551059	0.357482
C60	C	1.573091	-0.051059	0.857482
C61	C	1.073135	-0.633604	0.357494
C62	C	1.573135	-0.133604	0.857494
C63	C	1.122847	-0.833034	0.307949
C64	C	1.622847	-0.333034	0.807949
C65	C	1.140968	-0.882397	0.375724
C66	C	1.640968	-0.382397	0.875724
C67	C	1.073177	-0.784735	0.357524
C68	C	1.573177	-0.284735	0.857524
C69	C	1.055132	-0.882453	0.289779
C70	C	1.555132	-0.382453	0.789779
C71	C	1.073219	-0.930720	0.357547
C72	C	1.573219	-0.430720	0.857547
C73	C	1.091332	-0.833010	0.425335
C74	C	1.591332	-0.333010	0.925335
C75	C	1.005464	-0.833062	0.339344
C76	C	1.505464	-0.333062	0.839344
C77	C	1.023559	-0.882403	0.407166
C78	C	1.523559	-0.382403	0.907166
C79	C	1.073154	-0.700636	0.357510
C80	C	1.573154	-0.200636	0.857510
C81	C	1.073241	-1.014816	0.357568
C82	C	1.573241	-0.514816	0.857568
C83	C	1.266854	-0.358158	0.357480
C84	C	1.766854	0.141842	0.857480
C85	C	1.349399	-0.358180	0.357467
C86	C	1.849399	0.141820	0.857467
C87	C	1.073134	-0.358133	0.551217
C88	C	1.573134	0.141867	1.051217
C89	C	1.073129	-0.358144	0.633763
C90	C	1.573129	0.141856	1.133763
C91	C	1.073226	-0.164401	0.357558
C92	C	1.573226	0.335599	0.857558
C93	C	1.073259	-0.081855	0.357577
C94	C	1.573259	0.418145	0.857577
C95	C	1.023496	-0.407731	0.833210
C96	C	1.523496	0.092269	1.333210
C97	C	1.091244	-0.425912	0.882583
C98	C	1.591244	0.074088	1.382583
C99	C	1.073132	-0.358134	0.784893
C100	C	1.573132	0.141866	1.284893
C101	C	1.005389	-0.339977	0.882603
C102	C	1.505389	0.160023	1.382603
C103	C	1.073129	-0.358126	0.930879
C104	C	1.573129	0.141874	1.430879
C105	C	1.140915	-0.376351	0.833179
C106	C	1.640915	0.123649	1.333179
C107	C	1.055015	-0.290384	0.833194
C108	C	1.555015	0.209616	1.333194
C109	C	1.122809	-0.308540	0.882545
C110	C	1.622809	0.191460	1.382545
C111	C	1.073132	-0.358141	0.700795
C112	C	1.573132	0.141859	1.200795
C113	C	1.073136	-0.358119	1.014975
C114	C	1.573136	0.141881	1.514975
C115	C	1.073149	-0.358104	1.164560
C116	C	1.573149	0.141896	1.664560
C117	C	1.073133	-0.358113	1.082014
C118	C	1.573133	0.141887	1.582014
H119	H	0.527060	-0.324850	0.482638
H120	H	1.027060	0.175150	0.982638
H121	H	1.106555	-0.811384	0.482684
H122	H	1.606555	-0.311384	0.982684
H123	H	0.981572	-0.903943	0.449148
H124	H	1.481572	-0.403943	0.949148
N125	N	1.034888	-0.911209	0.213876
N126	N	1.534888	-0.411209	0.713876
H127	H	0.984093	-0.892487	0.199752
H128	H	1.484093	-0.392487	0.699752
H129	H	1.034624	-0.967155	0.214606
H130	H	1.534624	-0.467155	0.714606
H131	H	0.527164	-0.483115	0.323820
H132	H	1.027164	0.016885	0.823820
H133	H	0.981575	-0.449709	0.811549
H134	H	1.481575	0.050291	1.311549
H135	H	1.039667	-0.233109	0.811484
H136	H	1.539667	0.266891	1.311484
N137	N	0.929611	-0.804329	0.318936
N138	N	1.429611	-0.304329	0.818936
H139	H	0.916007	-0.822283	0.267717
H140	H	1.416007	-0.322283	0.767717
H141	H	0.930097	-0.748384	0.319601
H142	H	1.430097	-0.248384	0.819601
N143	N	1.111554	-0.501797	0.911321
N144	N	1.611554	-0.001797	1.411321
H145	H	1.074034	-0.539232	0.893380
H146	H	1.574034	-0.039232	1.393380
H147	H	1.111887	-0.501043	0.967266
H148	H	1.611887	-0.001043	1.467266
H149	H	0.619786	-0.233057	0.391359
H150	H	1.119786	0.266943	0.891359
N151	N	0.520366	-0.252663	0.252515
N152	N	1.020366	0.247337	0.752515
H153	H	0.538417	-0.201551	0.266402
H154	H	1.038417	0.298449	0.766402
H155	H	0.464418	-0.253350	0.252518
H156	H	0.964418	0.246650	0.752518
N157	N	0.627060	-0.396350	0.213855
N158	N	1.127060	0.103650	0.713855
H159	H	0.609138	-0.447544	0.200104
H160	H	1.109138	0.052456	0.700104
H161	H	0.683005	-0.395660	0.214363
H162	H	1.183005	0.104340	0.714363
N163	N	1.216823	-0.396775	0.804552
N164	N	1.716823	0.103225	1.304552
H165	H	1.216351	-0.396674	0.748601
H166	H	1.716351	0.103326	1.248601
H167	H	1.230574	-0.447769	0.823007
H168	H	1.730574	0.052231	1.323007
H169	H	0.619857	-0.449774	0.448970
H170	H	1.119857	0.050226	0.948970
H171	H	1.164866	-0.811357	0.266069
H172	H	1.664866	-0.311357	0.766069
N173	N	1.216838	-0.911110	0.396117
N174	N	1.716838	-0.411110	0.896117
H175	H	1.254310	-0.893158	0.358632
H176	H	1.754310	-0.393158	0.858632
H177	H	1.216099	-0.967055	0.396457
H178	H	1.716099	-0.467055	0.896457
H179	H	1.164831	-0.266594	0.904070
H180	H	1.664831	0.233406	1.404070
N181	N	0.929509	-0.319635	0.911364
N182	N	1.429509	0.180365	1.411364
H183	H	0.892061	-0.357139	0.893418
H184	H	1.392061	0.142861	1.393418
H185	H	0.915505	-0.268815	0.892621
H186	H	1.415505	0.231185	1.392621
