data_functionalizedCrystal
_audit_creation_method	'MofGen! by Chris Wilmer'
_symmetry_space_group_name_H-M	'P1'
_symmetry_Int_Tables_number	1
_symmetry_cell_setting	triclinic
loop_
_symmetry_equiv_pos_as_xyz
  x,y,z
_cell_length_a	17.638336
_cell_length_b	13.897447
_cell_length_c	17.640968
_cell_angle_alpha	78.769972
_cell_angle_beta	65.689241
_cell_angle_gamma	78.785134
loop_
_atom_site_label
_atom_site_type_symbol
_atom_site_fract_x
_atom_site_fract_y
_atom_site_fract_z
Zn1	Zn	1.354164	-0.540962	-0.720315
Zn2	Zn	1.326208	-0.729371	-0.582494
Zn3	Zn	1.188483	-0.540911	-0.554701
Zn4	Zn	1.216315	-0.675023	-0.692451
O5	O	1.271293	-0.621567	-0.637490
O6	O	1.465784	-0.588721	-0.725326
O7	O	1.284591	-0.727095	-0.463479
O8	O	1.210513	-0.405942	-0.576699
O9	O	1.445245	-0.727144	-0.624069
O10	O	1.332239	-0.405979	-0.698376
O11	O	1.183405	-0.588634	-0.443059
O12	O	1.076847	-0.535935	-0.549681
O13	O	1.257948	-0.634516	-0.811476
O14	O	1.097294	-0.634467	-0.650886
O15	O	1.359226	-0.536022	-0.831947
O16	O	1.311578	-0.857138	-0.597050
O17	O	1.230840	-0.817208	-0.677836
C18	C	1.057167	-0.579299	-0.594244
C19	C	0.965567	-0.561235	-0.575763
C20	C	0.825809	-0.484366	-0.497104
C21	C	0.911882	-0.501344	-0.514476
C22	C	0.933193	-0.604176	-0.619699
C23	C	0.847120	-0.587210	-0.602333
C24	C	0.793434	-0.527303	-0.541035
C25	C	0.814744	-0.630147	-0.646264
C26	C	0.728679	-0.613178	-0.628902
C27	C	0.674988	-0.553271	-0.567609
C28	C	0.707368	-0.510334	-0.523673
C29	C	0.868433	-0.690048	-0.707566
C30	C	0.836058	-0.732985	-0.751497
C31	C	0.749990	-0.716022	-0.734131
C32	C	0.696299	-0.656115	-0.672837
C33	C	0.717610	-0.758959	-0.778066
C34	C	0.631544	-0.741990	-0.760704
C35	C	0.610233	-0.639146	-0.655475
C36	C	1.271222	-0.872172	-0.637458
C37	C	1.271272	-0.979391	-0.637486
C38	C	1.271316	-1.066465	-0.637513
C39	C	1.271378	-1.175705	-0.637546
C40	C	1.486254	-0.664001	-0.680905
C41	C	1.577858	-0.682083	-0.699406
C42	C	1.314810	-0.579212	-0.852451
C43	C	1.333355	-0.561163	-0.944054
C44	C	1.271390	-0.369984	-0.637546
C45	C	1.271431	-0.262775	-0.637569
C46	C	1.130728	-0.758220	-1.192041
C47	C	1.148171	-0.741252	-1.278120
C48	C	1.253622	-0.638699	-1.299424
C49	C	1.236185	-0.655655	-1.213345
C50	C	1.174738	-0.715417	-1.159660
C51	C	1.280195	-0.612852	-1.180964
C52	C	1.262763	-0.629811	-1.094893
C53	C	1.201320	-0.689573	-1.041203
C54	C	1.157306	-0.732376	-1.073588
C55	C	1.341646	-0.553095	-1.234652
C56	C	1.385656	-0.510292	-1.202271
C57	C	1.368220	-0.527245	-1.116197
C58	C	1.306777	-0.587007	-1.062507
C59	C	1.412234	-0.484442	-1.083811
C60	C	1.394802	-0.501401	-0.997740
C61	C	1.289345	-0.603966	-0.976436
C62	C	1.227992	-0.663696	-0.423375
C63	C	1.209607	-0.681505	-0.331805
H64	H	0.605185	-0.776951	-0.796480
F65	F	0.893201	-0.796746	-0.816728
F66	F	1.065322	-0.821818	-1.134898
H67	H	0.566519	-0.590364	-0.605561
F68	F	0.583389	-0.535207	-0.549133
F69	F	1.223939	-0.667564	-0.919293
F70	F	0.774756	-0.822711	-0.843304
F71	F	0.990337	-0.667936	-0.684931
F72	F	1.091900	-0.795974	-1.016446
F73	F	0.960032	-0.708109	-0.726041
H74	H	0.663653	-0.461552	-0.473758
F75	F	1.182770	-0.707628	-0.949597
H76	H	1.112328	-0.776112	-1.304479
H77	H	0.782094	-0.435584	-0.447189
F78	F	0.946333	-0.455641	-0.467713
F79	F	1.319019	-0.575100	-1.356569
F80	F	1.451053	-0.446694	-1.259415
F81	F	1.360201	-0.535051	-1.326258
F82	F	1.477636	-0.420851	-1.140958
F83	F	1.441644	-0.455848	-0.963276
