data_functionalizedCrystal
_audit_creation_method	'MofGen! by Chris Wilmer'
_symmetry_space_group_name_H-M	'P1'
_symmetry_Int_Tables_number	1
_symmetry_cell_setting	triclinic
loop_
_symmetry_equiv_pos_as_xyz
  x,y,z
_cell_length_a	10.723024
_cell_length_b	8.965430
_cell_length_c	10.723024
_cell_angle_alpha	89.997502
_cell_angle_beta	84.467869
_cell_angle_gamma	90.003544
loop_
_atom_site_label
_atom_site_type_symbol
_atom_site_fract_x
_atom_site_fract_y
_atom_site_fract_z
O1	O	1.657188	0.124022	0.175018
O2	O	1.294036	0.124027	0.191771
O3	O	1.483989	0.124022	0.001818
O4	O	1.467235	0.124027	0.364971
O5	O	1.483973	-0.124057	0.001831
O6	O	1.294020	-0.124052	0.191784
O7	O	1.657172	-0.124057	0.175031
Cu8	Cu	1.475595	-0.146706	0.183408
Cu9	Cu	1.475614	0.146676	0.183393
O10	O	1.467219	-0.124052	0.364983
C11	C	1.247528	-0.000012	0.190558
C12	C	1.108974	-0.000010	0.186911
C13	C	1.033991	-0.000008	0.293198
C14	C	0.890788	-0.000006	0.289431
N15	N	1.475590	-0.353055	0.183418
C16	C	1.387716	-0.450359	0.271236
C17	C	1.500691	-0.549774	0.296416
C18	C	1.362663	-0.549768	0.158249
C19	C	1.588622	-0.450281	0.208655
C20	C	1.450520	-0.450266	0.070438
C21	C	1.563576	-0.549636	0.095571
C22	C	1.703680	-0.000015	0.176243
C23	C	1.842234	-0.000007	0.179891
N24	N	1.475628	0.353025	0.183374
C25	C	1.468447	-0.000012	0.411477
C26	C	1.472094	-0.000010	0.550031
C27	C	1.482762	-0.000015	-0.044675
C28	C	1.479114	-0.000007	-0.183229
C29	C	1.365807	-0.000008	0.625014
C30	C	1.369574	-0.000006	0.768217
H31	H	0.906659	0.000001	0.088896
H32	H	1.278584	-0.000014	0.832650
H33	H	1.565880	0.000043	0.591853
C34	C	1.149244	-0.000017	-0.037264
C35	C	1.052531	-0.000013	0.060294
H36	H	1.114399	-0.000028	-0.115432
H37	H	1.199457	0.086489	-0.031274
H38	H	1.199454	-0.086533	-0.031256
H39	H	1.002327	0.086509	0.054292
H40	H	1.002297	-0.086528	0.054302
H41	H	1.313473	-0.406769	0.345569
H42	H	1.272021	0.000001	0.583191
H43	H	1.075814	-0.000015	0.386984
H44	H	0.826355	0.000002	0.380421
C45	C	1.206593	-0.556371	0.012117
C46	C	1.233726	-0.608762	0.129517
H47	H	1.126995	-0.592798	-0.005615
H48	H	1.205429	-0.450439	0.012696
H49	H	1.268948	-0.590370	-0.050355
H50	H	1.171376	-0.574754	0.191990
H51	H	1.234880	-0.714716	0.128947
C52	C	1.437200	-0.558696	0.517214
C53	C	1.529352	-0.608796	0.425365
H54	H	1.454886	-0.595139	0.596821
H55	H	1.436643	-0.452764	0.518387
H56	H	1.357574	-0.594232	0.498733
H57	H	1.608977	-0.573250	0.443841
H58	H	1.529921	-0.714750	0.424195
C59	C	1.606840	0.127526	0.654107
C60	C	1.601964	-0.000003	0.729810
H61	H	1.682686	0.127530	0.600422
H62	H	1.537639	0.127511	0.605085
H63	H	1.603522	0.214026	0.705479
H64	H	1.605272	-0.086504	0.678438
H65	H	1.671183	-0.000002	0.778836
H66	H	1.684160	-0.406765	0.230038
H67	H	1.637986	-0.592953	0.021284
H68	H	1.429254	-0.406524	-0.025057
