data_functionalizedCrystal
_audit_creation_method	'MofGen! by Chris Wilmer'
_symmetry_space_group_name_H-M	'P1'
_symmetry_Int_Tables_number	1
_symmetry_cell_setting	triclinic
loop_
_symmetry_equiv_pos_as_xyz
  x,y,z
_cell_length_a	15.021413
_cell_length_b	14.519709
_cell_length_c	14.519709
_cell_angle_alpha	83.680145
_cell_angle_beta	90.003076
_cell_angle_gamma	89.998285
loop_
_atom_site_label
_atom_site_type_symbol
_atom_site_fract_x
_atom_site_fract_y
_atom_site_fract_z
O1	O	0.073918	-1.223873	-0.120879
O2	O	0.573918	-0.723873	0.379121
O3	O	0.073946	-0.955396	-0.135115
O4	O	0.573946	-0.455396	0.364885
O5	O	0.073923	-1.096752	0.006241
O6	O	0.573923	-0.596752	0.506241
O7	O	0.073941	-1.082516	-0.262236
O8	O	0.573941	-0.582516	0.237764
O9	O	-0.074141	-1.096730	0.006221
O10	O	0.425859	-0.596730	0.506221
O11	O	-0.074119	-0.955373	-0.135136
O12	O	0.425881	-0.455373	0.364864
O13	O	-0.074146	-1.223850	-0.120899
O14	O	0.425854	-0.723850	0.379101
Zn15	Zn	-0.097641	-1.089608	-0.128021
Zn16	Zn	0.402359	-0.589608	0.371979
Zn17	Zn	0.097440	-1.089638	-0.127994
Zn18	Zn	0.597440	-0.589638	0.372006
O19	O	-0.074124	-1.082493	-0.262256
O20	O	0.425876	-0.582493	0.237744
C21	C	-0.000083	-0.921025	-0.134462
C22	C	0.499917	-0.421025	0.365538
C23	C	-0.000073	-0.818643	-0.132474
C24	C	0.499927	-0.318643	0.367526
N25	N	-0.230778	-1.089595	-0.128038
N26	N	0.269222	-0.589595	0.371962
C27	C	-0.000109	-1.096078	0.040591
C28	C	0.499891	-0.596078	0.540591
C29	C	-0.000109	-1.094090	0.142972
C30	C	0.499891	-0.594090	0.642972
C31	C	-0.470451	-1.024221	-0.193371
C32	C	0.029549	-0.524221	0.306629
C33	C	-0.529793	-1.107584	-0.211408
C34	C	-0.029793	-0.607584	0.288592
C35	C	-0.412385	-1.089618	-0.128015
C36	C	0.087615	-0.589618	0.371985
C37	C	-0.529785	-1.006278	-0.109999
C38	C	-0.029785	-0.506278	0.390001
C39	C	-0.587809	-1.089633	-0.127995
C40	C	-0.087809	-0.589633	0.372005
C41	C	-0.470421	-1.173023	-0.146094
C42	C	0.029579	-0.673023	0.353906
C43	C	-0.470408	-1.071663	-0.044649
C44	C	0.029592	-0.571663	0.455351
C45	C	-0.529723	-1.155085	-0.062650
C46	C	-0.029723	-0.655085	0.437350
C47	C	-0.311328	-1.089608	-0.128029
C48	C	0.188672	-0.589608	0.371971
C49	C	-0.688865	-1.089653	-0.127980
C50	C	-0.188865	-0.589653	0.372020
N51	N	0.230578	-1.089659	-0.127969
N52	N	0.730578	-0.589659	0.372031
C53	C	-0.000116	-1.258221	-0.121553
C54	C	0.499884	-0.758221	0.378447
C55	C	-0.000120	-1.360602	-0.123541
C56	C	0.499880	-0.860602	0.376459
C57	C	-0.000114	-0.443748	-0.125154
C58	C	0.499886	0.056252	0.374846
C59	C	-0.000102	-0.548056	-0.127187
C60	C	0.499898	-0.048056	0.372813
C61	C	-0.000093	-0.631192	-0.128814
C62	C	0.499907	-0.131192	0.371186
C63	C	-0.000083	-0.735507	-0.130847
C64	C	0.499917	-0.235507	0.369153
C65	C	-0.000090	-1.083168	-0.296606
C66	C	0.499910	-0.583168	0.203394
C67	C	-0.000083	-1.085156	-0.398987
C68	C	0.499917	-0.585156	0.101013
C69	C	-0.000086	-1.086770	0.517868
C70	C	0.499914	-0.586770	1.017868
C71	C	-0.000092	-1.088803	0.413560
C72	C	0.499908	-0.588803	0.913560
C73	C	-0.000098	-1.090430	0.330423
C74	C	0.499902	-0.590430	0.830423
C75	C	-0.000104	-1.092463	0.226109
C76	C	0.499896	-0.592463	0.726109
H77	H	-0.444427	-0.968973	-0.248685
H78	H	0.055573	-0.468973	0.251315
H79	H	-0.555864	-0.935793	-0.094770
H80	H	-0.055864	-0.435793	0.405230
H81	H	-0.555877	-1.122784	-0.281900
H82	H	-0.055877	-0.622784	0.218100
C83	C	-0.435352	-1.268267	-0.166787
C84	C	0.064648	-0.768267	0.333213
C85	C	-0.376059	-1.325890	-0.095591
C86	C	0.123941	-0.825890	0.404409
C87	C	-0.340990	-1.421131	-0.116288
C88	C	0.159010	-0.921131	0.383712
C89	C	-0.365213	-1.458747	-0.208182
C90	C	0.134787	-0.958747	0.291818
C91	C	-0.424509	-1.401123	-0.279384
C92	C	0.075491	-0.901123	0.220616
C93	C	-0.459579	-1.305882	-0.258687
C94	C	0.040421	-0.805882	0.241313
H95	H	-0.358125	-1.298045	-0.027560
H96	H	0.141875	-0.798045	0.472440
H97	H	-0.297095	-1.463788	-0.063579
H98	H	0.202905	-0.963788	0.436421
H99	H	-0.339253	-1.529250	-0.223503
H100	H	0.160747	-1.029250	0.276497
H101	H	-0.442444	-1.428968	-0.347415
H102	H	0.057556	-0.928968	0.152585
H103	H	-0.503473	-1.263225	-0.311396
H104	H	-0.003473	-0.763225	0.188604
C105	C	-0.435132	-1.051096	0.050551
C106	C	0.064868	-0.551096	0.550551
C107	C	-0.334138	-1.048171	0.068208
C108	C	0.165862	-0.548171	0.568208
C109	C	-0.298859	-1.027593	0.163407
C110	C	0.201141	-0.527593	0.663407
C111	C	-0.364575	-1.009940	0.240948
C112	C	0.135425	-0.509940	0.740948
C113	C	-0.465575	-1.012864	0.223293
C114	C	0.034425	-0.512864	0.723293
C115	C	-0.500853	-1.033442	0.128094
C116	C	-0.000853	-0.533442	0.628094
H117	H	-0.285486	-1.061240	0.010805
H118	H	0.214514	-0.561240	0.510805
H119	H	-0.224092	-1.025428	0.176476
H120	H	0.275908	-0.525428	0.676476
H121	H	-0.338460	-0.994706	0.311420
H122	H	0.161540	-0.494706	0.811420
H123	H	-0.514227	-0.999795	0.280696
H124	H	-0.014227	-0.499795	0.780696
H125	H	-0.575620	-1.035607	0.115025
H126	H	-0.075620	-0.535607	0.615025
H127	H	-0.555584	-1.210456	-0.007369
H128	H	-0.055584	-0.710456	0.492631
