data_functionalizedCrystal
_audit_creation_method	'MofGen! by Chris Wilmer'
_symmetry_space_group_name_H-M	'P1'
_symmetry_Int_Tables_number	1
_symmetry_cell_setting	triclinic
loop_
_symmetry_equiv_pos_as_xyz
  x,y,z
_cell_length_a	15.538191
_cell_length_b	16.992701
_cell_length_c	16.053942
_cell_angle_alpha	87.259463
_cell_angle_beta	91.548461
_cell_angle_gamma	68.969632
loop_
_atom_site_label
_atom_site_type_symbol
_atom_site_fract_x
_atom_site_fract_y
_atom_site_fract_z
O1	O	0.199181	0.980404	0.069420
O2	O	0.197038	0.752728	0.069421
O3	O	0.064316	0.910885	0.069424
O4	O	0.331903	0.822247	0.069417
O5	O	0.057036	0.919546	-0.069431
O6	O	0.189758	0.761389	-0.069435
O7	O	0.191900	0.989065	-0.069435
Zn8	Zn	0.189673	0.876602	-0.091482
Zn9	Zn	0.199265	0.865191	0.091467
O10	O	0.324622	0.830909	-0.069439
C11	C	0.190638	0.728632	-0.000007
C12	C	0.182404	0.643931	-0.000006
C13	C	0.127081	0.170716	-0.000002
C14	C	0.134824	0.250299	-0.000007
C15	C	0.222022	0.257025	-0.000006
C16	C	0.301481	0.184163	-0.000008
C17	C	0.293737	0.104582	-0.000008
C18	C	0.254119	0.491488	-0.000009
C19	C	0.261858	0.571076	-0.000006
C20	C	0.095200	0.637208	-0.000007
C21	C	0.087463	0.557622	-0.000002
C22	C	0.166922	0.484767	-0.000009
N23	N	0.229939	0.338371	-0.000008
N24	N	0.159004	0.403424	-0.000012
C25	C	0.026278	0.924489	-0.000001
C26	C	-0.076216	0.952112	0.000008
C27	C	-0.384664	0.677679	-0.000010
C28	C	-0.480974	0.703655	-0.000012
C29	C	-0.492420	0.849764	-0.000012
C30	C	-0.396108	0.823800	-0.000006
C31	C	-0.342237	0.737756	-0.000006
C32	C	-0.353681	0.883878	-0.000001
C33	C	-0.257378	0.857915	0.000000
C34	C	-0.203501	0.771876	-0.000002
C35	C	-0.245934	0.711794	-0.000004
C36	C	-0.407554	0.969921	-0.000007
C37	C	-0.365127	1.029999	-0.000003
C38	C	-0.268822	1.004037	0.000004
C39	C	-0.214945	0.917997	0.000002
C40	C	-0.226390	1.064118	0.000006
C41	C	-0.130086	1.038156	0.000008
C42	C	-0.118642	0.892035	0.000003
C43	C	0.362660	0.817304	-0.000012
C44	C	0.465154	0.789681	-0.000015
C45	C	0.198300	1.013161	-0.000006
C46	C	0.206534	1.097862	-0.000001
N47	N	0.183127	0.884396	-0.216339
C48	C	0.149355	0.924704	-0.739958
C49	C	0.153944	0.919231	-0.652553
C50	C	0.214980	0.846456	-0.608867
C51	C	0.271436	0.779153	-0.652591
C52	C	0.266850	0.784629	-0.739994
C53	C	0.234997	0.822570	-0.347466
C54	C	0.239577	0.817097	-0.260056
C55	C	0.122086	0.957177	-0.260025
C56	C	0.117502	0.962644	-0.347430
C57	C	0.173961	0.895343	-0.391146
N58	N	0.219670	0.840859	-0.519525
N59	N	0.169275	0.900944	-0.480486
N60	N	0.205805	0.857405	0.216325
H61	H	-0.074777	0.821969	0.000010
H62	H	-0.125085	0.750739	-0.000006
H63	H	0.067802	1.021904	-0.382997
H64	H	-0.202069	0.641728	0.000002
C65	C	0.338571	0.699101	-0.604538
H66	H	0.333210	0.705472	-0.546223
H67	H	0.400006	0.690804	-0.618860
H68	H	0.323897	0.651634	-0.618881
H69	H	0.016458	0.552155	-0.000003
H70	H	0.318820	0.432176	-0.000010
C71	C	-0.325400	0.583031	-0.000002
H72	H	-0.364458	0.550965	-0.000006
H73	H	-0.285057	0.566852	0.048420
H74	H	-0.290132	0.572886	-0.048430
C75	C	0.306711	0.737040	-0.211999
H76	H	0.301342	0.743415	-0.153684
H77	H	0.368149	0.728740	-0.226313
H78	H	0.292036	0.689574	-0.226343
H79	H	-0.515514	0.654727	-0.000027
H80	H	0.070125	0.309618	-0.000011
H81	H	-0.536294	0.919821	-0.000015
C82	C	-0.083413	1.104238	0.000013
H83	H	-0.129288	1.159200	0.000021
H84	H	-0.048619	1.100167	-0.048408
H85	H	-0.043547	1.094124	0.048442
C86	C	-0.424385	1.124641	-0.000000
H87	H	-0.385322	1.156703	-0.000001
H88	H	-0.459657	1.134784	0.048420
H89	H	-0.464725	1.140829	-0.048430
H90	H	-0.270266	1.134175	-0.000002
C91	C	0.381132	0.024440	-0.000007
H92	H	0.364032	-0.023918	-0.000016
H93	H	0.419178	0.020872	0.048415
H94	H	0.414099	0.026918	-0.048435
C95	C	0.082214	1.004757	-0.788005
H96	H	0.049258	1.044056	-0.749447
H97	H	0.039933	0.990219	-0.822108
H98	H	0.116038	1.029395	-0.822092
H99	H	0.076120	1.011971	-0.224424
H100	H	-0.485970	0.991056	-0.000001
H101	H	0.056076	0.165249	0.000003
C102	C	0.328922	0.710589	-0.788083
H103	H	0.365917	0.666455	-0.749549
H104	H	0.367630	0.729383	-0.822182
H105	H	0.291502	0.690235	-0.822177
H106	H	0.030509	0.696533	-0.000003
H107	H	0.280967	0.767769	-0.383052
H108	H	0.332867	0.576546	-0.000017
H109	H	0.372479	0.189645	-0.000012
C110	C	0.091844	0.993257	-0.604468
H111	H	0.054828	1.037378	-0.643004
H112	H	0.129233	1.013627	-0.570363
H113	H	0.053140	0.974437	-0.570379
