data_functionalizedCrystal
_audit_creation_method	'MofGen! by Chris Wilmer'
_symmetry_space_group_name_H-M	'P1'
_symmetry_Int_Tables_number	1
_symmetry_cell_setting	triclinic
loop_
_symmetry_equiv_pos_as_xyz
  x,y,z
_cell_length_a	9.065218
_cell_length_b	16.992695
_cell_length_c	7.540329
_cell_angle_alpha	89.996072
_cell_angle_beta	89.996962
_cell_angle_gamma	87.842054
loop_
_atom_site_label
_atom_site_type_symbol
_atom_site_fract_x
_atom_site_fract_y
_atom_site_fract_z
O1	O	1.971074	0.115065	-0.147490
O2	O	2.471074	0.615065	0.352510
O3	O	1.542664	0.124504	-0.147492
O4	O	2.042664	0.624504	0.352508
O5	O	1.755152	0.005630	-0.147477
O6	O	2.255152	0.505630	0.352523
O7	O	1.758586	0.233939	-0.147505
O8	O	2.258586	0.733939	0.352495
O9	O	1.755138	0.005628	0.147488
O10	O	2.255138	0.505628	0.647488
O11	O	1.542651	0.124502	0.147473
O12	O	2.042651	0.624502	0.647473
O13	O	1.971060	0.115064	0.147476
O14	O	2.471060	0.615064	0.647476
Cu15	Cu	1.756854	0.119783	0.174407
Cu16	Cu	2.256854	0.619783	0.674407
Cu17	Cu	1.756870	0.119785	-0.174424
Cu18	Cu	2.256870	0.619785	0.325576
O19	O	1.758573	0.233938	0.147460
O20	O	2.258573	0.733938	0.647460
C21	C	1.487587	0.123596	-0.000010
C22	C	1.987587	0.623596	0.499990
C23	C	1.323492	0.120884	-0.000011
C24	C	1.823492	0.620884	0.499989
C25	C	1.750726	-0.023615	0.000005
C26	C	2.250726	0.476385	0.500005
C27	C	1.737542	-0.110753	0.000005
C28	C	2.237542	0.389247	0.500005
C29	C	1.864748	-0.160090	0.000008
C30	C	2.364748	0.339910	0.500008
C31	C	1.852352	-0.241964	-0.000009
C32	C	2.352352	0.258036	0.499991
C33	C	1.712748	-0.274500	-0.000016
C34	C	2.212748	0.225500	0.499984
C35	C	1.585533	-0.225157	-0.000024
C36	C	2.085533	0.274843	0.499976
C37	C	1.597931	-0.143284	-0.000020
C38	C	2.097931	0.356716	0.499980
C39	C	1.661364	-0.518463	-0.000041
C40	C	2.161364	-0.018463	0.499959
C41	C	1.648976	-0.600343	-0.000040
C42	C	2.148976	-0.100343	0.499960
C43	C	1.915797	-0.617144	-0.000028
C44	C	2.415797	-0.117144	0.499972
C45	C	1.928182	-0.535269	-0.000013
C46	C	2.428182	-0.035269	0.499987
C47	C	1.800967	-0.485933	-0.000031
C48	C	2.300967	0.014067	0.499969
N49	N	1.700074	-0.358189	-0.000028
N50	N	2.200074	0.141811	0.499972
N51	N	1.813642	-0.402245	-0.000032
N52	N	2.313642	0.097755	0.499968
C53	C	2.026138	0.115972	-0.000011
C54	C	2.526138	0.615972	0.499989
C55	C	2.190232	0.118684	-0.000022
C56	C	2.690232	0.618684	0.499978
C57	C	1.762998	0.263183	-0.000026
C58	C	2.262998	0.763183	0.499974
C59	C	1.776182	0.350320	-0.000037
C60	C	2.276182	0.850320	0.499963
N61	N	1.756853	0.119781	0.419755
N62	N	2.256853	0.619781	0.919755
N63	N	1.756882	0.119780	-0.419772
N64	N	2.256882	0.619780	0.080228
H65	H	1.955937	-0.282132	-0.000003
H66	H	2.455937	0.217868	0.499997
C67	C	2.081743	-0.499481	0.000006
C68	C	2.581743	0.000519	0.500006
H69	H	2.070906	-0.443654	0.000030
H70	H	2.570906	0.056346	0.500030
H71	H	2.134547	-0.516344	-0.102846
H72	H	2.634547	-0.016344	0.397154
H73	H	2.134505	-0.516358	0.102888
H74	H	2.634505	-0.016358	0.602888
H75	H	1.978428	-0.133606	0.000024
H76	H	2.478428	0.366394	0.500024
H77	H	2.019368	-0.657322	-0.000018
H78	H	2.519368	-0.157322	0.499982
H79	H	1.557776	-0.478303	-0.000055
H80	H	2.057776	0.021697	0.499945
C81	C	1.431972	-0.260944	-0.000027
C82	C	1.931972	0.239056	0.499973
H83	H	1.442804	-0.316771	-0.000009
H84	H	1.942804	0.183229	0.499991
H85	H	1.379189	-0.244072	-0.102885
H86	H	1.879189	0.255928	0.397115
H87	H	1.379191	-0.244076	0.102849
H88	H	1.879191	0.255924	0.602849
H89	H	1.494345	-0.103114	-0.000023
H90	H	1.994345	0.396886	0.499977
C91	C	1.495406	-0.636131	-0.000078
C92	C	1.995406	-0.136131	0.499922
H93	H	1.421415	-0.595022	-0.000109
H94	H	1.921415	-0.095022	0.499891
H95	H	1.485003	-0.667725	0.102777
H96	H	1.985003	-0.167725	0.602777
H97	H	1.485054	-0.667715	-0.102957
H98	H	1.985054	-0.167715	0.397043
