data_functionalizedCrystal
_audit_creation_method	'MofGen! by Chris Wilmer'
_symmetry_space_group_name_H-M	'P1'
_symmetry_Int_Tables_number	1
_symmetry_cell_setting	triclinic
loop_
_symmetry_equiv_pos_as_xyz
  x,y,z
_cell_length_a	14.044220
_cell_length_b	14.044220
_cell_length_c	9.130313
_cell_angle_alpha	89.997493
_cell_angle_beta	90.004466
_cell_angle_gamma	93.188878
loop_
_atom_site_label
_atom_site_type_symbol
_atom_site_fract_x
_atom_site_fract_y
_atom_site_fract_z
O1	O	1.277162	0.230163	-0.121649
O2	O	1.000491	0.221857	-0.121686
O3	O	1.134674	0.087674	-0.121654
O4	O	1.142979	0.364346	-0.121682
O5	O	1.134672	0.087678	0.121945
O6	O	1.000489	0.221861	0.121913
O7	O	1.277161	0.230167	0.121949
Cu8	Cu	1.138825	0.226014	0.144174
Cu9	Cu	1.138827	0.226010	-0.143910
O10	O	1.142978	0.364349	0.121917
C11	C	0.964868	0.218223	0.000109
C12	C	0.858725	0.207379	0.000095
C13	C	0.664388	0.187553	0.000126
C14	C	0.613258	0.264467	0.000124
C15	C	0.505122	0.253435	0.000142
C16	C	0.772534	0.198583	0.000109
C17	C	1.131037	0.052054	0.000146
C18	C	1.120193	-0.054088	0.000146
C19	C	1.100366	-0.248426	0.000122
C20	C	1.177281	-0.299556	0.000128
C21	C	1.166249	-0.407692	0.000115
C22	C	1.111397	-0.140280	0.000135
C23	C	1.312783	0.233800	0.000151
C24	C	1.418926	0.244645	0.000155
C25	C	1.146614	0.399969	0.000114
C26	C	1.157459	0.506112	0.000104
N27	N	1.138831	0.226017	0.346796
N28	N	1.138828	0.226000	-0.346533
C29	C	1.198265	0.166624	0.423462
C30	C	1.198262	0.166613	0.576799
C31	C	1.079387	0.285395	0.576790
C32	C	1.079386	0.285401	0.423456
C33	C	1.266900	0.098049	0.423469
C34	C	1.266896	0.098038	0.576806
H35	H	0.626951	0.113425	0.000141
H36	H	1.251414	-0.262117	0.000040
C37	C	1.237368	-0.002686	0.367242
N38	N	1.215122	-0.078557	0.324891
C39	C	1.000222	-0.299003	0.000128
N40	N	0.924793	-0.337108	0.000145
H41	H	1.030981	0.333754	0.361036
H42	H	1.030988	0.333743	0.639223
H43	H	1.337932	0.126544	0.375917
H44	H	1.341453	0.119949	0.618430
C45	C	1.228465	0.002048	0.641052
N46	N	1.199513	-0.070248	0.689444
H47	H	0.650697	0.338600	0.000110
