data_functionalizedCrystal
_audit_creation_method	'MofGen! by Chris Wilmer'
_symmetry_space_group_name_H-M	'P1'
_symmetry_Int_Tables_number	1
_symmetry_cell_setting	triclinic
loop_
_symmetry_equiv_pos_as_xyz
  x,y,z
_cell_length_a	12.759401
_cell_length_b	12.759394
_cell_length_c	12.759393
_cell_angle_alpha	90.030600
_cell_angle_beta	90.018496
_cell_angle_gamma	90.014017
loop_
_atom_site_label
_atom_site_type_symbol
_atom_site_fract_x
_atom_site_fract_y
_atom_site_fract_z
Zn1	Zn	1.606262	-0.418200	0.593988
Zn2	Zn	1.606158	-0.593919	0.418311
Zn3	Zn	1.430564	-0.418255	0.418328
Zn4	Zn	1.430555	-0.593838	0.593953
O5	O	1.518385	-0.506053	0.506145
O6	O	1.753269	-0.441520	0.570692
O7	O	1.582826	-0.570674	0.271293
O8	O	1.453917	-0.271227	0.441651
O9	O	1.753193	-0.570620	0.441623
O10	O	1.583002	-0.271186	0.570708
O11	O	1.453817	-0.441614	0.271305
O12	O	1.283541	-0.441536	0.441617
O13	O	1.453902	-0.570482	0.740979
O14	O	1.283535	-0.570536	0.570648
O15	O	1.582993	-0.441442	0.741005
O16	O	1.582817	-0.740929	0.441589
O17	O	1.453802	-0.740870	0.570632
C18	C	1.245417	-0.506034	0.506131
C19	C	1.128641	-0.506051	0.506150
C20	C	1.518326	-0.779021	0.506128
C21	C	1.518397	-0.895797	0.506156
C22	C	1.073803	-0.573329	0.573225
C23	C	0.964079	-0.573342	0.573236
C24	C	0.964040	-0.438796	0.439088
C25	C	1.073762	-0.438779	0.439083
C26	C	1.128681	-0.640601	0.640292
C27	C	1.073843	-0.707885	0.707372
C28	C	0.964119	-0.707898	0.707383
C29	C	0.909233	-0.640627	0.640315
C30	C	1.652713	-0.895597	0.640643
C31	C	1.719903	-0.950358	0.707895
C32	C	1.719966	-1.060079	0.707918
C33	C	1.652828	-1.115043	0.640684
C34	C	1.585637	-1.060282	0.573432
C35	C	1.585584	-0.950558	0.573414
C36	C	1.451318	-1.060482	0.438951
C37	C	1.451260	-0.950761	0.438921
C38	C	1.384181	-1.115446	0.371717
C39	C	1.316994	-1.060685	0.304458
C40	C	1.316935	-0.950957	0.304437
C41	C	1.384069	-0.896000	0.371669
C42	C	1.792418	-0.506073	0.506160
C43	C	1.909194	-0.506082	0.506166
C44	C	1.518458	-0.505947	0.780179
C45	C	1.518489	-0.505902	0.896955
C46	C	1.518472	-0.232020	0.506186
C47	C	1.518509	-0.115243	0.506203
C48	C	1.518372	-0.506083	0.233178
C49	C	1.518544	-0.505832	0.116402
C50	C	1.585716	-0.438704	0.951833
C51	C	1.585741	-0.438666	1.061557
C52	C	1.451310	-0.573033	1.061517
C53	C	1.451280	-0.573065	0.951795
C54	C	1.652926	-0.371541	0.896993
C55	C	1.720159	-0.304339	0.951871
C56	C	1.720184	-0.304301	1.061595
C57	C	1.652976	-0.371465	1.116442
H58	H	1.218024	-0.640599	0.640288
H59	H	1.652989	-0.371417	1.205787
O60	O	0.910845	-0.373512	0.373788
C61	C	0.937600	-0.396367	0.269036
H62	H	1.017262	-0.436737	0.266790
H63	H	0.941342	-0.320489	0.222052
H64	H	0.875831	-0.450353	0.233560
H65	H	1.118412	-0.383987	0.384472
O66	O	1.785322	-1.113116	0.773288
C67	C	1.844538	-1.041084	0.832654
H68	H	1.848171	-0.962898	0.789610
H69	H	1.927322	-1.072723	0.843947
H70	H	1.806009	-1.029383	0.912408
H71	H	0.819888	-0.640635	0.640338
O72	O	1.127317	-0.773191	0.772423
C73	C	1.235920	-0.758736	0.758051
H74	H	1.250877	-0.724231	0.677029
H75	H	1.277613	-0.837436	0.765040
H76	H	1.267089	-0.702857	0.820462
H77	H	0.919473	-0.762677	0.762010
O78	O	1.385936	-0.638313	1.114629
C79	C	1.326611	-0.697652	1.042663
H80	H	1.322961	-0.654641	0.964460
H81	H	1.243841	-0.708847	1.074362
H82	H	1.365058	-0.777450	1.030975
H83	H	1.774921	-0.249574	1.106273
H84	H	1.652915	-0.371567	0.807651
H85	H	1.384032	-0.806659	0.371655
O86	O	1.785583	-0.239147	0.898712
C87	C	1.890295	-0.262124	0.925507
H88	H	1.892480	-0.302485	1.005165
H89	H	1.937431	-0.186302	0.929279
H90	H	1.925649	-0.316163	0.863746
H91	H	1.396522	-0.627767	0.907112
H92	H	1.652678	-0.806256	0.640622
O93	O	1.784972	-0.896847	0.773253
C94	C	1.725089	-0.833397	0.841069
H95	H	1.645477	-0.817052	0.803950
H96	H	1.767834	-0.756195	0.855164
H97	H	1.713536	-0.875634	0.918927
O98	O	1.653047	-1.221625	0.640811
C99	C	1.726721	-1.258172	0.714611
H100	H	1.788067	-1.194885	0.729359
H101	H	1.766640	-1.331573	0.682958
H102	H	1.685034	-1.277612	0.791190
O103	O	1.384236	-1.222028	0.371930
C104	C	1.357209	-1.258641	0.472600
H105	H	1.375098	-1.195356	0.533121
H106	H	1.404632	-1.331995	0.491319
H107	H	1.270045	-1.278179	0.474765
H108	H	1.262330	-1.105445	0.249726
H109	H	1.262216	-0.906376	0.249677
