data_functionalizedCrystal
_audit_creation_method	'MofGen! by Chris Wilmer'
_symmetry_space_group_name_H-M	'P1'
_symmetry_Int_Tables_number	1
_symmetry_cell_setting	triclinic
loop_
_symmetry_equiv_pos_as_xyz
  x,y,z
_cell_length_a	23.532355
_cell_length_b	23.532407
_cell_length_c	15.500227
_cell_angle_alpha	92.805592
_cell_angle_beta	87.179784
_cell_angle_gamma	82.838088
loop_
_atom_site_label
_atom_site_type_symbol
_atom_site_fract_x
_atom_site_fract_y
_atom_site_fract_z
O1	O	0.757939	0.066339	-0.071834
O2	O	1.257939	0.566339	0.428166
O3	O	0.592072	0.076372	-0.071863
O4	O	1.092072	0.576372	0.428137
O5	O	0.680007	-0.011577	-0.071832
O6	O	1.180007	0.488423	0.428168
O7	O	0.670004	0.154287	-0.071865
O8	O	1.170004	0.654287	0.428135
O9	O	0.674671	-0.006261	0.072055
O10	O	1.174671	0.493739	0.572055
O11	O	0.586736	0.081688	0.072024
O12	O	1.086736	0.581688	0.572024
O13	O	0.752603	0.071655	0.072052
O14	O	1.252603	0.571655	0.572052
Cu15	Cu	0.669182	0.077157	0.085176
Cu16	Cu	1.169182	0.577157	0.585176
Cu17	Cu	0.675493	0.070870	-0.084987
Cu18	Cu	1.175493	0.570870	0.415013
O19	O	0.664669	0.159603	0.072021
O20	O	1.164669	0.659603	0.572021
C21	C	0.568188	0.078779	0.000077
C22	C	1.068188	0.578779	0.500077
C23	C	0.504970	0.078024	0.000067
C24	C	1.004970	0.578024	0.500067
C25	C	0.677084	-0.030135	0.000114
C26	C	1.177084	0.469865	0.500114
C27	C	0.676318	-0.093351	0.000120
C28	C	1.176318	0.406649	0.500120
C29	C	0.110046	0.076186	0.078536
C30	C	0.610046	0.576186	0.578536
C31	C	0.050646	0.075468	0.078540
C32	C	0.550646	0.575468	0.578540
O33	O	0.017454	0.077542	0.145243
O34	O	0.517454	0.577542	0.645243
N35	N	0.023846	0.072215	0.000108
N36	N	0.523846	0.572215	0.500108
C37	C	0.056450	0.069672	-0.078333
C38	C	0.556450	0.569672	0.421667
O39	O	0.028201	0.066839	-0.145046
O40	O	0.528201	0.566839	0.354954
C41	C	0.115849	0.070386	-0.078336
C42	C	0.615849	0.570386	0.421664
C43	C	0.142645	0.073645	0.000101
C44	C	0.642645	0.573645	0.500101
C45	C	0.136842	0.079444	0.156967
C46	C	0.636842	0.579444	0.656967
C47	C	0.196237	0.080162	0.156964
C48	C	0.696237	0.580162	0.656964
C49	C	0.228836	0.077622	0.078529
C50	C	0.728836	0.577622	0.578529
C51	C	0.202040	0.074364	0.000098
C52	C	0.702040	0.574364	0.500098
C53	C	0.148452	0.067839	-0.156776
C54	C	0.648452	0.567839	0.343224
C55	C	0.207855	0.068553	-0.156772
C56	C	0.707855	0.568553	0.343228
C57	C	0.234651	0.071812	-0.078334
C58	C	0.734651	0.571812	0.421666
C59	C	0.294035	0.072542	-0.078341
C60	C	0.794035	0.572542	0.421659
N61	N	0.320835	0.075795	0.000091
N62	N	0.820835	0.575795	0.500091
C63	C	0.288235	0.078335	0.078526
C64	C	0.788235	0.578335	0.578526
C65	C	-0.068292	0.068174	-0.078322
C66	C	0.431708	0.568174	0.421678
C67	C	-0.127690	0.067465	-0.078320
C68	C	0.372310	0.567465	0.421680
C69	C	-0.133490	0.073259	0.078553
C70	C	0.366510	0.573259	0.578553
C71	C	-0.074091	0.073973	0.078551
C72	C	0.425909	0.573973	0.578551
C73	C	-0.041492	0.071427	0.000110
C74	C	0.458508	0.571427	0.500110
C75	C	0.412970	0.079844	0.078512
C76	C	0.912970	0.579844	0.578512
C77	C	0.472371	0.080565	0.078501
C78	C	0.972371	0.580565	0.578501
C79	C	0.478165	0.074767	-0.078372
C80	C	0.978165	0.574767	0.421628
C81	C	0.418770	0.074050	-0.078361
C82	C	0.918770	0.574050	0.421639
C83	C	0.386173	0.076587	0.000088
C84	C	0.886173	0.576587	0.500088
O85	O	0.327264	0.070467	-0.145010
O86	O	0.827264	0.570467	0.354990
O87	O	0.316494	0.081161	0.145227
O88	O	0.816494	0.581161	0.645227
C89	C	0.723554	-0.492465	0.000081
C90	C	1.223554	0.007535	0.500081
C91	C	0.722843	-0.551865	0.000074
C92	C	1.222843	-0.051865	0.500074
O93	O	0.766631	-0.588619	0.000050
O94	O	1.266631	-0.088619	0.500050
N95	N	0.670565	-0.574482	0.000066
N96	N	1.170565	-0.074482	0.500066
C97	C	0.618996	-0.537695	0.000055
C98	C	1.118996	-0.037695	0.500055
O99	O	0.574465	-0.562387	0.000047
O100	O	1.074465	-0.062387	0.500047
C101	C	0.619708	-0.478296	0.000056
C102	C	1.119708	0.021704	0.500056
C103	C	0.671989	-0.455682	0.000073
C104	C	1.171989	0.044318	0.500073
C105	C	0.775830	-0.469850	0.000097
C106	C	1.275830	0.030150	0.500097
C107	C	0.776541	-0.410454	0.000105
C108	C	1.276541	0.089546	0.500105
C109	C	0.724976	-0.373672	0.000097
C110	C	1.224976	0.126328	0.500097
C111	C	0.672700	-0.396286	0.000081
C112	C	1.172700	0.103714	0.500081
C113	C	0.568140	-0.441510	0.000039
C114	C	1.068140	0.058490	0.500039
C115	C	0.568857	-0.382108	0.000039
C116	C	1.068857	0.117892	0.500039
C117	C	0.621137	-0.359495	0.000056
C118	C	1.121137	0.140505	0.500056
C119	C	0.621845	-0.300107	0.000082
C120	C	1.121845	0.199893	0.500082
N121	N	0.674123	-0.277491	0.000090
N122	N	1.174123	0.222509	0.500090
C123	C	0.725688	-0.314273	0.000098
C124	C	1.225688	0.185727	0.500098
C125	C	0.617505	-0.662437	0.000053
C126	C	1.117505	-0.162437	0.500053
C127	C	0.616792	-0.721835	0.000058
C128	C	1.116792	-0.221835	0.500058
C129	C	0.720639	-0.736001	0.000076
C130	C	1.220639	-0.236001	0.500076
C131	C	0.721351	-0.676602	0.000076
C132	C	1.221351	-0.176602	0.500076
C133	C	0.669782	-0.639820	0.000061
C134	C	1.169782	-0.139820	0.500061
C135	C	0.727177	-0.189536	0.000116
C136	C	1.227177	0.310464	0.500116
C137	C	0.727883	-0.130133	0.000128
C138	C	1.227883	0.369867	0.500128
C139	C	0.624037	-0.115973	0.000106
C140	C	1.124037	0.384027	0.500106
C141	C	0.623330	-0.175370	0.000099
C142	C	1.123330	0.324630	0.500099
C143	C	0.674905	-0.212151	0.000101
C144	C	1.174905	0.287849	0.500101
O145	O	0.578080	-0.263319	0.000102
O146	O	1.078080	0.236681	0.500102
O147	O	0.770212	-0.289573	0.000095
O148	O	1.270212	0.210427	0.500095
C149	C	0.776487	0.069248	0.000111
C150	C	1.276487	0.569248	0.500111
C151	C	0.839706	0.070002	0.000115
C152	C	1.339706	0.570002	0.500115
C153	C	0.667591	0.178161	0.000074
C154	C	1.167591	0.678161	0.500074
C155	C	0.668358	0.241378	0.000062
C156	C	1.168358	0.741378	0.500062
N157	N	0.664748	0.081578	0.204859
N158	N	1.164748	0.581578	0.704859
N159	N	0.679932	0.066444	-0.204670
N160	N	1.179932	0.566444	0.295330
C161	C	0.702022	0.044325	0.250149
C162	C	1.202022	0.544325	0.750149
C163	C	0.698674	0.047674	0.340721
C164	C	1.198674	0.547674	0.840721
C165	C	0.658054	0.088280	0.386001
C166	C	1.158054	0.588280	0.886001
C167	C	0.620776	0.125535	0.340705
C168	C	1.120776	0.625535	0.840705
C169	C	0.624122	0.122182	0.250135
C170	C	1.124122	0.622182	0.750135
C171	C	0.646000	0.100346	0.659464
C172	C	1.146000	0.600346	1.159464
C173	C	0.642658	0.103697	0.750040
C174	C	1.142658	0.603697	1.250040
C175	C	0.720555	0.025835	0.750050
C176	C	1.220555	0.525835	1.250050
C177	C	0.723900	0.022489	0.659478
C178	C	1.223900	0.522489	1.159478
C179	C	0.686620	0.059742	0.614190
C180	C	1.186620	0.559742	1.114190
C181	C	0.654632	0.091705	0.478580
C182	C	1.154632	0.591705	0.978580
C183	C	0.690040	0.056313	0.521613
C184	C	1.190040	0.556313	1.021613
H185	H	0.494184	0.083221	0.142377
H186	H	0.994184	0.583221	0.642377
O187	O	0.573970	-0.080218	-0.000057
O188	O	1.073970	0.419782	0.499943
C189	C	0.574056	-0.048173	-0.074567
C190	C	1.074056	0.451827	0.425433
H191	H	0.605239	-0.072018	-0.126642
H192	H	1.105239	0.427982	0.373358
H193	H	0.529072	-0.042147	-0.099598
H194	H	1.029072	0.457853	0.400402
H195	H	0.587927	-0.004441	-0.057712
H196	H	1.087927	0.495559	0.442288
O197	O	0.587998	0.158391	0.206042
O198	O	1.087998	0.658391	0.706042
C199	C	0.620230	0.191438	0.153648
C200	C	1.120230	0.691438	0.653648
H201	H	0.665426	0.168019	0.140081
H202	H	1.165426	0.668019	0.640081
H203	H	0.598761	0.198213	0.089960
H204	H	1.098761	0.698213	0.589960
H205	H	0.622569	0.234802	0.188535
H206	H	1.122569	0.734802	0.688535
H207	H	-0.041754	0.066106	-0.142202
H208	H	0.458246	0.566106	0.357798
O209	O	0.770782	-0.771655	0.000114
O210	O	1.270782	-0.271655	0.500114
C211	C	0.817083	-0.738965	0.000100
C212	C	1.317083	-0.238965	0.500100
H213	H	0.801365	-0.693542	0.027345
H214	H	1.301365	-0.193542	0.527345
H215	H	0.851642	-0.759550	0.041875
H216	H	1.351642	-0.259550	0.541875
H217	H	0.835681	-0.737369	-0.068928
H218	H	1.335681	-0.237369	0.431072
H219	H	0.750906	-0.004495	0.786932
H220	H	1.250906	0.495505	1.286932
H221	H	0.609579	0.136765	0.786903
H222	H	1.109579	0.636765	1.286903
O223	O	0.827306	-0.388458	0.000263
O224	O	1.327306	0.111542	0.500263
C225	C	0.828067	-0.351765	0.074771
C226	C	1.328067	0.148235	0.574771
H227	H	0.796458	-0.363720	0.126857
H228	H	1.296458	0.136280	0.626857
H229	H	0.873072	-0.356442	0.099785
H230	H	1.373072	0.143558	0.599785
H231	H	0.815286	-0.305465	0.057921
H232	H	1.315286	0.194535	0.557921
O233	O	0.609742	0.136459	0.615435
O234	O	1.109742	0.636459	1.115435
C235	C	0.576723	0.104211	0.563043
C236	C	1.076723	0.604211	1.063043
H237	H	0.575001	0.060312	0.590352
H238	H	1.075001	0.560312	1.090352
H239	H	0.531366	0.127654	0.562012
H240	H	1.031366	0.627654	1.062012
H241	H	0.597102	0.098590	0.494401
H242	H	1.097102	0.598590	0.994401
H243	H	0.587700	0.158595	0.377577
H244	H	1.087700	0.658595	0.877577
H245	H	0.769174	-0.219477	0.000114
H246	H	1.269174	0.280523	0.500114
H247	H	0.723111	0.023250	0.484743
H248	H	1.223111	0.523250	0.984743
O249	O	0.734948	0.011466	0.384581
O250	O	1.234948	0.511466	0.884581
C251	C	0.771513	-0.025096	0.325194
C252	C	1.271513	0.474904	0.825194
H253	H	0.774400	-0.004139	0.260623
H254	H	1.274400	0.495861	0.760623
H255	H	0.816078	-0.033044	0.351354
H256	H	1.316078	0.466956	0.851354
H257	H	0.753628	-0.067669	0.315585
H258	H	1.253628	0.432331	0.815585
O259	O	0.509890	0.072378	-0.154503
O260	O	1.009890	0.572378	0.345497
C261	C	0.537678	0.121954	-0.159217
C262	C	1.037678	0.621954	0.340783
H263	H	0.541803	0.141029	-0.091121
H264	H	1.041803	0.641029	0.408879
H265	H	0.582194	0.110134	-0.192399
H266	H	1.082194	0.610134	0.307601
H267	H	0.511509	0.154789	-0.197943
H268	H	1.011509	0.654789	0.302057
H269	H	0.735101	0.011262	0.213288
H270	H	1.235101	0.511262	0.713288
O271	O	0.778723	-0.108264	0.000103
O272	O	1.278723	0.391736	0.500103
C273	C	0.824080	-0.153471	0.000126
C274	C	1.324080	0.346529	0.500126
H275	H	0.809358	-0.194737	-0.027122
H276	H	1.309358	0.305263	0.472878
H277	H	0.862150	-0.142803	-0.041640
H278	H	1.362150	0.357197	0.458360
H279	H	0.837410	-0.159426	0.069158
H280	H	1.337410	0.340574	0.569158
O281	O	0.825976	-0.505493	0.000146
O282	O	1.325976	-0.005493	0.500146
C283	C	0.872262	-0.472784	0.000137
C284	C	1.372262	0.027216	0.500137
H285	H	0.856526	-0.427363	0.027370
H286	H	1.356526	0.072637	0.527370
H287	H	0.906822	-0.493352	0.041925
H288	H	1.406822	0.006648	0.541925
H289	H	0.890866	-0.471189	-0.068888
H290	H	1.390866	0.028811	0.431112
O291	O	0.381382	0.082238	0.154771
O292	O	0.881382	0.582238	0.654771
C293	C	0.400862	0.034841	0.202490
C294	C	0.900862	0.534841	0.702490
H295	H	0.447058	0.018088	0.180178
H296	H	0.947058	0.518088	0.680178
H297	H	0.398734	0.048615	0.274240
H298	H	0.898734	0.548615	0.774240
H299	H	0.372548	-0.000507	0.191640
H300	H	0.872548	0.499493	0.691640
O301	O	0.222176	0.083300	0.233236
O302	O	0.722176	0.583300	0.733236
C303	C	0.180654	0.085400	0.302455
C304	C	0.680654	0.585400	0.802455
H305	H	0.141627	0.066010	0.279454
H306	H	0.641627	0.566010	0.779454
H307	H	0.199555	0.059977	0.357320
H308	H	0.699555	0.559977	0.857320
H309	H	0.167206	0.131911	0.326566
H310	H	0.667206	0.631911	0.826566
O311	O	0.615201	0.131225	0.522468
O312	O	1.115201	0.631225	1.022468
C313	C	0.624963	0.186738	0.500338
C314	C	1.124963	0.686738	1.000338
H315	H	0.649345	0.184122	0.434575
H316	H	1.149345	0.684122	0.934575
H317	H	0.582109	0.214895	0.497239
H318	H	1.082109	0.714895	0.997239
H319	H	0.651327	0.206085	0.551303
H320	H	1.151327	0.706085	1.051303
O321	O	0.772104	-0.654574	-0.000030
O322	O	1.272104	-0.154574	0.499970
C323	C	0.778396	-0.623401	-0.074563
C324	C	1.278396	-0.123401	0.425437
H325	H	0.734344	-0.609264	-0.099416
H326	H	1.234344	-0.109264	0.400584
H327	H	0.800255	-0.584015	-0.057802
H328	H	1.300255	-0.084015	0.442198
H329	H	0.805677	-0.651717	-0.126739
H330	H	1.305677	-0.151717	0.373261
H331	H	-0.052278	0.076627	0.142422
H332	H	0.447722	0.576627	0.642422
O333	O	0.105171	0.081809	0.233145
O334	O	0.605171	0.581809	0.733145
C335	C	0.077359	0.032248	0.237859
C336	C	0.577359	0.532248	0.737859
H337	H	0.101603	-0.003663	0.193350
H338	H	0.601603	0.496337	0.693350
H339	H	0.076390	0.018246	0.307236
H340	H	0.576390	0.518246	0.807236
H341	H	0.031595	0.042082	0.216804
H342	H	0.531595	0.542082	0.716804
O343	O	0.122394	0.064771	-0.232951
O344	O	0.622394	0.564771	0.267049
C345	C	0.081465	0.113504	-0.237669
C346	C	0.581465	0.613504	0.262331
H347	H	0.093001	0.149849	-0.193169
H348	H	0.593001	0.649849	0.306831
H349	H	0.081109	0.127483	-0.307049
H350	H	0.581109	0.627483	0.192951
H351	H	0.037188	0.102586	-0.216607
H352	H	0.537188	0.602586	0.283393
O353	O	0.239432	0.066106	-0.233049
O354	O	0.739432	0.566106	0.266951
C355	C	0.203040	0.063062	-0.302271
C356	C	0.703040	0.563062	0.197729
H357	H	0.157387	0.081431	-0.279273
H358	H	0.657387	0.581431	0.220727
H359	H	0.218452	0.088897	-0.357136
H360	H	0.718452	0.588897	0.142864
H361	H	0.203855	0.016399	-0.326377
H362	H	0.703855	0.516399	0.173623
H363	H	0.574220	-0.740240	0.000059
H364	H	1.074220	-0.240240	0.500059
O365	O	0.517345	-0.463445	-0.000137
O366	O	1.017345	0.036555	0.499863
C367	C	0.488700	-0.447344	-0.074657
C368	C	0.988700	0.052656	0.425343
H369	H	0.521216	-0.437086	-0.126728
H370	H	1.021216	0.062914	0.373272
H371	H	0.465600	-0.484107	-0.099686
H372	H	0.965600	0.015893	0.400314
H373	H	0.456121	-0.407821	-0.057817
H374	H	0.956121	0.092179	0.442183
O375	O	0.567353	-0.626788	0.000088
O376	O	1.067353	-0.126788	0.500088
C377	C	0.521065	-0.659495	0.000060
C378	C	1.021065	-0.159495	0.500060
H379	H	0.534777	-0.702909	0.027300
H380	H	1.034777	-0.202909	0.527300
H381	H	0.483406	-0.635844	0.041831
H382	H	0.983406	-0.135844	0.541831
H383	H	0.507583	-0.666179	-0.068972
H384	H	1.007583	-0.166179	0.431028
O385	O	-0.165080	0.075751	0.154825
O386	O	0.334920	0.575751	0.654825
C387	C	-0.128695	0.078762	0.224060
C388	C	0.371305	0.578762	0.724060
H389	H	-0.087964	0.096458	0.201071
H390	H	0.412036	0.596458	0.701071
H391	H	-0.151667	0.108232	0.278912
H392	H	0.348333	0.608232	0.778912
H393	H	-0.117032	0.034032	0.248182
H394	H	0.382968	0.534032	0.748182
O395	O	-0.153623	0.064278	-0.154592
O396	O	0.346377	0.564278	0.345408
C397	C	-0.112108	0.062207	-0.223815
C398	C	0.387892	0.562207	0.276185
H399	H	-0.068157	0.045535	-0.200812
H400	H	0.431843	0.545535	0.299188
H401	H	-0.123460	0.032320	-0.278669
H402	H	0.376540	0.532320	0.221331
H403	H	-0.111136	0.107088	-0.247939
H404	H	0.388864	0.607088	0.252061
H405	H	0.396950	0.071405	-0.142232
H406	H	0.896950	0.571405	0.357768
H407	H	0.526862	-0.352163	0.000025
H408	H	1.026862	0.147837	0.500025
H409	H	0.580758	-0.193781	0.000109
H410	H	1.080758	0.306219	0.500109
H411	H	0.756975	-0.010575	0.622613
H412	H	1.256975	0.489425	1.122613
