data_functionalizedCrystal
_audit_creation_method	'MofGen! by Chris Wilmer'
_symmetry_space_group_name_H-M	'P1'
_symmetry_Int_Tables_number	1
_symmetry_cell_setting	triclinic
loop_
_symmetry_equiv_pos_as_xyz
  x,y,z
_cell_length_a	17.038272
_cell_length_b	17.038272
_cell_length_c	13.596369
_cell_angle_alpha	89.993837
_cell_angle_beta	90.000447
_cell_angle_gamma	91.111556
loop_
_atom_site_label
_atom_site_type_symbol
_atom_site_fract_x
_atom_site_fract_y
_atom_site_fract_z
O1	O	1.048755	0.170538	-0.081669
O2	O	0.820944	0.167830	-0.081698
O3	O	0.933496	0.055278	-0.081676
O4	O	0.936204	0.283090	-0.081691
O5	O	0.933483	0.055271	0.081907
O6	O	0.820931	0.167823	0.081885
O7	O	1.048743	0.170531	0.081914
Zn8	Zn	0.934835	0.169176	0.107872
Zn9	Zn	0.934852	0.169185	-0.107656
O10	O	0.936191	0.283083	0.081892
C11	C	0.791645	0.165364	0.000090
C12	C	0.704361	0.158016	0.000079
C13	C	0.658752	0.225479	0.000075
C14	C	0.576740	0.218570	0.000089
C15	C	0.540339	0.144197	0.000100
C16	C	0.585954	0.076728	0.000107
C17	C	0.667965	0.083638	0.000100
C18	C	0.292951	0.119787	0.000128
C19	C	0.210935	0.112882	0.000132
C20	C	0.201726	0.254725	0.000116
C21	C	0.283739	0.261628	0.000103
C22	C	0.329347	0.194159	0.000115
C23	C	0.456510	0.137133	0.000111
C24	C	0.413174	0.201224	0.000111
C25	C	0.931027	0.025982	0.000115
C26	C	0.923679	-0.061301	0.000114
C27	C	0.991142	-0.106911	0.000123
C28	C	0.984233	-0.188923	0.000113
C29	C	0.909860	-0.225324	0.000100
C30	C	0.842391	-0.179708	0.000088
C31	C	0.849301	-0.097698	0.000091
C32	C	0.885449	-0.472712	0.000084
C33	C	0.878545	-0.554728	0.000084
C34	C	1.020387	-0.563937	0.000107
C35	C	1.027291	-0.481924	0.000116
C36	C	0.959822	-0.436316	0.000098
C37	C	0.902796	-0.309153	0.000093
C38	C	0.966886	-0.352488	0.000099
C39	C	1.078042	0.172997	0.000124
C40	C	1.165326	0.180346	0.000128
C41	C	0.938660	0.312379	0.000098
C42	C	0.946008	0.399663	0.000093
N43	N	0.934830	0.169169	0.254963
N44	N	0.934863	0.169186	-0.254748
C45	C	0.934851	0.169186	0.656254
C46	C	0.934843	0.169184	0.544603
C47	C	0.934841	0.169178	0.455612
C48	C	0.934832	0.169175	0.343954
H49	H	0.313370	0.322190	0.000083
H50	H	0.330076	0.064848	0.000138
H51	H	0.781835	-0.209353	0.000071
F52	F	0.799383	-0.593467	0.000075
F53	F	1.070301	-0.068177	0.000146
H54	H	1.027441	-0.322847	0.000087
H55	H	0.688384	0.286042	0.000066
H56	H	1.075316	-0.601079	0.000120
H57	H	0.556310	0.016172	0.000129
F58	F	0.528203	0.290375	0.000081
F59	F	1.106449	-0.443190	0.000105
H60	H	0.830511	-0.435587	0.000070
H61	H	0.181300	0.052315	0.000140
H62	H	0.794365	-0.060564	0.000083
H63	H	0.705099	0.028702	0.000102
H64	H	0.442816	0.261778	0.000108
F65	F	0.153181	0.326524	0.000106
F66	F	0.823644	-0.347901	0.000075
H67	H	0.426863	0.076578	0.000148
H68	H	1.039170	-0.226054	0.000123
