data_functionalizedCrystal
_audit_creation_method	'MofGen! by Chris Wilmer'
_symmetry_space_group_name_H-M	'P1'
_symmetry_Int_Tables_number	1
_symmetry_cell_setting	triclinic
loop_
_symmetry_equiv_pos_as_xyz
  x,y,z
_cell_length_a	13.262390
_cell_length_b	13.262508
_cell_length_c	9.130307
_cell_angle_alpha	105.915023
_cell_angle_beta	74.081185
_cell_angle_gamma	88.760843
loop_
_atom_site_label
_atom_site_type_symbol
_atom_site_fract_x
_atom_site_fract_y
_atom_site_fract_z
O1	O	1.393295	0.141368	-0.620521
O2	O	1.087776	0.156740	-0.492691
O3	O	1.248222	-0.003701	-0.620515
O4	O	1.232849	0.301809	-0.492697
O5	O	1.248217	-0.003703	-0.376915
O6	O	1.087771	0.156739	-0.249091
O7	O	1.393289	0.141366	-0.376920
Cu8	Cu	1.240530	0.149052	-0.290763
Cu9	Cu	1.240536	0.149054	-0.578849
O10	O	1.232843	0.301808	-0.249096
C11	C	1.048665	0.155878	-0.355655
C12	C	0.932135	0.153299	-0.310262
C13	C	0.603677	0.146018	-0.713481
C14	C	0.713163	0.148436	-0.756135
C15	C	0.767912	0.149652	-0.644670
C16	C	0.713163	0.148449	-0.490545
C17	C	0.603668	0.146023	-0.447891
C18	C	0.767902	0.149657	-0.379079
C19	C	0.713154	0.148454	-0.224954
C20	C	0.603668	0.146029	-0.182307
C21	C	0.548920	0.144812	-0.293772
C22	C	0.877398	0.152084	-0.421734
C23	C	0.877388	0.152089	-0.156143
C24	C	0.767902	0.149671	-0.113489
C25	C	1.247358	-0.042809	-0.513952
C26	C	1.244779	-0.159335	-0.559350
C27	C	1.237492	-0.487821	-0.156154
C28	C	1.239907	-0.378337	-0.113496
C29	C	1.241125	-0.323581	-0.224956
C30	C	1.239928	-0.378320	-0.379082
C31	C	1.237504	-0.487813	-0.421741
C32	C	1.241138	-0.323574	-0.490542
C33	C	1.239940	-0.378312	-0.644669
C34	C	1.237518	-0.487794	-0.687321
C35	C	1.236299	-0.542550	-0.575861
C36	C	1.243561	-0.214080	-0.447883
C37	C	1.243574	-0.214073	-0.713470
C38	C	1.241159	-0.323556	-0.756129
C39	C	1.432400	0.142228	-0.513960
C40	C	1.548930	0.144807	-0.559362
C41	C	1.233707	0.340915	-0.355662
C42	C	1.236287	0.457442	-0.310274
N43	N	1.240533	0.149050	-0.088142
N44	N	1.240541	0.149048	-0.781476
C45	C	1.382666	0.007021	-0.201347
C46	C	1.453739	-0.063991	-0.181284
C47	C	1.453750	-0.063992	-0.027955
C48	C	1.382677	0.007025	0.105321
C49	C	1.311604	0.078037	0.085258
C50	C	1.311603	0.078032	-0.068081
C51	C	1.169467	0.220060	0.198461
C52	C	1.169460	0.220067	0.045134
C53	C	1.098395	0.291076	0.331737
C54	C	1.027324	0.362095	0.311676
C55	C	1.027318	0.362093	0.158335
C56	C	1.098387	0.291079	0.025071
H57	H	0.857060	0.151622	-0.679408
H58	H	1.240893	-0.333778	0.011989
H59	H	0.559093	0.145017	-0.804223
H60	H	0.921963	0.153065	-0.547223
H61	H	0.921964	0.153078	-0.065379
H62	H	1.098391	0.291075	-0.099784
H63	H	1.382681	0.007011	0.230166
H64	H	1.236492	-0.532412	-0.065417
C65	C	1.531920	-0.142106	-0.327884
C66	C	1.531945	-0.142092	-0.496549
C67	C	1.610124	-0.220208	-0.643141
C68	C	1.688278	-0.298340	-0.621067
C69	C	1.688255	-0.298358	-0.452394
C70	C	1.610076	-0.220241	-0.305802
H71	H	1.474089	-0.084251	-0.512897
H72	H	1.610140	-0.220195	-0.768004
H73	H	1.746150	-0.356167	-0.729582
H74	H	1.746112	-0.356198	-0.436046
H75	H	1.610060	-0.220254	-0.180939
C76	C	1.244886	-0.153877	-0.278358
C77	C	1.153515	-0.157421	-0.133824
C78	C	1.154842	-0.097218	0.035712
C79	C	1.247541	-0.033471	0.060714
C80	C	1.338919	-0.029924	-0.083825
C81	C	1.337592	-0.090127	-0.253360
H82	H	1.084888	-0.204613	-0.152328
H83	H	1.087198	-0.099844	0.142708
H84	H	1.248523	0.011095	0.186214
H85	H	1.407546	0.017268	-0.065321
H86	H	1.405236	-0.087501	-0.360357
H87	H	1.243090	-0.234435	-0.190213
C88	C	1.244915	-0.153855	-0.836092
C89	C	1.335617	-0.180424	-0.992361
C90	C	1.336954	-0.120198	-1.114971
C91	C	1.247588	-0.033403	-1.081310
C92	C	1.156879	-0.006830	-0.925033
C93	C	1.155542	-0.067056	-0.802424
H94	H	1.401777	-0.244678	-1.017285
H95	H	1.404103	-0.139870	-1.230657
H96	H	1.248577	0.011179	-1.172073
H97	H	1.090719	0.057424	-0.900110
H98	H	1.088393	-0.047384	-0.686738
H99	H	0.757733	0.149410	-0.881626
H100	H	1.234338	-0.631702	-0.610588
H101	H	1.236533	-0.532358	-0.812816
H102	H	0.459767	0.142847	-0.259049
H103	H	0.723310	0.148690	0.012002
H104	H	0.559098	0.145030	-0.056817
H105	H	1.511620	-0.121819	-0.011625
H106	H	1.240183	-0.368140	-0.881620
H107	H	0.969437	0.419916	0.142015
H108	H	1.382673	0.007023	-0.326201
H109	H	1.098402	0.291068	0.456584
H110	H	0.969457	0.419907	0.420195
