data_functionalizedCrystal
_audit_creation_method	'MofGen! by Chris Wilmer'
_symmetry_space_group_name_H-M	'P1'
_symmetry_Int_Tables_number	1
_symmetry_cell_setting	triclinic
loop_
_symmetry_equiv_pos_as_xyz
  x,y,z
_cell_length_a	13.339070
_cell_length_b	11.026607
_cell_length_c	10.065918
_cell_angle_alpha	82.346549
_cell_angle_beta	97.036210
_cell_angle_gamma	67.892344
loop_
_atom_site_label
_atom_site_type_symbol
_atom_site_fract_x
_atom_site_fract_y
_atom_site_fract_z
O1	O	1.477527	-0.669744	0.113533
O2	O	1.167507	-0.584675	0.113527
O3	O	1.296822	-0.441904	0.113524
O4	O	1.348212	-0.812515	0.113535
O5	O	1.262379	-0.398631	-0.113466
O6	O	1.133064	-0.541402	-0.113463
O7	O	1.443084	-0.626471	-0.113457
Zn8	Zn	1.282605	-0.577066	-0.149500
Zn9	Zn	1.327986	-0.634080	0.149569
O10	O	1.313769	-0.769242	-0.113455
C11	C	1.109980	-0.548669	0.000031
C12	C	0.989877	-0.505836	0.000028
C13	C	1.270121	-0.371865	0.000031
C14	C	1.241860	-0.227637	0.000035
N15	N	1.251642	-0.538157	-0.353606
C16	C	0.685738	-0.838884	0.000060
C17	C	0.798581	-0.879133	0.000066
C18	C	0.846411	-0.785812	0.000056
C19	C	0.781386	-0.652236	0.000041
C20	C	0.668534	-0.611985	0.000045
C21	C	0.829206	-0.558913	0.000041
C22	C	0.764182	-0.425337	0.000025
C23	C	0.651340	-0.385093	0.000028
C24	C	0.603511	-0.478414	0.000039
C25	C	0.942059	-0.599163	0.000037
C26	C	0.924854	-0.372265	0.000022
C27	C	0.812011	-0.332016	0.000015
C28	C	1.500612	-0.662478	0.000042
C29	C	1.620715	-0.705313	0.000054
C30	C	1.340471	-0.839282	0.000042
C31	C	1.368732	-0.983512	0.000047
C32	C	1.319894	-0.180105	0.000039
C33	C	1.290688	-0.031038	0.000043
C34	C	1.317206	-0.620541	-0.421383
C35	C	1.293382	-0.590586	-0.578551
N36	N	1.358956	-0.672982	0.353676
H37	H	0.994991	-0.707920	0.000045
H38	H	1.219612	-0.497870	-0.636876
H39	H	1.390977	-0.713244	-0.363053
H40	H	1.408322	-0.249770	0.000032
H41	H	1.202253	0.038623	0.000050
H42	H	0.938294	-0.818591	0.000065
H43	H	1.457184	-0.053192	0.000151
H44	H	1.432731	-0.765694	-0.588001
H45	H	0.963797	-0.296276	0.000020
H46	H	0.851518	-0.987892	0.000090
H47	H	0.646786	-0.914853	0.000079
H48	H	1.177876	-0.445447	-0.411937
H49	H	0.511625	-0.445650	0.000032
H50	H	0.598402	-0.276330	0.000031
H51	H	0.759054	-0.223258	0.000014
H52	H	1.153432	-0.157972	0.000042
