data_functionalizedCrystal
_audit_creation_method	'MofGen! by Chris Wilmer'
_symmetry_space_group_name_H-M	'P1'
_symmetry_Int_Tables_number	1
_symmetry_cell_setting	triclinic
loop_
_symmetry_equiv_pos_as_xyz
  x,y,z
_cell_length_a	11.026607
_cell_length_b	17.038272
_cell_length_c	9.482900
_cell_angle_alpha	100.012096
_cell_angle_beta	78.636152
_cell_angle_gamma	99.848786
loop_
_atom_site_label
_atom_site_type_symbol
_atom_site_fract_x
_atom_site_fract_y
_atom_site_fract_z
O1	O	1.662374	0.322506	-0.120910
O2	O	2.162374	0.822506	0.379090
O3	O	1.305163	0.284676	-0.120910
O4	O	1.805163	0.784676	0.379090
O5	O	1.481644	0.189477	-0.120899
O6	O	1.981644	0.689477	0.379101
O7	O	1.485893	0.417705	-0.120922
O8	O	1.985893	0.917705	0.379078
O9	O	1.445807	0.208914	0.120891
O10	O	1.945807	0.708914	0.620891
O11	O	1.269325	0.304112	0.120880
O12	O	1.769325	0.804112	0.620880
O13	O	1.626537	0.341943	0.120880
O14	O	2.126537	0.841943	0.620880
Cu15	Cu	1.444659	0.324802	0.142957
Cu16	Cu	1.944659	0.824802	0.642957
Cu17	Cu	1.487041	0.301816	-0.142988
Cu18	Cu	1.987041	0.801816	0.357012
O19	O	1.450056	0.437141	0.120868
O20	O	1.950056	0.937141	0.620868
C21	C	1.241313	0.287415	-0.000015
C22	C	1.741313	0.787415	0.499985
C23	C	1.104451	0.266610	-0.000015
C24	C	1.604451	0.766610	0.499985
C25	C	1.036577	0.324055	-0.000022
C26	C	1.536577	0.824055	0.499978
C27	C	0.895123	0.302554	-0.000021
C28	C	1.395123	0.802554	0.499979
C29	C	1.459863	0.169523	-0.000004
C30	C	1.959863	0.669523	0.499996
C31	C	1.448341	0.081107	-0.000004
C32	C	1.948341	0.581107	0.499996
C33	C	1.554125	0.045899	-0.000003
C34	C	2.054125	0.545899	0.499997
C35	C	1.543294	-0.037179	-0.000016
C36	C	2.043294	0.462821	0.499984
C37	C	1.426676	-0.085048	-0.000021
C38	C	1.926676	0.414952	0.499979
C39	C	1.320885	-0.049835	-0.000027
C40	C	1.820885	0.450165	0.499973
C41	C	1.331719	0.033241	-0.000024
C42	C	1.831719	0.533241	0.499976
C43	C	1.388403	-0.336201	-0.000041
C44	C	1.888403	0.163799	0.499959
C45	C	1.377576	-0.419281	-0.000040
C46	C	1.877576	0.080719	0.499960
C47	C	1.599987	-0.406621	-0.000032
C48	C	2.099987	0.093379	0.499968
C49	C	1.610809	-0.323543	-0.000020
C50	C	2.110809	0.176457	0.499980
C51	C	1.505019	-0.288338	-0.000034
C52	C	2.005019	0.211662	0.499966
C53	C	1.415602	-0.169967	-0.000031
C54	C	1.915602	0.330033	0.499969
C55	C	1.516096	-0.203421	-0.000034
C56	C	2.016096	0.296579	0.499966
C57	C	1.690388	0.339203	-0.000018
C58	C	2.190388	0.839203	0.499982
C59	C	1.827251	0.360008	-0.000028
C60	C	2.327251	0.860008	0.499972
C61	C	1.471837	0.457095	-0.000030
C62	C	1.971837	0.957095	0.499970
C63	C	1.483360	0.545511	-0.000039
C64	C	1.983360	1.045511	0.499961
N65	N	1.414859	0.340969	0.344075
N66	N	1.914859	0.840969	0.844075
N67	N	1.516850	0.285644	-0.344106
N68	N	2.016850	0.785644	0.155894
C69	C	1.478242	0.306580	0.416279
C70	C	1.978242	0.806580	0.916279
C71	C	1.453458	0.320039	0.583695
C72	C	1.953458	0.820039	1.083695
H73	H	1.057843	0.201507	-0.000046
H74	H	1.557843	0.701507	0.499954
H75	H	1.225934	-0.088816	-0.000041
H76	H	1.725934	0.411184	0.499959
H77	H	1.083189	0.389155	-0.000020
H78	H	1.583189	0.889155	0.499980
H79	H	1.282604	-0.458253	-0.000021
H80	H	1.782604	0.041747	0.499979
H81	H	1.302261	-0.307547	-0.000052
H82	H	1.802261	0.192453	0.499948
Br83	Br	1.188152	0.081023	-0.000038
Br84	Br	1.688152	0.581023	0.499962
H85	H	1.342241	0.380373	0.406201
H86	H	1.842241	0.880373	0.906201
H87	H	1.589463	0.246231	0.593775
H88	H	2.089463	0.746231	1.093775
Br89	Br	1.712397	0.110857	0.000025
Br90	Br	2.212397	0.610857	0.500025
H91	H	1.380835	0.359444	0.645814
H92	H	1.880835	0.859444	1.145814
H93	H	0.848520	0.237447	-0.000052
H94	H	1.348520	0.737447	0.499948
Br95	Br	0.904916	0.468522	-0.000012
Br96	Br	1.404916	0.968522	0.499988
H97	H	1.629434	-0.065841	-0.000012
H98	H	2.129434	0.434159	0.499988
Br99	Br	1.769088	-0.258588	-0.000060
Br100	Br	2.269088	0.241412	0.499940
H101	H	1.550851	0.267169	0.354156
H102	H	2.050851	0.767169	0.854156
Br103	Br	1.674360	-0.138458	-0.000041
Br104	Br	2.174360	0.361542	0.499959
Br105	Br	1.743550	-0.454403	-0.000014
Br106	Br	2.243550	0.045597	0.499986
Br107	Br	1.257340	-0.234938	-0.000052
Br108	Br	1.757340	0.265062	0.499948
