data_functionalizedCrystal
_audit_creation_method	'MofGen! by Chris Wilmer'
_symmetry_space_group_name_H-M	'P1'
_symmetry_Int_Tables_number	1
_symmetry_cell_setting	triclinic
loop_
_symmetry_equiv_pos_as_xyz
  x,y,z
_cell_length_a	18.215407
_cell_length_b	18.050590
_cell_length_c	18.215399
_cell_angle_alpha	89.971265
_cell_angle_beta	89.982187
_cell_angle_gamma	90.013065
loop_
_atom_site_label
_atom_site_type_symbol
_atom_site_fract_x
_atom_site_fract_y
_atom_site_fract_z
Zn1	Zn	1.125104	-0.295776	-0.416072
Zn2	Zn	1.458438	0.037558	-0.082739
Zn3	Zn	1.791771	0.370891	0.250595
Zn4	Zn	1.125026	-0.419971	-0.293004
Zn5	Zn	1.458360	-0.086637	0.040329
Zn6	Zn	1.791693	0.246696	0.373662
Zn7	Zn	1.002037	-0.295787	-0.293024
Zn8	Zn	1.335370	0.037546	0.040309
Zn9	Zn	1.668704	0.370879	0.373643
Zn10	Zn	1.002016	-0.419917	-0.416033
Zn11	Zn	1.335350	-0.086583	-0.082700
Zn12	Zn	1.668683	0.246750	0.250633
O13	O	1.063546	-0.357863	-0.354533
O14	O	1.396879	-0.024529	-0.021200
O15	O	1.730213	0.308804	0.312133
O16	O	1.228078	-0.312268	-0.399755
O17	O	1.561412	0.021065	-0.066422
O18	O	1.894745	0.354398	0.266912
O19	O	1.108687	-0.403525	-0.190022
O20	O	1.442021	-0.070192	0.143311
O21	O	1.775354	0.263142	0.476644
O22	O	1.018403	-0.191861	-0.309371
O23	O	1.351737	0.141472	0.023962
O24	O	1.685070	0.474806	0.357296
O25	O	1.228021	-0.403514	-0.309337
O26	O	1.561354	-0.070181	0.023996
O27	O	1.894688	0.263153	0.357329
O28	O	1.108820	-0.191853	-0.399774
O29	O	1.442154	0.141481	-0.066441
O30	O	1.775487	0.474814	0.266893
O31	O	1.018328	-0.312288	-0.190037
O32	O	1.351661	0.021045	0.143296
O33	O	1.684994	0.354379	0.476630
O34	O	0.899050	-0.312235	-0.309333
O35	O	1.232383	0.021098	0.024000
O36	O	1.565717	0.354431	0.357333
O37	O	1.018368	-0.403422	-0.519023
O38	O	1.351702	-0.070088	-0.185690
O39	O	1.685035	0.263245	0.147644
O40	O	0.899035	-0.403433	-0.399708
O41	O	1.232368	-0.070099	-0.066375
O42	O	1.565701	0.263234	0.266959
O43	O	1.108800	-0.312216	-0.519051
O44	O	1.442134	0.021117	-0.185718
O45	O	1.775467	0.354451	0.147615
O46	O	1.108668	-0.523888	-0.309300
O47	O	1.442001	-0.190555	0.024034
O48	O	1.775334	0.142778	0.357367
O49	O	1.018293	-0.523848	-0.399689
O50	O	1.351626	-0.190515	-0.066356
O51	O	1.684959	0.142818	0.266978
C52	C	0.872340	-0.357830	-0.354519
C53	C	1.205673	-0.024497	-0.021186
C54	C	1.539006	0.308837	0.312148
C55	C	0.790541	-0.357834	-0.354530
C56	C	1.123874	-0.024500	-0.021197
C57	C	1.457207	0.308833	0.312136
C58	C	0.525507	-0.310443	-0.401689
C59	C	0.858841	0.022891	-0.068355
C60	C	1.192174	0.356224	0.264978
C61	C	0.602366	-0.310431	-0.401686
C62	C	0.935700	0.022903	-0.068353
C63	C	1.269033	0.356236	0.264980
C64	C	0.602326	-0.405307	-0.307394
C65	C	0.935659	-0.071973	0.025939
C66	C	1.268992	0.261360	0.359273
C67	C	0.525468	-0.405322	-0.307401
C68	C	0.858802	-0.071989	0.025933
C69	C	1.192135	0.261345	0.359266
C70	C	0.487061	-0.357886	-0.354547
C71	C	0.820395	-0.024552	-0.021214
C72	C	1.153728	0.308781	0.312120
C73	C	0.640777	-0.357858	-0.354538
C74	C	0.974111	-0.024525	-0.021205
C75	C	1.307444	0.308808	0.312129
C76	C	0.724111	-0.357846	-0.354535
C77	C	1.057444	-0.024512	-0.021202
C78	C	1.390778	0.308821	0.312132
C79	C	0.403722	-0.357899	-0.354551
C80	C	0.737056	-0.024566	-0.021218
C81	C	1.070389	0.308768	0.312116
C82	C	1.063489	-0.550815	-0.354504
C83	C	1.396823	-0.217481	-0.021171
C84	C	1.730156	0.115852	0.312163
C85	C	1.063532	-0.633360	-0.354516
C86	C	1.396866	-0.300027	-0.021183
C87	C	1.730199	0.033306	0.312151
C88	C	1.112781	-0.832806	-0.305431
C89	C	1.446114	-0.499472	0.027902
C90	C	1.779447	-0.166139	0.361236
C91	C	1.130758	-0.882140	-0.372597
C92	C	1.464091	-0.548806	-0.039264
C93	C	1.797424	-0.215473	0.294069
C94	C	1.063574	-0.784491	-0.354545
C95	C	1.396908	-0.451157	-0.021212
C96	C	1.730241	-0.117824	0.312121
C97	C	1.045672	-0.882239	-0.287409
C98	C	1.379006	-0.548905	0.045924
C99	C	1.712339	-0.215572	0.379257
C100	C	1.063616	-0.930476	-0.354568
C101	C	1.396949	-0.597143	-0.021235
C102	C	1.730283	-0.263809	0.312099
C103	C	1.081586	-0.832738	-0.421747
C104	C	1.414919	-0.499404	-0.088414
C105	C	1.748252	-0.166071	0.244920
C106	C	0.996469	-0.832832	-0.336514
C107	C	1.329802	-0.499499	-0.003180
C108	C	1.663136	-0.166165	0.330153
C109	C	1.014421	-0.882144	-0.403726
C110	C	1.347754	-0.548810	-0.070393
C111	C	1.681087	-0.215477	0.262940
C112	C	1.063552	-0.700393	-0.354532
C113	C	1.396885	-0.367059	-0.021198
C114	C	1.730219	-0.033726	0.312135
C115	C	1.063638	-1.014572	-0.354589
C116	C	1.396971	-0.681239	-0.021256
C117	C	1.730305	-0.347906	0.312077
C118	C	1.255499	-0.357896	-0.354548
C119	C	1.588832	-0.024563	-0.021215
C120	C	1.922166	0.308771	0.312118
C121	C	1.337298	-0.357910	-0.354555
C122	C	1.670631	-0.024577	-0.021221
C123	C	2.003964	0.308756	0.312112
C124	C	1.063591	-0.357811	-0.546486
C125	C	1.396924	-0.024478	-0.213153
C126	C	1.730257	0.308855	0.120180
C127	C	1.063610	-0.357790	-0.628285
C128	C	1.396943	-0.024456	-0.294952
C129	C	1.730277	0.308877	0.038381
C130	C	1.063623	-0.164157	-0.354579
C131	C	1.396956	0.169176	-0.021246
C132	C	1.730289	0.502510	0.312088
C133	C	1.063656	-0.081611	-0.354598
C134	C	1.396989	0.251722	-0.021265
C135	C	1.730322	0.585055	0.312068
C136	C	1.110715	-0.310254	-0.816495
C137	C	1.444048	0.023079	-0.483162
C138	C	1.777382	0.356412	-0.149829
C139	C	1.110724	-0.310233	-0.893354
C140	C	1.444057	0.023101	-0.560021
C141	C	1.777390	0.356434	-0.226687
C142	C	1.016557	-0.405210	-0.893313
C143	C	1.349890	-0.071877	-0.559980
C144	C	1.683224	0.261457	-0.226647
C145	C	1.016545	-0.405227	-0.816456
C146	C	1.349878	-0.071894	-0.483123
C147	C	1.683212	0.261439	-0.149789
C148	C	1.063628	-0.357751	-0.778049
C149	C	1.396961	-0.024417	-0.444716
C150	C	1.730295	0.308916	-0.111382
C151	C	1.063649	-0.357712	-0.931765
C152	C	1.396982	-0.024378	-0.598432
C153	C	1.730316	0.308955	-0.265098
C154	C	1.063658	-0.357689	-1.015099
C155	C	1.396991	-0.024355	-0.681765
C156	C	1.730325	0.308978	-0.348432
C157	C	1.063618	-0.357773	-0.694710
C158	C	1.396952	-0.024439	-0.361377
C159	C	1.730285	0.308894	-0.028043
C160	C	1.063544	-0.357860	-0.163327
C161	C	1.396877	-0.024527	0.170006
C162	C	1.730210	0.308807	0.503340
C163	C	1.063667	-0.357673	-0.081529
C164	C	1.397000	-0.024339	0.251805
C165	C	1.730334	0.308994	0.585138
H166	H	0.633666	-0.271798	-0.440075
H167	H	0.966999	0.061535	-0.106742
H168	H	1.300332	0.394868	0.226592
N169	N	0.925282	-0.805632	-0.317324
N170	N	1.258615	-0.472298	0.016010
N171	N	1.591948	-0.138965	0.349343
N172	N	0.917502	-0.765156	-0.262209
N173	N	1.250835	-0.431823	0.071124
N174	N	1.584169	-0.098490	0.404458
H175	H	0.867226	-0.745945	-0.248647
H176	H	1.200559	-0.412611	0.084687
H177	H	1.533892	-0.079278	0.418020
N178	N	1.158801	-0.261764	-0.777252
N179	N	1.492135	0.071569	-0.443918
N180	N	1.825468	0.404903	-0.110585
N181	N	1.205682	-0.287907	-0.734364
N182	N	1.539015	0.045426	-0.401031
N183	N	1.872349	0.378759	-0.067697
H184	H	1.239643	-0.253659	-0.706648
H185	H	1.572976	0.079675	-0.373315
H186	H	1.906310	0.413008	-0.039982
N187	N	0.641548	-0.453750	-0.259220
N188	N	0.974881	-0.120417	0.074113
N189	N	1.308214	0.212916	0.407447
N190	N	0.607209	-0.496104	-0.217129
N191	N	0.940542	-0.162771	0.116204
N192	N	1.273876	0.170562	0.449537
H193	H	0.634908	-0.530317	-0.183102
H194	H	0.968241	-0.196984	0.150232
H195	H	1.301574	0.136350	0.483565
N196	N	1.158813	-0.261717	-0.932637
N197	N	1.492147	0.071616	-0.599304
N198	N	1.825480	0.404949	-0.265971
N199	N	1.132943	-0.214379	-0.975531
N200	N	1.466277	0.118955	-0.642198
N201	N	1.799610	0.452288	-0.308865
H202	H	1.166907	-0.180111	-1.003276
H203	H	1.500240	0.153222	-0.669943
H204	H	1.833574	0.486555	-0.336610
H205	H	0.978225	-0.443865	-0.924594
H206	H	1.311559	-0.110532	-0.591260
H207	H	1.644892	0.222801	-0.257927
N208	N	0.968434	-0.453746	-0.777190
N209	N	1.301768	-0.120413	-0.443857
N210	N	1.635101	0.212921	-0.110523
N211	N	0.926403	-0.496134	-0.811488
N212	N	1.259736	-0.162801	-0.478155
N213	N	1.593069	0.170533	-0.144822
H214	H	0.892423	-0.530397	-0.783757
H215	H	1.225757	-0.197064	-0.450424
H216	H	1.559090	0.136270	-0.117091
H217	H	1.096688	-0.811087	-0.478581
H218	H	1.430022	-0.477753	-0.145248
H219	H	1.763355	-0.144420	0.188085
H220	H	0.494239	-0.271817	-0.440078
H221	H	0.827572	0.061517	-0.106745
H222	H	1.160905	0.394850	0.226588
H223	H	0.494165	-0.443960	-0.269011
H224	H	0.827498	-0.110627	0.064322
H225	H	1.160831	0.222707	0.397655
H226	H	1.154407	-0.811142	-0.263940
H227	H	1.487740	-0.477808	0.069394
H228	H	1.821073	-0.144475	0.402727
H229	H	1.187525	-0.903800	-0.387863
H230	H	1.520858	-0.570467	-0.054530
H231	H	1.854192	-0.237134	0.278803
H232	H	0.972826	-0.903671	-0.445318
H233	H	1.306160	-0.570337	-0.111985
H234	H	1.639493	-0.237004	0.221348
H235	H	1.030513	-0.903981	-0.230624
H236	H	1.363847	-0.570648	0.102709
H237	H	1.697180	-0.237315	0.436043
