data_functionalizedCrystal
_audit_creation_method	'MofGen! by Chris Wilmer'
_symmetry_space_group_name_H-M	'P1'
_symmetry_Int_Tables_number	1
_symmetry_cell_setting	triclinic
loop_
_symmetry_equiv_pos_as_xyz
  x,y,z
_cell_length_a	17.077404
_cell_length_b	14.908520
_cell_length_c	17.077395
_cell_angle_alpha	93.269356
_cell_angle_beta	89.984359
_cell_angle_gamma	93.320938
loop_
_atom_site_label
_atom_site_type_symbol
_atom_site_fract_x
_atom_site_fract_y
_atom_site_fract_z
Zn1	Zn	1.181992	-0.359166	-0.461868
Zn2	Zn	1.174333	-0.510034	-0.338174
Zn3	Zn	1.050731	-0.359194	-0.330617
Zn4	Zn	1.043120	-0.509984	-0.469395
O5	O	1.112544	-0.434594	-0.400013
O6	O	1.290823	-0.379188	-0.445472
O7	O	1.157918	-0.490058	-0.227326
O8	O	1.074534	-0.232945	-0.341716
O9	O	1.285196	-0.490030	-0.354594
O10	O	1.170971	-0.232924	-0.438145
O11	O	1.067108	-0.379236	-0.221774
O12	O	0.939875	-0.379188	-0.349014
O13	O	1.061561	-0.489945	-0.578242
O14	O	0.934283	-0.489972	-0.450973
O15	O	1.163590	-0.379139	-0.572712
O16	O	1.150537	-0.636273	-0.361893
O17	O	1.054135	-0.636236	-0.458300
C18	C	0.908597	-0.434578	-0.399991
C19	C	0.821347	-0.434593	-0.400001
C20	C	0.777461	-0.492365	-0.453015
C21	C	0.695480	-0.492367	-0.453028
C22	C	0.657387	-0.434601	-0.400022
C23	C	0.701279	-0.376822	-0.347006
C24	C	0.783258	-0.376816	-0.346997
C25	C	0.530408	-0.376839	-0.347025
C26	C	0.448423	-0.376846	-0.347032
C27	C	0.442630	-0.492391	-0.453056
C28	C	0.524609	-0.492385	-0.453047
C29	C	0.568495	-0.434607	-0.400030
C30	C	1.100700	-0.668988	-0.411750
C31	C	1.095705	-0.769263	-0.416798
C32	C	1.186805	-0.957667	-0.325974
C33	C	1.182115	-1.051883	-0.330714
C34	C	1.081637	-1.051915	-0.431021
C35	C	1.086328	-0.957698	-0.426281
C36	C	1.138913	-0.910577	-0.373755
C37	C	1.143599	-0.816359	-0.369011
C38	C	1.043126	-0.816392	-0.469322
C39	C	1.038436	-0.910609	-0.474062
C40	C	1.317287	-0.434612	-0.400037
C41	C	1.404537	-0.434619	-0.400046
C42	C	1.112581	-0.434533	-0.604755
C43	C	1.112597	-0.434507	-0.692003
C44	C	1.124456	-0.199286	-0.388248
C45	C	1.129532	-0.099011	-0.383234
C46	C	1.165816	-0.376688	-1.064934
C47	C	1.165799	-0.376720	-0.982955
C48	C	1.112666	-0.434422	-0.944848
C49	C	1.059552	-0.492102	-0.988725
C50	C	1.059574	-0.492075	-1.070703
C51	C	1.059509	-0.492154	-0.817858
C52	C	1.059485	-0.492181	-0.735874
C53	C	1.165733	-0.376800	-0.730110
C54	C	1.165755	-0.376772	-0.812087
C55	C	1.112640	-0.434452	-0.855959
C56	C	1.112556	-0.434590	-0.196065
C57	C	1.112705	-0.434362	-0.108805
H58	H	0.417410	-0.329797	-0.303879
H59	H	1.016293	-0.539088	-0.957692
H60	H	0.670257	-0.329783	-0.303851
H61	H	1.208980	-0.329833	-0.694385
C62	C	1.001047	-0.555669	-0.693959
N63	N	0.957034	-0.603494	-0.662389
H64	H	1.016259	-0.539126	-0.853576
H65	H	0.818989	-0.329767	-0.303832
H66	H	1.221115	-1.090220	-0.291807
C67	C	1.224268	-0.313211	-1.106843
N68	N	1.268298	-0.265400	-1.138407
C69	C	1.224219	-0.313265	-0.934700
N70	N	1.268221	-0.265467	-0.898354
C71	C	0.394354	-0.555943	-0.511379
N72	N	0.357989	-0.603810	-0.555306
H73	H	1.038831	-1.090297	-0.473790
H74	H	0.995625	-0.948988	-0.516829
C75	C	1.001146	-0.555519	-1.118960
N76	N	0.957137	-0.603308	-1.155307
C77	C	0.990441	-0.764586	-0.521884
N78	N	0.950759	-0.725565	-0.561472
H79	H	0.566138	-0.329782	-0.303859
H80	H	1.186414	-0.777994	-0.326240
H81	H	0.808470	-0.539409	-0.496176
C82	C	1.244647	-0.905831	-0.268194
N83	N	1.288215	-0.866791	-0.224674
H84	H	0.659752	-0.539413	-0.496196
H85	H	0.555622	-0.539429	-0.496205
H86	H	1.209018	-0.329782	-0.843111
