data_functionalizedCrystal
_audit_creation_method	'MofGen! by Chris Wilmer'
_symmetry_space_group_name_H-M	'P1'
_symmetry_Int_Tables_number	1
_symmetry_cell_setting	triclinic
loop_
_symmetry_equiv_pos_as_xyz
  x,y,z
_cell_length_a	12.645330
_cell_length_b	18.215407
_cell_length_c	18.215399
_cell_angle_alpha	90.013852
_cell_angle_beta	89.973779
_cell_angle_gamma	89.991482
loop_
_atom_site_label
_atom_site_type_symbol
_atom_site_fract_x
_atom_site_fract_y
_atom_site_fract_z
Zn1	Zn	-0.422134	-1.125114	-0.416079
Zn2	Zn	0.077866	-0.625114	0.083921
Zn3	Zn	-0.599424	-1.125056	-0.293021
Zn4	Zn	-0.099424	-0.625056	0.206979
Zn5	Zn	-0.422163	-1.002053	-0.293032
Zn6	Zn	0.077837	-0.502053	0.206968
Zn7	Zn	-0.599344	-1.002039	-0.416053
Zn8	Zn	-0.099344	-0.502039	0.083947
O9	O	-0.510767	-1.063566	-0.354546
O10	O	-0.010767	-0.563566	0.145454
O11	O	-0.445674	-1.228091	-0.399761
O12	O	0.054326	-0.728091	0.100239
O13	O	-0.575956	-1.108721	-0.190038
O14	O	-0.075956	-0.608721	0.309962
O15	O	-0.273812	-1.018407	-0.309370
O16	O	0.226188	-0.518407	0.190630
O17	O	-0.575928	-1.228048	-0.309351
O18	O	-0.075928	-0.728048	0.190649
O19	O	-0.273791	-1.108820	-0.399772
O20	O	0.226209	-0.608820	0.100228
O21	O	-0.445723	-1.018351	-0.190047
O22	O	0.054277	-0.518351	0.309953
O23	O	-0.445645	-0.899067	-0.309345
O24	O	0.054355	-0.399067	0.190655
O25	O	-0.575792	-1.018384	-0.519040
O26	O	-0.075792	-0.518384	-0.019040
O27	O	-0.575819	-0.899057	-0.399727
O28	O	-0.075819	-0.399057	0.100273
O29	O	-0.445596	-1.108807	-0.519059
O30	O	0.054404	-0.608807	-0.019059
O31	O	-0.747761	-1.108707	-0.309326
O32	O	-0.247761	-0.608707	0.190674
O33	O	-0.747702	-1.018328	-0.399717
O34	O	-0.247702	-0.518328	0.100283
C35	C	-0.510728	-0.872359	-0.354535
C36	C	-0.010728	-0.372359	0.145465
C37	C	-0.510737	-0.790560	-0.354548
C38	C	-0.010737	-0.290560	0.145452
C39	C	-0.578642	-0.525517	-0.401544
C40	C	-0.078642	-0.025517	0.098456
C41	C	-0.578635	-0.602376	-0.401540
C42	C	-0.078635	-0.102376	0.098460
C43	C	-0.442882	-0.602355	-0.307562
C44	C	0.057118	-0.102355	0.192438
C45	C	-0.442895	-0.525498	-0.307562
C46	C	0.057105	-0.025498	0.192438
C47	C	-0.510773	-0.487081	-0.354558
C48	C	-0.010773	0.012919	0.145442
C49	C	-0.510754	-0.640797	-0.354554
C50	C	-0.010754	-0.140797	0.145446
C51	C	-0.510746	-0.724131	-0.354549
C52	C	-0.010746	-0.224131	0.145451
C53	C	-0.510782	-0.403742	-0.354561
C54	C	-0.010782	0.096258	0.145439
C55	C	-0.786196	-1.063530	-0.354533
C56	C	-0.286196	-0.563530	0.145467
C57	C	-0.904026	-1.063581	-0.354552
C58	C	-0.404026	-0.563581	0.145448
C59	C	-0.948900	-1.120504	-0.297737
C60	C	-0.448900	-0.620504	0.202263
C61	C	-1.071461	-1.120374	-0.297534
C62	C	-0.571461	-0.620374	0.202466
C63	C	-1.072026	-0.986029	-0.333716
C64	C	-0.572026	-0.486029	0.166284
C65	C	-0.949428	-0.986321	-0.333283
C66	C	-0.449428	-0.486321	0.166717
C67	C	-0.949107	-1.083611	-0.432390
C68	C	-0.449107	-0.583611	0.067610
C69	C	-1.071712	-1.085359	-0.431995
C70	C	-0.571712	-0.585359	0.068005
C71	C	-0.234261	-1.063622	-0.354575
C72	C	0.265739	-0.563622	0.145425
C73	C	-0.116431	-1.063646	-0.354588
C74	C	0.383569	-0.563646	0.145412
C75	C	-0.510682	-1.063600	-0.546499
C76	C	-0.010682	-0.563600	-0.046499
C77	C	-0.510646	-1.063615	-0.628298
C78	C	-0.010646	-0.563615	-0.128298
C79	C	-0.510798	-0.255518	-0.354558
C80	C	-0.010798	0.244482	0.145442
C81	C	-0.510790	-0.337317	-0.354564
C82	C	-0.010790	0.162683	0.145436
C83	C	-0.442788	-1.016599	-0.816497
C84	C	0.057212	-0.516599	-0.316497
C85	C	-0.442766	-1.016612	-0.893356
C86	C	0.057234	-0.516612	-0.393356
C87	C	-0.578377	-1.110719	-0.893337
C88	C	-0.078377	-0.610719	-0.393337
C89	C	-0.578403	-1.110702	-0.816480
C90	C	-0.078403	-0.610702	-0.316480
C91	C	-0.510602	-1.063643	-0.778062
C92	C	-0.010602	-0.563643	-0.278062
C93	C	-0.510555	-1.063673	-0.931778
C94	C	-0.010555	-0.563673	-0.431778
C95	C	-0.510532	-1.063687	-1.015112
C96	C	-0.010532	-0.563687	-0.515112
C97	C	-0.510626	-1.063628	-0.694723
C98	C	-0.010626	-0.563628	-0.194723
C99	C	-0.510774	-1.063573	-0.163340
C100	C	-0.010774	-0.563573	0.336660
C101	C	-0.510512	-1.063701	-0.081541
C102	C	-0.010512	-0.563701	0.418459
H103	H	-0.919361	-1.178214	-0.310619
H104	H	-0.419361	-0.678214	0.189381
H105	H	-1.100727	-1.142478	-0.447737
H106	H	-0.600727	-0.642478	0.052263
H107	H	-0.919745	-0.942455	-0.372877
H108	H	-0.419745	-0.442455	0.127123
N109	N	-0.369658	-0.643789	-0.256885
N110	N	0.130342	-0.143789	0.243115
H111	H	-0.386034	-0.630402	-0.204283
H112	H	0.113966	-0.130402	0.295717
H113	H	-0.379975	-0.698297	-0.264077
H114	H	0.120025	-0.198297	0.235923
N115	N	-0.910669	-1.028701	-0.488465
N116	N	-0.410669	-0.528701	0.011535
H117	H	-0.864281	-0.991031	-0.463612
H118	H	-0.364281	-0.491031	0.036388
H119	H	-0.868698	-1.054998	-0.527650
H120	H	-0.368698	-0.554998	-0.027650
H121	H	-1.102318	-1.046958	-0.476590
H122	H	-0.602318	-0.546958	0.023410
N123	N	-0.369696	-0.484035	-0.256877
N124	N	0.130304	0.015965	0.243123
H125	H	-0.326689	-0.520034	-0.227109
H126	H	0.173311	-0.020034	0.272891
H127	H	-0.320695	-0.452153	-0.286889
H128	H	0.179305	0.047847	0.213111
H129	H	-1.100867	-1.107119	-0.239870
H130	H	-0.600867	-0.607119	0.260130
H131	H	-0.633913	-0.494240	-0.439810
H132	H	-0.133913	0.005760	0.060190
H133	H	-1.101481	-1.177921	-0.310570
H134	H	-0.601481	-0.677921	0.189430
H135	H	-0.920912	-0.969374	-0.276391
H136	H	-0.420912	-0.469374	0.223609
H137	H	-0.918163	-1.107395	-0.240392
H138	H	-0.418163	-0.607395	0.259608
N139	N	-1.110620	-0.928338	-0.386851
N140	N	-0.610620	-0.428338	0.113149
H141	H	-1.152295	-0.889839	-0.359341
H142	H	-0.652295	-0.389839	0.140659
H143	H	-1.048001	-0.904561	-0.411741
H144	H	-0.548001	-0.404561	0.088259
N145	N	-0.651486	-1.161482	-0.934776
N146	N	-0.151486	-0.661482	-0.434776
H147	H	-0.694451	-1.191281	-0.898762
H148	H	-0.194451	-0.691281	-0.398762
H149	H	-0.700530	-1.131527	-0.966659
H150	H	-0.200530	-0.631527	-0.466659
H151	H	-0.633630	-1.149012	-0.785184
H152	H	-0.133630	-0.649012	-0.285184
N153	N	-0.369662	-0.965848	-0.775059
N154	N	0.130338	-0.465848	-0.275059
H155	H	-0.326699	-0.936048	-0.811074
H156	H	0.173301	-0.436048	-0.311074
H157	H	-0.412815	-0.931775	-0.743161
H158	H	0.087185	-0.431775	-0.243161
H159	H	-0.633902	-0.633667	-0.439801
H160	H	-0.133902	-0.133667	0.060199
H161	H	-1.102810	-0.968806	-0.277459
H162	H	-0.602810	-0.468806	0.222541
H163	H	-0.918113	-1.139225	-0.451411
H164	H	-0.418113	-0.639225	0.048589
N165	N	-0.369628	-0.965870	-0.934813
N166	N	0.130372	-0.465870	-0.434813
H167	H	-0.326685	-0.936057	-0.898810
H168	H	0.173315	-0.436057	-0.398810
H169	H	-0.320564	-0.995840	-0.966712
H170	H	0.179436	-0.495840	-0.466712
