data_functionalizedCrystal
_audit_creation_method	'MofGen! by Chris Wilmer'
_symmetry_space_group_name_H-M	'P1'
_symmetry_Int_Tables_number	1
_symmetry_cell_setting	triclinic
loop_
_symmetry_equiv_pos_as_xyz
  x,y,z
_cell_length_a	13.897447
_cell_length_b	25.639242
_cell_length_c	13.897441
_cell_angle_alpha	89.968225
_cell_angle_beta	90.029327
_cell_angle_gamma	89.985811
loop_
_atom_site_label
_atom_site_type_symbol
_atom_site_fract_x
_atom_site_fract_y
_atom_site_fract_z
Zn1	Zn	-0.384121	-0.799339	0.545674
Zn2	Zn	-0.050788	-0.466005	0.879007
Zn3	Zn	0.282545	-0.132672	1.212340
Zn4	Zn	-0.545443	-0.799278	0.384379
Zn5	Zn	-0.212110	-0.465945	0.717712
Zn6	Zn	0.121224	-0.132612	1.051045
Zn7	Zn	-0.384149	-0.711902	0.384361
Zn8	Zn	-0.050815	-0.378569	0.717694
Zn9	Zn	0.282518	-0.045235	1.051028
Zn10	Zn	-0.545361	-0.711889	0.545600
Zn11	Zn	-0.212028	-0.378556	0.878934
Zn12	Zn	0.121306	-0.045223	1.212267
O13	O	-0.464769	-0.755602	0.465003
O14	O	-0.131435	-0.422269	0.798337
O15	O	0.201898	-0.088935	1.131670
O16	O	-0.405544	-0.872496	0.524316
O17	O	-0.072211	-0.539162	0.857649
O18	O	0.261123	-0.205829	1.190982
O19	O	-0.524093	-0.787668	0.249395
O20	O	-0.190760	-0.454334	0.582728
O21	O	0.142574	-0.121001	0.916061
O22	O	-0.249164	-0.723531	0.405783
O23	O	0.084170	-0.390198	0.739116
O24	O	0.417503	-0.056864	1.072450
O25	O	-0.524066	-0.872451	0.405813
O26	O	-0.190733	-0.539118	0.739146
O27	O	0.142600	-0.205785	1.072480
O28	O	-0.249143	-0.787770	0.524299
O29	O	0.084190	-0.454437	0.857632
O30	O	0.417523	-0.121104	1.190965
O31	O	-0.405591	-0.723473	0.249382
O32	O	-0.072257	-0.390139	0.582715
O33	O	0.261076	-0.056806	0.916048
O34	O	-0.405511	-0.638735	0.405712
O35	O	-0.072178	-0.305402	0.739045
O36	O	0.261156	0.027932	1.072378
O37	O	-0.523927	-0.723509	0.680592
O38	O	-0.190593	-0.390176	1.013925
O39	O	0.142740	-0.056843	1.347258
O40	O	-0.523953	-0.638726	0.524173
O41	O	-0.190620	-0.305392	0.857507
O42	O	0.142714	0.027941	1.190840
O43	O	-0.405465	-0.787758	0.680646
O44	O	-0.072131	-0.454425	1.013979
O45	O	0.261202	-0.121091	1.347312
O46	O	-0.680414	-0.787655	0.405742
O47	O	-0.347081	-0.454322	0.739075
O48	O	-0.013747	-0.120989	1.072408
O49	O	-0.680354	-0.723451	0.524191
O50	O	-0.347020	-0.390118	0.857524
O51	O	-0.013687	-0.056784	1.190857
C52	C	-0.464727	-0.619759	0.464933
C53	C	-0.131394	-0.286426	0.798267
C54	C	0.201940	0.046907	1.131600
C55	C	-0.464732	-0.561645	0.464926
C56	C	-0.131399	-0.228312	0.798259
C57	C	0.201934	0.105021	1.131593
C58	C	-0.402989	-0.310448	0.403403
C59	C	-0.069656	0.022885	0.736736
C60	C	0.263677	0.356219	1.070069
C61	C	-0.402981	-0.365052	0.403393
C62	C	-0.069648	-0.031719	0.736727
C63	C	0.263686	0.301614	1.070060
O64	O	-0.350430	-0.393286	0.351043
O65	O	-0.017097	-0.059952	0.684376
O66	O	0.316237	0.273381	1.017710
N67	N	-0.464743	-0.392371	0.464965
N68	N	-0.131409	-0.059038	0.798299
N69	N	0.201924	0.274295	1.131632
C70	C	-0.526510	-0.365084	0.526557
C71	C	-0.193177	-0.031750	0.859891
C72	C	0.140156	0.301583	1.193224
O73	O	-0.579042	-0.393335	0.578929
O74	O	-0.245709	-0.060001	0.912262
O75	O	0.087624	0.273332	1.245596
C76	C	-0.526513	-0.310480	0.526571
C77	C	-0.193180	0.022853	0.859904
C78	C	0.140153	0.356186	1.193238
C79	C	-0.464754	-0.283164	0.464988
C80	C	-0.131421	0.050169	0.798321
C81	C	0.201912	0.383503	1.131655
C82	C	-0.341235	-0.283132	0.341826
C83	C	-0.007901	0.050202	0.675159
C84	C	0.325432	0.383535	1.008492
C85	C	-0.341245	-0.228531	0.341834
C86	C	-0.007911	0.104802	0.675167
C87	C	0.325422	0.438136	1.008501
C88	C	-0.403009	-0.201247	0.403419
C89	C	-0.069676	0.132086	0.736753
C90	C	0.263657	0.465420	1.070086
C91	C	-0.464764	-0.228563	0.464996
C92	C	-0.131431	0.104770	0.798330
C93	C	0.201902	0.438103	1.131663
C94	C	-0.588275	-0.283193	0.588167
C95	C	-0.254942	0.050140	0.921500
C96	C	0.078392	0.383473	1.254834
C97	C	-0.588272	-0.228586	0.588176
C98	C	-0.254939	0.104747	0.921509
C99	C	0.078394	0.438080	1.254842
C100	C	-0.526513	-0.201270	0.526593
C101	C	-0.193180	0.132063	0.859926
C102	C	0.140153	0.465397	1.193260
C103	C	-0.526539	-0.146679	0.526590
C104	C	-0.193206	0.186655	0.859923
C105	C	0.140128	0.519988	1.193256
N106	N	-0.464777	-0.119359	0.465018
N107	N	-0.131444	0.213974	0.798351
N108	N	0.201890	0.547307	1.131685
C109	C	-0.403012	-0.146644	0.403433
C110	C	-0.069679	0.186690	0.736766
C111	C	0.263654	0.520023	1.070099
C112	C	-0.526498	-0.479754	0.526526
C113	C	-0.193165	-0.146421	0.859859
C114	C	0.140168	0.186913	1.193192
C115	C	-0.526501	-0.534356	0.526508
C116	C	-0.193168	-0.201023	0.859842
C117	C	0.140166	0.132310	1.193175
C118	C	-0.402970	-0.534321	0.403345
C119	C	-0.069637	-0.200988	0.736679
C120	C	0.263697	0.132345	1.070012
C121	C	-0.402973	-0.479718	0.403359
C122	C	-0.069640	-0.146385	0.736692
C123	C	0.263694	0.186948	1.070025
C124	C	-0.464736	-0.452435	0.464954
C125	C	-0.131403	-0.119102	0.798287
C126	C	0.201930	0.214232	1.131621
C127	C	-0.403039	-0.031979	0.403454
C128	C	-0.069705	0.301355	0.736787
C129	C	0.263628	0.634688	1.070121
C130	C	-0.403057	0.022627	0.403465
C131	C	-0.069724	0.355960	0.736798
C132	C	0.263610	0.689294	1.070132
C133	C	-0.526584	0.022587	0.526631
C134	C	-0.193250	0.355920	0.859964
C135	C	0.140083	0.689254	1.193298
C136	C	-0.526570	-0.032013	0.526617
C137	C	-0.193236	0.301320	0.859950
C138	C	0.140097	0.634653	1.193284
C139	C	-0.464789	-0.059295	0.465025
C140	C	-0.131456	0.274038	0.798359
C141	C	0.201878	0.607372	1.131692
O142	O	-0.579060	-0.118411	0.578916
O143	O	-0.245727	0.214923	0.912250
O144	O	0.087606	0.548256	1.245583
O145	O	-0.350480	-0.118386	0.351079
O146	O	-0.017147	0.214947	0.684412
O147	O	0.316186	0.548281	1.017746
C148	C	-0.715383	-0.755559	0.464981
C149	C	-0.382050	-0.422226	0.798314
C150	C	-0.048716	-0.088893	1.131648
C151	C	-0.822597	-0.755589	0.465004
C152	C	-0.489264	-0.422256	0.798337
C153	C	-0.155930	-0.088922	1.131670
C154	C	-0.909667	-0.755614	0.465026
C155	C	-0.576333	-0.422281	0.798359
C156	C	-0.243000	-0.088948	1.131692
C157	C	-1.018899	-0.755651	0.465051
C158	C	-0.685566	-0.422318	0.798384
C159	C	-0.352232	-0.088984	1.131717
C160	C	-0.213176	-0.755659	0.465047
C161	C	0.120158	-0.422326	0.798380
C162	C	0.453491	-0.088992	1.131714
C163	C	-0.105962	-0.755683	0.465066
C164	C	0.227372	-0.422350	0.798399
C165	C	0.560705	-0.089016	1.131732
C166	C	-0.464683	-0.755639	0.716597
C167	C	-0.131350	-0.422306	1.049930
C168	C	0.201983	-0.088972	1.383263
C169	C	-0.464647	-0.755655	0.823811
C170	C	-0.131314	-0.422322	1.157144
C171	C	0.202020	-0.088988	1.490477
C172	C	-0.464809	0.108025	0.465061
C173	C	-0.131476	0.441358	0.798394
C174	C	0.201857	0.774692	1.131728
C175	C	-0.464822	0.049911	0.465050
C176	C	-0.131488	0.383244	0.798383
C177	C	0.201845	0.716578	1.131717
C178	C	-0.464784	-0.755595	0.214389
C179	C	-0.131451	-0.422262	0.547722
C180	C	0.201883	-0.088928	0.881056
C181	C	-0.464549	-0.755681	0.107176
C182	C	-0.131215	-0.422347	0.440509
C183	C	0.202118	-0.089014	0.773842
C184	C	-0.464582	-0.755669	1.020106
C185	C	-0.131248	-0.422336	1.353439
C186	C	0.202085	-0.089002	1.686773
C187	C	-0.464621	-0.755660	0.910873
C188	C	-0.131287	-0.422326	1.244207
C189	C	0.202046	-0.088993	1.577540
H190	H	-0.576874	0.044812	0.576769
H191	H	-0.243541	0.378145	0.910102
H192	H	0.089792	0.711478	1.243435
Cl193	Cl	-0.665919	-0.317520	0.665592
Cl194	Cl	-0.332585	0.015813	0.998926
Cl195	Cl	0.000748	0.349146	1.332259
Cl196	Cl	-0.325373	-0.066267	0.326021
Cl197	Cl	0.007960	0.267067	0.659354
Cl198	Cl	0.341294	0.600400	0.992688
H199	H	-0.638565	-0.206375	0.638338
H200	H	-0.305232	0.126958	0.971672
H201	H	0.028101	0.460292	1.305005
H202	H	-0.352680	-0.457481	0.353216
H203	H	-0.019347	-0.124147	0.686549
H204	H	0.313987	0.209186	1.019883
Cl205	Cl	-0.263575	-0.317422	0.264395
Cl206	Cl	0.069758	0.015911	0.597728
Cl207	Cl	0.403091	0.349245	0.931061
H208	H	-0.576866	-0.054256	0.576755
H209	H	-0.243533	0.279078	0.910089
H210	H	0.089801	0.612411	1.243422
Cl211	Cl	-0.325321	-0.568632	0.325924
Cl212	Cl	0.008012	-0.235298	0.659257
Cl213	Cl	0.341346	0.098035	0.992591
H214	H	-0.290954	-0.206295	0.291687
H215	H	0.042379	0.127038	0.625020
H216	H	0.375713	0.460372	0.958354
H217	H	-0.576802	-0.556593	0.576645
H218	H	-0.243468	-0.223259	0.909978
H219	H	0.089865	0.110074	1.243311
H220	H	-0.352764	0.044865	0.353314
H221	H	-0.019430	0.378199	0.686647
H222	H	0.313903	0.711532	1.019981
Cl223	Cl	-0.604160	-0.445461	0.603959
Cl224	Cl	-0.270827	-0.112127	0.937293
Cl225	Cl	0.062506	0.221206	1.270626
