data_functionalizedCrystal
_audit_creation_method	'MofGen! by Chris Wilmer'
_symmetry_space_group_name_H-M	'P1'
_symmetry_Int_Tables_number	1
_symmetry_cell_setting	triclinic
loop_
_symmetry_equiv_pos_as_xyz
  x,y,z
_cell_length_a	16.974800
_cell_length_b	19.188930
_cell_length_c	15.455313
_cell_angle_alpha	92.650876
_cell_angle_beta	90.973911
_cell_angle_gamma	83.267966
loop_
_atom_site_label
_atom_site_type_symbol
_atom_site_fract_x
_atom_site_fract_y
_atom_site_fract_z
O1	O	1.048768	0.089002	0.001507
O2	O	1.548768	0.589002	0.501507
O3	O	0.819299	0.099665	-0.014610
O4	O	1.319299	0.599665	0.485390
O5	O	0.940655	-0.007291	-0.006069
O6	O	1.440655	0.492709	0.493931
O7	O	0.927412	0.195957	-0.007033
O8	O	1.427412	0.695957	0.492967
O9	O	0.933715	-0.001200	0.137705
O10	O	1.433715	0.498800	0.637705
O11	O	0.812359	0.105756	0.129164
O12	O	1.312359	0.605756	0.629164
O13	O	1.041829	0.095093	0.145281
O14	O	1.541829	0.595093	0.645281
Cu15	Cu	0.926460	0.100980	0.150350
Cu16	Cu	1.426460	0.600980	0.650350
Cu17	Cu	0.934667	0.093777	-0.019679
Cu18	Cu	1.434667	0.593777	0.480321
O19	O	0.920473	0.202048	0.136741
O20	O	1.420473	0.702048	0.636741
C21	C	0.786472	0.102193	0.055215
C22	C	1.286472	0.602193	0.555215
C23	C	0.698995	0.100644	0.049072
C24	C	1.198995	0.600644	0.549072
C25	C	0.654121	0.103234	0.124559
C26	C	1.154121	0.603234	0.624559
C27	C	0.571929	0.101768	0.118789
C28	C	1.071929	0.601768	0.618789
C29	C	0.534613	0.097715	0.037532
C30	C	1.034613	0.597715	0.537532
C31	C	0.579494	0.095122	-0.037961
C32	C	1.079494	0.595122	0.462039
C33	C	0.661685	0.096584	-0.032190
C34	C	1.161685	0.596584	0.467810
C35	C	0.289205	0.092983	0.011870
C36	C	0.789205	0.592983	0.511870
C37	C	0.207007	0.091523	0.006105
C38	C	0.707007	0.591523	0.506105
C39	C	0.199448	0.098167	0.162856
C40	C	0.699448	0.598167	0.662856
C41	C	0.281641	0.099633	0.168619
C42	C	0.781641	0.599633	0.668619
C43	C	0.326515	0.097036	0.093126
C44	C	0.826515	0.597036	0.593126
N45	N	0.450599	0.096218	0.031632
N46	N	0.950599	0.596218	0.531632
N47	N	0.410528	0.098528	0.099027
N48	N	0.910528	0.598528	0.599027
C49	C	0.936756	-0.030258	0.065790
C50	C	1.436756	0.469742	0.565790
C51	C	0.935468	-0.107768	0.065707
C52	C	1.435468	0.392232	0.565707
C53	C	1.006676	-0.152359	0.070713
C54	C	1.506676	0.347641	0.570713
C55	C	1.005467	-0.225189	0.070614
C56	C	1.505467	0.274811	0.570614
C57	C	0.933045	-0.253424	0.065527
C58	C	1.433045	0.246576	0.565527
C59	C	0.861828	-0.208824	0.060515
C60	C	1.361828	0.291176	0.560515
C61	C	0.863040	-0.135996	0.060606
C62	C	1.363040	0.364004	0.560606
N63	N	0.875326	-0.359615	0.110567
N64	N	1.375326	0.140385	0.610567
N65	N	0.874180	-0.428799	0.110484
N66	N	1.374180	0.071201	0.610484
C67	C	0.929392	-0.472851	0.065252
C68	C	1.429392	0.027149	0.565252
N69	N	0.985804	-0.445106	0.020119
N70	N	1.485804	0.054894	0.520119
N71	N	0.986952	-0.375915	0.020207
N72	N	1.486952	0.124085	0.520207
C73	C	0.931724	-0.332393	0.065428
C74	C	1.431724	0.167607	0.565428
C75	C	0.999294	-0.596413	0.070150
C76	C	1.499294	-0.096413	0.570150
C77	C	0.998082	-0.669244	0.070045
C78	C	1.498082	-0.169244	0.570045
C79	C	0.854441	-0.652877	0.059956
C80	C	1.354441	-0.152877	0.559956
C81	C	0.855655	-0.580047	0.060052
C82	C	1.355655	-0.080047	0.560052
C83	C	0.928083	-0.551820	0.065153
C84	C	1.428083	-0.051820	0.565153
C85	C	1.074656	0.092565	0.075454
C86	C	1.574656	0.592565	0.575454
C87	C	1.162133	0.094114	0.081592
C88	C	1.662133	0.594114	0.581592
C89	C	0.924372	0.225016	0.064879
C90	C	1.424372	0.725016	0.564879
C91	C	0.925660	0.302526	0.064957
C92	C	1.425660	0.802526	0.564957
N93	N	0.920694	0.106046	0.269940
N94	N	1.420694	0.606046	0.769940
N95	N	0.940440	0.088706	-0.139268
N96	N	1.440440	0.588706	0.360732
C97	C	0.972268	0.060625	0.318964
C98	C	1.472268	0.560625	0.818964
C99	C	0.967914	0.064462	0.409465
C100	C	1.467914	0.564462	0.909465
C101	C	0.911990	0.113725	0.450941
C102	C	1.411990	0.613725	0.950941
C103	C	0.860410	0.159149	0.401911
C104	C	1.360410	0.659149	0.901911
C105	C	0.864761	0.155308	0.311411
C106	C	1.364761	0.655308	0.811411
C107	C	0.893211	0.130288	0.721201
C108	C	1.393211	0.630288	1.221201
C109	C	0.888866	0.134127	0.811708
C110	C	1.388866	0.634127	1.311708
C111	C	0.996370	0.039439	0.819256
C112	C	1.496370	0.539439	1.319256
C113	C	1.000718	0.035605	0.728754
C114	C	1.500718	0.535605	1.228754
C115	C	0.949136	0.081026	0.679731
C116	C	1.449136	0.581026	1.179731
N117	N	0.907540	0.117651	0.543449
N118	N	1.407540	0.617651	1.043449
N119	N	0.953583	0.077097	0.587226
N120	N	1.453583	0.577097	1.087226
H121	H	0.325732	0.090866	-0.049602
H122	H	0.825732	0.590866	0.450398
H123	H	0.805052	-0.099689	0.056530
H124	H	1.305052	0.400311	0.556530
H125	H	0.698221	0.094476	-0.093660
H126	H	1.198221	0.594476	0.406340
N127	N	0.539251	0.090743	-0.125604
N128	N	1.039251	0.590743	0.374396
H129	H	0.480374	0.090211	-0.117807
H130	H	0.980374	0.590211	0.382193
H131	H	0.548729	0.132788	-0.159290
H132	H	1.048729	0.632788	0.340710
N133	N	1.084792	-0.121914	0.076213
N134	N	1.584792	0.378086	0.576213
H135	H	1.129719	-0.161218	0.079368
H136	H	1.629719	0.338782	0.579368
H137	H	1.090999	-0.094304	0.023171
H138	H	1.590999	0.405696	0.523171
N139	N	0.776323	-0.683313	0.054478
N140	N	1.276323	-0.183313	0.554478
H141	H	0.747706	-0.669310	-0.001007
H142	H	1.247706	-0.169310	0.498993
H143	H	0.786418	-0.736210	0.055218
H144	H	1.286418	-0.236210	0.555218
N145	N	0.694364	0.107601	0.212204
N146	N	1.194364	0.607601	0.712204
H147	H	0.753241	0.108136	0.204408
H148	H	1.253241	0.608136	0.704408
H149	H	0.671803	0.152037	0.244953
H150	H	1.171803	0.652037	0.744953
H151	H	1.058269	-0.573430	0.074300
H152	H	1.558269	-0.073430	0.574300
N153	N	1.074889	-0.717344	0.075441
N154	N	1.574889	-0.217344	0.575441
H155	H	1.120952	-0.688407	0.078689
H156	H	1.620952	-0.188407	0.578689
H157	H	1.074935	-0.745668	0.128920
H158	H	1.574935	-0.245668	0.628920
H159	H	1.038364	0.002459	0.859178
H160	H	1.538364	0.502459	1.359178
N161	N	0.828542	0.187256	0.856454
N162	N	1.328542	0.687256	1.356454
H163	H	0.856744	0.219838	0.896089
H164	H	1.356744	0.719838	1.396089
H165	H	0.796536	0.215400	0.811619
H166	H	1.296536	0.715400	1.311619
H167	H	0.162903	0.100280	0.224317
H168	H	0.662903	0.600280	0.724317
N169	N	0.837573	0.179279	0.668344
N170	N	1.337573	0.679279	1.168344
H171	H	0.845718	0.229523	0.684703
H172	H	1.345718	0.729523	1.184703
H173	H	0.848830	0.169315	0.604734
H174	H	1.348830	0.669315	1.104734
H175	H	0.814871	0.199258	0.435686
H176	H	1.314871	0.699258	0.935686
N177	N	0.783712	-0.239267	0.055030
N178	N	1.283712	0.260733	0.555030
H179	H	0.782580	-0.271370	0.001472
H180	H	1.282580	0.228630	0.501472
H181	H	0.777479	-0.266829	0.108105
H182	H	1.277479	0.233171	0.608105
N183	N	0.166751	0.087142	-0.081538
N184	N	0.666751	0.587142	0.418462
H185	H	0.126280	0.129629	-0.087893
H186	H	0.626280	0.629629	0.412107
H187	H	0.207697	0.085692	-0.128438
H188	H	0.707697	0.585692	0.371562
H189	H	1.009909	0.027476	0.449380
H190	H	1.509909	0.527476	0.949380
N191	N	0.809133	0.204302	0.258539
N192	N	1.309133	0.704302	0.758539
H193	H	0.840939	0.233697	0.223077
H194	H	1.340939	0.733697	0.723077
H195	H	0.776152	0.175892	0.218617
H196	H	1.276152	0.675892	0.718617
N197	N	0.523526	0.104559	0.200205
N198	N	1.023526	0.604559	0.700205
H199	H	0.559707	0.106857	0.252562
H200	H	1.059707	0.606857	0.752562
H201	H	0.483083	0.147602	0.201047
H202	H	0.983083	0.647602	0.701047
N203	N	0.778851	-0.531947	0.054658
N204	N	1.278851	-0.031947	0.554658
H205	H	0.732788	-0.560882	0.051420
H206	H	1.232788	-0.060882	0.551420
H207	H	0.773653	-0.499124	0.107774
H208	H	1.273653	0.000876	0.607774
N209	N	1.032592	0.007495	0.274232
N210	N	1.532592	0.507495	0.774232
H211	H	1.064601	-0.020697	0.319024
H212	H	1.564601	0.479303	0.819024
H213	H	1.004338	-0.025040	0.234588
H214	H	1.504338	0.474960	0.734588
H215	H	1.063455	-0.261503	0.074687
H216	H	1.563455	0.238497	0.574687
N217	N	1.061038	-0.017528	0.684020
N218	N	1.561038	0.482472	1.184020
H219	H	1.093050	-0.045721	0.728810
H220	H	1.593050	0.454279	1.228810
H221	H	1.032783	-0.050062	0.644377
H222	H	1.532783	0.449938	1.144377
H223	H	0.312018	0.102930	0.234787
H224	H	0.812018	0.602930	0.734787
