data_functionalizedCrystal
_audit_creation_method	'MofGen! by Chris Wilmer'
_symmetry_space_group_name_H-M	'P1'
_symmetry_Int_Tables_number	1
_symmetry_cell_setting	triclinic
loop_
_symmetry_equiv_pos_as_xyz
  x,y,z
_cell_length_a	13.635800
_cell_length_b	17.982959
_cell_length_c	11.102291
_cell_angle_alpha	85.764207
_cell_angle_beta	108.605752
_cell_angle_gamma	77.548143
loop_
_atom_site_label
_atom_site_type_symbol
_atom_site_fract_x
_atom_site_fract_y
_atom_site_fract_z
V1	V	2.040203	-0.105422	0.396790
O2	O	2.036032	0.005056	0.388690
O3	O	2.013293	-0.209025	0.394601
O4	O	2.028834	-0.103805	0.569604
O5	O	2.020384	-0.100892	0.212476
V6	V	2.280705	-0.092207	0.374681
O7	O	2.173594	-0.134410	0.445288
O8	O	2.372413	-0.063219	0.326182
O9	O	2.196011	0.011396	0.376869
O10	O	2.343574	-0.202685	0.382780
O11	O	2.359222	-0.096737	0.558994
O12	O	2.180471	-0.093824	0.201866
V13	V	2.540203	-0.105422	0.396790
O14	O	2.536032	0.005056	0.388690
O15	O	2.513293	-0.209025	0.394601
O16	O	2.528834	-0.103805	0.569604
O17	O	2.520384	-0.100892	0.212476
V18	V	2.780705	-0.092207	0.374681
O19	O	2.673594	-0.134410	0.445288
O20	O	2.872413	-0.063219	0.326182
O21	O	2.696011	0.011396	0.376869
O22	O	2.843574	-0.202685	0.382780
O23	O	2.859222	-0.096737	0.558994
O24	O	2.680471	-0.093824	0.201866
C25	C	1.934719	-0.234281	0.388477
C26	C	1.953446	-0.318977	0.387840
C27	C	2.053674	-0.362649	0.393899
C28	C	2.071266	-0.442231	0.393308
C29	C	1.988626	-0.478139	0.386648
C30	C	1.888390	-0.434462	0.380592
C31	C	1.870802	-0.354883	0.381192
C32	C	1.959321	-0.755398	0.378171
C33	C	1.976916	-0.834983	0.377567
C34	C	2.159785	-0.842746	0.390286
C35	C	2.142197	-0.763166	0.390887
C36	C	2.041965	-0.719497	0.384838
C37	C	2.022891	-0.633206	0.385481
C38	C	2.007696	-0.564428	0.385995
C39	C	1.954542	-0.100061	0.611709
C40	C	1.985871	-0.099424	0.752989
C41	C	2.106256	0.036648	0.382990
C42	C	2.077149	0.121343	0.383635
C43	C	2.086433	-0.097570	0.159755
C44	C	2.044723	-0.098203	0.018474
C45	C	2.434719	-0.234281	0.388477
C46	C	2.453446	-0.318977	0.387840
C47	C	2.454542	-0.100061	0.611709
C48	C	2.485871	-0.099424	0.752989
C49	C	2.092031	-0.102925	0.825854
C50	C	2.121457	-0.102312	0.958597
C51	C	1.938553	-0.094700	0.945598
C52	C	1.909127	-0.095308	0.812856
C53	C	2.197631	-0.107323	0.833361
C54	C	2.227057	-0.106710	0.966104
C55	C	2.606256	0.036648	0.382990
C56	C	2.577149	0.121343	0.383635
C57	C	2.586433	-0.097570	0.159755
C58	C	2.544723	-0.098203	0.018474
C59	C	2.553684	-0.362637	0.393910
C60	C	2.571299	-0.442221	0.393330
C61	C	2.488672	-0.478143	0.386672
C62	C	2.388427	-0.434478	0.380605
C63	C	2.370815	-0.354896	0.381194
C64	C	2.649405	0.165002	0.377569
C65	C	2.622062	0.244586	0.378154
C66	C	2.522466	0.280508	0.384816
C67	C	2.450204	0.236843	0.390879
C68	C	2.477544	0.157262	0.390284
C69	C	2.592031	-0.102925	0.825854
C70	C	2.621457	-0.102312	0.958597
C71	C	2.438553	-0.094700	0.945598
C72	C	2.409127	-0.095308	0.812856
C73	C	2.697631	-0.107323	0.833361
C74	C	2.727057	-0.106710	0.966104
H75	H	2.152881	-0.477785	0.398244
C76	C	2.721090	-0.037464	0.769372
C77	C	2.769728	0.019472	0.851901
C78	C	2.793185	0.089329	0.787911
C79	C	2.768005	0.102250	0.641392
C80	C	2.719365	0.045312	0.558854
C81	C	2.695907	-0.024545	0.622844
H82	H	2.788370	0.009909	0.960371
H83	H	2.829192	0.131479	0.849012
H84	H	2.785369	0.153962	0.594023
H85	H	2.700722	0.054875	0.450384
H86	H	2.659900	-0.066694	0.561743
C87	C	2.750727	-0.184077	0.800684
C88	C	2.826541	-0.249221	0.909447
C89	C	2.879631	-0.325977	0.876768
C90	C	2.856908	-0.337590	0.735327
C91	C	2.781090	-0.272444	0.626555
C92	C	2.728000	-0.195688	0.659233
H93	H	2.843365	-0.240627	1.014159
H94	H	2.935756	-0.374203	0.957290
H95	H	2.896209	-0.394409	0.711137
H96	H	2.764266	-0.281038	0.521843
H97	H	2.671875	-0.147463	0.578712
C98	C	2.701565	0.292603	0.371499
C99	C	2.812601	0.274481	0.477112
C100	C	2.892106	0.322495	0.470459
C101	C	2.860574	0.388631	0.358195
C102	C	2.749533	0.406756	0.252575
C103	C	2.670028	0.358742	0.259227
H104	H	2.835948	0.225520	0.560224
H105	H	2.974307	0.309077	0.548647
H106	H	2.919428	0.424174	0.353270
H107	H	2.726186	0.455717	0.169462
H108	H	2.587827	0.372160	0.181039
H109	H	2.376075	-0.091347	0.994358
C110	C	2.762494	-0.033638	1.005062
C111	C	2.684236	0.046319	0.950195
C112	C	2.719668	0.119391	0.989153
C113	C	2.833357	0.112505	1.082977
C114	C	2.911622	0.032545	1.137850
C115	C	2.876190	-0.040527	1.098892
H116	H	2.600070	0.051419	0.880736
H117	H	2.661730	0.178583	0.948532
H118	H	2.859586	0.166597	1.111816
H119	H	2.995788	0.027445	1.207309
H120	H	2.934128	-0.099719	1.139513
H121	H	2.369111	0.266103	0.396302
H122	H	2.503027	-0.542944	0.386193
C123	C	2.813127	-0.181128	1.037891
C124	C	2.920493	-0.199950	1.014253
C125	C	3.006557	-0.274365	1.086042
C126	C	2.985255	-0.329957	1.181470
C127	C	2.877885	-0.311136	1.205112
C128	C	2.791821	-0.236721	1.133323
H129	H	2.936266	-0.158796	0.943608
H130	H	3.086040	-0.288297	1.068540
H131	H	3.048965	-0.385044	1.234612
H132	H	2.862112	-0.352290	1.275757
H133	H	2.712338	-0.222789	1.150826
C134	C	2.313122	-0.181133	1.037879
C135	C	2.291816	-0.236729	1.133297
C136	C	2.377872	-0.311151	1.205067
C137	C	2.485233	-0.329977	1.181419
C138	C	2.506544	-0.274380	1.085997
C139	C	2.420488	-0.199958	1.014227
H140	H	2.212336	-0.222794	1.150806
H141	H	2.362096	-0.352308	1.275705
H142	H	2.548937	-0.385069	1.234548
H143	H	2.586024	-0.288315	1.068487
H144	H	2.436264	-0.158801	0.943589
H145	H	2.730506	0.135766	0.372145
H146	H	2.620974	-0.333399	0.399324
H147	H	2.120969	-0.333417	0.399310
H148	H	2.209491	-0.733933	0.396303
H149	H	2.241401	-0.878311	0.395214
H150	H	2.500217	0.345308	0.385299
H151	H	1.822684	-0.092458	0.753533
C152	C	1.797484	-0.473961	0.373256
C153	C	1.811553	-0.537976	0.482006
C154	C	1.720643	-0.577473	0.474661
C155	C	1.615662	-0.552955	0.358566
C156	C	1.601588	-0.488937	0.249808
C157	C	1.692499	-0.449440	0.257153
H158	H	1.889270	-0.556128	0.567953
H159	H	1.731062	-0.624863	0.555171
H160	H	1.548365	-0.582193	0.353129
H161	H	1.523871	-0.470784	0.163860
H162	H	1.682079	-0.402049	0.176642
C163	C	2.221090	-0.037464	0.769372
C164	C	2.269728	0.019472	0.851901
C165	C	2.293185	0.089329	0.787911
C166	C	2.268005	0.102250	0.641392
C167	C	2.219365	0.045312	0.558854
C168	C	2.195907	-0.024545	0.622844
H169	H	2.288370	0.009909	0.960371
H170	H	2.329192	0.131479	0.849012
H171	H	2.285369	0.153962	0.594023
H172	H	2.200722	0.054875	0.450384
H173	H	2.159900	-0.066694	0.561743
H174	H	2.418703	0.121720	0.395236
H175	H	2.321157	-0.463738	0.375184
H176	H	2.322684	-0.092458	0.753533
C177	C	2.250727	-0.184077	0.800684
C178	C	2.326541	-0.249221	0.909447
C179	C	2.379631	-0.325977	0.876768
C180	C	2.356908	-0.337590	0.735327
C181	C	2.281090	-0.272444	0.626555
C182	C	2.228000	-0.195688	0.659233
H183	H	2.343365	-0.240627	1.014159
H184	H	2.435756	-0.374203	0.957290
H185	H	2.396209	-0.394409	0.711137
H186	H	2.264266	-0.281038	0.521843
H187	H	2.171875	-0.147463	0.578712
H188	H	2.289188	-0.319354	0.376244
H189	H	1.909617	-0.864217	0.372152
C190	C	2.262489	-0.033638	1.005075
C191	C	2.376175	-0.040524	1.098908
C192	C	2.411601	0.032547	1.137884
C193	C	2.333340	0.112503	1.083025
C194	C	2.219647	0.119392	0.989186
C195	C	2.184221	0.046322	0.950211
H196	H	2.434115	-0.099716	1.139522
H197	H	2.495765	0.027446	1.207350
H198	H	2.359564	0.166595	1.111877
H199	H	2.161707	0.178584	0.948572
H200	H	2.100058	0.051422	0.880745
H201	H	1.877706	-0.719851	0.373238
H202	H	1.789188	-0.319327	0.376263
H203	H	2.652929	-0.477762	0.398267
H204	H	1.876075	-0.091347	0.994358
