data_functionalizedCrystal
_audit_creation_method	'MofGen! by Chris Wilmer'
_symmetry_space_group_name_H-M	'P1'
_symmetry_Int_Tables_number	1
_symmetry_cell_setting	triclinic
loop_
_symmetry_equiv_pos_as_xyz
  x,y,z
_cell_length_a	19.805407
_cell_length_b	19.121063
_cell_length_c	19.805399
_cell_angle_alpha	92.409585
_cell_angle_beta	89.983114
_cell_angle_gamma	92.469032
loop_
_atom_site_label
_atom_site_type_symbol
_atom_site_fract_x
_atom_site_fract_y
_atom_site_fract_z
Zn1	Zn	1.023216	-0.279621	-0.394202
Zn2	Zn	1.523216	0.220379	0.105798
Zn3	Zn	1.018304	-0.397076	-0.285838
Zn4	Zn	1.518304	0.102924	0.214162
Zn5	Zn	0.910035	-0.279643	-0.281028
Zn6	Zn	1.410035	0.220357	0.218972
Zn7	Zn	0.905164	-0.397036	-0.398983
Zn8	Zn	1.405164	0.102964	0.101017
O9	O	0.964180	-0.338344	-0.340013
O10	O	1.464180	0.161656	0.159987
O11	O	1.117280	-0.295209	-0.379840
O12	O	1.617280	0.204791	0.120160
O13	O	1.003925	-0.381524	-0.190484
O14	O	1.503925	0.118476	0.309516
O15	O	0.929142	-0.181355	-0.292027
O16	O	1.429142	0.318645	0.207973
O17	O	1.113672	-0.381503	-0.300225
O18	O	1.613672	0.118497	0.199775
O19	O	1.012296	-0.181339	-0.375176
O20	O	1.512296	0.318661	0.124824
O21	O	0.924380	-0.295247	-0.186950
O22	O	1.424380	0.204753	0.313050
O23	O	0.814672	-0.295208	-0.296663
O24	O	1.314672	0.204792	0.203337
O25	O	0.920841	-0.381434	-0.493064
O26	O	1.420841	0.118566	0.006936
O27	O	0.811094	-0.381456	-0.383323
O28	O	1.311094	0.118544	0.116677
O29	O	1.007573	-0.295170	-0.489552
O30	O	1.507573	0.204830	0.010448
O31	O	0.999202	-0.495355	-0.304860
O32	O	1.499202	0.004645	0.195140
O33	O	0.916079	-0.495326	-0.387987
O34	O	1.416079	0.004674	0.112013
C35	C	0.788324	-0.338330	-0.339990
C36	C	1.288324	0.161670	0.160010
C37	C	0.713092	-0.338341	-0.339997
C38	C	1.213092	0.161659	0.160003
C39	C	0.675899	-0.383318	-0.385054
C40	C	1.175899	0.116682	0.114946
C41	C	0.605211	-0.383320	-0.385064
C42	C	1.105211	0.116680	0.114936
C43	C	0.571716	-0.338347	-0.340013
C44	C	1.071716	0.161653	0.159987
C45	C	0.608914	-0.293365	-0.294954
C46	C	1.108914	0.206635	0.205046
C47	C	0.679601	-0.293361	-0.294948
C48	C	1.179601	0.206639	0.205052
C49	C	0.323840	-0.293381	-0.294977
C50	C	0.823840	0.206619	0.205023
C51	C	0.253147	-0.293390	-0.294985
C52	C	0.753147	0.206610	0.205015
C53	C	0.249449	-0.383339	-0.385093
C54	C	0.749449	0.116661	0.114907
C55	C	0.320137	-0.383335	-0.385087
C56	C	0.820137	0.116665	0.114913
C57	C	0.357328	-0.338351	-0.340031
C58	C	0.857328	0.161649	0.159969
C59	C	0.433977	-0.338349	-0.340022
C60	C	0.933977	0.161651	0.159978
C61	C	0.495069	-0.338352	-0.340018
C62	C	0.995069	0.161648	0.159982
C63	C	0.956597	-0.520824	-0.347479
C64	C	1.456597	-0.020824	0.152521
C65	C	0.953415	-0.598890	-0.350696
C66	C	1.453415	-0.098890	0.149304
C67	C	0.995232	-0.635558	-0.308963
C68	C	1.495232	-0.135558	0.191037
C69	C	0.992244	-0.708909	-0.311992
C70	C	1.492244	-0.208909	0.188008
C71	C	0.947434	-0.745592	-0.356751
C72	C	1.447434	-0.245592	0.143249
C73	C	0.905616	-0.708919	-0.398489
C74	C	1.405616	-0.208919	0.101511
C75	C	0.908608	-0.635569	-0.395462
C76	C	1.408608	-0.135569	0.104538
C77	C	0.936236	-0.967062	-0.368055
C78	C	1.436236	-0.467062	0.131945
C79	C	0.933245	-1.040417	-0.371077
C80	C	1.433245	-0.540417	0.128923
C81	C	1.019874	-1.040402	-0.284581
C82	C	1.519874	-0.540402	0.215419
C83	C	1.022860	-0.967051	-0.281556
C84	C	1.522860	-0.467051	0.218444
C85	C	0.981044	-0.930384	-0.323296
C86	C	1.481044	-0.430384	0.176704
C87	C	0.944377	-0.820569	-0.359847
C88	C	1.444377	-0.320569	0.140153
C89	C	0.984105	-0.855409	-0.320203
C90	C	1.484105	-0.355409	0.179797
C91	C	1.140722	-0.338358	-0.340036
C92	C	1.640722	0.161642	0.159964
C93	C	1.215954	-0.338364	-0.340045
C94	C	1.715954	0.161636	0.159955
C95	C	0.964211	-0.338295	-0.516553
C96	C	1.464211	0.161705	-0.016553
C97	C	0.964225	-0.338274	-0.591785
C98	C	1.464225	0.161726	-0.091785
C99	C	0.971810	-0.155150	-0.332532
C100	C	1.471810	0.344850	0.167468
C101	C	0.975062	-0.077084	-0.329344
C102	C	1.475062	0.422916	0.170656
C103	C	0.922818	-0.293345	-0.625288
C104	C	1.422818	0.206655	-0.125288
C105	C	0.922828	-0.293332	-0.695976
C106	C	1.422828	0.206668	-0.195976
C107	C	0.964249	-0.338244	-0.733159
C108	C	1.464249	0.161756	-0.233159
C109	C	1.005657	-0.383178	-0.699651
C110	C	1.505657	0.116822	-0.199651
C111	C	1.005643	-0.383194	-0.628964
C112	C	1.505643	0.116806	-0.128964
C113	C	1.005713	-0.383112	-0.984721
C114	C	1.505713	0.116888	-0.484721
C115	C	1.005726	-0.383090	-1.055413
C116	C	1.505726	0.116910	-0.555413
C117	C	0.922898	-0.293249	-1.051733
C118	C	1.422898	0.206751	-0.551733
C119	C	0.922884	-0.293266	-0.981047
C120	C	1.422884	0.206734	-0.481047
C121	C	0.964290	-0.338202	-0.947545
C122	C	1.464290	0.161798	-0.447545
C123	C	0.964278	-0.338217	-0.870897
C124	C	1.464278	0.161783	-0.370897
C125	C	0.964265	-0.338226	-0.809805
C126	C	1.464265	0.161774	-0.309805
C127	C	0.964189	-0.338342	-0.164157
C128	C	1.464189	0.161658	0.335843
C129	C	0.964315	-0.338164	-0.088918
C130	C	1.464315	0.161836	0.411082
H131	H	0.354113	-0.256757	-0.258284
H132	H	0.854113	0.243243	0.241716
C133	C	1.087603	-0.471900	-0.995468
C134	C	1.587603	0.028100	-0.495468
C135	C	1.051238	-0.432493	-0.947902
C136	C	1.551238	0.067507	-0.447902
H137	H	1.115714	-0.502382	-0.972733
H138	H	1.615714	-0.002382	-0.472733
H139	H	1.057001	-0.498761	-1.024127
H140	H	1.557001	0.001239	-0.524127
H141	H	1.114764	-0.441282	-1.021796
H142	H	1.614764	0.058718	-0.521796
H143	H	1.024073	-0.463111	-0.921577
H144	H	1.524073	0.036889	-0.421577
H145	H	1.081844	-0.405630	-0.919231
H146	H	1.581844	0.094370	-0.419231
H147	H	0.347404	-0.419959	-0.421770
H148	H	0.847404	0.080041	0.078230
H149	H	0.889108	-0.256749	-0.723251
H150	H	1.389108	0.243251	-0.223251
H151	H	0.709883	-0.256732	-0.258261
H152	H	1.209883	0.243268	0.241739
H153	H	0.907892	-0.850443	-0.396289
H154	H	1.407892	-0.350443	0.103711
C155	C	1.042396	-0.423116	-0.522238
C156	C	1.542396	0.076884	-0.022238
C157	C	1.051158	-0.432581	-0.592133
C158	C	1.551158	0.067419	-0.092133
H159	H	1.070492	-0.453612	-0.499503
H160	H	1.570492	0.046388	0.000497
H161	H	1.054269	-0.375935	-0.508733
H162	H	1.554269	0.124065	-0.008733
H163	H	0.996486	-0.433393	-0.511077
H164	H	1.496486	0.066607	-0.011077
H165	H	1.097068	-0.422299	-0.603295
H166	H	1.597068	0.077701	-0.103295
H167	H	1.039290	-0.479772	-0.605644
H168	H	1.539290	0.020228	-0.105644
H169	H	1.039379	-0.419750	-0.729931
H170	H	1.539379	0.080250	-0.229931
C171	C	0.252896	-0.472254	-0.474167
C172	C	0.752896	0.027746	0.025833
C173	C	0.208567	-0.432780	-0.434630
C174	C	0.708567	0.067220	0.065370
H175	H	0.227657	-0.502778	-0.504745
H176	H	0.727657	-0.002778	-0.004745
H177	H	0.281747	-0.441686	-0.498848
H178	H	0.781747	0.058314	0.001152
H179	H	0.279340	-0.499079	-0.445721
H180	H	0.779340	0.000921	0.054279
H181	H	0.182127	-0.405951	-0.463076
H182	H	0.682127	0.094049	0.036924
H183	H	0.179705	-0.463352	-0.409947
H184	H	0.679705	0.036648	0.090053
C185	C	1.117273	-0.884483	-0.268835
C186	C	1.617273	-0.384483	0.231165
C187	C	1.072115	-0.926726	-0.232359
C188	C	1.572115	-0.426726	0.267641
H189	H	1.147675	-0.859584	-0.238459
H190	H	1.647675	-0.359584	0.261541
H191	H	1.141981	-0.913054	-0.299518
H192	H	1.641981	-0.413054	0.200482
H193	H	1.092785	-0.852153	-0.293256
H194	H	1.592785	-0.352153	0.206744
H195	H	1.096602	-0.959059	-0.207941
H196	H	1.596602	-0.459059	0.292059
H197	H	1.047404	-0.898152	-0.201663
H198	H	1.547404	-0.398152	0.298337
H199	H	0.889093	-0.256768	-0.595018
H200	H	1.389093	0.243232	-0.095018
H201	H	0.902186	-0.937214	-0.402040
H202	H	1.402186	-0.437214	0.097960
C203	C	0.822679	-0.642946	-0.481263
C204	C	1.322679	-0.142946	0.018737
C205	C	0.862643	-0.595261	-0.441337
C206	C	1.362643	-0.095261	0.058663
H207	H	0.794302	-0.618061	-0.509584
H208	H	1.294302	-0.118061	-0.009584
H209	H	0.850988	-0.671512	-0.508354
H210	H	1.350988	-0.171512	-0.008354
H211	H	0.795636	-0.671597	-0.452925
H212	H	1.295636	-0.171597	0.047075
H213	H	0.889690	-0.566613	-0.469676
H214	H	1.389690	-0.066613	0.030324
H215	H	0.834331	-0.566683	-0.414244
H216	H	1.334331	-0.066683	0.085756
H217	H	0.225878	-0.256763	-0.258298
H218	H	0.725878	0.243237	0.241702
C219	C	0.886087	-0.253400	-0.871056
C220	C	1.386087	0.246600	-0.371056
C221	C	0.877353	-0.243898	-0.940175
C222	C	1.377353	0.256102	-0.440175
H223	H	0.857978	-0.222920	-0.845826
H224	H	1.357978	0.277080	-0.345826
H225	H	0.874214	-0.300588	-0.861401
H226	H	1.374214	0.199412	-0.361401
H227	H	0.931991	-0.243125	-0.859064
H228	H	1.431991	0.256875	-0.359064
H229	H	0.831449	-0.254179	-0.952168
H230	H	1.331449	0.245821	-0.452168
H231	H	0.889222	-0.196700	-0.949834
H232	H	1.389222	0.303300	-0.449834
H233	H	1.053919	-1.070264	-0.250600
H234	H	1.553919	-0.570264	0.249400
H235	H	0.703165	-0.419943	-0.421738
H236	H	1.203165	0.080057	0.078262
C237	C	0.996917	-0.772981	-0.225771
C238	C	1.496917	-0.272981	0.274229
C239	C	1.033356	-0.815090	-0.271001
C240	C	1.533356	-0.315090	0.228999
H241	H	1.027322	-0.748090	-0.195392
H242	H	1.527322	-0.248090	0.304608
H243	H	0.972447	-0.740652	-0.250198
H244	H	1.472447	-0.240652	0.249802
H245	H	0.966276	-0.801648	-0.201039
H246	H	1.466276	-0.301648	0.298961
H247	H	1.063994	-0.786423	-0.295737
H248	H	1.563994	-0.286423	0.204263
H249	H	1.057838	-0.847423	-0.246571
H250	H	1.557838	-0.347423	0.253429
H251	H	1.039457	-0.419666	-1.085685
H252	H	1.539457	0.080334	-0.585685
C253	C	0.608655	-0.472253	-0.474114
C254	C	1.108655	0.027747	0.025886
C255	C	0.564328	-0.432771	-0.434582
C256	C	1.064328	0.067229	0.065418
H257	H	0.583414	-0.502788	-0.504681
H258	H	1.083414	-0.002788	-0.004681
H259	H	0.637499	-0.441690	-0.498808
H260	H	1.137499	0.058310	0.001192
H261	H	0.635105	-0.499066	-0.445663
H262	H	1.135105	0.000934	0.054337
H263	H	0.537881	-0.405954	-0.463032
H264	H	1.037881	0.094046	0.036968
H265	H	0.535472	-0.463338	-0.409886
H266	H	1.035472	0.036662	0.090114
C267	C	0.529797	-0.283485	-0.203526
C268	C	1.029797	0.216515	0.296474
C269	C	0.572097	-0.243928	-0.245434
C270	C	1.072097	0.256072	0.254566
H271	H	0.507072	-0.252964	-0.172952
H272	H	1.007072	0.247036	0.327048
H273	H	0.497532	-0.310267	-0.230361
H274	H	0.997532	0.189733	0.269639
H275	H	0.556101	-0.314045	-0.178836
H276	H	1.056101	0.185955	0.321164
H277	H	0.545792	-0.213372	-0.270128
H278	H	1.045792	0.286628	0.229872
H279	H	0.604365	-0.217134	-0.218596
H280	H	1.104365	0.282866	0.281404
C281	C	1.080563	-0.642919	-0.223773
C282	C	1.580563	-0.142919	0.276227
C283	C	1.044488	-0.595240	-0.259761
C284	C	1.544488	-0.095240	0.240239
H285	H	1.110975	-0.618028	-0.193402
H286	H	1.610975	-0.118028	0.306598
H287	H	1.049920	-0.671570	-0.199039
H288	H	1.549920	-0.171570	0.300961
H289	H	1.105267	-0.671485	-0.254475
H290	H	1.605267	-0.171485	0.245525
H291	H	1.019780	-0.566677	-0.229060
H292	H	1.519780	-0.066677	0.270940
H293	H	1.075135	-0.566577	-0.284496
H294	H	1.575135	-0.066577	0.215504
C295	C	0.847926	-1.033067	-0.456289
C296	C	1.347926	-0.533067	0.043711
C297	C	0.883994	-1.080740	-0.420287
C298	C	1.383994	-0.580740	0.079713
H299	H	0.817526	-1.057963	-0.486670
H300	H	1.317526	-0.557963	0.013330
H301	H	0.823214	-1.004503	-0.425602
H302	H	1.323214	-0.504503	0.074398
H303	H	0.878578	-1.004413	-0.481020
H304	H	1.378578	-0.504413	0.018980
H305	H	0.853342	-1.109391	-0.395552
H306	H	1.353342	-0.609391	0.104448
H307	H	0.908706	-1.109316	-0.450978
H308	H	1.408706	-0.609316	0.049022
C309	C	0.886125	-0.253333	-1.158457
C310	C	1.386125	0.246667	-0.658457
C311	C	0.877374	-0.243862	-1.088561
C312	C	1.377374	0.256138	-0.588561
H313	H	0.858018	-0.222846	-1.181191
H314	H	1.358018	0.277154	-0.681191
H315	H	0.932026	-0.243053	-1.169627
H316	H	1.432026	0.256947	-0.669627
H317	H	0.874254	-0.300522	-1.171958
H318	H	1.374254	0.199478	-0.671958
H319	H	0.889250	-0.196674	-1.075060
H320	H	1.389250	0.303326	-0.575060
H321	H	0.831463	-0.254137	-1.077386
H322	H	1.331463	0.245863	-0.577386
H323	H	1.026295	-0.738761	-0.278008
H324	H	1.526295	-0.238761	0.221992
C325	C	0.862558	-0.821364	-0.441528
C326	C	1.362558	-0.321364	0.058472
C327	C	0.856358	-0.749239	-0.447687
C328	C	1.356358	-0.249239	0.052313
H329	H	0.832142	-0.846253	-0.471899
H330	H	1.332142	-0.346253	0.028101
H331	H	0.907534	-0.833337	-0.451973
H332	H	1.407534	-0.333337	0.048027
H333	H	0.852189	-0.833417	-0.396536
H334	H	1.352189	-0.333417	0.103464
H335	H	0.866732	-0.737185	-0.492678
H336	H	1.366732	-0.237185	0.007322
H337	H	0.811372	-0.737260	-0.437247
H338	H	1.311372	-0.237260	0.062753
