data_functionalizedCrystal
_audit_creation_method	'MofGen! by Chris Wilmer'
_symmetry_space_group_name_H-M	'P1'
_symmetry_Int_Tables_number	1
_symmetry_cell_setting	triclinic
loop_
_symmetry_equiv_pos_as_xyz
  x,y,z
_cell_length_a	19.188905
_cell_length_b	17.666332
_cell_length_c	14.044190
_cell_angle_alpha	89.985524
_cell_angle_beta	88.163166
_cell_angle_gamma	90.001515
loop_
_atom_site_label
_atom_site_type_symbol
_atom_site_fract_x
_atom_site_fract_y
_atom_site_fract_z
O1	O	0.933772	-0.063083	0.118202
O2	O	0.731488	-0.063058	0.134153
O3	O	0.829591	-0.063055	-0.011794
O4	O	0.835669	-0.063085	0.264149
O5	O	0.829608	0.062842	-0.011814
O6	O	0.731505	0.062839	0.134134
O7	O	0.933789	0.062814	0.118183
Cu8	Cu	0.832649	0.074322	0.126156
Cu9	Cu	0.832628	-0.074566	0.126179
O10	O	0.835686	0.062811	0.264130
C11	C	0.705452	-0.000106	0.133631
C12	C	0.627847	-0.000096	0.132092
C13	C	0.591398	-0.068724	0.131363
C14	C	0.518481	-0.068734	0.129907
C15	C	0.482015	-0.000111	0.129160
C16	C	0.518473	0.068527	0.129894
C17	C	0.591389	0.068534	0.131360
N18	N	0.369373	0.050965	0.072924
N19	N	0.300106	0.050953	0.071529
C20	C	0.262324	-0.000128	0.124746
N21	N	0.296426	-0.051210	0.179397
N22	N	0.365700	-0.051200	0.180788
C23	C	0.402950	-0.000111	0.127571
C24	C	0.146809	-0.068771	0.122439
C25	C	0.073890	-0.068778	0.120989
C26	C	0.073884	0.068484	0.120966
C27	C	0.146802	0.068489	0.122426
C28	C	0.183260	-0.000141	0.123158
N29	N	0.832614	-0.179285	0.126188
C30	C	0.878450	-0.218911	0.183627
C31	C	0.878455	-0.298159	0.183627
C32	C	0.832630	-0.337777	0.126172
C33	C	0.786785	-0.298142	0.068731
C34	C	0.786776	-0.218895	0.068738
N35	N	0.825716	-0.462180	0.043126
N36	N	0.825727	-0.537461	0.043121
C37	C	0.832651	-0.576541	0.126147
N38	N	0.839575	-0.537497	0.209178
N39	N	0.839567	-0.462210	0.209182
C40	C	0.832633	-0.423706	0.126158
C41	C	0.878495	-0.702097	0.183591
C42	C	0.878495	-0.781346	0.183594
C43	C	0.786828	-0.781327	0.068688
C44	C	0.786824	-0.702079	0.068694
C45	C	0.832662	-0.662469	0.126144
C46	C	0.959825	-0.000139	0.118705
C47	C	1.037430	-0.000154	0.120244
C48	C	0.826941	-0.000104	-0.047107
C49	C	0.819010	-0.000096	-0.152299
N50	N	0.832668	0.179041	0.126140
C51	C	0.860758	-0.000131	-0.402764
C52	C	0.804522	-0.000119	-0.344895
C53	C	0.812585	-0.000107	-0.237725
C54	C	0.852696	-0.000144	-0.509944
C55	C	0.838336	-0.000141	0.299443
C56	C	0.846267	-0.000154	0.404635
H57	H	0.044195	0.124358	0.120364
H58	H	0.749512	-0.813583	0.021913
C59	C	0.139470	0.204161	0.122246
C60	C	0.186872	0.143928	0.123212
H61	H	0.164209	0.250735	0.122727
H62	H	0.109143	0.201300	0.176921
H63	H	0.112918	0.201302	0.066423
H64	H	0.213420	0.146784	0.179039
H65	H	0.217211	0.146791	0.068532
C66	C	0.941974	-0.064834	-0.304810
C67	C	0.933923	-0.000125	-0.360994
H68	H	0.987141	-0.064824	-0.279010
H69	H	0.936506	-0.108734	-0.342879
H70	H	0.907741	-0.064819	-0.254426
H71	H	0.968153	-0.000142	-0.411381
H72	H	0.939398	0.043787	-0.322922
H73	H	0.749502	-0.669815	0.021917
H74	H	0.915780	-0.330429	0.230405
C75	C	0.584074	-0.204401	0.131233
C76	C	0.631472	-0.144162	0.132177
H77	H	0.608817	-0.250972	0.131742
H78	H	0.557527	-0.201541	0.075415
H79	H	0.553742	-0.201550	0.185912
H80	H	0.661801	-0.147010	0.077494
H81	H	0.658031	-0.147023	0.188001
H82	H	0.915774	-0.186665	0.230408
C83	C	0.969100	-0.710072	0.297174
C84	C	0.928871	-0.658551	0.246747
H85	H	1.000197	-0.683188	0.336167
H86	H	0.995047	-0.740966	0.253528
H87	H	0.939336	-0.740994	0.336040
H88	H	0.958635	-0.627632	0.207875
H89	H	0.902922	-0.627643	0.290399
C90	C	0.692564	-0.387277	0.062885
C91	C	0.736412	-0.341687	0.005575
H92	H	0.661467	-0.414162	0.023894
H93	H	0.666617	-0.356378	0.106527
H94	H	0.719873	-0.422218	0.097089
H95	H	0.709104	-0.306742	-0.028624
H96	H	0.762361	-0.372589	-0.038084
H97	H	0.915819	-0.813608	0.230373
C98	C	0.737420	-0.000120	-0.486284
C99	C	0.731351	-0.000111	-0.386661
H100	H	0.692248	-0.000108	-0.512069
H101	H	0.762047	-0.044028	-0.507152
H102	H	0.762071	0.043779	-0.507192
H103	H	0.706704	-0.044013	-0.365751
H104	H	0.706713	0.043801	-0.365784
H105	H	0.488798	-0.124621	0.129315
H106	H	0.749449	-0.186632	0.021964
H107	H	0.621065	0.124421	0.131954
C108	C	0.439262	0.148157	0.046776
C109	C	0.478395	0.143960	0.129068
H110	H	0.414524	0.194730	0.046268
H111	H	0.407118	0.107287	0.046142
H112	H	0.469607	0.145311	-0.007891
H113	H	0.448049	0.146800	0.183735
H114	H	0.510543	0.184840	0.129711
C115	C	0.166490	-0.185762	0.204369
C116	C	0.186893	-0.144204	0.123265
H117	H	0.191239	-0.232328	0.204882
H118	H	0.117854	-0.195590	0.203387
H119	H	0.176551	-0.157554	0.259842
H120	H	0.176828	-0.172410	0.067792
H121	H	0.235541	-0.134378	0.124238
C122	C	-0.010881	-0.148434	0.200798
C123	C	0.033824	-0.144222	0.120192
H124	H	-0.035612	-0.195013	0.200307
H125	H	-0.043030	-0.107572	0.200146
H126	H	0.015685	-0.145586	0.256609
H127	H	0.007257	-0.147064	0.064381
H128	H	0.065977	-0.185095	0.120836
