data_functionalizedCrystal
_audit_creation_method	'MofGen! by Chris Wilmer'
_symmetry_space_group_name_H-M	'P1'
_symmetry_Int_Tables_number	1
_symmetry_cell_setting	triclinic
loop_
_symmetry_equiv_pos_as_xyz
  x,y,z
_cell_length_a	8.634740
_cell_length_b	16.776229
_cell_length_c	17.699083
_cell_angle_alpha	89.995692
_cell_angle_beta	91.926661
_cell_angle_gamma	89.993544
loop_
_atom_site_label
_atom_site_type_symbol
_atom_site_fract_x
_atom_site_fract_y
_atom_site_fract_z
O1	O	-2.045140	0.066314	-0.246696
O2	O	-1.596265	0.066310	-0.226010
O3	O	-1.833384	0.066305	-0.127100
O4	O	-1.808021	0.066319	-0.345606
O5	O	-1.833358	-0.066271	-0.127098
O6	O	-1.596239	-0.066266	-0.226007
O7	O	-2.045113	-0.066263	-0.246694
Zn8	Zn	-1.820671	-0.087314	-0.236350
Zn9	Zn	-1.820707	0.087361	-0.236353
O10	O	-1.807994	-0.066258	-0.345604
C11	C	-1.538819	0.000021	-0.221322
C12	C	-1.367688	0.000020	-0.207349
N13	N	-1.820659	-0.206525	-0.236349
C14	C	-1.913976	-0.248235	-0.289087
C15	C	-1.913993	-0.331687	-0.289085
C16	C	-1.820684	-0.373428	-0.236348
C17	C	-1.727362	-0.331712	-0.183605
C18	C	-1.727354	-0.248262	-0.183603
C19	C	-1.727393	-0.668260	-0.183608
C20	C	-1.727405	-0.751716	-0.183615
C21	C	-1.914032	-0.751685	-0.289089
C22	C	-1.914024	-0.668234	-0.289088
C23	C	-1.820710	-0.626526	-0.236343
C24	C	-1.820695	-0.536038	-0.236344
C25	C	-1.820690	-0.463915	-0.236350
C26	C	-1.102559	0.000025	-0.251381
C27	C	-1.273690	0.000024	-0.265354
C28	C	-1.832462	0.000017	-0.098835
C29	C	-1.829736	0.000016	-0.014615
N30	N	-1.820732	0.206573	-0.236350
C31	C	-1.808916	0.000032	-0.373869
C32	C	-1.811643	0.000038	-0.458088
C33	C	-1.968919	0.000016	0.023730
C34	C	-1.966348	0.000023	0.102863
C35	C	-1.824592	0.000025	0.143649
C36	C	-1.685397	0.000027	0.105299
C37	C	-1.687970	0.000026	0.026167
C38	C	-1.675019	0.000033	0.424428
C39	C	-1.672457	0.000032	0.503565
C40	C	-1.953398	0.000031	0.501124
C41	C	-1.955970	0.000030	0.421992
C42	C	-1.816777	0.000036	0.383648
C43	C	-1.819566	0.000030	0.297843
C44	C	-1.821801	0.000025	0.229453
H45	H	-1.317244	0.000036	-0.147000
H46	H	-1.324141	0.000023	-0.325708
H47	H	-2.084354	0.000010	-0.009473
N48	N	-1.532497	0.000023	0.149283
H49	H	-1.471541	0.049169	0.136042
H50	H	-1.552109	-0.000010	0.205217
H51	H	-1.990001	-0.634253	-0.332034
N52	N	-1.626779	-0.796741	-0.126725
H53	H	-1.514557	-0.782228	-0.133426
H54	H	-1.657551	-0.782204	-0.073927
N55	N	-2.014612	-0.203217	-0.345971
H56	H	-2.073733	-0.242307	-0.379378
H57	H	-2.090094	-0.168589	-0.318496
H58	H	-1.990018	-0.785654	-0.332036
H59	H	-1.989985	-0.365644	-0.332028
N60	N	-1.626753	-0.623280	-0.126721
H61	H	-1.567641	-0.662388	-0.093316
H62	H	-1.551261	-0.588657	-0.154190
H63	H	-2.079686	0.000021	0.134080
H64	H	-1.651396	-0.365704	-0.140662
H65	H	-1.651365	-0.214303	-0.140659
H66	H	-2.066736	0.000030	0.532353
N67	N	-2.108863	0.000022	0.378001
H68	H	-2.196648	0.000024	0.414301
H69	H	-2.116058	0.049169	0.345111
N70	N	-1.537852	0.000031	-0.015195
H71	H	-1.447658	0.000031	0.022649
H72	H	-1.532784	-0.049116	-0.047972
H73	H	-1.557015	0.000032	0.536771
H74	H	-1.561679	0.000039	0.393218
