data_functionalizedCrystal
_audit_creation_method	'MofGen! by Chris Wilmer'
_symmetry_space_group_name_H-M	'P1'
_symmetry_Int_Tables_number	1
_symmetry_cell_setting	triclinic
loop_
_symmetry_equiv_pos_as_xyz
  x,y,z
_cell_length_a	15.624803
_cell_length_b	15.538191
_cell_length_c	14.048226
_cell_angle_alpha	89.996115
_cell_angle_beta	71.907567
_cell_angle_gamma	66.736403
loop_
_atom_site_label
_atom_site_type_symbol
_atom_site_fract_x
_atom_site_fract_y
_atom_site_fract_z
O1	O	1.156123	0.122867	-0.478341
O2	O	0.888823	0.137528	-0.386048
O3	O	1.074505	-0.006867	-0.450165
O4	O	0.970441	0.267262	-0.414224
O5	O	1.074491	-0.006876	-0.291839
O6	O	0.888809	0.137519	-0.227722
O7	O	1.156109	0.122858	-0.320015
Zn8	Zn	1.022457	0.130187	-0.248731
Zn9	Zn	1.022475	0.130199	-0.457332
O10	O	0.970427	0.267253	-0.255898
C11	C	0.855441	0.136862	-0.295361
C12	C	0.755999	0.134879	-0.261026
C13	C	0.429095	0.128331	-0.579722
C14	C	0.335663	0.126450	-0.547460
C15	C	0.335625	0.126440	-0.374852
C16	C	0.429062	0.128317	-0.407100
C17	C	0.475789	0.129263	-0.509536
C18	C	0.475755	0.129249	-0.336913
C19	C	0.569181	0.131130	-0.369158
C20	C	0.615914	0.132080	-0.471590
C21	C	0.569215	0.131145	-0.541781
C22	C	0.429023	0.128309	-0.234477
C23	C	0.475716	0.129241	-0.164290
C24	C	0.569147	0.131116	-0.196536
C25	C	0.615880	0.132066	-0.298967
C26	C	0.615846	0.132051	-0.126345
C27	C	0.709272	0.133933	-0.158590
C28	C	0.709306	0.133947	-0.331213
C29	C	1.085386	-0.041953	-0.374764
C30	C	1.117817	-0.146487	-0.385972
C31	C	0.795620	-0.434679	-0.274703
C32	C	0.826117	-0.532907	-0.285231
C33	C	0.997655	-0.555136	-0.344460
C34	C	0.967173	-0.456908	-0.333942
C35	C	0.866154	-0.396687	-0.299062
C36	C	1.037706	-0.418916	-0.358300
C37	C	1.007226	-0.320697	-0.347778
C38	C	0.906212	-0.260469	-0.312897
C39	C	0.835673	-0.298468	-0.288539
C40	C	1.138724	-0.479139	-0.393173
C41	C	1.209258	-0.441146	-0.417532
C42	C	1.178778	-0.342925	-0.407017
C43	C	1.077764	-0.282698	-0.372135
C44	C	1.249316	-0.304927	-0.431374
C45	C	1.218836	-0.206708	-0.420852
C46	C	1.047283	-0.184479	-0.361613
C47	C	1.189490	0.123524	-0.410704
C48	C	1.288932	0.125507	-0.445045
C49	C	0.959546	0.302339	-0.331301
C50	C	0.927114	0.406873	-0.320100
N51	N	1.022451	0.130179	-0.106368
N52	N	1.022490	0.130199	-0.599698
C53	C	1.104681	0.066268	-0.084945
C54	C	1.104688	0.066267	0.014711
C55	C	1.022465	0.130183	0.092940
C56	C	0.940227	0.194098	0.071513
C57	C	0.940219	0.194093	-0.028140
C58	C	0.940251	0.194105	0.279219
C59	C	0.940260	0.194111	0.378878
C60	C	1.104720	0.066279	0.322070
C61	C	1.104712	0.066274	0.222417
C62	C	1.022474	0.130190	0.200996
H63	H	0.747355	0.134715	-0.414627
H64	H	0.873282	0.246149	0.261785
F65	F	0.285970	0.125461	-0.622170
F66	F	1.105163	-0.619237	-0.381573
H67	H	0.768672	-0.563835	-0.265378
H68	H	0.753414	-0.249432	-0.260143
F69	F	0.873771	-0.155934	-0.301689
F70	F	1.171163	-0.583673	-0.404366
F71	F	1.192199	-0.001758	-0.168196
F72	F	1.316766	-0.505247	-0.454646
F73	F	0.852746	0.262139	0.462131
H74	H	0.873277	0.246137	0.135215
F75	F	1.192206	-0.001756	0.037511
F76	F	1.356824	-0.369030	-0.468479
H77	H	1.171666	0.014233	0.158720
H78	H	0.965024	-0.135443	-0.333217
H79	H	0.577782	0.131290	-0.042940
F80	F	0.852696	0.262114	-0.050937
H81	H	0.297566	0.125672	-0.291447
H82	H	1.171680	0.014236	0.339516
F83	F	0.758969	0.134927	-0.083890
H84	H	0.607264	0.131912	-0.625195
F85	F	0.478836	0.129327	-0.688749
F86	F	0.715345	0.134087	-0.505908
H87	H	0.713361	-0.385643	-0.246307
F88	F	1.293905	-0.166271	-0.446763
H89	H	0.437657	0.128474	-0.080886
F90	F	0.329587	0.126312	-0.200160
