data_functionalizedCrystal
_audit_creation_method	'MofGen! by Chris Wilmer'
_symmetry_space_group_name_H-M	'P1'
_symmetry_Int_Tables_number	1
_symmetry_cell_setting	triclinic
loop_
_symmetry_equiv_pos_as_xyz
  x,y,z
_cell_length_a	11.026660
_cell_length_b	11.026607
_cell_length_c	9.730223
_cell_angle_alpha	89.997552
_cell_angle_beta	89.997248
_cell_angle_gamma	108.585426
loop_
_atom_site_label
_atom_site_type_symbol
_atom_site_fract_x
_atom_site_fract_y
_atom_site_fract_z
O1	O	1.726717	0.533604	-0.114291
O2	O	1.360140	0.472844	-0.114292
O3	O	1.513047	0.319934	-0.114287
O4	O	1.573810	0.686514	-0.114297
O5	O	1.513033	0.319927	0.114293
O6	O	1.360126	0.472836	0.114288
O7	O	1.726703	0.533596	0.114289
Zn8	Zn	1.543412	0.503215	0.150580
Zn9	Zn	1.543430	0.503225	-0.150584
O10	O	1.573796	0.686506	0.114283
C11	C	1.312474	0.461631	-0.000002
C12	C	1.170461	0.428216	-0.000003
C13	C	1.501830	0.272271	0.000002
C14	C	1.468414	0.130257	-0.000003
C15	C	0.970035	0.485957	-0.000009
C16	C	1.116813	0.520496	-0.000007
C17	C	1.560682	0.076607	-0.000005
C18	C	1.526147	-0.070171	-0.000010
C19	C	1.774369	0.544809	-0.000004
C20	C	1.916382	0.578225	-0.000012
C21	C	1.585013	0.734169	-0.000008
C22	C	1.618429	0.876183	-0.000012
N23	N	1.543409	0.503209	0.356117
N24	N	1.543441	0.503223	-0.356120
C25	C	1.611154	0.435543	0.428045
C26	C	1.611166	0.435546	0.571928
C27	C	1.475689	0.570891	0.571942
C28	C	1.475669	0.570880	0.428061
H29	H	0.907305	0.381394	0.000014
C30	C	1.685657	0.361091	0.348911
N31	N	1.741770	0.305006	0.289311
C32	C	1.085729	0.286944	-0.000002
N33	N	1.021907	0.180540	-0.000004
H34	H	1.722999	-0.061091	-0.000115
C35	C	1.327151	0.045515	-0.000002
N36	N	1.220749	-0.018312	0.000003
C37	C	1.401212	0.645392	0.348935
N38	N	1.345157	0.701536	0.289338
C39	C	1.401176	0.645323	0.651094
N40	N	1.345051	0.701385	0.710710
C41	C	1.384878	-0.154910	-0.000009
N42	N	1.278476	-0.218736	-0.000004
H43	H	1.179538	0.625067	-0.000001
C44	C	1.701945	0.161350	0.000006
N45	N	1.808347	0.225176	0.000019
C46	C	1.001121	0.719489	-0.000013
N47	N	1.064945	0.825892	-0.000016
H48	H	1.666328	0.380445	0.630488
