data_functionalizedCrystal
_audit_creation_method	'MofGen! by Chris Wilmer'
_symmetry_space_group_name_H-M	'P1'
_symmetry_Int_Tables_number	1
_symmetry_cell_setting	triclinic
loop_
_symmetry_equiv_pos_as_xyz
  x,y,z
_cell_length_a	12.759401
_cell_length_b	12.827892
_cell_length_c	12.759393
_cell_angle_alpha	89.970854
_cell_angle_beta	89.980804
_cell_angle_gamma	90.015818
loop_
_atom_site_label
_atom_site_type_symbol
_atom_site_fract_x
_atom_site_fract_y
_atom_site_fract_z
Zn1	Zn	1.606256	-0.415977	-0.593990
Zn2	Zn	1.606147	-0.590753	-0.418312
Zn3	Zn	1.430557	-0.416027	-0.418329
Zn4	Zn	1.430545	-0.590678	-0.593953
O5	O	1.518376	-0.503359	-0.506146
O6	O	1.753263	-0.439172	-0.570694
O7	O	1.582813	-0.567627	-0.271293
O8	O	1.453914	-0.269785	-0.441653
O9	O	1.753182	-0.567578	-0.441625
O10	O	1.583000	-0.269748	-0.570710
O11	O	1.453808	-0.439257	-0.271306
O12	O	1.283534	-0.439185	-0.441618
O13	O	1.453894	-0.567451	-0.740979
O14	O	1.283525	-0.567500	-0.570648
O15	O	1.582989	-0.439099	-0.741006
O16	O	1.582802	-0.736979	-0.441589
O17	O	1.453788	-0.736924	-0.570632
C18	C	1.245409	-0.503341	-0.506131
C19	C	1.128632	-0.503358	-0.506150
C20	C	1.073813	-0.436618	-0.573460
C21	C	0.964089	-0.436628	-0.573467
C22	C	0.964013	-0.570129	-0.438851
C23	C	1.073735	-0.570112	-0.438839
C24	C	0.814170	-0.313453	-0.611234
C25	C	0.759347	-0.246721	-0.678560
C26	C	0.795005	-0.230795	-0.781099
C27	C	0.885484	-0.281616	-0.816331
C28	C	0.940302	-0.348355	-0.749010
C29	C	0.904645	-0.364261	-0.646457
C30	C	1.223655	-0.693290	-0.401083
C31	C	1.278475	-0.760035	-0.333767
C32	C	1.242819	-0.775972	-0.231227
C33	C	1.152337	-0.725169	-0.195998
C34	C	1.097517	-0.658424	-0.263314
C35	C	1.133180	-0.642486	-0.365853
C36	C	1.518310	-0.774869	-0.506128
C37	C	1.518378	-0.891022	-0.506155
C38	C	1.582294	-0.942799	-0.442371
C39	C	1.582366	-1.062849	-0.442398
C40	C	1.792409	-0.503378	-0.506162
C41	C	1.909186	-0.503386	-0.506168
C42	C	1.518452	-0.503262	-0.780180
C43	C	1.518485	-0.503220	-0.896956
C44	C	1.518471	-0.230789	-0.506188
C45	C	1.518511	-0.114636	-0.506205
C46	C	1.585686	-0.569985	-1.061547
C47	C	1.585660	-0.570034	-0.951823
C48	C	1.451323	-0.436360	-0.951819
C49	C	1.451344	-0.436317	-1.061541
C50	C	1.623125	-0.693340	-0.801864
C51	C	1.690296	-0.760188	-0.747006
C52	C	1.792811	-0.776227	-0.782629
C53	C	1.828176	-0.725402	-0.873110
C54	C	1.761011	-0.658547	-0.927964
C55	C	1.658481	-0.642528	-0.892341
C56	C	1.413890	-0.313009	-1.211502
C57	C	1.346730	-0.246147	-1.266357
C58	C	1.244213	-0.230098	-1.230736
C59	C	1.208851	-0.280904	-1.140251
C60	C	1.276012	-0.347766	-1.085396
C61	C	1.378528	-0.363817	-1.121025
C62	C	1.518361	-0.503380	-0.233179
C63	C	1.518532	-0.503127	-0.116403
H64	H	1.118507	-0.382259	-0.628265
O65	O	1.654850	-1.121825	-0.370058
H66	H	1.701609	-1.065623	-0.323308
O67	O	0.904799	-0.642125	-0.366256
H68	H	0.925862	-0.724161	-0.384121
H69	H	1.463783	-1.070116	-0.560812
O70	O	1.658145	-0.642050	-1.120716
H71	H	1.646888	-0.630783	-1.206229
H72	H	1.636967	-0.898253	-0.387747
H73	H	1.497373	-0.326063	-1.240508
H74	H	1.463715	-0.935570	-0.560786
O75	O	1.799137	-0.603731	-1.025550
H76	H	1.881709	-0.626114	-1.041110
O77	O	1.938758	-0.742682	-0.911524
H78	H	1.979520	-0.797712	-0.858183
H79	H	1.013972	-0.389727	-0.777694
H80	H	1.125379	-0.267822	-1.111237
O81	O	1.865263	-0.848328	-0.723467
H82	H	1.823449	-0.880976	-0.654572
O83	O	1.652158	-0.815012	-0.649421
H84	H	1.569578	-0.792646	-0.633873
O85	O	0.661769	-0.191903	-0.640555
H86	H	0.629634	-0.142833	-0.704602
O87	O	1.171781	-0.157969	-1.289897
H88	H	1.094556	-0.155344	-1.249916
O89	O	1.378867	-0.364296	-0.892645
H90	H	1.396918	-0.282275	-0.913727
H91	H	1.247211	-0.389136	-1.011719
O92	O	1.512549	-0.676040	-0.763443
H93	H	1.499255	-0.722597	-0.691304
H94	H	1.375534	-0.204771	-1.340030
O95	O	0.775722	-0.330618	-0.500628
H96	H	0.703593	-0.284079	-0.487450
O97	O	0.923945	-0.264443	-0.926932
H98	H	0.870632	-0.209491	-0.967822
O99	O	0.735887	-0.158813	-0.853716
H100	H	0.666988	-0.126147	-0.811990
H101	H	1.023841	-0.617059	-0.234622
H102	H	1.123301	-0.738151	-0.112503
H103	H	1.287443	-0.830351	-0.176430
H104	H	1.252701	-0.680311	-0.484577
O105	O	1.376072	-0.814831	-0.371755
H106	H	1.391670	-0.792525	-0.454363
