data_functionalizedCrystal
_audit_creation_method	'MofGen! by Chris Wilmer'
_symmetry_space_group_name_H-M	'P1'
_symmetry_Int_Tables_number	1
_symmetry_cell_setting	triclinic
loop_
_symmetry_equiv_pos_as_xyz
  x,y,z
_cell_length_a	19.188930
_cell_length_b	19.188930
_cell_length_c	18.266242
_cell_angle_alpha	90.022918
_cell_angle_beta	89.988525
_cell_angle_gamma	96.855221
loop_
_atom_site_label
_atom_site_type_symbol
_atom_site_fract_x
_atom_site_fract_y
_atom_site_fract_z
O1	O	0.087169	-0.926149	-0.061124
O2	O	0.337169	-0.676149	0.188876
O3	O	0.587169	-0.426149	0.438876
O4	O	0.837169	-0.176149	0.688876
O5	O	0.098903	-0.722838	-0.061075
O6	O	0.348903	-0.472838	0.188925
O7	O	0.598903	-0.222838	0.438925
O8	O	0.848903	0.027162	0.688925
O9	O	-0.008620	-0.830361	-0.061087
O10	O	0.241380	-0.580361	0.188913
O11	O	0.491380	-0.330361	0.438913
O12	O	0.741380	-0.080361	0.688913
O13	O	0.194691	-0.818627	-0.061113
O14	O	0.444691	-0.568627	0.188887
O15	O	0.694691	-0.318627	0.438887
O16	O	0.944691	-0.068627	0.688887
O17	O	-0.008625	-0.830343	0.060675
O18	O	0.241375	-0.580343	0.310675
O19	O	0.491375	-0.330343	0.560675
O20	O	0.741375	-0.080343	0.810675
O21	O	0.098897	-0.722820	0.060687
O22	O	0.348897	-0.472820	0.310687
O23	O	0.598897	-0.222820	0.560687
O24	O	0.848897	0.027180	0.810687
O25	O	0.087163	-0.926131	0.060638
O26	O	0.337163	-0.676131	0.310638
O27	O	0.587163	-0.426131	0.560638
O28	O	0.837163	-0.176131	0.810638
Zn29	Zn	0.093029	-0.824473	0.079994
Zn30	Zn	0.343029	-0.574473	0.329994
Zn31	Zn	0.593029	-0.324473	0.579994
Zn32	Zn	0.843029	-0.074473	0.829994
Zn33	Zn	0.093037	-0.824497	-0.080432
Zn34	Zn	0.343037	-0.574497	0.169568
Zn35	Zn	0.593037	-0.324497	0.419568
Zn36	Zn	0.843037	-0.074497	0.669568
O37	O	0.194686	-0.818608	0.060649
O38	O	0.444686	-0.568608	0.310649
O39	O	0.694686	-0.318608	0.560649
O40	O	0.944686	-0.068608	0.810649
C41	C	0.098520	-0.696818	-0.000188
C42	C	0.348520	-0.446818	0.249812
C43	C	0.598520	-0.196818	0.499812
C44	C	0.848520	0.053182	0.749812
C45	C	0.097380	-0.619313	-0.000169
C46	C	0.347380	-0.369313	0.249831
C47	C	0.597380	-0.119313	0.499831
C48	C	0.847380	0.130687	0.749831
N49	N	0.093024	-0.824461	0.189481
N50	N	0.343024	-0.574461	0.439481
N51	N	0.593024	-0.324461	0.689481
N52	N	0.843024	-0.074461	0.939481
C53	C	-0.034634	-0.829972	-0.000204
C54	C	0.215366	-0.579972	0.249796
C55	C	0.465366	-0.329972	0.499796
C56	C	0.715366	-0.079972	0.749796
C57	C	-0.112138	-0.828831	-0.000197
C58	C	0.137862	-0.578831	0.249803
C59	C	0.387862	-0.328831	0.499803
C60	C	0.637862	-0.078831	0.749803
C61	C	-0.157062	-0.891922	-0.000209
C62	C	0.092938	-0.641922	0.249791
C63	C	0.342938	-0.391922	0.499791
C64	C	0.592938	-0.141922	0.749791
C65	C	-0.229886	-0.890850	-0.000220
C66	C	0.020114	-0.640850	0.249780
C67	C	0.270114	-0.390850	0.499780
C68	C	0.520114	-0.140850	0.749780
C69	C	-0.257782	-0.826684	-0.000206
C70	C	-0.007782	-0.576684	0.249794
C71	C	0.242218	-0.326684	0.499794
C72	C	0.492218	-0.076684	0.749794
C73	C	-0.212849	-0.763585	-0.000198
C74	C	0.037151	-0.513585	0.249802
C75	C	0.287151	-0.263585	0.499802
C76	C	0.537151	-0.013585	0.749802
C77	C	-0.140026	-0.764658	-0.000194
C78	C	0.109974	-0.514658	0.249806
C79	C	0.359974	-0.264658	0.499806
C80	C	0.609974	-0.014658	0.749806
N81	N	-0.365789	-0.777631	0.041244
N82	N	-0.115789	-0.527631	0.291244
N83	N	0.134211	-0.277631	0.541244
N84	N	0.384211	-0.027631	0.791244
N85	N	-0.434968	-0.776615	0.041242
N86	N	-0.184968	-0.526615	0.291242
N87	N	0.065032	-0.276615	0.541242
N88	N	0.315032	-0.026615	0.791242
C89	C	-0.477191	-0.823446	-0.000220
C90	C	-0.227191	-0.573446	0.249780
C91	C	0.022809	-0.323446	0.499780
C92	C	0.272809	-0.073446	0.749780
N93	N	-0.447624	-0.871341	-0.041669
N94	N	-0.197624	-0.621341	0.208331
N95	N	0.052376	-0.371341	0.458331
N96	N	0.302376	-0.121341	0.708331
N97	N	-0.378439	-0.872359	-0.041664
N98	N	-0.128439	-0.622359	0.208336
N99	N	0.121561	-0.372359	0.458336
N100	N	0.371561	-0.122359	0.708336
C101	C	-0.336745	-0.825513	-0.000210
C102	C	-0.086745	-0.575513	0.249790
C103	C	0.163255	-0.325513	0.499790
C104	C	0.413255	-0.075513	0.749790
C105	C	-0.601079	-0.885379	-0.000245
C106	C	-0.351079	-0.635379	0.249755
C107	C	-0.101079	-0.385379	0.499755
C108	C	0.148921	-0.135379	0.749755
C109	C	-0.673904	-0.884305	-0.000261
C110	C	-0.423904	-0.634305	0.249739
C111	C	-0.173904	-0.384305	0.499739
C112	C	0.076096	-0.134305	0.749739
C113	C	-0.656865	-0.757038	-0.000231
C114	C	-0.406865	-0.507038	0.249769
C115	C	-0.156865	-0.257038	0.499769
C116	C	0.093135	-0.007038	0.749769
C117	C	-0.584042	-0.758114	-0.000222
C118	C	-0.334042	-0.508114	0.249778
C119	C	-0.084042	-0.258114	0.499778
C120	C	0.165958	-0.008114	0.749778
C121	C	-0.556154	-0.822287	-0.000226
C122	C	-0.306154	-0.572287	0.249774
C123	C	-0.056154	-0.322287	0.499774
C124	C	0.193846	-0.072287	0.749774
C125	C	0.220700	-0.818997	-0.000236
C126	C	0.470700	-0.568997	0.249764
C127	C	0.720700	-0.318997	0.499764
C128	C	0.970700	-0.068997	0.749764
C129	C	0.298204	-0.820138	-0.000247
C130	C	0.548204	-0.570138	0.249753
C131	C	0.798204	-0.320138	0.499753
C132	C	1.048204	-0.070138	0.749753
C133	C	0.087546	-0.952151	-0.000252
C134	C	0.337546	-0.702151	0.249748
C135	C	0.587546	-0.452151	0.499748
C136	C	0.837546	-0.202151	0.749748
C137	C	0.088687	-1.029656	-0.000276
C138	C	0.338687	-0.779656	0.249724
C139	C	0.588687	-0.529656	0.499724
C140	C	0.838687	-0.279656	0.749724
C141	C	0.160470	-0.574389	-0.000188
C142	C	0.410470	-0.324389	0.249812
C143	C	0.660470	-0.074389	0.499812
C144	C	0.910470	0.175611	0.749812
C145	C	0.159399	-0.501566	-0.000196
C146	C	0.409399	-0.251566	0.249804
C147	C	0.659399	-0.001566	0.499804
C148	C	0.909399	0.248434	0.749804
C149	C	0.095233	-0.473669	-0.000199
C150	C	0.345233	-0.223669	0.249801
C151	C	0.595233	0.026331	0.499801
C152	C	0.845233	0.276331	0.749801
C153	C	0.032133	-0.518603	-0.000175
C154	C	0.282133	-0.268603	0.249825
C155	C	0.532133	-0.018603	0.499825
C156	C	0.782133	0.231397	0.749825
C157	C	0.033207	-0.591425	-0.000160
C158	C	0.283207	-0.341425	0.249840
C159	C	0.533207	-0.091425	0.499840
C160	C	0.783207	0.158575	0.749840
N161	N	0.046188	-0.365695	-0.041663
N162	N	0.296188	-0.115695	0.208337
N163	N	0.546188	0.134305	0.458337
N164	N	0.796188	0.384305	0.708337
N165	N	0.045172	-0.296516	-0.041679
N166	N	0.295172	-0.046516	0.208321
N167	N	0.545172	0.203484	0.458321
N168	N	0.795172	0.453484	0.708321
C169	C	0.091994	-0.254260	-0.000243
C170	C	0.341994	-0.004260	0.249757
C171	C	0.591994	0.245740	0.499757
C172	C	0.841994	0.495740	0.749757
N173	N	0.139881	-0.283795	0.041200
N174	N	0.389881	-0.033795	0.291200
N175	N	0.639881	0.216205	0.541200
N176	N	0.889881	0.466205	0.791200
N177	N	0.140899	-0.352980	0.041213
N178	N	0.390899	-0.102980	0.291213
N179	N	0.640899	0.147020	0.541213
N180	N	0.890899	0.397020	0.791213
C181	C	0.094062	-0.394707	-0.000215
C182	C	0.344062	-0.144707	0.249785
C183	C	0.594062	0.105293	0.499785
C184	C	0.844062	0.355293	0.749785
C185	C	0.153928	-0.130372	-0.000270
C186	C	0.403928	0.119628	0.249730
C187	C	0.653928	0.369628	0.499730
C188	C	0.903928	0.619628	0.749730
C189	C	0.152853	-0.057547	-0.000274
C190	C	0.402853	0.192453	0.249726
C191	C	0.652853	0.442453	0.499726
C192	C	0.902853	0.692453	0.749726
C193	C	0.025586	-0.074586	-0.000261
C194	C	0.275586	0.175414	0.249739
C195	C	0.525586	0.425414	0.499739
C196	C	0.775586	0.675414	0.749739
C197	C	0.026662	-0.147409	-0.000250
C198	C	0.276662	0.102591	0.249750
C199	C	0.526662	0.352591	0.499750
C200	C	0.776662	0.602591	0.749750
C201	C	0.090835	-0.175298	-0.000258
C202	C	0.340835	0.074702	0.249742
C203	C	0.590835	0.324702	0.499742
C204	C	0.840835	0.574702	0.749742
N205	N	0.093037	-0.824513	-0.189919
N206	N	0.343037	-0.574513	0.060081
N207	N	0.593037	-0.324513	0.310081
N208	N	0.843037	-0.074513	0.560081
C209	C	0.045436	-0.872088	0.227785
C210	C	0.295436	-0.622088	0.477785
C211	C	0.545436	-0.372088	0.727785
C212	C	0.795436	-0.122088	0.977785
C213	C	0.045433	-0.872092	0.304430
C214	C	0.295433	-0.622092	0.554430
C215	C	0.545433	-0.372092	0.804430
C216	C	0.795433	-0.122092	1.054430
C217	C	0.093030	-0.824477	0.342768
C218	C	0.343030	-0.574477	0.592768
C219	C	0.593030	-0.324477	0.842768
C220	C	0.843030	-0.074477	1.092768
C221	C	0.140621	-0.776841	0.304455
C222	C	0.390621	-0.526841	0.554455
C223	C	0.640621	-0.276841	0.804455
C224	C	0.890621	-0.026841	1.054455
C225	C	0.140618	-0.776834	0.227812
C226	C	0.390618	-0.526834	0.477812
C227	C	0.640618	-0.276834	0.727812
C228	C	0.890618	-0.026834	0.977812
N229	N	0.154837	-0.815401	0.463094
N230	N	0.404837	-0.565401	0.713094
N231	N	0.654837	-0.315401	0.963094
N232	N	0.904837	-0.065401	1.213094
N233	N	0.154838	-0.815413	0.535902
N234	N	0.404838	-0.565413	0.785902
N235	N	0.654838	-0.315413	1.035902
N236	N	0.904838	-0.065413	1.285902
C237	C	0.093040	-0.824496	0.573691
C238	C	0.343040	-0.574496	0.823691
C239	C	0.593040	-0.324496	1.073691
C240	C	0.843040	-0.074496	1.323691
N241	N	0.031239	-0.833582	0.535920
N242	N	0.281239	-0.583582	0.785920
N243	N	0.531239	-0.333582	1.035920
N244	N	0.781239	-0.083582	1.285920
N245	N	0.031240	-0.833574	0.463106
N246	N	0.281240	-0.583574	0.713106
N247	N	0.531240	-0.333574	0.963106
N248	N	0.781240	-0.083574	1.213106
C249	C	0.093038	-0.824480	0.425875
C250	C	0.343038	-0.574480	0.675875
C251	C	0.593038	-0.324480	0.925875
C252	C	0.843038	-0.074480	1.175875
C253	C	0.045444	-0.872131	0.695101
C254	C	0.295444	-0.622131	0.945101
C255	C	0.545444	-0.372131	1.195101
C256	C	0.795444	-0.122131	1.445101
C257	C	0.045440	-0.872130	0.771748
C258	C	0.295440	-0.622130	1.021748
C259	C	0.545440	-0.372130	1.271748
C260	C	0.795440	-0.122130	1.521748
C261	C	0.140634	-0.776882	0.771772
C262	C	0.390634	-0.526882	1.021772
C263	C	0.640634	-0.276882	1.271772
C264	C	0.890634	-0.026882	1.521772
C265	C	0.140632	-0.776879	0.695127
C266	C	0.390632	-0.526879	0.945127
C267	C	0.640632	-0.276879	1.195127
C268	C	0.890632	-0.026879	1.445127
C269	C	0.093038	-0.824507	0.656796
C270	C	0.343038	-0.574507	0.906796
C271	C	0.593038	-0.324507	1.156796
C272	C	0.843038	-0.074507	1.406796
H273	H	-0.134360	-0.944176	-0.000214
H274	H	0.115640	-0.694176	0.249786
H275	H	0.365640	-0.444176	0.499786
H276	H	0.615640	-0.194176	0.749786
F277	F	-0.005212	-0.922817	0.654307
F278	F	0.244788	-0.672817	0.904307
F279	F	0.494788	-0.422817	1.154307
F280	F	0.744788	-0.172817	1.404307
H281	H	-0.710481	-0.935683	-0.000274
H282	H	-0.460481	-0.685683	0.249726
H283	H	-0.210481	-0.435683	0.499726
H284	H	0.039519	-0.185683	0.749726
H285	H	0.006685	-0.910911	0.802935
H286	H	0.256685	-0.660911	1.052935
H287	H	0.506685	-0.410911	1.302935
H288	H	0.756685	-0.160911	1.552935
F289	F	0.191275	-0.726163	0.345258
F290	F	0.441275	-0.476163	0.595258
F291	F	0.691275	-0.226163	0.845258
F292	F	0.941275	0.023837	1.095258
F293	F	-0.040488	-0.195223	-0.000233
F294	F	0.209512	0.054777	0.249767
F295	F	0.459512	0.304777	0.499767
F296	F	0.709512	0.554777	0.749767
H297	H	-0.679578	-0.704792	-0.000222
H298	H	-0.429578	-0.454792	0.249778
H299	H	-0.179578	-0.204792	0.499778
H300	H	0.070422	0.045208	0.749778
F301	F	-0.005219	-0.922774	0.186993
F302	F	0.244781	-0.672774	0.436993
F303	F	0.494781	-0.422774	0.686993
F304	F	0.744781	-0.172774	0.936993
F305	F	0.228769	-0.604066	-0.000195
F306	F	0.478769	-0.354066	0.249805
F307	F	0.728769	-0.104066	0.499805
F308	F	0.978769	0.145934	0.749805
F309	F	-0.036157	-0.488912	-0.000175
F310	F	0.213843	-0.238912	0.249825
F311	F	0.463843	0.011088	0.499825
F312	F	0.713843	0.261088	0.749825
H313	H	0.206181	-0.153080	-0.000267
H314	H	0.456181	0.096920	0.249733
H315	H	0.706181	0.346920	0.499733
H316	H	0.956181	0.596920	0.749733
F317	F	0.191286	-0.726202	0.812570
F318	F	0.441286	-0.476202	1.062570
F319	F	0.691286	-0.226202	1.312570
F320	F	0.941286	0.023798	1.562570
F321	F	-0.005219	-0.922786	0.345202
F322	F	0.244781	-0.672786	0.595202
F323	F	0.494781	-0.422786	0.845202
F324	F	0.744781	-0.172786	1.095202
H325	H	0.179371	-0.738049	0.196624
H326	H	0.429371	-0.488049	0.446624
H327	H	0.679371	-0.238049	0.696624
H328	H	0.929371	0.011951	0.946624
H329	H	-0.266470	-0.942228	-0.000233
H330	H	-0.016470	-0.692228	0.249767
H331	H	0.233530	-0.442228	0.499767
H332	H	0.483530	-0.192228	0.749767
H333	H	0.204232	-0.020970	-0.000285
H334	H	0.454232	0.229030	0.249715
H335	H	0.704232	0.479030	0.499715
H336	H	0.954232	0.729030	0.749715
F337	F	-0.242539	-0.695295	-0.000187
F338	F	0.007461	-0.445295	0.249813
F339	F	0.257461	-0.195295	0.499813
F340	F	0.507461	0.054705	0.749813
F341	F	-0.092213	-0.697505	-0.000182
F342	F	0.157787	-0.447505	0.249818
F343	F	0.407787	-0.197505	0.499818
F344	F	0.657787	0.052495	0.749818
F345	F	-0.042705	-0.044901	-0.000257
F346	F	0.207295	0.205099	0.249743
F347	F	0.457295	0.455099	0.499743
F348	F	0.707295	0.705099	0.749743
H349	H	0.210776	-0.464982	-0.000210
H350	H	0.460776	-0.214982	0.249790
H351	H	0.710776	0.035018	0.499790
H352	H	0.960776	0.285018	0.749790
H353	H	0.179386	-0.738100	0.663938
H354	H	0.429386	-0.488100	0.913938
H355	H	0.679386	-0.238100	1.163938
H356	H	0.929386	0.011900	1.413938
F357	F	-0.571396	-0.953676	-0.000245
F358	F	-0.321396	-0.703676	0.249755
F359	F	-0.071396	-0.453676	0.499755
F360	F	0.178604	-0.203676	0.749755
F361	F	-0.536229	-0.690963	-0.000207
F362	F	-0.286229	-0.440963	0.249793
F363	F	-0.036229	-0.190963	0.499793
F364	F	0.213771	0.059037	0.749793
H365	H	-0.018171	-0.628003	-0.000145
H366	H	0.231829	-0.378003	0.249855
H367	H	0.481829	-0.128003	0.499855
H368	H	0.731829	0.121997	0.749855
