data_functionalizedCrystal
_audit_creation_method	'MofGen! by Chris Wilmer'
_symmetry_space_group_name_H-M	'P1'
_symmetry_Int_Tables_number	1
_symmetry_cell_setting	triclinic
loop_
_symmetry_equiv_pos_as_xyz
  x,y,z
_cell_length_a	21.295418
_cell_length_b	29.839131
_cell_length_c	21.295411
_cell_angle_alpha	89.979636
_cell_angle_beta	89.956262
_cell_angle_gamma	90.057233
loop_
_atom_site_label
_atom_site_type_symbol
_atom_site_fract_x
_atom_site_fract_y
_atom_site_fract_z
Zn1	Zn	0.962308	-0.178715	-0.356239
Zn2	Zn	1.462308	0.321285	0.143761
Zn3	Zn	0.962190	-0.253830	-0.250967
Zn4	Zn	1.462190	0.246170	0.249033
Zn5	Zn	0.857031	-0.178736	-0.250949
Zn6	Zn	1.357031	0.321264	0.249051
Zn7	Zn	0.856981	-0.253839	-0.356163
Zn8	Zn	1.356981	0.246161	0.143837
O9	O	0.909628	-0.216280	-0.303580
O10	O	1.409628	0.283720	0.196420
O11	O	1.050382	-0.188667	-0.342314
O12	O	1.550382	0.311333	0.157686
O13	O	0.948213	-0.243874	-0.162875
O14	O	1.448213	0.256126	0.337125
O15	O	0.871067	-0.115866	-0.264940
O16	O	1.371067	0.384134	0.235060
O17	O	1.050295	-0.243854	-0.264971
O18	O	1.550295	0.256146	0.235029
O19	O	0.948413	-0.115851	-0.342296
O20	O	1.448413	0.384149	0.157704
O21	O	0.870953	-0.188703	-0.162862
O22	O	1.370953	0.311297	0.337138
O23	O	0.768935	-0.188711	-0.264867
O24	O	1.268935	0.311289	0.235133
O25	O	0.870981	-0.243869	-0.444263
O26	O	1.370981	0.256131	0.055737
O27	O	0.768898	-0.243889	-0.342167
O28	O	1.268898	0.256111	0.157833
O29	O	0.948364	-0.188675	-0.444319
O30	O	1.448364	0.311325	0.055681
O31	O	0.948164	-0.316699	-0.264897
O32	O	1.448164	0.183301	0.235103
O33	O	0.870866	-0.316705	-0.342185
O34	O	1.370866	0.183295	0.157815
C35	C	0.746076	-0.216304	-0.303507
C36	C	1.246076	0.283696	0.196493
C37	C	0.676108	-0.216325	-0.303491
C38	C	1.176108	0.283675	0.196509
C39	C	0.643238	-0.245094	-0.343681
C40	C	1.143238	0.254906	0.156319
C41	C	0.577496	-0.245083	-0.343710
C42	C	1.077496	0.254917	0.156290
C43	C	0.544625	-0.216307	-0.303536
C44	C	1.044625	0.283693	0.196464
C45	C	0.577503	-0.187532	-0.263343
C46	C	1.077503	0.312468	0.236657
C47	C	0.643244	-0.187541	-0.263321
C48	C	1.143244	0.312459	0.236679
N49	N	0.441350	-0.212791	-0.248479
N50	N	0.941350	0.287209	0.251521
N51	N	0.378899	-0.212785	-0.248502
N52	N	0.878899	0.287215	0.251498
C53	C	0.346551	-0.216279	-0.303603
C54	C	0.846551	0.283721	0.196397
N55	N	0.379013	-0.219787	-0.358681
N56	N	0.879013	0.280213	0.141319
N57	N	0.441470	-0.219795	-0.358657
N58	N	0.941470	0.280205	0.141343
C59	C	0.473340	-0.216294	-0.303557
C60	C	0.973340	0.283706	0.196443
C61	C	0.242396	-0.245037	-0.343827
C62	C	0.742396	0.254963	0.156173
C63	C	0.176652	-0.245023	-0.343857
C64	C	0.676652	0.254977	0.156143
C65	C	0.176660	-0.187475	-0.263485
C66	C	0.676660	0.312525	0.236515
C67	C	0.242403	-0.187487	-0.263461
C68	C	0.742403	0.312513	0.236539
C69	C	0.275266	-0.216271	-0.303632
C70	C	0.775266	0.283729	0.196368
C71	C	0.909514	-0.333003	-0.303548
C72	C	1.409514	0.166997	0.196452
C73	C	0.909523	-0.382937	-0.303556
C74	C	1.409523	0.117063	0.196444
C75	C	0.949949	-0.692564	-0.263395
C76	C	1.449949	-0.192564	0.236605
C77	C	0.950027	-0.880238	-0.263419
C78	C	1.450027	-0.380238	0.236581
O79	O	0.984309	-0.904489	-0.229249
O80	O	1.484309	-0.404489	0.270751
N81	N	0.909758	-0.903722	-0.303627
N82	N	1.409758	-0.403722	0.196373
C83	C	0.869470	-0.880286	-0.343835
C84	C	1.369470	-0.380286	0.156165
O85	O	0.835225	-0.904567	-0.378039
O86	O	1.335225	-0.404567	0.121961
C87	C	0.869396	-0.692614	-0.343813
C88	C	1.369396	-0.192614	0.156187
C89	C	0.909663	-0.669131	-0.303598
C90	C	1.409663	-0.169131	0.196402
C91	C	0.990214	-0.669082	-0.223184
C92	C	1.490214	-0.169082	0.276816
C93	C	0.990192	-0.622167	-0.223176
C94	C	1.490192	-0.122167	0.276824
C95	C	0.949905	-0.598734	-0.263379
C96	C	1.449905	-0.098734	0.236621
C97	C	0.909641	-0.622216	-0.303590
C98	C	1.409641	-0.122216	0.196410
C99	C	0.829111	-0.669178	-0.384023
C100	C	1.329111	-0.169178	0.115977
C101	C	0.829097	-0.622257	-0.384015
C102	C	1.329097	-0.122257	0.115985
C103	C	0.869364	-0.598775	-0.343800
C104	C	1.369364	-0.098775	0.156200
C105	C	0.869332	-0.551867	-0.343785
C106	C	1.369332	-0.051867	0.156215
N107	N	0.909601	-0.528383	-0.303577
N108	N	1.409601	-0.028383	0.196423
C109	C	0.949887	-0.551816	-0.263374
C110	C	1.449887	-0.051816	0.236626
C111	C	0.869511	-0.978816	-0.343842
C112	C	1.369511	-0.478816	0.156158
C113	C	0.869528	-1.025734	-0.343847
C114	C	1.369528	-0.525734	0.156153
C115	C	0.950087	-1.025683	-0.263432
C116	C	1.450087	-0.525683	0.236568
C117	C	0.950065	-0.978764	-0.263425
C118	C	1.450065	-0.478764	0.236575
C119	C	0.909780	-0.955332	-0.303634
C120	C	1.409780	-0.455332	0.196366
C121	C	0.949837	-0.453290	-0.263359
C122	C	1.449837	0.046710	0.236641
C123	C	0.949810	-0.406370	-0.263353
C124	C	1.449810	0.093630	0.236647
C125	C	0.869254	-0.406426	-0.343770
C126	C	1.369254	0.093574	0.156230
C127	C	0.869279	-0.453341	-0.343774
C128	C	1.369279	0.046659	0.156226
C129	C	0.909576	-0.476772	-0.303567
C130	C	1.409576	0.023228	0.196433
O131	O	0.835073	-0.527587	-0.377942
O132	O	1.335073	-0.027587	0.122058
O133	O	0.984137	-0.527526	-0.229185
O134	O	1.484137	-0.027526	0.270815
C135	C	0.949972	-0.739480	-0.263403
C136	C	1.449972	-0.239480	0.236597
C137	C	0.909707	-0.762962	-0.303614
C138	C	1.409707	-0.262962	0.196386
C139	C	0.869421	-0.739529	-0.343817
C140	C	1.369421	-0.239529	0.156183
C141	C	0.909725	-0.809880	-0.303619
C142	C	1.409725	-0.309880	0.196381
C143	C	0.950012	-0.833313	-0.263416
C144	C	1.450012	-0.333313	0.236584
C145	C	0.990281	-0.809829	-0.223208
C146	C	1.490281	-0.309829	0.276792
C147	C	0.990258	-0.762913	-0.223200
C148	C	1.490258	-0.262913	0.276800
C149	C	0.829152	-0.763014	-0.384025
C150	C	1.329152	-0.263014	0.115975
C151	C	0.829177	-0.809929	-0.384029
C152	C	1.329177	-0.309929	0.115971
C153	C	0.869463	-0.833362	-0.343826
C154	C	1.369463	-0.333362	0.156174
C155	C	1.073818	-0.216257	-0.303653
C156	C	1.573818	0.283743	0.196347
C157	C	1.143786	-0.216247	-0.303684
C158	C	1.643786	0.283753	0.196316
C159	C	0.909680	-0.216271	-0.467770
C160	C	1.409680	0.283729	0.032230
C161	C	0.909702	-0.216267	-0.537738
C162	C	1.409702	0.283733	-0.037738
C163	C	0.909759	-0.099102	-0.303625
C164	C	1.409759	0.400898	0.196375
C165	C	0.909815	-0.049167	-0.303644
C166	C	1.409815	0.450833	0.196356
C167	C	0.949994	-0.187526	-0.570635
C168	C	1.449994	0.312474	-0.070635
C169	C	0.949993	-0.187507	-0.636377
C170	C	1.449993	0.312493	-0.136377
C171	C	0.909707	-0.216236	-0.669221
C172	C	1.409707	0.283764	-0.169221
C173	C	0.869407	-0.244978	-0.636316
C174	C	1.369407	0.255022	-0.136316
C175	C	0.869405	-0.244994	-0.570575
C176	C	1.369405	0.255006	-0.070575
N177	N	0.904840	-0.255537	-0.772436
N178	N	1.404840	0.244463	-0.272436
N179	N	0.904846	-0.255521	-0.834887
N180	N	1.404846	0.244479	-0.334887
C181	C	0.909711	-0.216190	-0.867295
C182	C	1.409711	0.283810	-0.367295
N183	N	0.914582	-0.176875	-0.834893
N184	N	1.414582	0.323125	-0.334893
N185	N	0.914580	-0.176891	-0.772436
N186	N	1.414580	0.323109	-0.272436
C187	C	0.909705	-0.216222	-0.740506
C188	C	1.409705	0.283778	-0.240506
C189	C	0.950004	-0.187426	-0.971478
C190	C	1.450004	0.312574	-0.471478
C191	C	0.949999	-0.187406	-1.037221
C192	C	1.449999	0.312594	-0.537221
C193	C	0.869416	-0.244882	-1.037159
C194	C	1.369416	0.255118	-0.537159
C195	C	0.869418	-0.244898	-0.971417
C196	C	1.369418	0.255102	-0.471417
C197	C	0.909716	-0.216171	-0.938580
C198	C	1.409716	0.283829	-0.438580
C199	C	0.909612	-0.216257	-0.140028
C200	C	1.409612	0.283743	0.359972
C201	C	0.909712	-0.216135	-0.070060
C202	C	1.409712	0.283865	0.429940
H203	H	0.269155	-0.268472	-0.376540
H204	H	0.769155	0.231528	0.123460
H205	H	0.836704	-0.959741	-0.376586
H206	H	1.336704	-0.459741	0.123414
H207	H	0.836612	-0.268304	-0.944632
H208	H	1.336612	0.231696	-0.444632
N209	N	0.993459	-0.156508	-0.671864
N210	N	1.493459	0.343492	-0.171864
H211	H	1.022606	-0.174759	-0.699159
H212	H	1.522606	0.325241	-0.199159
H213	H	0.967861	-0.135690	-0.699088
H214	H	1.467861	0.364310	-0.199088
H215	H	0.796318	-0.688289	-0.416767
H216	H	1.296318	-0.188289	0.083233
H217	H	0.669992	-0.268531	-0.376392
H218	H	1.169992	0.231469	0.123608
H219	H	0.982807	-0.164134	-0.543903
H220	H	1.482807	0.335866	-0.043903
N221	N	0.825945	-0.275958	-0.671735
N222	N	1.325945	0.224042	-0.171735
H223	H	0.832059	-0.271586	-0.718374
H224	H	1.332059	0.228414	-0.218374
H225	H	0.835696	-0.308047	-0.660253
H226	H	1.335696	0.191953	-0.160253
H227	H	0.550728	-0.268510	-0.376440
H228	H	1.050728	0.231490	0.123560
N229	N	0.993463	-0.156407	-1.072704
N230	N	1.493463	0.343593	-0.572704
H231	H	0.987350	-0.160754	-1.119334
H232	H	1.487350	0.339246	-0.619334
H233	H	0.983708	-0.124326	-1.061205
H234	H	1.483708	0.375674	-0.561205
H235	H	0.670006	-0.164112	-0.230593
H236	H	1.170006	0.335888	0.269407
H237	H	0.836591	-0.268397	-0.543791
H238	H	1.336591	0.231603	-0.043791
N239	N	1.033737	-0.835109	-0.179851
N240	N	1.533737	-0.335109	0.320149
H241	H	1.059248	-0.813117	-0.154374
H242	H	1.559248	-0.313117	0.345626
H243	H	1.008136	-0.854611	-0.150692
H244	H	1.508136	-0.354611	0.349308
N245	N	0.826090	-1.051054	-0.387219
N246	N	1.326090	-0.551054	0.112781
H247	H	0.851663	-1.070488	-0.416428
H248	H	1.351663	-0.570488	0.083572
H249	H	0.796943	-1.070529	-0.361562
H250	H	1.296943	-0.570529	0.138438
N251	N	0.785640	-0.596982	-0.427378
N252	N	1.285640	-0.096982	0.072622
H253	H	0.811198	-0.577481	-0.456579
H254	H	1.311198	-0.077481	0.043421
H255	H	0.760144	-0.619007	-0.452809
H256	H	1.260144	-0.119007	0.047191
N257	N	1.033633	-0.596844	-0.179809
N258	N	1.533633	-0.096844	0.320191
H259	H	1.062783	-0.577345	-0.205429
H260	H	1.562783	-0.077345	0.294571
H261	H	1.008021	-0.577435	-0.150606
H262	H	1.508021	-0.077435	0.349394
N263	N	0.993463	-0.156443	-0.936055
N264	N	1.493463	0.343557	-0.436055
H265	H	1.018985	-0.138229	-0.966874
H266	H	1.518985	0.361771	-0.466874
H267	H	0.967862	-0.135664	-0.908758
H268	H	1.467862	0.364336	-0.408758
H269	H	0.836608	-0.268269	-1.063899
H270	H	1.336608	0.231731	-0.563899
N271	N	0.993294	-0.478561	-0.219993
N272	N	1.493294	0.021439	0.280007
H273	H	1.038262	-0.470349	-0.229822
H274	H	1.538262	0.029651	0.270178
H275	H	0.983477	-0.470408	-0.175022
H276	H	1.483477	0.029592	0.324978
H277	H	0.149891	-0.268450	-0.376588
H278	H	0.649891	0.231550	0.123412
N279	N	0.141217	-0.156434	-0.220159
N280	N	0.641217	0.343566	0.279841
H281	H	0.094582	-0.160793	-0.226272
H282	H	0.594582	0.339207	0.273728
H283	H	0.152645	-0.163380	-0.175178
H284	H	0.652645	0.336620	0.324822
N285	N	0.277860	-0.156454	-0.220117
N286	N	0.777860	0.343546	0.279883
H287	H	0.247063	-0.138221	-0.194673
H288	H	0.747063	0.361779	0.305327
H289	H	0.305077	-0.174710	-0.190927
H290	H	0.805077	0.325290	0.309073
N291	N	0.825843	-0.478672	-0.387140
N292	N	1.325843	0.021328	0.112860
H293	H	0.800316	-0.456706	-0.412605
H294	H	1.300316	0.043294	0.087395
H295	H	0.851462	-0.498102	-0.416309
H296	H	1.351462	0.001898	0.083691
H297	H	0.796381	-0.829044	-0.416777
H298	H	1.296381	-0.329044	0.083223
H299	H	1.023023	-0.688157	-0.190445
H300	H	1.523023	-0.188157	0.309555
H301	H	1.023048	-0.743797	-0.190453
H302	H	1.523048	-0.243797	0.309547
H303	H	0.550736	-0.164102	-0.230635
H304	H	1.050736	0.335898	0.269365
H305	H	0.982600	-0.387253	-0.230603
H306	H	1.482600	0.112747	0.269397
N307	N	0.993499	-0.953436	-0.220057
N308	N	1.493499	-0.453436	0.279943
H309	H	0.983748	-0.961625	-0.175069
H310	H	1.483748	-0.461625	0.324931
H311	H	1.038455	-0.961571	-0.229947
H312	H	1.538455	-0.461571	0.270053
N313	N	0.993538	-1.050961	-0.220068
N314	N	1.493538	-0.550961	0.279932
H315	H	0.987435	-1.084246	-0.226177
H316	H	1.487435	-0.584246	0.273823
H317	H	1.038488	-1.042719	-0.229925
H318	H	1.538488	-0.542719	0.270075
H319	H	0.836451	-0.387339	-0.376501
H320	H	1.336451	0.112661	0.123499
N321	N	0.785696	-0.737743	-0.427387
N322	N	1.285696	-0.237743	0.072613
H323	H	0.760191	-0.759744	-0.452856
H324	H	1.260191	-0.259744	0.047144
H325	H	0.756567	-0.718315	-0.401721
H326	H	1.256567	-0.218315	0.098279
