data_functionalizedCrystal
_audit_creation_method	'MofGen! by Chris Wilmer'
_symmetry_space_group_name_H-M	'P1'
_symmetry_Int_Tables_number	1
_symmetry_cell_setting	triclinic
loop_
_symmetry_equiv_pos_as_xyz
  x,y,z
_cell_length_a	12.759401
_cell_length_b	16.120484
_cell_length_c	12.759393
_cell_angle_alpha	92.863987
_cell_angle_beta	89.981708
_cell_angle_gamma	92.925560
loop_
_atom_site_label
_atom_site_type_symbol
_atom_site_fract_x
_atom_site_fract_y
_atom_site_fract_z
Zn1	Zn	1.584969	-0.331863	-0.615146
Zn2	Zn	1.575921	-0.471298	-0.448359
Zn3	Zn	1.409269	-0.331903	-0.439488
Zn4	Zn	1.400321	-0.471236	-0.623997
O5	O	1.492620	-0.401575	-0.531748
O6	O	1.730789	-0.350367	-0.593030
O7	O	1.553773	-0.452850	-0.300164
O8	O	1.440107	-0.215233	-0.455373
O9	O	1.724142	-0.452810	-0.470492
O10	O	1.569193	-0.215203	-0.584429
O11	O	1.431334	-0.350437	-0.293647
O12	O	1.261062	-0.350378	-0.463955
O13	O	1.424856	-0.452705	-0.769841
O14	O	1.254487	-0.452745	-0.599513
O15	O	1.560517	-0.350308	-0.763339
O16	O	1.545096	-0.587955	-0.479074
O17	O	1.416083	-0.587910	-0.608114
C18	C	1.219654	-0.401560	-0.531732
C19	C	1.102876	-0.401573	-0.531752
C20	C	1.044613	-0.454961	-0.602231
C21	C	0.934888	-0.454972	-0.602243
C22	C	0.941700	-0.348204	-0.461288
C23	C	1.051423	-0.348190	-0.461282
C24	C	1.096066	-0.508344	-0.672701
C25	C	1.037803	-0.561737	-0.743185
C26	C	0.928078	-0.561748	-0.743198
C27	C	0.876617	-0.508365	-0.672726
C28	C	1.478665	-0.618182	-0.545540
C29	C	1.472792	-0.710848	-0.551476
C30	C	1.462074	-0.880509	-0.562334
C31	C	1.523355	-0.921801	-0.501178
C32	C	1.517391	-1.016206	-0.507220
C33	C	1.468036	-0.786095	-0.556294
C34	C	1.766652	-0.401591	-0.531764
C35	C	1.883428	-0.401598	-0.531770
C36	C	1.492698	-0.401495	-0.805776
C37	C	1.492731	-0.401461	-0.922551
C38	C	1.506658	-0.184122	-0.517924
C39	C	1.512640	-0.091456	-0.512034
C40	C	1.556489	-0.454767	-0.980802
C41	C	1.556523	-0.454731	-1.090524
C42	C	1.429031	-0.348082	-1.083733
C43	C	1.429004	-0.348114	-0.974013
C44	C	1.620216	-0.508114	-0.929340
C45	C	1.683979	-0.561425	-0.987592
C46	C	1.684013	-0.561389	-1.097314
C47	C	1.620284	-0.508043	-1.148784
C48	C	1.492607	-0.401594	-0.258781
C49	C	1.492792	-0.401394	-0.141993
H50	H	1.185409	-0.508343	-0.672698
O51	O	1.360311	-0.290542	-1.139248
H52	H	1.304455	-0.327830	-1.191604
H53	H	1.620193	-0.508151	-0.840000
H54	H	1.079710	-0.605194	-0.800567
H55	H	0.880643	-0.605217	-0.800596
O56	O	0.886186	-0.290655	-0.385263
H57	H	0.838916	-0.248295	-0.429667
H58	H	0.787272	-0.508371	-0.672750
O59	O	1.386633	-0.927595	-0.637674
H60	H	1.431162	-0.967212	-0.693649
H61	H	1.098862	-0.304710	-0.403899
O62	O	1.598782	-0.874722	-0.425807
H63	H	1.591683	-0.806885	-0.432821
H64	H	1.735871	-0.604852	-0.945678
H65	H	1.735939	-0.604791	-1.144740
H66	H	1.620326	-0.508012	-1.238127
O67	O	1.360235	-0.290625	-0.911172
H68	H	1.315913	-0.253533	-0.965388
