data_functionalizedCrystal
_audit_creation_method	'MofGen! by Chris Wilmer'
_symmetry_space_group_name_H-M	'P1'
_symmetry_Int_Tables_number	1
_symmetry_cell_setting	triclinic
loop_
_symmetry_equiv_pos_as_xyz
  x,y,z
_cell_length_a	15.995350
_cell_length_b	17.699083
_cell_length_c	16.176319
_cell_angle_alpha	89.998504
_cell_angle_beta	89.996236
_cell_angle_gamma	83.387695
loop_
_atom_site_label
_atom_site_type_symbol
_atom_site_fract_x
_atom_site_fract_y
_atom_site_fract_z
O1	O	-1.110791	-0.097553	0.068678
O2	O	-0.610791	0.402447	0.568678
O3	O	-0.866991	-0.109600	0.068695
O4	O	-0.366991	0.390400	0.568695
O5	O	-0.995779	0.006601	0.068679
O6	O	-0.495779	0.506601	0.568679
O7	O	-0.982003	-0.213754	0.068695
O8	O	-0.482003	0.286246	0.568695
O9	O	-0.995760	0.006595	-0.068814
O10	O	-0.495760	0.506595	0.431186
O11	O	-0.866972	-0.109606	-0.068798
O12	O	-0.366972	0.390394	0.431202
O13	O	-1.110772	-0.097559	-0.068815
O14	O	-0.610772	0.402441	0.431185
Cu15	Cu	-0.988870	-0.103583	-0.081361
Cu16	Cu	-0.488870	0.396417	0.418639
Cu17	Cu	-0.988893	-0.103576	0.081241
Cu18	Cu	-0.488893	0.396424	0.581241
O19	O	-0.981984	-0.213761	-0.068799
O20	O	-0.481984	0.286239	0.431201
C21	C	-0.995276	0.034796	-0.000068
C22	C	-0.495276	0.534796	0.499932
C23	C	-0.993795	0.118816	-0.000068
C24	C	-0.493795	0.618816	0.499932
C25	C	-0.835788	-0.109105	-0.000049
C26	C	-0.335788	0.390895	0.499951
C27	C	-0.742841	-0.107612	-0.000043
C28	C	-0.242841	0.392388	0.499957
C29	C	-1.141975	-0.098054	-0.000069
C30	C	-0.641975	0.401946	0.499931
C31	C	-1.234923	-0.099547	-0.000070
C32	C	-0.734923	0.400453	0.499930
C33	C	-0.405104	-0.102250	-0.000060
C34	C	0.094896	0.397750	0.499940
C35	C	-0.452706	-0.019493	-0.000373
C36	C	0.047294	0.480507	0.499627
C37	C	-0.549394	-0.020987	-0.000057
C38	C	-0.049394	0.479013	0.499943
C39	C	-0.572659	-0.104910	-0.000052
C40	C	-0.072659	0.395090	0.499948
C41	C	-0.531500	-0.145724	0.078463
C42	C	-0.031500	0.354276	0.578463
C43	C	-0.434869	-0.143645	0.078523
C44	C	0.065131	0.356355	0.578523
C45	C	-0.434504	-0.145362	-0.077833
C46	C	0.065496	0.354638	0.422167
C47	C	-0.531449	-0.145343	-0.078865
C48	C	-0.031449	0.354657	0.421135
C49	C	-0.667354	-0.106417	-0.000045
C50	C	-0.167354	0.393583	0.499955
C51	C	-0.310409	-0.100745	-0.000062
C52	C	0.189591	0.399255	0.499938
C53	C	-0.982487	-0.241955	-0.000050
C54	C	-0.482487	0.258045	0.499950
C55	C	-0.983968	-0.325976	-0.000044
C56	C	-0.483968	0.174024	0.499956
N57	N	-0.988860	-0.103588	-0.195726
N58	N	-0.488860	0.396412	0.304274
C59	C	-1.069391	0.167312	-0.000074
C60	C	-0.569391	0.667312	0.499926
C61	C	-1.067994	0.246257	-0.000067
C62	C	-0.567994	0.746257	0.499933
C63	C	-0.991001	0.276706	-0.000059
C64	C	-0.491001	0.776706	0.499941
C65	C	-0.915400	0.228205	-0.000050
C66	C	-0.415400	0.728205	0.499950
C67	C	-0.916797	0.149261	-0.000051
C68	C	-0.416797	0.649261	0.499949
C69	C	-0.909763	0.546577	-0.000043
C70	C	-0.409763	1.046577	0.499957
C71	C	-0.908372	0.625527	-0.000044
C72	C	-0.408372	1.125527	0.499956
C73	C	-1.060960	0.643574	-0.000058
C74	C	-0.560960	1.143574	0.499942
C75	C	-1.062358	0.564630	-0.000060
C76	C	-0.562358	1.064630	0.499940
C77	C	-0.986757	0.516135	-0.000047
C78	C	-0.486757	1.016135	0.499953
C79	C	-0.988272	0.430533	-0.000053
C80	C	-0.488272	0.930533	0.499947
C81	C	-0.989485	0.362306	-0.000058
C82	C	-0.489485	0.862306	0.499942
C83	C	-1.045944	-0.052130	-0.761116
C84	C	-0.545944	0.447870	-0.261116
C85	C	-1.045940	-0.052135	-0.674569
C86	C	-0.545940	0.447865	-0.174569
C87	C	-0.988898	-0.103573	-0.631301
C88	C	-0.488898	0.396427	-0.131301
C89	C	-0.931861	-0.155013	-0.674585
C90	C	-0.431861	0.344987	-0.174585
C91	C	-0.931869	-0.155011	-0.761131
C92	C	-0.431869	0.344989	-0.261131
C93	C	-0.931827	-0.155024	-0.325557
C94	C	-0.431827	0.344976	0.174443
C95	C	-0.931821	-0.155021	-0.239006
C96	C	-0.431821	0.344979	0.260994
C97	C	-1.045898	-0.052148	-0.238995
C98	C	-0.545898	0.447852	0.261005
C99	C	-1.045906	-0.052146	-0.325540
C100	C	-0.545906	0.447854	0.174460
C101	C	-0.988873	-0.103589	-0.368817
C102	C	-0.488873	0.396411	0.131183
C103	C	-0.988878	-0.103583	-0.462661
C104	C	-0.488878	0.396417	0.037339
C105	C	-0.988887	-0.103575	-0.537459
C106	C	-0.488887	0.396425	-0.037459
N107	N	-0.988910	-0.103565	0.195606
N108	N	-0.488910	0.396435	0.695606
H109	H	-0.577880	0.011096	-0.056340
H110	H	-0.077880	0.511096	0.443660
Cl111	Cl	-0.384886	-0.237448	0.084032
Cl112	Cl	0.115114	0.262552	0.584032
Cl113	Cl	-0.553139	-0.240909	0.082997
Cl114	Cl	-0.053139	0.259091	0.582997
H115	H	-0.852711	0.253002	-0.000038
H116	H	-0.352711	0.753002	0.499962
H117	H	-0.885418	-0.196899	-0.639352
H118	H	-0.385418	0.303101	-0.139352
H119	H	-1.122518	0.683068	-0.000065
H120	H	-0.622518	1.183068	0.499935
H121	H	-1.125053	0.539843	-0.000070
H122	H	-0.625053	1.039843	0.499930
H123	H	-1.132087	0.142527	-0.000086
H124	H	-0.632087	0.642527	0.499914
Cl125	Cl	-1.117617	0.012523	-0.379930
Cl126	Cl	-0.617617	0.512523	0.120070
H127	H	-1.092341	-0.010262	-0.203750
H128	H	-0.592341	0.489738	0.296250
H129	H	-0.855239	0.109776	-0.000046
H130	H	-0.355239	0.609776	0.499954
Cl131	Cl	-0.402878	-0.103593	-0.169716
Cl132	Cl	0.097122	0.396407	0.330284
H133	H	-0.885368	-0.196910	-0.203779
H134	H	-0.385368	0.303090	0.296221
Cl135	Cl	-0.811573	0.663804	-0.000032
Cl136	Cl	-0.311573	1.163804	0.499968
Cl137	Cl	-1.117643	0.012527	-0.620160
Cl138	Cl	-0.617643	0.512527	-0.120160
H139	H	-1.092391	-0.010240	-0.796338
H140	H	-0.592391	0.489760	-0.296338
Cl141	Cl	-1.163034	0.307220	-0.000078
Cl142	Cl	-0.663034	0.807220	0.499922
Cl143	Cl	-0.814721	0.485623	-0.000024
Cl144	Cl	-0.314721	0.985623	0.499976
Cl145	Cl	-0.860126	-0.219690	-0.379956
Cl146	Cl	-0.360126	0.280310	0.120044
H147	H	-0.416629	-0.113876	0.137211
H148	H	0.083371	0.386124	0.637211
H149	H	-0.558818	-0.115548	-0.136950
H150	H	-0.058818	0.384452	0.363050
Cl151	Cl	-0.385276	-0.239565	-0.078648
Cl152	Cl	0.114724	0.260435	0.421352
Cl153	Cl	-0.554970	-0.239834	-0.086180
Cl154	Cl	-0.054970	0.260166	0.413820
Cl155	Cl	-0.424196	0.031577	-0.087306
Cl156	Cl	0.075804	0.531577	0.412694
Cl157	Cl	-0.422568	0.031354	0.086068
Cl158	Cl	0.077432	0.531354	0.586068
Cl159	Cl	-0.592492	0.028671	0.087133
Cl160	Cl	-0.092492	0.528671	0.587133
Cl161	Cl	-0.860168	-0.219679	-0.815537
Cl162	Cl	-0.360168	0.280321	-0.315537
Cl163	Cl	-0.575405	-0.101950	0.168675
Cl164	Cl	-0.075405	0.398050	0.668675
