data_functionalizedCrystal
_audit_creation_method	'MofGen! by Chris Wilmer'
_symmetry_space_group_name_H-M	'P1'
_symmetry_Int_Tables_number	1
_symmetry_cell_setting	triclinic
loop_
_symmetry_equiv_pos_as_xyz
  x,y,z
_cell_length_a	19.805407
_cell_length_b	12.827892
_cell_length_c	19.805407
_cell_angle_alpha	90.008263
_cell_angle_beta	90.009221
_cell_angle_gamma	90.015392
loop_
_atom_site_label
_atom_site_type_symbol
_atom_site_fract_x
_atom_site_fract_y
_atom_site_fract_z
Zn1	Zn	1.034718	-0.416204	0.382743
Zn2	Zn	1.534718	0.083796	0.882743
Zn3	Zn	1.034675	-0.590916	0.269565
Zn4	Zn	1.534675	-0.090916	0.769565
Zn5	Zn	0.921553	-0.416190	0.269568
Zn6	Zn	1.421553	0.083810	0.769568
Zn7	Zn	0.921518	-0.590904	0.382712
Zn8	Zn	1.421518	-0.090904	0.882712
O9	O	0.978116	-0.503554	0.326147
O10	O	1.478116	-0.003554	0.826147
O11	O	1.129429	-0.439391	0.367742
O12	O	1.629429	0.060609	0.867742
O13	O	1.019666	-0.567737	0.174849
O14	O	1.519666	-0.067737	0.674849
O15	O	0.936598	-0.269956	0.284595
O16	O	1.436598	0.230044	0.784595
O17	O	1.129398	-0.567751	0.284590
O18	O	1.629398	-0.067751	0.784590
O19	O	1.019739	-0.269966	0.367745
O20	O	1.519739	0.230034	0.867745
O21	O	0.936556	-0.439366	0.174851
O22	O	1.436556	0.060634	0.674851
O23	O	0.826832	-0.439355	0.284565
O24	O	1.326832	0.060645	0.784565
O25	O	0.936538	-0.567731	0.477432
O26	O	1.436538	-0.067731	0.977432
O27	O	0.826806	-0.567717	0.367691
O28	O	1.326806	-0.067717	0.867691
O29	O	1.019705	-0.439380	0.477456
O30	O	1.519705	0.060620	0.977456
O31	O	1.019632	-0.737151	0.284560
O32	O	1.519632	-0.237151	0.784560
O33	O	0.936496	-0.737142	0.367688
O34	O	1.436496	-0.237142	0.867688
C35	C	0.802260	-0.503534	0.326125
C36	C	1.302260	-0.003534	0.826125
C37	C	0.727028	-0.503550	0.326132
C38	C	1.227028	-0.003550	0.826132
C39	C	0.691688	-0.570489	0.369346
C40	C	1.191688	-0.070489	0.869346
C41	C	0.621000	-0.570491	0.369355
C42	C	1.121000	-0.070491	0.869355
C43	C	0.585653	-0.503558	0.326147
C44	C	1.085653	-0.003558	0.826147
C45	C	0.620998	-0.436612	0.282931
C46	C	1.120998	0.063388	0.782931
C47	C	0.691685	-0.436606	0.282926
C48	C	1.191685	0.063394	0.782926
C49	C	0.335924	-0.436635	0.282954
C50	C	0.835924	0.063365	0.782954
C51	C	0.265232	-0.436649	0.282961
C52	C	0.765232	0.063351	0.782961
C53	C	0.265240	-0.570520	0.369383
C54	C	0.765240	-0.070520	0.869383
C55	C	0.335927	-0.570514	0.369377
C56	C	0.835927	-0.070514	0.869377
C57	C	0.371265	-0.503564	0.326165
C58	C	0.871265	-0.003564	0.826165
C59	C	0.447914	-0.503562	0.326156
C60	C	0.947914	-0.003562	0.826156
C61	C	0.509006	-0.503565	0.326152
C62	C	1.009006	-0.003565	0.826152
C63	C	0.978074	-0.775063	0.326135
C64	C	1.478074	-0.275063	0.826135
C65	C	0.978118	-0.891217	0.326153
C66	C	1.478118	-0.391217	0.826153
C67	C	1.019305	-0.942971	0.285064
C68	C	1.519305	-0.442971	0.785064
C69	C	1.019351	-1.063021	0.285081
C70	C	1.519351	-0.563021	0.785081
C71	C	1.154659	-0.503574	0.326169
C72	C	1.654659	-0.003574	0.826169
C73	C	1.229891	-0.503583	0.326179
C74	C	1.729891	-0.003583	0.826179
C75	C	0.978122	-0.503556	0.502690
C76	C	1.478122	-0.003556	1.002690
C77	C	0.978125	-0.503557	0.577922
C78	C	1.478125	-0.003557	1.077922
C79	C	0.978177	-0.230983	0.326174
C80	C	1.478177	0.269017	0.826174
C81	C	0.978203	-0.114830	0.326185
C82	C	1.478203	0.385170	0.826185
C83	C	1.021425	-0.436734	0.613279
C84	C	1.521425	0.063266	1.113279
C85	C	1.021419	-0.436731	0.683967
C86	C	1.521419	0.063269	1.183967
C87	C	0.978116	-0.503556	0.719297
C88	C	1.478116	-0.003556	1.219297
C89	C	0.934811	-0.570381	0.683935
C90	C	1.434811	-0.070381	1.183935
C91	C	0.934814	-0.570378	0.613248
C92	C	1.434814	-0.070378	1.113248
C93	C	0.934798	-0.570394	0.969008
C94	C	1.434798	-0.070394	1.469008
C95	C	0.934800	-0.570394	1.039700
C96	C	1.434800	-0.070394	1.539700
C97	C	1.021403	-0.436746	1.039728
C98	C	1.521403	0.063254	1.539728
C99	C	1.021406	-0.436743	0.969041
C100	C	1.521406	0.063257	1.469041
C101	C	0.978099	-0.503564	0.933685
C102	C	1.478099	-0.003564	1.433685
C103	C	0.978105	-0.503565	0.857036
C104	C	1.478105	-0.003565	1.357036
C105	C	0.978113	-0.503561	0.795944
C106	C	1.478113	-0.003561	1.295944
C107	C	0.978104	-0.503573	1.150291
C108	C	1.478104	-0.003573	1.650291
C109	C	0.978097	-0.503565	1.075059
C110	C	1.478097	-0.003565	1.575059
H111	H	0.720458	-0.382092	0.247740
H112	H	1.220458	0.117908	0.747740
Cl113	Cl	0.923753	-1.046126	0.380498
Cl114	Cl	1.423753	-0.546126	0.880498
H115	H	0.899545	-0.624818	0.940230
H116	H	1.399545	-0.124818	1.440230
H117	H	0.236458	-0.625030	0.404572
H118	H	0.736458	-0.125030	0.904572
H119	H	0.942893	-0.935784	0.361346
H120	H	1.442893	-0.435784	0.861346
Cl121	Cl	0.576576	-0.654646	0.423684
Cl122	Cl	1.076576	-0.154646	0.923684
Cl123	Cl	1.075870	-0.352726	0.568871
Cl124	Cl	1.575870	0.147274	1.068871
H125	H	0.899551	-0.624788	0.712706
H126	H	1.399551	-0.124788	1.212706
H127	H	1.056680	-0.382320	0.712752
H128	H	1.556680	0.117680	1.212752
Cl129	Cl	1.073701	-0.874171	0.230734
Cl130	Cl	1.573701	-0.374171	0.730734
Cl131	Cl	1.073792	-1.131732	0.230762
Cl132	Cl	1.573792	-0.631732	0.730762
Cl133	Cl	0.880376	-0.654384	0.568798
Cl134	Cl	1.380376	-0.154384	1.068798
Cl135	Cl	1.075844	-0.352737	1.084180
Cl136	Cl	1.575844	0.147263	1.584180
Cl137	Cl	0.380359	-0.654664	0.423696
Cl138	Cl	0.880359	-0.154664	0.923696
Cl139	Cl	0.736118	-0.654642	0.423665
Cl140	Cl	1.236118	-0.154642	0.923665
Cl141	Cl	0.220796	-0.352497	0.228639
Cl142	Cl	0.720796	0.147503	0.728639
Cl143	Cl	1.075848	-0.352735	0.924630
Cl144	Cl	1.575848	0.147265	1.424630
H145	H	0.899535	-0.624813	1.068464
H146	H	1.399535	-0.124813	1.568464
H147	H	0.364689	-0.382129	0.247762
H148	H	0.864689	0.117871	0.747762
H149	H	0.592212	-0.382110	0.247753
H150	H	1.092212	0.117890	0.747753
