data_functionalizedCrystal
_audit_creation_method	'MofGen! by Chris Wilmer'
_symmetry_space_group_name_H-M	'P1'
_symmetry_Int_Tables_number	1
_symmetry_cell_setting	triclinic
loop_
_symmetry_equiv_pos_as_xyz
  x,y,z
_cell_length_a	10.654541
_cell_length_b	11.792241
_cell_length_c	9.730217
_cell_angle_alpha	89.996588
_cell_angle_beta	89.999932
_cell_angle_gamma	84.338672
loop_
_atom_site_label
_atom_site_type_symbol
_atom_site_fract_x
_atom_site_fract_y
_atom_site_fract_z
O1	O	1.667388	0.159405	-0.114248
O2	O	1.301866	0.174596	-0.114261
O3	O	1.493497	0.001850	-0.114245
O4	O	1.475756	0.332151	-0.114264
O5	O	1.493491	0.001849	0.114336
O6	O	1.301860	0.174595	0.114320
O7	O	1.667382	0.159403	0.114332
Zn8	Zn	1.484620	0.166999	0.150618
Zn9	Zn	1.484628	0.167001	-0.150547
O10	O	1.475750	0.332149	0.114316
C11	C	1.255068	0.173481	0.000028
C12	C	1.115634	0.170145	0.000024
C13	C	1.087078	0.376710	-0.000006
C14	C	1.007297	0.478420	-0.000026
C15	C	0.876287	0.475279	-0.000027
C16	C	0.825059	0.370416	-0.000004
C17	C	0.904841	0.268706	0.000016
C18	C	1.035851	0.271858	0.000013
C19	C	0.933396	0.062144	0.000056
C20	C	1.064405	0.065282	0.000047
C21	C	0.882167	-0.042719	0.000079
C22	C	0.961949	-0.144432	0.000089
C23	C	1.092966	-0.141286	0.000089
C24	C	1.144187	-0.036428	0.000067
C25	C	1.492380	-0.040444	0.000045
C26	C	1.489044	-0.166465	0.000044
C27	C	1.482911	-0.397192	0.000020
C28	C	1.486319	-0.268799	0.000033
C29	C	1.714180	0.160519	0.000040
C30	C	1.853614	0.163854	0.000035
C31	C	1.476868	0.374443	0.000023
C32	C	1.480203	0.500465	0.000015
N33	N	1.484624	0.166997	0.356154
N34	N	1.484634	0.166994	-0.356083
C35	C	1.654383	0.014075	0.356159
C36	C	1.739271	-0.062382	0.428101
C37	C	1.739283	-0.062383	0.571981
C38	C	1.654397	0.014080	0.643922
C39	C	1.569509	0.090537	0.571979
C40	C	1.569508	0.090532	0.428096
C41	C	1.399746	0.243451	0.571975
C42	C	1.399737	0.243459	0.428095
C43	C	1.314859	0.319914	0.643916
C44	C	1.229975	0.396379	0.571973
C45	C	1.229966	0.396377	0.428085
C46	C	1.314849	0.319917	0.356153
H47	H	1.250860	-0.033857	0.000051
H48	H	1.160860	0.458624	0.630556
H49	H	1.193752	0.379277	-0.000035
H50	H	0.775491	-0.045269	0.000086
H51	H	0.920227	-0.229803	0.000107
O52	O	1.170411	-0.240121	-0.000137
C53	C	1.147054	-0.303745	-0.118488
H54	H	1.102687	-0.244184	-0.201242
H55	H	1.079908	-0.369965	-0.091706
C56	C	1.326670	-0.437403	-0.070521
C57	C	1.272187	-0.364247	-0.172165
H58	H	1.403856	-0.474728	-0.103629
H59	H	1.342404	-0.394541	0.009218
H60	H	1.270703	-0.492576	-0.048211
H61	H	1.328148	-0.309067	-0.194460
H62	H	1.256465	-0.407101	-0.251909
O63	O	1.821584	-0.136652	0.358033
C64	C	1.753915	-0.207276	0.274795
H65	H	1.655917	-0.162951	0.253273
H66	H	1.744897	-0.291275	0.330196
C67	C	1.944919	-0.285270	0.164537
C68	C	1.824560	-0.230824	0.138094
H69	H	1.988498	-0.299801	0.080216
H70	H	1.990511	-0.237693	0.220620
H71	H	1.937387	-0.355263	0.210708
H72	H	1.832093	-0.160827	0.091940
H73	H	1.778971	-0.278390	0.082001
H74	H	1.654391	0.014077	0.239004
O75	O	0.798832	0.574108	-0.000292
C76	C	0.822180	0.637715	-0.118670
H77	H	0.866558	0.578144	-0.201400
H78	H	0.889315	0.703949	-0.091915
C79	C	0.642545	0.771359	-0.070755
C80	C	0.697040	0.698192	-0.172370
H81	H	0.565354	0.808669	-0.103878
H82	H	0.626816	0.728509	0.009001
H83	H	0.698502	0.826544	-0.048468
H84	H	0.641090	0.643000	-0.194643
H85	H	0.712756	0.741034	-0.252132
H86	H	1.049022	0.563797	-0.000041
H87	H	1.314854	0.319913	0.238998
H88	H	1.654402	0.014065	0.761076
H89	H	1.314867	0.319906	0.761070
H90	H	1.808402	-0.124645	0.630557
H91	H	0.718383	0.367868	0.000012
H92	H	1.160836	0.458634	0.369517
