data_functionalizedCrystal
_audit_creation_method	'MofGen! by Chris Wilmer'
_symmetry_space_group_name_H-M	'P1'
_symmetry_Int_Tables_number	1
_symmetry_cell_setting	triclinic
loop_
_symmetry_equiv_pos_as_xyz
  x,y,z
_cell_length_a	17.019282
_cell_length_b	17.019294
_cell_length_c	15.500227
_cell_angle_alpha	88.951630
_cell_angle_beta	91.034464
_cell_angle_gamma	83.655696
loop_
_atom_site_label
_atom_site_type_symbol
_atom_site_fract_x
_atom_site_fract_y
_atom_site_fract_z
O1	O	1.046640	0.100371	-0.001416
O2	O	1.379973	0.433705	0.331917
O3	O	1.713307	0.767038	0.665251
O4	O	0.817876	0.112284	-0.019354
O5	O	1.151210	0.445618	0.313979
O6	O	1.484543	0.778951	0.647312
O7	O	0.938207	-0.008055	-0.001416
O8	O	1.271541	0.325278	0.331917
O9	O	1.604874	0.658611	0.665250
O10	O	0.926309	0.220711	-0.019354
O11	O	1.259642	0.554044	0.313979
O12	O	1.592976	0.887378	0.647312
O13	O	0.930905	-0.000782	0.141386
O14	O	1.264239	0.332552	0.474719
O15	O	1.597572	0.665885	0.808053
O16	O	0.810574	0.119558	0.123448
O17	O	1.143908	0.452892	0.456781
O18	O	1.477241	0.786225	0.790115
O19	O	1.039338	0.107645	0.141386
O20	O	1.372671	0.440978	0.474720
O21	O	1.706005	0.774312	0.808053
Cu22	Cu	0.924289	0.114266	0.145456
Cu23	Cu	1.257623	0.447599	0.478789
Cu24	Cu	1.590956	0.780932	0.812123
Cu25	Cu	0.932925	0.105664	-0.023424
Cu26	Cu	1.266258	0.438997	0.309909
Cu27	Cu	1.599592	0.772330	0.643242
O28	O	0.919007	0.227985	0.123448
O29	O	1.252340	0.561318	0.456781
O30	O	1.585674	0.894652	0.790115
C31	C	0.784946	0.115328	0.049909
C32	C	1.118279	0.448661	0.383242
C33	C	1.451612	0.781995	0.716575
C34	C	0.697702	0.113551	0.043538
C35	C	1.031036	0.446884	0.376872
C36	C	1.364369	0.780217	0.710205
C37	C	0.652740	0.116679	0.118389
C38	C	0.986073	0.450012	0.451723
C39	C	1.319406	0.783345	0.785056
C40	C	0.570767	0.114996	0.112407
C41	C	0.904100	0.448330	0.445740
C42	C	1.237433	0.781663	0.779074
C43	C	0.533757	0.110191	0.031573
C44	C	0.867091	0.443525	0.364906
C45	C	1.200424	0.776858	0.698240
C46	C	0.578726	0.107061	-0.043283
C47	C	0.912060	0.440394	0.290050
C48	C	1.245393	0.773727	0.623383
C49	C	0.660699	0.108737	-0.037300
C50	C	0.994032	0.442071	0.296033
C51	C	1.327365	0.775404	0.629367
C52	C	0.286454	0.104925	0.009613
C53	C	0.619787	0.438258	0.342946
C54	C	0.953120	0.771591	0.676280
C55	C	0.204475	0.103250	0.003635
C56	C	0.537809	0.436584	0.336968
C57	C	0.871142	0.769917	0.670302
C58	C	0.196521	0.111185	0.159327
C59	C	0.529855	0.444518	0.492660
C60	C	0.863188	0.777851	0.825993
C61	C	0.278495	0.112866	0.165302
C62	C	0.611828	0.446199	0.498636
C63	C	0.945161	0.779533	0.831969
C64	C	0.323457	0.109731	0.090446
C65	C	0.656791	0.443064	0.423780
C66	C	0.990124	0.776398	0.757113
C67	C	0.449967	0.108474	0.025456
C68	C	0.783301	0.441807	0.358789
C69	C	1.116634	0.775141	0.692123
C70	C	0.407246	0.111443	0.096565
C71	C	0.740580	0.444776	0.429898
C72	C	1.073913	0.778109	0.763231
C73	C	0.933961	-0.033698	0.072121
C74	C	1.267295	0.299635	0.405454
C75	C	1.600628	0.632968	0.738788
C76	C	0.932179	-0.120943	0.078485
C77	C	1.265512	0.212391	0.411819
C78	C	1.598845	0.545724	0.745152
C79	C	0.935323	-0.165891	0.003635
C80	C	1.268657	0.167443	0.336968
C81	C	1.601990	0.500776	0.670301
C82	C	0.933643	-0.247865	0.009617
C83	C	1.266976	0.085468	0.342950
C84	C	1.600310	0.418801	0.676284
C85	C	0.928824	-0.284891	0.090451
C86	C	1.262157	0.048442	0.423785
C87	C	1.595491	0.381776	0.757118
C88	C	0.925677	-0.239937	0.165307
C89	C	1.259010	0.093397	0.498641
C90	C	1.592343	0.426730	0.831974
C91	C	0.927351	-0.157963	0.159324
C92	C	1.260685	0.175370	0.492657
C93	C	1.594018	0.508704	0.825991
C94	C	0.923563	-0.532200	0.112412
C95	C	1.256897	-0.198867	0.445745
C96	C	1.590230	0.134467	0.779078
C97	C	0.921891	-0.614180	0.118390
C98	C	1.255225	-0.280847	0.451723
C99	C	1.588558	0.052486	0.785056
C100	C	0.929856	-0.622103	-0.037302
C101	C	1.263190	-0.288770	0.296032
C102	C	1.596523	0.044564	0.629365
C103	C	0.931535	-0.540128	-0.043278
C104	C	1.264869	-0.206795	0.290056
C105	C	1.598202	0.126539	0.623389
C106	C	0.928384	-0.495180	0.031578
C107	C	1.261717	-0.161847	0.364911
C108	C	1.595051	0.171486	0.698245
C109	C	0.927109	-0.368682	0.096568
C110	C	1.260442	-0.035349	0.429902
C111	C	1.593776	0.297984	0.763235
C112	C	0.930093	-0.411390	0.025460
C113	C	1.263427	-0.078056	0.358793
C114	C	1.596760	0.255277	0.692126
C115	C	1.072269	0.104601	0.072121
C116	C	1.405602	0.437935	0.405455
C117	C	1.738935	0.771268	0.738788
C118	C	1.159512	0.106378	0.078486
C119	C	1.492846	0.439712	0.411819
C120	C	1.826179	0.773045	0.745153
C121	C	0.923253	0.253628	0.049909
C122	C	1.256586	0.586961	0.383242
C123	C	1.589920	0.920294	0.716576
C124	C	0.925036	0.340872	0.043539
C125	C	1.258369	0.674205	0.376872
C126	C	1.591703	1.007538	0.710206
N127	N	0.918221	0.120316	0.264238
N128	N	1.251555	0.453649	0.597571
N129	N	1.584888	0.786982	0.930904
N130	N	0.938999	0.099608	-0.142205
N131	N	1.272333	0.432941	0.191128
N132	N	1.605666	0.766274	0.524462
C133	C	0.969228	0.069342	0.317115
C134	C	1.302561	0.402676	0.650449
C135	C	1.635894	0.736009	0.983782
C136	C	0.964646	0.073925	0.407005
C137	C	1.297979	0.407258	0.740338
C138	C	1.631312	0.740592	1.073672
C139	C	0.909061	0.129485	0.444016
C140	C	1.242394	0.462819	0.777349
C141	C	1.575727	0.796152	1.110682
C142	C	0.858049	0.180461	0.391131
C143	C	1.191382	0.513794	0.724464
C144	C	1.524716	0.847127	1.057798
C145	C	0.862628	0.175874	0.301243
C146	C	1.195961	0.509207	0.634576
C147	C	1.529294	0.842540	0.967910
C148	C	0.892566	0.145996	0.715022
C149	C	1.225900	0.479330	1.048356
C150	C	1.559233	0.812663	1.381689
C151	C	0.887993	0.150581	0.804917
C152	C	1.221326	0.483914	1.138251
C153	C	1.554660	0.817248	1.471584
C154	C	0.994589	0.044044	0.820785
C155	C	1.327923	0.377377	1.154119
C156	C	1.661256	0.710710	1.487452
C157	C	0.999166	0.039465	0.730895
C158	C	1.332500	0.372798	1.064228
C159	C	1.665833	0.706131	1.397561
C160	C	0.948152	0.090437	0.678018
C161	C	1.281485	0.423771	1.011352
C162	C	1.614818	0.757104	1.344685
C163	C	0.904378	0.134172	0.535897
C164	C	1.237711	0.467506	0.869231
C165	C	1.571044	0.800839	1.202564
C166	C	0.952832	0.085746	0.586138
C167	C	1.286165	0.419079	0.919472
C168	C	1.619498	0.752413	1.252805
H169	H	0.534163	0.117530	0.173360
H170	H	0.867496	0.450864	0.506693
H171	H	1.200829	0.784197	0.840027
H172	H	0.682865	0.120598	0.184213
H173	H	1.016199	0.453931	0.517546
H174	H	1.349532	0.787265	0.850879
H175	H	1.044428	-0.005777	0.700763
H176	H	1.377761	0.327556	1.034097
H177	H	1.711095	0.660890	1.367430
F178	F	0.920539	-0.279343	0.251337
F179	F	1.253872	0.053990	0.584671
F180	F	1.587206	0.387323	0.918004
F181	F	0.410576	0.103333	-0.060569
F182	F	0.743909	0.436666	0.272764
F183	F	1.077242	0.769999	0.606097
H184	H	0.821092	0.217381	0.258190
H185	H	1.154425	0.550714	0.591523
H186	H	1.487759	0.884047	0.924857
H187	H	0.308622	0.116775	0.231127
H188	H	0.641956	0.450108	0.564460
H189	H	0.975289	0.783441	0.897793
F190	F	0.935224	-0.371983	-0.060567
F191	F	1.268558	-0.038649	0.272766
F192	F	1.601891	0.294684	0.606100
H193	H	0.159904	0.113735	0.220270
H194	H	0.493238	0.447069	0.553603
H195	H	0.826571	0.780402	0.886937
H196	H	0.917963	-0.644323	0.184218
H197	H	1.251296	-0.310990	0.517551
H198	H	1.584630	0.022344	0.850884
H199	H	0.924779	-0.121365	0.220275
H200	H	1.258113	0.211968	0.553608
H201	H	1.591446	0.545301	0.886941
F202	F	0.165089	0.098138	-0.082404
F203	F	0.498422	0.431472	0.250929
F204	F	0.831756	0.764805	0.584263
F205	F	0.940458	-0.126493	-0.082401
F206	F	1.273791	0.206840	0.250933
F207	F	1.607125	0.540173	0.584266
H208	H	0.548588	0.103143	-0.109100
H209	H	0.881921	0.436476	0.224233
H210	H	1.215254	0.769809	0.557567
F211	F	0.838275	0.200247	0.658754
F212	F	1.171609	0.533580	0.992088
F213	F	1.504942	0.866914	1.325421
H214	H	0.932421	-0.658708	-0.098245
H215	H	1.265754	-0.325375	0.235088
H216	H	1.599087	0.007959	0.568422
H217	H	0.697306	0.106192	-0.098252
H218	H	1.030640	0.439525	0.235081
H219	H	1.363973	0.772858	0.568415
F220	F	0.334296	0.101589	-0.070056
F221	F	0.667629	0.434922	0.263277
F222	F	1.000962	0.768256	0.596610
H223	H	0.437383	0.115351	0.162380
H224	H	0.770717	0.448684	0.495713
H225	H	1.104050	0.782018	0.829046
H226	H	1.006179	0.032418	0.450058
H227	H	1.339512	0.365751	0.783392
H228	H	1.672845	0.699084	1.116725
H229	H	0.936207	-0.284459	-0.051335
H230	H	1.269540	0.048874	0.281999
H231	H	1.602874	0.382207	0.615332
F232	F	0.921977	-0.408095	0.182596
F233	F	1.255310	-0.074761	0.515929
F234	F	1.588643	0.258572	0.849262
F235	F	0.936666	-0.500729	-0.129313
F236	F	1.270000	-0.167395	0.204021
F237	F	1.603333	0.165938	0.537354
H238	H	0.842727	0.195828	0.835046
H239	H	1.176060	0.529162	1.168379
H240	H	1.509393	0.862495	1.501712
H241	H	0.812786	0.225697	0.421270
H242	H	1.146120	0.559030	0.754603
H243	H	1.479453	0.892363	1.087937
H244	H	0.998086	0.040506	0.556002
H245	H	1.331420	0.373839	0.889335
H246	H	1.664753	0.707172	1.222669
F247	F	0.920199	-0.484372	0.192080
F248	F	1.253533	-0.151039	0.525413
F249	F	1.586866	0.182294	0.858747
H250	H	1.014494	0.024102	0.286988
H251	H	1.347827	0.357436	0.620322
H252	H	1.681161	0.690769	0.953655
H253	H	1.036122	0.002543	0.863845
H254	H	1.369455	0.335876	1.197179
H255	H	1.702789	0.669210	1.530512
H256	H	0.859120	0.179412	0.566038
H257	H	1.192454	0.512745	0.899372
H258	H	1.525787	0.846079	1.232705
