data_functionalizedCrystal
_audit_creation_method	'MofGen! by Chris Wilmer'
_symmetry_space_group_name_H-M	'P1'
_symmetry_Int_Tables_number	1
_symmetry_cell_setting	triclinic
loop_
_symmetry_equiv_pos_as_xyz
  x,y,z
_cell_length_a	12.759395
_cell_length_b	12.759399
_cell_length_c	12.759393
_cell_angle_alpha	90.031355
_cell_angle_beta	89.979125
_cell_angle_gamma	89.975602
loop_
_atom_site_label
_atom_site_type_symbol
_atom_site_fract_x
_atom_site_fract_y
_atom_site_fract_z
Zn1	Zn	1.606202	0.418194	-0.594012
Zn2	Zn	1.606066	0.593910	-0.418330
Zn3	Zn	1.430501	0.418248	-0.418347
Zn4	Zn	1.430465	0.593834	-0.593967
O5	O	1.518308	0.506046	-0.506164
O6	O	1.753205	0.441512	-0.570719
O7	O	1.582734	0.570662	-0.271311
O8	O	1.453880	0.271220	-0.441676
O9	O	1.753105	0.570610	-0.441646
O10	O	1.582967	0.271180	-0.570736
O11	O	1.453747	0.441604	-0.271324
O12	O	1.283475	0.441530	-0.441632
O13	O	1.453819	0.570481	-0.740994
O14	O	1.283449	0.570533	-0.570659
O15	O	1.582932	0.441439	-0.741027
O16	O	1.582700	0.740921	-0.441602
O17	O	1.453687	0.740865	-0.570642
C18	C	1.245341	0.506030	-0.506143
C19	C	1.128564	0.506048	-0.506160
C20	C	0.909233	0.371859	-0.640816
C21	C	0.964152	0.304742	-0.708114
C22	C	1.073873	0.304724	-0.708095
C23	C	1.128679	0.371833	-0.640774
C24	C	1.073761	0.438949	-0.573476
C25	C	0.964037	0.438958	-0.573499
C26	C	1.073646	0.573165	-0.438862
C27	C	0.963924	0.573179	-0.438873
C28	C	1.128451	0.640273	-0.371540
C29	C	1.073533	0.707386	-0.304235
C30	C	0.963805	0.707401	-0.304255
C31	C	0.909006	0.640296	-0.371575
C32	C	1.518203	0.779014	-0.506138
C33	C	1.518254	0.895790	-0.506162
C34	C	1.585432	0.950542	-0.573419
C35	C	1.585474	1.060266	-0.573445
C36	C	1.451157	1.060477	-0.438947
C37	C	1.451111	0.950755	-0.438927
C38	C	1.623012	1.210095	-0.697410
C39	C	1.690206	1.264850	-0.764658
C40	C	1.792697	1.229141	-0.780872
C41	C	1.828015	1.138678	-0.729822
C42	C	1.760827	1.083928	-0.662566
C43	C	1.658321	1.119636	-0.646372
C44	C	1.413584	0.800925	-0.314961
C45	C	1.346400	0.746173	-0.247699
C46	C	1.243907	0.781880	-0.231475
C47	C	1.208593	0.872347	-0.282506
C48	C	1.275777	0.927098	-0.349768
C49	C	1.378269	0.891384	-0.365994
C50	C	1.792342	0.506064	-0.506185
C51	C	1.909118	0.506071	-0.506194
C52	C	1.518387	0.505946	-0.780197
C53	C	1.518420	0.505903	-0.896974
C54	C	1.518403	1.232013	-0.506206
C55	C	1.518342	1.115236	-0.506207
C56	C	1.585655	0.438700	-0.951855
C57	C	1.585672	0.438654	-1.061579
C58	C	1.451219	0.573024	-1.061532
C59	C	1.451197	0.573063	-0.951810
C60	C	1.623304	0.314698	-1.211559
C61	C	1.690554	0.247505	-1.266444
C62	C	1.793070	0.231396	-1.230853
C63	C	1.828355	0.282495	-1.140378
C64	C	1.761110	0.349697	-1.085499
C65	C	1.658580	0.365786	-1.121089
C66	C	1.413576	0.697020	-0.801828
C67	C	1.346335	0.764228	-0.746947
C68	C	1.243818	0.780348	-0.782536
C69	C	1.208537	0.729267	-0.873014
C70	C	1.275777	0.662059	-0.927895
C71	C	1.378293	0.645938	-0.892298
C72	C	1.518290	0.506071	-0.233197
C73	C	1.518460	0.505818	-0.116421
H74	H	1.217793	0.640260	-0.371536
H75	H	1.661441	1.338505	-0.806223
H76	H	1.247042	0.620466	-1.001567
C77	C	0.788537	0.371866	-0.640835
N78	N	0.697626	0.371871	-0.640853
H79	H	1.847407	1.273730	-0.835627
H80	H	1.118165	0.762026	-0.249433
C81	C	1.134285	0.230893	-0.782125
N82	N	1.179787	0.175281	-0.837884
H83	H	1.640103	0.905792	-0.628167
H84	H	1.189076	0.835083	-0.737847
H85	H	1.218020	0.371822	-0.640775
C86	C	1.799668	0.984420	-0.606419
N87	N	1.828924	0.909464	-0.564136
C88	C	0.903858	0.230910	-0.782147
N89	N	0.858447	0.175295	-0.837905
C90	C	1.095761	0.746997	-0.912164
N91	N	1.010817	0.760356	-0.941651
C92	C	1.867041	0.157474	-1.291225
N93	N	1.922749	0.101790	-1.336699
H94	H	1.911478	1.109617	-0.743019
C95	C	1.510249	1.249355	-0.679620
N96	N	1.425311	1.278925	-0.666230
H97	H	1.640390	0.384010	-0.907211
H98	H	0.919097	0.762060	-0.249458
H99	H	1.396493	1.105243	-0.384205
C100	C	1.526353	0.679294	-0.762673
N101	N	1.611298	0.665949	-0.733182
C102	C	1.236924	1.026611	-0.405910
N103	N	1.207661	1.101561	-0.448197
C104	C	0.788309	0.640307	-0.371605
N105	N	0.697399	0.640315	-0.371633
H106	H	1.125135	0.901422	-0.269293
H107	H	1.396490	0.627706	-1.106192
C108	C	1.385152	0.820424	-0.647422
N109	N	1.414389	0.862748	-0.572459
C110	C	1.170007	0.721650	-0.157478
N111	N	1.114344	0.676286	-0.101749
C112	C	1.526333	0.761638	-0.332805
N113	N	1.611257	0.732047	-0.346239
H114	H	1.911838	0.269381	-1.111413
H115	H	1.375164	0.672514	-0.206142
C116	C	1.799916	0.405899	-0.985979
N117	N	1.829146	0.448223	-0.911014
C118	C	1.651733	0.191288	-1.365956
N119	N	1.622496	0.148945	-1.440909
H120	H	1.539825	0.327800	-1.240541
