data_functionalizedCrystal
_audit_creation_method	'MofGen! by Chris Wilmer'
_symmetry_space_group_name_H-M	'P1'
_symmetry_Int_Tables_number	1
_symmetry_cell_setting	triclinic
loop_
_symmetry_equiv_pos_as_xyz
  x,y,z
_cell_length_a	18.101398
_cell_length_b	18.101395
_cell_length_c	18.101389
_cell_angle_alpha	89.983159
_cell_angle_beta	90.024327
_cell_angle_gamma	89.973629
loop_
_atom_site_label
_atom_site_type_symbol
_atom_site_fract_x
_atom_site_fract_y
_atom_site_fract_z
Zn1	Zn	1.132121	0.295001	0.418847
Zn2	Zn	1.132017	0.418826	0.295009
Zn3	Zn	1.008280	0.294993	0.295008
Zn4	Zn	1.008231	0.418795	0.418797
O5	O	1.070162	0.356904	0.356915
O6	O	1.235740	0.311443	0.402440
O7	O	1.115580	0.402410	0.191376
O8	O	1.024772	0.191361	0.311456
O9	O	1.235664	0.402417	0.311457
O10	O	1.115757	0.191367	0.402440
O11	O	1.024671	0.311430	0.191375
O12	O	0.904641	0.311399	0.311408
O13	O	1.024688	0.402363	0.522437
O14	O	0.904604	0.402356	0.402355
O15	O	1.115710	0.311412	0.522473
O16	O	1.115532	0.522455	0.311409
O17	O	1.024587	0.522432	0.402356
C18	C	0.877752	0.356874	0.356877
C19	C	0.795437	0.356879	0.356878
C20	C	1.070063	0.549314	0.356893
C21	C	1.070088	0.631628	0.356909
C22	C	0.496347	0.356925	0.356940
C23	C	0.527670	0.299412	0.299997
C24	C	0.613288	0.299566	0.299754
C25	C	0.644729	0.356901	0.356909
C26	C	0.613611	0.434909	0.335587
C27	C	0.527966	0.434590	0.335191
C28	C	0.527961	0.337109	0.435339
C29	C	0.613612	0.335371	0.434911
C30	C	0.728589	0.356893	0.356893
C31	C	0.412487	0.356939	0.356954
C32	C	1.070205	0.356885	0.550077
C33	C	1.070223	0.356877	0.632391
C34	C	1.263324	0.356934	0.356954
C35	C	1.345638	0.356948	0.356971
C36	C	1.070282	0.163742	0.356953
C37	C	1.070333	0.081428	0.356970
C38	C	1.070251	0.930719	0.356949
C39	C	1.013163	0.899410	0.414312
C40	C	1.012892	0.813792	0.414133
C41	C	1.070170	0.782337	0.356930
C42	C	1.049041	0.813472	0.278878
C43	C	1.048673	0.899117	0.279221
C44	C	1.148593	0.899073	0.376950
C45	C	1.148132	0.813422	0.378661
C46	C	1.070126	0.698477	0.356914
C47	C	1.070293	1.014579	0.356959
C48	C	1.070162	0.356869	0.164505
C49	C	1.070287	0.356668	0.082191
C50	C	1.070266	0.356738	0.931482
C51	C	1.012801	0.413780	0.900134
C52	C	1.012956	0.414045	0.814516
C53	C	1.070244	0.356807	0.783100
C54	C	1.148270	0.377998	0.814206
C55	C	1.147949	0.378372	0.899851
C56	C	1.050385	0.278379	0.899905
C57	C	1.048649	0.278832	0.814254
C58	C	1.070237	0.356845	0.699240
C59	C	1.070279	0.356702	1.015342
H60	H	0.634329	0.241719	0.313119
O61	O	1.170262	0.454249	0.926333
H62	H	1.181176	0.490330	0.877968
H63	H	0.507099	0.241388	0.313215
O64	O	0.499150	0.316573	0.223486
H65	H	0.462762	0.365886	0.225839
O66	O	1.206596	0.325745	0.927333
H67	H	1.235063	0.300144	0.879448
O68	O	0.976327	0.252808	0.928492
H69	H	0.963581	0.197449	0.905433
O70	O	1.030278	0.926630	0.491277
H71	H	0.982369	0.958332	0.512720
H72	H	0.633956	0.277966	0.450989
H73	H	0.991406	0.919153	0.262279
H74	H	0.635017	0.374209	0.479611
O75	O	0.501453	0.456839	0.259270
H76	H	0.467298	0.507591	0.263620
O77	O	1.102384	0.786486	0.220717
H78	H	1.086233	0.809271	0.166112
O79	O	1.207443	0.785075	0.327330
H80	H	1.209369	0.723853	0.330201
O81	O	0.935925	0.396395	0.927395
H82	H	0.899296	0.385348	0.879468
H83	H	1.192236	0.337757	0.793859
O84	O	1.170987	0.453070	0.785818
H85	H	1.126836	0.475409	0.749563
H86	H	0.633975	0.478909	0.375763
O87	O	1.101364	0.926557	0.220682
H88	H	1.101503	0.987875	0.220494
H89	H	0.991229	0.262852	0.793921
H90	H	1.087450	0.234076	0.792868
H91	H	0.955097	0.400784	0.793483
H92	H	1.092240	0.235880	0.920179
H93	H	0.633741	0.312665	0.241661
H94	H	0.507244	0.478892	0.374857
O95	O	0.935977	0.786717	0.396580
H96	H	0.937453	0.752820	0.345514
H97	H	0.992380	0.792080	0.261633
O98	O	1.169255	0.786456	0.454742
H99	H	1.124421	0.751057	0.476990
H100	H	1.026111	0.792740	0.472007
O101	O	0.641964	0.457563	0.260485
H102	H	0.678208	0.413394	0.238225
H103	H	0.506389	0.281216	0.454725
H104	H	0.507705	0.378999	0.477766
H105	H	0.955448	0.920990	0.401230
H106	H	1.191125	0.919319	0.335170
O107	O	1.174113	0.927619	0.451060
H108	H	1.131238	0.964685	0.474466
H109	H	1.025796	0.471508	0.921661
H110	H	1.026082	0.472127	0.794035
