data_functionalizedCrystal
_audit_creation_method	'MofGen! by Chris Wilmer'
_symmetry_space_group_name_H-M	'P1'
_symmetry_Int_Tables_number	1
_symmetry_cell_setting	triclinic
loop_
_symmetry_equiv_pos_as_xyz
  x,y,z
_cell_length_a	12.759401
_cell_length_b	13.897448
_cell_length_c	12.759393
_cell_angle_alpha	89.967728
_cell_angle_beta	89.979062
_cell_angle_gamma	90.019217
loop_
_atom_site_label
_atom_site_type_symbol
_atom_site_fract_x
_atom_site_fract_y
_atom_site_fract_z
Zn1	Zn	1.606245	-0.383929	-0.594007
Zn2	Zn	1.606126	-0.545255	-0.418322
Zn3	Zn	1.430543	-0.383980	-0.418342
Zn4	Zn	1.430526	-0.545188	-0.593959
O5	O	1.518360	-0.464588	-0.506158
O6	O	1.753250	-0.405336	-0.570714
O7	O	1.582793	-0.523912	-0.271303
O8	O	1.453907	-0.248992	-0.441673
O9	O	1.753163	-0.523862	-0.441638
O10	O	1.582994	-0.248954	-0.570734
O11	O	1.453793	-0.405423	-0.271318
O12	O	1.283520	-0.405358	-0.441627
O13	O	1.453878	-0.523747	-0.740987
O14	O	1.283507	-0.523797	-0.570652
O15	O	1.582977	-0.405271	-0.741022
O16	O	1.582776	-0.680228	-0.441592
O17	O	1.453763	-0.680179	-0.570632
C18	C	1.245393	-0.464576	-0.506137
C19	C	1.128616	-0.464595	-0.506153
C20	C	1.073775	-0.526359	-0.573230
C21	C	0.964051	-0.526363	-0.573251
C22	C	0.964019	-0.402834	-0.439108
C23	C	1.073741	-0.402827	-0.439093
C24	C	1.518283	-0.715203	-0.506127
C25	C	1.518347	-0.822416	-0.506149
C26	C	1.518457	-1.018711	-0.506215
C27	C	1.518393	-0.909479	-0.506182
C28	C	1.792393	-0.464601	-0.506179
C29	C	1.909170	-0.464606	-0.506188
C30	C	1.518439	-0.464496	-0.780191
C31	C	1.518472	-0.464456	-0.896968
C32	C	1.518466	-0.212995	-0.506211
C33	C	1.518511	-0.105781	-0.506234
C34	C	1.585699	-0.402756	-0.951850
C35	C	1.585717	-0.402714	-1.061574
C36	C	1.451278	-0.526082	-1.061524
C37	C	1.451255	-0.526118	-0.951802
C38	C	1.518342	-0.464611	-0.233190
C39	C	1.518512	-0.464379	-0.116414
H40	H	0.919404	-0.576657	-0.627874
O41	O	0.910661	-0.342978	-0.373855
C42	C	0.786661	-0.329847	-0.232098
C43	C	0.847040	-0.397744	-0.305915
H44	H	0.735192	-0.374097	-0.177165
H45	H	0.844658	-0.285712	-0.184077
H46	H	0.735377	-0.279452	-0.280465
H47	H	0.898325	-0.448198	-0.257630
H48	H	0.788986	-0.441811	-0.353940
O49	O	1.126858	-0.342795	-0.373830
C50	C	1.115256	-0.220230	-0.240824
C51	C	1.054971	-0.288181	-0.314655
H52	H	1.057162	-0.176043	-0.192978
H53	H	1.166559	-0.264405	-0.185728
H54	H	1.166691	-0.169887	-0.289171
H55	H	1.003479	-0.338538	-0.266393
H56	H	1.003735	-0.243947	-0.369754
O57	O	1.651018	-0.342763	-0.898745
C58	C	1.784403	-0.220430	-0.910381
C59	C	1.710468	-0.288311	-0.970647
H60	H	1.832503	-0.176402	-0.968487
H61	H	1.736229	-0.169943	-0.859044
H62	H	1.839265	-0.264749	-0.858982
H63	H	1.655590	-0.244070	-1.022103
H64	H	1.758707	-0.338801	-1.021918
O65	O	1.127198	-0.586217	-0.638429
C66	C	1.251092	-0.599333	-0.780279
C67	C	1.190680	-0.531438	-0.706487
H68	H	1.302416	-0.555071	-0.835337
H69	H	1.302494	-0.649701	-0.732001
H70	H	1.193024	-0.643498	-0.828178
H71	H	1.248673	-0.487211	-0.658572
H72	H	1.139262	-0.481134	-0.754824
H73	H	1.396554	-0.576287	-1.106184
O74	O	1.386061	-0.586197	-0.898529
C75	C	1.334939	-0.750278	-0.864947
C76	C	1.408851	-0.682357	-0.925326
H77	H	1.353324	-0.828036	-0.886607
H78	H	1.346473	-0.739791	-0.777095
H79	H	1.250241	-0.733277	-0.886496
H80	H	1.493578	-0.699315	-0.903865
H81	H	1.397227	-0.692856	-1.013163
H82	H	1.640459	-0.352470	-1.106254
