data_functionalizedCrystal
_audit_creation_method	'MofGen! by Chris Wilmer'
_symmetry_space_group_name_H-M	'P1'
_symmetry_Int_Tables_number	1
_symmetry_cell_setting	triclinic
loop_
_symmetry_equiv_pos_as_xyz
  x,y,z
_cell_length_a	15.944499
_cell_length_b	15.944551
_cell_length_c	15.455313
_cell_angle_alpha	92.664316
_cell_angle_beta	87.316496
_cell_angle_gamma	83.488174
loop_
_atom_site_label
_atom_site_type_symbol
_atom_site_fract_x
_atom_site_fract_y
_atom_site_fract_z
O1	O	1.118236	0.104448	-0.072185
O2	O	0.873679	0.117850	-0.072175
O3	O	1.002635	-0.011127	-0.072173
O4	O	0.989280	0.233425	-0.072188
O5	O	0.995261	-0.003782	0.072089
O6	O	0.866305	0.125195	0.072087
O7	O	1.110861	0.111793	0.072077
Cu8	Cu	0.987910	0.119165	0.085254
Cu9	Cu	0.996631	0.110478	-0.085352
O10	O	0.981905	0.240770	0.072074
C11	C	0.838698	0.120974	-0.000043
C12	C	0.745449	0.119329	-0.000039
C13	C	0.998394	-0.038748	-0.000041
C14	C	0.996731	-0.131994	-0.000041
C15	C	0.453914	0.194261	-0.000057
C16	C	0.518579	0.151687	-0.071185
C17	C	0.409813	0.113352	-0.000059
C18	C	0.511294	0.158907	0.071046
C19	C	0.574722	0.116293	-0.000048
C20	C	0.473253	0.070753	-0.071246
C21	C	0.465959	0.077988	0.071049
C22	C	0.530608	0.035355	-0.000096
C23	C	0.314814	0.111660	-0.000066
C24	C	0.669721	0.117979	-0.000047
C25	C	0.912825	-0.346835	-0.000050
C26	C	0.948153	-0.404238	0.071079
C27	C	0.993724	-0.302719	-0.000047
C28	C	0.955442	-0.411463	-0.071152
C29	C	0.990814	-0.467632	-0.000057
C30	C	1.029071	-0.358891	0.071140
C31	C	1.036353	-0.366113	-0.071155
C32	C	1.071738	-0.423498	-0.000009
C33	C	0.995399	-0.207717	-0.000041
C34	C	0.989146	-0.562633	-0.000058
C35	C	1.145843	0.108669	-0.000057
C36	C	1.239092	0.110313	-0.000067
C37	C	0.986147	0.268391	-0.000059
C38	C	0.987810	0.361636	-0.000065
N39	N	0.981782	0.125274	0.205250
N40	N	1.002765	0.104363	-0.205348
C41	C	1.036586	0.070500	0.250645
C42	C	1.031960	0.075128	0.341453
C43	C	0.972533	0.134534	0.386863
C44	C	0.917723	0.189310	0.341462
C45	C	0.922346	0.184678	0.250656
C46	C	0.952578	0.154506	0.658444
C47	C	0.947961	0.159136	0.749257
C48	C	1.062198	0.044953	0.749242
C49	C	1.066819	0.040329	0.658434
C50	C	1.012006	0.095102	0.613040
N51	N	0.967804	0.139267	0.479684
N52	N	1.016731	0.090364	0.520221
H53	H	0.420588	0.261403	-0.000130
H54	H	0.877718	0.229279	0.213696
Cl55	Cl	0.890581	-0.430548	0.163925
H56	H	0.845672	-0.313511	0.000024
Cl57	Cl	1.175498	-0.474713	0.000045
H58	H	1.084981	0.022129	0.213677
Cl59	Cl	0.581844	-0.068404	-0.000148
Cl60	Cl	1.100857	0.006267	0.398523
Cl61	Cl	0.554346	0.199792	-0.164034
H62	H	0.456352	0.033499	-0.131446
Cl63	Cl	1.131098	-0.023904	0.806312
Cl64	Cl	0.430149	0.029924	0.163900
Cl65	Cl	0.537547	0.216488	0.163882
Cl66	Cl	1.093883	-0.339767	-0.164006
H67	H	1.060182	-0.335842	0.131339
Cl68	Cl	0.907338	-0.447199	-0.163986
H69	H	0.899566	0.207515	0.786226
Cl70	Cl	1.141528	-0.034353	0.601346
Cl71	Cl	0.883676	0.223365	0.601384
H72	H	0.869332	0.237677	0.378440
