data_functionalizedCrystal
_audit_creation_method	'MofGen! by Chris Wilmer'
_symmetry_space_group_name_H-M	'P1'
_symmetry_Int_Tables_number	1
_symmetry_cell_setting	triclinic
loop_
_symmetry_equiv_pos_as_xyz
  x,y,z
_cell_length_a	11.026607
_cell_length_b	22.610064
_cell_length_c	11.026607
_cell_angle_alpha	90.000132
_cell_angle_beta	71.413983
_cell_angle_gamma	90.014614
loop_
_atom_site_label
_atom_site_type_symbol
_atom_site_fract_x
_atom_site_fract_y
_atom_site_fract_z
O1	O	1.726753	0.049183	-0.533625
O2	O	1.360173	0.049184	-0.472862
O3	O	1.513081	0.049182	-0.319953
O4	O	1.573845	0.049186	-0.686533
O5	O	1.513024	-0.049188	-0.319941
O6	O	1.360116	-0.049185	-0.472849
O7	O	1.726696	-0.049186	-0.533612
Zn8	Zn	1.543396	-0.064804	-0.503228
Zn9	Zn	1.543472	0.064802	-0.503245
O10	O	1.573787	-0.049184	-0.686520
C11	C	1.312485	-0.000000	-0.461645
C12	C	1.170471	-0.000000	-0.428228
N13	N	1.543354	-0.153256	-0.503218
C14	C	1.116821	0.000001	-0.520498
C15	C	0.970043	0.000002	-0.485962
C16	C	1.637648	-0.561897	-0.597448
C17	C	1.637663	-0.623817	-0.597449
O18	O	1.717782	-0.655835	-0.677547
N19	N	1.543493	-0.654793	-0.503236
C20	C	1.449310	-0.623847	-0.409010
O21	O	1.369214	-0.655880	-0.328874
C22	C	1.449301	-0.561928	-0.409005
C23	C	1.543469	-0.530955	-0.503231
C24	C	1.731809	-0.530924	-0.691666
C25	C	1.731792	-0.469008	-0.691667
C26	C	1.637613	-0.438066	-0.597450
C27	C	1.543452	-0.469039	-0.503232
C28	C	1.355124	-0.530982	-0.314774
C29	C	1.355124	-0.469059	-0.314777
C30	C	1.449292	-0.438086	-0.409003
C31	C	1.449257	-0.376181	-0.409015
N32	N	1.543426	-0.345205	-0.503228
C33	C	1.637605	-0.376147	-0.597445
C34	C	1.449337	-0.753880	-0.409025
C35	C	1.449340	-0.815798	-0.409034
C36	C	1.637694	-0.815764	-0.597472
C37	C	1.637685	-0.753845	-0.597468
C38	C	1.543507	-0.722904	-0.503238
C39	C	1.637561	-0.246120	-0.597440
C40	C	1.637532	-0.184199	-0.597435
C41	C	1.449182	-0.184238	-0.408994
C42	C	1.449206	-0.246154	-0.409002
C43	C	1.543406	-0.277093	-0.503231
O44	O	1.369181	-0.344124	-0.328955
O45	O	1.717697	-0.344106	-0.677557
C46	C	1.774384	-0.000000	-0.544828
C47	C	1.916398	0.000003	-0.578245
C48	C	1.501843	-0.000002	-0.272287
C49	C	1.468426	-0.000000	-0.130273
N50	N	1.543523	0.153254	-0.503248
C51	C	1.585026	0.000002	-0.734187
C52	C	1.618443	0.000003	-0.876200
C53	C	1.560695	0.000000	-0.076624
C54	C	1.526160	0.000003	0.070155
H55	H	0.907314	0.000016	-0.381393
H56	H	1.808478	-0.443795	-0.768391
N57	N	1.258934	-0.562618	-0.218535
N58	N	1.185532	-0.597180	-0.249823
H59	H	1.117591	-0.619522	-0.181850
H60	H	1.179555	-0.000001	-0.625061
H61	H	1.107738	0.000014	-0.323666
H62	H	1.665258	-0.000003	-0.139357
N63	N	0.995096	-0.000004	-0.709424
N64	N	1.114218	-0.000008	-0.737296
H65	H	1.169800	-0.000015	-0.829940
H66	H	1.723013	0.000047	0.061072
N67	N	1.394982	0.000011	0.148855
N68	N	1.367113	0.000015	0.267977
H69	H	1.274471	0.000021	0.323562
H70	H	1.714216	-0.158983	-0.674171
N71	N	1.733795	-0.277708	-0.693697
N72	N	1.817854	-0.250036	-0.777806
H73	H	1.885816	-0.272345	-0.845791
H74	H	1.372502	-0.159034	-0.332287
N75	N	1.828033	-0.562515	-0.787920
N76	N	1.912092	-0.534841	-0.872024
H77	H	1.980053	-0.557148	-0.940015
N78	N	1.337256	-0.000005	-0.051567
N79	N	1.294641	-0.041469	0.025198
H80	H	1.201999	-0.041474	0.080785
H81	H	1.714365	-0.728631	-0.674196
H82	H	1.714378	-0.840968	-0.674190
H83	H	1.372634	-0.728692	-0.332294
N84	N	1.353123	-0.847423	-0.312792
N85	N	1.269042	-0.819781	-0.228685
H86	H	1.201087	-0.842114	-0.160707
N87	N	1.258948	-0.437450	-0.218501
N88	N	1.248302	-0.444367	-0.103092
H89	H	1.180384	-0.422042	-0.035095
N90	N	1.352992	-0.277787	-0.312763
N91	N	1.268904	-0.250149	-0.228655
H92	H	1.200953	-0.272485	-0.160680
