data_functionalizedCrystal
_audit_creation_method	'MofGen! by Chris Wilmer'
_symmetry_space_group_name_H-M	'P1'
_symmetry_Int_Tables_number	1
_symmetry_cell_setting	triclinic
loop_
_symmetry_equiv_pos_as_xyz
  x,y,z
_cell_length_a	10.654534
_cell_length_b	10.868271
_cell_length_c	11.792254
_cell_angle_alpha	89.994692
_cell_angle_beta	84.338501
_cell_angle_gamma	89.994901
loop_
_atom_site_label
_atom_site_type_symbol
_atom_site_fract_x
_atom_site_fract_y
_atom_site_fract_z
O1	O	-1.667410	0.102346	-0.159334
O2	O	-1.167410	0.602346	0.340666
O3	O	-1.301886	0.102344	-0.174541
O4	O	-0.801886	0.602344	0.325459
O5	O	-1.493510	0.102336	-0.001788
O6	O	-0.993510	0.602336	0.498212
O7	O	-1.475786	0.102354	-0.332087
O8	O	-0.975786	0.602354	0.167913
O9	O	-1.493494	-0.102308	-0.001781
O10	O	-0.993494	0.397692	0.498219
O11	O	-1.301871	-0.102301	-0.174534
O12	O	-0.801871	0.397699	0.325466
O13	O	-1.667394	-0.102299	-0.159327
O14	O	-1.167394	0.397701	0.340673
Zn15	Zn	-1.484630	-0.134792	-0.166929
Zn16	Zn	-0.984630	0.365208	0.333071
Zn17	Zn	-1.484651	0.134837	-0.166938
Zn18	Zn	-0.984651	0.634837	0.333062
O19	O	-1.475770	-0.102291	-0.332080
O20	O	-0.975770	0.397709	0.167920
C21	C	-1.255083	0.000021	-0.173425
C22	C	-0.755083	0.500021	0.326575
C23	C	-1.115648	0.000020	-0.170095
C24	C	-0.615648	0.500020	0.329905
N25	N	-1.484625	-0.318806	-0.166923
N26	N	-0.984625	0.181194	0.333077
C27	C	-1.050139	-0.111534	-0.168524
C28	C	-0.550139	0.388466	0.331476
C29	C	-0.919128	-0.111537	-0.165377
C30	C	-0.419128	0.388463	0.334623
C31	C	-0.919146	0.111578	-0.165377
C32	C	-0.419146	0.611578	0.334623
C33	C	-1.050156	0.111579	-0.168516
C34	C	-0.550156	0.611579	0.331484
C35	C	-1.484644	-0.569812	-0.166936
C36	C	-0.984644	-0.069812	0.333064
C37	C	-1.484629	-0.430134	-0.166932
C38	C	-0.984629	0.069866	0.333068
C39	C	-0.714196	0.000022	-0.160452
C40	C	-0.214196	0.500022	0.339548
C41	C	-0.853627	0.000015	-0.163809
C42	C	-0.353627	0.500015	0.336191
C43	C	-1.492386	0.000014	0.040509
C44	C	-0.992386	0.500014	0.540509
C45	C	-1.489044	0.000015	0.166529
C46	C	-0.989044	0.500015	0.666529
N47	N	-1.484666	0.318851	-0.166936
N48	N	-0.984666	0.818851	0.333064
C49	C	-1.476895	0.000034	-0.374377
C50	C	-0.976895	0.500034	0.125623
C51	C	-1.480237	0.000040	-0.500397
C52	C	-0.980237	0.500040	-0.000397
C53	C	-1.486329	0.000020	0.268872
C54	C	-0.986329	0.500020	0.768872
C55	C	-1.482933	0.000031	0.397266
C56	C	-0.982933	0.500031	0.897266
H57	H	-1.103459	-0.202373	-0.169810
H58	H	-0.603459	0.297627	0.330190
H59	H	-1.103495	0.202425	-0.169792
H60	H	-0.603495	0.702425	0.330208
C61	C	-0.932322	0.332116	-0.165699
C62	C	-0.432322	0.832116	0.334301
C63	C	-0.847151	0.234201	-0.163659
C64	C	-0.347151	0.734201	0.336341
H65	H	-0.887875	0.407819	-0.164637
H66	H	-0.387875	0.907819	0.335363
H67	H	-0.974294	0.327476	-0.232988
H68	H	-0.474294	0.827476	0.267012
H69	H	-0.992549	0.327468	-0.100843
H70	H	-0.492549	0.827468	0.399157
H71	H	-0.786930	0.238844	-0.228520
H72	H	-0.286930	0.738844	0.271480
H73	H	-0.805158	0.238843	-0.096364
H74	H	-0.305158	0.738843	0.403636
H75	H	-0.865796	-0.202376	-0.164098
H76	H	-0.365796	0.297624	0.335902
