data_functionalizedCrystal
_audit_creation_method	'MofGen! by Chris Wilmer'
_symmetry_space_group_name_H-M	'P1'
_symmetry_Int_Tables_number	1
_symmetry_cell_setting	triclinic
loop_
_symmetry_equiv_pos_as_xyz
  x,y,z
_cell_length_a	14.185568
_cell_length_b	17.699083
_cell_length_c	17.699083
_cell_angle_alpha	83.283015
_cell_angle_beta	76.904141
_cell_angle_gamma	103.146802
loop_
_atom_site_label
_atom_site_type_symbol
_atom_site_fract_x
_atom_site_fract_y
_atom_site_fract_z
O1	O	-0.083275	-1.021263	-0.078572
O2	O	0.416725	-0.521263	0.421428
O3	O	-0.083308	-0.800891	-0.091018
O4	O	0.416692	-0.300891	0.408982
O5	O	-0.083281	-0.917301	0.025392
O6	O	0.416719	-0.417301	0.525392
O7	O	-0.083301	-0.904853	-0.194982
O8	O	0.416699	-0.404853	0.305018
O9	O	0.083545	-0.882860	-0.008940
O10	O	0.583545	-0.382860	0.491060
O11	O	0.083519	-0.766450	-0.125350
O12	O	0.583519	-0.266450	0.374650
O13	O	0.083552	-0.986822	-0.112904
O14	O	0.583552	-0.486822	0.387096
Cu15	Cu	0.098768	-0.873491	-0.122262
Cu16	Cu	0.598768	-0.373491	0.377738
Cu17	Cu	-0.098524	-0.914222	-0.081660
Cu18	Cu	0.401476	-0.414222	0.418340
O19	O	0.083526	-0.870412	-0.229314
O20	O	0.583526	-0.370412	0.270686
C21	C	0.000101	-0.755474	-0.107737
C22	C	0.500101	-0.255474	0.392263
C23	C	0.000089	-0.671459	-0.106395
C24	C	0.500089	-0.171459	0.393605
N25	N	-0.237288	-0.942870	-0.053097
N26	N	0.262712	-0.442870	0.446903
C27	C	0.000132	-0.899634	0.036423
C28	C	0.500132	-0.399634	0.536423
C29	C	0.000132	-0.898296	0.120441
C30	C	0.500132	-0.398296	0.620441
C31	C	-0.604979	-0.760645	-0.234666
C32	C	-0.104979	-0.260645	0.265334
C33	C	-0.709996	-0.782365	-0.213050
C34	C	-0.209996	-0.282365	0.286950
C35	C	-0.709934	-0.885639	-0.110180
C36	C	-0.209934	-0.385639	0.389820
C37	C	-0.604915	-0.863930	-0.131790
C38	C	-0.104915	-0.363930	0.368210
C39	C	-0.552446	-0.801432	-0.194033
C40	C	-0.052446	-0.301432	0.305967
C41	C	-0.552382	-0.904717	-0.091157
C42	C	-0.052382	-0.404717	0.408843
C43	C	-0.447372	-0.883006	-0.112762
C44	C	0.052628	-0.383006	0.387238
C45	C	-0.394896	-0.820509	-0.175002
C46	C	0.105104	-0.320509	0.324998
C47	C	-0.447437	-0.779721	-0.215639
C48	C	0.052563	-0.279721	0.284361
C49	C	-0.604853	-0.967211	-0.028910
C50	C	-0.104853	-0.467211	0.471090
C51	C	-0.552319	-1.007998	0.011723
C52	C	-0.052319	-0.507998	0.511723
C53	C	-0.447308	-0.986291	-0.009886
C54	C	0.052692	-0.486291	0.490114
C55	C	-0.394831	-0.923794	-0.072125
C56	C	0.105169	-0.423794	0.427875
C57	C	-0.394767	-1.027079	0.030751
C58	C	0.105233	-0.527079	0.530751
C59	C	-0.289757	-1.005368	0.009146
C60	C	0.210243	-0.505368	0.509146
C61	C	-0.289822	-0.902083	-0.093731
C62	C	0.210178	-0.402083	0.406269
N63	N	0.237533	-0.844849	-0.150818
N64	N	0.737533	-0.344849	0.349182
C65	C	0.000141	-1.032239	-0.096185
C66	C	0.500141	-0.532239	0.403815
C67	C	0.000146	-1.116256	-0.097524
C68	C	0.500146	-0.616256	0.402476
C69	C	0.000083	-0.622839	-0.174728
C70	C	0.500083	-0.122839	0.325272
C71	C	0.000096	-0.543893	-0.173468
C72	C	0.500096	-0.043893	0.326532
C73	C	0.000108	-0.513570	-0.103874
C74	C	0.500108	-0.013570	0.396126
C75	C	0.000117	-0.562195	-0.035537
C76	C	0.500117	-0.062195	0.464463
C77	C	0.000111	-0.641138	-0.036799
C78	C	0.500111	-0.141138	0.463201
C79	C	0.000142	-0.243827	-0.030447
C80	C	0.500142	0.256173	0.469553
C81	C	0.000145	-0.164878	-0.029190
C82	C	0.500145	0.335122	0.470810
C83	C	0.000128	-0.146582	-0.167116
C84	C	0.500128	0.353418	0.332884
C85	C	0.000122	-0.225525	-0.168378
C86	C	0.500122	0.274475	0.331622
C87	C	0.000136	-0.274142	-0.100043
C88	C	0.500136	0.225858	0.399957
C89	C	0.000123	-0.359744	-0.101410
C90	C	0.500123	0.140256	0.398590
C91	C	0.000113	-0.427971	-0.102505
C92	C	0.500113	0.072029	0.397495
C93	C	0.000110	-0.888079	-0.240344
C94	C	0.500110	-0.388079	0.259656
C95	C	0.000103	-0.889419	-0.324361
C96	C	0.500103	-0.389419	0.175639
C97	C	0.000144	-0.966627	0.169060
C98	C	0.500144	-0.466627	0.669060
C99	C	0.000135	-0.965366	0.248005
C100	C	0.500135	-0.465366	0.748005
C101	C	0.000121	-0.895773	0.278329
C102	C	0.500121	-0.395773	0.778329
C103	C	0.000107	-0.827437	0.229705
C104	C	0.500107	-0.327437	0.729705
C105	C	0.000108	-0.828700	0.150762
C106	C	0.500108	-0.328700	0.650762
C107	C	0.000098	-0.822344	0.548069
C108	C	0.500098	-0.322344	1.048069
C109	C	0.000099	-0.821086	0.627017
C110	C	0.500099	-0.321086	1.127017
C111	C	0.000124	-0.959010	0.645312
C112	C	0.500124	-0.459010	1.145312
C113	C	0.000126	-0.960273	0.566370
C114	C	0.500126	-0.460273	1.066370
C115	C	0.000106	-0.891939	0.517754
C116	C	0.500106	-0.391939	1.017754
C117	C	0.000114	-0.893307	0.432153
C118	C	0.500114	-0.393307	0.932153
C119	C	0.000121	-0.894403	0.363927
C120	C	0.500121	-0.394403	0.863927
H121	H	-0.247100	-0.851196	-0.144421
H122	H	0.252900	-0.351196	0.355579
Br123	Br	0.000144	-1.054725	0.525221
Br124	Br	0.500144	-0.554725	1.025221
Br125	Br	-0.747368	-0.996667	0.000415
Br126	Br	-0.247368	-0.496667	0.500415
Br127	Br	0.000084	-0.735963	0.084780
Br128	Br	0.500084	-0.235963	0.584780
H129	H	0.000156	-0.140193	0.027485
H130	H	0.500156	0.359807	0.527485
Br131	Br	0.000150	-1.058106	0.313986
Br132	Br	0.500150	-0.558106	0.813986
H133	H	-0.562257	-0.709758	-0.285356
H134	H	-0.062257	-0.209758	0.214644
Br135	Br	-0.623535	-1.093066	0.095939
Br136	Br	-0.123535	-0.593066	0.595939
Br137	Br	0.000177	-1.061078	0.127912
Br138	Br	0.500177	-0.561078	0.627912
Br139	Br	0.000151	-1.051752	0.711296
Br140	Br	0.500151	-0.551752	1.211296
Br141	Br	-0.376223	-0.694910	-0.300124
Br142	Br	0.123777	-0.194910	0.199876
H143	H	-0.437501	-1.077960	0.081436
H144	H	0.062499	-0.577960	0.581436
H145	H	0.000115	-0.680725	0.018844
H146	H	0.500115	-0.180725	0.518844
Br147	Br	0.000164	-0.309797	0.062293
Br148	Br	0.500164	0.190203	0.562293
Br149	Br	-0.252381	-0.791038	-0.204320
Br150	Br	0.247619	-0.291038	0.295680
H151	H	-0.246984	-1.038581	0.042235
H152	H	0.253016	-0.538581	0.542235
Br153	Br	0.000143	-0.521041	0.058911
Br154	Br	0.500143	-0.021041	0.558911
H155	H	0.000082	-0.766702	0.508495
H156	H	0.500082	-0.266702	1.008495
H157	H	0.000089	-0.770774	0.254401
H158	H	0.500089	-0.270774	0.754401
Br159	Br	0.000082	-0.726630	0.668170
Br160	Br	0.500082	-0.226630	1.168170
H161	H	-0.752764	-0.749145	-0.246144
H162	H	-0.252764	-0.249145	0.253856
H163	H	-0.752666	-0.936524	-0.059499
H164	H	-0.252666	-0.436524	0.440501
H165	H	0.000073	-0.647522	-0.231399
H166	H	0.500073	-0.147522	0.268601
H167	H	0.000108	-0.250210	-0.225048
H168	H	0.500108	0.249790	0.274952
Br169	Br	0.000085	-0.477912	-0.266208
Br170	Br	0.500085	0.022088	0.233792
H171	H	0.000121	-0.106987	-0.222759
H172	H	0.500121	0.393013	0.277241
