data_functionalizedCrystal
_audit_creation_method	'MofGen! by Chris Wilmer'
_symmetry_space_group_name_H-M	'P1'
_symmetry_Int_Tables_number	1
_symmetry_cell_setting	triclinic
loop_
_symmetry_equiv_pos_as_xyz
  x,y,z
_cell_length_a	10.540539
_cell_length_b	10.540510
_cell_length_c	9.616153
_cell_angle_alpha	90.000246
_cell_angle_beta	89.995174
_cell_angle_gamma	84.519401
loop_
_atom_site_label
_atom_site_type_symbol
_atom_site_fract_x
_atom_site_fract_y
_atom_site_fract_z
O1	O	1.685873	0.178898	-0.115572
O2	O	1.316458	0.195754	-0.115588
O3	O	1.509613	0.002617	-0.115579
O4	O	1.492718	0.372035	-0.115581
O5	O	1.509587	0.002621	0.115712
O6	O	1.316432	0.195758	0.115703
O7	O	1.685846	0.178902	0.115720
Zn8	Zn	1.501135	0.187330	0.152434
Zn9	Zn	1.501170	0.187325	-0.152302
O10	O	1.492691	0.372039	0.115711
C11	C	1.269142	0.194492	0.000055
C12	C	1.128194	0.190710	0.000049
C13	C	1.508341	-0.044685	0.000064
C14	C	1.504574	-0.185635	0.000055
C15	C	0.944783	0.045791	0.000589
C16	C	1.091401	0.049624	0.000054
C17	C	1.066530	0.258604	-0.132025
C18	C	0.919986	0.253789	-0.132121
C19	C	0.919467	0.256663	0.130900
C20	C	1.066448	0.257963	0.132632
C21	C	1.638758	-0.403090	0.000591
C22	C	1.642776	-0.256495	0.000063
C23	C	1.433843	-0.230396	-0.132024
C24	C	1.430804	-0.377157	-0.132127
C25	C	1.427896	-0.376961	0.130894
C26	C	1.434451	-0.230619	0.132633
C27	C	1.733163	0.180164	0.000073
C28	C	1.874110	0.183946	0.000070
C29	C	1.493964	0.419340	0.000065
C30	C	1.497731	0.560290	0.000064
N31	N	1.501120	0.187333	0.360408
N32	N	1.501195	0.187312	-0.360277
C33	C	1.397479	0.290302	0.580774
C34	C	1.397708	0.290688	0.419606
C35	C	1.633840	0.217467	0.418864
C36	C	1.633276	0.218196	0.580082
C37	C	1.473362	0.053893	0.580319
C38	C	1.470316	0.054758	0.419092
H39	H	1.134009	-0.003797	0.094730
C40	C	1.711094	-0.461861	-0.126645
N41	N	1.765574	-0.506128	-0.222481
C42	C	1.338409	0.023902	0.367490
N43	N	1.239054	0.000666	0.328616
C44	C	1.291165	-0.408226	-0.140259
N45	N	1.185991	-0.431622	-0.146396
C46	C	1.298135	-0.164338	0.143400
N47	N	1.195456	-0.114417	0.151499
H48	H	1.332102	-0.183007	-0.136940
H49	H	1.482985	-0.199541	-0.230312
C50	C	1.287723	-0.406904	0.132105
N51	N	1.182151	-0.429471	0.133011
H52	H	1.299093	0.272556	0.380087
H53	H	1.088872	0.362213	-0.136940
H54	H	1.471803	-0.419141	0.231010
C55	C	1.421330	0.423272	0.635483
N56	N	1.439298	0.523424	0.676692
C57	C	0.906146	-0.029507	0.128546
N58	N	0.877033	-0.086224	0.224926
H59	H	1.712903	0.144503	0.380515
H60	H	1.658728	0.313706	0.378474
H61	H	1.298556	0.272449	0.619580
H62	H	0.914593	-0.009712	-0.093600
C63	C	1.147824	-0.023054	-0.128075
N64	N	1.190321	-0.077796	-0.224590
H65	H	1.540851	-0.025564	0.378801
H66	H	0.891792	0.203605	-0.230847
C67	C	1.421882	0.424412	0.367481
N68	N	1.440098	0.525137	0.328222
H69	H	1.109134	0.211437	-0.230317
H70	H	0.887914	0.211006	0.231012
C71	C	1.740779	0.120830	0.632762
N72	N	1.821763	0.047511	0.672435
C73	C	1.345352	0.015174	0.635296
N74	N	1.248929	-0.013974	0.676704
H75	H	0.872229	0.358568	0.131792
H76	H	0.872006	0.355255	-0.138116
H77	H	1.698463	-0.228091	-0.094775
H78	H	1.548982	-0.022763	0.618439
H79	H	1.107405	0.208364	0.230340
C80	C	1.099181	0.396918	0.143422
N81	N	1.123843	0.501580	0.151546
H82	H	1.698120	-0.227149	0.094740
C83	C	1.666139	0.349705	0.630866
N84	N	1.690882	0.448764	0.669109
C85	C	1.503949	-0.191920	0.264640
N86	N	1.556288	-0.162750	0.364067
H87	H	1.692589	-0.445044	0.095312
H88	H	1.479163	-0.417374	-0.230854
