data_functionalizedCrystal
_audit_creation_method	'MofGen! by Chris Wilmer'
_symmetry_space_group_name_H-M	'P1'
_symmetry_Int_Tables_number	1
_symmetry_cell_setting	triclinic
loop_
_symmetry_equiv_pos_as_xyz
  x,y,z
_cell_length_a	19.377372
_cell_length_b	14.628931
_cell_length_c	14.628931
_cell_angle_alpha	59.999972
_cell_angle_beta	89.999766
_cell_angle_gamma	72.113075
loop_
_atom_site_label
_atom_site_type_symbol
_atom_site_fract_x
_atom_site_fract_y
_atom_site_fract_z
Zr1	Zr	0.580563	1.272735	-0.256046
O2	O	0.484336	1.418332	-0.379451
O3	O	0.610062	1.095858	-0.218215
O4	O	0.610062	1.286564	-0.408921
O5	O	0.484336	1.227626	-0.038314
O6	O	0.709236	1.333055	-0.432167
O7	O	0.484336	1.227626	-0.188745
O8	O	0.709236	0.991918	-0.091029
O9	O	0.484336	1.568763	-0.379451
O10	O	0.696656	1.214892	-0.219430
O11	O	0.622643	1.180196	-0.089815
O12	O	0.622643	1.404727	-0.314347
O13	O	0.548630	1.370031	-0.184733
Zr14	Zr	0.738736	1.346884	-0.053200
Zr15	Zr	0.738735	1.346884	-0.293121
Zr16	Zr	0.580563	1.272736	-0.016124
Zr17	Zr	0.580563	1.512657	-0.256046
Zr18	Zr	0.738735	1.106962	-0.053199
O19	O	0.709237	1.523761	-0.091030
O20	O	0.709237	1.523761	-0.432168
O21	O	0.484336	1.418332	-0.038314
O22	O	0.834963	1.201288	0.070206
O23	O	0.834962	1.201287	-0.270932
O24	O	0.610062	1.095858	0.122922
O25	O	0.834963	1.391993	-0.270932
O26	O	0.709237	1.333055	0.099675
O27	O	0.610062	1.286564	0.122922
O28	O	0.834963	1.391993	-0.120500
O29	O	0.610062	1.627701	-0.408922
O30	O	0.709237	0.991918	0.099676
O31	O	0.834963	1.050856	0.070206
O32	O	0.834962	1.050855	-0.120500
O33	O	0.484336	1.568764	-0.188746
O34	O	0.610062	1.627701	-0.218216
O35	O	0.696656	1.214892	0.005102
O36	O	0.770669	1.249588	-0.124513
O37	O	0.696656	1.439423	-0.219430
O38	O	0.622643	1.404727	-0.089816
C39	C	0.659649	1.009704	-0.154622
C40	C	0.659649	0.907851	-0.154622
C41	C	0.461800	1.217061	-0.108247
C42	C	0.394652	1.185584	-0.092507
C43	C	0.696364	0.879653	-0.218919
C44	C	0.696365	0.774383	-0.218921
C45	C	-0.019356	1.577506	-0.288473
C46	C	-0.082442	1.547901	-0.273669
C47	C	-0.005169	1.349728	-0.174583
C48	C	0.057925	1.379316	-0.189374
C49	C	0.050825	1.493207	-0.246321
C50	C	0.128106	1.295016	-0.147222
C51	C	0.191194	1.324602	-0.162017
C52	C	0.184101	1.438487	-0.218964
C53	C	0.113913	1.522792	-0.261116
C54	C	0.135205	1.181126	-0.090282
C55	C	0.205386	1.096827	-0.048129
C56	C	0.268475	1.126412	-0.062918
C57	C	0.261383	1.240297	-0.119865
C58	C	0.338664	1.042107	-0.020765
C59	C	0.401752	1.071693	-0.035560
C60	C	0.324471	1.269883	-0.134660
C61	C	0.857499	1.402558	-0.200998
C62	C	0.924647	1.434035	-0.216738
C63	C	0.659649	1.309809	-0.454728
C64	C	0.659649	1.309809	-0.556581
C65	C	0.659650	1.609915	-0.154623
C66	C	0.659650	1.711768	-0.154623
C67	C	0.711572	1.334150	-0.614161
C68	C	0.711573	1.334150	-0.719431
C69	C	0.659650	1.309810	0.145482
C70	C	0.659650	1.309810	0.247335
C71	C	0.857498	1.102452	-0.200998
C72	C	0.924647	1.032077	-0.216737
C73	C	0.659649	1.009704	0.145483
C74	C	0.659649	0.907851	0.247336
C75	C	0.857499	1.102452	0.099107
C76	C	0.924647	1.032077	0.185221
C77	C	0.461800	1.517167	-0.408353
C78	C	0.394651	1.587542	-0.494466
C79	C	0.461800	1.517167	-0.108247
C80	C	0.394652	1.587542	-0.092508
C81	C	0.659649	1.609915	-0.454728
C82	C	0.659649	1.711768	-0.556581
C83	C	0.917546	0.980917	-0.273684
C84	C	0.980633	0.914803	-0.288494
C85	C	1.050820	0.899843	-0.246350
C86	C	1.057919	0.951012	-0.189400
C87	C	0.994833	1.017131	-0.174598
C88	C	0.994821	1.017142	0.158002
C89	C	1.057920	0.951034	0.238904
C90	C	1.050844	0.899854	0.347025
C91	C	0.980662	0.914795	0.374243
C92	C	0.917565	0.980909	0.293342
C93	C	0.324477	1.602488	-0.467247
C94	C	0.261378	1.668627	-0.548150
C95	C	0.268455	1.719811	-0.656270
C96	C	0.338636	1.704864	-0.683489
C97	C	0.401734	1.638733	-0.602587
C98	C	0.401753	1.638712	-0.035571
C99	C	0.338666	1.704853	-0.020788
C100	C	0.268479	1.719816	-0.062936
C101	C	0.261380	1.668643	-0.119880
C102	C	0.324466	1.602510	-0.134670
C103	C	0.696365	0.879654	0.339831
C104	C	0.696366	0.774384	0.445102
H105	H	0.727801	0.933441	-0.273963
Cl106	Cl	-0.028278	1.720686	-0.360052
Cl107	Cl	0.744894	0.736853	-0.303920
H108	H	0.756028	1.354983	-0.585522
H109	H	0.727800	0.750067	0.524464
Cl110	Cl	0.744892	0.962706	0.341777
H111	H	0.344390	1.746547	-0.771530
Cl112	Cl	0.611120	0.749291	0.320896
Cl113	Cl	0.347607	1.769167	0.050807
H114	H	0.974911	0.873116	0.462285
H115	H	0.628211	0.736080	-0.099578
H116	H	0.217071	1.773656	-0.722135
Cl117	Cl	0.611112	0.824810	0.245392
Cl118	Cl	0.611121	0.824800	-0.069624
H119	H	0.318687	1.362624	-0.180999
H120	H	0.083832	1.157042	-0.078245
Cl121	Cl	0.173159	1.687397	-0.513908
H122	H	0.458871	1.626565	-0.624763
H123	H	1.115073	0.938821	-0.155090
Cl124	Cl	0.189177	1.802957	-0.044331
H125	H	0.235473	1.462574	-0.231011
H126	H	0.108130	1.615534	-0.307455
Cl127	Cl	0.829348	0.999666	0.327579
Cl128	Cl	0.829319	0.999713	-0.326683
Cl129	Cl	0.591008	1.277642	-0.676300
Cl130	Cl	0.315561	1.538152	-0.331331
H131	H	0.204225	1.680837	-0.154194
H132	H	0.458896	1.626535	-0.001239
Cl133	Cl	0.971691	0.850483	-0.360084
Cl134	Cl	-0.170673	1.653892	-0.326679
Cl135	Cl	0.003748	1.206557	-0.102996
H136	H	0.318674	1.560845	-0.181029
Cl137	Cl	0.347578	0.898937	0.050809
Cl138	Cl	0.214303	0.953656	0.023457
H139	H	0.756025	1.354996	-0.768904
Cl140	Cl	0.591017	1.277626	-0.600783
Cl141	Cl	0.489983	0.965715	0.017427
Cl142	Cl	1.130175	0.816739	0.448719
H143	H	1.000624	1.058778	-0.128220
Cl144	Cl	1.130122	0.816713	-0.264965
H145	H	1.000597	1.058805	0.069970
Cl146	Cl	1.146139	0.932261	0.204663
