data_functionalizedCrystal
_audit_creation_method	'MofGen! by Chris Wilmer'
_symmetry_space_group_name_H-M	'P1'
_symmetry_Int_Tables_number	1
_symmetry_cell_setting	triclinic
loop_
_symmetry_equiv_pos_as_xyz
  x,y,z
_cell_length_a	14.519731
_cell_length_b	15.995343
_cell_length_c	12.996460
_cell_angle_alpha	89.989133
_cell_angle_beta	89.994327
_cell_angle_gamma	83.589018
loop_
_atom_site_label
_atom_site_type_symbol
_atom_site_fract_x
_atom_site_fract_y
_atom_site_fract_z
O1	O	1.223654	0.109845	-0.085580
O2	O	1.556987	0.443179	0.247753
O3	O	1.890320	0.776512	0.581086
O4	O	0.955156	0.122752	-0.085583
O5	O	1.288489	0.456086	0.247750
O6	O	1.621822	0.789419	0.581084
O7	O	1.096748	-0.005578	-0.085562
O8	O	1.430081	0.327756	0.247771
O9	O	1.763415	0.661089	0.581104
O10	O	1.082061	0.238175	-0.085601
O11	O	1.415395	0.571509	0.247733
O12	O	1.748728	0.904842	0.581066
O13	O	1.096733	-0.005585	0.085571
O14	O	1.430067	0.327749	0.418905
O15	O	1.763400	0.661082	0.752238
O16	O	0.955141	0.122745	0.085551
O17	O	1.288474	0.456079	0.418884
O18	O	1.621808	0.789412	0.752217
O19	O	1.223639	0.109838	0.085554
O20	O	1.556972	0.443172	0.418887
O21	O	1.890306	0.776505	0.752220
Cu22	Cu	1.089389	0.116291	0.101178
Cu23	Cu	1.422722	0.449624	0.434511
Cu24	Cu	1.756055	0.782958	0.767845
Cu25	Cu	1.089406	0.116300	-0.101208
Cu26	Cu	1.422739	0.449633	0.232126
Cu27	Cu	1.756073	0.782966	0.565459
O28	O	1.082047	0.238168	0.085533
O29	O	1.415380	0.571502	0.418866
O30	O	1.748713	0.904835	0.752200
C31	C	0.920790	0.122144	-0.000016
C32	C	1.254123	0.455477	0.333317
C33	C	1.587457	0.788811	0.666650
C34	C	0.818413	0.120332	-0.000017
C35	C	1.151746	0.453665	0.333317
C36	C	1.485080	0.786998	0.666650
C37	C	0.735272	0.118859	-0.000020
C38	C	1.068605	0.452193	0.333313
C39	C	1.401938	0.785526	0.666646
C40	C	0.630966	0.117019	-0.000021
C41	C	0.964300	0.450353	0.333313
C42	C	1.297633	0.783686	0.666646
C43	C	0.547830	0.115559	-0.000020
C44	C	0.881163	0.448892	0.333313
C45	C	1.214497	0.782226	0.666646
C46	C	0.443518	0.113719	-0.000022
C47	C	0.776851	0.447053	0.333311
C48	C	1.110185	0.780386	0.666644
C49	C	1.096135	-0.036777	0.000007
C50	C	1.429468	0.296556	0.333340
C51	C	1.762801	0.629890	0.666674
C52	C	1.094318	-0.129731	0.000015
C53	C	1.427652	0.203603	0.333349
C54	C	1.760985	0.536936	0.666682
C55	C	1.091021	-0.299922	-0.000008
C56	C	1.424354	0.033411	0.333325
C57	C	1.757688	0.366744	0.666658
C58	C	0.988813	-0.323428	-0.000012
C59	C	1.322146	0.009905	0.333322
C60	C	1.655480	0.343239	0.666655
C61	C	0.986890	-0.420109	-0.000411
C62	C	1.320223	-0.086775	0.332922
C63	C	1.653557	0.246558	0.666255
C64	C	1.087774	-0.467487	-0.000030
C65	C	1.421107	-0.134154	0.333303
C66	C	1.754440	0.199180	0.666636
C67	C	1.139174	-0.438304	-0.097559
C68	C	1.472507	-0.104970	0.235774
C69	C	1.805841	0.228363	0.569108
C70	C	1.140386	-0.341509	-0.097629
C71	C	1.473719	-0.008176	0.235704
C72	C	1.807053	0.325157	0.569037
C73	C	1.141866	-0.341619	0.096989
C74	C	1.475199	-0.008286	0.430322
C75	C	1.808532	0.325047	0.763655
C76	C	1.138092	-0.438120	0.098259
C77	C	1.471426	-0.104787	0.431592
C78	C	1.804759	0.228546	0.764926
C79	C	1.085944	-0.562188	-0.000046
C80	C	1.419277	-0.228855	0.333287
C81	C	1.752610	0.104478	0.666621
C82	C	1.092854	-0.205221	0.000001
C83	C	1.426187	0.128112	0.333334
C84	C	1.759521	0.461445	0.666667
C85	C	1.258005	0.110447	-0.000015
C86	C	1.591338	0.443780	0.333318
C87	C	1.924671	0.777113	0.666651
C88	C	1.360382	0.112259	-0.000022
C89	C	1.693715	0.445592	0.333311
C90	C	2.027048	0.778926	0.666645
C91	C	1.082660	0.269368	-0.000039
C92	C	1.415993	0.602701	0.333294
C93	C	1.749327	0.936034	0.666628
C94	C	1.084476	0.362321	-0.000054
C95	C	1.417810	0.695655	0.333280
C96	C	1.751143	1.028988	0.666613
N97	N	1.089383	0.116285	0.243525
N98	N	1.422716	0.449618	0.576858
N99	N	1.756050	0.782951	0.910192
N100	N	1.089419	0.116299	-0.243555
N101	N	1.422752	0.449633	0.089779
N102	N	1.756086	0.782966	0.423112
C103	C	1.089405	0.116300	0.663339
C104	C	1.422738	0.449634	0.996673
C105	C	1.756071	0.782967	1.330006
C106	C	1.089396	0.116299	0.546534
C107	C	1.422729	0.449632	0.879868
C108	C	1.756063	0.782966	1.213201
C109	C	1.089394	0.116293	0.453436
C110	C	1.422728	0.449627	0.786769
C111	C	1.756061	0.782960	1.120103
C112	C	1.089385	0.116290	0.336623
C113	C	1.422718	0.449624	0.669957
C114	C	1.756051	0.782957	1.003290
H115	H	0.946646	-0.439198	0.069481
H116	H	1.279980	-0.105865	0.402814
H117	H	1.613313	0.227468	0.736148
Cl118	Cl	1.256105	-0.318822	-0.104013
Cl119	Cl	1.589439	0.014511	0.229320
Cl120	Cl	1.922772	0.347844	0.562653
Cl121	Cl	1.253808	-0.487288	-0.102742
Cl122	Cl	1.587141	-0.153955	0.230592
Cl123	Cl	1.920474	0.179378	0.563925
H124	H	1.211707	-0.470954	0.104442
H125	H	1.545040	-0.137620	0.437776
H126	H	1.878373	0.195713	0.771109
H127	H	0.949190	-0.295490	0.069919
H128	H	1.282524	0.037843	0.403252
H129	H	1.615857	0.371177	0.736585
Cl130	Cl	1.080304	-0.466876	0.209662
Cl131	Cl	1.413638	-0.133542	0.542995
Cl132	Cl	1.746971	0.199791	0.876329
H133	H	0.949848	-0.294497	-0.069848
H134	H	1.283181	0.038837	0.263486
H135	H	1.616515	0.372170	0.596819
Cl136	Cl	0.925086	-0.448665	-0.108993
Cl137	Cl	1.258419	-0.115332	0.224340
Cl138	Cl	1.591753	0.218002	0.557673
Cl139	Cl	1.092068	-0.298067	0.211163
Cl140	Cl	1.425401	0.035266	0.544496
Cl141	Cl	1.758734	0.368599	0.877829
H142	H	1.105218	-0.314770	-0.170812
H143	H	1.438551	0.018563	0.162521
H144	H	1.771884	0.351897	0.495855
H145	H	1.217094	-0.327481	0.097937
H146	H	1.550428	0.005852	0.431270
H147	H	1.883761	0.339185	0.764604
Cl148	Cl	1.084746	-0.469393	-0.210053
Cl149	Cl	1.418079	-0.136059	0.123280
Cl150	Cl	1.751412	0.197274	0.456613
