data_functionalizedCrystal
_audit_creation_method	'MofGen! by Chris Wilmer'
_symmetry_space_group_name_H-M	'P1'
_symmetry_Int_Tables_number	1
_symmetry_cell_setting	triclinic
loop_
_symmetry_equiv_pos_as_xyz
  x,y,z
_cell_length_a	18.050590
_cell_length_b	19.121747
_cell_length_c	18.050582
_cell_angle_alpha	87.581618
_cell_angle_beta	89.999233
_cell_angle_gamma	87.579812
loop_
_atom_site_label
_atom_site_type_symbol
_atom_site_fract_x
_atom_site_fract_y
_atom_site_fract_z
Zn1	Zn	1.147900	-0.279844	0.432227
Zn2	Zn	1.397900	-0.029844	0.682227
Zn3	Zn	1.647900	0.220156	0.932227
Zn4	Zn	1.897900	0.470156	1.182227
Zn5	Zn	1.153102	-0.397280	0.313335
Zn6	Zn	1.403102	-0.147280	0.563335
Zn7	Zn	1.653102	0.102720	0.813335
Zn8	Zn	1.903102	0.352720	1.063335
Zn9	Zn	1.023719	-0.279832	0.308085
Zn10	Zn	1.273719	-0.029832	0.558085
Zn11	Zn	1.523719	0.220168	0.808085
Zn12	Zn	1.773719	0.470168	1.058085
Zn13	Zn	1.028956	-0.397229	0.437516
Zn14	Zn	1.278956	-0.147229	0.687516
Zn15	Zn	1.528956	0.102771	0.937516
Zn16	Zn	1.778956	0.352771	1.187516
O17	O	1.088420	-0.338546	0.372791
O18	O	1.338420	-0.088546	0.622791
O19	O	1.588420	0.161454	0.872791
O20	O	1.838420	0.411454	1.122791
O21	O	1.252516	-0.295448	0.416440
O22	O	1.502516	-0.045448	0.666440
O23	O	1.752516	0.204552	0.916440
O24	O	2.002516	0.454552	1.166440
O25	O	1.135924	-0.381717	0.208715
O26	O	1.385924	-0.131717	0.458715
O27	O	1.635924	0.118283	0.708715
O28	O	1.885924	0.368283	0.958715
O29	O	1.035823	-0.181556	0.320142
O30	O	1.285823	0.068444	0.570142
O31	O	1.535823	0.318444	0.820142
O32	O	1.785823	0.568444	1.070142
O33	O	1.256338	-0.381728	0.329091
O34	O	1.506338	-0.131728	0.579091
O35	O	1.756338	0.118272	0.829091
O36	O	2.006338	0.368272	1.079091
O37	O	1.127059	-0.181564	0.411349
O38	O	1.377059	0.068436	0.661349
O39	O	1.627059	0.318436	0.911349
O40	O	1.877059	0.568436	1.161349
O41	O	1.040867	-0.295429	0.204857
O42	O	1.290867	-0.045429	0.454857
O43	O	1.540867	0.204571	0.704857
O44	O	1.790867	0.454571	0.954857
O45	O	0.920488	-0.295379	0.325270
O46	O	1.170488	-0.045379	0.575270
O47	O	1.420488	0.204621	0.825270
O48	O	1.670488	0.454621	1.075270
O49	O	1.044749	-0.381641	0.540738
O50	O	1.294749	-0.131641	0.790738
O51	O	1.544749	0.118359	1.040738
O52	O	1.794749	0.368359	1.290738
O53	O	0.924336	-0.381630	0.420362
O54	O	1.174336	-0.131630	0.670362
O55	O	1.424336	0.118370	0.920362
O56	O	1.674336	0.368370	1.170362
O57	O	1.132137	-0.295398	0.536852
O58	O	1.382137	-0.045398	0.786852
O59	O	1.632137	0.204602	1.036852
O60	O	1.882137	0.454602	1.286852
O61	O	1.141003	-0.495551	0.334219
O62	O	1.391003	-0.245551	0.584219
O63	O	1.641003	0.004449	0.834219
O64	O	1.891003	0.254449	1.084219
O65	O	1.049793	-0.495514	0.425453
O66	O	1.299793	-0.245514	0.675453
O67	O	1.549793	0.004486	0.925453
O68	O	1.799793	0.254486	1.175453
C69	C	0.895465	-0.338498	0.372821
C70	C	1.145465	-0.088498	0.622821
C71	C	1.395465	0.161502	0.872821
C72	C	1.645465	0.411502	1.122821
C73	C	0.812919	-0.338495	0.372852
C74	C	1.062919	-0.088495	0.622852
C75	C	1.312919	0.161505	0.872852
C76	C	1.562919	0.411505	1.122852
C77	C	0.615589	-0.385532	0.424451
C78	C	0.865589	-0.135532	0.674451
C79	C	1.115589	0.114468	0.924451
C80	C	1.365589	0.364468	1.174451
C81	C	0.563310	-0.321496	0.439837
C82	C	0.813310	-0.071496	0.689837
C83	C	1.063310	0.178504	0.939837
C84	C	1.313310	0.428504	1.189837
C85	C	0.661791	-0.338534	0.372817
C86	C	0.911791	-0.088534	0.622817
C87	C	1.161791	0.161466	0.872817
C88	C	1.411791	0.411466	1.122817
C89	C	0.566989	-0.402606	0.357432
C90	C	0.816989	-0.152606	0.607432
C91	C	1.066989	0.097394	0.857432
C92	C	1.316989	0.347394	1.107432
C93	C	0.515808	-0.338577	0.372785
C94	C	0.765808	-0.088577	0.622785
C95	C	1.015808	0.161423	0.872785
C96	C	1.265808	0.411423	1.122785
C97	C	0.610598	-0.274464	0.388237
C98	C	0.860598	-0.024464	0.638237
C99	C	1.110598	0.225536	0.888237
C100	C	1.360598	0.475536	1.138237
C101	C	0.614283	-0.355617	0.305802
C102	C	0.864283	-0.105617	0.555802
C103	C	1.114283	0.144383	0.805802
C104	C	1.364283	0.394383	1.055802
C105	C	0.562025	-0.291537	0.321161
C106	C	0.812025	-0.041537	0.571161
C107	C	1.062025	0.208463	0.821161
C108	C	1.312025	0.458463	1.071161
C109	C	0.745888	-0.338510	0.372837
C110	C	0.995888	-0.088510	0.622837
C111	C	1.245888	0.161490	0.872837
C112	C	1.495888	0.411490	1.122837
C113	C	0.431712	-0.338594	0.372765
C114	C	0.681712	-0.088594	0.622765
C115	C	0.931712	0.161406	0.872765
C116	C	1.181712	0.411406	1.122765
C117	C	1.096551	-0.521015	0.380996
C118	C	1.346551	-0.271015	0.630996
C119	C	1.596551	-0.021015	0.880996
C120	C	1.846551	0.228985	1.130996
C121	C	1.100097	-0.599076	0.384531
C122	C	1.350097	-0.349076	0.634531
C123	C	1.600097	-0.099076	0.884531
C124	C	1.850097	0.150924	1.134531
C125	C	1.122596	-1.040570	0.406924
C126	C	1.372596	-0.790570	0.656924
C127	C	1.622596	-0.540570	0.906924
C128	C	1.872596	-0.290570	1.156924
C129	C	1.119255	-0.967223	0.403596
C130	C	1.369255	-0.717223	0.653596
C131	C	1.619255	-0.467223	0.903596
C132	C	1.869255	-0.217223	1.153596
C133	C	1.070121	-0.930612	0.354413
C134	C	1.320121	-0.680612	0.604413
C135	C	1.570121	-0.430612	0.854413
C136	C	1.820121	-0.180612	1.104413
C137	C	1.024331	-0.967351	0.308551
C138	C	1.274331	-0.717351	0.558551
C139	C	1.524331	-0.467351	0.808551
C140	C	1.774331	-0.217351	1.058551
C141	C	1.027675	-1.040696	0.311876
C142	C	1.277675	-0.790696	0.561876
C143	C	1.527675	-0.540696	0.811876
C144	C	1.777675	-0.290696	1.061876
C145	C	1.057651	-0.709160	0.341993
C146	C	1.307651	-0.459160	0.591993
C147	C	1.557651	-0.209160	0.841993
C148	C	1.807651	0.040840	1.091993
C149	C	1.054308	-0.635810	0.338674
C150	C	1.304308	-0.385810	0.588674
C151	C	1.554308	-0.135810	0.838674
C152	C	1.804308	0.114190	1.088674
C153	C	1.149234	-0.635687	0.433718
C154	C	1.399234	-0.385687	0.683718
C155	C	1.649234	-0.135687	0.933718
C156	C	1.899234	0.114313	1.183718
C157	C	1.152572	-0.709034	0.437041
C158	C	1.402572	-0.459034	0.687041
C159	C	1.652572	-0.209034	0.937041
C160	C	1.902572	0.040966	1.187041
C161	C	1.106784	-0.745766	0.391176
C162	C	1.356784	-0.495766	0.641176
C163	C	1.606784	-0.245766	0.891176
C164	C	1.856784	0.004234	1.141176
C165	C	1.066704	-0.855640	0.351012
C166	C	1.316704	-0.605640	0.601012
C167	C	1.566704	-0.355640	0.851012
C168	C	1.816704	-0.105640	1.101012
C169	C	1.110205	-0.820737	0.394574
C170	C	1.360205	-0.570737	0.644574
C171	C	1.610205	-0.320737	0.894574
C172	C	1.860205	-0.070737	1.144574
C173	C	1.282127	-0.338595	0.372761
C174	C	1.532127	-0.088595	0.622761
C175	C	1.782127	0.161405	0.872761
C176	C	2.032127	0.411405	1.122761
C177	C	1.364674	-0.338616	0.372749
C178	C	1.614674	-0.088616	0.622749
C179	C	1.864674	0.161384	0.872749
C180	C	2.114674	0.411384	1.122749
C181	C	1.088447	-0.338515	0.566495
C182	C	1.338447	-0.088515	0.816495
C183	C	1.588447	0.161485	1.066495
C184	C	1.838447	0.411485	1.316495
C185	C	1.088459	-0.338502	0.649040
C186	C	1.338459	-0.088502	0.899040
C187	C	1.588459	0.161498	1.149040
C188	C	1.838459	0.411498	1.399040
C189	C	1.080277	-0.155365	0.364570
C190	C	1.330277	0.094635	0.614570
C191	C	1.580277	0.344635	0.864570
C192	C	1.830277	0.594635	1.114570
C193	C	1.076807	-0.077304	0.361066
C194	C	1.326807	0.172696	0.611066
C195	C	1.576807	0.422696	0.861066
C196	C	1.826807	0.672696	1.111066
C197	C	1.088432	-0.338526	0.179838
C198	C	1.338432	-0.088526	0.429838
C199	C	1.588432	0.161474	0.679838
C200	C	1.838432	0.411474	0.929838
C201	C	1.088556	-0.338342	0.097284
C202	C	1.338556	-0.088342	0.347284
C203	C	1.588556	0.161658	0.597284
C204	C	1.838556	0.411658	0.847284
C205	C	1.040973	-0.385336	0.850601
C206	C	1.290973	-0.135336	1.100601
C207	C	1.540973	0.114664	1.350601
C208	C	1.790973	0.364664	1.600601
C209	C	1.109502	-0.402516	0.900749
C210	C	1.359502	-0.152516	1.150749
C211	C	1.609502	0.097484	1.400749
C212	C	1.859502	0.347484	1.650749
C213	C	1.088493	-0.338448	0.800168
C214	C	1.338493	-0.088448	1.050168
C215	C	1.588493	0.161552	1.300168
C216	C	1.838493	0.411552	1.550168
C217	C	1.020000	-0.321249	0.897101
C218	C	1.270000	-0.071249	1.147101
C219	C	1.520000	0.178751	1.397101
C220	C	1.770000	0.428751	1.647101
C221	C	1.088520	-0.338398	0.946151
C222	C	1.338520	-0.088398	1.196151
C223	C	1.588520	0.161602	1.446151
C224	C	1.838520	0.411602	1.696151
C225	C	1.157060	-0.355661	0.849230
C226	C	1.407060	-0.105661	1.099230
C227	C	1.657060	0.144339	1.349230
C228	C	1.907060	0.394339	1.599230
C229	C	1.067511	-0.274365	0.845577
C230	C	1.317511	-0.024365	1.095577
C231	C	1.567511	0.225635	1.345577
C232	C	1.817511	0.475635	1.595577
C233	C	1.136086	-0.291520	0.895702
C234	C	1.386086	-0.041520	1.145702
C235	C	1.636086	0.208480	1.395702
C236	C	1.886086	0.458480	1.645702
C237	C	1.088477	-0.338479	0.716071
C238	C	1.338477	-0.088479	0.966071
C239	C	1.588477	0.161521	1.216071
C240	C	1.838477	0.411521	1.466071
C241	C	1.088545	-0.338367	1.030246
C242	C	1.338545	-0.088367	1.280246
C243	C	1.588545	0.161633	1.530246
C244	C	1.838545	0.411633	1.780246
H245	H	0.547734	-0.456773	0.344434
H246	H	0.797734	-0.206773	0.594434
H247	H	1.047734	0.043227	0.844434
H248	H	1.297734	0.293227	1.094434
H249	H	1.026697	-0.825825	0.310968
H250	H	1.276697	-0.575825	0.560968
H251	H	1.526697	-0.325825	0.810968
H252	H	1.776697	-0.075825	1.060968
H253	H	0.962065	-0.306724	0.918156
H254	H	1.212065	-0.056724	1.168156
H255	H	1.462065	0.193276	1.418156
H256	H	1.712065	0.443276	1.668156
H257	H	0.538710	-0.251765	0.277480
H258	H	0.788710	-0.001765	0.527480
H259	H	1.038710	0.248235	0.777480
H260	H	1.288710	0.498235	1.027480
H261	H	0.639038	-0.425207	0.468160
H262	H	0.889038	-0.175207	0.718160
H263	H	1.139038	0.074793	0.968160
H264	H	1.389038	0.324793	1.218160
Br265	Br	1.189276	-1.090250	0.473679
Br266	Br	1.439276	-0.840250	0.723679
Br267	Br	1.689276	-0.590250	0.973679
Br268	Br	1.939276	-0.340250	1.223679
Br269	Br	1.211371	-0.585832	0.495961
Br270	Br	1.461371	-0.335832	0.745961
Br271	Br	1.711371	-0.085832	0.995961
Br272	Br	1.961371	0.164168	1.245961
H273	H	1.192590	-0.738838	0.477082
H274	H	1.442590	-0.488838	0.727082
H275	H	1.692590	-0.238838	0.977082
H276	H	1.942590	0.011162	1.227082
Br277	Br	0.987628	-0.586123	0.271916
Br278	Br	1.237628	-0.336123	0.521916
Br279	Br	1.487628	-0.086123	0.771916
Br280	Br	1.737628	0.163877	1.021916
Br281	Br	0.965536	-1.090551	0.249633
Br282	Br	1.215536	-0.840551	0.499633
Br283	Br	1.465536	-0.590551	0.749633
Br284	Br	1.715536	-0.340551	0.999633
Br285	Br	0.651559	-0.379694	0.211377
Br286	Br	0.901559	-0.129694	0.461377
Br287	Br	1.151559	0.120306	0.711377
Br288	Br	1.401559	0.370306	0.961377
Br289	Br	0.974060	-0.451507	0.817480
Br290	Br	1.224060	-0.201507	1.067480
Br291	Br	1.474060	0.048493	1.317480
Br292	Br	1.724060	0.298493	1.567480
Br293	Br	1.253654	-0.379981	0.814302
Br294	Br	1.503654	-0.129981	1.064302
Br295	Br	1.753654	0.120019	1.314302
Br296	Br	2.003654	0.370019	1.564302
Br297	Br	1.181401	-0.917373	0.465833
Br298	Br	1.431401	-0.667373	0.715833
Br299	Br	1.681401	-0.417373	0.965833
Br300	Br	1.931401	-0.167373	1.215833
Br301	Br	1.139112	-0.492805	0.940982
Br302	Br	1.389112	-0.242805	1.190982
Br303	Br	1.639112	0.007195	1.440982
Br304	Br	1.889112	0.257195	1.690982
Br305	Br	0.526035	-0.297433	0.534271
Br306	Br	0.776035	-0.047433	0.784271
Br307	Br	1.026035	0.202567	1.034271
Br308	Br	1.276035	0.452567	1.284271
Br309	Br	0.642526	-0.184154	0.410011
Br310	Br	0.892526	0.065846	0.660011
Br311	Br	1.142526	0.315846	0.910011
Br312	Br	1.392526	0.565846	1.160011
H313	H	1.150212	-0.850549	0.434616
H314	H	1.400212	-0.600549	0.684616
H315	H	1.650212	-0.350549	0.934616
H316	H	1.900212	-0.100549	1.184616
H317	H	1.020367	-0.739059	0.304647
H318	H	1.270367	-0.489059	0.554647
H319	H	1.520367	-0.239059	0.804647
H320	H	1.770367	0.010941	1.054647
H321	H	0.984327	-0.937538	0.268502
H322	H	1.234327	-0.687538	0.518502
H323	H	1.484327	-0.437538	0.768502
H324	H	1.734327	-0.187538	1.018502
Br325	Br	1.203162	-0.225394	0.928600
Br326	Br	1.453162	0.024606	1.178600
Br327	Br	1.703162	0.274606	1.428600
Br328	Br	1.953162	0.524606	1.678600
H329	H	1.049728	-0.220208	0.821422
H330	H	1.299728	0.029792	1.071422
H331	H	1.549728	0.279792	1.321422
H332	H	1.799728	0.529792	1.571422
