data_functionalizedCrystal
_audit_creation_method	'MofGen! by Chris Wilmer'
_symmetry_space_group_name_H-M	'P1'
_symmetry_Int_Tables_number	1
_symmetry_cell_setting	triclinic
loop_
_symmetry_equiv_pos_as_xyz
  x,y,z
_cell_length_a	31.640172
_cell_length_b	23.196402
_cell_length_c	23.196401
_cell_angle_alpha	60.008822
_cell_angle_beta	90.017286
_cell_angle_gamma	59.998806
loop_
_atom_site_label
_atom_site_type_symbol
_atom_site_fract_x
_atom_site_fract_y
_atom_site_fract_z
Zr1	Zr	0.407181	0.630929	-0.075553
O2	O	0.339678	0.751207	-0.167612
O3	O	0.427873	0.510660	-0.047336
O4	O	0.427854	0.630927	-0.167601
O5	O	0.339713	0.630939	0.047525
O6	O	0.497412	0.630915	-0.167589
O7	O	0.339697	0.630940	-0.047347
O8	O	0.497445	0.415779	0.047544
O9	O	0.339680	0.846075	-0.167608
O10	O	0.488610	0.560116	-0.035288
O11	O	0.436712	0.560124	0.035504
O12	O	0.436690	0.701723	-0.106093
O13	O	0.384793	0.701731	-0.035301
Zr14	Zr	0.518143	0.630908	0.075776
Zr15	Zr	0.518117	0.630910	-0.075533
Zr16	Zr	0.407208	0.630927	0.075756
Zr17	Zr	0.407184	0.782231	-0.075547
Zr18	Zr	0.518140	0.479605	0.075769
O19	O	0.497452	0.751177	0.047558
O20	O	0.497414	0.751180	-0.167583
O21	O	0.339716	0.751204	0.047530
O22	O	0.585647	0.510629	0.167834
O23	O	0.585609	0.510633	-0.047307
O24	O	0.427911	0.510656	0.167806
O25	O	0.585611	0.630898	-0.047302
O26	O	0.497470	0.630910	0.167824
O27	O	0.427913	0.630922	0.167811
O28	O	0.585628	0.630896	0.047569
O29	O	0.427859	0.846059	-0.167592
O30	O	0.497466	0.415777	0.167814
O31	O	0.585645	0.415762	0.167830
O32	O	0.585624	0.415764	0.047560
O33	O	0.339701	0.846073	-0.047338
O34	O	0.427880	0.846058	-0.047322
O35	O	0.488634	0.560114	0.106315
O36	O	0.540532	0.560106	0.035523
O37	O	0.488612	0.701713	-0.035282
O38	O	0.436715	0.701721	0.035510
C39	C	0.462659	0.441662	0.000103
C40	C	0.462657	0.377430	0.000100
C41	C	0.489744	0.347256	-0.036855
C42	C	0.489749	0.286895	-0.036849
C43	C	0.462657	0.256722	0.000102
C44	C	0.435570	0.286900	0.037066
C45	C	0.435570	0.347255	0.037065
C46	C	0.417269	0.194701	-0.005181
C47	C	0.417268	0.134351	-0.005185
C48	C	0.462658	0.070567	0.000109
C49	C	0.508049	0.067148	0.005393
C50	C	0.508049	0.127502	0.005392
C51	C	0.462654	0.191278	0.000108
C52	C	0.489752	-0.025058	-0.036842
C53	C	0.489758	-0.085424	-0.036831
C54	C	0.435575	-0.085411	0.037079
C55	C	0.435573	-0.025053	0.037073
C56	C	0.462661	0.005123	0.000109
C57	C	0.323899	0.630942	0.000086
C58	C	0.276804	0.630950	0.000077
C59	C	0.011899	0.556993	0.037085
C60	C	-0.165086	0.556979	0.037099
O61	O	-0.164923	0.494115	0.068557
N62	N	-0.214317	0.630896	0.000138
C63	C	-0.219301	0.704821	-0.036824
O64	O	-0.265236	0.767692	-0.068255
C65	C	-0.042316	0.704835	-0.036834
C66	C	0.006914	0.630913	0.000123
C67	C	0.061128	0.483078	0.074039
C68	C	0.105371	0.483082	0.074032
C69	C	0.100386	0.557002	0.037071
C70	C	0.051158	0.630917	0.000116
C71	C	-0.047301	0.778759	-0.073792
C72	C	-0.003049	0.778756	-0.073789
C73	C	0.046181	0.704835	-0.036832
C74	C	0.090416	0.704842	-0.036852
N75	N	0.139647	0.630925	0.000108
C76	C	0.144632	0.557005	0.037070
C77	C	-0.312218	0.704809	-0.036818
C78	C	-0.356464	0.704806	-0.036817
C79	C	-0.302246	0.556964	0.037108
C80	C	-0.258000	0.556967	0.037102
C81	C	-0.262987	0.630892	0.000143
C82	C	0.237544	0.557019	0.037052
C83	C	0.281789	0.557030	0.037039
C84	C	0.227567	0.704872	-0.036882
C85	C	0.183326	0.704862	-0.036873
C86	C	0.188318	0.630929	0.000099
O87	O	0.090293	0.767673	-0.068288
O88	O	0.190571	0.494144	0.068508
C89	C	-0.032344	0.556989	0.037092
C90	C	-0.081572	0.630905	0.000137
C91	C	-0.086557	0.704824	-0.036824
C92	C	-0.125818	0.630901	0.000139
C93	C	-0.120833	0.556982	0.037100
C94	C	-0.071602	0.483065	0.074060
C95	C	-0.027359	0.483069	0.074053
C96	C	-0.135788	0.778741	-0.073785
C97	C	-0.180029	0.778731	-0.073775
C98	C	-0.175044	0.704811	-0.036814
C99	C	0.601426	0.630894	0.000136
C100	C	0.648521	0.630886	0.000145
C101	C	0.462629	0.630921	-0.189153
C102	C	0.462618	0.630922	-0.253388
C103	C	0.462666	0.820175	0.000119
C104	C	0.462668	0.884406	0.000122
C105	C	0.435519	0.704837	-0.320520
C106	C	0.435532	0.704838	-0.380876
C107	C	0.462637	0.630920	-0.374094
C108	C	0.489742	0.556995	-0.306950
C109	C	0.489732	0.556996	-0.246596
C110	C	0.458787	0.574293	-0.441414
C111	C	0.458793	0.574295	-0.501768
C112	C	0.462670	0.630914	-0.560242
C113	C	0.466531	0.687545	-0.558362
C114	C	0.466521	0.687546	-0.498008
C115	C	0.462651	0.630911	-0.439533
C116	C	0.435584	0.704835	-0.692821
C117	C	0.435601	0.704833	-0.753176
C118	C	0.489807	0.556988	-0.679248
C119	C	0.489794	0.556992	-0.618895
C120	C	0.462679	0.630918	-0.625686
C121	C	0.462696	0.630915	0.189376
C122	C	0.462707	0.630914	0.253610
C123	C	0.601422	0.441638	0.000128
C124	C	0.648516	0.377398	0.000134
C125	C	0.462692	0.441659	0.189367
C126	C	0.462702	0.377426	0.253599
C127	C	0.601455	0.441635	0.189393
C128	C	0.648560	0.377394	0.253633
C129	C	0.323870	0.820201	-0.189170
C130	C	0.276765	0.884442	-0.253411
C131	C	0.323903	0.820198	0.000094
C132	C	0.276809	0.884438	0.000088
C133	C	0.462633	0.820177	-0.189145
C134	C	0.462623	0.884410	-0.253377
C135	C	0.643529	0.347236	-0.036832
C136	C	0.687774	0.286884	-0.036841
C137	C	0.737006	0.256691	0.000121
C138	C	0.741992	0.286860	0.037089
C139	C	0.697747	0.347215	0.037093
C140	C	0.489809	0.347257	0.320732
C141	C	0.489817	0.286911	0.381091
C142	C	0.462719	0.256733	0.374315
C143	C	0.435609	0.286909	0.307175
C144	C	0.435598	0.347257	0.246818
C145	C	0.697776	0.347222	0.246848
C146	C	0.742040	0.286869	0.307203
C147	C	0.737088	0.256686	0.374342
C148	C	0.687867	0.286864	0.381126
C149	C	0.643604	0.347220	0.320771
C150	C	0.227549	0.914622	-0.246626
C151	C	0.183285	0.974993	-0.306981
C152	C	0.188237	1.005180	-0.374120
C153	C	0.237458	0.974998	-0.380903
C154	C	0.281721	0.914632	-0.320549
C155	C	0.281796	0.914607	0.037048
C156	C	0.237551	0.974976	0.037040
C157	C	0.188319	1.005170	0.000076
C158	C	0.183333	0.974999	-0.036888
C159	C	0.227578	0.914636	-0.036884
C160	C	0.489726	0.914570	-0.246578
C161	C	0.489726	0.974915	-0.306925
C162	C	0.462621	1.005104	-0.374070
C163	C	0.435518	0.974939	-0.380867
C164	C	0.435520	0.914591	-0.320521
H165	H	0.545012	0.015207	0.009713
H166	H	0.455647	0.528186	-0.503294
F167	F	0.334188	0.882485	0.076391
H168	H	-0.139855	0.838937	-0.103885
H169	H	0.773028	0.207546	0.000113
F170	F	0.794392	0.254717	0.076426
H171	H	0.511875	0.371821	0.326263
F172	F	0.025032	0.404391	0.113389
F173	F	0.141123	1.069427	-0.438349
F174	F	0.518660	0.478318	-0.672026
H175	H	0.413547	0.262328	0.301668
H176	H	0.683704	0.262328	-0.066944
H177	H	-0.298194	0.496775	0.067199
F178	F	0.462735	0.192504	0.438559
H179	H	0.223510	0.890074	-0.066979
F180	F	0.518577	0.882451	-0.175123
H181	H	0.511796	0.999469	-0.301377
F182	F	0.141234	1.069414	0.000079
H183	H	0.413443	0.765033	-0.326056
H184	H	-0.067550	0.422877	0.104151
H185	H	0.603532	0.371778	0.326305
F186	F	0.157762	0.404404	0.113372
H187	H	0.413512	0.371823	0.067158
F188	F	0.406742	0.007064	0.076405
H189	H	0.511811	0.496811	-0.301432
H190	H	0.413512	0.262329	0.067152
H191	H	0.413448	0.890041	-0.326066
F192	F	0.406690	0.783512	-0.452333
H193	H	0.683843	0.262280	0.435798
F194	F	0.703063	0.379305	0.076444
H195	H	0.223507	0.890047	-0.191964
F196	F	0.518588	-0.117536	-0.076168
H197	H	-0.087379	0.838954	-0.103885
H198	H	0.511810	-0.000491	-0.066938
F199	F	0.591136	0.379360	-0.076177
H200	H	0.701818	0.371788	0.192186
F201	F	0.518627	0.478321	-0.547444
F202	F	0.130906	1.007102	-0.299747
H203	H	-0.220114	0.838931	-0.103877
H204	H	0.143239	0.765055	-0.066975
F205	F	0.242720	1.007132	-0.452363
F206	F	0.454694	0.513993	-0.379167
H207	H	0.462623	1.054244	-0.423202
H208	H	0.321793	0.890060	-0.326082
H209	H	0.413449	0.999528	-0.435545
F210	F	0.794419	0.254760	0.299969
F211	F	0.518573	0.478322	-0.175144
F212	F	0.242868	1.007073	0.076387
F213	F	0.406748	0.379356	0.175371
F214	F	0.130933	1.007141	-0.076224
H215	H	0.511801	0.371821	-0.066952
F216	F	0.066444	0.404395	0.113385
H217	H	0.511806	0.262322	-0.066944
F218	F	0.470630	0.747814	-0.496008
H219	H	0.413516	-0.109978	0.067166
F220	F	0.556357	0.123859	0.011018
F221	F	0.368958	0.137998	-0.010812
F222	F	0.470657	0.747808	-0.620591
F223	F	0.784202	0.192448	0.438571
F224	F	0.368956	0.262583	-0.010816
H225	H	0.511895	0.262350	0.435753
H226	H	0.413506	0.765030	-0.698351
F227	F	0.334184	0.478349	0.076374
H228	H	0.241616	0.496816	0.067158
H229	H	-0.396547	0.765001	-0.066920
F230	F	-0.317535	0.783496	-0.076159
F231	F	-0.205607	0.478291	0.076437
H232	H	-0.007116	0.838956	-0.103878
H233	H	0.223517	0.765056	-0.066978
H234	H	0.413536	0.765026	-0.807840
