data_functionalizedCrystal
_audit_creation_method	'MofGen! by Chris Wilmer'
_symmetry_space_group_name_H-M	'P1'
_symmetry_Int_Tables_number	1
_symmetry_cell_setting	triclinic
loop_
_symmetry_equiv_pos_as_xyz
  x,y,z
_cell_length_a	10.654547
_cell_length_b	10.654545
_cell_length_c	7.681481
_cell_angle_alpha	84.204528
_cell_angle_beta	95.778576
_cell_angle_gamma	84.485741
loop_
_atom_site_label
_atom_site_type_symbol
_atom_site_fract_x
_atom_site_fract_y
_atom_site_fract_z
O1	O	1.656068	0.188204	-0.146449
O2	O	1.290590	0.205006	-0.146445
O3	O	1.481731	0.013866	-0.146446
O4	O	1.464927	0.379344	-0.146448
O5	O	1.505257	-0.009714	0.146412
O6	O	1.314116	0.181426	0.146413
O7	O	1.679594	0.164624	0.146409
Zn8	Zn	1.500590	0.169281	0.192908
Zn9	Zn	1.469594	0.200349	-0.192945
O10	O	1.488453	0.355764	0.146409
C11	C	1.255555	0.191982	-0.000016
C12	C	1.116112	0.188288	-0.000015
C13	C	0.828442	0.207036	-0.319320
C14	C	0.881136	0.221626	-0.478957
C15	C	1.012154	0.225106	-0.478952
C16	C	1.090482	0.213990	-0.319293
C17	C	1.037788	0.199399	-0.159656
C18	C	0.906766	0.195925	-0.159678
C19	C	1.063418	0.173698	0.159622
C20	C	0.932399	0.170227	0.159622
C21	C	1.141747	0.162582	0.319281
C22	C	1.089052	0.148000	0.478922
C23	C	0.958025	0.144523	0.478911
C24	C	0.879705	0.155637	0.319259
C25	C	1.492260	-0.044722	-0.000021
C26	C	1.488566	-0.184164	-0.000031
C27	C	1.462933	-0.158465	-0.319313
C28	C	1.448386	-0.211126	-0.478954
C29	C	1.444917	-0.342144	-0.478956
C30	C	1.455992	-0.420507	-0.319300
C31	C	1.470539	-0.367846	-0.159660
C32	C	1.474010	-0.236823	-0.159675
C33	C	1.496163	-0.393544	0.159619
C34	C	1.499642	-0.262526	0.159625
C35	C	1.507238	-0.471906	0.319275
C36	C	1.521794	-0.419247	0.478919
C37	C	1.525264	-0.288220	0.478914
C38	C	1.514188	-0.209866	0.319265
C39	C	1.714629	0.177649	-0.000025
C40	C	1.854071	0.181343	-0.000037
C41	C	1.477924	0.414352	-0.000020
C42	C	1.481616	0.553796	-0.000021
N43	N	1.521753	0.148078	0.456242
N44	N	1.448440	0.221543	-0.456279
H45	H	1.248428	0.165408	0.319274
H46	H	1.537091	-0.245351	0.608913
Cl47	Cl	1.078403	0.243439	-0.679640
H48	H	1.373602	0.296528	0.468525
Cl49	Cl	1.187526	0.134021	0.679613
Cl50	Cl	1.637320	0.032311	0.572344
H51	H	0.721757	0.204221	-0.319340
Cl52	Cl	0.782667	0.235552	-0.679660
Cl53	Cl	0.891795	0.126167	0.679610
H54	H	1.465771	-0.051783	-0.319328
H55	H	1.439367	-0.147309	-0.608942
Cl56	Cl	1.255194	0.218343	-0.319293
H57	H	1.517019	-0.103183	0.319246
H58	H	1.433060	-0.385018	-0.608949
H59	H	1.453151	-0.527186	-0.319316
Cl60	Cl	0.714993	0.151273	0.319231
H61	H	1.504405	-0.578586	0.319262
H62	H	1.530801	-0.483057	0.608897
