data_functionalizedCrystal
_audit_creation_method	'MofGen! by Chris Wilmer'
_symmetry_space_group_name_H-M	'P1'
_symmetry_Int_Tables_number	1
_symmetry_cell_setting	triclinic
loop_
_symmetry_equiv_pos_as_xyz
  x,y,z
_cell_length_a	15.297327
_cell_length_b	13.032831
_cell_length_c	13.032268
_cell_angle_alpha	89.113023
_cell_angle_beta	105.380838
_cell_angle_gamma	86.257992
loop_
_atom_site_label
_atom_site_type_symbol
_atom_site_fract_x
_atom_site_fract_y
_atom_site_fract_z
Zn1	Zn	-0.605893	-1.363663	-0.885100
Zn2	Zn	-0.739564	-1.355662	-0.736122
Zn3	Zn	-0.568414	-1.221861	-0.684891
Zn4	Zn	-0.734713	-1.162990	-0.885413
O5	O	-0.662146	-1.276044	-0.797881
O6	O	-0.641340	-1.502581	-0.886647
O7	O	-0.703205	-1.359203	-0.583060
O8	O	-0.447848	-1.268657	-0.689878
O9	O	-0.739547	-1.496703	-0.777194
O10	O	-0.475384	-1.372838	-0.836970
O11	O	-0.577463	-1.260899	-0.545420
O12	O	-0.572759	-1.074072	-0.690181
O13	O	-0.731280	-1.168320	-1.031638
O14	O	-0.694938	-1.030820	-0.837504
O15	O	-0.636636	-1.315754	-1.031408
O16	O	-0.864458	-1.302118	-0.777497
O17	O	-0.860894	-1.160562	-0.887180
C18	C	-0.629256	-1.016151	-0.758318
C19	C	-0.615209	-0.904960	-0.741421
C20	C	-0.895233	-1.224108	-0.837959
C21	C	-0.994963	-1.201976	-0.855153
C22	C	-0.687598	-1.236363	-1.070508
C23	C	-0.698444	-1.219453	-1.186686
C24	C	-1.283427	-1.434586	-0.675411
C25	C	-1.189725	-1.455381	-0.659251
C26	C	-1.141030	-1.392032	-0.708225
C27	C	-1.186046	-1.307884	-0.773362
C28	C	-1.279756	-1.287082	-0.789517
C29	C	-1.137359	-1.244528	-0.822332
C30	C	-1.182375	-1.160380	-0.887469
C31	C	-1.276076	-1.139583	-0.903621
C32	C	-1.324771	-1.202932	-0.854647
C33	C	-1.043649	-1.265329	-0.806176
C34	C	-1.039978	-1.117825	-0.920283
C35	C	-1.133680	-1.097031	-0.936443
C36	C	-0.428155	-1.328207	-0.757674
C37	C	-0.328442	-1.350436	-0.740540
C38	C	-0.695165	-1.536951	-0.837600
C39	C	-0.709236	-1.648135	-0.854526
C40	C	-0.669477	-0.834008	-0.806700
C41	C	-0.654961	-0.719086	-0.789238
C42	C	-0.656451	-1.284861	-1.238367
C43	C	-0.667660	-1.267385	-1.358443
C44	C	-0.636736	-1.315643	-0.526313
C45	C	-0.625662	-1.332803	-0.410122
H46	H	-1.007005	-1.333843	-0.753141
H47	H	-1.401072	-1.186008	-0.867804
C48	C	-0.733988	-0.830898	-0.996051
C49	C	-0.746706	-0.866854	-0.899604
H50	H	-0.781664	-0.851180	-1.053406
H51	H	-0.734372	-0.757984	-0.996499
H52	H	-0.677306	-0.859160	-1.003661
H53	H	-0.803385	-0.838585	-0.891990
H54	H	-0.746331	-0.939782	-0.899154
H55	H	-0.742686	-1.150512	-1.231332
H56	H	-0.557999	-0.880623	-0.672609
H57	H	-0.597746	-0.694754	-0.720421
H58	H	-1.064733	-1.408967	-0.695062
C59	C	-0.870007	-0.639303	-0.936180
C60	C	-0.786472	-0.680968	-0.947435
H61	H	-0.917686	-0.659569	-0.993541
H62	H	-0.878620	-0.663697	-0.870751
H63	H	-0.870373	-0.566381	-0.936631
H64	H	-0.786104	-0.753890	-0.946976
H65	H	-0.777857	-0.656578	-1.012880
C66	C	-1.263034	-0.995873	-1.014793
C67	C	-1.325558	-1.047083	-0.975214
H68	H	-1.293584	-0.938771	-1.058996
H69	H	-1.217440	-0.972380	-0.957111
H70	H	-1.235685	-1.041735	-1.055131
H71	H	-1.352902	-1.001223	-0.934869
H72	H	-1.371167	-1.070574	-1.032905
H73	H	-1.153076	-1.523892	-0.606215
C74	C	-0.526155	-1.343423	-1.096838
C75	C	-0.596719	-1.377928	-1.178101
H76	H	-0.489283	-1.400882	-1.059631
H77	H	-0.490270	-1.301351	-1.126898
H78	H	-0.551058	-1.304648	-1.048864
H79	H	-0.571815	-1.416696	-1.226080
H80	H	-0.632608	-1.420017	-1.148041
C81	C	-0.726951	-1.175025	-1.525992
C82	C	-0.727407	-1.174321	-1.418704
H83	H	-0.763842	-1.117576	-1.563195
H84	H	-0.666484	-1.171235	-1.531241
H85	H	-0.750235	-1.236738	-1.556305
H86	H	-0.704117	-1.112611	-1.388388
H87	H	-0.787887	-1.178102	-1.413449
C88	C	-0.495339	-1.391341	-1.268621
C89	C	-0.565904	-1.425865	-1.349870
H90	H	-0.458446	-1.448792	-1.231424
H91	H	-0.459476	-1.349250	-1.298693
H92	H	-0.520241	-1.352582	-1.220635
H93	H	-0.541001	-1.464618	-1.397861
H94	H	-0.601772	-1.467973	-1.319798
H95	H	-1.170345	-1.028516	-0.989478
C96	C	-1.428694	-1.468137	-0.649459
C97	C	-1.336945	-1.504182	-0.621541
H98	H	-1.461731	-1.511102	-0.616189
H99	H	-1.434147	-1.399747	-0.626563
H100	H	-1.452430	-1.469134	-0.724558
H101	H	-1.313208	-1.503178	-0.546442
H102	H	-1.331487	-1.572589	-0.644431
C103	C	-0.894710	-1.084219	-0.946199
C104	C	-0.986462	-1.048188	-0.974127
H105	H	-0.861670	-1.041233	-0.979442
H106	H	-0.870989	-1.083253	-0.871106
H107	H	-0.889245	-1.152606	-0.969127
H108	H	-0.991927	-0.979804	-0.951191
H109	H	-1.010189	-1.049144	-1.049236
