data_functionalizedCrystal
_audit_creation_method	'MofGen! by Chris Wilmer'
_symmetry_space_group_name_H-M	'P1'
_symmetry_Int_Tables_number	1
_symmetry_cell_setting	triclinic
loop_
_symmetry_equiv_pos_as_xyz
  x,y,z
_cell_length_a	14.044191
_cell_length_b	23.532357
_cell_length_c	13.101039
_cell_angle_alpha	93.334957
_cell_angle_beta	86.337551
_cell_angle_gamma	88.010034
loop_
_atom_site_label
_atom_site_type_symbol
_atom_site_fract_x
_atom_site_fract_y
_atom_site_fract_z
O1	O	1.261616	0.134378	-0.085188
O2	O	1.594949	0.467712	0.248145
O3	O	1.928283	0.801045	0.581479
O4	O	0.985695	0.129421	-0.085200
O5	O	1.319029	0.462755	0.248133
O6	O	1.652362	0.796088	0.581467
O7	O	1.131999	0.049419	-0.085173
O8	O	1.465333	0.382753	0.248161
O9	O	1.798666	0.716086	0.581494
O10	O	1.115312	0.214380	-0.085215
O11	O	1.448645	0.547714	0.248118
O12	O	1.781978	0.881047	0.581451
O13	O	1.121502	0.055170	0.085255
O14	O	1.454835	0.388503	0.418589
O15	O	1.788169	0.721836	0.751922
O16	O	0.975198	0.135172	0.085228
O17	O	1.308531	0.468505	0.418561
O18	O	1.641865	0.801839	0.751894
O19	O	1.251119	0.140129	0.085240
O20	O	1.584452	0.473462	0.418573
O21	O	1.917785	0.806795	0.751907
Zn22	Zn	1.111492	0.138563	0.112293
Zn23	Zn	1.444825	0.471897	0.445626
Zn24	Zn	1.778158	0.805230	0.778960
Zn25	Zn	1.125322	0.130987	-0.112253
Zn26	Zn	1.458656	0.464320	0.221080
Zn27	Zn	1.791989	0.797653	0.554414
O28	O	1.104815	0.220131	0.085212
O29	O	1.438148	0.553464	0.418546
O30	O	1.771481	0.886797	0.751879
C31	C	0.945153	0.130128	0.000013
C32	C	1.278487	0.463462	0.333346
C33	C	1.611820	0.796795	0.666679
C34	C	0.839990	0.123661	0.000009
C35	C	1.173324	0.456994	0.333342
C36	C	1.506657	0.790327	0.666676
C37	C	0.589373	0.157706	0.000010
C38	C	0.922706	0.491040	0.333344
C39	C	1.256040	0.824373	0.666677
C40	C	0.647447	0.111846	0.000020
C41	C	0.980780	0.445179	0.333354
C42	C	1.314114	0.778513	0.666687
C43	C	0.754588	0.118421	0.000014
C44	C	1.087921	0.451755	0.333347
C45	C	1.421254	0.785088	0.666681
C46	C	0.482222	0.151132	0.000017
C47	C	0.815555	0.484465	0.333350
C48	C	1.148889	0.817799	0.666683
C49	C	1.126333	0.031055	0.000045
C50	C	1.459666	0.364389	0.333378
C51	C	1.793000	0.697722	0.666711
C52	C	1.125077	-0.032231	0.000054
C53	C	1.458411	0.301102	0.333387
C54	C	1.791744	0.634436	0.666721
C55	C	1.122923	-0.427806	-0.092902
C56	C	1.456256	-0.094473	0.240431
C57	C	1.789590	0.238861	0.573765
C58	C	1.121730	-0.487270	-0.092908
C59	C	1.455064	-0.153937	0.240426
C60	C	1.788397	0.179396	0.573759
O61	O	1.125947	-0.520688	-0.171916
O62	O	1.459281	-0.187354	0.161418
O63	O	1.792614	0.145979	0.494751
N64	N	1.115417	-0.513879	-0.000009
N65	N	1.448750	-0.180546	0.333325
N66	N	1.782083	0.152788	0.666658
C67	C	1.110286	-0.481020	0.092902
C68	C	1.443619	-0.147686	0.426235
C69	C	1.776952	0.185647	0.759569
O70	O	1.104805	-0.509113	0.171919
O71	O	1.438138	-0.175780	0.505253
O72	O	1.771472	0.157554	0.838586
C73	C	1.111472	-0.421556	0.092907
C74	C	1.444805	-0.088223	0.426240
C75	C	1.778138	0.245110	0.759574
C76	C	1.117795	-0.394951	0.000002
C77	C	1.451129	-0.061618	0.333335
C78	C	1.784462	0.271715	0.666669
C79	C	1.129245	-0.401200	-0.185799
C80	C	1.462578	-0.067867	0.147534
C81	C	1.795912	0.265466	0.480867
C82	C	1.130440	-0.341740	-0.185793
C83	C	1.463773	-0.008407	0.147540
C84	C	1.797106	0.324927	0.480874
C85	C	1.125312	-0.308885	-0.092889
C86	C	1.458645	0.024448	0.240444
C87	C	1.791979	0.357781	0.573777
C88	C	1.118990	-0.335491	0.000008
C89	C	1.452323	-0.002158	0.333342
C90	C	1.785657	0.331176	0.666675
C91	C	1.106334	-0.388698	0.185817
C92	C	1.439668	-0.055365	0.519150
C93	C	1.773001	0.277968	0.852483
C94	C	1.107520	-0.329231	0.185814
C95	C	1.440853	0.004102	0.519147
C96	C	1.774187	0.337436	0.852480
C97	C	1.113844	-0.302626	0.092909
C98	C	1.447177	0.030708	0.426242
C99	C	1.780510	0.364041	0.759575
C100	C	1.115057	-0.243176	0.092918
C101	C	1.448390	0.090157	0.426252
C102	C	1.781723	0.423490	0.759585
N103	N	1.121370	-0.216567	0.000019
N104	N	1.454704	0.116766	0.333353
N105	N	1.788037	0.450099	0.666686
C106	C	1.126498	-0.249422	-0.092884
C107	C	1.459831	0.083911	0.240449
C108	C	1.793165	0.417245	0.573782
C109	C	1.107794	-0.605897	0.092885
C110	C	1.441127	-0.272564	0.426218
C111	C	1.774461	0.060770	0.759552
C112	C	1.106615	-0.665360	0.092881
C113	C	1.439948	-0.332026	0.426214
C114	C	1.773281	0.001307	0.759548
C115	C	1.118057	-0.671606	-0.092929
C116	C	1.451391	-0.338273	0.240404
C117	C	1.784724	-0.004939	0.573738
C118	C	1.119243	-0.612142	-0.092924
C119	C	1.452577	-0.278809	0.240409
C120	C	1.785910	0.054524	0.573742
C121	C	1.114107	-0.579288	-0.000014
C122	C	1.447441	-0.245955	0.333319
C123	C	1.780774	0.087378	0.666653
C124	C	1.129007	-0.124551	-0.092864
C125	C	1.462340	0.208782	0.240469
C126	C	1.795674	0.542115	0.573802
C127	C	1.130205	-0.065086	-0.092850
C128	C	1.463538	0.268248	0.240484
C129	C	1.796872	0.601581	0.573817
C130	C	1.118757	-0.058844	0.092960
C131	C	1.452090	0.274489	0.426293
C132	C	1.785424	0.607822	0.759627
C133	C	1.117564	-0.118305	0.092946
C134	C	1.450897	0.215028	0.426279
C135	C	1.784231	0.548362	0.759613
C136	C	1.122686	-0.151157	0.000026
C137	C	1.456020	0.182176	0.333359
C138	C	1.789353	0.515510	0.666692
O139	O	1.110839	-0.209722	0.171886
O140	O	1.444172	0.123611	0.505219
O141	O	1.777506	0.456944	0.838553
O142	O	1.131965	-0.221321	-0.171888
O143	O	1.465299	0.112012	0.161445
O144	O	1.798632	0.445346	0.494778
C145	C	1.291661	0.139422	0.000025
C146	C	1.624994	0.472755	0.333358
C147	C	1.958327	0.806088	0.666692
C148	C	1.396824	0.145889	0.000022
C149	C	1.730157	0.479222	0.333355
C150	C	2.063491	0.812556	0.666689
C151	C	1.110481	0.238495	-0.000007
C152	C	1.443814	0.571828	0.333326
C153	C	1.777148	0.905161	0.666660
C154	C	1.111737	0.301781	-0.000023
C155	C	1.445070	0.635114	0.333310
C156	C	1.778404	0.968447	0.666643
N157	N	1.102060	0.143734	0.265540
N158	N	1.435393	0.477067	0.598873
N159	N	1.768726	0.810401	0.932206
N160	N	1.134762	0.125812	-0.265500
N161	N	1.468095	0.459145	0.067833
N162	N	1.801429	0.792479	0.401167
C163	C	1.089227	0.150774	0.474580
C164	C	1.422560	0.484107	0.807913
C165	C	1.755893	0.817441	1.141247
C166	C	1.147592	0.118773	0.525466
C167	C	1.480925	0.452107	0.858800
C168	C	1.814258	0.785440	1.192133
C169	C	1.140451	0.122691	0.641784
C170	C	1.473785	0.456024	0.975117
C171	C	1.807118	0.789357	1.308450
C172	C	1.096366	0.146858	0.358252
C173	C	1.429699	0.480191	0.691586
C174	C	1.763033	0.813524	1.024919
H175	H	1.133173	-0.151293	-0.168529
H176	H	1.466507	0.182041	0.164805
H177	H	1.799840	0.515374	0.498138
H178	H	1.033901	0.181111	0.518367
H179	H	1.367234	0.514444	0.851700
H180	H	1.700568	0.847778	1.185033
H181	H	0.616705	0.067643	-0.000040
H182	H	0.950038	0.400977	0.333293
H183	H	1.283371	0.734310	0.666626
H184	H	0.620118	0.201903	-0.000004
H185	H	0.953452	0.535236	0.333329
H186	H	1.286785	0.868570	0.666662
H187	H	1.135357	-0.043427	-0.168507
H188	H	1.468690	0.289907	0.164826
H189	H	1.802023	0.623240	0.498159
H190	H	1.202922	0.088435	0.481675
H191	H	1.536256	0.421769	0.815008
H192	H	1.869589	0.755102	1.148341
C193	C	1.137378	-0.312481	-0.287989
C194	C	1.470711	0.020852	0.045344
C195	C	1.804044	0.354185	0.378677
H196	H	1.140249	-0.340571	-0.343312
H197	H	1.473582	-0.007238	-0.009979
H198	H	1.806915	0.326095	0.323354
H199	H	1.193331	-0.290950	-0.291864
H200	H	1.526665	0.042383	0.041470
H201	H	1.859998	0.375716	0.374803
H202	H	1.082813	-0.287880	-0.291850
H203	H	1.416146	0.045453	0.041483
H204	H	1.749479	0.378786	0.374817
H205	H	1.124391	-0.590485	-0.168576
H206	H	1.457725	-0.257151	0.164758
H207	H	1.791058	0.076182	0.498091
C208	C	1.134896	-0.437332	-0.288002
C209	C	1.468229	-0.103999	0.045331
C210	C	1.801563	0.229335	0.378664
H211	H	1.138839	-0.412962	-0.343319
H212	H	1.472172	-0.079629	-0.009985
H213	H	1.805505	0.253704	0.323348
H214	H	1.079422	-0.459125	-0.291889
H215	H	1.412755	-0.125792	0.041444
H216	H	1.746089	0.207541	0.374777
H217	H	1.189938	-0.462192	-0.291863
H218	H	1.523271	-0.128858	0.041471
H219	H	1.856605	0.204475	0.374804
H220	H	1.122229	-0.698367	-0.168577
H221	H	1.455563	-0.365034	0.164757
H222	H	1.788896	-0.031700	0.498090
H223	H	1.101480	-0.687017	0.168534
H224	H	1.434813	-0.353683	0.501867
H225	H	1.768146	-0.020350	0.835200
H226	H	1.103614	-0.579151	0.168548
H227	H	1.436947	-0.245817	0.501882
H228	H	1.770281	0.087516	0.835215
H229	H	1.101186	-0.410350	0.261470
H230	H	1.434520	-0.077016	0.594803
H231	H	1.767853	0.256317	0.928137
C232	C	1.101871	-0.293092	0.288015
C233	C	1.435205	0.040241	0.621348
C234	C	1.768538	0.373574	0.954681
H235	H	1.103479	-0.253866	0.274720
H236	H	1.436812	0.079467	0.608053
H237	H	1.770146	0.412800	0.941387
H238	H	1.154576	-0.303094	0.326194
H239	H	1.487909	0.030240	0.659528
H240	H	1.821243	0.363573	0.992861
H241	H	1.044060	-0.300016	0.326174
H242	H	1.377393	0.033317	0.659508
H243	H	1.710726	0.366650	0.992841
C244	C	1.110611	-0.147572	0.195138
C245	C	1.443944	0.185761	0.528471
C246	C	1.777278	0.519095	0.861805
H247	H	1.107724	-0.119486	0.250468
H248	H	1.441057	0.213847	0.583801
H249	H	1.774390	0.547181	0.917135
H250	H	1.165156	-0.172183	0.199008
H251	H	1.498489	0.161150	0.532342
H252	H	1.831822	0.494484	0.865675
H253	H	1.054639	-0.169093	0.198990
H254	H	1.387973	0.164240	0.532324
H255	H	1.721306	0.497573	0.865657
H256	H	1.114587	-0.032084	0.168600
H257	H	1.447920	0.301250	0.501933
H258	H	1.781253	0.634583	0.835266
