data_functionalizedCrystal
_audit_creation_method	'MofGen! by Chris Wilmer'
_symmetry_space_group_name_H-M	'P1'
_symmetry_Int_Tables_number	1
_symmetry_cell_setting	triclinic
loop_
_symmetry_equiv_pos_as_xyz
  x,y,z
_cell_length_a	17.699092
_cell_length_b	10.654550
_cell_length_c	9.130313
_cell_angle_alpha	89.999724
_cell_angle_beta	90.002831
_cell_angle_gamma	96.114351
loop_
_atom_site_label
_atom_site_type_symbol
_atom_site_fract_x
_atom_site_fract_y
_atom_site_fract_z
O1	O	0.106302	-1.665984	0.121684
O2	O	0.116430	-1.300329	0.121710
O3	O	0.001243	-1.493482	0.121693
O4	O	0.221489	-1.472831	0.121701
O5	O	0.001240	-1.493468	-0.121906
O6	O	0.116427	-1.300315	-0.121888
O7	O	0.106299	-1.665971	-0.121915
Cu8	Cu	0.111362	-1.483142	-0.144144
Cu9	Cu	0.111366	-1.483157	0.143940
O10	O	0.221486	-1.472818	-0.121898
C11	C	0.115685	-1.253537	-0.000086
C12	C	0.113460	-1.114133	-0.000075
N13	N	0.111359	-1.483140	-0.346767
C14	C	-0.026960	-1.492733	-0.000104
C15	C	-0.110992	-1.490508	-0.000097
C16	C	-0.150464	-1.489473	0.132690
C17	C	-0.229421	-1.487374	0.132692
C18	C	-0.268904	-1.486320	-0.000095
C19	C	-0.229426	-1.487351	-0.132893
C20	C	-0.150471	-1.489441	-0.132893
C21	C	-0.547845	-1.478922	-0.132894
C22	C	-0.626806	-1.476836	-0.132883
C23	C	-0.626795	-1.476855	0.132691
C24	C	-0.547839	-1.478945	0.132691
C25	C	-0.508368	-1.479969	-0.000106
C26	C	-0.422754	-1.482243	-0.000106
C27	C	-0.354517	-1.484055	-0.000096
C28	C	0.249689	-1.473566	-0.000097
C29	C	0.333721	-1.475791	-0.000094
C30	C	0.107044	-1.712762	-0.000116
C31	C	0.109269	-1.852167	-0.000116
C32	C	0.181280	-1.033463	-0.000077
C33	C	0.179185	-0.902479	-0.000103
C34	C	0.041444	-0.932847	-0.000119
C35	C	0.043539	-1.063828	-0.000104
C36	C	0.060376	-1.568697	-0.423426
C37	C	0.060376	-1.568709	-0.576763
C38	C	0.162349	-1.397603	-0.576767
C39	C	0.162345	-1.397586	-0.423433
N40	N	0.111364	-1.483169	0.346562
H41	H	-0.118323	-1.490338	0.240821
H42	H	0.238214	-1.074416	-0.000065
O43	O	-0.267660	-1.486246	0.261788
C44	C	-0.240380	-1.378054	0.342614
H45	H	-0.180395	-1.343289	0.304846
H46	H	-0.239458	-1.402634	0.464076
H47	H	-0.279228	-1.300755	0.324279
O48	O	0.245137	-0.824296	-0.000034
C49	C	0.307295	-0.896790	-0.000046
H50	H	0.288597	-0.994604	0.046085
H51	H	0.354856	-0.848320	0.070679
H52	H	0.328696	-0.906066	-0.116907
O53	O	-0.665047	-1.475658	0.261781
C54	C	-0.637758	-1.367433	0.342539
H55	H	-0.577761	-1.332723	0.304787
H56	H	-0.636860	-1.391945	0.464022
H57	H	-0.676584	-1.290118	0.324113
O58	O	-0.026409	-0.883769	-0.000069
C59	C	-0.013718	-0.750862	-0.000116
H60	H	0.045184	-0.719920	0.046006
H61	H	-0.058498	-0.710775	0.070599
H62	H	-0.017577	-0.714419	-0.116986
O63	O	-0.022325	-1.142252	-0.000356
C64	C	-0.025222	-1.218957	-0.126492
H65	H	0.013225	-1.170870	-0.214674
H66	H	-0.086110	-1.233882	-0.168844
H67	H	-0.005127	-1.314141	-0.097956
O68	O	0.010957	-1.651873	-0.651391
C69	C	0.051927	-1.729243	-0.740042
H70	H	0.110870	-1.679043	-0.763013
H71	H	0.020448	-1.749219	-0.847868
H72	H	0.057592	-1.822028	-0.680934
H73	H	0.203862	-1.327949	-0.639205
O74	O	-0.112058	-1.490617	-0.261794
C75	C	-0.074399	-1.600554	-0.269783
H76	H	-0.065229	-1.637126	-0.154498
H77	H	-0.017081	-1.577560	-0.325989
H78	H	-0.110431	-1.675872	-0.335321
O79	O	0.211947	-1.314425	-0.349184
C80	C	0.256940	-1.238903	-0.449728
H81	H	0.258092	-1.290393	-0.559022
H82	H	0.317274	-1.219550	-0.405406
H83	H	0.231840	-1.145699	-0.466056
O84	O	-0.267729	-1.486105	-0.261920
C85	C	-0.240428	-1.377909	-0.342715
H86	H	-0.213131	-1.302497	-0.265015
H87	H	-0.289671	-1.340044	-0.402943
H88	H	-0.196409	-1.403695	-0.425517
O89	O	-0.509407	-1.479727	0.261611
C90	C	-0.455778	-1.372160	0.269523
H91	H	-0.441272	-1.336293	0.154209
H92	H	-0.402056	-1.398001	0.325798
H93	H	-0.480640	-1.295206	0.334958
O94	O	-0.665107	-1.475575	-0.261922
C95	C	-0.637803	-1.367369	-0.342695
H96	H	-0.610505	-1.291969	-0.264980
H97	H	-0.687043	-1.329492	-0.402919
H98	H	-0.593782	-1.393145	-0.425501
H99	H	-0.515718	-1.479781	-0.241025
H100	H	0.018859	-1.638358	-0.361008
