data_functionalizedCrystal
_audit_creation_method	'MofGen! by Chris Wilmer'
_symmetry_space_group_name_H-M	'P1'
_symmetry_Int_Tables_number	1
_symmetry_cell_setting	triclinic
loop_
_symmetry_equiv_pos_as_xyz
  x,y,z
_cell_length_a	8.497367
_cell_length_b	8.497374
_cell_length_c	12.594517
_cell_angle_alpha	90.003871
_cell_angle_beta	90.033674
_cell_angle_gamma	90.038609
loop_
_atom_site_label
_atom_site_type_symbol
_atom_site_fract_x
_atom_site_fract_y
_atom_site_fract_z
Zn1	Zn	0.628339	0.892563	1.627450
Zn2	Zn	0.892085	0.628982	1.627549
Zn3	Zn	0.628311	0.628780	1.449508
Zn4	Zn	0.892070	0.892703	1.449590
O5	O	0.760201	0.760757	1.538524
O6	O	0.663343	0.857624	1.776409
O7	O	0.857089	0.408193	1.603939
O8	O	0.407552	0.663628	1.473037
O9	O	0.857116	0.663972	1.776482
O10	O	0.407572	0.857428	1.603770
O11	O	0.663296	0.408044	1.473133
O12	O	0.663282	0.663765	1.300573
O13	O	0.857091	1.113447	1.473176
O14	O	0.857064	0.857668	1.300633
O15	O	0.663329	1.113344	1.603849
O16	O	1.112845	0.664109	1.604018
O17	O	1.112835	0.857864	1.473272
C18	C	0.760169	0.760711	1.261983
C19	C	0.760194	0.760728	1.143678
C20	C	1.348721	0.760611	1.538450
C21	C	1.170077	0.760900	1.538584
C22	C	0.760203	1.172237	1.538516
C23	C	0.760220	1.350881	1.538519
C24	C	0.654652	0.655465	1.074361
C25	C	0.798540	0.616778	1.003642
C26	C	0.616377	0.799442	1.003598
C27	C	0.904157	0.721966	1.074517
C28	C	0.721897	0.904697	1.074479
C29	C	0.865884	0.866065	1.003792
C30	C	0.760234	0.760805	1.816145
C31	C	0.760248	0.760825	1.934451
H32	H	0.565486	0.566338	1.105348
H33	H	0.830965	0.495068	0.972527
C34	C	1.127678	0.800946	1.178405
C35	C	1.068424	0.677617	1.116383
H36	H	1.229082	0.773557	1.204256
H37	H	1.135114	0.893523	1.136443
H38	H	1.059033	0.819379	1.236590
H39	H	1.137064	0.659192	1.058193
H40	H	1.060998	0.585012	1.158346
C41	C	0.947664	1.136521	0.999570
C42	C	0.986536	0.986292	0.962218
H43	H	1.022160	1.210735	0.973907
H44	H	0.845600	1.164218	0.975147
H45	H	0.948897	1.136496	1.074991
H46	H	0.985292	0.986314	0.886796
H47	H	1.088628	0.958588	0.986636
C48	C	0.527309	1.109209	1.080792
C49	C	0.678068	1.068949	1.116530
H50	H	0.500237	1.210607	1.106761
H51	H	0.526068	1.110210	1.005384
H52	H	0.453374	1.034122	1.106012
H53	H	0.752005	1.144029	1.091303
H54	H	0.679321	1.067959	1.191954
C55	C	0.341820	0.733157	0.997177
C56	C	0.452161	0.843607	0.961550
H57	H	0.240439	0.760422	0.971225
H58	H	0.369768	0.631656	0.971876
H59	H	0.340405	0.732509	1.072594
H60	H	0.453585	0.844247	0.886132
H61	H	0.424205	0.945135	0.986845
