data_functionalizedCrystal
_audit_creation_method	'MofGen! by Chris Wilmer'
_symmetry_space_group_name_H-M	'P1'
_symmetry_Int_Tables_number	1
_symmetry_cell_setting	triclinic
loop_
_symmetry_equiv_pos_as_xyz
  x,y,z
_cell_length_a	12.759401
_cell_length_b	12.759400
_cell_length_c	12.759387
_cell_angle_alpha	89.938595
_cell_angle_beta	89.958721
_cell_angle_gamma	90.014592
loop_
_atom_site_label
_atom_site_type_symbol
_atom_site_fract_x
_atom_site_fract_y
_atom_site_fract_z
Zn1	Zn	1.606464	-0.417889	-0.594062
Zn2	Zn	1.606297	-0.593702	-0.418385
Zn3	Zn	1.430705	-0.418037	-0.418393
Zn4	Zn	1.430755	-0.593527	-0.594018
O5	O	1.518555	-0.505789	-0.506215
O6	O	1.753463	-0.441222	-0.570773
O7	O	1.582913	-0.570535	-0.271364
O8	O	1.454068	-0.270996	-0.441719
O9	O	1.753340	-0.570391	-0.441704
O10	O	1.583198	-0.270888	-0.570782
O11	O	1.453906	-0.441475	-0.271371
O12	O	1.283690	-0.441305	-0.441675
O13	O	1.454154	-0.570093	-0.741045
O14	O	1.283727	-0.570236	-0.570706
O15	O	1.583247	-0.441053	-0.741078
O16	O	1.582962	-0.740700	-0.441660
O17	O	1.453992	-0.740571	-0.570697
C18	C	1.245588	-0.505768	-0.506188
C19	C	1.128811	-0.505785	-0.506201
C20	C	0.964151	-0.572959	-0.438940
C21	C	1.073875	-0.572940	-0.438910
C22	C	1.074017	-0.438637	-0.573518
C23	C	0.964295	-0.438652	-0.573542
C24	C	0.964070	-0.650501	-0.361229
C25	C	1.073794	-0.650481	-0.361199
C26	C	1.518493	-0.778756	-0.506196
C27	C	1.518563	-0.895533	-0.506223
C28	C	1.585771	-0.950248	-0.573484
C29	C	1.585830	-1.059972	-0.573512
C30	C	1.451469	-1.060256	-0.439011
C31	C	1.451405	-0.950534	-0.438988
C32	C	1.623433	-1.209733	-0.697482
C33	C	1.690658	-1.264452	-0.764733
C34	C	1.793149	-1.228735	-0.780949
C35	C	1.828436	-1.138301	-0.729897
C36	C	1.761216	-1.083587	-0.662638
C37	C	1.658711	-1.119303	-0.646443
C38	C	1.413814	-0.800771	-0.315017
C39	C	1.346599	-0.746055	-0.247752
C40	C	1.244106	-0.781770	-0.231526
C41	C	1.208823	-0.872208	-0.282559
C42	C	1.276038	-0.926923	-0.349824
C43	C	1.378530	-0.891201	-0.366051
C44	C	1.792588	-0.505810	-0.506242
C45	C	1.909365	-0.505819	-0.506254
C46	C	1.518725	-0.505537	-0.780248
C47	C	1.518797	-0.505429	-0.897025
C48	C	1.518646	-0.231755	-0.506256
C49	C	1.518685	-0.114979	-0.506274
C50	C	1.518447	-0.505964	-0.233247
C51	C	1.518578	-0.505775	-0.116471
C52	C	1.586288	-0.572390	-0.061553
C53	C	1.586395	-0.572220	0.048171
C54	C	1.451080	-0.438811	0.048049
C55	C	1.450968	-0.438987	-0.061672
C56	C	1.624946	-0.695612	0.198385
C57	C	1.692673	-0.762217	0.253306
C58	C	1.795260	-0.777666	0.217558
C59	C	1.830142	-0.726494	0.126890
C60	C	1.762421	-0.659880	0.071974
C61	C	1.659819	-0.644451	0.107721
C62	C	1.412428	-0.315595	-0.211888
C63	C	1.344711	-0.248975	-0.266806
C64	C	1.242122	-0.233516	-0.231060
C65	C	1.207244	-0.284669	-0.140389
C66	C	1.274960	-0.351289	-0.085471
C67	C	1.377548	-0.366750	-0.121224
H68	H	0.919693	-0.383972	-0.628347
H69	H	1.118755	-0.383952	-0.628300
H70	H	1.911899	-1.109234	-0.743096
Cl71	Cl	1.495961	-0.676228	0.243310
Cl72	Cl	1.805567	-0.969906	-0.598461
H73	H	1.539974	-1.238816	-0.684296
H74	H	0.934221	-0.628664	-0.279901
Cl75	Cl	0.911545	-0.769866	-0.406040
H76	H	1.396794	-1.105051	-0.384269
Cl77	Cl	1.119796	-0.776120	-0.394625
Cl78	Cl	1.231679	-1.040615	-0.413986
Cl79	Cl	1.541402	-0.335031	-0.256836
H80	H	1.107755	-0.621286	-0.283942
H81	H	1.661918	-1.338084	-0.806299
H82	H	1.664262	-0.803882	0.327128
Cl83	Cl	1.670193	-0.881108	-0.658011
Cl84	Cl	1.877658	-1.297528	-0.865492
Cl85	Cl	1.079974	-0.917118	-0.262154
Cl86	Cl	1.159613	-0.712991	-0.146949
H87	H	1.375337	-0.672419	-0.206193
Cl88	Cl	1.542669	-0.755868	-0.335408
H89	H	1.123712	-0.272068	-0.111273
H90	H	1.641339	-0.626775	-0.106166
H91	H	1.186992	-0.179257	-0.275778
H92	H	1.373121	-0.207316	-0.340631
H93	H	1.790823	-0.618214	-0.001844
H94	H	1.913684	-0.739068	0.097798
Cl95	Cl	1.880402	-0.861393	0.286609
H96	H	1.396035	-0.384434	0.092679
H97	H	1.246553	-0.392942	-0.011642
