data_functionalizedCrystal
_audit_creation_method	'MofGen! by Chris Wilmer'
_symmetry_space_group_name_H-M	'P1'
_symmetry_Int_Tables_number	1
_symmetry_cell_setting	triclinic
loop_
_symmetry_equiv_pos_as_xyz
  x,y,z
_cell_length_a	12.759395
_cell_length_b	16.120484
_cell_length_c	16.120297
_cell_angle_alpha	95.614431
_cell_angle_beta	92.880569
_cell_angle_gamma	92.926975
loop_
_atom_site_label
_atom_site_type_symbol
_atom_site_fract_x
_atom_site_fract_y
_atom_site_fract_z
Zn1	Zn	1.552089	-0.356712	-0.489403
Zn2	Zn	1.551956	-0.489402	-0.356713
Zn3	Zn	1.385778	-0.349652	-0.349654
Zn4	Zn	1.366967	-0.496447	-0.496442
O5	O	1.464198	-0.423054	-0.423053
O6	O	1.699091	-0.374320	-0.471809
O7	O	1.537729	-0.464961	-0.238815
O8	O	1.415767	-0.233623	-0.362292
O9	O	1.698994	-0.471807	-0.374323
O10	O	1.537955	-0.238810	-0.464965
O11	O	1.415639	-0.362287	-0.233628
O12	O	1.236263	-0.369119	-0.369118
O13	O	1.383707	-0.483815	-0.612470
O14	O	1.222442	-0.476969	-0.476962
O15	O	1.519715	-0.381152	-0.607298
O16	O	1.519489	-0.607302	-0.381148
O17	O	1.383578	-0.612478	-0.483806
C18	C	1.191232	-0.423043	-0.423038
C19	C	1.074453	-0.423059	-0.423052
C20	C	1.060100	-0.535527	-0.535186
C21	C	0.998063	-0.591768	-0.591256
C22	C	0.888340	-0.591779	-0.591267
C23	C	0.840653	-0.535541	-0.535204
C24	C	0.902690	-0.479300	-0.479134
C25	C	1.012415	-0.479297	-0.479128
C26	C	0.917043	-0.366829	-0.367005
C27	C	1.026766	-0.366821	-0.366989
C28	C	0.869356	-0.310591	-0.310942
C29	C	0.931394	-0.254353	-0.254867
C30	C	1.041123	-0.254346	-0.254858
C31	C	1.088804	-0.310581	-0.310919
C32	C	1.449506	-0.640219	-0.434026
C33	C	1.443314	-0.733125	-0.438748
C34	C	1.432016	-0.903225	-0.447386
C35	C	1.496566	-0.942042	-0.398733
C36	C	1.490280	-1.036692	-0.403540
C37	C	1.438301	-0.808567	-0.442581
C38	C	1.738229	-0.423065	-0.423068
C39	C	1.855005	-0.423070	-0.423075
C40	C	1.449627	-0.434057	-0.641059
C41	C	1.443418	-0.438746	-0.733961
C42	C	1.478974	-0.205041	-0.412056
C43	C	1.485271	-0.112137	-0.407369
C44	C	1.432045	-0.447288	-0.904051
C45	C	1.496574	-0.398569	-0.942894
C46	C	1.490246	-0.403322	-1.037538
C47	C	1.438372	-0.442536	-0.809398
C48	C	1.478776	-0.412033	-0.205892
C49	C	1.485204	-0.407109	-0.112979
H50	H	1.036902	-0.637554	-0.636903
Br51	Br	1.596598	-0.323120	-0.879854
H52	H	1.556550	-0.904190	-0.353470
H53	H	1.372053	-0.492563	-0.941874
Br54	Br	1.209011	-0.535531	-0.535162
Br55	Br	0.804141	-0.668098	-0.667368
H56	H	1.372036	-0.941074	-0.492644
H57	H	0.892557	-0.208565	-0.209228
H58	H	0.780013	-0.310601	-0.310958
Br59	Br	1.125308	-0.178008	-0.178765
Br60	Br	1.237713	-0.310580	-0.310906
Br61	Br	0.691742	-0.535542	-0.535233
