data_functionalizedCrystal
_audit_creation_method	'MofGen! by Chris Wilmer'
_symmetry_space_group_name_H-M	'P1'
_symmetry_Int_Tables_number	1
_symmetry_cell_setting	triclinic
loop_
_symmetry_equiv_pos_as_xyz
  x,y,z
_cell_length_a	21.395364
_cell_length_b	12.759399
_cell_length_c	12.759393
_cell_angle_alpha	90.026805
_cell_angle_beta	90.023491
_cell_angle_gamma	90.030951
loop_
_atom_site_label
_atom_site_type_symbol
_atom_site_fract_x
_atom_site_fract_y
_atom_site_fract_z
Zn1	Zn	-0.957920	0.417747	-0.594119
Zn2	Zn	-0.457920	0.917747	-0.094119
Zn3	Zn	-0.957856	0.593463	-0.418450
Zn4	Zn	-0.457856	1.093463	0.081550
Zn5	Zn	-0.853138	0.417850	-0.418446
Zn6	Zn	-0.353138	0.917850	0.081554
Zn7	Zn	-0.853134	0.593436	-0.594080
Zn8	Zn	-0.353134	1.093436	-0.094080
O9	O	-0.905512	0.505624	-0.506274
O10	O	-0.405512	1.005624	-0.006274
O11	O	-1.045589	0.441025	-0.570834
O12	O	-0.545589	0.941025	-0.070834
O13	O	-0.943939	0.570221	-0.271429
O14	O	-0.443939	1.070221	0.228571
O15	O	-0.867066	0.270815	-0.441764
O16	O	-0.367066	0.770815	0.058236
O17	O	-1.045542	0.570122	-0.441771
O18	O	-0.545542	1.070122	0.058229
O19	O	-0.944049	0.270740	-0.570830
O20	O	-0.444049	0.770740	-0.070830
O21	O	-0.867004	0.441199	-0.271426
O22	O	-0.367004	0.941199	0.228574
O23	O	-0.765460	0.441173	-0.441726
O24	O	-0.265460	0.941173	0.058274
O25	O	-0.867059	0.570076	-0.741106
O26	O	-0.367059	1.070076	-0.241106
O27	O	-0.765457	0.570176	-0.570763
O28	O	-0.265457	1.070176	-0.070763
O29	O	-0.944045	0.440999	-0.741135
O30	O	-0.444045	0.940999	-0.241135
O31	O	-0.943936	0.740480	-0.441733
O32	O	-0.443936	1.240480	0.058267
O33	O	-0.866997	0.740461	-0.570767
O34	O	-0.366997	1.240461	-0.070767
C35	C	-0.742724	0.505683	-0.506241
C36	C	-0.242724	1.005683	-0.006241
C37	C	-0.673083	0.505734	-0.506251
C38	C	-0.173083	1.005734	-0.006251
C39	C	-0.640417	0.438625	-0.573558
C40	C	-0.140417	0.938625	-0.073558
C41	C	-0.574981	0.438600	-0.573560
C42	C	-0.074981	0.938600	-0.073560
C43	C	-0.542215	0.505704	-0.506268
C44	C	-0.042215	1.005704	-0.006268
C45	C	-0.574889	0.572818	-0.438948
C46	C	-0.074889	1.072818	0.061052
C47	C	-0.640323	0.572833	-0.438940
C48	C	-0.140323	1.072833	0.061060
C49	C	-0.438507	0.600326	-0.497832
C50	C	0.061493	1.100326	0.002168
C51	C	-0.373074	0.600313	-0.497848
C52	C	0.126926	1.100313	0.002152
C53	C	-0.340394	0.505656	-0.506287
C54	C	0.159606	1.005656	-0.006287
C55	C	-0.373155	0.411010	-0.514732
C56	C	0.126845	0.911010	-0.014732
C57	C	-0.438589	0.411025	-0.514724
C58	C	0.061411	0.911025	-0.014724
C59	C	-0.471262	0.505694	-0.506269
C60	C	0.028738	1.005694	-0.006269
C61	C	-0.236775	0.438514	-0.573599
C62	C	0.263225	0.938514	-0.073599
C63	C	-0.171339	0.438488	-0.573595
C64	C	0.328661	0.938488	-0.073595
C65	C	-0.171247	0.572715	-0.438988
C66	C	0.328753	1.072715	0.061012
C67	C	-0.236683	0.572732	-0.438987
C68	C	0.263317	1.072732	0.061013
C69	C	-0.269443	0.505633	-0.506299
C70	C	0.230557	1.005633	-0.006299
C71	C	-0.905476	0.778591	-0.506269
C72	C	-0.405476	1.278591	-0.006269
C73	C	-0.905518	0.895368	-0.506303
C74	C	-0.405518	1.395368	-0.006303
C75	C	-0.905559	0.505523	-0.780307
C76	C	-0.405559	1.005523	-0.280307
C77	C	-0.905579	0.505480	-0.897084
C78	C	-0.405579	1.005480	-0.397084
C79	C	-0.068935	0.505578	-0.506302
C80	C	0.431065	1.005578	-0.006302
C81	C	-0.138576	0.505591	-0.506300
C82	C	0.361424	1.005591	-0.006300
C83	C	-0.945626	0.950205	-0.439195
C84	C	-0.445626	1.450205	0.060805
C85	C	-0.945667	1.059929	-0.439238
C86	C	-0.445667	1.559929	0.060762
C87	C	-0.865487	1.059969	-0.573500
C88	C	-0.365487	1.559969	-0.073500
C89	C	-0.865449	0.950247	-0.573461
C90	C	-0.365449	1.450247	-0.073461
C91	C	-0.905567	1.231591	-0.506319
C92	C	-0.405567	1.731591	-0.006319
C93	C	-0.905597	1.114814	-0.506384
C94	C	-0.405597	1.614814	-0.006384
C95	C	-0.945668	0.438259	-0.951963
C96	C	-0.445668	0.938259	-0.451963
C97	C	-0.945679	0.438213	-1.061687
C98	C	-0.445679	0.938213	-0.561687
C99	C	-0.865509	0.572620	-1.061644
C100	C	-0.365509	1.072620	-0.561644
C101	C	-0.865495	0.572659	-0.951922
C102	C	-0.365495	1.072659	-0.451922
C103	C	-0.905501	0.505649	-0.233306
C104	C	-0.405501	1.005649	0.266694
C105	C	-0.905603	0.505396	-0.116530
C106	C	-0.405603	1.005396	0.383470
H107	H	-0.346549	0.333932	-0.521604
H108	H	0.153451	0.833932	-0.021604
H109	H	-0.465261	0.333961	-0.521598
H110	H	0.034739	0.833961	-0.021598
Cl111	Cl	-0.815125	0.657075	-1.130590
Cl112	Cl	-0.315125	1.157075	-0.630590
Cl113	Cl	-0.996093	1.128863	-0.354873
Cl114	Cl	-0.496093	1.628863	0.145127
H115	H	-0.548206	0.627453	-0.384157
H116	H	-0.048206	1.127453	0.115843
Cl117	Cl	-0.277962	0.354156	-0.658209
Cl118	Cl	0.222038	0.854156	-0.158209
Cl119	Cl	-0.815090	0.657167	-0.882926
Cl120	Cl	-0.315090	1.157167	-0.382926
H121	H	-0.144743	0.383833	-0.628402
H122	H	0.355257	0.883833	-0.128402
H123	H	-0.978253	0.905525	-0.384512
H124	H	-0.478253	1.405525	0.115488
Cl125	Cl	-0.681597	0.354269	-0.658175
Cl126	Cl	-0.181597	0.854269	-0.158175
H127	H	-0.978322	0.383473	-1.106364
H128	H	-0.478322	0.883473	-0.606364
H129	H	-0.832863	1.104665	-0.628176
H130	H	-0.332863	1.604665	-0.128176
H131	H	-0.548379	0.383946	-0.628367
H132	H	-0.048379	0.883946	-0.128367
H133	H	-0.832788	0.905595	-0.628113
H134	H	-0.332788	1.405595	-0.128113
H135	H	-0.144569	0.627352	-0.384197
H136	H	0.355431	1.127352	0.115803
Cl137	Cl	-0.681391	0.657204	-0.354317
Cl138	Cl	-0.181391	1.157204	0.145683
H139	H	-0.978305	0.383554	-0.907317
H140	H	-0.478305	0.883554	-0.407317
H141	H	-0.263280	0.627384	-0.384184
H142	H	0.236720	1.127384	0.115816
Cl143	Cl	-0.479583	0.719334	-0.487208
Cl144	Cl	0.020417	1.219334	0.012792
H145	H	-0.346405	0.677379	-0.490976
H146	H	0.153595	1.177379	0.009024
