data_functionalizedCrystal
_audit_creation_method	'MofGen! by Chris Wilmer'
_symmetry_space_group_name_H-M	'P1'
_symmetry_Int_Tables_number	1
_symmetry_cell_setting	triclinic
loop_
_symmetry_equiv_pos_as_xyz
  x,y,z
_cell_length_a	12.827893
_cell_length_b	16.625545
_cell_length_c	16.625539
_cell_angle_alpha	90.026243
_cell_angle_beta	90.015091
_cell_angle_gamma	90.025719
loop_
_atom_site_label
_atom_site_type_symbol
_atom_site_fract_x
_atom_site_fract_y
_atom_site_fract_z
Zn1	Zn	1.597553	-0.321012	0.455868
Zn2	Zn	2.097553	0.178988	0.955868
Zn3	Zn	1.597428	-0.455850	0.321036
Zn4	Zn	2.097428	0.044150	0.821036
Zn5	Zn	1.422807	-0.321036	0.321053
Zn6	Zn	1.922807	0.178964	0.821053
Zn7	Zn	1.422748	-0.455806	0.455830
Zn8	Zn	1.922748	0.044194	0.955830
O9	O	1.510134	-0.388426	0.388447
O10	O	2.010134	0.111574	0.888447
O11	O	1.743772	-0.338907	0.437991
O12	O	2.243772	0.161093	0.937991
O13	O	1.574237	-0.437995	0.208206
O14	O	2.074237	0.062005	0.708206
O15	O	1.446064	-0.208200	0.338960
O16	O	1.946064	0.291800	0.838960
O17	O	1.743681	-0.437972	0.338930
O18	O	2.243681	0.062028	0.838930
O19	O	1.574449	-0.208182	0.438008
O20	O	2.074449	0.291818	0.938008
O21	O	1.445943	-0.338948	0.208219
O22	O	1.945943	0.161052	0.708219
O23	O	1.276563	-0.338905	0.338923
O24	O	1.776563	0.161095	0.838923
O25	O	1.445964	-0.437897	0.568668
O26	O	1.945964	0.062103	1.068668
O27	O	1.276520	-0.437920	0.437943
O28	O	1.776520	0.062080	0.937943
O29	O	1.574392	-0.338864	0.568696
O30	O	2.074392	0.161136	1.068696
O31	O	1.574180	-0.568677	0.338893
O32	O	2.074180	-0.068677	0.838893
O33	O	1.445844	-0.568645	0.437926
O34	O	1.945844	-0.068645	0.937926
C35	C	1.238624	-0.388411	0.388432
C36	C	1.738624	0.111589	0.888432
C37	C	1.122471	-0.388424	0.388444
C38	C	1.622471	0.111576	0.888444
C39	C	1.070731	-0.339490	0.437539
C40	C	1.570731	0.160510	0.937539
C41	C	0.950681	-0.339503	0.437553
C42	C	1.450681	0.160497	0.937553
C43	C	1.510021	-0.597917	0.388422
C44	C	2.010021	-0.097917	0.888422
C45	C	1.510068	-0.687538	0.388438
C46	C	2.010068	-0.187538	0.888438
C47	C	1.510108	-0.760320	0.388454
C48	C	2.010108	-0.260320	0.888454
C49	C	1.510169	-0.851629	0.388471
C50	C	2.010169	-0.351629	0.888471
C51	C	1.510223	-0.924405	0.388482
C52	C	2.010223	-0.424405	0.888482
C53	C	1.510283	-1.015720	0.388498
C54	C	2.010283	-0.515720	0.888498
C55	C	1.782704	-0.388441	0.388463
C56	C	2.282704	0.111559	0.888463
C57	C	1.898857	-0.388448	0.388470
C58	C	2.398857	0.111552	0.888470
C59	C	1.510185	-0.388373	0.598756
C60	C	2.010185	0.111627	1.098756
C61	C	1.510207	-0.388350	0.688377
C62	C	2.010207	0.111650	1.188377
C63	C	1.510277	-0.178117	0.388490
C64	C	2.010277	0.321883	0.888490
C65	C	1.510337	-0.088496	0.388508
C66	C	2.010337	0.411504	0.888508
C67	C	1.510143	-0.388421	0.178956
C68	C	2.010143	0.111579	0.678956
C69	C	1.510324	-0.388216	0.089335
C70	C	2.010324	0.111784	0.589335
C71	C	1.510224	-0.388332	0.761160
C72	C	2.010224	0.111668	1.261160
C73	C	1.510249	-0.388302	0.852468
C74	C	2.010249	0.111698	1.352468
C75	C	1.510273	-0.388274	0.925245
C76	C	2.010273	0.111726	1.425245
C77	C	1.510299	-0.388245	1.016559
C78	C	2.010299	0.111755	1.516559
H79	H	1.077891	-0.430326	0.346421
H80	H	1.577891	0.069674	0.846421
H81	H	1.115312	-0.297584	0.479557
H82	H	1.615312	0.202416	0.979557
H83	H	0.906186	-0.297611	0.479587
H84	H	1.406186	0.202389	0.979587
F85	F	0.957005	-0.443215	0.333531
F86	F	1.457005	0.056785	0.833531
