data_functionalizedCrystal
_audit_creation_method	'MofGen! by Chris Wilmer'
_symmetry_space_group_name_H-M	'P1'
_symmetry_Int_Tables_number	1
_symmetry_cell_setting	triclinic
loop_
_symmetry_equiv_pos_as_xyz
  x,y,z
_cell_length_a	23.532407
_cell_length_b	14.044220
_cell_length_c	12.503572
_cell_angle_alpha	93.843168
_cell_angle_beta	86.509276
_cell_angle_gamma	88.018778
loop_
_atom_site_label
_atom_site_type_symbol
_atom_site_fract_x
_atom_site_fract_y
_atom_site_fract_z
O1	O	-0.764493	-0.109506	0.089188
O2	O	-0.599532	-0.126145	0.089220
O3	O	-0.679536	0.020135	0.089194
O4	O	-0.684489	-0.255786	0.089214
O5	O	-0.673520	0.009116	-0.089446
O6	O	-0.593517	-0.137164	-0.089420
O7	O	-0.758477	-0.120525	-0.089452
Cu8	Cu	-0.675447	-0.129851	-0.105747
Cu9	Cu	-0.682562	-0.116819	0.105515
O10	O	-0.678473	-0.266805	-0.089426
C11	C	-0.575286	-0.131230	-0.000096
C12	C	-0.512000	-0.129956	-0.000084
C13	C	-0.674361	0.049920	-0.000126
C14	C	-0.667895	0.155085	-0.000126
C15	C	-0.782724	-0.115439	-0.000134
C16	C	-0.846010	-0.116714	-0.000138
C17	C	-0.117154	-0.208534	-0.000127
C18	C	-0.057690	-0.207350	-0.000134
O19	O	-0.024892	-0.280193	-0.000168
N20	N	-0.030350	-0.120386	-0.000139
C21	C	-0.062477	-0.034600	-0.000147
O22	O	-0.033762	0.039478	-0.000153
C23	C	-0.121941	-0.035785	-0.000148
C24	C	-0.149278	-0.122754	-0.000133
C25	C	-0.144492	-0.295496	-0.000113
C26	C	-0.203952	-0.296678	-0.000104
C27	C	-0.236075	-0.210899	-0.000110
C28	C	-0.208738	-0.123937	-0.000124
C29	C	-0.154067	0.050000	-0.000165
C30	C	-0.213534	0.048807	-0.000167
C31	C	-0.240871	-0.038162	-0.000151
C32	C	-0.300322	-0.039340	-0.000121
N33	N	-0.327662	-0.126304	-0.000117
C34	C	-0.295539	-0.212083	-0.000111
C35	C	0.062400	-0.032119	-0.000147
C36	C	0.121862	-0.030933	-0.000138
C37	C	0.126645	-0.203684	-0.000127
C38	C	0.067182	-0.204868	-0.000128
C39	C	0.035060	-0.119083	-0.000143
C40	C	-0.420410	-0.214560	-0.000092
C41	C	-0.479877	-0.215735	-0.000079
C42	C	-0.484655	-0.042985	-0.000096
C43	C	-0.425194	-0.041810	-0.000103
C44	C	-0.393073	-0.127605	-0.000105
O45	O	-0.333156	0.033464	-0.000092
O46	O	-0.324261	-0.286150	-0.000120
C47	C	-0.683649	-0.296589	-0.000104
C48	C	-0.690115	-0.401754	-0.000097
N49	N	-0.670448	-0.139016	-0.254338
C50	C	-0.656074	0.347636	-0.000109
C51	C	-0.701933	0.405701	-0.000114
C52	C	-0.695356	0.512843	-0.000104
C53	C	-0.662650	0.240484	-0.000119
C54	C	-0.663093	-0.152506	-0.473451
C55	C	-0.694919	-0.094159	-0.526788
C56	C	-0.690826	-0.101666	-0.648710
C57	C	-0.667185	-0.145001	-0.351518
N58	N	-0.687566	-0.107646	0.254106
H59	H	-0.502131	-0.286559	-0.000066
C60	C	-0.735884	-0.019067	-0.464784
C61	C	-0.739943	-0.011523	-0.341098
C62	C	-0.780909	0.063563	-0.279087
C63	C	-0.817815	0.131104	-0.340762
C64	C	-0.813757	0.123562	-0.464454
C65	C	-0.772791	0.048477	-0.526465
H66	H	-0.712622	-0.061523	-0.295437
H67	H	-0.783912	0.069145	-0.187522
H68	H	-0.848140	0.186687	-0.294858
H69	H	-0.841078	0.173563	-0.510116
H70	H	-0.769788	0.042894	-0.618031
C71	C	-0.519999	0.051367	-0.000105
C72	C	-0.558419	0.068568	-0.092873
C73	C	-0.593765	0.162920	-0.092892
C74	C	-0.590691	0.240072	-0.000142
C75	C	-0.552269	0.222874	0.092633
C76	C	-0.516923	0.128522	0.092651
H77	H	-0.560696	0.011453	-0.161538
H78	H	-0.622207	0.175650	-0.161570
H79	H	-0.616856	0.309917	-0.000156
H80	H	-0.549992	0.279989	0.161298
H81	H	-0.488481	0.115791	0.161330
H82	H	-0.632776	-0.208092	-0.519348
C83	C	-0.385083	-0.308934	-0.000084
C84	C	-0.394409	-0.374620	0.092694
C85	C	-0.359082	-0.468992	0.092710
C86	C	-0.314429	-0.497677	-0.000051
C87	C	-0.305101	-0.431989	-0.092836
C88	C	-0.340428	-0.337617	-0.092853
H89	H	-0.427465	-0.353387	0.161368
H90	H	-0.365987	-0.517618	0.161396
H91	H	-0.288278	-0.567536	-0.000039
H92	H	-0.272045	-0.453222	-0.161510
H93	H	-0.333523	-0.288991	-0.161539
H94	H	-0.746136	0.374950	-0.000051
C95	C	-0.109163	-0.389864	-0.000102
C96	C	-0.118496	-0.455551	0.092674
C97	C	-0.083173	-0.549926	0.092695
C98	C	-0.038517	-0.578615	-0.000061
C99	C	-0.029182	-0.512927	-0.092844
C100	C	-0.064505	-0.418551	-0.092865
H101	H	-0.151554	-0.434315	0.161344
H102	H	-0.090083	-0.598552	0.161379
H103	H	-0.012369	-0.648477	-0.000046
H104	H	0.003876	-0.534162	-0.161514
H105	H	-0.057595	-0.369925	-0.161549
H106	H	-0.226204	-0.367497	-0.000091
C107	C	-0.596364	0.389177	-0.000095
C108	C	-0.589787	0.497890	-0.000087
C109	C	-0.530078	0.539445	-0.000075
C110	C	-0.476946	0.472285	-0.000071
C111	C	-0.483522	0.363565	-0.000079
C112	C	-0.543231	0.322011	-0.000091
H113	H	-0.629120	0.547611	-0.000091
H114	H	-0.525210	0.619927	-0.000070
H115	H	-0.432746	0.503046	-0.000062
H116	H	-0.444189	0.313844	-0.000076
H117	H	-0.548098	0.241529	-0.000097
H118	H	0.044928	-0.275687	-0.000121
H119	H	0.152811	-0.273530	-0.000127
H120	H	0.144114	0.039887	-0.000134
H121	H	0.036249	0.037742	-0.000149
C122	C	-0.248868	0.143175	-0.000179
C123	C	-0.239547	0.208869	-0.092951
C124	C	-0.274880	0.303235	-0.092960
C125	C	-0.319534	0.331907	-0.000197
C126	C	-0.328857	0.266212	0.092582
C127	C	-0.293524	0.171846	0.092591
H128	H	-0.206489	0.187646	-0.161626
H129	H	-0.267978	0.351867	-0.161642
H130	H	-0.345690	0.401763	-0.000203
H131	H	-0.361915	0.287435	0.161258
H132	H	-0.300426	0.123214	0.161273
H133	H	-0.402936	0.029009	-0.000100
H134	H	-0.131819	0.120819	-0.000179
