data_functionalizedCrystal
_audit_creation_method	'MofGen! by Chris Wilmer'
_symmetry_space_group_name_H-M	'P1'
_symmetry_Int_Tables_number	1
_symmetry_cell_setting	triclinic
loop_
_symmetry_equiv_pos_as_xyz
  x,y,z
_cell_length_a	27.440280
_cell_length_b	27.440280
_cell_length_c	27.440280
_cell_angle_alpha	59.999523
_cell_angle_beta	89.999308
_cell_angle_gamma	60.002656
loop_
_atom_site_label
_atom_site_type_symbol
_atom_site_fract_x
_atom_site_fract_y
_atom_site_fract_z
Zr1	Zr	0.469574	0.533358	-0.064013
O2	O	0.391769	0.635023	-0.141829
O3	O	0.493415	0.431693	-0.040153
O4	O	0.493428	0.533347	-0.141824
O5	O	0.391757	0.533378	0.040036
O6	O	0.573630	0.533339	-0.141827
O7	O	0.391756	0.533369	-0.040158
O8	O	0.573606	0.351499	0.040045
O9	O	0.391781	0.715218	-0.141836
O10	O	0.563449	0.473504	-0.029986
O11	O	0.503596	0.473517	0.029864
O12	O	0.503612	0.593201	-0.089841
O13	O	0.443759	0.593214	-0.029992
Zr14	Zr	0.597488	0.533361	0.063881
Zr15	Zr	0.597487	0.533346	-0.064018
Zr16	Zr	0.469576	0.533373	0.063886
Zr17	Zr	0.469592	0.661261	-0.064025
Zr18	Zr	0.597470	0.405458	0.063892
O19	O	0.573648	0.635026	0.040020
O20	O	0.573645	0.635005	-0.141836
O21	O	0.391772	0.635044	0.040027
O22	O	0.675293	0.431697	0.141697
O23	O	0.675290	0.431675	-0.040159
O24	O	0.493417	0.431714	0.141704
O25	O	0.675305	0.533341	-0.040168
O26	O	0.573634	0.533372	0.141692
O27	O	0.493432	0.533380	0.141695
O28	O	0.675306	0.533351	0.040025
O29	O	0.493455	0.715209	-0.141840
O30	O	0.573608	0.351511	0.141708
O31	O	0.675281	0.351501	0.141704
O32	O	0.675280	0.351489	0.040041
O33	O	0.391782	0.715230	-0.040174
O34	O	0.493456	0.715220	-0.040177
O35	O	0.563451	0.473518	0.089709
O36	O	0.623304	0.473505	0.029860
O37	O	0.563466	0.593203	-0.029996
O38	O	0.503613	0.593215	0.029853
C39	C	0.533508	0.373373	-0.000052
C40	C	0.533500	0.319074	-0.000047
C41	C	0.577715	0.040192	0.044118
C42	C	0.577710	0.091214	0.044120
O43	O	0.615289	0.080038	0.081683
N44	N	0.533525	0.160904	-0.000059
C45	C	0.489347	0.179572	-0.044247
O46	O	0.451765	0.243534	-0.081826
C47	C	0.489355	0.128551	-0.044252
C48	C	0.533539	0.058861	-0.000066
C49	C	0.621896	-0.029495	0.088300
C50	C	0.621900	-0.080513	0.088298
C51	C	0.577724	-0.061844	0.044114
C52	C	0.533544	0.007842	-0.000068
C53	C	0.445180	0.147220	-0.088442
C54	C	0.445193	0.096191	-0.088443
C55	C	0.489376	0.026501	-0.044257
C56	C	0.489373	-0.024507	-0.044253
N57	N	0.533557	-0.094197	-0.000074
C58	C	0.577733	-0.112866	0.044110
C59	C	0.489333	0.286718	-0.044236
C60	C	0.489322	0.337739	-0.044230
C61	C	0.577685	0.249377	0.044138
C62	C	0.577694	0.198355	0.044133
C63	C	0.533518	0.217028	-0.000056
C64	C	0.577739	-0.220005	0.044103
C65	C	0.577738	-0.271024	0.044099
C66	C	0.489377	-0.182657	-0.044270
C67	C	0.489376	-0.131643	-0.044264
C68	C	0.533562	-0.150321	-0.000075
O69	O	0.451813	-0.013383	-0.081798
O70	O	0.615313	-0.176828	0.081677
C71	C	0.373532	0.533375	-0.000060
C72	C	0.319229	0.533381	-0.000058
C73	C	-0.017469	0.533339	-0.044246
C74	C	-0.068487	0.533334	-0.044247
O75	O	-0.094863	0.533304	-0.081807
N76	N	-0.094004	0.533341	-0.000068
C77	C	-0.068497	0.533345	0.044117
O78	O	-0.094886	0.533349	0.081695
C79	C	-0.017478	0.533345	0.044119
C80	C	0.008033	0.533346	-0.000066
C81	C	0.008042	0.533339	-0.088427
C82	C	0.059056	0.533345	-0.088427
C83	C	0.084558	0.533352	-0.044247
C84	C	0.059047	0.533352	-0.000066
C85	C	0.008030	0.533344	0.088307
C86	C	0.059054	0.533344	0.088305
C87	C	0.084565	0.533344	0.044120
C88	C	0.135563	0.533364	0.044115
N89	N	0.161080	0.533358	-0.000064
C90	C	0.135578	0.533352	-0.044244
C91	C	-0.175641	0.533344	0.044110
C92	C	-0.226662	0.533349	0.044105
C93	C	-0.226648	0.533337	-0.044258
C94	C	-0.175628	0.533337	-0.044256
C95	C	-0.150124	0.533338	-0.000069
C96	C	0.242710	0.533365	-0.044242
C97	C	0.293727	0.533374	-0.044239
C98	C	0.293710	0.533383	0.044126
C99	C	0.242696	0.533377	0.044122
C100	C	0.217198	0.533366	-0.000065
O101	O	0.161972	0.533392	0.081657
O102	O	0.161977	0.533338	-0.081811
C103	C	0.693531	0.533344	-0.000072
C104	C	0.747833	0.533339	-0.000074
C105	C	0.533529	0.533341	-0.160049
C106	C	0.533528	0.533335	-0.214345
C107	C	0.533554	0.693347	-0.000080
C108	C	0.533562	0.747645	-0.000085
C109	C	0.502302	0.595852	-0.582323
C110	C	0.502304	0.595856	-0.633346
O111	O	0.475758	0.648993	-0.686306
N112	N	0.533537	0.533376	-0.627619
C113	C	0.564776	0.470888	-0.570865
O114	O	0.591342	0.417744	-0.570679
C115	C	0.564777	0.470885	-0.519844
C116	C	0.533537	0.533369	-0.525576
C117	C	0.471065	0.658331	-0.588052
C118	C	0.471062	0.658327	-0.537033
C119	C	0.502297	0.595844	-0.480286
C120	C	0.533534	0.533365	-0.474557
C121	C	0.596019	0.408397	-0.463092
C122	C	0.596018	0.408400	-0.412070
C123	C	0.564777	0.470884	-0.417802
C124	C	0.564766	0.470878	-0.366790
N125	N	0.533533	0.533358	-0.372517
C126	C	0.502298	0.595841	-0.429265
C127	C	0.564771	0.470899	-0.678015
C128	C	0.564767	0.470901	-0.729035
C129	C	0.502296	0.595869	-0.791512
C130	C	0.502297	0.595866	-0.740491
C131	C	0.533538	0.533379	-0.683742
C132	C	0.502295	0.595827	-0.322119
C133	C	0.502293	0.595818	-0.271093
C134	C	0.564767	0.470850	-0.208621
C135	C	0.564766	0.470859	-0.259642
C136	C	0.533529	0.533353	-0.316393
O137	O	0.591300	0.417767	-0.313812
O138	O	0.475742	0.648975	-0.429440
C139	C	0.533533	0.533378	0.159916
C140	C	0.533534	0.533385	0.214213
C141	C	0.693507	0.373357	-0.000058
C142	C	0.747802	0.319054	-0.000055
C143	C	0.533510	0.373391	0.159930
C144	C	0.533503	0.319100	0.214232
C145	C	0.693510	0.373376	0.159924
C146	C	0.747805	0.319079	0.214224
C147	C	0.373553	0.693344	-0.160057
C148	C	0.319257	0.747641	-0.214356
C149	C	0.373555	0.693362	-0.000074
C150	C	0.319260	0.747666	-0.000077
C151	C	0.533552	0.693328	-0.160063
C152	C	0.533559	0.747620	-0.214364
C153	C	0.742055	0.293551	-0.031298
C154	C	0.793066	0.242535	-0.031307
C155	C	0.849822	0.217017	-0.000070
C156	C	0.855567	0.242525	0.031174
C157	C	0.804557	0.293544	0.031179
C158	C	0.564743	0.293604	0.270976
C159	C	0.564734	0.242598	0.322003
C160	C	0.533488	0.217086	0.316284
C161	C	0.502244	0.242586	0.259533
C162	C	0.502250	0.293594	0.208508
C163	C	0.804550	0.293574	0.208482
C164	C	0.855572	0.242563	0.259498
C165	C	0.849846	0.217055	0.316253
C166	C	0.793094	0.242565	0.321994
C167	C	0.742074	0.293578	0.270979
C168	C	0.262512	0.773152	-0.208615
C169	C	0.211491	0.824179	-0.259630
C170	C	0.217217	0.849690	-0.316386
C171	C	0.273968	0.824176	-0.322126
C172	C	0.324988	0.773154	-0.271111
C173	C	0.325007	0.773173	0.031160
C174	C	0.273996	0.824204	0.031155
C175	C	0.217240	0.849723	-0.000084
C176	C	0.211495	0.824214	-0.031325
C177	C	0.262505	0.773187	-0.031323
C178	C	0.564811	0.773117	-0.208626
C179	C	0.564830	0.824123	-0.259643
C180	C	0.533592	0.849635	-0.316397
C181	C	0.502339	0.824133	-0.322134
C182	C	0.502325	0.773124	-0.271118
H183	H	0.613719	-0.235223	0.080086
C184	C	0.755551	0.185189	0.390978
C185	C	0.786801	0.214526	0.384381
H186	H	0.751663	0.167881	0.429492
H187	H	0.776747	0.148567	0.386503
H188	H	0.717044	0.219227	0.361416
H189	H	0.825309	0.180486	0.413940
H190	H	0.765605	0.251152	0.388861
H191	H	0.476906	0.844913	-0.368351
H192	H	0.809244	0.314301	0.056624
H193	H	0.590187	0.314371	0.275644
H194	H	0.476812	0.314346	0.162306
H195	H	0.257838	0.752384	-0.162406
C196	C	0.924542	0.185124	0.126101
C197	C	0.917958	0.214461	0.065517
H198	H	0.963060	0.167798	0.147304
H199	H	0.920049	0.148516	0.141515
H200	H	0.894989	0.219167	0.130570
H201	H	0.947509	0.180417	0.061047
H202	H	0.922458	0.251074	0.050097
H203	H	0.453336	0.394481	-0.080204
C204	C	0.626520	0.247729	0.378615
C205	C	0.599087	0.214569	0.384378
H206	H	0.647731	0.230422	0.417123
H207	H	0.596963	0.295890	0.357414
H208	H	0.653479	0.239354	0.357409
H209	H	0.572124	0.222949	0.405580
H210	H	0.628647	0.166397	0.405588
C211	C	0.154869	0.819030	-0.192720
C212	C	0.149114	0.852209	-0.253311
H213	H	0.116362	0.836331	-0.188819
H214	H	0.176072	0.827390	-0.174121
H215	H	0.176070	0.770865	-0.174130
H216	H	0.127918	0.900373	-0.271900
H217	H	0.127902	0.843854	-0.271917
C218	C	0.924520	0.268537	0.221901
C219	C	0.917945	0.214532	0.253170
H220	H	0.963023	0.251234	0.217989
H221	H	0.920059	0.288434	0.243098
H222	H	0.894942	0.302564	0.183403
H223	H	0.947520	0.180507	0.291670
H224	H	0.922412	0.194625	0.231973
H225	H	0.165277	0.844999	-0.056759
H226	H	0.453355	0.301932	-0.080220
H227	H	0.590198	0.420020	-0.724361
C228	C	0.474522	0.164358	0.310027
C229	C	0.467915	0.214522	0.253253
H230	H	0.453337	0.147024	0.306150
H231	H	0.459084	0.184274	0.331211
H232	H	0.515627	0.127750	0.331221
H233	H	0.426810	0.251133	0.232061
H234	H	0.483351	0.194607	0.232061
C235	C	0.558266	0.881047	-0.406487
C236	C	0.533609	0.905707	-0.372472
H237	H	0.558280	0.915664	-0.441101
H238	H	0.535181	0.869521	-0.418031
H239	H	0.598064	0.841235	-0.383398
H240	H	0.493809	0.945516	-0.395560
H241	H	0.556694	0.917242	-0.360929
H242	H	0.409220	0.111403	-0.124429
C243	C	0.223486	0.902381	-0.428073
C244	C	0.280256	0.852216	-0.384516
H245	H	0.227368	0.919687	-0.466590
H246	H	0.202305	0.939002	-0.423596
H247	H	0.202289	0.882471	-0.423579
H248	H	0.301451	0.872128	-0.389007
H249	H	0.301446	0.815589	-0.388995
C250	C	0.567515	0.144023	0.423388
C251	C	0.533490	0.161011	0.372376
H252	H	0.567521	0.109401	0.458017
H253	H	0.550788	0.183831	0.423374
H254	H	0.607315	0.127303	0.423371
H255	H	0.493689	0.177735	0.372390
H256	H	0.550215	0.121195	0.372390
H257	H	0.476873	0.752370	-0.275798
H258	H	0.695871	0.314338	0.275662
C259	C	0.440545	0.719347	-0.337983
C260	C	0.467955	0.664505	-0.277396
H261	H	0.419351	0.761749	-0.341873
H262	H	0.413580	0.716752	-0.356585
H263	H	0.470118	0.716738	-0.356577
H264	H	0.438382	0.667111	-0.258803
H265	H	0.494922	0.667102	-0.258786
C266	C	0.842057	0.267558	0.139537
C267	C	0.810824	0.321585	0.146087
H268	H	0.845926	0.284844	0.101014
H269	H	0.820860	0.247646	0.144064
H270	H	0.880571	0.233547	0.169085
H271	H	0.772308	0.355593	0.116541
H272	H	0.832020	0.341506	0.141554
H273	H	0.257818	0.752421	-0.056759
H274	H	0.891394	0.175516	0.357788
H275	H	0.613719	-0.327770	0.080083
C276	C	0.709248	-0.162712	0.175634
C277	C	0.670477	-0.157114	0.136861
H278	H	0.739242	-0.210002	0.205613
H279	H	0.687422	-0.140984	0.193786
H280	H	0.727382	-0.140954	0.153800
H281	H	0.652339	-0.178868	0.158696
H282	H	0.692306	-0.178851	0.118709
H283	H	0.371191	0.752383	-0.275793
C284	C	0.643686	-0.023399	0.169040
C285	C	0.670456	-0.050026	0.136875
H286	H	0.673666	-0.036076	0.199030
H287	H	0.621865	-0.041468	0.187176
H288	H	0.617379	0.025409	0.142726
H289	H	0.696761	-0.098834	0.163188
H290	H	0.692288	-0.031960	0.118737
H291	H	0.613672	0.141613	0.080113
C292	C	0.559348	0.398358	-0.280774
C293	C	0.599102	0.402175	-0.253341
H294	H	0.580551	0.355951	-0.276876
H295	H	0.540757	0.435563	-0.321870
H296	H	0.529782	0.400959	-0.262171
H297	H	0.628666	0.399578	-0.271947
H298	H	0.617703	0.364959	-0.212237
C299	C	0.110117	0.922765	-0.355426
C300	C	0.161131	0.905769	-0.372459
H301	H	0.075491	0.957381	-0.390042
H302	H	0.110130	0.939488	-0.332352
H303	H	0.110127	0.882952	-0.332340
H304	H	0.161122	0.945581	-0.395541
H305	H	0.161117	0.889048	-0.395542
H306	H	-0.012733	0.533344	0.124286
H307	H	0.891353	0.175474	-0.000079
H308	H	0.371216	0.752400	0.056603
C309	C	0.340911	0.819042	0.092931
C310	C	0.280321	0.852230	0.065505
H311	H	0.344815	0.836340	0.114141
H312	H	0.359513	0.827399	0.063370
H313	H	0.359494	0.770879	0.119892
H314	H	0.261739	0.900393	0.038541
H315	H	0.261711	0.843878	0.095070
C316	C	0.178209	0.922798	0.033945
C317	C	0.161172	0.905807	-0.000076
H318	H	0.143596	0.957418	0.033954
H319	H	0.201288	0.939515	0.017212
H320	H	0.201290	0.882985	0.073745
H321	H	0.138095	0.945620	-0.039878
H322	H	0.138083	0.889093	0.016655
H323	H	0.613656	0.234184	0.080114
H324	H	0.590249	0.752353	-0.162418
C325	C	0.357853	0.229412	-0.175797
C326	C	0.396615	0.223817	-0.137017
H327	H	0.327872	0.276701	-0.205790
H328	H	0.339705	0.207674	-0.153975
H329	H	0.379693	0.207663	-0.193934
H330	H	0.374775	0.245561	-0.118877
H331	H	0.414763	0.245564	-0.158842
H332	H	0.453383	-0.074896	-0.080229
H333	H	0.590279	0.844881	-0.254960
H334	H	0.621459	0.357514	-0.365863
C335	C	0.450193	-0.221649	-0.083533
C336	C	0.440841	-0.162145	-0.092856
H337	H	0.420238	-0.208985	-0.113538
H338	H	0.448331	-0.248150	-0.045410
H339	H	0.488351	-0.248162	-0.085337
H340	H	0.402685	-0.135634	-0.091047
H341	H	0.442697	-0.135633	-0.130989
H342	H	0.314496	0.533376	-0.080222
H343	H	0.079826	0.533343	-0.124405
C344	C	0.247858	0.533363	-0.131590
C345	C	0.214686	0.533359	-0.092814
H346	H	0.230552	0.533366	-0.161579
H347	H	0.287739	0.493395	-0.109763
H348	H	0.247771	0.573338	-0.149731
H349	H	0.214776	0.493380	-0.074669
H350	H	0.174794	0.573330	-0.114643
C351	C	0.013189	0.533340	-0.175772
C352	C	-0.019987	0.533338	-0.137000
H353	H	-0.004118	0.533347	-0.205765
H354	H	0.053068	0.493369	-0.153945
H355	H	0.013106	0.573312	-0.193910
H356	H	-0.019901	0.493363	-0.118858
H357	H	-0.059877	0.573313	-0.158830
H358	H	-0.154860	0.533337	-0.080234
H359	H	-0.247435	0.533359	0.080079
C360	C	-0.304845	0.533312	-0.083481
C361	C	-0.254681	0.533319	-0.092818
H362	H	-0.322149	0.533296	-0.113456
H363	H	-0.333190	0.573285	-0.085322
H364	H	-0.293214	0.493342	-0.045334
H365	H	-0.266313	0.573292	-0.130963
H366	H	-0.226331	0.493341	-0.090983
H367	H	0.079818	0.533342	0.124289
C368	C	-0.147738	0.592282	0.065909
C369	C	-0.147613	0.533358	0.092676
H370	H	-0.130433	0.592286	0.095892
H371	H	-0.187622	0.632244	0.044086
H372	H	-0.125235	0.592269	0.039603
H373	H	-0.170120	0.533373	0.118980
H374	H	-0.107722	0.493385	0.114509
C375	C	0.247806	0.533394	0.131463
C376	C	0.214647	0.533384	0.092686
H377	H	0.230496	0.533390	0.161448
H378	H	0.247715	0.573367	0.109636
H379	H	0.287694	0.493424	0.149609
H380	H	0.174760	0.573357	0.074536
H381	H	0.214732	0.493407	0.114516
C382	C	0.636104	0.371763	-0.059043
C383	C	0.679672	0.321596	-0.065639
H384	H	0.597593	0.389072	-0.080244
H385	H	0.640585	0.408381	-0.074469
H386	H	0.640580	0.351854	-0.017939
H387	H	0.675198	0.341506	-0.106743
H388	H	0.675189	0.284971	-0.050215
C389	C	0.321630	0.592315	0.065909
C390	C	0.321754	0.533391	0.092683
H391	H	0.338951	0.592314	0.095888
H392	H	0.281745	0.632277	0.044098
H393	H	0.344119	0.592308	0.039590
H394	H	0.299261	0.533401	0.118999
H395	H	0.361646	0.493419	0.114504
C396	C	0.507713	0.668348	-0.415739
C397	C	0.467957	0.664522	-0.384494
H398	H	0.486511	0.710759	-0.454245
H399	H	0.526308	0.631149	-0.419638
H400	H	0.537276	0.665744	-0.394527
H401	H	0.438397	0.667121	-0.405704
H402	H	0.449352	0.701731	-0.380598
H403	H	0.445626	0.709208	-0.541708
H404	H	0.476858	0.646747	-0.745164
C405	C	0.459475	0.764853	-0.657004
C406	C	0.436724	0.727022	-0.650427
H407	H	0.438267	0.807265	-0.695509
H408	H	0.500568	0.739186	-0.652541
H409	H	0.455011	0.773775	-0.627426
H410	H	0.441193	0.718095	-0.680002
H411	H	0.395622	0.752695	-0.654895
C412	C	0.507736	0.668360	-0.885128
C413	C	0.467967	0.664556	-0.853896
H414	H	0.486545	0.710763	-0.923639
H415	H	0.526333	0.631151	-0.889015
H416	H	0.537298	0.665756	-0.863915
H417	H	0.438409	0.667155	-0.875107
H418	H	0.449362	0.701775	-0.850012
C419	C	0.626512	0.347373	-0.621392
C420	C	0.599104	0.402206	-0.615636
H421	H	0.647705	0.304966	-0.582883
H422	H	0.653478	0.349971	-0.642587
H423	H	0.596939	0.349989	-0.642601
H424	H	0.628679	0.399593	-0.594430
H425	H	0.572136	0.399607	-0.594431
C426	C	0.657784	0.284875	-0.396197
C427	C	0.630365	0.339714	-0.456785
H428	H	0.678992	0.242471	-0.392304
H429	H	0.628220	0.287472	-0.377600
H430	H	0.684743	0.287487	-0.377599
H431	H	0.603402	0.337105	-0.475381
H432	H	0.659932	0.337116	-0.475389
H433	H	0.590195	0.419978	-0.162408
C434	C	0.843496	0.164330	-0.059062
C435	C	0.786742	0.214497	-0.065646
H436	H	0.839590	0.147025	-0.080264
H437	H	0.864694	0.127709	-0.017966
H438	H	0.864691	0.184237	-0.074503
H439	H	0.765549	0.194588	-0.050201
H440	H	0.765535	0.251124	-0.106750
