data_functionalizedCrystal
_audit_creation_method	'MofGen! by Chris Wilmer'
_symmetry_space_group_name_H-M	'P1'
_symmetry_Int_Tables_number	1
_symmetry_cell_setting	triclinic
loop_
_symmetry_equiv_pos_as_xyz
  x,y,z
_cell_length_a	18.050590
_cell_length_b	18.050589
_cell_length_c	12.594509
_cell_angle_alpha	89.972304
_cell_angle_beta	89.994662
_cell_angle_gamma	90.017386
loop_
_atom_site_label
_atom_site_type_symbol
_atom_site_fract_x
_atom_site_fract_y
_atom_site_fract_z
Zn1	Zn	1.135337	-0.295852	-0.601410
Zn2	Zn	1.135235	-0.420056	-0.423433
Zn3	Zn	1.011143	-0.295861	-0.423488
Zn4	Zn	1.011104	-0.419981	-0.601413
O5	O	1.073205	-0.357937	-0.512436
O6	O	1.239248	-0.312355	-0.577776
O7	O	1.118747	-0.403616	-0.274494
O8	O	1.027677	-0.191935	-0.447112
O9	O	1.239173	-0.403607	-0.447018
O10	O	1.118922	-0.191928	-0.577830
O11	O	1.027577	-0.312370	-0.274535
O12	O	0.907213	-0.312298	-0.447115
O13	O	1.027611	-0.403480	-0.750358
O14	O	0.907185	-0.403489	-0.577835
O15	O	1.118884	-0.312283	-0.750356
O16	O	1.118709	-0.523970	-0.447020
O17	O	1.027511	-0.523916	-0.577781
C18	C	0.880253	-0.357887	-0.512482
C19	C	0.797707	-0.357883	-0.512527
C20	C	0.598262	-0.407614	-0.583443
C21	C	0.548871	-0.339896	-0.609628
C22	C	0.646577	-0.357924	-0.512475
C23	C	0.548886	-0.425681	-0.486289
C24	C	0.500591	-0.357970	-0.512426
C25	C	0.598273	-0.290170	-0.538710
C26	C	0.598292	-0.376001	-0.415325
C27	C	0.548923	-0.308236	-0.441473
C28	C	0.730675	-0.357899	-0.512505
C29	C	0.416495	-0.357988	-0.512396
C30	C	1.073115	-0.550890	-0.512418
C31	C	1.073145	-0.633435	-0.512446
C32	C	1.023600	-0.832883	-0.583529
C33	C	1.005495	-0.882325	-0.486411
C34	C	1.073218	-0.784566	-0.512460
C35	C	1.091359	-0.882206	-0.609589
C36	C	1.073287	-0.930551	-0.512482
C37	C	1.055077	-0.832920	-0.415291
C38	C	1.140973	-0.832797	-0.538534
C39	C	1.122893	-0.882216	-0.441349
C40	C	1.073176	-0.700467	-0.512449
C41	C	1.073329	-1.014647	-0.512482
C42	C	1.266910	-0.357989	-0.512390
C43	C	1.349456	-0.358011	-0.512371
C44	C	1.073255	-0.357872	-0.790057
C45	C	1.073276	-0.357845	-0.908362
C46	C	1.073315	-0.164232	-0.512477
C47	C	1.073362	-0.081686	-0.512494
C48	C	1.023648	-0.407419	-0.977617
C49	C	1.091408	-0.425577	-1.048380
C50	C	1.005568	-0.339642	-1.048398
C51	C	1.141072	-0.376038	-0.977568
C52	C	1.055186	-0.290072	-0.977579
C53	C	1.122993	-0.308204	-1.048311
C54	C	1.073198	-0.357949	-0.235895
C55	C	1.073321	-0.357767	-0.117590
H56	H	0.527189	-0.482962	-0.464164
H57	H	1.164883	-0.903741	-0.381189
H58	H	0.981712	-0.449407	-0.946577
N59	N	1.110650	-0.497428	-1.087403
N60	N	1.171653	-0.525596	-1.063431
H61	H	1.185240	-0.576342	-1.090987
N62	N	0.625469	-0.460216	-0.658826
N63	N	0.693682	-0.468991	-0.670385
H64	H	0.712903	-0.506132	-0.723631
N65	N	1.212947	-0.395387	-0.938694
N66	N	1.224521	-0.398564	-0.840948
H67	H	1.275281	-0.412229	-0.813490
N68	N	0.521616	-0.320729	-0.712652
N69	N	0.482005	-0.264528	-0.724373
H70	H	0.462756	-0.250995	-0.797135
H71	H	0.948290	-0.324278	-1.079511
N72	N	0.625378	-0.218292	-0.566583
N73	N	0.693576	-0.206678	-0.571136
H74	H	0.712722	-0.155916	-0.590822
H75	H	0.527396	-0.266186	-0.381437
N76	N	1.175722	-0.255576	-1.087031
N77	N	1.183954	-0.246653	-1.184750
H78	H	1.221195	-0.209486	-1.212099
N79	N	0.970881	-0.805714	-0.658815
N80	N	0.903828	-0.821618	-0.648972
H81	H	0.866593	-0.802430	-0.702138
H82	H	1.039841	-0.232807	-0.946456
H83	H	1.106676	-0.903855	-0.691721
N84	N	0.625540	-0.395193	-0.312314
N85	N	0.609747	-0.456654	-0.272526
H86	H	0.628991	-0.470217	-0.199773
N87	N	1.212797	-0.805492	-0.566241
N88	N	1.240424	-0.821231	-0.654398
H89	H	1.291151	-0.801946	-0.673978
N90	N	0.933649	-0.909609	-0.458754
N91	N	0.878911	-0.893813	-0.515168
H92	H	0.828167	-0.913080	-0.495642
H93	H	1.039694	-0.811360	-0.333136
