data_functionalizedCrystal
_audit_creation_method	'MofGen! by Chris Wilmer'
_symmetry_space_group_name_H-M	'P1'
_symmetry_Int_Tables_number	1
_symmetry_cell_setting	triclinic
loop_
_symmetry_equiv_pos_as_xyz
  x,y,z
_cell_length_a	15.944551
_cell_length_b	10.489746
_cell_length_c	9.565339
_cell_angle_alpha	90.000667
_cell_angle_beta	89.999279
_cell_angle_gamma	95.979980
loop_
_atom_site_label
_atom_site_type_symbol
_atom_site_fract_x
_atom_site_fract_y
_atom_site_fract_z
O1	O	0.118521	-1.692406	-0.116169
O2	O	0.129641	-1.321057	-0.116193
O3	O	0.001867	-1.516872	-0.116168
O4	O	0.246295	-1.496591	-0.116194
O5	O	0.001875	-1.516857	0.116352
O6	O	0.129648	-1.321041	0.116327
O7	O	0.118529	-1.692390	0.116351
Zn8	Zn	0.124090	-1.506713	0.153256
Zn9	Zn	0.124080	-1.506734	-0.153099
O10	O	0.246303	-1.496575	0.116326
C11	C	-0.029428	-1.516022	0.000092
C12	C	-0.122689	-1.513498	0.000093
C13	C	0.128804	-1.273529	0.000064
C14	C	0.126288	-1.131935	0.000055
C15	C	0.119366	-1.739918	0.000090
C16	C	0.121881	-1.881512	0.000090
C17	C	-0.338313	-1.386089	0.000065
C18	C	-0.398970	-1.445246	0.114716
C19	C	-0.293442	-1.508932	0.000082
C20	C	-0.398961	-1.445290	-0.114531
C21	C	-0.458382	-1.504512	0.000065
C22	C	-0.352871	-1.568122	0.114827
C23	C	-0.352856	-1.568149	-0.114523
C24	C	-0.413495	-1.627395	0.000155
C25	C	-0.198425	-1.511474	0.000093
C26	C	-0.553398	-1.501978	0.000064
C27	C	0.277598	-1.497425	0.000062
C28	C	0.370859	-1.499949	0.000053
C29	C	0.043501	-0.980225	0.000084
C30	C	0.084895	-1.057037	0.114720
C31	C	0.084907	-1.057008	-0.114527
C32	C	0.163243	-0.956460	0.114821
C33	C	0.163243	-0.956425	-0.114529
C34	C	0.204695	-1.033187	0.000135
N35	N	0.124097	-1.506709	0.362336
N36	N	0.124066	-1.506749	-0.362178
C37	C	0.183168	-1.416124	0.453527
C38	C	0.200165	-1.531385	0.546712
C39	C	0.107106	-1.391498	0.546707
C40	C	0.141132	-1.622028	0.453468
C41	C	0.048040	-1.482065	0.453455
C42	C	0.065006	-1.597410	0.546598
H43	H	-0.305620	-1.284125	0.000173
H44	H	0.272901	-1.056718	0.000191
H45	H	0.155567	-1.719498	0.412685
H46	H	-0.024653	-0.956449	0.000207
N47	N	0.088077	-1.262418	0.600945
H48	H	0.034909	-1.273131	0.659029
H49	H	0.136628	-1.224160	0.660489
H50	H	0.051801	-1.100916	-0.211445
N51	N	0.207033	-0.898196	-0.242916
H52	H	0.177352	-0.934949	-0.329474
H53	H	0.205481	-0.802200	-0.241331
N54	N	-0.426011	-1.376432	0.243112
H55	H	-0.398397	-1.285295	0.243027
H56	H	-0.489326	-1.376062	0.242562
N57	N	-0.325984	-1.636886	0.243359
H58	H	-0.262731	-1.638129	0.242594
H59	H	-0.343203	-1.590792	0.329772
N60	N	-0.325767	-1.636916	-0.242908
H61	H	-0.297084	-1.714110	-0.213697
H62	H	-0.376898	-1.665631	-0.301657
N63	N	-0.425997	-1.376456	-0.242914
H64	H	-0.398381	-1.285320	-0.242811
H65	H	-0.408413	-1.422034	-0.329434
H66	H	0.233169	-1.339588	0.412663
N67	N	0.041085	-1.115201	0.243132
H68	H	-0.019759	-1.096372	0.243065
H69	H	0.043641	-1.210998	0.242592
N70	N	0.285341	-1.559043	0.600974
H71	H	0.329938	-1.490557	0.567128
H72	H	0.284457	-1.559710	0.706547
N73	N	-0.001187	-1.699003	0.600402
H74	H	0.011747	-1.785958	0.566302
H75	H	-0.001137	-1.697855	0.705980
N76	N	-0.037117	-1.454385	0.399151
H77	H	-0.049889	-1.367274	0.433008
H78	H	-0.036572	-1.455485	0.293578
H79	H	0.196312	-0.912715	0.211849
N80	N	-0.456608	-1.762573	0.000235
H81	H	-0.439853	-1.808787	0.086870
H82	H	-0.519752	-1.760034	-0.000640
