data_functionalizedCrystal
_audit_creation_method	'MofGen! by Chris Wilmer'
_symmetry_space_group_name_H-M	'P1'
_symmetry_Int_Tables_number	1
_symmetry_cell_setting	triclinic
loop_
_symmetry_equiv_pos_as_xyz
  x,y,z
_cell_length_a	13.033855
_cell_length_b	13.033652
_cell_length_c	13.032268
_cell_angle_alpha	76.703346
_cell_angle_beta	90.869374
_cell_angle_gamma	89.087754
loop_
_atom_site_label
_atom_site_type_symbol
_atom_site_fract_x
_atom_site_fract_y
_atom_site_fract_z
Zn1	Zn	-0.259744	-1.585258	-0.356881
Zn2	Zn	0.073589	-1.251925	-0.023547
Zn3	Zn	0.406922	-0.918592	0.309786
Zn4	Zn	-0.403782	-1.628684	-0.158360
Zn5	Zn	-0.070449	-1.295351	0.174973
Zn6	Zn	0.262885	-0.962018	0.508306
Zn7	Zn	-0.259811	-1.430221	-0.201807
Zn8	Zn	0.073522	-1.096888	0.131526
Zn9	Zn	0.406856	-0.763554	0.464859
Zn10	Zn	-0.452745	-1.435732	-0.351304
Zn11	Zn	-0.119411	-1.102398	-0.017970
Zn12	Zn	0.213922	-0.769065	0.315363
O13	O	-0.344020	-1.519974	-0.267088
O14	O	-0.010687	-1.186641	0.066245
O15	O	0.322646	-0.853307	0.399579
O16	O	-0.258332	-1.736654	-0.314698
O17	O	0.075001	-1.403321	0.018636
O18	O	0.408334	-1.069987	0.351969
O19	O	-0.364221	-1.618225	-0.018478
O20	O	-0.030887	-1.284892	0.314856
O21	O	0.302446	-0.951559	0.648189
O22	O	-0.118778	-1.430307	-0.242895
O23	O	0.214555	-1.096974	0.090438
O24	O	0.547888	-0.763640	0.423772
O25	O	-0.364156	-1.768559	-0.168846
O26	O	-0.030823	-1.435225	0.164488
O27	O	0.302511	-1.101892	0.497821
O28	O	-0.118729	-1.544212	-0.356826
O29	O	0.214604	-1.210879	-0.023493
O30	O	0.547937	-0.877546	0.309840
O31	O	-0.258446	-1.472415	-0.050398
O32	O	0.074888	-1.139082	0.282935
O33	O	0.408221	-0.805749	0.616269
O34	O	-0.305923	-1.285317	-0.237487
O35	O	0.027410	-0.951984	0.095846
O36	O	0.360744	-0.618650	0.429179
O37	O	-0.447606	-1.439699	-0.497690
O38	O	-0.114273	-1.106366	-0.164356
O39	O	0.219061	-0.773032	0.168977
O40	O	-0.447671	-1.289366	-0.347322
O41	O	-0.114337	-0.956032	-0.013988
O42	O	0.218996	-0.622699	0.319345
O43	O	-0.305809	-1.549556	-0.501787
O44	O	0.027524	-1.216222	-0.168454
O45	O	0.360857	-0.882889	0.164880
O46	O	-0.551301	-1.623569	-0.163438
O47	O	-0.217967	-1.290235	0.169895
O48	O	0.115366	-0.956902	0.503229
O49	O	-0.587274	-1.481807	-0.305193
O50	O	-0.253940	-1.148474	0.028141
O51	O	0.079393	-0.815141	0.361474
C52	C	-0.382118	-1.249580	-0.296514
C53	C	-0.048785	-0.916247	0.036819
C54	C	0.284549	-0.582913	0.370152
C55	C	-0.398444	-1.133905	-0.309124
C56	C	-0.065111	-0.800572	0.024209
C57	C	0.268223	-0.467238	0.357542
C58	C	-0.335512	-1.080278	-0.260517
C59	C	-0.002178	-0.746945	0.072816
C60	C	0.331155	-0.413612	0.406149
C61	C	-0.352384	-0.960722	-0.273549
C62	C	-0.019050	-0.627389	0.059784
C63	C	0.314283	-0.294056	0.393118
C64	C	-0.605852	-1.558024	-0.229015
C65	C	-0.272519	-1.224691	0.104318
C66	C	0.060814	-0.891357	0.437651
C67	C	-0.717856	-1.574393	-0.212752
C68	C	-0.384523	-1.241060	0.120581
C69	C	-0.051190	-0.907727	0.453915
C70	C	-0.785623	-1.511510	-0.275588
C71	C	-0.452290	-1.178176	0.057745
C72	C	-0.118957	-0.844843	0.391079
C73	C	-0.901386	-1.528427	-0.258781
C74	C	-0.568053	-1.195093	0.074553
C75	C	-0.234719	-0.861760	0.407886
C76	C	-0.081166	-1.481801	-0.305329
C77	C	0.252168	-1.148468	0.028004
C78	C	0.585501	-0.815134	0.361338
C79	C	0.030848	-1.465534	-0.321625
C80	C	0.364181	-1.132201	0.011708
C81	C	0.697514	-0.798867	0.345041
C82	C	-0.382162	-1.490398	-0.538559
C83	C	-0.048829	-1.157065	-0.205225
C84	C	0.284505	-0.823731	0.128108
C85	C	-0.398415	-1.477794	-0.654243
C86	C	-0.065082	-1.144461	-0.320910
C87	C	0.268251	-0.811128	0.012423
C88	C	-0.305766	-0.791423	-0.237541
C89	C	0.027567	-0.458090	0.095792
C90	C	0.360900	-0.124757	0.429125
C91	C	-0.289442	-0.907098	-0.224935
C92	C	0.043891	-0.573765	0.108398
C93	C	0.377224	-0.240431	0.441731
C94	C	-0.335504	-1.526530	-0.707846
C95	C	-0.002170	-1.193197	-0.374513
C96	C	0.331163	-0.859864	-0.041180
C97	C	-0.352301	-1.513505	-0.827412
C98	C	-0.018968	-1.180172	-0.494079
C99	C	0.314366	-0.846838	-0.160746
C100	C	-0.305946	-1.549484	0.003322
C101	C	0.027387	-1.216151	0.336656
C102	C	0.360720	-0.882817	0.669989
C103	C	-0.289380	-1.562248	0.118987
C104	C	0.043953	-1.228914	0.452320
C105	C	0.377286	-0.895581	0.785654
H106	H	-0.269145	-1.122878	-0.209251
H107	H	0.064188	-0.789545	0.124083
H108	H	0.397521	-0.456212	0.457416
H109	H	-0.418761	-0.918128	-0.324811
H110	H	-0.085427	-0.584795	0.008522
H111	H	0.247906	-0.251461	0.341856
H112	H	-0.223070	-0.949692	-0.173666
H113	H	0.110263	-0.616359	0.159668
H114	H	0.443596	-0.283026	0.493001
Cl115	Cl	-0.500922	-1.068146	-0.388265
Cl116	Cl	-0.167589	-0.734812	-0.054932
Cl117	Cl	0.165744	-0.401479	0.278401
H118	H	-0.418597	-1.462126	-0.870037
H119	H	-0.085263	-1.128793	-0.536703
H120	H	0.248070	-0.795460	-0.203370
H121	H	-0.757941	-1.445144	-0.341824
H122	H	-0.424608	-1.111811	-0.008491
H123	H	-0.091275	-0.778477	0.324843
H124	H	-0.941474	-1.399164	-0.387866
H125	H	-0.608141	-1.065831	-0.054532
H126	H	-0.274807	-0.732498	0.278801
H127	H	-0.745541	-1.640752	-0.146511
H128	H	-0.412208	-1.307419	0.186823
H129	H	-0.078874	-0.974085	0.520156
H130	H	-0.223074	-1.613613	-0.838393
H131	H	0.110259	-1.280279	-0.505060
H132	H	0.443593	-0.946946	-0.171727
Cl133	Cl	-0.500771	-1.398478	-0.720048
Cl134	Cl	-0.167438	-1.065144	-0.386715
Cl135	Cl	0.165895	-0.731811	-0.053381
Cl136	Cl	-0.944114	-1.630887	-0.156499
Cl137	Cl	-0.610781	-1.297554	0.176834
Cl138	Cl	-0.277447	-0.964220	0.510168
Cl139	Cl	-0.233122	-1.605811	-0.642049
Cl140	Cl	0.100212	-1.272478	-0.308716
Cl141	Cl	0.433545	-0.939144	0.024617
