data_functionalizedCrystal
_audit_creation_method	'MofGen! by Chris Wilmer'
_symmetry_space_group_name_H-M	'P1'
_symmetry_Int_Tables_number	1
_symmetry_cell_setting	triclinic
loop_
_symmetry_equiv_pos_as_xyz
  x,y,z
_cell_length_a	16.959455
_cell_length_b	12.645330
_cell_length_c	16.959447
_cell_angle_alpha	89.975360
_cell_angle_beta	89.976455
_cell_angle_gamma	90.009666
loop_
_atom_site_label
_atom_site_type_symbol
_atom_site_fract_x
_atom_site_fract_y
_atom_site_fract_z
Zn1	Zn	1.208449	-0.422140	-0.447048
Zn2	Zn	1.208382	-0.599421	-0.314874
Zn3	Zn	1.076270	-0.422162	-0.314871
Zn4	Zn	1.076260	-0.599353	-0.446999
O5	O	1.142340	-0.510769	-0.380948
O6	O	1.319051	-0.445676	-0.429537
O7	O	1.190833	-0.575945	-0.204263
O8	O	1.093837	-0.273812	-0.332424
O9	O	1.319002	-0.575923	-0.332429
O10	O	1.190948	-0.273796	-0.429534
O11	O	1.093772	-0.445714	-0.204261
O12	O	0.965658	-0.445648	-0.332377
O13	O	1.093819	-0.575807	-0.557616
O14	O	0.965650	-0.575829	-0.429450
O15	O	1.190938	-0.445610	-0.557652
O16	O	1.190823	-0.747759	-0.332382
O17	O	1.093753	-0.747709	-0.429453
C18	C	0.936974	-0.510734	-0.380908
C19	C	0.849117	-0.510745	-0.380910
C20	C	0.477605	-0.578521	-0.330359
C21	C	0.477678	-0.443104	-0.431634
C22	C	0.560224	-0.443087	-0.431615
C23	C	0.601464	-0.510789	-0.380968
C24	C	0.560159	-0.578508	-0.330339
C25	C	0.601536	-0.375376	-0.482248
C26	C	0.684087	-0.375357	-0.482231
C27	C	0.725329	-0.443054	-0.431579
C28	C	0.684018	-0.510776	-0.380948
C29	C	0.725258	-0.578478	-0.330301
C30	C	0.683949	-0.646195	-0.279666
C31	C	0.601401	-0.646206	-0.279688
C32	C	0.807877	-0.443043	-0.431557
C33	C	0.807812	-0.578464	-0.330282
C34	C	1.142301	-0.786199	-0.380929
C35	C	1.142356	-0.904029	-0.380948
C36	C	1.203324	-1.071580	-0.319756
C37	C	1.203523	-0.949020	-0.319906
C38	C	1.164943	-0.948417	-0.464269
C39	C	1.165427	-1.071015	-0.463944
C40	C	1.058777	-1.071349	-0.359639
C41	C	1.059178	-0.948745	-0.357771
C42	C	1.348508	-0.510804	-0.380989
C43	C	1.436365	-0.510820	-0.381006
C44	C	1.142385	-0.510698	-0.587116
C45	C	1.142403	-0.510668	-0.674973
C46	C	1.142402	-0.234264	-0.380984
C47	C	1.142428	-0.116434	-0.381000
C48	C	1.091848	-0.578443	-0.716230
C49	C	1.192972	-0.442859	-0.716270
C50	C	1.192989	-0.442824	-0.798816
C51	C	1.142433	-0.510599	-0.840073
C52	C	1.091861	-0.578408	-0.798783
C53	C	1.243554	-0.375008	-0.840111
C54	C	1.243572	-0.374970	-0.922662
C55	C	1.193020	-0.442751	-0.963920
C56	C	1.142446	-0.510564	-0.922626
C57	C	1.091891	-0.578338	-0.963883
C58	C	1.041320	-0.646158	-0.922590
C59	C	1.041309	-0.646189	-0.840042
C60	C	1.193032	-0.442719	-1.046469
C61	C	1.091904	-0.578304	-1.046437
C62	C	1.142342	-0.510763	-0.175582
C63	C	1.142476	-0.510494	-0.087726
H64	H	1.189392	-0.919012	-0.258125
C65	C	0.997476	-1.110536	-0.419889
H66	H	0.947051	-1.083026	-0.406677
H67	H	0.995662	-1.185609	-0.419024
H68	H	1.011898	-1.087130	-0.471140
C69	C	0.729524	-0.300873	-0.537923
H70	H	0.784594	-0.310563	-0.530662
H71	H	0.715988	-0.229628	-0.526453
H72	H	0.716030	-0.316493	-0.591017
C73	C	1.287217	-0.909285	-0.339000
H74	H	1.287626	-0.834158	-0.339151
H75	H	1.302691	-0.934632	-0.389403
H76	H	1.322968	-0.934541	-0.300216
H77	H	1.000154	-0.701334	-0.956192
H78	H	1.050737	-0.633499	-1.080022
H79	H	1.225397	-0.917634	-0.482663
C80	C	0.729315	-0.720672	-0.223961
H81	H	0.692895	-0.761010	-0.193812
H82	H	0.761504	-0.680059	-0.189571
H83	H	0.761527	-0.766911	-0.254145
C84	C	1.108122	-1.111099	-0.527697
H85	H	1.084654	-1.052453	-0.553684
H86	H	1.068179	-1.152906	-0.503780
H87	H	1.136192	-1.152652	-0.564973
C88	C	1.036151	-0.909544	-0.274949
H89	H	0.985780	-0.936857	-0.261266
H90	H	1.034350	-0.834463	-0.274767
H91	H	1.074113	-0.933138	-0.237715
C92	C	0.432170	-0.653007	-0.274666
H93	H	0.377100	-0.643327	-0.281931
H94	H	0.445669	-0.637402	-0.221575
H95	H	0.445704	-0.724256	-0.286147
C96	C	1.036223	-0.653035	-0.670813
H97	H	1.043450	-0.643349	-0.615741
H98	H	1.047778	-0.724257	-0.684342
H99	H	0.983116	-0.637500	-0.684330
H100	H	1.000137	-0.701403	-0.806414
C101	C	0.432317	-0.368637	-0.487340
H102	H	0.377237	-0.378340	-0.480097
H103	H	0.445879	-0.384234	-0.540426
H104	H	0.445838	-0.297384	-0.475851
C105	C	1.248579	-0.368314	-0.670890
H106	H	1.241332	-0.378051	-0.615813
H107	H	1.237032	-0.297079	-0.684422
H108	H	1.301690	-0.383840	-0.684428
C109	C	1.299162	-0.300466	-0.794730
H110	H	1.291917	-0.310211	-0.739653
H111	H	1.287611	-0.229229	-0.808255
H112	H	1.352272	-0.315987	-0.808272
H113	H	0.841508	-0.387911	-0.472785
H114	H	1.284750	-0.319749	-0.956276
C115	C	0.994573	-0.907390	-0.413608
H116	H	1.017587	-0.862116	-0.451961
H117	H	0.956433	-0.869166	-0.384109
H118	H	0.969854	-0.965382	-0.439219
H119	H	0.567952	-0.320264	-0.523487
C120	C	1.031030	-1.113220	-0.278987
H121	H	1.070208	-1.158592	-0.257585
H122	H	0.983239	-1.151444	-0.285395
H123	H	1.022546	-1.055447	-0.244216
H124	H	1.234199	-0.387494	-1.080086
H125	H	1.264949	-1.102315	-0.333727
C126	C	0.853170	-0.652943	-0.274572
H127	H	0.816743	-0.693276	-0.244426
H128	H	0.885357	-0.612332	-0.240178
H129	H	0.885384	-0.699187	-0.304750
C130	C	0.555960	-0.720693	-0.224001
H131	H	0.500891	-0.711012	-0.231275
H132	H	0.569449	-0.705090	-0.170908
H133	H	0.569495	-0.791941	-0.235482
H134	H	1.121939	-0.919271	-0.511123
C135	C	1.184491	-1.111508	-0.236050
H136	H	1.221913	-1.083541	-0.199977
H137	H	1.186853	-1.186552	-0.235140
H138	H	1.133087	-1.089048	-0.221385
C139	C	1.248028	-1.109546	-0.488375
H140	H	1.280974	-1.050273	-0.498400
H141	H	1.244014	-1.151345	-0.534727
H142	H	1.270063	-1.150776	-0.447055
