data_functionalizedCrystal
_audit_creation_method	'MofGen! by Chris Wilmer'
_symmetry_space_group_name_H-M	'P1'
_symmetry_Int_Tables_number	1
_symmetry_cell_setting	triclinic
loop_
_symmetry_equiv_pos_as_xyz
  x,y,z
_cell_length_a	19.188933
_cell_length_b	19.188924
_cell_length_c	12.503572
_cell_angle_alpha	93.509187
_cell_angle_beta	86.495071
_cell_angle_gamma	83.143767
loop_
_atom_site_label
_atom_site_type_symbol
_atom_site_fract_x
_atom_site_fract_y
_atom_site_fract_z
O1	O	0.930179	0.083124	-0.089289
O2	O	1.430179	0.583124	0.410711
O3	O	0.726868	0.094857	-0.089300
O4	O	1.226868	0.594857	0.410700
O5	O	0.834393	-0.012665	-0.089282
O6	O	1.334393	0.487335	0.410718
O7	O	0.822654	0.190646	-0.089308
O8	O	1.322654	0.690646	0.410692
O9	O	0.826306	-0.004565	0.089359
O10	O	1.326306	0.495435	0.589359
O11	O	0.718782	0.102956	0.089341
O12	O	1.218782	0.602956	0.589341
O13	O	0.922092	0.091224	0.089351
O14	O	1.422092	0.591224	0.589351
Cu15	Cu	0.819699	0.097830	0.105657
Cu16	Cu	1.319699	0.597830	0.605657
Cu17	Cu	0.829262	0.088251	-0.105606
Cu18	Cu	1.329262	0.588251	0.394394
O19	O	0.814568	0.198745	0.089333
O20	O	1.314568	0.698745	0.589333
C21	C	0.696814	0.098526	0.000019
C22	C	1.196814	0.598526	0.500019
C23	C	0.619310	0.097385	0.000016
C24	C	1.119310	0.597385	0.500016
C25	C	0.829970	-0.034626	0.000040
C26	C	1.329970	0.465374	0.500040
C27	C	0.828831	-0.112131	0.000042
C28	C	1.328831	0.387869	0.500042
C29	C	0.070462	0.084825	-0.097349
C30	C	0.570462	0.584825	0.402651
C31	C	0.143286	0.085893	-0.097353
C32	C	0.643286	0.585893	0.402647
C33	C	0.175295	0.090845	0.000023
C34	C	0.675295	0.590845	0.500023
C35	C	0.134476	0.094712	0.097412
C36	C	0.634476	0.594712	0.597412
C37	C	0.061654	0.093637	0.097413
C38	C	0.561654	0.593637	0.597413
N39	N	0.281033	0.135550	0.072500
N40	N	0.781033	0.635550	0.572500
N41	N	0.350211	0.136573	0.072492
N42	N	0.850211	0.636573	0.572492
C43	C	0.394704	0.094083	0.000025
C44	C	0.894704	0.594083	0.500025
N45	N	0.367404	0.050541	-0.072450
N46	N	0.867404	0.550541	0.427550
N47	N	0.298220	0.049521	-0.072445
N48	N	0.798220	0.549521	0.427555
C49	C	0.254258	0.092011	0.000033
C50	C	0.754258	0.592011	0.500033
C51	C	0.514479	0.091370	-0.097362
C52	C	1.014479	0.591370	0.402638
C53	C	0.587306	0.092434	-0.097362
C54	C	1.087306	0.592434	0.402638
C55	C	0.578493	0.101260	0.097405
C56	C	1.078493	0.601260	0.597405
C57	C	0.505669	0.100189	0.097403
C58	C	1.005669	0.600189	0.597403
C59	C	0.473666	0.095247	0.000016
C60	C	0.973666	0.595247	0.500016
C61	C	0.832708	-0.152945	-0.097335
C62	C	1.332708	0.347055	0.402665
C63	C	0.831628	-0.225768	-0.097343
C64	C	1.331628	0.274232	0.402657
C65	C	0.826686	-0.257776	0.000032
C66	C	1.326686	0.242224	0.500032
C67	C	0.822805	-0.216952	0.097422
C68	C	1.322805	0.283048	0.597422
C69	C	0.823877	-0.144129	0.097427
C70	C	1.323877	0.355871	0.597427
N71	N	0.861453	-0.374153	0.072507
N72	N	1.361453	0.125847	0.572507
N73	N	0.860436	-0.443332	0.072495
N74	N	1.360436	0.056668	0.572495
C75	C	0.823452	-0.477185	0.000021
C76	C	1.323452	0.022815	0.500021
N77	N	0.787534	-0.439249	-0.072457
N78	N	1.287534	0.060751	0.427543
N79	N	0.788554	-0.370064	-0.072449
N80	N	1.288554	0.129936	0.427551
C81	C	0.825522	-0.336739	0.000036
C82	C	1.325522	0.163261	0.500036
C83	C	0.826157	-0.596963	-0.097372
C84	C	1.326157	-0.096963	0.402628
C85	C	0.825073	-0.669786	-0.097376
C86	C	1.325073	-0.169786	0.402624
C87	C	0.816257	-0.660970	0.097391
C88	C	1.316257	-0.160970	0.597391
C89	C	0.817334	-0.588147	0.097393
C90	C	1.317334	-0.088147	0.597393
C91	C	0.822288	-0.556148	0.000008
C92	C	1.322288	-0.056148	0.500008
C93	C	0.952147	0.087554	0.000030
C94	C	1.452147	0.587554	0.500030
C95	C	1.029651	0.088695	0.000026
C96	C	1.529651	0.588695	0.500026
C97	C	0.818991	0.220707	0.000009
C98	C	1.318991	0.720707	0.500009
C99	C	0.820130	0.298211	-0.000000
C100	C	1.320130	0.798211	0.500000
N101	N	0.812977	0.104566	0.254248
N102	N	1.312977	0.604566	0.754248
N103	N	0.835989	0.081509	-0.254197
N104	N	1.335989	0.581509	0.245803
C105	C	0.803090	0.114482	0.473362
C106	C	1.303090	0.614482	0.973362
C107	C	0.845874	0.071595	0.526696
C108	C	1.345874	0.571595	1.026696
C109	C	0.840372	0.077112	0.648619
C110	C	1.340372	0.577112	1.148619
C111	C	0.808591	0.108966	0.351429
C112	C	1.308591	0.608966	0.851429
H113	H	0.044411	0.080798	-0.176649
H114	H	0.544411	0.580798	0.323351
H115	H	0.812228	-0.687029	0.176676
H116	H	1.312228	-0.187029	0.676676
H117	H	0.834780	-0.259004	-0.176642
H118	H	1.334780	0.240996	0.323358
H119	H	0.762334	0.155340	0.519262
H120	H	1.262334	0.655340	1.019262
H121	H	0.620534	0.089277	-0.176660
H122	H	1.120534	0.589277	0.323340
N123	N	0.187316	0.081718	-0.202383
N124	N	0.687316	0.581718	0.297617
H125	H	0.155992	0.078423	-0.264075
H126	H	0.655992	0.578423	0.235925
H127	H	0.211926	0.125246	-0.206617
H128	H	0.711926	0.625246	0.293383
H129	H	0.604554	0.105290	0.176691
H130	H	1.104554	0.605290	0.676691
N131	N	0.819709	-0.100107	0.202462
N132	N	1.319709	0.399893	0.702462
H133	H	0.821142	-0.049119	0.187689
H134	H	1.321142	0.450881	0.687689
H135	H	0.774323	-0.105114	0.244986
H136	H	1.274323	0.394886	0.744986
H137	H	0.160542	0.098743	0.176696
H138	H	0.660542	0.598743	0.676696
N139	N	0.829276	-0.713793	-0.202429
N140	N	1.329276	-0.213793	0.297571
H141	H	0.785762	-0.738416	-0.206825
H142	H	1.285762	-0.238416	0.293175
H143	H	0.832608	-0.682407	-0.264028
H144	H	1.332608	-0.182407	0.235972
N145	N	0.899874	0.017476	0.465905
N146	N	1.399874	0.517476	0.965905
H147	H	0.891041	-0.031169	0.485410
H148	H	1.391041	0.468831	0.985410
H149	H	0.896180	0.021216	0.386182
H150	H	1.396180	0.521216	0.886182
H151	H	0.028425	0.096791	0.176710
H152	H	0.528425	0.596791	0.676710
H153	H	0.488422	0.087344	-0.176660
H154	H	0.988422	0.587344	0.323340
H155	H	0.472440	0.103343	0.176697
H156	H	0.972440	0.603343	0.676697
N157	N	0.831497	-0.562443	-0.202401
N158	N	1.331497	-0.062443	0.297599
H159	H	0.833783	-0.599351	-0.264093
H160	H	1.333783	-0.099351	0.235907
H161	H	0.788863	-0.526624	-0.206643
H162	H	1.288863	-0.026624	0.293357
H163	H	0.836739	-0.126896	-0.176633
H164	H	1.336739	0.373104	0.323367
H165	H	0.818779	-0.243017	0.176705
H166	H	1.318779	0.256983	0.676705
H167	H	0.814183	-0.554916	0.176688
H168	H	1.314183	-0.054916	0.676688
