data_functionalizedCrystal
_audit_creation_method	'MofGen! by Chris Wilmer'
_symmetry_space_group_name_H-M	'P1'
_symmetry_Int_Tables_number	1
_symmetry_cell_setting	triclinic
loop_
_symmetry_equiv_pos_as_xyz
  x,y,z
_cell_length_a	16.109302
_cell_length_b	16.974813
_cell_length_c	14.586319
_cell_angle_alpha	86.341649
_cell_angle_beta	89.994552
_cell_angle_gamma	83.428323
loop_
_atom_site_label
_atom_site_type_symbol
_atom_site_fract_x
_atom_site_fract_y
_atom_site_fract_z
O1	O	1.103043	0.101637	-0.083821
O2	O	0.860970	0.114284	-0.084752
O3	O	0.988755	-0.007145	-0.075742
O4	O	0.975258	0.223065	-0.092830
O5	O	0.988746	-0.007147	0.076739
O6	O	0.860962	0.114282	0.067729
O7	O	1.103034	0.101635	0.068660
Cu8	Cu	0.981997	0.107958	0.082117
Cu9	Cu	0.982008	0.107960	-0.098209
O10	O	0.975250	0.223064	0.059651
C11	C	0.829992	0.113771	-0.008472
C12	C	0.737698	0.112235	-0.008355
C13	C	0.525355	0.108681	0.075017
C14	C	0.438636	0.107229	0.075121
C15	C	0.438656	0.107235	-0.091122
C16	C	0.525374	0.108682	-0.091225
C17	C	0.568721	0.109409	-0.008154
C18	C	0.395284	0.106510	-0.007946
C19	C	0.301260	0.104936	-0.007833
C20	C	0.662751	0.110981	-0.008266
C21	C	0.988237	-0.036604	0.002683
C22	C	0.986698	-0.124380	0.009193
C23	C	0.985981	-0.165612	-0.070865
C24	C	0.984529	-0.248087	-0.064746
C25	C	0.983799	-0.289329	0.021433
C26	C	0.984513	-0.248091	0.101498
C27	C	0.985960	-0.165617	0.095377
C28	C	0.979468	-0.535989	0.048651
C29	C	0.978024	-0.618469	0.054766
C30	C	0.978038	-0.618459	-0.111478
C31	C	0.979489	-0.535984	-0.117591
C32	C	0.980199	-0.494753	-0.037527
N33	N	0.982317	-0.373631	0.027691
N34	N	0.981674	-0.410451	-0.043785
C35	C	1.134013	0.102148	-0.007621
C36	C	1.226307	0.103684	-0.007744
C37	C	0.975767	0.252523	-0.018777
C38	C	0.977307	0.340299	-0.025293
N39	N	0.981996	0.107956	0.208949
N40	N	0.982016	0.107956	-0.225040
C41	C	1.038598	0.054206	0.447944
C42	C	1.038600	0.054204	0.543925
C43	C	0.925408	0.161709	0.535958
C44	C	0.925402	0.161707	0.439979
C45	C	0.982002	0.107956	0.395974
C46	C	0.982010	0.107957	0.587935
C47	C	0.982012	0.107955	0.692002
C48	C	0.981999	0.107956	0.291900
H49	H	0.986579	-0.132040	-0.141041
C50	C	0.390932	0.106432	0.166609
C51	C	0.340839	0.036815	0.194637
C52	C	0.293135	0.036017	0.286129
C53	C	0.295524	0.104836	0.349593
C54	C	0.345619	0.174458	0.321567
C55	C	0.393323	0.175256	0.230075
H56	H	0.339069	-0.014133	0.147655
H57	H	0.256051	-0.015522	0.306875
H58	H	0.260210	0.104245	0.417321
H59	H	0.347389	0.225407	0.368548
H60	H	0.430407	0.226796	0.209329
C61	C	0.980286	-0.490625	-0.212393
C62	C	1.053443	-0.442925	-0.238801
C63	C	1.054244	-0.397568	-0.333605
C64	C	0.981888	-0.399912	-0.402001
C65	C	0.908726	-0.447614	-0.375594
C66	C	0.907926	-0.492971	-0.280790
H67	H	1.107010	-0.441188	-0.188169
H68	H	1.108403	-0.362256	-0.353153
H69	H	0.982481	-0.366336	-0.472181
H70	H	0.855160	-0.449351	-0.426226
H71	H	0.853766	-0.528283	-0.261243
C72	C	0.986750	-0.120258	0.183442
C73	C	0.915580	-0.054566	0.201427
C74	C	0.916366	-0.009207	0.289494
C75	C	0.988322	-0.029539	0.359576
C76	C	1.059498	-0.095234	0.341593
C77	C	1.058712	-0.140593	0.253526
H78	H	0.862309	-0.039512	0.149546
H79	H	0.863677	0.039425	0.302806
H80	H	0.988904	0.004039	0.424769
H81	H	1.112769	-0.110288	0.393474
H82	H	1.111401	-0.189225	0.240214
C83	C	0.573040	0.109476	0.166392
C84	C	0.551585	0.177893	0.229889
C85	C	0.599268	0.178687	0.321266
C86	C	0.668407	0.111064	0.349146
C87	C	0.689866	0.042643	0.285647
C88	C	0.642182	0.041849	0.194270
H89	H	0.500401	0.227956	0.209252
H90	H	0.583383	0.229338	0.368272
H91	H	0.703705	0.111652	0.416789
H92	H	0.741050	-0.007420	0.306284
H93	H	0.658068	-0.008802	0.147264
H94	H	1.084683	0.010437	0.412118
H95	H	0.879327	0.205473	0.571796
C96	C	0.390972	0.106446	-0.182498
C97	C	0.295584	0.104861	-0.182391
C98	C	0.247901	0.104075	-0.273770
C99	C	0.295605	0.104874	-0.365256
C100	C	0.390998	0.106459	-0.365367
C101	C	0.438681	0.107245	-0.273988
H102	H	0.260266	0.104269	-0.114664
H103	H	0.177285	0.102901	-0.273687
H104	H	0.260308	0.104292	-0.432900
H105	H	0.426316	0.107050	-0.433094
H106	H	0.509297	0.108418	-0.274071
C107	C	0.983706	-0.293461	0.196292
C108	C	0.910550	-0.341168	0.222681
C109	C	0.909744	-0.386539	0.317476
C110	C	0.982093	-0.384204	0.385882
C111	C	1.055254	-0.336495	0.359495
C112	C	1.056061	-0.291123	0.264700
H113	H	0.856988	-0.342898	0.172041
H114	H	0.855584	-0.421857	0.337009
H115	H	0.981496	-0.417790	0.456054
H116	H	1.108816	-0.334764	0.410134
H117	H	1.110220	-0.255806	0.245167
C118	C	0.573082	0.109482	-0.182720
C119	C	0.570688	0.040667	-0.246189
C120	C	0.618396	0.041464	-0.337678
C121	C	0.668499	0.111076	-0.365699
C122	C	0.670895	0.179896	-0.302228
C123	C	0.623187	0.179099	-0.210739
H124	H	0.533597	-0.010868	-0.225447
H125	H	0.616622	-0.009482	-0.384663
H126	H	0.703815	0.111665	-0.433424
H127	H	0.707986	0.231431	-0.322970
H128	H	0.624961	0.230045	-0.163754
H129	H	0.983949	-0.281655	-0.129938
C130	C	1.100859	-0.004920	0.601093
C131	C	1.163121	-0.064035	0.552687
C132	C	1.225381	-0.123162	0.609855
C133	C	1.225380	-0.123174	0.715430
C134	C	1.163115	-0.064057	0.763842
C135	C	1.100855	-0.004930	0.706674
H136	H	1.163124	-0.064028	0.474529
H137	H	1.271473	-0.166925	0.574017
H138	H	1.271469	-0.166944	0.757749
H139	H	1.163112	-0.064064	0.842000
H140	H	1.054763	0.038832	0.742512
C141	C	0.977246	-0.663815	-0.199544
C142	C	1.048408	-0.729511	-0.217537
C143	C	1.047611	-0.774866	-0.305607
C144	C	0.975652	-0.754524	-0.375683
C145	C	0.904484	-0.688824	-0.357692
C146	C	0.905281	-0.643469	-0.269622
H147	H	1.101682	-0.744573	-0.165661
H148	H	1.100295	-0.823502	-0.318925
H149	H	0.975062	-0.788098	-0.440878
H150	H	0.851210	-0.673763	-0.409568
H151	H	0.852597	-0.594834	-0.256304
C152	C	0.977182	-0.663848	0.149558
C153	C	0.905185	-0.643522	0.216587
C154	C	0.904329	-0.688908	0.311369
C155	C	0.975470	-0.754621	0.339122
C156	C	1.047473	-0.774951	0.272091
C157	C	1.048329	-0.729565	0.177310
H158	H	0.852518	-0.594874	0.196044
H159	H	0.851028	-0.673858	0.360989
H160	H	0.974837	-0.788219	0.409285
H161	H	1.100140	-0.823599	0.292634
H162	H	1.101630	-0.744615	0.127689
H163	H	0.980062	-0.502430	0.113845
H164	H	0.879311	0.205477	0.397662
