data_functionalizedCrystal
_audit_creation_method	'MofGen! by Chris Wilmer'
_symmetry_space_group_name_H-M	'P1'
_symmetry_Int_Tables_number	1
_symmetry_cell_setting	triclinic
loop_
_symmetry_equiv_pos_as_xyz
  x,y,z
_cell_length_a	12.837932
_cell_length_b	17.019294
_cell_length_c	11.892095
_cell_angle_alpha	90.016651
_cell_angle_beta	85.688545
_cell_angle_gamma	89.098799
loop_
_atom_site_label
_atom_site_type_symbol
_atom_site_fract_x
_atom_site_fract_y
_atom_site_fract_z
O1	O	1.383158	0.199571	-0.113429
O2	O	1.081298	0.189488	-0.112449
O3	O	1.239865	0.080865	-0.101870
O4	O	1.224590	0.308194	-0.124009
O5	O	1.226644	0.089906	0.085257
O6	O	1.068076	0.198529	0.074677
O7	O	1.369936	0.208613	0.073698
Zn8	Zn	1.216907	0.205007	0.103898
Zn9	Zn	1.234327	0.193094	-0.142650
O10	O	1.211369	0.317236	0.063118
C11	C	1.036048	0.190603	-0.018555
C12	C	0.920916	0.180445	-0.017567
C13	C	1.232415	0.056086	-0.005455
C14	C	1.229900	-0.031218	0.003040
C15	C	0.770616	0.095543	-0.009296
C16	C	0.878793	0.105082	-0.010225
C17	C	0.854853	0.246273	-0.023975
C18	C	0.746675	0.236734	-0.023046
C19	C	0.704561	0.161366	-0.015708
C20	C	0.596382	0.151827	-0.014786
C21	C	0.572443	0.293018	-0.028528
C22	C	0.680620	0.302557	-0.029457
C23	C	1.235927	-0.077157	-0.094971
C24	C	1.233557	-0.159188	-0.086985
C25	C	1.225167	-0.195278	0.019012
C26	C	1.219136	-0.149332	0.117031
C27	C	1.221499	-0.067303	0.109044
C28	C	1.217666	-0.442707	0.048230
C29	C	1.215307	-0.524743	0.056210
C30	C	1.229727	-0.534592	-0.147808
C31	C	1.232095	-0.452561	-0.155785
C32	C	1.226058	-0.406623	-0.057767
C33	C	1.222748	-0.279127	0.027177
C34	C	1.228470	-0.322776	-0.065933
C35	C	1.415186	0.207498	-0.020199
C36	C	1.530319	0.217655	-0.021195
C37	C	1.218819	0.342014	-0.033299
C38	C	1.221335	0.429318	-0.041802
N39	N	1.205027	0.213136	0.272160
N40	N	1.246216	0.184959	-0.310911
C41	C	1.328887	0.128342	0.517067
C42	C	1.320590	0.134031	0.634855
C43	C	1.180131	0.230199	0.625526
C44	C	1.188428	0.224510	0.507738
C45	C	1.262810	0.173581	0.453513
C46	C	1.271111	0.167896	0.335723
C47	C	1.130648	0.264060	0.326397
C48	C	1.122351	0.269749	0.444184
H49	H	0.562095	0.090459	-0.008815
N50	N	0.504982	0.360269	-0.035066
N51	N	0.542603	0.427553	-0.041616
H52	H	0.494960	0.475049	-0.046236
H53	H	1.215920	-0.308520	0.113481
H54	H	0.714925	0.363920	-0.035428
N55	N	0.897879	0.323254	-0.031481
N56	N	0.883365	0.365650	-0.114858
H57	H	0.913751	0.420019	-0.120158
N58	N	1.244512	-0.040308	-0.203256
N59	N	1.249894	-0.081339	-0.290756
H60	H	1.255956	-0.055318	-0.367237
H61	H	0.932572	0.051482	-0.005004
H62	H	1.374395	0.097192	0.686598
H63	H	1.119565	0.271659	0.669693
H64	H	1.238470	-0.196588	-0.166797
H65	H	1.238929	-0.423183	-0.242100
H66	H	1.331678	0.126429	0.291573
H67	H	1.234640	-0.572004	-0.227608
N68	N	1.206711	-0.561600	0.164496
N69	N	1.129122	-0.547372	0.231718
H70	H	1.123049	-0.573404	0.308191
N71	N	1.063161	0.310289	0.261479
N72	N	1.100964	0.358323	0.190770
H73	H	1.053306	0.390976	0.144922
H74	H	1.061788	0.311212	0.488349
H75	H	1.389458	0.086879	0.472916
H76	H	1.212771	-0.405314	0.128044
N77	N	0.727608	0.018556	-0.001817
N78	N	0.786600	-0.040211	0.003896
H79	H	0.756228	-0.094586	0.009177
H80	H	1.216576	-0.029899	0.188855
N81	N	1.210554	-0.186207	0.225297
N82	N	1.208446	-0.259448	0.232416
H83	H	1.202387	-0.285491	0.308881
N84	N	1.237053	-0.285901	-0.174194
N85	N	1.312995	-0.242995	-0.201217
H86	H	1.319062	-0.216945	-0.277677
