data_functionalizedCrystal
_audit_creation_method	'MofGen! by Chris Wilmer'
_symmetry_space_group_name_H-M	'P1'
_symmetry_Int_Tables_number	1
_symmetry_cell_setting	triclinic
loop_
_symmetry_equiv_pos_as_xyz
  x,y,z
_cell_length_a	12.594509
_cell_length_b	14.908618
_cell_length_c	14.908520
_cell_angle_alpha	90.204437
_cell_angle_beta	86.734646
_cell_angle_gamma	93.315358
loop_
_atom_site_label
_atom_site_type_symbol
_atom_site_fract_x
_atom_site_fract_y
_atom_site_fract_z
Zn1	Zn	-0.723646	-1.353976	0.437416
Zn2	Zn	-0.555293	-1.345190	0.587787
Zn3	Zn	-0.534864	-1.203608	0.428761
Zn4	Zn	-0.722411	-1.194904	0.579036
O5	O	-0.634053	-1.274420	0.508250
O6	O	-0.710380	-1.478636	0.464648
O7	O	-0.403637	-1.326374	0.566733
O8	O	-0.551874	-1.230874	0.304088
O9	O	-0.586692	-1.472180	0.575125
O10	O	-0.690571	-1.341349	0.310447
O11	O	-0.388628	-1.222354	0.449897
O12	O	-0.550676	-1.076628	0.441411
O13	O	-0.871520	-1.216040	0.560209
O14	O	-0.688466	-1.070234	0.551817
O15	O	-0.872428	-1.332910	0.456162
O16	O	-0.585494	-1.317935	0.712448
O17	O	-0.708275	-1.207520	0.706018
C18	C	-0.617220	-1.040806	0.494726
C19	C	-0.610046	-0.940864	0.488961
C20	C	-0.911674	-1.274484	0.508175
C21	C	-1.029979	-1.274512	0.508143
C22	C	-0.739873	-0.746442	0.593274
C23	C	-0.733136	-0.652538	0.587861
C24	C	-0.589840	-0.659149	0.472718
C25	C	-0.596577	-0.753054	0.478131
C26	C	-0.671595	-0.796697	0.538412
C27	C	-0.678327	-0.890603	0.543829
C28	C	-0.535037	-0.897213	0.428682
C29	C	-0.528299	-0.803308	0.423269
C30	C	-1.098738	-1.210967	0.564701
C31	C	-1.176836	-1.291742	0.591414
C32	C	-1.162681	-1.193804	0.481379
C33	C	-1.106524	-1.355327	0.534901
C34	C	-1.092358	-1.257336	0.424825
C35	C	-1.170426	-1.338169	0.451510
C36	C	-0.357513	-1.274411	0.508263
C37	C	-0.239204	-1.274572	0.508052
C38	C	-0.648992	-1.260854	0.741858
C39	C	-0.655424	-1.255133	0.841802
C40	C	-0.650944	-0.508945	0.521821
C41	C	-0.658121	-0.608887	0.527586
C42	C	-0.619082	-1.288063	0.273731
C43	C	-0.612701	-1.293876	0.173793
C44	C	-0.539778	-1.359475	1.036247
C45	C	-0.545818	-1.354102	1.130153
C46	C	-0.673551	-1.239021	1.123521
C47	C	-0.667510	-1.244393	1.029615
C48	C	-0.600620	-1.304621	0.985981
C49	C	-0.594575	-1.309989	0.892074
C50	C	-0.722312	-1.194912	0.885444
C51	C	-0.728353	-1.189540	0.979350
H52	H	-0.800950	-0.781977	0.642362
C53	C	-0.769775	-1.152045	0.738550
C54	C	-0.789200	-1.134614	0.830190
H55	H	-0.811071	-1.114822	0.704441
H56	H	-0.696323	-1.139798	0.722462
H57	H	-0.788776	-1.213336	0.726598
H58	H	-0.770192	-1.073324	0.842144
H59	H	-0.862668	-1.146855	0.846284
C60	C	-0.914029	-0.621161	0.630172
C61	C	-0.808188	-0.597297	0.648168
H62	H	-0.960364	-0.587060	0.667408
H63	H	-0.924742	-0.609272	0.568896
H64	H	-0.928763	-0.683335	0.642025
H65	H	-0.793452	-0.535124	0.636308
H66	H	-0.797470	-0.609179	0.709459
C67	C	-1.293050	-1.389963	0.684951
C68	C	-1.226644	-1.311396	0.686474
H69	H	-1.323792	-1.402091	0.743639
H70	H	-1.347931	-1.382295	0.644997
H71	H	-1.252454	-1.438789	0.665197
H72	H	-1.267241	-1.262568	0.706222
H73	H	-1.171754	-1.319059	0.726441
C74	C	-0.877393	-1.170931	1.084161
C75	C	-0.801871	-1.123338	1.027321
H76	H	-0.922773	-1.130057	1.113778
H77	H	-0.918608	-1.212172	1.049731
H78	H	-0.842011	-1.202831	1.127534
H79	H	-0.837253	-1.091444	0.983944
H80	H	-0.760651	-1.082082	1.061754
H81	H	-0.528770	-0.623599	0.423635
H82	H	-0.467225	-0.767761	0.374188
C83	C	-0.819302	-0.874633	0.657088
C84	C	-0.760790	-0.938578	0.610084
H85	H	-0.870219	-0.904251	0.697985
H86	H	-0.772435	-0.836001	0.689326
H87	H	-0.854950	-0.840289	0.615829
H88	H	-0.725136	-0.972918	0.651342
H89	H	-0.807665	-0.977226	0.577844
H90	H	-1.201693	-1.391991	0.403645
C91	C	-0.418948	-1.468388	1.127270
C92	C	-0.478933	-1.414395	1.185405
H93	H	-0.377651	-1.505607	1.161383
H94	H	-0.465475	-1.504856	1.092577
H95	H	-0.373024	-1.431316	1.088435
H96	H	-0.524863	-1.451467	1.224237
H97	H	-0.432401	-1.377924	1.220113
H98	H	-1.055452	-1.242751	0.354423
H99	H	-1.081750	-1.423621	0.557579
H100	H	-1.187593	-1.125526	0.458781
C101	C	-0.481729	-1.044096	0.385852
C102	C	-0.459979	-0.952455	0.368372
H103	H	-0.435393	-1.078198	0.348618
H104	H	-0.471004	-1.055972	0.447129
H105	H	-0.553538	-1.060268	0.373648
H106	H	-0.388171	-0.936281	0.380583
H107	H	-0.470695	-0.940574	0.307080
H108	H	-0.540107	-1.359027	0.856548
H109	H	-0.485306	-1.408509	1.000719
C110	C	-0.822585	-1.220432	1.228338
C111	C	-0.747072	-1.172827	1.171501
H112	H	-0.867968	-1.179565	1.257964
H113	H	-0.863799	-1.261671	1.193904
H114	H	-0.787197	-1.252335	1.271704
H115	H	-0.782460	-1.140929	1.128130
H116	H	-0.705853	-1.131572	1.205937
H117	H	-1.067286	-1.157265	0.612612
