data_functionalizedCrystal
_audit_creation_method	'MofGen! by Chris Wilmer'
_symmetry_space_group_name_H-M	'P1'
_symmetry_Int_Tables_number	1
_symmetry_cell_setting	triclinic
loop_
_symmetry_equiv_pos_as_xyz
  x,y,z
_cell_length_a	16.120530
_cell_length_b	16.120444
_cell_length_c	12.759393
_cell_angle_alpha	92.864751
_cell_angle_beta	87.079999
_cell_angle_gamma	90.168401
loop_
_atom_site_label
_atom_site_type_symbol
_atom_site_fract_x
_atom_site_fract_y
_atom_site_fract_z
Zn1	Zn	1.254497	-0.395559	-0.699373
Zn2	Zn	1.754497	0.104441	-0.199373
Zn3	Zn	1.247331	-0.534631	-0.532107
Zn4	Zn	1.747331	-0.034631	-0.032107
Zn5	Zn	1.115429	-0.388539	-0.514379
Zn6	Zn	1.615429	0.111461	-0.014379
Zn7	Zn	1.108347	-0.527513	-0.698414
Zn8	Zn	1.608347	-0.027513	-0.198414
O9	O	1.181401	-0.461561	-0.611068
O10	O	1.681401	0.038439	-0.111068
O11	O	1.369912	-0.419924	-0.685006
O12	O	1.869912	0.080076	-0.185006
O13	O	1.229798	-0.515293	-0.382735
O14	O	1.729798	-0.015293	0.117265
O15	O	1.139840	-0.273107	-0.531901
O16	O	1.639840	0.226893	-0.031901
O17	O	1.364647	-0.522100	-0.562116
O18	O	1.864647	-0.022100	-0.062116
O19	O	1.242013	-0.278265	-0.667815
O20	O	1.742013	0.221735	-0.167815
O21	O	1.132890	-0.407960	-0.369710
O22	O	1.632890	0.092040	0.130290
O23	O	0.998124	-0.401057	-0.530971
O24	O	1.498124	0.098943	-0.030971
O25	O	1.127770	-0.509968	-0.845562
O26	O	1.627770	-0.009968	-0.345562
O27	O	0.992921	-0.503161	-0.666181
O28	O	1.492921	-0.003161	-0.166181
O29	O	1.235146	-0.413022	-0.846267
O30	O	1.735146	0.086978	-0.346267
O31	O	1.222931	-0.650050	-0.561186
O32	O	1.722931	-0.150050	-0.061186
O33	O	1.120821	-0.644820	-0.683371
O34	O	1.620821	-0.144820	-0.183371
C35	C	0.965350	-0.450575	-0.596548
C36	C	1.465350	0.049425	-0.096548
C37	C	0.872921	-0.445896	-0.590363
C38	C	1.372921	0.054104	-0.090363
C39	C	0.703694	-0.437333	-0.579077
C40	C	1.203694	0.062667	-0.079077
C41	C	0.659946	-0.485849	-0.643140
C42	C	1.159946	0.014151	-0.143140
C43	C	0.565782	-0.481085	-0.636860
C44	C	1.065782	0.018915	-0.136860
C45	C	0.797866	-0.442096	-0.585355
C46	C	1.297866	0.057904	-0.085355
C47	C	1.170352	-0.677608	-0.624123
C48	C	1.670352	-0.177608	-0.124123
C49	C	1.165702	-0.770037	-0.629748
C50	C	1.665702	-0.270037	-0.129748
C51	C	1.205730	-0.983014	-0.582129
C52	C	1.705730	-0.483014	-0.082129
C53	C	1.157226	-0.939263	-0.640029
C54	C	1.657226	-0.439263	-0.140029
C55	C	1.161943	-0.845097	-0.634307
C56	C	1.661943	-0.345097	-0.134307
C57	C	1.201014	-1.077189	-0.587850
C58	C	1.701014	-0.577189	-0.087850
C59	C	1.398296	-0.472589	-0.625646
C60	C	1.898296	0.027411	-0.125646
C61	C	1.490723	-0.477289	-0.631858
C62	C	1.990723	0.022711	-0.131858
C63	C	1.181467	-0.461484	-0.885101
C64	C	1.681467	0.038516	-0.385101
C65	C	1.181496	-0.461451	-1.001878
C66	C	1.681496	0.038549	-0.501878
C67	C	1.192516	-0.244671	-0.597988
C68	C	1.692516	0.255329	-0.097988
C69	C	1.197252	-0.152245	-0.592413
C70	C	1.697252	0.347755	-0.092413
C71	C	1.237411	-0.410963	-1.057108
C72	C	1.737411	0.089037	-0.557108
C73	C	1.237427	-0.410928	-1.166831
C74	C	1.737427	0.089072	-0.666831
C75	C	1.125610	-0.511876	-1.166084
C76	C	1.625610	-0.011876	-0.666084
C77	C	1.125590	-0.511906	-1.056362
C78	C	1.625590	-0.011906	-0.556362
C79	C	1.181386	-0.461579	-0.338101
C80	C	1.681386	0.038421	0.161899
C81	C	1.181531	-0.461386	-0.221322
C82	C	1.681531	0.038614	0.278678
H83	H	0.670430	-0.392223	-0.519520
H84	H	1.170430	0.107777	-0.019520
H85	H	1.080095	-0.552956	-1.210459
H86	H	1.580095	-0.052956	-0.710459
H87	H	1.282930	-0.369877	-1.012750
H88	H	1.782930	0.130123	-0.512750
N89	N	1.262247	-0.941289	-0.514532
N90	N	1.762247	-0.441289	-0.014532
N91	N	1.256285	-0.950692	-0.417789
N92	N	1.756285	-0.450692	0.082211
H93	H	1.296196	-0.921214	-0.370045
H94	H	1.796196	-0.421214	0.129955
H95	H	1.282957	-0.369814	-1.211795
H96	H	1.782957	0.130186	-0.711795
N97	N	1.100690	-0.981000	-0.707601
N98	N	1.600690	-0.481000	-0.207601
N99	N	1.096887	-1.058545	-0.712210
N100	N	1.596887	-0.558545	-0.212210
H101	H	1.056958	-1.088025	-0.759927
H102	H	1.556958	-0.588025	-0.259927
N103	N	1.068469	-0.563469	-0.999923
N104	N	1.568469	-0.063469	-0.499923
N105	N	1.016972	-0.531524	-0.933368
N106	N	1.516972	-0.031524	-0.433368
H107	H	0.976629	-0.567935	-0.893506
H108	H	1.476629	-0.067935	-0.393506
H109	H	0.693211	-0.530962	-0.702702
H110	H	1.193211	-0.030962	-0.202702
