data_functionalizedCrystal
_audit_creation_method	'MofGen! by Chris Wilmer'
_symmetry_space_group_name_H-M	'P1'
_symmetry_Int_Tables_number	1
_symmetry_cell_setting	triclinic
loop_
_symmetry_equiv_pos_as_xyz
  x,y,z
_cell_length_a	21.295417
_cell_length_b	21.295418
_cell_length_c	19.805399
_cell_angle_alpha	89.962178
_cell_angle_beta	89.969157
_cell_angle_gamma	90.046319
loop_
_atom_site_label
_atom_site_type_symbol
_atom_site_fract_x
_atom_site_fract_y
_atom_site_fract_z
Zn1	Zn	-0.250358	0.962319	-0.383034
Zn2	Zn	-0.000358	1.212319	-0.133034
Zn3	Zn	0.249642	1.462319	0.116966
Zn4	Zn	0.499642	1.712319	0.366966
Zn5	Zn	-0.355627	0.962232	-0.269839
Zn6	Zn	-0.105627	1.212232	-0.019839
Zn7	Zn	0.144373	1.462232	0.230161
Zn8	Zn	0.394373	1.712232	0.480161
Zn9	Zn	-0.250404	0.857053	-0.269823
Zn10	Zn	-0.000404	1.107053	-0.019823
Zn11	Zn	0.249596	1.357053	0.230177
Zn12	Zn	0.499596	1.607053	0.480177
Zn13	Zn	-0.355622	0.857012	-0.382950
Zn14	Zn	-0.105622	1.107012	-0.132950
Zn15	Zn	0.144378	1.357012	0.117050
Zn16	Zn	0.394378	1.607012	0.367050
O17	O	-0.303003	0.909654	-0.326411
O18	O	-0.053003	1.159654	-0.076411
O19	O	0.196997	1.409654	0.173589
O20	O	0.446997	1.659654	0.423589
O21	O	-0.264305	1.050397	-0.368061
O22	O	-0.014305	1.300397	-0.118061
O23	O	0.235695	1.550397	0.131939
O24	O	0.485695	1.800397	0.381939
O25	O	-0.341690	0.948261	-0.175120
O26	O	-0.091690	1.198261	0.074880
O27	O	0.158310	1.448261	0.324880
O28	O	0.408310	1.698261	0.574880
O29	O	-0.162309	0.871070	-0.284868
O30	O	0.087691	1.121070	-0.034868
O31	O	0.337691	1.371070	0.215132
O32	O	0.587691	1.621070	0.465132
O33	O	-0.341645	1.050333	-0.284897
O34	O	-0.091645	1.300333	-0.034897
O35	O	0.158355	1.550333	0.215103
O36	O	0.408355	1.800333	0.465103
O37	O	-0.162275	0.948409	-0.368044
O38	O	0.087725	1.198409	-0.118044
O39	O	0.337725	1.448409	0.131956
O40	O	0.587725	1.698409	0.381956
O41	O	-0.264384	0.870986	-0.175108
O42	O	-0.014384	1.120986	0.074892
O43	O	0.235616	1.370986	0.324892
O44	O	0.485616	1.620986	0.574892
O45	O	-0.264379	0.768958	-0.284787
O46	O	-0.014379	1.018958	-0.034787
O47	O	0.235621	1.268958	0.215213
O48	O	0.485621	1.518958	0.465213
O49	O	-0.341638	0.871000	-0.477678
O50	O	-0.091638	1.121000	-0.227678
O51	O	0.158362	1.371000	0.022322
O52	O	0.408362	1.621000	0.272322
O53	O	-0.341683	0.768928	-0.367901
O54	O	-0.091683	1.018928	-0.117901
O55	O	0.158317	1.268928	0.132099
O56	O	0.408317	1.518928	0.382099
O57	O	-0.264300	0.948369	-0.477739
O58	O	-0.014300	1.198369	-0.227739
O59	O	0.235700	1.448369	0.022261
O60	O	0.485700	1.698369	0.272261
O61	O	-0.443716	0.948221	-0.284816
O62	O	-0.193716	1.198221	-0.034816
O63	O	0.056284	1.448221	0.215184
O64	O	0.306284	1.698221	0.465184
O65	O	-0.443712	0.870916	-0.367917
O66	O	-0.193712	1.120916	-0.117917
O67	O	0.056288	1.370916	0.132083
O68	O	0.306288	1.620916	0.382083
C69	C	-0.303036	0.746102	-0.326334
C70	C	-0.053036	0.996102	-0.076334
C71	C	0.196964	1.246102	0.173666
C72	C	0.446964	1.496102	0.423666
C73	C	-0.303065	0.676134	-0.326316
C74	C	-0.053065	0.926134	-0.076316
C75	C	0.196935	1.176134	0.173684
C76	C	0.446935	1.426134	0.423684
C77	C	-0.466555	0.909572	-0.326374
C78	C	-0.216555	1.159572	-0.076374
C79	C	0.033445	1.409572	0.173626
C80	C	0.283445	1.659572	0.423626
C81	C	-0.536523	0.909594	-0.326381
C82	C	-0.286523	1.159594	-0.076381
C83	C	-0.036523	1.409594	0.173619
C84	C	0.213477	1.659594	0.423619
C85	C	-0.343370	0.643268	-0.369529
C86	C	-0.093370	0.893268	-0.119529
C87	C	0.156630	1.143268	0.130471
C88	C	0.406630	1.393268	0.380471
C89	C	-0.343355	0.577526	-0.369560
C90	C	-0.093355	0.827526	-0.119560
C91	C	0.156645	1.077526	0.130440
C92	C	0.406645	1.327526	0.380440
C93	C	-0.303041	0.544652	-0.326365
C94	C	-0.053041	0.794652	-0.076365
C95	C	0.196959	1.044652	0.173635
C96	C	0.446959	1.294652	0.423635
C97	C	-0.262728	0.577526	-0.283149
C98	C	-0.012728	0.827526	-0.033149
C99	C	0.237272	1.077526	0.216851
C100	C	0.487272	1.327526	0.466851
C101	C	-0.262740	0.643267	-0.283125
C102	C	-0.012740	0.893267	-0.033125
C103	C	0.237260	1.143267	0.216875
C104	C	0.487260	1.393267	0.466875
N105	N	-0.298123	0.441381	-0.267165
N106	N	-0.048123	0.691381	-0.017165
N107	N	0.201877	0.941381	0.232835
N108	N	0.451877	1.191381	0.482835
N109	N	-0.298115	0.378930	-0.267190
N110	N	-0.048115	0.628930	-0.017190
N111	N	0.201885	0.878930	0.232810
N112	N	0.451885	1.128930	0.482810
C113	C	-0.303001	0.346577	-0.326437
C114	C	-0.053001	0.596577	-0.076437
C115	C	0.196999	0.846577	0.173563
C116	C	0.446999	1.096577	0.423563
N117	N	-0.307907	0.379035	-0.385659
N118	N	-0.057907	0.629035	-0.135659
N119	N	0.192093	0.879035	0.114341
N120	N	0.442093	1.129035	0.364341
N121	N	-0.307919	0.441492	-0.385633
N122	N	-0.057919	0.691492	-0.135633
N123	N	0.192081	0.941492	0.114367
N124	N	0.442081	1.191492	0.364367
C125	C	-0.303023	0.473366	-0.326387
C126	C	-0.053023	0.723366	-0.076387
C127	C	0.196977	0.973366	0.173613
C128	C	0.446977	1.223366	0.423613
C129	C	-0.343291	0.242426	-0.369686
C130	C	-0.093291	0.492426	-0.119686
C131	C	0.156709	0.742426	0.130314
C132	C	0.406709	0.992426	0.380314
C133	C	-0.343271	0.176682	-0.369718
C134	C	-0.093271	0.426682	-0.119718
C135	C	0.156729	0.676682	0.130282
C136	C	0.406729	0.926682	0.380282
C137	C	-0.262648	0.176683	-0.283301
C138	C	-0.012648	0.426683	-0.033301
C139	C	0.237352	0.676683	0.216699
C140	C	0.487352	0.926683	0.466699
C141	C	-0.262664	0.242426	-0.283276
C142	C	-0.012664	0.492426	-0.033276
C143	C	0.237336	0.742426	0.216724
C144	C	0.487336	0.992426	0.466724
C145	C	-0.302989	0.275293	-0.326467
C146	C	-0.052989	0.525293	-0.076467
C147	C	0.197011	0.775293	0.173533
C148	C	0.447011	1.025293	0.423533
C149	C	-0.569370	0.949882	-0.283154
C150	C	-0.319370	1.199882	-0.033154
C151	C	-0.069370	1.449882	0.216846
C152	C	0.180630	1.699882	0.466846
C153	C	-0.635113	0.949912	-0.283169
C154	C	-0.385113	1.199912	-0.033169
C155	C	-0.135113	1.449912	0.216831
C156	C	0.114887	1.699912	0.466831
C157	C	-0.668005	0.909642	-0.326404
C158	C	-0.418005	1.159642	-0.076404
C159	C	-0.168005	1.409642	0.173596
C160	C	0.081995	1.659642	0.423596
C161	C	-0.635150	0.869350	-0.369639
C162	C	-0.385150	1.119350	-0.119639
C163	C	-0.135150	1.369350	0.130361
C164	C	0.114850	1.619350	0.380361
C165	C	-0.569409	0.869326	-0.369627
C166	C	-0.319409	1.119326	-0.119627
C167	C	-0.069409	1.369326	0.130373
C168	C	0.180591	1.619326	0.380373
N169	N	-0.771286	0.854574	-0.331538
N170	N	-0.521286	1.104574	-0.081538
N171	N	-0.271286	1.354574	0.168462
N172	N	-0.021286	1.604574	0.418462
N173	N	-0.833738	0.854598	-0.331545
N174	N	-0.583738	1.104598	-0.081545
N175	N	-0.333738	1.354598	0.168455
N176	N	-0.083738	1.604598	0.418455
C177	C	-0.866080	0.909712	-0.326443
C178	C	-0.616080	1.159712	-0.076443
C179	C	-0.366080	1.409712	0.173557
C180	C	-0.116080	1.659712	0.423557
N181	N	-0.833611	0.964801	-0.321320
N182	N	-0.583611	1.214801	-0.071320
N183	N	-0.333611	1.464801	0.178680
N184	N	-0.083611	1.714801	0.428680
N185	N	-0.771154	0.964776	-0.321309
N186	N	-0.521154	1.214776	-0.071309
N187	N	-0.271154	1.464776	0.178691
N188	N	-0.021154	1.714776	0.428691
C189	C	-0.739291	0.909663	-0.326422
C190	C	-0.489291	1.159663	-0.076422
C191	C	-0.239291	1.409663	0.173578
C192	C	0.010709	1.659663	0.423578
C193	C	-0.970213	0.950036	-0.283230
C194	C	-0.720213	1.200036	-0.033230
C195	C	-0.470213	1.450036	0.216770
C196	C	-0.220213	1.700036	0.466770
C197	C	-1.035956	0.950067	-0.283250
C198	C	-0.785956	1.200067	-0.033250
C199	C	-0.535956	1.450067	0.216750
C200	C	-0.285956	1.700067	0.466750
C201	C	-1.035992	0.869499	-0.369717
C202	C	-0.785992	1.119499	-0.119717
C203	C	-0.535992	1.369499	0.130283
C204	C	-0.285992	1.619499	0.380283
C205	C	-0.970250	0.869474	-0.369700
C206	C	-0.720250	1.119474	-0.119700
C207	C	-0.470250	1.369474	0.130300
C208	C	-0.220250	1.619474	0.380300
C209	C	-0.937364	0.909742	-0.326453
C210	C	-0.687364	1.159742	-0.076453
C211	C	-0.437364	1.409742	0.173547
C212	C	-0.187364	1.659742	0.423547
C213	C	-0.138813	0.909754	-0.326464
C214	C	0.111187	1.159754	-0.076464
C215	C	0.361187	1.409754	0.173536
C216	C	0.611187	1.659754	0.423536
C217	C	-0.068844	0.909797	-0.326486
C218	C	0.181156	1.159797	-0.076486
C219	C	0.431156	1.409797	0.173514
C220	C	0.681156	1.659797	0.423514
C221	C	-0.302963	0.909689	-0.502954
C222	C	-0.052963	1.159689	-0.252954
C223	C	0.197037	1.409689	-0.002954
C224	C	0.447037	1.659689	0.247046
C225	C	-0.302946	0.909704	-0.578186
C226	C	-0.052946	1.159704	-0.328186
C227	C	0.197054	1.409704	-0.078186
C228	C	0.447054	1.659704	0.171814
C229	C	-0.302970	1.073844	-0.326490
C230	C	-0.052970	1.323844	-0.076490
C231	C	0.197030	1.573844	0.173510
C232	C	0.447030	1.823844	0.423510
C233	C	-0.302956	1.143812	-0.326524
C234	C	-0.052956	1.393812	-0.076524
C235	C	0.197044	1.643812	0.173476
C236	C	0.447044	1.893812	0.423476
C237	C	-0.262675	0.949991	-0.613564
C238	C	-0.012675	1.199991	-0.363564
C239	C	0.237325	1.449991	-0.113564
C240	C	0.487325	1.699991	0.136436
C241	C	-0.262657	0.949998	-0.684252
C242	C	-0.012657	1.199998	-0.434252
C243	C	0.237343	1.449998	-0.184252
C244	C	0.487343	1.699998	0.065748
C245	C	-0.302914	0.909720	-0.719562
C246	C	-0.052914	1.159720	-0.469562
C247	C	0.197086	1.409720	-0.219562
C248	C	0.447086	1.659720	0.030438
C249	C	-0.343187	0.869429	-0.684180
C250	C	-0.093187	1.119429	-0.434180
C251	C	0.156813	1.369429	-0.184180
C252	C	0.406813	1.619429	0.065820
C253	C	-0.343201	0.869420	-0.613492
C254	C	-0.093201	1.119420	-0.363492
C255	C	0.156799	1.369420	-0.113492
C256	C	0.406799	1.619420	0.136508
C257	C	-0.343128	0.869464	-0.969253
C258	C	-0.093128	1.119464	-0.719253
C259	C	0.156872	1.369464	-0.469253
C260	C	0.406872	1.619464	-0.219253
C261	C	-0.343112	0.869478	-1.039945
C262	C	-0.093112	1.119478	-0.789945
C263	C	0.156888	1.369478	-0.539945
C264	C	0.406888	1.619478	-0.289945
C265	C	-0.262583	0.950042	-1.040013
C266	C	-0.012583	1.200042	-0.790013
C267	C	0.237417	1.450042	-0.540013
C268	C	0.487417	1.700042	-0.290013
C269	C	-0.262598	0.950033	-0.969326
C270	C	-0.012598	1.200033	-0.719326
C271	C	0.237402	1.450033	-0.469326
C272	C	0.487402	1.700033	-0.219326
C273	C	-0.302869	0.909740	-0.933949
C274	C	-0.052869	1.159740	-0.683949
C275	C	0.197131	1.409740	-0.433949
C276	C	0.447131	1.659740	-0.183949
C277	C	-0.302887	0.909733	-0.857301
C278	C	-0.052887	1.159733	-0.607301
C279	C	0.197113	1.409733	-0.357301
C280	C	0.447113	1.659733	-0.107301
C281	C	-0.302899	0.909730	-0.796209
C282	C	-0.052899	1.159730	-0.546209
C283	C	0.197101	1.409730	-0.296209
C284	C	0.447101	1.659730	-0.046209
C285	C	-0.302997	0.909655	-0.150555
C286	C	-0.052997	1.159655	0.099445
C287	C	0.197003	1.409655	0.349445
C288	C	0.447003	1.659655	0.599445
C289	C	-0.302837	0.909762	-0.075324
C290	C	-0.052837	1.159762	0.174676
C291	C	0.197163	1.409762	0.424676
C292	C	0.447163	1.659762	0.674676
H293	H	-0.376205	0.670025	-0.404700
H294	H	-0.126205	0.920025	-0.154700
H295	H	0.123795	1.170025	0.095300
H296	H	0.373795	1.420025	0.345300
F297	F	-0.670078	0.992794	-0.237159
F298	F	-0.420078	1.242794	0.012841
F299	F	-0.170078	1.492794	0.262841
F300	F	0.079922	1.742794	0.512841
H301	H	-0.229819	0.982834	-0.940580
H302	H	0.020181	1.232834	-0.690580
H303	H	0.270181	1.482834	-0.440580
H304	H	0.520181	1.732834	-0.190580
F305	F	-0.219721	0.992925	-1.077668
F306	F	0.030279	1.242925	-0.827668
F307	F	0.280279	1.492925	-0.577668
F308	F	0.530279	1.742925	-0.327668
H309	H	-0.542664	0.836518	-0.404829
H310	H	-0.292664	1.086518	-0.154829
H311	H	-0.042664	1.336518	0.095171
H312	H	0.207336	1.586518	0.345171
H313	H	-0.661935	0.836563	-0.404843
H314	H	-0.411935	1.086563	-0.154843
H315	H	-0.161935	1.336563	0.095157
H316	H	0.088065	1.586563	0.345157
F317	F	-0.935211	0.992891	-0.237203
F318	F	-0.685211	1.242891	0.012797
F319	F	-0.435211	1.492891	0.262797
F320	F	-0.185211	1.742891	0.512797
F321	F	-0.219830	0.992864	-0.575991
F322	F	0.030170	1.242864	-0.325991
F323	F	0.280170	1.492864	-0.075991
F324	F	0.530170	1.742864	0.174009
H325	H	-1.062773	0.836713	-0.404922
H326	H	-0.812773	1.086713	-0.154922
H327	H	-0.562773	1.336713	0.095078
H328	H	-0.312773	1.586713	0.345078
H329	H	-0.229917	0.670026	-0.247935
H330	H	0.020083	0.920026	0.002065
H331	H	0.270083	1.170026	0.252065
H332	H	0.520083	1.420026	0.502065
F333	F	-0.219816	0.992898	-0.721900
F334	F	0.030184	1.242898	-0.471900
F335	F	0.280184	1.492898	-0.221900
F336	F	0.530184	1.742898	0.028100
H337	H	-0.229847	0.269185	-0.248084
H338	H	0.020153	0.519185	0.001916
H339	H	0.270153	0.769185	0.251916
H340	H	0.520153	1.019185	0.501916
H341	H	-0.376176	0.550761	-0.404751
H342	H	-0.126176	0.800761	-0.154751
H343	H	0.123824	1.050761	0.095249
H344	H	0.373824	1.300761	0.345249
H345	H	-0.375895	0.836676	-1.068693
H346	H	-0.125895	1.086676	-0.818693
H347	H	0.124105	1.336676	-0.568693
H348	H	0.374105	1.586676	-0.318693
F349	F	-0.385988	0.826580	-0.931612
F350	F	-0.135988	1.076580	-0.681612
F351	F	0.114012	1.326580	-0.431612
F352	F	0.364012	1.576580	-0.181612
H353	H	-0.229903	0.550756	-0.247981
H354	H	0.020097	0.800756	0.002019
H355	H	0.270097	1.050756	0.252019
H356	H	0.520097	1.300756	0.502019
H357	H	-0.375988	0.836607	-0.584689
H358	H	-0.125988	1.086607	-0.334689
H359	H	0.124012	1.336607	-0.084689
H360	H	0.374012	1.586607	0.165311
H361	H	-1.062700	0.982878	-0.248051
H362	H	-0.812700	1.232878	0.001949
H363	H	-0.562700	1.482878	0.251949
H364	H	-0.312700	1.732878	0.501949
H365	H	-0.542596	0.982672	-0.247941
H366	H	-0.292596	1.232672	0.002059
H367	H	-0.042596	1.482672	0.252059
H368	H	0.207404	1.732672	0.502059
F369	F	-0.386029	0.826559	-0.721761
F370	F	-0.136029	1.076559	-0.471761
F371	F	0.113971	1.326559	-0.221761
F372	F	0.363971	1.576559	0.028239
F373	F	-0.386205	0.277408	-0.415657
F374	F	-0.136205	0.527408	-0.165657
F375	F	0.113795	0.777408	0.084343
F376	F	0.363795	1.027408	0.334343
H377	H	-0.376091	0.149923	-0.404911
H378	H	-0.126091	0.399923	-0.154911
H379	H	0.123909	0.649923	0.095089
H380	H	0.373909	0.899923	0.345089
F381	F	-0.219739	0.141701	-0.237333
F382	F	0.030261	0.391701	0.012667
F383	F	0.280261	0.641701	0.262667
F384	F	0.530261	0.891701	0.512667
H385	H	-0.943504	0.836665	-0.404897
H386	H	-0.693504	1.086665	-0.154897
H387	H	-0.443504	1.336665	0.095103
H388	H	-0.193504	1.586665	0.345103
