data_functionalizedCrystal
_audit_creation_method	'MofGen! by Chris Wilmer'
_symmetry_space_group_name_H-M	'P1'
_symmetry_Int_Tables_number	1
_symmetry_cell_setting	triclinic
loop_
_symmetry_equiv_pos_as_xyz
  x,y,z
_cell_length_a	8.597340
_cell_length_b	10.540510
_cell_length_c	7.088929
_cell_angle_alpha	83.716686
_cell_angle_beta	103.954719
_cell_angle_gamma	84.924190
loop_
_atom_site_label
_atom_site_type_symbol
_atom_site_fract_x
_atom_site_fract_y
_atom_site_fract_z
O1	O	2.103332	0.174329	0.187506
O2	O	1.638882	0.195051	0.110994
O3	O	1.881728	-0.000108	0.151001
O4	O	1.860486	0.369487	0.147500
O5	O	1.914181	-0.026247	0.474322
O6	O	1.671336	0.168911	0.434316
O7	O	2.135785	0.148189	0.510827
Cu8	Cu	1.906524	0.156163	0.502093
Cu9	Cu	1.868144	0.187077	0.119728
O10	O	1.892939	0.343347	0.470821
C11	C	1.595637	0.181212	0.262858
C12	C	1.418430	0.178905	0.233665
C13	C	1.896371	-0.060468	0.312397
C14	C	1.891634	-0.201377	0.311605
C15	C	2.060412	-0.420297	0.340137
C16	C	2.065390	-0.273683	0.340230
C17	C	1.784156	-0.230469	0.112324
C18	C	1.780321	-0.377186	0.111550
C19	C	1.813607	-0.406690	0.478630
C20	C	1.822093	-0.260614	0.482418
C21	C	2.179030	0.162028	0.358960
C22	C	2.356236	0.164337	0.388140
C23	C	1.878296	0.403708	0.309421
C24	C	1.883031	0.544618	0.310200
N25	N	1.933529	0.134420	0.771030
N26	N	1.841151	0.208810	-0.149207
H27	H	1.438560	0.153620	0.542733
Cl28	Cl	1.291327	0.195433	-0.005035
Cl29	Cl	2.193313	-0.245785	0.562286
H30	H	2.141396	-0.473520	0.483695
Cl31	Cl	2.143928	-0.471892	0.153988
Cl32	Cl	1.858232	-0.166482	-0.084107
H33	H	1.696357	-0.211393	0.472670
Cl34	Cl	1.585600	-0.154798	0.069170
Cl35	Cl	2.081373	0.015403	0.921446
H36	H	2.122081	-0.235142	0.219185
Cl37	Cl	1.852795	-0.422838	-0.086059
H38	H	1.649522	-0.398423	0.081776
Cl39	Cl	1.919972	-0.490485	0.708639
Cl40	Cl	1.612388	-0.439370	0.447378
Cl41	Cl	1.943168	-0.234309	0.709764
Cl42	Cl	1.693330	0.327834	0.700389
