data_functionalizedCrystal
_audit_creation_method	'MofGen! by Chris Wilmer'
_symmetry_space_group_name_H-M	'P1'
_symmetry_Int_Tables_number	1
_symmetry_cell_setting	triclinic
loop_
_symmetry_equiv_pos_as_xyz
  x,y,z
_cell_length_a	16.625547
_cell_length_b	16.625545
_cell_length_c	15.296720
_cell_angle_alpha	99.644333
_cell_angle_beta	80.342885
_cell_angle_gamma	89.976026
loop_
_atom_site_label
_atom_site_type_symbol
_atom_site_fract_x
_atom_site_fract_y
_atom_site_fract_z
Zn1	Zn	1.153700	0.399897	0.510165
Zn2	Zn	1.403700	0.649897	0.760165
Zn3	Zn	1.653700	0.899897	1.010165
Zn4	Zn	1.903700	1.149897	1.260165
Zn5	Zn	1.176951	0.511412	0.359317
Zn6	Zn	1.426951	0.761412	0.609317
Zn7	Zn	1.676951	1.011412	0.859317
Zn8	Zn	1.926951	1.261412	1.109317
Zn9	Zn	1.042212	0.376597	0.359320
Zn10	Zn	1.292212	0.626597	0.609320
Zn11	Zn	1.542212	0.876597	0.859320
Zn12	Zn	1.792212	1.126597	1.109320
Zn13	Zn	1.018838	0.534682	0.510106
Zn14	Zn	1.268838	0.784682	0.760106
Zn15	Zn	1.518838	1.034682	1.010106
Zn16	Zn	1.768838	1.284682	1.260106
O17	O	1.097925	0.455647	0.434727
O18	O	1.347925	0.705647	0.684727
O19	O	1.597925	0.955647	0.934727
O20	O	1.847925	1.205647	1.184727
O21	O	1.269613	0.414702	0.490178
O22	O	1.519613	0.664702	0.740178
O23	O	1.769613	0.914702	0.990178
O24	O	2.019613	1.164702	1.240178
O25	O	1.178590	0.474039	0.233083
O26	O	1.428590	0.724039	0.483083
O27	O	1.678590	0.974039	0.733083
O28	O	1.928590	1.224039	0.983083
O29	O	1.057053	0.266860	0.379356
O30	O	1.307053	0.516860	0.629356
O31	O	1.557053	0.766860	0.879356
O32	O	1.807053	1.016860	1.129356
O33	O	1.286695	0.496631	0.379350
O34	O	1.536695	0.746631	0.629350
O35	O	1.786695	0.996631	0.879350
O36	O	2.036695	1.246631	1.129350
O37	O	1.138963	0.283978	0.490181
O38	O	1.388963	0.533978	0.740181
O39	O	1.638963	0.783978	0.990181
O40	O	1.888963	1.033978	1.240181
O41	O	1.079598	0.374991	0.233085
O42	O	1.329598	0.624991	0.483085
O43	O	1.579598	0.874991	0.733085
O44	O	1.829598	1.124991	0.983085
O45	O	0.926283	0.397555	0.379299
O46	O	1.176283	0.647555	0.629299
O47	O	1.426283	0.897555	0.879299
O48	O	1.676283	1.147555	1.129299
O49	O	1.017215	0.536292	0.636348
O50	O	1.267215	0.786292	0.886348
O51	O	1.517215	1.036292	1.136348
O52	O	1.767215	1.286292	1.386348
O53	O	0.909110	0.513699	0.490081
O54	O	1.159110	0.763699	0.740081
O55	O	1.409110	1.013699	0.990081
O56	O	1.659110	1.263699	1.240081
O57	O	1.116298	0.437266	0.636392
O58	O	1.366298	0.687266	0.886392
O59	O	1.616298	0.937266	1.136392
O60	O	1.866298	1.187266	1.386392
O61	O	1.155925	0.627327	0.379293
O62	O	1.405925	0.877327	0.629293
O63	O	1.655925	1.127327	0.879293
O64	O	1.905925	1.377327	1.129293
O65	O	1.039760	0.644423	0.490077
O66	O	1.289760	0.894423	0.740077
O67	O	1.539760	1.144423	0.990077
O68	O	1.789760	1.394423	1.240077
C69	C	0.888441	0.455625	0.434684
C70	C	1.138441	0.705625	0.684684
C71	C	1.388441	0.955625	0.934684
C72	C	1.638441	1.205625	1.184684
C73	C	0.798819	0.455638	0.434688
C74	C	1.048819	0.705638	0.684688
C75	C	1.298819	0.955638	0.934688
C76	C	1.548819	1.205638	1.184688
C77	C	0.726035	0.455641	0.434699
C78	C	0.976035	0.705641	0.684699
C79	C	1.226035	0.955641	0.934699
C80	C	1.476035	1.205641	1.184699
C81	C	0.634723	0.455649	0.434721
C82	C	0.884723	0.705649	0.684721
C83	C	1.134723	0.955649	0.934721
C84	C	1.384723	1.205649	1.184721
C85	C	0.561943	0.455660	0.434744
C86	C	0.811943	0.705660	0.684744
C87	C	1.061943	0.955660	0.934744
C88	C	1.311943	1.205660	1.184744
C89	C	0.470626	0.455669	0.434766
C90	C	0.720626	0.705669	0.684766
C91	C	0.970626	0.955669	0.934766
C92	C	1.220626	1.205669	1.184766
C93	C	1.097848	0.665133	0.434698
C94	C	1.347848	0.915133	0.684698
C95	C	1.597848	1.165133	0.934698
C96	C	1.847848	1.415133	1.184698
C97	C	1.097884	0.754757	0.434716
C98	C	1.347884	1.004757	0.684716
C99	C	1.597884	1.254757	0.934716
C100	C	1.847884	1.504757	1.184716
C101	C	1.097999	1.082949	0.434824
C102	C	1.347999	1.332949	0.684824
C103	C	1.597999	1.582949	0.934824
C104	C	1.847999	1.832949	1.184824
C105	C	1.097964	0.991637	0.434796
C106	C	1.347964	1.241637	0.684796
C107	C	1.597964	1.491637	0.934796
C108	C	1.847964	1.741637	1.184796
C109	C	1.097941	0.918856	0.434769
C110	C	1.347941	1.168856	0.684769
C111	C	1.597941	1.418856	0.934769
C112	C	1.847941	1.668856	1.184769
C113	C	1.097907	0.827538	0.434743
C114	C	1.347907	1.077538	0.684743
C115	C	1.597907	1.327538	0.934743
C116	C	1.847907	1.577538	1.184743
C117	C	1.308228	0.455670	0.434770
C118	C	1.558228	0.705670	0.684770
C119	C	1.808228	0.955670	0.934770
C120	C	2.058228	1.205670	1.184770
C121	C	1.397846	0.455680	0.434789
C122	C	1.647846	0.705680	0.684789
C123	C	1.897846	0.955680	0.934789
C124	C	2.147846	1.205680	1.184789
C125	C	1.061556	0.491974	0.670016
C126	C	1.311556	0.741974	0.920016
C127	C	1.561556	0.991974	1.170016
C128	C	1.811556	1.241974	1.420016
C129	C	1.046058	0.507454	0.770283
C130	C	1.296058	0.757454	1.020283
C131	C	1.546058	1.007454	1.270283
C132	C	1.796058	1.257454	1.520283
C133	C	1.098014	1.245347	0.434786
C134	C	1.348014	1.495347	0.684786
C135	C	1.598014	1.745347	0.934786
C136	C	1.848014	1.995347	1.184786
C137	C	1.098029	1.155734	0.434839
C138	C	1.348029	1.405734	0.684839
C139	C	1.598029	1.655734	0.934839
C140	C	1.848029	1.905734	1.184839
C141	C	1.134200	0.419403	0.200353
C142	C	1.384200	0.669403	0.450353
C143	C	1.634200	0.919403	0.700353
C144	C	1.884200	1.169403	0.950353
C145	C	1.149854	0.403696	0.100087
C146	C	1.399854	0.653696	0.350087
C147	C	1.649854	0.903696	0.600087
C148	C	1.899854	1.153696	0.850087
C149	C	1.208725	0.344866	1.053007
C150	C	1.458725	0.594866	1.303007
C151	C	1.708725	0.844866	1.553007
C152	C	1.958725	1.094866	1.803007
C153	C	1.223292	0.330323	0.958802
C154	C	1.473292	0.580323	1.208802
C155	C	1.723292	0.830323	1.458802
C156	C	1.973292	1.080323	1.708802
C157	C	1.178984	0.374604	0.911668
C158	C	1.428984	0.624604	1.161668
C159	C	1.678984	0.874604	1.411668
C160	C	1.928984	1.124604	1.661668
C161	C	1.120108	0.433431	0.958748
C162	C	1.370108	0.683431	1.208748
C163	C	1.620108	0.933431	1.458748
C164	C	1.870108	1.183431	1.708748
C165	C	1.105544	0.447980	1.052962
C166	C	1.355544	0.697980	1.302962
C167	C	1.605544	0.947980	1.552962
C168	C	1.855544	1.197980	1.802962
C169	C	1.075804	0.477718	0.911622
C170	C	1.325804	0.727718	1.161622
C171	C	1.575804	0.977718	1.411622
C172	C	1.825804	1.227718	1.661622
C173	C	1.016927	0.536546	0.958702
C174	C	1.266927	0.786546	1.208702
C175	C	1.516927	1.036546	1.458702
C176	C	1.766927	1.286546	1.708702
C177	C	1.002366	0.551092	1.052907
C178	C	1.252366	0.801092	1.302907
C179	C	1.502366	1.051092	1.552907
C180	C	1.752366	1.301092	1.802907
C181	C	1.046673	0.506811	1.100042
C182	C	1.296673	0.756811	1.350042
C183	C	1.546673	1.006811	1.600042
C184	C	1.796673	1.256811	1.850042
C185	C	1.090367	0.463169	0.817408
C186	C	1.340367	0.713169	1.067408
C187	C	1.590367	0.963169	1.317408
C188	C	1.840367	1.213169	1.567408
C189	C	0.987187	0.566284	0.817363
C190	C	1.237187	0.816284	1.067363
C191	C	1.487187	1.066284	1.317363
C192	C	1.737187	1.316284	1.567363
C193	C	0.972620	0.580827	0.911568
C194	C	1.222620	0.830827	1.161568
C195	C	1.472620	1.080827	1.411568
C196	C	1.722620	1.330827	1.661568
H197	H	1.138304	0.415271	0.779085
H198	H	1.388304	0.665271	1.029085
H199	H	1.638304	0.915271	1.279085
H200	H	1.888304	1.165271	1.529085
Br201	Br	0.927058	0.626391	0.753403
Br202	Br	1.177058	0.876391	1.003403
Br203	Br	1.427058	1.126391	1.253403
Br204	Br	1.677058	1.376391	1.503403
Br205	Br	0.892718	0.660661	0.975472
Br206	Br	1.142718	0.910661	1.225472
Br207	Br	1.392718	1.160661	1.475472
Br208	Br	1.642718	1.410661	1.725472
H209	H	1.190848	0.362759	0.834961
H210	H	1.440848	0.612759	1.084961
H211	H	1.690848	0.862759	1.334961
H212	H	1.940848	1.112759	1.584961
H213	H	1.271231	0.282427	0.920476
H214	H	1.521231	0.532427	1.170476
H215	H	1.771231	0.782427	1.420476
H216	H	2.021231	1.032427	1.670476
H217	H	1.244799	0.308823	1.091393
H218	H	1.494799	0.558823	1.341393
H219	H	1.744799	0.808823	1.591393
H220	H	1.994799	1.058823	1.841393
H221	H	1.034817	0.518649	1.176752
H222	H	1.284817	0.768649	1.426752
H223	H	1.534817	1.018649	1.676752
H224	H	1.784817	1.268649	1.926752
Br225	Br	0.922479	0.630946	1.116800
Br226	Br	1.172479	0.880946	1.366800
Br227	Br	1.422479	1.130946	1.616800
Br228	Br	1.672479	1.380946	1.866800
