data_functionalizedCrystal
_audit_creation_method	'MofGen! by Chris Wilmer'
_symmetry_space_group_name_H-M	'P1'
_symmetry_Int_Tables_number	1
_symmetry_cell_setting	triclinic
loop_
_symmetry_equiv_pos_as_xyz
  x,y,z
_cell_length_a	29.019771
_cell_length_b	29.019011
_cell_length_c	29.015668
_cell_angle_alpha	60.004890
_cell_angle_beta	60.009825
_cell_angle_gamma	59.993818
loop_
_atom_site_label
_atom_site_type_symbol
_atom_site_fract_x
_atom_site_fract_y
_atom_site_fract_z
O1	O	0.063866	-0.673289	0.563007
O2	O	0.563866	-0.173289	1.063007
O3	O	0.024059	-0.524205	0.453633
O4	O	0.524059	-0.024205	0.953633
O5	O	0.118464	-0.618532	0.453552
O6	O	0.618464	-0.118532	0.953552
O7	O	-0.030540	-0.578962	0.563088
O8	O	0.469460	-0.078962	1.063088
O9	O	0.149785	-0.587215	0.484789
O10	O	0.649785	-0.087215	0.984789
O11	O	0.055379	-0.492888	0.484869
O12	O	0.555379	0.007112	0.984869
O13	O	0.095186	-0.641972	0.594244
O14	O	0.595186	-0.141972	1.094244
Cu15	Cu	0.078143	-0.564571	0.542409
Cu16	Cu	0.578143	-0.064571	1.042409
Cu17	Cu	0.041102	-0.601606	0.505468
Cu18	Cu	0.541102	-0.101606	1.005468
O19	O	0.000781	-0.547645	0.594325
O20	O	0.500781	-0.047645	1.094325
N21	N	0.104196	-0.538525	0.568394
N22	N	0.604196	-0.038525	1.068394
N23	N	0.015054	-0.627656	0.479483
N24	N	0.515054	-0.127656	0.979483
C25	C	0.143783	-0.499167	0.850823
C26	C	0.643783	0.000833	1.350823
C27	C	0.386758	-0.499111	0.607645
C28	C	0.886758	0.000889	1.107645
C29	C	0.143618	-0.499136	0.607763
C30	C	0.643618	0.000864	1.107763
C31	C	0.143598	-0.256029	0.607770
C32	C	0.643598	0.243971	1.107770
C33	C	0.182748	-0.373362	0.646852
C34	C	0.682748	0.126638	1.146852
C35	C	0.182758	-0.460025	0.646847
C36	C	0.682758	0.039975	1.146847
C37	C	0.204440	-0.438361	0.668500
C38	C	0.704440	0.061639	1.168500
C39	C	0.298958	-0.422064	0.618723
C40	C	0.798958	0.077936	1.118723
C41	C	0.358043	-0.441753	0.599006
C42	C	0.858043	0.058247	1.099006
C43	C	0.358069	-0.537354	0.635461
C44	C	0.858069	-0.037354	1.135461
C45	C	0.298985	-0.517664	0.655180
C46	C	0.798985	-0.017664	1.155180
C47	C	0.196983	-0.343808	0.588767
C48	C	0.696983	0.156192	1.088767
C49	C	0.177262	-0.284720	0.569090
C50	C	0.677262	0.215280	1.069090
C51	C	0.129075	-0.284743	0.665586
C52	C	0.629075	0.215257	1.165586
C53	C	0.148797	-0.343831	0.685263
C54	C	0.648797	0.156169	1.185263
C55	C	0.124666	-0.445760	0.661149
C56	C	0.624666	0.054240	1.161149
C57	C	0.104961	-0.465454	0.641458
C58	C	0.604961	0.034546	1.141458
C59	C	0.201435	-0.513678	0.593176
C60	C	0.701435	-0.013678	1.093176
C61	C	0.221143	-0.493984	0.612860
C62	C	0.721143	0.006016	1.112860
C63	C	0.124738	-0.445777	0.763064
C64	C	0.624738	0.054223	1.263064
C65	C	0.105085	-0.465488	0.822151
C66	C	0.605085	0.034512	1.322151
C67	C	0.201594	-0.513722	0.822097
C68	C	0.701594	-0.013722	1.322097
C69	C	0.221247	-0.494012	0.763009
C70	C	0.721247	0.005988	1.263009
C71	C	0.182817	-0.460038	0.733494
C72	C	0.682817	0.039962	1.233494
C73	C	0.269432	-0.460018	0.646809
C74	C	0.769432	0.039982	1.146809
C75	C	0.121399	-0.520450	0.915812
C76	C	0.621399	-0.020450	1.415812
C77	C	0.451745	-0.520012	0.585655
C78	C	0.951745	-0.020012	1.085655
C79	C	0.121177	-0.520429	0.586502
C80	C	0.621177	-0.020429	1.086502
C81	C	0.121544	-0.191035	0.586883
C82	C	0.621544	0.308965	1.086883
C83	C	-0.110592	-0.666601	0.440035
C84	C	0.389408	-0.166601	0.940035
C85	C	-0.023978	-0.666709	0.440231
C86	C	0.476022	-0.166709	0.940231
C87	C	-0.045598	-0.688342	0.418486
C88	C	0.454402	-0.188342	0.918486
C89	C	-0.061967	-0.782825	0.468184
C90	C	0.438033	-0.282825	0.968184
C91	C	-0.042323	-0.841914	0.487907
C92	C	0.457677	-0.341914	0.987907
C93	C	0.053280	-0.842025	0.451623
C94	C	0.553280	-0.342025	0.951623
C95	C	0.033634	-0.782937	0.431899
C96	C	0.533634	-0.282937	0.931899
C97	C	-0.140218	-0.680832	0.498102
C98	C	0.359782	-0.180832	0.998102
C99	C	-0.199302	-0.661065	0.517690
C100	C	0.300698	-0.161065	1.017690
C101	C	-0.199129	-0.612843	0.421140
C102	C	0.300871	-0.112843	0.921140
C103	C	-0.140045	-0.632610	0.401552
C104	C	0.359955	-0.132610	0.901552
C105	C	-0.038209	-0.608622	0.425941
C106	C	0.461791	-0.108622	0.925941
C107	C	-0.018555	-0.588961	0.445716
C108	C	0.481445	-0.088961	0.945716
C109	C	0.029562	-0.685470	0.494059
C110	C	0.529562	-0.185470	0.994059
C111	C	0.009908	-0.705133	0.474291
C112	C	0.509908	-0.205133	0.974291
C113	C	-0.038037	-0.608631	0.323917
C114	C	0.461963	-0.108631	0.823917
C115	C	-0.018247	-0.588973	0.264830
C116	C	0.481753	-0.088973	0.764830
C117	C	0.029955	-0.685489	0.264893
C118	C	0.529955	-0.185489	0.764893
C119	C	0.010165	-0.705145	0.323981
C120	C	0.510165	-0.205145	0.823981
C121	C	-0.023833	-0.666715	0.353492
C122	C	0.476167	-0.166715	0.853492
C123	C	-0.023990	-0.753339	0.440182
C124	C	0.476010	-0.253339	0.940182
N125	N	0.504925	-0.538487	0.568205
N126	N	1.004925	-0.038487	1.068205
O127	O	0.685342	-0.543679	0.433426
O128	O	1.185342	-0.043679	0.933426
O129	O	0.685533	-0.653395	0.582361
O130	O	1.185533	-0.153395	1.082361
O131	O	0.685457	-0.653145	0.487904
O132	O	1.185457	-0.153145	0.987904
O133	O	0.685418	-0.543929	0.527882
O134	O	1.185418	-0.043929	1.027882
O135	O	0.591592	-0.621921	0.519268
O136	O	1.091592	-0.121921	1.019268
O137	O	0.591667	-0.622171	0.613725
O138	O	1.091667	-0.122171	1.113725
O139	O	0.591477	-0.512455	0.464790
O140	O	1.091477	-0.012455	0.964790
Cu141	Cu	0.583001	-0.564462	0.542121
Cu142	Cu	1.083001	-0.064462	1.042121
Cu143	Cu	0.694008	-0.601388	0.505029
Cu144	Cu	1.194008	-0.101388	1.005029
O145	O	0.591553	-0.512705	0.559246
O146	O	1.091553	-0.012705	1.059246
N147	N	0.772084	-0.627363	0.478939
N148	N	1.272084	-0.127363	0.978939
N149	N	0.104168	-0.137853	0.568408
N150	N	0.604168	0.362147	1.068408
O151	O	-0.030538	0.042663	0.563097
O152	O	0.469462	0.542663	1.063097
O153	O	0.118403	0.042683	0.453379
O154	O	0.618403	0.542683	0.953379
O155	O	0.023918	0.042657	0.453664
O156	O	0.523918	0.542657	0.953664
O157	O	0.063947	0.042689	0.562813
O158	O	0.563947	0.542689	1.062813
O159	O	0.055242	-0.051215	0.484950
O160	O	0.555242	0.448785	0.984950
O161	O	0.149727	-0.051189	0.484666
O162	O	0.649727	0.448811	0.984666
O163	O	0.000787	-0.051210	0.594384
O164	O	0.500787	0.448790	1.094384
Cu165	Cu	0.078117	-0.059771	0.542381
Cu166	Cu	0.578117	0.440229	1.042381
Cu167	Cu	0.041072	0.051244	0.505382
Cu168	Cu	0.541072	0.551244	1.005382
O169	O	0.095272	-0.051184	0.594099
O170	O	0.595272	0.448816	1.094099
N171	N	0.015015	0.129326	0.479356
N172	N	0.515015	0.629326	0.979356
N173	N	0.104469	-0.538576	0.968995
N174	N	0.604469	-0.038576	1.468995
O175	O	0.099171	-0.673268	1.149499
O176	O	0.599171	-0.173268	1.649499
O177	O	-0.010519	-0.524279	1.149527
O178	O	0.489481	-0.024279	1.649527
O179	O	-0.010265	-0.618748	1.149494
O180	O	0.489735	-0.118748	1.649494
O181	O	0.098916	-0.578799	1.149533
O182	O	0.598916	-0.078799	1.649533
O183	O	0.021008	-0.587443	1.055625
O184	O	0.521008	-0.087443	1.555625
O185	O	0.020753	-0.492974	1.055659
O186	O	0.520753	0.007026	1.555659
O187	O	0.130444	-0.641963	1.055630
O188	O	0.630444	-0.141963	1.555630
Cu189	Cu	0.078454	-0.564610	1.047074
Cu190	Cu	0.578454	-0.064610	1.547074
Cu191	Cu	0.041470	-0.601632	1.158084
Cu192	Cu	0.541470	-0.101632	1.658084
O193	O	0.130189	-0.547494	1.055664
O194	O	0.630189	-0.047494	1.555664
N195	N	0.015455	-0.627672	1.236163
N196	N	0.515455	-0.127672	1.736163
C197	C	0.035988	-0.489761	0.454182
C198	C	0.535988	0.010239	0.954182
C199	C	0.152897	-0.606574	0.454082
C200	C	0.652897	-0.106574	0.954082
C201	C	0.083257	-0.676417	0.593694
C202	C	0.583257	-0.176417	1.093694
C203	C	-0.033653	-0.559604	0.593794
C204	C	0.466347	-0.059604	1.093794
C205	C	0.638623	-0.652892	0.616806
C206	C	1.138623	-0.152892	1.116806
C207	C	0.638531	-0.652583	0.499833
C208	C	1.138531	-0.152583	0.999833
C209	C	0.638384	-0.512957	0.430345
C210	C	1.138384	-0.012957	0.930345
C211	C	0.638480	-0.513267	0.547317
C212	C	1.138480	-0.013267	1.047317
C213	C	0.152789	-0.004135	0.453875
C214	C	0.652789	0.495865	0.953875
C215	C	0.035820	-0.004282	0.454266
C216	C	0.535820	0.495718	0.954266
C217	C	-0.033639	-0.004275	0.593849
C218	C	0.466361	0.495725	1.093849
C219	C	0.083370	-0.004245	0.593498
C220	C	0.583370	0.495755	1.093498
C221	C	-0.009989	-0.489856	1.102597
C222	C	0.490011	0.010144	1.602597
C223	C	-0.009667	-0.606839	1.102536
C224	C	0.490333	-0.106839	1.602536
C225	C	0.129914	-0.676386	1.102561
C226	C	0.629914	-0.176386	1.602561
C227	C	0.129599	-0.559396	1.102601
C228	C	0.629599	-0.059396	1.602601
H229	H	0.093440	-0.418108	0.739036
H230	H	0.593440	0.081892	1.239036
C231	C	0.175940	-0.547854	1.102607
C232	C	0.675940	-0.047854	1.602607
C233	C	0.233835	-0.594197	1.102599
C234	C	0.733835	-0.094197	1.602599
C235	C	0.280177	-0.582655	1.102606
C236	C	0.780177	-0.082655	1.602606
C237	C	0.268623	-0.524769	1.102620
C238	C	0.768623	-0.024769	1.602620
C239	C	0.210726	-0.478421	1.102628
C240	C	0.710726	0.021579	1.602628
C241	C	0.164384	-0.489964	1.102621
C242	C	0.664384	0.010036	1.602621
H243	H	0.242390	-0.637052	1.102589
H244	H	0.742390	-0.137052	1.602589
H245	H	0.323037	-0.616965	1.102600
H246	H	0.823037	-0.116965	1.602600
H247	H	0.302928	-0.516224	1.102625
H248	H	0.802928	-0.016224	1.602625
H249	H	0.202171	-0.435567	1.102638
H250	H	0.702171	0.064433	1.602638
H251	H	0.121524	-0.455654	1.102627
H252	H	0.621524	0.044346	1.602627
H253	H	0.638471	-0.478960	0.555871
H254	H	1.138471	0.021040	1.055871
H255	H	-0.076413	-0.004282	0.628294
H256	H	0.423587	0.495718	1.128294
H257	H	0.091941	-0.004235	0.627787
H258	H	0.591941	0.495765	1.127787
H259	H	-0.044426	-0.447066	1.102605
H260	H	0.455574	0.052934	1.602605
C261	C	-0.091467	-0.548216	0.640265
C262	C	0.408533	-0.048216	1.140265
C263	C	-0.127858	-0.584853	0.664583
C264	C	0.372142	-0.084853	1.164583
C265	C	-0.185672	-0.573466	0.711053
C266	C	0.314328	-0.073466	1.211053
C267	C	-0.207096	-0.525442	0.733206
C268	C	0.292904	-0.025442	1.233206
C269	C	-0.170706	-0.488801	0.708888
C270	C	0.329294	0.011199	1.208888
C271	C	-0.112891	-0.500189	0.662417
C272	C	0.387109	-0.000189	1.162417
H273	H	-0.111999	-0.620407	0.648184
H274	H	0.388001	-0.120407	1.148184
H275	H	-0.212611	-0.600590	0.729055
H276	H	0.287389	-0.100590	1.229055
H277	H	-0.249894	-0.517012	0.767606
H278	H	0.250106	-0.017012	1.267606
H279	H	-0.186565	-0.453248	0.725286
H280	H	0.313435	0.046752	1.225286
H281	H	-0.085952	-0.473065	0.644415
H282	H	0.414048	0.026935	1.144415
C283	C	0.210453	-0.003771	0.407221
C284	C	0.710453	0.496229	0.907221
C285	C	0.264606	-0.052328	0.417211
C286	C	0.764606	0.447672	0.917211
C287	C	0.322269	-0.051965	0.370557
C288	C	0.822269	0.448035	0.870557
C289	C	0.325779	-0.003044	0.313913
C290	C	0.825779	0.496956	0.813913
C291	C	0.271624	0.045517	0.303921
C292	C	0.771624	0.545517	0.803921
C293	C	0.213961	0.045153	0.350575
C294	C	0.713961	0.545153	0.850575
H295	H	0.262009	-0.088546	0.459144
H296	H	0.762009	0.411454	0.959144
H297	H	0.362358	-0.087913	0.377954
H298	H	0.862358	0.412087	0.877954
H299	H	0.368465	-0.002775	0.279377
H300	H	0.868465	0.497225	0.779377
H301	H	0.274221	0.081735	0.261987
H302	H	0.774221	0.581735	0.761987
H303	H	0.173872	0.081102	0.343177
H304	H	0.673872	0.581102	0.843177
C305	C	0.210711	-0.617962	0.407610
C306	C	0.710711	-0.117962	0.907610
C307	C	0.257179	-0.675794	0.418981
C308	C	0.757179	-0.175794	0.918981
C309	C	0.314992	-0.687183	0.372509
C310	C	0.814992	-0.187183	0.872509
C311	C	0.326337	-0.640739	0.314667
C312	C	0.826337	-0.140739	0.814667
C313	C	0.279867	-0.582904	0.303293
C314	C	0.779867	-0.082904	0.803293
C315	C	0.222054	-0.571515	0.349765
C316	C	0.722054	-0.071515	0.849765
H317	H	0.248782	-0.710177	0.461802
H318	H	0.748782	-0.210177	0.961802
H319	H	0.349392	-0.729997	0.380929
H320	H	0.849392	-0.229997	0.880929
H321	H	0.369134	-0.649170	0.280265
H322	H	0.869134	-0.149170	0.780265
H323	H	0.288264	-0.548520	0.260472
H324	H	0.788264	-0.048520	0.760472
H325	H	0.187654	-0.528701	0.341345
H326	H	0.687654	-0.028701	0.841345
C327	C	0.041193	-0.449788	0.854672
C328	C	0.541193	0.050212	1.354672
C329	C	-0.001074	-0.412414	0.822203
C330	C	0.498926	0.087586	1.322203
C331	C	-0.064965	-0.396715	0.854726
C332	C	0.435035	0.103285	1.354726
C333	C	-0.086588	-0.418389	0.919718
C334	C	0.413412	0.081611	1.419718
C335	C	-0.044321	-0.455765	0.952190
C336	C	0.455679	0.044235	1.452190
C337	C	0.019570	-0.471464	0.919668
C338	C	0.519570	0.028536	1.419668
H339	H	0.014933	-0.396368	0.774089
H340	H	0.514933	0.103632	1.274089
H341	H	-0.096254	-0.369047	0.830687
H342	H	0.403746	0.130953	1.330687
H343	H	-0.133884	-0.406767	0.943793
H344	H	0.366116	0.093233	1.443793
H345	H	-0.060327	-0.471811	1.000305
H346	H	0.439673	0.028189	1.500305
H347	H	0.050859	-0.499132	0.943707
H348	H	0.550859	0.000868	1.443707
H349	H	-0.043953	-0.615372	1.102487
H350	H	0.456047	-0.115372	1.602487
H351	H	0.638322	-0.478510	0.387573
H352	H	1.138322	0.021490	0.887573
C353	C	0.176440	-0.734190	1.102550
C354	C	0.676440	-0.234190	1.602550
C355	C	0.165167	-0.780702	1.102531
C356	C	0.665167	-0.280702	1.602531
C357	C	0.211693	-0.838507	1.102520
C358	C	0.711693	-0.338507	1.602520
C359	C	0.269492	-0.849799	1.102529
C360	C	0.769492	-0.349799	1.602529
C361	C	0.280768	-0.803286	1.102548
C362	C	0.780768	-0.303286	1.602548
C363	C	0.234242	-0.745481	1.102559
C364	C	0.734242	-0.245481	1.602559
H365	H	0.122378	-0.772344	1.102524
H366	H	0.622378	-0.272344	1.602524
H367	H	0.203346	-0.872939	1.102506
H368	H	0.703346	-0.372939	1.602506
H369	H	0.303934	-0.892589	1.102521
H370	H	0.803934	-0.392589	1.602521
H371	H	0.323557	-0.811644	1.102555
H372	H	0.823557	-0.311644	1.602555
H373	H	0.242589	-0.711049	1.102574
H374	H	0.742589	-0.211049	1.602574
H375	H	0.027247	-0.004286	0.419974
H376	H	0.527247	0.495714	0.919974
H377	H	0.638547	-0.686893	0.491276
H378	H	1.138547	-0.186893	0.991276
C379	C	-0.034211	-0.525063	0.430000
C380	C	0.465789	-0.025063	0.930000
C381	C	-0.067165	-0.498223	0.476690
C382	C	0.432835	0.001777	0.976690
C383	C	-0.082823	-0.434326	0.460975
C384	C	0.417177	0.065674	0.960975
C385	C	-0.065527	-0.397270	0.398571
C386	C	0.434473	0.102730	0.898571
C387	C	-0.032571	-0.424110	0.351877
C388	C	0.467429	0.075890	0.851877
C389	C	-0.016913	-0.488007	0.367591
C390	C	0.483087	0.011993	0.867591
H391	H	-0.079970	-0.525654	0.522889
H392	H	0.420030	-0.025654	1.022889
H393	H	-0.107219	-0.414457	0.495542
H394	H	0.392781	0.085543	0.995542
H395	H	-0.077119	-0.349969	0.386938
H396	H	0.422881	0.150031	0.886938
H397	H	-0.019767	-0.396678	0.305677
H398	H	0.480233	0.103322	0.805677
H399	H	0.007483	-0.507875	0.333025
H400	H	0.507483	-0.007875	0.833025
C401	C	0.094739	-0.734271	0.640104
C402	C	0.594739	-0.234271	1.140104
C403	C	0.152596	-0.780680	0.628642
C404	C	0.652596	-0.280680	1.128642
C405	C	0.164078	-0.838534	0.675052
C406	C	0.664078	-0.338534	1.175052
C407	C	0.117703	-0.849979	0.732924
C408	C	0.617703	-0.349979	1.232924
C409	C	0.059842	-0.803568	0.744388
C410	C	0.559842	-0.303568	1.244388
C411	C	0.048360	-0.745714	0.697978
C412	C	0.548360	-0.245714	1.197978
H413	H	0.186929	-0.772210	0.585800
H414	H	0.686929	-0.272210	1.085800
H415	H	0.206911	-0.872891	0.666565
H416	H	0.706911	-0.372891	1.166565
H417	H	0.126203	-0.892806	0.767279
H418	H	0.626203	-0.392806	1.267279
H419	H	0.025509	-0.812039	0.787230
H420	H	0.525509	-0.312039	1.287230
H421	H	0.005527	-0.711358	0.706464
H422	H	0.505527	-0.211358	1.206464
H423	H	0.638671	-0.687334	0.659583
H424	H	1.138671	-0.187334	1.159583
H425	H	0.232890	-0.541375	0.846122
H426	H	0.732890	-0.041375	1.346122
H427	H	0.093408	-0.418110	0.688821
H428	H	0.593408	0.081890	1.188821
C429	C	0.285138	-0.509702	0.730482
C430	C	0.785138	-0.009702	1.230482
C431	C	0.311917	-0.462986	0.689856
C432	C	0.811917	0.037014	1.189856
C433	C	0.375808	-0.478675	0.657331
C434	C	0.875808	0.021325	1.157331
C435	C	0.412918	-0.541081	0.665432
C436	C	0.912918	-0.041081	1.165432
C437	C	0.386139	-0.587801	0.706060
C438	C	0.886139	-0.087801	1.206060
C439	C	0.322249	-0.572111	0.738585
C440	C	0.822249	-0.072111	1.238585
H441	H	0.284445	-0.416786	0.683858
H442	H	0.784445	0.083214	1.183858
H443	H	0.395631	-0.444090	0.627255
H444	H	0.895631	0.055910	1.127255
H445	H	0.460214	-0.552695	0.641354
H446	H	0.960214	-0.052695	1.141354
H447	H	0.413611	-0.634001	0.712058
H448	H	0.913611	-0.134001	1.212058
H449	H	0.302426	-0.606697	0.768661
H450	H	0.802426	-0.106697	1.268661
H451	H	0.057658	-0.453826	0.653091
H452	H	0.557658	0.046174	1.153091
H453	H	-0.223425	-0.672650	0.564976
H454	H	0.276575	-0.172650	1.064976
H455	H	0.027485	-0.446933	0.419832
H456	H	0.527485	0.053067	0.919832
H457	H	0.268446	-0.505593	0.601208
H458	H	0.768446	-0.005593	1.101208
C459	C	0.243660	-0.551030	0.555791
C460	C	0.743660	-0.051030	1.055791
C461	C	0.307558	-0.566716	0.540062
C462	C	0.807558	-0.066716	1.040062
C463	C	0.349785	-0.604066	0.502672
C464	C	0.849785	-0.104066	1.002672
C465	C	0.328114	-0.625729	0.481010
C466	C	0.828114	-0.125729	0.981010
C467	C	0.264213	-0.610043	0.496738
C468	C	0.764213	-0.110043	0.996738
C469	C	0.221986	-0.572693	0.534128
C470	C	0.721986	-0.072693	1.034128
H471	H	0.323603	-0.550680	0.556098
H472	H	0.823603	-0.050680	1.056098
H473	H	0.397089	-0.615677	0.491029
H474	H	0.897089	-0.115677	0.991029
H475	H	0.359373	-0.653377	0.453331
H476	H	0.859373	-0.153377	0.953331
H477	H	0.248168	-0.626079	0.480702
H478	H	0.748168	-0.126079	0.980702
H479	H	0.174682	-0.561082	0.545771
H480	H	0.674682	-0.061082	1.045771
H481	H	0.382132	-0.584293	0.642268
H482	H	0.882132	-0.084293	1.142268
C483	C	0.266505	-0.559416	0.686075
C484	C	0.766505	-0.059416	1.186075
C485	C	0.299014	-0.622824	0.695278
C486	C	0.799014	-0.122824	1.195278
C487	C	0.266534	-0.664576	0.726175
C488	C	0.766534	-0.164576	1.226175
C489	C	0.201544	-0.642921	0.747869
C490	C	0.701544	-0.142921	1.247869
C491	C	0.169031	-0.579510	0.738667
C492	C	0.669031	-0.079510	1.238667
C493	C	0.201511	-0.537758	0.707770
C494	C	0.701511	-0.037758	1.207770
H495	H	0.347127	-0.638857	0.679218
H496	H	0.847127	-0.138857	1.179218
H497	H	0.290603	-0.711517	0.732987
H498	H	0.790603	-0.211517	1.232987
H499	H	0.177500	-0.673829	0.770741
H500	H	0.677500	-0.173829	1.270741
H501	H	0.120918	-0.563477	0.754727
H502	H	0.620918	-0.063477	1.254727
H503	H	0.177442	-0.490817	0.700958
H504	H	0.677442	0.009183	1.200958
H505	H	0.382082	-0.410845	0.576135
H506	H	0.882082	0.089155	1.076135
H507	H	0.224626	-0.367851	0.557490
H508	H	0.724626	0.132149	1.057490
C509	C	0.266452	-0.358653	0.609516
C510	C	0.766452	0.141347	1.109516
C511	C	0.274538	-0.315687	0.549225
C512	C	0.774538	0.184313	1.049225
C513	C	0.242029	-0.252276	0.540017
C514	C	0.742029	0.247724	1.040017
C515	C	0.201435	-0.231830	0.591100
C516	C	0.701435	0.268170	1.091100
C517	C	0.193346	-0.274797	0.651395
C518	C	0.693346	0.225203	1.151395
C519	C	0.225855	-0.338208	0.660603
C520	C	0.725855	0.161792	1.160603
H521	H	0.304590	-0.330822	0.511406
H522	H	0.804590	0.169178	1.011406
H523	H	0.248017	-0.220469	0.495382
H524	H	0.748017	0.279531	0.995382
H525	H	0.177370	-0.184889	0.584284
H526	H	0.677370	0.315111	1.084284
H527	H	0.163294	-0.259662	0.689214
H528	H	0.663294	0.240338	1.189214
H529	H	0.219867	-0.370015	0.705238
H530	H	0.719867	0.129985	1.205238
H531	H	0.101438	-0.260698	0.696864
H532	H	0.601438	0.239302	1.196864
C533	C	0.192919	-0.252206	0.505192
C534	C	0.692919	0.247794	1.005192
C535	C	0.230268	-0.284688	0.462941
C536	C	0.730268	0.215312	0.962941
C537	C	0.245928	-0.252176	0.399045
C538	C	0.745928	0.247824	0.899045
C539	C	0.224240	-0.187181	0.377399
C540	C	0.724240	0.312819	0.877399
C541	C	0.186889	-0.154695	0.419651
C542	C	0.686889	0.345305	0.919651
C543	C	0.171228	-0.187208	0.483547
C544	C	0.671228	0.312792	0.983547
H545	H	0.246326	-0.332805	0.478964
H546	H	0.746326	0.167195	0.978964
H547	H	0.273578	-0.276224	0.367767
H548	H	0.773578	0.223776	0.867767
H549	H	0.235832	-0.163113	0.330099
H550	H	0.735832	0.336887	0.830099
H551	H	0.170831	-0.106578	0.403628
H552	H	0.670831	0.393422	0.903628
H553	H	0.143579	-0.163159	0.514825
H554	H	0.643579	0.336841	1.014825
H555	H	0.137197	-0.367895	0.732563
H556	H	0.637197	0.132105	1.232563
H557	H	-0.065723	-0.577332	0.347941
H558	H	0.434277	-0.077332	0.847941
C559	C	-0.033884	-0.525076	0.232305
C560	C	0.466116	-0.025076	0.732305
C561	C	-0.016719	-0.488010	0.240495
C562	C	0.483281	0.011990	0.740495
C563	C	-0.032356	-0.424113	0.207969
C564	C	0.467644	0.075887	0.707969
C565	C	-0.065159	-0.397283	0.167253
C566	C	0.434841	0.102717	0.667253
C567	C	-0.082326	-0.434349	0.159060
C568	C	0.417674	0.065651	0.659060
C569	C	-0.066689	-0.498246	0.191587
C570	C	0.433311	0.001754	0.691587
H571	H	0.007565	-0.507871	0.270638
H572	H	0.507565	-0.007871	0.770638
H573	H	-0.019648	-0.396675	0.214034
H574	H	0.480352	0.103325	0.714034
H575	H	-0.076734	-0.349983	0.143175
H576	H	0.423266	0.150017	0.643175
H577	H	-0.106610	-0.414488	0.128918
H578	H	0.393390	0.085512	0.628918
H579	H	-0.079397	-0.525684	0.185522
H580	H	0.420603	-0.025684	0.685522
H581	H	0.057627	-0.716785	0.240872
H582	H	0.557627	-0.216785	0.740872
H583	H	0.021738	-0.752445	0.348058
H584	H	0.521738	-0.252445	0.848058
H585	H	-0.065797	-0.577331	0.398207
H586	H	0.434203	-0.077331	0.898207
H587	H	0.021495	-0.752433	0.485928
H588	H	0.521495	-0.252433	0.985928
C589	C	0.066853	-0.727747	0.531504
C590	C	0.566853	-0.227747	1.031504
C591	C	0.126830	-0.727551	0.511981
C592	C	0.626830	-0.227551	1.011981
C593	C	0.164128	-0.769833	0.549421
C594	C	0.664128	-0.269833	1.049421
C595	C	0.141447	-0.812311	0.606385
C596	C	0.641447	-0.312311	1.106385
C597	C	0.081467	-0.812509	0.625911
C598	C	0.581467	-0.312509	1.125911
C599	C	0.044169	-0.770227	0.588471
C600	C	0.544169	-0.270227	1.088471
H601	H	0.143623	-0.696104	0.469810
H602	H	0.643623	-0.196104	0.969810
H603	H	0.208529	-0.769686	0.534966
H604	H	0.708529	-0.269686	1.034966
H605	H	0.169057	-0.843611	0.634100
H606	H	0.669057	-0.343611	1.134100
H607	H	0.064674	-0.843955	0.668081
H608	H	0.564674	-0.343955	1.168081
H609	H	-0.000232	-0.770373	0.602925
H610	H	0.499768	-0.270373	1.102925
H611	H	0.064563	-0.758931	0.409098
H612	H	0.564563	-0.258931	0.909098
H613	H	-0.073247	-0.865920	0.510699
H614	H	0.426753	-0.365920	1.010699
C615	C	0.116668	-0.874590	0.442518
C616	C	0.616668	-0.374590	0.942518
C617	C	0.137018	-0.915219	0.493662
C618	C	0.637018	-0.415219	0.993662
C619	C	0.200404	-0.947783	0.484556
C620	C	0.700404	-0.447783	0.984556
C621	C	0.243441	-0.939719	0.424304
C622	C	0.743441	-0.439719	0.924304
C623	C	0.223092	-0.899088	0.373155
C624	C	0.723092	-0.399088	0.873155
C625	C	0.159705	-0.866523	0.382262
C626	C	0.659705	-0.366523	0.882262
H627	H	0.105158	-0.921190	0.538268
H628	H	0.605158	-0.421190	1.038268
H629	H	0.215467	-0.977861	0.522420
H630	H	0.715467	-0.477861	1.022420
H631	H	0.290363	-0.963825	0.417563
H632	H	0.790363	-0.463825	0.917563
H633	H	0.254951	-0.893116	0.328550
H634	H	0.754951	-0.393116	0.828550
H635	H	0.144642	-0.836445	0.344398
H636	H	0.644642	-0.336445	0.844398
H637	H	-0.108889	-0.758731	0.474933
H638	H	0.391111	-0.258731	0.974933
H639	H	-0.223112	-0.585171	0.389803
H640	H	0.276888	-0.085171	0.889803
C641	C	-0.107817	-0.718219	0.540431
C642	C	0.392183	-0.218219	1.040431
C643	C	-0.140407	-0.733863	0.604306
C644	C	0.359593	-0.233863	1.104306
C645	C	-0.108007	-0.771250	0.646637
C646	C	0.391993	-0.271250	1.146637
C647	C	-0.043017	-0.792993	0.625093
C648	C	0.456983	-0.292993	1.125093
C649	C	-0.010424	-0.777349	0.561215
C650	C	0.489576	-0.277349	1.061215
C651	C	-0.042824	-0.739962	0.518884
C652	C	0.457176	-0.239962	1.018884
H653	H	-0.188520	-0.717767	0.620257
H654	H	0.311480	-0.217767	1.120257
H655	H	-0.132135	-0.782830	0.693924
H656	H	0.367865	-0.282830	1.193924
H657	H	-0.019033	-0.820669	0.656429
H658	H	0.480967	-0.320669	1.156429
H659	H	0.037689	-0.793445	0.545264
H660	H	0.537689	-0.293445	1.045264
H661	H	-0.018695	-0.728382	0.471597
H662	H	0.481305	-0.228382	0.971597
H663	H	-0.115923	-0.621016	0.354266
H664	H	0.384077	-0.121016	0.854266
