data_functionalizedCrystal
_audit_creation_method	'MofGen! by Chris Wilmer'
_symmetry_space_group_name_H-M	'P1'
_symmetry_Int_Tables_number	1
_symmetry_cell_setting	triclinic
loop_
_symmetry_equiv_pos_as_xyz
  x,y,z
_cell_length_a	16.120847
_cell_length_b	15.297475
_cell_length_c	15.296720
_cell_angle_alpha	88.382886
_cell_angle_beta	96.296261
_cell_angle_gamma	97.315702
loop_
_atom_site_label
_atom_site_type_symbol
_atom_site_fract_x
_atom_site_fract_y
_atom_site_fract_z
Zn1	Zn	0.638027	1.225522	0.686853
Zn2	Zn	0.756073	1.245626	0.533015
Zn3	Zn	0.591973	1.106412	0.517962
Zn4	Zn	0.748015	1.074204	0.654645
O5	O	0.683522	1.162941	0.598119
O6	O	0.676333	1.349777	0.686224
O7	O	0.718403	1.249052	0.409434
O8	O	0.483376	1.127277	0.547546
O9	O	0.763061	1.364548	0.573200
O10	O	0.517212	1.214787	0.671629
O11	O	0.597840	1.146772	0.398375
O12	O	0.590026	0.980551	0.516315
O13	O	0.749326	1.072384	0.780502
O14	O	0.704669	0.956888	0.616736
O15	O	0.668519	1.183556	0.804164
O16	O	0.869711	1.217822	0.541970
O17	O	0.863790	1.091879	0.631331
C18	C	0.641476	0.937193	0.561398
C19	C	0.623511	0.840613	0.545707
C20	C	0.811927	0.519233	0.710260
C21	C	0.828812	0.609976	0.724999
C22	C	0.777488	0.667639	0.680178
C23	C	0.709277	0.634552	0.620614
C24	C	0.692394	0.543801	0.605869
C25	C	0.657955	0.692207	0.575787
C26	C	0.589744	0.659120	0.516223
C27	C	0.572864	0.568377	0.501481
C28	C	0.624188	0.510714	0.546302
C29	C	0.674838	0.782958	0.590532
C30	C	0.555305	0.807525	0.486141
C31	C	0.538420	0.716783	0.471402
C32	C	0.469720	1.172382	0.611501
C33	C	0.378610	1.176405	0.617203
C34	C	0.211792	1.183766	0.627615
C35	C	0.154445	1.142258	0.568753
C36	C	0.061621	1.146354	0.574545
C37	C	0.304624	1.179671	0.621823
C38	C	0.896500	1.153557	0.584812
C39	C	0.987631	1.149617	0.579161
C40	C	0.713161	1.122135	0.824740
C41	C	0.725791	1.104746	0.921312
C42	C	0.725733	1.389570	0.634984
C43	C	0.743721	1.486146	0.650694
C44	C	0.653949	1.203641	0.372391
C45	C	0.641119	1.221208	0.275861
C46	C	0.593114	1.287262	1.242814
C47	C	0.581249	1.303605	1.152081
C48	C	0.617383	1.253892	1.094384
C49	C	0.665385	1.187832	1.127430
C50	C	0.677256	1.171492	1.218173
C51	C	0.701525	1.138122	1.069743
C52	C	0.749527	1.072063	1.102789
C53	C	0.761395	1.055725	1.193524
C54	C	0.725261	1.105438	1.251220
C55	C	0.689654	1.154462	0.979000
C56	C	0.773797	1.038692	0.954359
C57	C	0.785661	1.022349	1.045093
H58	H	0.884351	0.636909	0.773494
H59	H	0.607720	1.267202	1.020505
N60	N	0.529464	1.374830	1.116425
H61	H	0.565345	1.420404	1.083238
H62	H	0.508370	1.403777	1.166778
N63	N	0.554152	1.340882	1.305041
H64	H	0.568959	1.320507	1.367536
H65	H	0.491016	1.332804	1.290653
N66	N	0.181739	1.091122	0.496224
H67	H	0.157086	1.027252	0.500520
H68	H	0.245145	1.095479	0.502347
N69	N	0.184498	1.234923	0.700121
H70	H	0.204950	1.209615	0.759101
H71	H	0.121095	1.230623	0.693952
N72	N	0.637889	1.225709	0.943362
H73	H	0.578873	1.211963	0.960623
H74	H	0.635921	1.228485	0.877133
H75	H	0.734919	1.092135	1.325104
N76	N	0.812751	0.985050	0.892136
H77	H	0.844961	0.940723	0.926838
H78	H	0.852348	1.025510	0.857854
H79	H	0.853711	0.472278	0.746742
H80	H	0.513514	0.854476	0.449642
H81	H	0.730375	0.809888	0.639030
N82	N	0.813177	0.984487	1.229170
H83	H	0.834267	0.955471	1.178855
H84	H	0.777246	0.938972	1.262368
N85	N	0.464860	0.681094	0.407149
H86	H	0.472319	0.707505	0.346825
H87	H	0.411060	0.697019	0.427040
H88	H	0.824744	0.968563	1.072012
H89	H	0.610443	0.436823	0.534307
N90	N	0.795698	0.765509	0.696085
H91	H	0.745658	0.786946	0.719222
H92	H	0.806961	0.797371	0.639045
N93	N	0.499304	0.532688	0.437228
H94	H	0.469352	0.582984	0.411071
H95	H	0.459052	0.490328	0.468910
