data_functionalizedCrystal
_audit_creation_method	'MofGen! by Chris Wilmer'
_symmetry_space_group_name_H-M	'P1'
_symmetry_Int_Tables_number	1
_symmetry_cell_setting	triclinic
loop_
_symmetry_equiv_pos_as_xyz
  x,y,z
_cell_length_a	12.759401
_cell_length_b	12.759400
_cell_length_c	12.759393
_cell_angle_alpha	89.970627
_cell_angle_beta	89.980324
_cell_angle_gamma	90.013592
loop_
_atom_site_label
_atom_site_type_symbol
_atom_site_fract_x
_atom_site_fract_y
_atom_site_fract_z
Zn1	Zn	1.606278	-0.418204	-0.593993
Zn2	Zn	2.106278	0.081796	-0.093993
Zn3	Zn	1.606173	-0.593919	-0.418316
Zn4	Zn	2.106173	-0.093919	0.081684
Zn5	Zn	1.430576	-0.418256	-0.418332
Zn6	Zn	1.930576	0.081744	0.081668
Zn7	Zn	1.430573	-0.593842	-0.593958
Zn8	Zn	1.930573	-0.093842	-0.093958
O9	O	1.518400	-0.506055	-0.506150
O10	O	2.018400	-0.006055	-0.006150
O11	O	1.753285	-0.441523	-0.570697
O12	O	2.253285	0.058477	-0.070697
O13	O	1.582838	-0.570671	-0.271297
O14	O	2.082838	-0.070671	0.228703
O15	O	1.453928	-0.271228	-0.441655
O16	O	1.953928	0.228772	0.058345
O17	O	1.753208	-0.570620	-0.441629
O18	O	2.253208	-0.070620	0.058371
O19	O	1.583015	-0.271189	-0.570712
O20	O	2.083015	0.228811	-0.070712
O21	O	1.453827	-0.441612	-0.271309
O22	O	1.953827	0.058388	0.228691
O23	O	1.283555	-0.441538	-0.441621
O24	O	1.783555	0.058462	0.058379
O25	O	1.453923	-0.570489	-0.740983
O26	O	1.953923	-0.070489	-0.240983
O27	O	1.283552	-0.570540	-0.570652
O28	O	1.783552	-0.070540	-0.070652
O29	O	1.583012	-0.441448	-0.741009
O30	O	2.083012	0.058552	-0.241009
O31	O	1.582835	-0.740930	-0.441594
O32	O	2.082835	-0.240930	0.058406
O33	O	1.453822	-0.740874	-0.570637
O34	O	1.953822	-0.240874	-0.070637
C35	C	1.245433	-0.506037	-0.506135
C36	C	1.745433	-0.006037	-0.006135
C37	C	1.128656	-0.506055	-0.506153
C38	C	1.628656	-0.006055	-0.006153
C39	C	1.073835	-0.438955	-0.573463
C40	C	1.573835	0.061045	-0.073463
C41	C	0.964110	-0.438966	-0.573470
C42	C	1.464110	0.061034	-0.073470
C43	C	0.964039	-0.573185	-0.438855
C44	C	1.464039	-0.073185	0.061145
C45	C	1.073761	-0.573168	-0.438843
C46	C	1.573761	-0.073168	0.061157
C47	C	1.518345	-0.779023	-0.506133
C48	C	2.018345	-0.279023	-0.006133
C49	C	1.518417	-0.895799	-0.506161
C50	C	2.018417	-0.395799	-0.006161
C51	C	1.585599	-0.950561	-0.573416
C52	C	2.085599	-0.450561	-0.073416
C53	C	1.585648	-1.060285	-0.573442
C54	C	2.085648	-0.560285	-0.073442
C55	C	1.451330	-1.060475	-0.438948
C56	C	1.951330	-0.560475	0.061052
C57	C	1.451277	-0.950753	-0.438929
C58	C	1.951277	-0.450753	0.061071
C59	C	1.663150	-0.950453	-0.651062
C60	C	2.163150	-0.450453	-0.151062
C61	C	1.663199	-1.060177	-0.651088
C62	C	2.163199	-0.560177	-0.151088
C63	C	1.792433	-0.506074	-0.506165
C64	C	2.292433	-0.006074	-0.006165
C65	C	1.909210	-0.506082	-0.506172
C66	C	2.409210	-0.006082	-0.006172
C67	C	1.518479	-0.505954	-0.780183
C68	C	2.018479	-0.005954	-0.280183
C69	C	1.518512	-0.505911	-0.896960
C70	C	2.018512	-0.005911	-0.396960
C71	C	1.518484	-0.232022	-0.506189
C72	C	2.018484	0.267978	-0.006189
C73	C	1.518520	-0.115245	-0.506206
C74	C	2.018520	0.384755	-0.006206
C75	C	1.585734	-0.438709	-0.951837
C76	C	2.085734	0.061291	-0.451837
C77	C	1.585752	-0.438664	-1.061561
C78	C	2.085752	0.061336	-0.561561
C79	C	1.451323	-0.573032	-1.061521
C80	C	1.951323	-0.073032	-0.561521
C81	C	1.451301	-0.573071	-0.951799
C82	C	1.951301	-0.073071	-0.451799
C83	C	1.518382	-0.506080	-0.233182
C84	C	2.018382	-0.006080	0.266818
C85	C	1.518552	-0.505827	-0.116406
C86	C	2.018552	-0.005827	0.383594
H87	H	1.396666	-1.105232	-0.384211
H88	H	1.896666	-0.605232	0.115789
N89	N	1.771005	-1.099574	-0.622296
N90	N	2.271005	-0.599574	-0.122296
H91	H	1.771083	-1.178731	-0.622304
H92	H	2.271083	-0.678731	-0.122304
H93	H	1.823719	-1.073062	-0.675095
H94	H	2.323719	-0.573062	-0.175095
H95	H	0.919480	-0.384325	-0.628279
H96	H	1.419480	0.115675	-0.128279
H97	H	1.118398	-0.627810	-0.384026
H98	H	1.618398	-0.127810	0.115974
H99	H	0.919330	-0.627827	-0.384054
H100	H	1.419330	-0.127827	0.115946
H101	H	1.640489	-0.383939	-1.106237
H102	H	2.140489	0.116061	-0.606237
H103	H	1.396604	-0.627714	-1.106185
H104	H	1.896604	-0.127714	-0.606185
H105	H	1.634011	-1.094174	-0.728360
H106	H	2.134011	-0.594174	-0.228360
N107	N	1.378785	-0.645564	-0.892619
N108	N	1.878785	-0.145564	-0.392619
H109	H	1.421449	-0.694274	-0.847090
H110	H	1.921449	-0.194274	-0.347090
H111	H	1.330113	-0.602803	-0.847160
H112	H	1.830113	-0.102803	-0.347160
N113	N	1.378809	-0.891686	-0.366398
N114	N	1.878809	-0.391686	0.133602
H115	H	1.336289	-0.943151	-0.323810
H116	H	1.836289	-0.443151	0.176190
H117	H	1.421575	-0.846166	-0.317803
H118	H	1.921575	-0.346166	0.182197
N119	N	1.133044	-0.366574	-0.646061
N120	N	1.633044	0.133426	-0.146061
H121	H	1.178560	-0.317829	-0.603451
H122	H	1.678560	0.182171	-0.103451
H123	H	1.178518	-0.409408	-0.694653
H124	H	1.678518	0.090592	-0.194653
H125	H	1.740441	-0.916384	-0.621974
H126	H	2.240441	-0.416384	-0.121974
N127	N	1.634214	-0.910944	-0.758808
N128	N	2.134214	-0.410944	-0.258808
H129	H	1.621332	-0.972455	-0.806904
H130	H	2.121332	-0.472455	-0.306904
H131	H	1.568572	-0.866991	-0.753987
H132	H	2.068572	-0.366991	-0.253987
H133	H	1.640459	-0.384020	-0.907190
H134	H	2.140459	0.115980	-0.407190
