data_functionalizedCrystal
_audit_creation_method	'MofGen! by Chris Wilmer'
_symmetry_space_group_name_H-M	'P1'
_symmetry_Int_Tables_number	1
_symmetry_cell_setting	triclinic
loop_
_symmetry_equiv_pos_as_xyz
  x,y,z
_cell_length_a	12.759400
_cell_length_b	19.077105
_cell_length_c	19.076919
_cell_angle_alpha	89.923776
_cell_angle_beta	87.725144
_cell_angle_gamma	87.711168
loop_
_atom_site_label
_atom_site_type_symbol
_atom_site_fract_x
_atom_site_fract_y
_atom_site_fract_z
Zn1	Zn	-0.508276	1.058328	0.440436
Zn2	Zn	-0.008276	1.558328	0.940436
Zn3	Zn	-0.677203	1.062987	0.322935
Zn4	Zn	-0.177203	1.562987	0.822935
Zn5	Zn	-0.494202	0.945544	0.318229
Zn6	Zn	0.005798	1.445544	0.818229
Zn7	Zn	-0.676569	0.940808	0.435688
Zn8	Zn	-0.176569	1.440808	0.935688
O9	O	-0.589062	1.001917	0.379322
O10	O	-0.089062	1.501917	0.879322
O11	O	-0.536840	1.157278	0.428806
O12	O	-0.036840	1.657278	0.928806
O13	O	-0.647302	1.051339	0.223980
O14	O	-0.147302	1.551339	0.723980
O15	O	-0.349051	0.960537	0.334457
O16	O	0.150949	1.460537	0.834457
O17	O	-0.660950	1.160701	0.342479
O18	O	-0.160950	1.660701	0.842479
O19	O	-0.359391	1.043399	0.424243
O20	O	0.140609	1.543399	0.924243
O21	O	-0.512852	0.965055	0.220522
O22	O	-0.012852	1.465055	0.720522
O23	O	-0.512238	0.846583	0.329853
O24	O	-0.012238	1.346583	0.829853
O25	O	-0.659870	0.952466	0.534649
O26	O	-0.159870	1.452466	1.034649
O27	O	-0.646223	0.843104	0.416150
O28	O	-0.146223	1.343104	0.916150
O29	O	-0.536225	1.038807	0.538138
O30	O	-0.036225	1.538807	1.038138
O31	O	-0.824137	1.046747	0.337875
O32	O	-0.324137	1.546747	0.837875
O33	O	-0.823671	0.956983	0.420714
O34	O	-0.323671	1.456983	0.920714
C35	C	-0.577635	0.819347	0.371976
C36	C	-0.077635	1.319347	0.871976
C37	C	-0.572772	0.741242	0.368850
C38	C	-0.072772	1.241242	0.868850
C39	C	-0.640344	0.702758	0.412241
C40	C	-0.140344	1.202758	0.912241
C41	C	-0.635761	0.629371	0.409307
C42	C	-0.135761	1.129371	0.909307
C43	C	-0.563612	0.594468	0.362979
C44	C	-0.063612	1.094468	0.862979
C45	C	-0.496033	0.632957	0.319586
C46	C	0.003967	1.132957	0.819586
C47	C	-0.500611	0.706344	0.322524
C48	C	-0.000611	1.206344	0.822524
C49	C	-0.542424	0.375179	0.349385
C50	C	-0.042424	0.875179	0.849385
C51	C	-0.537853	0.301787	0.346449
C52	C	-0.037853	0.801787	0.846449
C53	C	-0.677581	0.298205	0.436172
C54	C	-0.177581	0.798205	0.936172
C55	C	-0.682157	0.371593	0.439102
C56	C	-0.182157	0.871593	0.939102
C57	C	-0.614574	0.410076	0.395712
C58	C	-0.114574	0.910076	0.895712
N59	N	-0.558928	0.519454	0.359977
N60	N	-0.058928	1.019454	0.859977
N61	N	-0.619253	0.485088	0.398718
N62	N	-0.119253	0.985088	0.898718
C63	C	-0.862026	1.001876	0.379306
C64	C	-0.362026	1.501876	0.879306
C65	C	-0.978807	1.001921	0.379325
C66	C	-0.478807	1.501921	0.879325
C67	C	-1.033882	1.048709	0.336242
C68	C	-0.533882	1.548709	0.836242
C69	C	-1.143610	1.048751	0.336266
C70	C	-0.643610	1.548751	0.836266
C71	C	-1.143177	0.955212	0.422456
C72	C	-0.643177	1.455212	0.922456
C73	C	-1.033452	0.955173	0.422436
C74	C	-0.533452	1.455173	0.922436
C75	C	-0.979237	1.095457	0.293132
C76	C	-0.479237	1.595457	0.793132
C77	C	-1.034313	1.142248	0.250045
C78	C	-0.534313	1.642248	0.750045
C79	C	-1.144041	1.142290	0.250068
C80	C	-0.644041	1.642290	0.750068
C81	C	-1.198693	1.095542	0.293178
C82	C	-0.698693	1.595542	0.793178
C83	C	-0.315035	1.001976	0.379355
C84	C	0.184965	1.501976	0.879355
C85	C	-0.198260	1.002002	0.379368
C86	C	0.301740	1.502002	0.879368
C87	C	-0.599547	0.994588	0.562603
C88	C	-0.099547	1.494588	1.062603
C89	C	-0.604015	0.991465	0.640706
C90	C	-0.104015	1.491465	1.140706
C91	C	-0.600535	1.185199	0.386697
C92	C	-0.100535	1.685199	0.886697
C93	C	-0.605424	1.263303	0.389840
C94	C	-0.105424	1.763303	0.889840
C95	C	-0.578545	1.009257	0.196756
C96	C	-0.078545	1.509257	0.696756
C97	C	-0.573790	1.012516	0.118659
C98	C	-0.073790	1.512516	0.618659
C99	C	-0.541742	1.034949	0.679216
C100	C	-0.041742	1.534949	1.179216
C101	C	-0.545935	1.032006	0.752602
C102	C	-0.045935	1.532006	1.252602
C103	C	-0.612408	0.985583	0.787477
C104	C	-0.112408	1.485583	1.287477
C105	C	-0.674683	0.942094	0.748961
C106	C	-0.174683	1.442094	1.248961
C107	C	-0.670484	0.945034	0.675576
C108	C	-0.170484	1.445034	1.175576
C109	C	-0.631866	0.971967	1.006758
C110	C	-0.131866	1.471967	1.506758
C111	C	-0.636063	0.969032	1.080148
C112	C	-0.136063	1.469032	1.580148
C113	C	-0.507313	1.058943	1.083785
C114	C	-0.007313	1.558943	1.583785
C115	C	-0.503124	1.061882	1.010398
C116	C	-0.003124	1.561882	1.510398
C117	C	-0.565395	1.018391	0.971889
C118	C	-0.065395	1.518391	1.471889
N119	N	-0.616698	0.982575	0.862489
N120	N	-0.116698	1.482575	1.362489
N121	N	-0.561099	1.021396	0.896878
N122	N	-0.061099	1.521396	1.396878
H123	H	-0.740911	0.400006	0.476826
H124	H	-0.240911	0.900006	0.976826
H125	H	-0.456614	1.094350	1.115147
H126	H	0.043386	1.594350	1.615147
H127	H	-0.448998	1.099687	0.982009
H128	H	0.051002	1.599687	1.482009
Br129	Br	-0.451532	1.097961	0.631894
Br130	Br	0.048468	1.597961	1.131894
Br131	Br	-0.716376	0.912942	0.954505
Br132	Br	-0.216376	1.412942	1.454505
H133	H	-0.988609	0.917075	0.457518
H134	H	-0.488609	1.417075	0.957518
H135	H	-0.495228	1.067417	0.783954
H136	H	0.004772	1.567417	1.283954
H137	H	-1.288042	1.095585	0.293200
H138	H	-0.788042	1.595585	0.793200
H139	H	-1.187684	0.917151	0.457553
H140	H	-0.687684	1.417151	0.957553
H141	H	-0.479088	0.273372	0.308727
H142	H	0.020912	0.773372	0.808727
Br143	Br	-0.764891	0.879086	0.796289
Br144	Br	-0.264891	1.379086	1.296289
H145	H	-0.889891	1.095426	0.293106
H146	H	-0.389891	1.595426	0.793106
H147	H	-0.721182	0.909618	0.644221
H148	H	-0.221182	1.409618	1.144221
Br149	Br	-0.738274	0.750119	0.475114
Br150	Br	-0.238274	1.250119	0.975114
Br151	Br	-0.727468	0.577145	0.468199
Br152	Br	-0.227468	1.077145	0.968199
H153	H	-0.989810	1.180314	0.214950
H154	H	-0.489810	1.680314	0.714950
Br155	Br	-0.408898	0.758573	0.263638
Br156	Br	0.091102	1.258573	0.763638
Br157	Br	-0.726279	0.906022	1.127478
Br158	Br	-0.226279	1.406022	1.627478
Br159	Br	-0.769298	0.245976	0.495052
Br160	Br	-0.269298	0.745976	0.995052
Br161	Br	-0.450699	0.427396	0.290502
Br162	Br	0.049301	0.927396	0.790502
Br163	Br	-0.398105	0.585591	0.256717
Br164	Br	0.101895	1.085591	0.756717
H165	H	-1.188881	1.180395	0.214990
H166	H	-0.688881	1.680395	0.714990
