data_functionalizedCrystal
_audit_creation_method	'MofGen! by Chris Wilmer'
_symmetry_space_group_name_H-M	'P1'
_symmetry_Int_Tables_number	1
_symmetry_cell_setting	triclinic
loop_
_symmetry_equiv_pos_as_xyz
  x,y,z
_cell_length_a	27.731993
_cell_length_b	27.732048
_cell_length_c	26.210047
_cell_angle_alpha	89.990787
_cell_angle_beta	89.994829
_cell_angle_gamma	82.631525
loop_
_atom_site_label
_atom_site_type_symbol
_atom_site_fract_x
_atom_site_fract_y
_atom_site_fract_z
O1	O	0.640953	0.057390	-0.042297
O2	O	0.500156	0.066163	-0.042329
O3	O	0.574927	-0.008621	-0.042302
O4	O	0.566182	0.132174	-0.042324
O5	O	0.574904	-0.008620	0.042556
O6	O	0.500132	0.066164	0.042529
O7	O	0.640929	0.057391	0.042561
Cu8	Cu	0.570529	0.061777	0.050293
Cu9	Cu	0.570557	0.061776	-0.050061
O10	O	0.566158	0.132175	0.042534
C11	C	0.482137	0.065983	0.000096
C12	C	0.428480	0.065441	0.000084
C13	C	0.045333	0.061510	-0.046147
C14	C	0.246991	0.063577	-0.046161
O15	O	0.273075	0.063825	-0.085501
N16	N	0.272198	0.063836	0.000094
C17	C	0.246988	0.063575	0.046356
O18	O	0.273056	0.063838	0.085699
C19	C	0.045332	0.061505	0.046370
C20	C	0.020127	0.061251	0.000112
C21	C	0.020128	0.061255	-0.092401
C22	C	-0.030284	0.060741	-0.092397
C23	C	-0.055490	0.060482	-0.046139
C24	C	-0.030285	0.060736	0.000116
C25	C	0.020124	0.061240	0.092631
C26	C	-0.030293	0.060721	0.092630
C27	C	-0.055499	0.060467	0.046372
C28	C	-0.105903	0.059963	0.046378
N29	N	-0.131110	0.059704	0.000123
C30	C	-0.105904	0.059963	-0.046135
C31	C	0.352860	0.064663	0.046346
C32	C	0.403274	0.065182	0.046343
C33	C	0.403273	0.065183	-0.046175
C34	C	0.352858	0.064668	-0.046171
C35	C	0.327653	0.064404	0.000091
C36	C	-0.211772	0.058884	-0.046123
C37	C	-0.262189	0.058372	-0.046115
C38	C	-0.262183	0.058369	0.046402
C39	C	-0.211771	0.058883	0.046394
C40	C	-0.186567	0.059139	0.000127
O41	O	-0.132018	0.059710	0.085698
O42	O	-0.131979	0.059690	-0.085472
C43	C	0.095745	0.062024	-0.046151
C44	C	0.120950	0.062279	0.000104
C45	C	0.095744	0.062019	0.046362
C46	C	0.171364	0.062797	0.000101
C47	C	0.196570	0.063057	-0.046158
C48	C	0.171363	0.062798	-0.092413
C49	C	0.120951	0.062284	-0.092409
C50	C	0.120951	0.062278	0.092617
C51	C	0.171363	0.062793	0.092609
C52	C	0.196569	0.063052	0.046351
C53	C	0.574732	-0.026628	0.000128
C54	C	0.574179	-0.080282	0.000132
C55	C	0.614884	-0.419105	0.000115
C56	C	0.612833	-0.620765	0.000108
O57	O	0.650055	-0.652028	0.000094
N58	N	0.568497	-0.639880	0.000098
C59	C	0.524670	-0.608576	0.000087
O60	O	0.486912	-0.629462	0.000073
C61	C	0.526721	-0.406918	0.000091
C62	C	0.571061	-0.387806	0.000106
C63	C	0.659220	-0.399993	0.000129
C64	C	0.659732	-0.349581	0.000134
C65	C	0.615909	-0.318282	0.000124
C66	C	0.571573	-0.337394	0.000110
C67	C	0.482895	-0.375616	0.000076
C68	C	0.483412	-0.325199	0.000076
C69	C	0.527751	-0.306087	0.000091
C70	C	0.528262	-0.255683	0.000105
N71	N	0.572598	-0.236568	0.000115
C72	C	0.616422	-0.267867	0.000124
C73	C	0.523596	-0.714450	0.000086
C74	C	0.523083	-0.764865	0.000086
C75	C	0.611246	-0.777049	0.000105
C76	C	0.611759	-0.726634	0.000109
C77	C	0.567932	-0.695335	0.000095
C78	C	0.617494	-0.161998	0.000135
C79	C	0.618002	-0.111582	0.000142
C80	C	0.529839	-0.099401	0.000119
C81	C	0.529331	-0.149814	0.000115
C82	C	0.573162	-0.181112	0.000121
O83	O	0.491060	-0.224392	0.000114
O84	O	0.654174	-0.246972	0.000127
C85	C	0.614372	-0.469517	0.000110
C86	C	0.570036	-0.488630	0.000096
C87	C	0.526213	-0.457331	0.000087
C88	C	0.569523	-0.539044	0.000096
C89	C	0.613346	-0.570343	0.000106
C90	C	0.657683	-0.551228	0.000115
C91	C	0.658195	-0.500817	0.000120
C92	C	0.481876	-0.476446	0.000077
C93	C	0.481368	-0.526858	0.000073
C94	C	0.525191	-0.558157	0.000083
C95	C	0.658949	0.057570	0.000135
C96	C	0.712605	0.058113	0.000143
C97	C	0.566353	0.150181	0.000103
C98	C	0.566906	0.203836	0.000095
N99	N	0.570512	0.061777	0.120877
C100	C	0.599646	0.090885	0.473394
C101	C	0.599660	0.090887	0.687052
O102	O	0.624421	0.115628	0.714676
N103	N	0.570564	0.061777	0.713771
C104	C	0.541465	0.032663	0.687072
O105	O	0.516722	0.007900	0.714701
C106	C	0.541455	0.032660	0.473414
C107	C	0.570549	0.061775	0.446698
C108	C	0.628738	0.119998	0.446677
C109	C	0.628733	0.119999	0.393266
C110	C	0.599635	0.090888	0.366571
C111	C	0.570543	0.061776	0.393287
C112	C	0.512359	0.003543	0.446716
C113	C	0.512360	0.003544	0.393298
C114	C	0.541454	0.032659	0.366582
C115	C	0.541440	0.032667	0.313180
N116	N	0.570536	0.061776	0.286461
C117	C	0.599634	0.090887	0.313156
C118	C	0.541472	0.032668	0.799245
C119	C	0.541474	0.032669	0.852659
C120	C	0.599669	0.090892	0.852636
C121	C	0.599664	0.090893	0.799221
C122	C	0.570568	0.061777	0.772526
C123	C	0.599619	0.090888	0.200989
C124	C	0.599610	0.090888	0.147572
C125	C	0.541417	0.032664	0.147601
C126	C	0.541424	0.032665	0.201012
C127	C	0.570529	0.061778	0.227705
O128	O	0.516696	0.007934	0.285523
O129	O	0.624382	0.115638	0.285519
C130	C	0.599652	0.090884	0.526805
C131	C	0.570560	0.061772	0.553521
C132	C	0.541463	0.032661	0.526826
C133	C	0.570562	0.061773	0.606935
C134	C	0.599659	0.090884	0.633631
C135	C	0.628755	0.119993	0.606912
C136	C	0.628750	0.119995	0.553500
C137	C	0.512367	0.003552	0.553545
C138	C	0.512374	0.003553	0.606956
C139	C	0.541472	0.032664	0.633651
N140	N	0.570571	0.061780	0.879355
H141	H	0.100433	0.062077	-0.130077
Br142	Br	0.717157	-0.593716	0.000132
H143	H	0.191894	0.063012	-0.130078
H144	H	0.423804	0.065395	-0.083840
Br145	Br	0.422395	-0.433975	0.000062
H146	H	0.623355	0.114601	0.777472
Br147	Br	0.668210	0.159524	0.357017
H148	H	0.647864	-0.711077	0.000121
H149	H	0.652436	0.143703	0.468407
H150	H	0.623359	0.114597	0.874380
H151	H	0.040646	0.061465	-0.130072
Br152	Br	0.318660	0.064312	0.109136
H153	H	0.446789	-0.391168	0.000061
H154	H	0.652441	0.143703	0.531753
H155	H	0.332339	0.064461	-0.083838
H156	H	0.423791	0.065396	0.084011
H157	H	0.517727	0.008963	0.222765
H158	H	0.517725	0.008964	0.125856
H159	H	0.652445	0.143699	0.628656
Br160	Br	0.719910	-0.323652	0.000140
Br161	Br	0.054318	0.061586	0.155414
H162	H	0.486977	-0.780421	0.000083
Br163	Br	0.678181	-0.085647	0.000162
Br164	Br	0.205563	0.063142	0.155394
H165	H	-0.191249	0.059100	0.084061
Br166	Br	0.501970	-0.006841	0.763025
Br167	Br	-0.064496	0.060359	0.155418
H168	H	-0.282715	0.058159	0.084064
H169	H	0.100433	0.062064	0.130287
H170	H	0.517777	0.008967	0.874407
Br171	Br	0.639092	0.130409	0.111318
Br172	Br	-0.177574	0.059232	-0.108914
Br173	Br	0.676980	-0.204466	0.000142
Br174	Br	0.472882	-0.035960	0.643207
H175	H	0.447722	-0.299717	0.000064
H176	H	0.493226	-0.165375	0.000117
H177	H	0.694908	-0.425472	0.000135
H178	H	-0.050801	0.060532	-0.130065
Br179	Br	0.464111	-0.671980	0.000066
Br180	Br	0.670720	-0.819536	0.000117
Br181	Br	0.470368	-0.056915	0.000106
Br182	Br	0.718373	-0.474887	0.000137
H183	H	0.445259	-0.542414	0.000065
H184	H	0.623320	0.114595	0.222715
H185	H	0.488669	-0.020166	0.468459
H186	H	0.488666	-0.020167	0.371567
H187	H	0.488673	-0.020155	0.531815
H188	H	-0.282709	0.058167	-0.083786
