data_functionalizedCrystal
_audit_creation_method	'MofGen! by Chris Wilmer'
_symmetry_space_group_name_H-M	'P1'
_symmetry_Int_Tables_number	1
_symmetry_cell_setting	triclinic
loop_
_symmetry_equiv_pos_as_xyz
  x,y,z
_cell_length_a	10.685901
_cell_length_b	13.032868
_cell_length_c	10.686551
_cell_angle_alpha	93.333265
_cell_angle_beta	90.348291
_cell_angle_gamma	87.685411
loop_
_atom_site_label
_atom_site_type_symbol
_atom_site_fract_x
_atom_site_fract_y
_atom_site_fract_z
Zn1	Zn	1.902300	0.495728	0.643198
Zn2	Zn	1.860186	0.679257	0.463551
Zn3	Zn	1.676698	0.493802	0.449258
Zn4	Zn	1.670318	0.653055	0.685081
O5	O	1.777376	0.580460	0.560272
O6	O	2.070589	0.531844	0.607821
O7	O	1.820891	0.664815	0.287780
O8	O	1.726920	0.350601	0.451475
O9	O	2.039648	0.666682	0.475835
O10	O	1.892669	0.352016	0.593962
O11	O	1.686083	0.528562	0.277279
O12	O	1.501976	0.503156	0.492087
O13	O	1.716046	0.622026	0.853400
O14	O	1.497289	0.620159	0.665345
O15	O	1.886482	0.506438	0.822629
O16	O	1.814705	0.819237	0.516447
O17	O	1.675210	0.799987	0.679204
C18	C	1.454549	0.558606	0.581711
C19	C	1.316441	0.549279	0.590916
C20	C	1.739731	0.846809	0.603947
C21	C	1.723743	0.960760	0.622665
C22	C	1.785707	1.021053	0.550533
C23	C	1.769184	1.138827	0.569877
C24	C	2.101463	0.602401	0.538751
C25	C	2.239570	0.611751	0.529580
C26	C	1.805250	0.561524	0.884359
C27	C	1.817129	0.553455	1.022466
C28	C	1.815162	1.313070	0.516441
C29	C	1.831156	1.199120	0.497735
C30	C	1.749691	0.599254	0.237429
C31	C	1.738094	0.607050	0.099259
H32	H	1.276590	0.488662	0.650477
N33	N	1.292331	0.692044	0.450681
H34	H	1.261115	0.762695	0.483327
H35	H	1.386814	0.687456	0.455091
N36	N	1.872193	0.973949	0.449767
H37	H	1.871740	0.896492	0.450234
H38	H	1.842690	0.996535	0.365339
H39	H	1.896447	1.163554	0.421659
N40	N	1.918796	0.484489	1.075338
H41	H	1.907940	0.411238	1.042091
H42	H	2.003363	0.507801	1.049519
N43	N	1.682711	1.185927	0.670664
H44	H	1.683166	1.263384	0.670198
H45	H	1.594906	1.162465	0.654112
H46	H	1.661345	0.659112	1.059350
N47	N	1.637274	1.007864	0.723446
H48	H	1.637730	1.085321	0.722980
H49	H	1.549469	0.984402	0.706894
