data_functionalizedCrystal
_audit_creation_method	'MofGen! by Chris Wilmer'
_symmetry_space_group_name_H-M	'P1'
_symmetry_Int_Tables_number	1
_symmetry_cell_setting	triclinic
loop_
_symmetry_equiv_pos_as_xyz
  x,y,z
_cell_length_a	19.077236
_cell_length_b	16.120531
_cell_length_c	19.076919
_cell_angle_alpha	95.042833
_cell_angle_beta	90.112677
_cell_angle_gamma	84.663528
loop_
_atom_site_label
_atom_site_type_symbol
_atom_site_fract_x
_atom_site_fract_y
_atom_site_fract_z
Zn1	Zn	1.044748	0.303871	0.452976
Zn2	Zn	1.378081	0.637204	0.786309
Zn3	Zn	1.711415	0.970537	1.119642
Zn4	Zn	1.043409	0.438022	0.340958
Zn5	Zn	1.376742	0.771355	0.674292
Zn6	Zn	1.710076	1.104689	1.007625
Zn7	Zn	0.931983	0.303432	0.330738
Zn8	Zn	1.265316	0.636765	0.664071
Zn9	Zn	1.598650	0.970098	0.997404
Zn10	Zn	0.920730	0.449190	0.454154
Zn11	Zn	1.254064	0.782523	0.787487
Zn12	Zn	1.587397	1.115857	1.120820
O13	O	0.985218	0.373629	0.394706
O14	O	1.318551	0.706962	0.728040
O15	O	1.651884	1.040295	1.061373
O16	O	1.143104	0.317176	0.441901
O17	O	1.476438	0.650509	0.775234
O18	O	1.809771	0.983843	1.108567
O19	O	1.032777	0.415311	0.241073
O20	O	1.366110	0.748644	0.574406
O21	O	1.699444	1.081978	0.907740
O22	O	0.952211	0.186347	0.342183
O23	O	1.285545	0.519680	0.675516
O24	O	1.618878	0.853013	1.008849
O25	O	1.142120	0.415737	0.359602
O26	O	1.475454	0.749070	0.692935
O27	O	1.808787	1.082403	1.026269
O28	O	1.035059	0.186669	0.431990
O29	O	1.368392	0.520002	0.765324
O30	O	1.701726	0.853336	1.098657
O31	O	0.950913	0.316428	0.233564
O32	O	1.284246	0.649761	0.566897
O33	O	1.617580	0.983094	0.900231
O34	O	0.831957	0.327257	0.343325
O35	O	1.165290	0.660590	0.676658
O36	O	1.498623	0.993924	1.009991
O37	O	0.933033	0.434771	0.552527
O38	O	1.266366	0.768104	0.885860
O39	O	1.599699	1.101437	1.219194
O40	O	0.823689	0.434345	0.433998
O41	O	1.157023	0.767678	0.767331
O42	O	1.490356	1.101012	1.100664
O43	O	1.024148	0.328005	0.551662
O44	O	1.357481	0.661338	0.884995
O45	O	1.690815	0.994672	1.218328
O46	O	1.021866	0.556647	0.360744
O47	O	1.355199	0.889980	0.694078
O48	O	1.688532	1.223314	1.027411
O49	O	0.931734	0.564852	0.443908
O50	O	1.265068	0.898185	0.777242
O51	O	1.598401	1.231519	1.110575
C52	C	0.802274	0.381966	0.387680
C53	C	1.135608	0.715299	0.721014
C54	C	1.468941	1.048632	1.054347
C55	C	0.724009	0.385553	0.384692
C56	C	1.057342	0.718887	0.718026
C57	C	1.390675	1.052220	1.051359
C58	C	0.687745	0.336012	0.426209
C59	C	1.021079	0.669345	0.759542
C60	C	1.354412	1.002679	1.092876
C61	C	0.614207	0.339379	0.423395
C62	C	0.947540	0.672712	0.756728
C63	C	1.280874	1.006045	1.090062
C64	C	0.576933	0.392292	0.379067
C65	C	0.910266	0.725625	0.712401
C66	C	1.243599	1.058958	1.045734
C67	C	0.613201	0.441835	0.337546
C68	C	0.946534	0.775168	0.670879
C69	C	1.279868	1.108502	1.004213
C70	C	0.686739	0.438463	0.340357
C71	C	1.020072	0.771797	0.673690
C72	C	1.353405	1.105130	1.007023
C73	C	0.356945	0.407865	0.366055
C74	C	0.690279	0.741198	0.699389
C75	C	1.023612	1.074531	1.032722
C76	C	0.283403	0.411234	0.363249
C77	C	0.616736	0.744568	0.696583
C78	C	0.950069	1.077901	1.029916
C79	C	0.284414	0.308777	0.449098
C80	C	0.617747	0.642110	0.782431
C81	C	0.951080	0.975443	1.115764
C82	C	0.357952	0.305413	0.451908
C83	C	0.691285	0.638747	0.785241
C84	C	1.024619	0.972080	1.118574
C85	C	0.394214	0.354953	0.410383
C86	C	0.727548	0.688287	0.743717
C87	C	1.060881	1.021620	1.077050
N88	N	0.501764	0.395736	0.376192
N89	N	0.835098	0.729070	0.709525
N90	N	1.168431	1.062403	1.042858
N91	N	0.469382	0.351504	0.413256
N92	N	0.802715	0.684837	0.746589
N93	N	1.136048	1.018170	1.079923
C94	C	0.975452	0.591123	0.403579
C95	C	1.308785	0.924456	0.736912
C96	C	1.642119	1.257790	1.070246
C97	C	0.971338	0.684167	0.407401
C98	C	1.304671	1.017500	0.740734
C99	C	1.638004	1.350833	1.074068
C100	C	0.963830	0.854518	0.414393
C101	C	1.297163	1.187851	0.747727
C102	C	1.630496	1.521184	1.081060
C103	C	1.006634	0.891896	0.374981
C104	C	1.339967	1.225229	0.708314
C105	C	1.673300	1.558562	1.041647
C106	C	1.002456	0.986685	0.378871
C107	C	1.335790	1.320018	0.712204
C108	C	1.669123	1.653352	1.045538
C109	C	0.968006	0.759720	0.410504
C110	C	1.301340	1.093053	0.743837
C111	C	1.634673	1.426387	1.077170
C112	C	1.168875	0.365259	0.401760
C113	C	1.502209	0.698593	0.735094
C114	C	1.835542	1.031926	1.068427
C115	C	1.247139	0.361693	0.404766
C116	C	1.580473	0.695026	0.738099
C117	C	1.913806	1.028360	1.071433
C118	C	0.995015	1.155285	0.385801
C119	C	1.328349	1.488618	0.719135
C120	C	1.661682	1.821952	1.052468
C121	C	0.999128	1.062241	0.381971
C122	C	1.332461	1.395575	0.715304
C123	C	1.665795	1.728908	1.048638
C124	C	0.977485	0.382682	0.578356
C125	C	1.310818	0.716016	0.911689
C126	C	1.644151	1.049349	1.245023
C127	C	0.974189	0.386541	0.656617
C128	C	1.307522	0.719874	0.989950
C129	C	1.640856	1.053207	1.323283
C130	C	0.992964	0.364548	0.211770
C131	C	1.326297	0.697881	0.545103
C132	C	1.659631	1.031214	0.878437
C133	C	0.996406	0.360447	0.133506
C134	C	1.329740	0.693781	0.466839
C135	C	1.663073	1.027114	0.800172
C136	C	1.020077	0.332769	0.692934
C137	C	1.353411	0.666102	1.026268
C138	C	1.686744	0.999435	1.359601
C139	C	1.016972	0.336391	0.766468
C140	C	1.350306	0.669724	1.099801
C141	C	1.683639	1.003058	1.433135
C142	C	0.967982	0.393790	0.803683
C143	C	1.301316	0.727123	1.137016
C144	C	1.634649	1.060457	1.470350
C145	C	0.922089	0.447564	0.767360
C146	C	1.255423	0.780898	1.100694
C147	C	1.588756	1.114231	1.434027
C148	C	0.925191	0.443937	0.693828
C149	C	1.258525	0.777271	1.027161
C150	C	1.591858	1.110604	1.360494
C151	C	0.953615	0.410595	1.023650
C152	C	1.286948	0.743928	1.356983
C153	C	1.620282	1.077261	1.690317
C154	C	0.950518	0.414219	1.097188
C155	C	1.283851	0.747553	1.430521
C156	C	1.617185	1.080886	1.763855
C157	C	1.045401	0.303044	1.096291
C158	C	1.378734	0.636378	1.429624
C159	C	1.712067	0.969711	1.762957
C160	C	1.048501	0.299426	1.022757
C161	C	1.381834	0.632759	1.356090
C162	C	1.715168	0.966093	1.689424
C163	C	1.002606	0.353197	0.986440
C164	C	1.335939	0.686530	1.319774
C165	C	1.669272	1.019864	1.653107
N166	N	0.964809	0.397496	0.878846
N167	N	1.298142	0.730829	1.212180
N168	N	1.631476	1.064163	1.545513
N169	N	1.005776	0.349487	0.911278
N170	N	1.339109	0.682820	1.244611
N171	N	1.672443	1.016153	1.577945
H172	H	0.386461	0.448204	0.332244
H173	H	0.719794	0.781538	0.665577
H174	H	1.053128	1.114871	0.998911
Br175	Br	0.738324	0.264204	0.486376
Br176	Br	1.071658	0.597537	0.819710
Br177	Br	1.404991	0.930871	1.153043
Br178	Br	0.897524	0.919832	0.475499
Br179	Br	1.230858	1.253165	0.808832
Br180	Br	1.564191	1.586498	1.142165
Br181	Br	1.086572	0.254872	0.642436
Br182	Br	1.419906	0.588206	0.975769
Br183	Br	1.753239	0.921539	1.309102
Br184	Br	1.079283	0.263449	0.815757
Br185	Br	1.412617	0.596782	1.149090
Br186	Br	1.745950	0.930116	1.482423
Br187	Br	1.114992	0.221527	0.972256
Br188	Br	1.448326	0.554860	1.305589
Br189	Br	1.781659	0.888194	1.638922
Br190	Br	1.107683	0.230072	1.145581
Br191	Br	1.441016	0.563405	1.478914
Br192	Br	1.774349	0.896739	1.812248
H193	H	0.388296	0.262329	0.488007
H194	H	0.721629	0.595662	0.821340
H195	H	1.054962	0.928996	1.154673
H196	H	0.916254	0.454391	0.994091
H197	H	1.249587	0.787724	1.327424
H198	H	1.582920	1.121057	1.660757
H199	H	0.882198	0.494297	0.797666
H200	H	1.215531	0.827630	1.131000
H201	H	1.548865	1.160964	1.464333
Br202	Br	0.884025	0.492120	1.147694
Br203	Br	1.217358	0.825454	1.481027
Br204	Br	1.550691	1.158787	1.814361
H205	H	0.887817	0.487716	0.664258
H206	H	1.221151	0.821050	0.997591
H207	H	1.554484	1.154383	1.330925
Br208	Br	0.235197	0.241547	0.505449
Br209	Br	0.568530	0.574881	0.838782
Br210	Br	0.901864	0.908214	1.172115
H211	H	0.584685	0.299039	0.457204
H212	H	0.918018	0.632372	0.790537
H213	H	1.251351	0.965705	1.123871
H214	H	0.253056	0.454327	0.327152
H215	H	0.586389	0.787660	0.660485
H216	H	0.919722	1.120993	0.993819
Br217	Br	0.562616	0.513639	0.277380
Br218	Br	0.895949	0.846973	0.610714
Br219	Br	1.229283	1.180306	0.944047
H220	H	0.716263	0.478805	0.306549
H221	H	1.049596	0.812138	0.639882
H222	H	1.382930	1.145471	0.973215
Br223	Br	1.072941	0.826583	0.313869
Br224	Br	1.406275	1.159916	0.647202
Br225	Br	1.739608	1.493250	0.980535
