data_functionalizedCrystal
_audit_creation_method	'MofGen! by Chris Wilmer'
_symmetry_space_group_name_H-M	'P1'
_symmetry_Int_Tables_number	1
_symmetry_cell_setting	triclinic
loop_
_symmetry_equiv_pos_as_xyz
  x,y,z
_cell_length_a	10.654550
_cell_length_b	16.109301
_cell_length_c	9.730223
_cell_angle_alpha	89.994178
_cell_angle_beta	89.999957
_cell_angle_gamma	83.973206
loop_
_atom_site_label
_atom_site_type_symbol
_atom_site_fract_x
_atom_site_fract_y
_atom_site_fract_z
O1	O	1.666255	0.116774	-0.114192
O2	O	1.300625	0.127899	-0.114218
O3	O	1.493484	0.001365	-0.114190
O4	O	1.473396	0.243308	-0.114220
O5	O	1.493472	0.001362	0.114390
O6	O	1.300613	0.127896	0.114362
O7	O	1.666243	0.116770	0.114388
Zn8	Zn	1.483426	0.122333	0.150667
Zn9	Zn	1.483442	0.122337	-0.150497
O10	O	1.473384	0.243304	0.114360
C11	C	1.253832	0.127081	0.000069
C12	C	1.114422	0.124637	0.000060
C13	C	1.033926	0.199138	0.000054
C14	C	0.902936	0.196836	0.000079
C15	C	0.932952	0.045526	0.000107
C16	C	1.063939	0.047828	0.000093
C17	C	1.492664	-0.029616	0.000100
C18	C	1.490225	-0.121926	0.000102
C19	C	1.598991	-0.343552	0.000088
C20	C	1.596689	-0.430286	0.000076
C21	C	1.367868	-0.411772	0.000066
C22	C	1.370172	-0.325039	0.000067
C23	C	1.485737	-0.290932	0.000085
C24	C	1.481131	-0.464398	0.000072
C25	C	1.478634	-0.558439	0.000060
C26	C	1.488234	-0.196885	0.000095
C27	C	1.713036	0.117589	0.000098
C28	C	1.852446	0.120033	0.000098
C29	C	1.474203	0.274286	0.000067
C30	C	1.476643	0.366596	0.000056
N31	N	1.483424	0.122329	0.356203
N32	N	1.483454	0.122334	-0.356033
C33	C	1.568851	0.066324	0.428141
C34	C	1.568863	0.066324	0.572024
C35	C	1.398018	0.178342	0.572018
C36	C	1.398001	0.178337	0.428138
H37	H	0.837401	0.257503	0.000077
O38	O	1.255724	-0.445044	0.000122
C39	C	1.150763	-0.570454	0.000044
C40	C	1.277856	-0.532888	0.000006
H41	H	1.168613	-0.641480	-0.000079
H42	H	1.094779	-0.548901	0.095726
H43	H	1.094799	-0.548781	-0.095595
H44	H	1.333922	-0.554542	0.095580
H45	H	1.333745	-0.554437	-0.095739
H46	H	1.328430	0.223944	0.369562
O47	O	1.314875	0.232664	0.641841
C48	C	1.096504	0.280065	0.685830
C49	C	1.190524	0.218483	0.606698
H50	H	0.995947	0.268633	0.657424
H51	H	1.111084	0.270448	0.801038
H52	H	1.112890	0.346751	0.657537
H53	H	1.174196	0.151773	0.634875
H54	H	1.175922	0.228173	0.491508
O55	O	1.651971	0.011891	0.641691
C56	C	1.821376	-0.099248	0.626504
C57	C	1.727343	-0.037630	0.547436
H58	H	1.882321	-0.139314	0.550333
H59	H	1.884182	-0.063005	0.693812
H60	H	1.767167	-0.141081	0.693918
H61	H	1.781449	0.004218	0.479948
H62	H	1.664538	-0.073924	0.480215
H63	H	1.129483	-0.012843	0.000101
O64	O	1.083176	0.273675	-0.000030
C65	C	1.271662	0.344285	0.000013
C66	C	1.216061	0.259813	0.000074
H67	H	1.379106	0.333107	0.000126
H68	H	1.238586	0.381152	-0.095673
H69	H	1.238441	0.381138	0.095648
H70	H	1.249256	0.222892	-0.095497
H71	H	1.249130	0.223009	0.095823
O72	O	1.260033	-0.274038	0.000127
C73	C	1.032831	-0.264820	0.000030
C74	C	1.157459	-0.322674	0.000002
H75	H	0.949868	-0.304119	-0.000100
H76	H	1.028101	-0.223772	0.095711
H77	H	1.028267	-0.223730	-0.095610
H78	H	1.162107	-0.363816	0.095577
H79	H	1.162138	-0.363666	-0.095742
H80	H	1.693091	-0.315784	0.000100
O81	O	0.883701	-0.029010	0.000068
C82	C	0.695212	-0.099617	0.000178
C83	C	0.750816	-0.015146	0.000195
H84	H	0.587768	-0.088438	0.000310
H85	H	0.728270	-0.136485	-0.095501
H86	H	0.728449	-0.136470	0.095820
H87	H	0.717605	0.021775	-0.095382
H88	H	0.717765	0.021658	0.095938
O89	O	1.706788	-0.481314	-0.000100
C90	C	1.901628	-0.523694	-0.118551
C91	C	1.776996	-0.465844	-0.118503
H92	H	1.958415	-0.511219	-0.214283
H93	H	1.958581	-0.511204	-0.022949
H94	H	1.880109	-0.591538	-0.118493
H95	H	1.798401	-0.397980	-0.118608
H96	H	1.720080	-0.478406	-0.214095
H97	H	1.638406	0.020717	0.369575
