data_functionalizedCrystal
_audit_creation_method	'MofGen! by Chris Wilmer'
_symmetry_space_group_name_H-M	'P1'
_symmetry_Int_Tables_number	1
_symmetry_cell_setting	triclinic
loop_
_symmetry_equiv_pos_as_xyz
  x,y,z
_cell_length_a	17.000371
_cell_length_b	15.944493
_cell_length_c	14.421503
_cell_angle_alpha	89.992936
_cell_angle_beta	89.994392
_cell_angle_gamma	100.462854
loop_
_atom_site_label
_atom_site_type_symbol
_atom_site_fract_x
_atom_site_fract_y
_atom_site_fract_z
O1	O	-0.102424	1.106988	-0.077095
O2	O	0.397576	1.606988	0.422905
O3	O	-0.115129	0.861493	-0.077100
O4	O	0.384871	1.361493	0.422900
O5	O	0.007092	0.999484	-0.077096
O6	O	0.507092	1.499484	0.422904
O7	O	-0.224645	0.968997	-0.077099
O8	O	0.275355	1.468997	0.422901
O9	O	0.007074	0.999461	0.077128
O10	O	0.507074	1.499461	0.577128
O11	O	-0.115147	0.861470	0.077124
O12	O	0.384853	1.361470	0.577124
O13	O	-0.102443	1.106966	0.077128
O14	O	0.397557	1.606966	0.577128
Cu15	Cu	-0.108796	0.984216	0.091208
Cu16	Cu	0.391204	1.484216	0.591208
Cu17	Cu	-0.108775	0.984243	-0.091179
Cu18	Cu	0.391225	1.484243	0.408821
O19	O	-0.224663	0.968975	0.077124
O20	O	0.275337	1.468975	0.577124
C21	C	-0.114619	0.830225	0.000012
C22	C	0.385381	1.330225	0.500012
C23	C	-0.113062	0.737092	0.000010
C24	C	0.386938	1.237092	0.500010
C25	C	-0.185004	0.496014	0.000008
C26	C	0.314996	0.996014	0.500008
C27	C	-0.146217	0.448312	0.076053
C28	C	0.353783	0.948312	0.576053
C29	C	-0.110177	0.566584	0.000012
C30	C	0.389823	1.066584	0.500012
C31	C	-0.146182	0.448340	-0.075999
C32	C	0.353818	0.948340	0.424001
C33	C	-0.107397	0.401880	0.000010
C34	C	0.392603	0.901880	0.500010
C35	C	-0.071411	0.520109	0.076119
C36	C	0.428589	1.020109	0.576119
C37	C	-0.071386	0.520140	-0.076001
C38	C	0.428614	1.020140	0.423999
C39	C	-0.032545	0.472475	0.000062
C40	C	0.467455	0.972475	0.500062
C41	C	-0.111781	0.661465	0.000014
C42	C	0.388219	1.161465	0.500014
C43	C	-0.105787	0.307002	0.000014
C44	C	0.394213	0.807002	0.500014
C45	C	-0.254308	0.967349	0.000012
C46	C	0.245692	1.467349	0.500012
C47	C	-0.342668	0.962479	0.000010
C48	C	0.157332	1.462479	0.500010
C49	C	-0.374682	1.037411	0.000009
C50	C	0.125318	1.537411	0.500009
C51	C	-0.457706	1.032831	0.000014
C52	C	0.042294	1.532831	0.500014
C53	C	-0.508713	0.953318	0.000014
C54	C	-0.008713	1.453318	0.500014
C55	C	-0.476694	0.878381	0.000018
C56	C	0.023306	1.378381	0.500018
C57	C	-0.393671	0.882962	0.000019
C58	C	0.106329	1.382962	0.500019
C59	C	-0.759862	0.935623	0.000015
C60	C	-0.259862	1.435623	0.500015
C61	C	-0.842889	0.931048	0.000011
C62	C	-0.342889	1.431048	0.500011
C63	C	-0.823896	1.085498	0.000009
C64	C	-0.323896	1.585498	0.500009
C65	C	-0.740873	1.090072	0.000005
C66	C	-0.240873	1.590072	0.500005
C67	C	-0.708860	1.015135	0.000014
C68	C	-0.208860	1.515135	0.500014
C69	C	-0.593577	0.948634	0.000016
C70	C	-0.093577	1.448634	0.500016
C71	C	-0.623998	1.019820	0.000018
C72	C	-0.123998	1.519820	0.500018
C73	C	0.036737	1.001110	0.000014
C74	C	0.536737	1.501110	0.500014
C75	C	0.125096	1.005979	0.000010
C76	C	0.625096	1.505979	0.500010
C77	C	-0.102953	1.138233	0.000015
C78	C	0.397047	1.638233	0.500015
C79	C	-0.104509	1.231367	0.000010
C80	C	0.395491	1.731367	0.500010
N81	N	-0.108811	0.984203	0.219489
N82	N	0.391189	1.484203	0.719489
N83	N	-0.108754	0.984263	-0.219461
N84	N	0.391246	1.484263	0.280539
C85	C	-0.165301	0.920387	0.469141
C86	C	0.334699	1.420387	0.969141
C87	C	-0.180738	0.995148	0.530945
C88	C	0.319262	1.495148	1.030945
C89	C	-0.108792	0.984225	0.408650
C90	C	0.391208	1.484225	0.908650
C91	C	-0.093373	0.909482	0.530941
C92	C	0.406627	1.409482	1.030941
C93	C	-0.108776	0.984239	0.591372
C94	C	0.391224	1.484239	1.091372
C95	C	-0.124266	1.059022	0.469093
C96	C	0.375734	1.559022	0.969093
C97	C	-0.036869	0.973308	0.469084
C98	C	0.463131	1.473308	0.969084
C99	C	-0.052276	1.048126	0.530860
C100	C	0.447724	1.548126	1.030860
C101	C	-0.108804	0.984215	0.303389
C102	C	0.391196	1.484215	0.803389
C103	C	-0.108763	0.984257	0.696631
C104	C	0.391237	1.484257	1.196631
H105	H	0.031959	0.461777	0.000107
H106	H	0.531959	0.961777	0.500107
H107	H	-0.699347	1.154820	0.000010
H108	H	-0.199347	1.654820	0.500010
H109	H	-0.333157	1.102159	0.000002
H110	H	0.166843	1.602159	0.500002
H111	H	-0.518231	0.813640	0.000023
H112	H	-0.018231	1.313640	0.500023
H113	H	-0.241555	1.004396	0.558116
H114	H	0.258445	1.504396	1.058116
H115	H	-0.733808	0.874604	0.000011
H116	H	-0.233808	1.374604	0.500011
H117	H	-0.039837	0.551262	0.140473
H118	H	0.460163	1.051262	0.640473
H119	H	-0.177790	0.417074	-0.140280
H120	H	0.322210	0.917074	0.359720
H121	H	-0.213126	0.866451	0.442042
H122	H	0.286874	1.366451	0.942042
H123	H	-0.137373	1.122245	0.442041
H124	H	0.362627	1.622245	0.942041
H125	H	-0.849970	1.146508	-0.000005
H126	H	-0.349970	1.646508	0.499995
H127	H	-0.039802	0.551429	-0.140293
H128	H	0.460198	1.051429	0.359707
H129	H	0.023928	0.964035	0.441891
H130	H	0.523928	1.464035	0.941891
H131	H	-0.004479	1.102173	0.557789
H132	H	0.495521	1.602173	1.057789
H133	H	-0.249459	0.506873	0.000078
H134	H	0.250541	1.006873	0.500078
H135	H	-0.080339	0.846268	0.558110
H136	H	0.419661	1.346268	1.058110
H137	H	-0.367607	0.821944	0.000028
H138	H	0.132393	1.321944	0.500028
H139	H	-0.635117	0.883895	0.000012
H140	H	-0.135117	1.383895	0.500012
H141	H	-0.177825	0.417029	0.140341
H142	H	0.322175	0.917029	0.640341
H143	H	-0.483768	1.093848	0.000014
H144	H	0.016232	1.593848	0.500014
H145	H	-0.884419	0.866296	0.000013
H146	H	-0.384419	1.366296	0.500013
H147	H	-0.582464	1.084558	0.000023
H148	H	-0.082464	1.584558	0.500023
