data_functionalizedCrystal
_audit_creation_method	'MofGen! by Chris Wilmer'
_symmetry_space_group_name_H-M	'P1'
_symmetry_Int_Tables_number	1
_symmetry_cell_setting	triclinic
loop_
_symmetry_equiv_pos_as_xyz
  x,y,z
_cell_length_a	15.944551
_cell_length_b	15.944551
_cell_length_c	15.021413
_cell_angle_alpha	90.002826
_cell_angle_beta	90.003065
_cell_angle_gamma	96.501262
loop_
_atom_site_label
_atom_site_type_symbol
_atom_site_fract_x
_atom_site_fract_y
_atom_site_fract_z
O1	O	0.108321	-1.114529	-0.073941
O2	O	0.121677	-0.869979	-0.073964
O3	O	-0.007276	-0.998932	-0.073944
O4	O	0.237274	-0.985576	-0.073961
O5	O	-0.007257	-0.998912	0.074121
O6	O	0.121695	-0.869959	0.074101
O7	O	0.108339	-1.114508	0.074123
Zn8	Zn	0.115020	-0.992230	0.097620
Zn9	Zn	0.114996	-0.992257	-0.097461
O10	O	0.237292	-0.985555	0.074103
C11	C	0.121132	-0.838675	0.000066
C12	C	0.119470	-0.745429	0.000057
C13	C	-0.038561	-0.998367	0.000089
C14	C	-0.131807	-0.996705	0.000089
N15	N	0.115036	-0.992218	0.230758
C16	C	-0.346663	-0.912801	0.000069
C17	C	-0.407672	-0.951753	0.073077
C18	C	-0.302533	-0.993698	0.000082
C19	C	-0.407673	-0.951792	-0.072903
C20	C	-0.467445	-0.990787	0.000071
C21	C	-0.362313	-1.032672	0.073150
C22	C	-0.362308	-1.032700	-0.072895
C23	C	-0.423298	-1.071711	0.000131
C24	C	-0.207530	-0.995372	0.000089
C25	C	-0.562446	-0.989119	0.000070
C26	C	0.268577	-0.986120	0.000069
C27	C	0.361823	-0.987782	0.000063
C28	C	0.108885	-1.145813	0.000092
C29	C	0.110547	-1.239059	0.000094
C30	C	0.035565	-0.530572	0.000081
C31	C	0.074518	-0.469562	-0.072926
C32	C	0.116462	-0.574703	0.000068
C33	C	0.074556	-0.469564	0.073054
C34	C	0.113551	-0.409790	0.000083
C35	C	0.155438	-0.514921	-0.072998
C36	C	0.155464	-0.514930	0.073047
C37	C	0.194476	-0.453937	0.000023
C38	C	0.118137	-0.669705	0.000059
C39	C	0.111883	-0.314789	0.000085
N40	N	0.114973	-0.992276	-0.230598
C41	C	0.174636	-0.932581	0.470432
C42	C	0.190943	-1.008481	0.529772
C43	C	0.115015	-0.992239	0.412365
C44	C	0.098727	-0.916360	0.529766
C45	C	0.114997	-0.992253	0.587789
C46	C	0.131360	-1.068178	0.470398
C47	C	0.039111	-0.976006	0.470387
C48	C	0.055386	-1.051962	0.529701
C49	C	0.115028	-0.992230	0.311307
C50	C	0.114984	-0.992271	0.688844
H51	H	-0.313356	-0.845652	0.000136
H52	H	0.040295	-0.449461	-0.134642
H53	H	0.040332	-0.449470	0.134773
H54	H	0.189621	-0.534918	-0.134787
C55	C	-0.490341	-0.960736	0.207047
C56	C	-0.434816	-0.905556	0.156391
H57	H	-0.507091	-0.932212	0.258481
H58	H	-0.538708	-0.979476	0.172432
H59	H	-0.462871	-1.007938	0.224596
H60	H	-0.462288	-0.858357	0.138836
H61	H	-0.386440	-0.886803	0.191012
H62	H	0.261683	-0.420779	-0.000023
H63	H	0.255126	-1.022224	0.555856
C64	C	-0.247638	-1.079909	0.155839
C65	C	-0.335323	-1.078809	0.156570
H66	H	-0.230976	-1.108385	0.207342
H67	H	-0.231756	-1.108460	0.104071
H68	H	-0.220716	-1.023625	0.155623
H69	H	-0.362245	-1.135093	0.156780
H70	H	-0.351214	-1.050259	0.208352
C71	C	0.272091	-0.581217	0.130510
C72	C	0.201628	-0.542105	0.156363
H73	H	0.300587	-0.597990	0.181952
H74	H	0.254258	-0.629453	0.095323
H75	H	0.309221	-0.542725	0.096732
H76	H	0.164494	-0.580599	0.190135
H77	H	0.219459	-0.493863	0.191565
C78	C	0.322177	-0.881766	0.465266
C79	C	0.242751	-0.864546	0.435286
H80	H	0.364227	-0.839770	0.443561
H81	H	0.322971	-0.881634	0.528491
H82	H	0.333202	-0.935568	0.444062
H83	H	0.231723	-0.810746	0.456496
H84	H	0.241954	-0.864670	0.372048
C85	C	-0.012614	-1.119145	0.657831
C86	C	-0.012696	-1.120143	0.564621
H87	H	-0.054647	-1.161235	0.679389
H88	H	0.041153	-1.130231	0.679059
H89	H	-0.024307	-1.065294	0.678259
H90	H	-0.000997	-1.173992	0.544193
H91	H	-0.066475	-1.109062	0.543385
H92	H	0.145206	-1.132368	0.444430
H93	H	-0.025051	-0.962240	0.444283
H94	H	-0.031573	-0.563905	-0.000005
H95	H	-0.456457	-1.138919	0.000178
H96	H	0.084959	-0.852184	0.555847
H97	H	-0.342185	-1.066896	-0.134615
H98	H	-0.427758	-0.917574	-0.134630
