data_functionalizedCrystal
_audit_creation_method	'MofGen! by Chris Wilmer'
_symmetry_space_group_name_H-M	'P1'
_symmetry_Int_Tables_number	1
_symmetry_cell_setting	triclinic
loop_
_symmetry_equiv_pos_as_xyz
  x,y,z
_cell_length_a	12.645331
_cell_length_b	12.645330
_cell_length_c	17.077396
_cell_angle_alpha	89.972192
_cell_angle_beta	89.982506
_cell_angle_gamma	90.012860
loop_
_atom_site_label
_atom_site_type_symbol
_atom_site_fract_x
_atom_site_fract_y
_atom_site_fract_z
Zn1	Zn	1.620713	-0.422017	-0.443864
Zn2	Zn	1.620626	-0.599307	-0.312603
Zn3	Zn	1.443444	-0.422059	-0.312611
Zn4	Zn	1.443425	-0.599239	-0.443826
O5	O	1.532052	-0.510655	-0.378226
O6	O	1.769048	-0.445545	-0.426465
O7	O	1.597095	-0.575841	-0.202758
O8	O	1.467003	-0.273706	-0.330041
O9	O	1.768985	-0.575800	-0.330028
O10	O	1.597242	-0.273675	-0.426472
O11	O	1.466919	-0.445617	-0.202763
O12	O	1.295094	-0.445551	-0.330004
O13	O	1.466970	-0.575684	-0.553678
O14	O	1.295080	-0.575725	-0.426407
O15	O	1.597223	-0.445479	-0.553706
O16	O	1.597076	-0.747645	-0.329991
O17	O	1.466887	-0.747595	-0.426400
C18	C	1.256622	-0.510636	-0.378203
C19	C	1.138792	-0.510653	-0.378212
C20	C	1.531999	-0.786085	-0.378208
C21	C	1.532073	-0.903915	-0.378226
C22	C	1.093883	-0.428634	-0.317663
C23	C	0.971324	-0.428331	-0.317871
C24	C	0.970950	-0.480859	-0.461077
C25	C	1.093548	-0.480246	-0.460699
C26	C	1.093589	-0.622712	-0.356677
C27	C	0.970982	-0.622127	-0.354881
C28	C	1.613844	-1.071466	-0.317452
C29	C	1.614110	-0.948906	-0.317601
C30	C	1.562363	-0.948295	-0.460970
C31	C	1.563012	-1.070894	-0.460647
C32	C	1.419981	-1.071243	-0.357071
C33	C	1.420518	-0.948639	-0.355216
C34	C	1.808557	-0.510675	-0.378250
C35	C	1.926387	-0.510684	-0.378260
C36	C	1.532104	-0.510569	-0.582971
C37	C	1.532127	-0.510533	-0.670220
C38	C	1.532134	-0.234150	-0.378262
C39	C	1.532169	-0.116320	-0.378277
C40	C	1.600005	-0.578217	-1.046034
C41	C	1.599978	-0.578248	-0.964054
C42	C	1.532195	-0.510458	-0.923070
C43	C	1.464426	-0.442640	-0.964070
C44	C	1.464448	-0.442616	-1.046049
C45	C	1.464386	-0.442695	-0.793200
C46	C	1.464365	-0.442718	-0.711215
C47	C	1.599916	-0.578327	-0.711205
C48	C	1.599939	-0.578302	-0.793184
C49	C	1.532171	-0.510483	-0.834178
C50	C	1.532061	-0.510664	-0.174278
C51	C	1.532244	-0.510402	-0.087029
H52	H	1.123296	-0.447027	-0.256058
C53	C	1.725498	-1.112963	-0.336190
H54	H	1.722557	-1.157501	-0.380922
H55	H	1.751583	-1.151999	-0.292761
H56	H	1.771236	-1.054981	-0.346464
C57	C	1.389847	-0.368092	-0.838292
H58	H	1.349482	-0.327714	-0.802144
H59	H	1.343650	-0.408624	-0.870263
H60	H	1.430435	-0.321895	-0.870281
C61	C	1.389914	-0.368016	-1.091143
H62	H	1.349548	-0.327639	-1.054994
H63	H	1.343720	-0.408553	-1.123112
H64	H	1.430498	-0.321818	-1.123134
H65	H	1.697204	-0.919497	-0.331627
H66	H	0.941189	-0.446938	-0.256473
H67	H	1.122629	-0.683815	-0.400777
H68	H	1.645016	-1.099405	-0.478610
H69	H	1.124465	-0.649944	-0.297291
H70	H	1.409231	-0.387450	-0.930694
C71	C	1.389803	-0.368158	-0.666129
H72	H	1.399507	-0.377880	-0.611435
H73	H	1.318574	-0.383664	-0.679551
H74	H	1.405345	-0.296923	-0.679579
C75	C	1.389653	-0.909463	-0.272960
H76	H	1.444513	-0.866026	-0.252721
H77	H	1.379374	-0.968426	-0.239319
H78	H	1.326037	-0.869741	-0.276099
C79	C	1.135507	-0.317096	-0.336727
H80	H	1.180132	-0.320296	-0.381427
H81	H	1.174479	-0.290793	-0.293360
H82	H	1.077584	-0.271392	-0.347170
C83	C	0.931709	-0.316174	-0.337195
H84	H	0.990544	-0.270622	-0.344957
H85	H	0.889959	-0.290510	-0.295040
H86	H	0.890196	-0.318196	-0.383526
H87	H	1.595131	-1.101020	-0.255919
C88	C	1.486143	-1.110983	-0.523955
H89	H	1.486013	-1.186111	-0.524183
H90	H	1.508090	-1.085662	-0.573755
H91	H	1.416896	-1.085915	-0.512973
H92	H	1.359126	-1.100250	-0.401373
C93	C	1.132207	-0.369615	-0.485286
H94	H	1.207325	-0.368267	-0.485277
H95	H	1.106228	-0.318450	-0.449405
H96	H	1.106927	-0.353882	-0.536359
C97	C	1.133695	-0.557465	-0.523753
H98	H	1.075075	-0.589064	-0.549490
H99	H	1.175419	-0.610916	-0.499814
H100	H	1.175344	-0.520039	-0.560868
C101	C	0.931634	-0.559096	-0.523719
H102	H	0.887584	-0.610764	-0.499865
H103	H	0.990517	-0.592889	-0.547520
H104	H	0.892525	-0.521896	-0.562413
H105	H	0.941853	-0.644624	-0.293931
H106	H	1.504685	-0.919149	-0.507504
C107	C	1.333871	-0.907285	-0.410672
H108	H	1.364735	-0.862006	-0.448759
H109	H	1.282719	-0.869066	-0.381380
H110	H	1.300717	-0.965277	-0.436108
H111	H	0.940260	-0.399871	-0.479605
H112	H	0.940385	-0.686479	-0.395741
H113	H	1.655208	-0.633414	-1.079398
C114	C	1.674527	-0.652832	-0.918963
H115	H	1.714911	-0.693189	-0.955113
H116	H	1.633962	-0.699034	-0.886969
H117	H	1.720721	-0.612280	-0.886998
H118	H	1.643441	-0.917507	-0.479232
C119	C	1.588524	-0.908370	-0.234718
H120	H	1.577877	-0.966831	-0.200652
H121	H	1.526177	-0.866534	-0.236312
H122	H	1.645755	-0.866753	-0.216047
H123	H	1.655139	-0.633498	-0.826551
C124	C	1.382770	-1.113122	-0.276978
H125	H	1.435315	-1.158493	-0.255721
H126	H	1.318674	-1.151349	-0.283346
H127	H	1.371392	-1.055352	-0.242448
C128	C	1.674451	-0.652935	-0.666115
H129	H	1.664722	-0.643254	-0.611421
H130	H	1.745688	-0.637426	-0.679555
H131	H	1.658908	-0.724159	-0.679539
