data_functionalizedCrystal
_audit_creation_method	'MofGen! by Chris Wilmer'
_symmetry_space_group_name_H-M	'P1'
_symmetry_Int_Tables_number	1
_symmetry_cell_setting	triclinic
loop_
_symmetry_equiv_pos_as_xyz
  x,y,z
_cell_length_a	16.992701
_cell_length_b	14.519731
_cell_length_c	16.053802
_cell_angle_alpha	92.569546
_cell_angle_beta	87.243340
_cell_angle_gamma	87.178012
loop_
_atom_site_label
_atom_site_type_symbol
_atom_site_fract_x
_atom_site_fract_y
_atom_site_fract_z
O1	O	1.043981	0.191918	-0.069438
O2	O	0.815693	0.189775	-0.069439
O3	O	0.935881	0.057043	-0.069431
O4	O	0.923793	0.324650	-0.069446
O5	O	0.929265	0.064317	0.069428
O6	O	0.809077	0.197049	0.069420
O7	O	1.037366	0.199192	0.069420
Zn8	Zn	0.922171	0.199275	0.091467
Zn9	Zn	0.930887	0.189692	-0.091485
O10	O	0.917178	0.331923	0.069412
C11	C	0.783169	0.190652	-0.000009
C12	C	0.696112	0.182418	-0.000009
C13	C	0.207071	0.127090	-0.000009
C14	C	0.288869	0.134834	-0.000005
C15	C	0.320541	0.222038	-0.000013
C16	C	0.270409	0.301503	-0.000018
C17	C	0.188613	0.293758	-0.000017
C18	C	0.564185	0.254137	-0.000013
C19	C	0.645988	0.261876	-0.000017
C20	C	0.664442	0.095207	-0.000002
C21	C	0.582643	0.087470	-0.000005
C22	C	0.532519	0.166935	-0.000006
N23	N	0.404151	0.229956	-0.000011
N24	N	0.448910	0.159016	-0.000002
C25	C	0.932007	0.026280	-0.000002
C26	C	0.930309	-0.076222	-0.000001
C27	C	0.928930	-0.159465	-0.000003
C28	C	0.927207	-0.263898	-0.000009
C29	C	0.925840	-0.347135	-0.000015
C30	C	0.924117	-0.451574	-0.000020
C31	C	1.069890	0.198315	-0.000011
C32	C	1.156947	0.206549	-0.000017
C33	C	0.921052	0.362686	-0.000019
C34	C	0.922750	0.465188	-0.000025
N35	N	0.916228	0.205816	0.216327
N36	N	0.936837	0.183144	-0.216345
C37	C	0.967387	0.149361	0.260024
C38	C	0.963237	0.153945	0.347430
C39	C	0.907932	0.214990	0.391138
C40	C	0.856768	0.271446	0.347435
C41	C	0.860914	0.266857	0.260030
C42	C	0.889819	0.235012	0.652546
C43	C	0.885678	0.239599	0.739957
C44	C	0.992147	0.122096	0.739947
C45	C	0.996292	0.117516	0.652541
C46	C	0.945125	0.173969	0.608845
N47	N	0.903691	0.219679	0.480481
N48	N	0.949363	0.169274	0.519503
H49	H	0.523383	0.318844	-0.000017
O50	O	1.018415	0.093059	0.394568
H51	H	1.054680	0.136817	0.434381
O52	O	1.055952	0.051674	0.605413
H53	H	1.096012	0.091252	0.565588
H54	H	1.033804	0.076133	0.775532
O55	O	0.342929	0.049129	0.000007
H56	H	0.383341	0.045704	-0.056583
H57	H	0.556863	0.016459	0.000002
H58	H	0.671770	0.332892	-0.000012
O59	O	0.718501	0.009501	0.000015
H60	H	0.780700	0.029533	0.000022
H61	H	0.840639	0.289312	0.775540
H62	H	0.848158	0.280980	0.616976
O63	O	0.304563	0.395562	-0.000028
H64	H	0.369863	0.387600	-0.000036
H65	H	0.147802	0.358462	-0.000020
O66	O	0.797118	0.337294	0.394570
H67	H	0.802834	0.331011	0.462690
O68	O	1.027035	0.083516	0.212883
H69	H	1.061905	0.045023	0.257956
O70	O	0.805738	0.327739	0.212885
H71	H	0.815035	0.401267	0.229631
O72	O	0.172912	0.033035	0.000007
H73	H	0.221512	-0.020915	0.000023
