data_functionalizedCrystal
_audit_creation_method	'MofGen! by Chris Wilmer'
_symmetry_space_group_name_H-M	'P1'
_symmetry_Int_Tables_number	1
_symmetry_cell_setting	triclinic
loop_
_symmetry_equiv_pos_as_xyz
  x,y,z
_cell_length_a	10.654550
_cell_length_b	17.699083
_cell_length_c	9.130313
_cell_angle_alpha	89.994594
_cell_angle_beta	89.999724
_cell_angle_gamma	83.883973
loop_
_atom_site_label
_atom_site_type_symbol
_atom_site_fract_x
_atom_site_fract_y
_atom_site_fract_z
O1	O	1.665979	0.106303	-0.121693
O2	O	1.300323	0.116430	-0.121721
O3	O	1.493481	0.001243	-0.121693
O4	O	1.472820	0.221490	-0.121721
O5	O	1.493468	0.001240	0.121906
O6	O	1.300310	0.116427	0.121878
O7	O	1.665966	0.106299	0.121906
Cu8	Cu	1.483136	0.111363	0.144134
Cu9	Cu	1.483152	0.111367	-0.143949
O10	O	1.472807	0.221487	0.121878
C11	C	1.253531	0.115685	0.000076
C12	C	1.114127	0.113460	0.000066
C13	C	1.033454	0.181281	0.000061
C14	C	0.902470	0.179186	0.000087
C15	C	0.932844	0.041444	0.000115
C16	C	1.063826	0.043539	0.000100
C17	C	1.492735	-0.026960	0.000106
C18	C	1.490514	-0.110993	0.000107
C19	C	1.603894	-0.158893	0.000117
C20	C	1.601799	-0.237849	0.000104
C21	C	1.486323	-0.268904	0.000091
C22	C	1.372935	-0.220998	0.000076
C23	C	1.375030	-0.142043	0.000079
C24	C	1.364481	-0.539415	0.000064
C25	C	1.362394	-0.618376	0.000065
C26	C	1.591249	-0.635221	0.000089
C27	C	1.593345	-0.556266	0.000092
C28	C	1.479957	-0.508367	0.000069
C29	C	1.482229	-0.422753	0.000080
C30	C	1.484050	-0.354516	0.000090
C31	C	1.712757	0.107045	0.000106
C32	C	1.852161	0.109269	0.000107
C33	C	1.473554	0.249690	0.000075
C34	C	1.475775	0.333722	0.000065
N35	N	1.483135	0.111360	0.346757
N36	N	1.483164	0.111364	-0.346572
C37	C	1.568694	0.060376	0.423421
C38	C	1.568706	0.060376	0.576758
C39	C	1.397596	0.162350	0.576753
C40	C	1.397579	0.162345	0.423419
H41	H	0.891873	-0.015484	0.000152
H42	H	1.129514	-0.011692	0.000108
H43	H	1.327939	0.203863	0.639187
C44	C	1.698173	-0.442714	0.000107
C45	C	1.720278	-0.522131	0.000104
H46	H	1.776539	-0.421642	0.000119
H47	H	1.651509	-0.426314	-0.084837
H48	H	1.651496	-0.426325	0.085060
H49	H	1.766948	-0.538520	-0.084855
H50	H	1.766962	-0.538536	0.085057
C51	C	1.642883	-0.070231	0.623976
C52	C	1.662760	0.004335	0.661024
H53	H	1.700956	-0.104829	0.675993
H54	H	1.559117	-0.078919	0.649128
H55	H	1.655118	-0.077517	0.521681
H56	H	1.650516	0.011623	0.763318
H57	H	1.746546	0.013026	0.635882
C58	C	1.228447	0.263152	0.438804
C59	C	1.303528	0.218393	0.339139
H60	H	1.170391	0.297753	0.386769
H61	H	1.183384	0.231397	0.498625
H62	H	1.280649	0.290673	0.498595
H63	H	1.251326	0.190868	0.279354
H64	H	1.348594	0.250152	0.279293
H65	H	1.074405	0.238215	0.000044
H66	H	1.683575	-0.674231	0.000100
H67	H	1.697927	-0.133614	0.000137
H68	H	0.836791	0.234412	0.000087
H69	H	1.278912	-0.246289	0.000056
H70	H	1.638357	0.018859	0.361006
C71	C	1.170050	-0.500760	-0.125163
C72	C	1.239841	-0.486775	0.000059
H73	H	1.093095	-0.468263	-0.125155
H74	H	1.217406	-0.491268	-0.210095
H75	H	1.152299	-0.552231	-0.125149
H76	H	1.257600	-0.435305	0.000039
H77	H	1.192475	-0.496261	0.085013
H78	H	1.694125	-0.276847	0.000116
C79	C	1.227292	-0.697398	-0.125186
C80	C	1.235455	-0.652515	0.000037
H81	H	1.148933	-0.718477	-0.125195
H82	H	1.232869	-0.666942	-0.210117
H83	H	1.294530	-0.737220	-0.125153
H84	H	1.168222	-0.612689	-0.000001
H85	H	1.229866	-0.682972	0.084990
H86	H	1.282705	-0.103043	0.000070
