data_functionalizedCrystal
_audit_creation_method	'MofGen! by Chris Wilmer'
_symmetry_space_group_name_H-M	'P1'
_symmetry_Int_Tables_number	1
_symmetry_cell_setting	triclinic
loop_
_symmetry_equiv_pos_as_xyz
  x,y,z
_cell_length_a	14.971486
_cell_length_b	19.188924
_cell_length_c	13.448316
_cell_angle_alpha	89.991325
_cell_angle_beta	89.998199
_cell_angle_gamma	83.378047
loop_
_atom_site_label
_atom_site_type_symbol
_atom_site_fract_x
_atom_site_fract_y
_atom_site_fract_z
O1	O	1.186464	0.090988	-0.082582
O2	O	1.519797	0.424322	0.250751
O3	O	1.853131	0.757655	0.584084
O4	O	0.926006	0.101884	-0.082610
O5	O	1.259339	0.435218	0.250723
O6	O	1.592672	0.768551	0.584057
O7	O	1.063754	-0.005195	-0.082583
O8	O	1.397088	0.328138	0.250750
O9	O	1.730421	0.661471	0.584083
O10	O	1.048715	0.198068	-0.082609
O11	O	1.382049	0.531401	0.250725
O12	O	1.715382	0.864735	0.584058
O13	O	1.063737	-0.005202	0.082800
O14	O	1.397070	0.328131	0.416134
O15	O	1.730404	0.661465	0.749467
O16	O	0.925989	0.101878	0.082774
O17	O	1.259322	0.435211	0.416107
O18	O	1.592655	0.768544	0.749441
O19	O	1.186447	0.090982	0.082802
O20	O	1.519780	0.424315	0.416135
O21	O	1.853113	0.757648	0.749468
Cu22	Cu	1.056216	0.096429	0.097889
Cu23	Cu	1.389549	0.429762	0.431222
Cu24	Cu	1.722883	0.763096	0.764555
Cu25	Cu	1.056236	0.096437	-0.097697
Cu26	Cu	1.389570	0.429770	0.235636
Cu27	Cu	1.722903	0.763104	0.568970
O28	O	1.048698	0.198061	0.082775
O29	O	1.382031	0.531395	0.416109
O30	O	1.715365	0.864728	0.749442
C31	C	0.892675	0.101394	0.000079
C32	C	1.226008	0.434727	0.333412
C33	C	1.559342	0.768060	0.666745
C34	C	0.793386	0.099933	0.000069
C35	C	1.126719	0.433267	0.333402
C36	C	1.460052	0.766600	0.666735
C37	C	0.735826	0.162840	0.000062
C38	C	1.069159	0.496173	0.333396
C39	C	1.402493	0.829507	0.666729
C40	C	0.642534	0.161464	0.000077
C41	C	0.975867	0.494797	0.333411
C42	C	1.309201	0.828130	0.666744
C43	C	0.606803	0.097180	0.000091
C44	C	0.940137	0.430514	0.333425
C45	C	1.273470	0.763847	0.666758
C46	C	0.664370	0.034269	0.000101
C47	C	0.997704	0.367602	0.333434
C48	C	1.331037	0.700936	0.666767
C49	C	0.757661	0.035646	0.000093
C50	C	1.090994	0.368979	0.333426
C51	C	1.424327	0.702313	0.666760
C52	C	0.469923	0.031403	0.000115
C53	C	0.803256	0.364737	0.333448
C54	C	1.136590	0.698070	0.666781
C55	C	0.376626	0.030026	0.000121
C56	C	0.709960	0.363359	0.333454
C57	C	1.043293	0.696693	0.666788
C58	C	0.354796	0.157221	0.000099
C59	C	0.688130	0.490554	0.333432
C60	C	1.021463	0.823888	0.666766
C61	C	0.448087	0.158598	0.000091
C62	C	0.781420	0.491931	0.333425
C63	C	1.114753	0.825265	0.666758
C64	C	0.505647	0.095686	0.000099
C65	C	0.838981	0.429020	0.333432
C66	C	1.172314	0.762353	0.666765
C67	C	1.063260	-0.031211	0.000109
C68	C	1.396593	0.302122	0.333443
C69	C	1.729926	0.635455	0.666776
C70	C	1.061801	-0.108721	0.000112
C71	C	1.395134	0.224612	0.333445
C72	C	1.728468	0.557946	0.666778
C73	C	1.061129	-0.145118	-0.090039
C74	C	1.394463	0.188215	0.243294
C75	C	1.727796	0.521548	0.576627
C76	C	1.059746	-0.217946	-0.090047
C77	C	1.393079	0.115388	0.243286
C78	C	1.726413	0.448721	0.576620
C79	C	1.059052	-0.254374	0.000101
C80	C	1.392385	0.078959	0.333435
C81	C	1.725719	0.412292	0.666768
C82	C	1.059719	-0.217967	0.090264
C83	C	1.393052	0.115366	0.423598
C84	C	1.726385	0.448699	0.756931
C85	C	1.061093	-0.145141	0.090270
C86	C	1.394426	0.188193	0.423603
C87	C	1.727760	0.521526	0.756936
N88	N	1.107787	-0.373883	0.067202
N89	N	1.441121	-0.040550	0.400535
N90	N	1.774454	0.292783	0.733869
N91	N	1.106483	-0.443066	0.067191
N92	N	1.439817	-0.109732	0.400524
N93	N	1.773150	0.223601	0.733858
C94	C	1.054909	-0.473797	0.000091
C95	C	1.388242	-0.140463	0.333425
C96	C	1.721576	0.192870	0.666758
N97	N	1.004699	-0.432733	-0.067012
N98	N	1.338032	-0.099399	0.266321
N99	N	1.671365	0.233934	0.599655
N100	N	1.006006	-0.363544	-0.067004
N101	N	1.339340	-0.030211	0.266330
N102	N	1.672673	0.303122	0.599663
C103	C	1.057561	-0.333343	0.000106
C104	C	1.390894	-0.000009	0.333439
C105	C	1.724228	0.333324	0.666773
C106	C	1.052736	-0.589162	-0.090074
C107	C	1.386069	-0.255828	0.243259
C108	C	1.719403	0.077505	0.576593
C109	C	1.051347	-0.661990	-0.090078
C110	C	1.384680	-0.328656	0.243255
C111	C	1.718014	0.004677	0.576589
C112	C	1.051329	-0.662011	0.090236
C113	C	1.384662	-0.328678	0.423569
C114	C	1.717995	0.004656	0.756903
C115	C	1.052709	-0.589184	0.090237
C116	C	1.386042	-0.255850	0.423571
C117	C	1.719375	0.077483	0.756904
C118	C	1.053417	-0.552764	0.000079
C119	C	1.386750	-0.219430	0.333413
C120	C	1.720083	0.113903	0.666746
C121	C	1.219777	0.091472	0.000111
C122	C	1.553111	0.424806	0.333444
C123	C	1.886444	0.758139	0.666778
C124	C	1.319067	0.092933	0.000115
C125	C	1.652400	0.426266	0.333448
C126	C	1.985733	0.759599	0.666781
C127	C	1.049193	0.224077	0.000080
C128	C	1.382526	0.557411	0.333414
C129	C	1.715859	0.890744	0.666747
C130	C	1.050652	0.301587	0.000071
C131	C	1.383985	0.634920	0.333405
C132	C	1.717318	0.968254	0.666738
N133	N	1.056208	0.096423	0.235453
N134	N	1.389542	0.429757	0.568786
N135	N	1.722875	0.763090	0.902120
N136	N	1.056251	0.096437	-0.235261
N137	N	1.389585	0.429771	0.098072
N138	N	1.722918	0.763104	0.431405
C139	C	1.117222	0.049028	0.287505
C140	C	1.450555	0.382361	0.620838
C141	C	1.783889	0.715694	0.954172
C142	C	1.117228	0.049027	0.391608
C143	C	1.450561	0.382361	0.724942
C144	C	1.783894	0.715694	1.058275
C145	C	1.056223	0.096426	0.443658
C146	C	1.389556	0.429759	0.776991
C147	C	1.722890	0.763093	1.110324
C148	C	0.995203	0.143824	0.391598
C149	C	1.328536	0.477157	0.724932
C150	C	1.661869	0.810490	1.058265
C151	C	0.995194	0.143820	0.287497
C152	C	1.328527	0.477154	0.620830
C153	C	1.661860	0.810487	0.954164
C154	C	0.995228	0.143828	0.608578
C155	C	1.328561	0.477162	0.941912
C156	C	1.661894	0.810495	1.275245
C157	C	0.995238	0.143833	0.712687
C158	C	1.328571	0.477166	1.046020
C159	C	1.661904	0.810499	1.379353
C160	C	1.117262	0.049035	0.712690
C161	C	1.450595	0.382369	1.046023
C162	C	1.783928	0.715702	1.379356
C163	C	1.117252	0.049032	0.608588
C164	C	1.450586	0.382365	0.941922
C165	C	1.783919	0.715699	1.275255
C166	C	1.056233	0.096431	0.556536
C167	C	1.389566	0.429764	0.889869
C168	C	1.722900	0.763097	1.223203
H169	H	0.347538	-0.022319	0.000134
H170	H	0.680871	0.311014	0.333467
H171	H	1.014204	0.644348	0.666800
H172	H	1.061636	-0.115506	0.163684
H173	H	1.394969	0.217827	0.497017
H174	H	1.728303	0.551161	0.830350
H175	H	0.945560	0.182429	0.755060
H176	H	1.278894	0.515762	1.088393
H177	H	1.612227	0.849096	1.421727
H178	H	0.945536	0.182423	0.566201
H179	H	1.278869	0.515757	0.899534
H180	H	1.612203	0.849090	1.232868
H181	H	1.166945	0.010442	0.755077
H182	H	1.500279	0.343775	1.088410
H183	H	1.833612	0.677108	1.421743
C184	C	0.928071	0.195942	0.448845
C185	C	1.261404	0.529275	0.782178
C186	C	1.594737	0.862608	1.115512
H187	H	0.891718	0.224158	0.402932
H188	H	1.225051	0.557491	0.736265
H189	H	1.558385	0.890825	1.069599
H190	H	0.960103	0.225058	0.489457
H191	H	1.293437	0.558392	0.822791
H192	H	1.626770	0.891725	1.156124
H193	H	0.890952	0.170753	0.489451
H194	H	1.224285	0.504086	0.822785
H195	H	1.557619	0.837420	1.156118
C196	C	0.820976	-0.033551	0.000090
C197	C	1.154309	0.299782	0.333423
C198	C	1.487643	0.633116	0.666757
H199	H	0.786337	-0.072034	0.000089
H200	H	1.119670	0.261300	0.333422
H201	H	1.453003	0.594633	0.666755
H202	H	0.857828	-0.035662	0.057758
H203	H	1.191161	0.297671	0.391092
H204	H	1.524494	0.631004	0.724425
H205	H	0.857817	-0.035653	-0.057595
H206	H	1.191150	0.297681	0.275738
H207	H	1.524483	0.631014	0.609072
H208	H	0.516787	-0.019826	0.000122
H209	H	0.850120	0.313507	0.333456
H210	H	1.183454	0.646841	0.666789
C211	C	1.050604	-0.702027	-0.189249
C212	C	1.383937	-0.368693	0.144084
C213	C	1.717271	-0.035360	0.477417
H214	H	1.051230	-0.669904	-0.242939
H215	H	1.384563	-0.336570	0.090394
H216	H	1.717896	-0.003237	0.423728
H217	H	0.997919	-0.725151	-0.193010
H218	H	1.331252	-0.391818	0.140323
H219	H	1.664585	-0.058485	0.473657
H220	H	1.102221	-0.735720	-0.192989
H221	H	1.435554	-0.402387	0.140345
H222	H	1.768887	-0.069054	0.473678
H223	H	1.061703	-0.115470	-0.163453
H224	H	1.395036	0.217864	0.169881
H225	H	1.728370	0.551197	0.503214
H226	H	1.053307	-0.559506	-0.163486
H227	H	1.386641	-0.226173	0.169847
H228	H	1.719974	0.107160	0.503181
H229	H	1.059151	-0.247632	0.163664
H230	H	1.392484	0.085701	0.496997
H231	H	1.725818	0.419035	0.830331
C232	C	0.625073	-0.036443	0.000115
C233	C	0.958407	0.296890	0.333449
C234	C	1.291740	0.630223	0.666782
H235	H	0.672718	-0.073711	0.000126
H236	H	1.006051	0.259622	0.333460
H237	H	1.339384	0.592956	0.666793
H238	H	0.589133	-0.039623	-0.057555
H239	H	0.922467	0.293711	0.275778
H240	H	1.255800	0.627044	0.609112
H241	H	0.589137	-0.039626	0.057798
H242	H	0.922470	0.293707	0.391132
H243	H	1.255804	0.627041	0.724465
H244	H	1.166909	0.010434	0.433989
H245	H	1.500242	0.343767	0.767322
H246	H	1.833576	0.677101	1.100655
H247	H	1.059194	-0.247586	-0.163461
H248	H	1.392527	0.085748	0.169872
H249	H	1.725860	0.419081	0.503206
H250	H	1.050757	-0.691670	0.163637
H251	H	1.384090	-0.358336	0.496970
H252	H	1.717423	-0.025003	0.830303
H253	H	1.053263	-0.559549	0.163648
H254	H	1.386596	-0.226216	0.496981
H255	H	1.719930	0.107118	0.830315
C256	C	0.291488	0.226425	0.000097
C257	C	0.624821	0.559758	0.333430
C258	C	0.958155	0.893091	0.666763
H259	H	0.326129	0.264906	0.000074
H260	H	0.659463	0.598239	0.333408
H261	H	0.992796	0.931573	0.666741
H262	H	0.254645	0.228533	0.057773
H263	H	0.587978	0.561867	0.391106
H264	H	0.921312	0.895200	0.724440
H265	H	0.254639	0.228531	-0.057580
H266	H	0.587972	0.561864	0.275753
H267	H	0.921306	0.895197	0.609087
H268	H	1.166903	0.010433	0.245133
H269	H	1.500236	0.343767	0.578467
H270	H	1.833569	0.677100	0.911800
C271	C	1.184355	-0.003106	0.551335
C272	C	1.517688	0.330228	0.884669
C273	C	1.851022	0.663561	1.218002
H274	H	1.220691	-0.031339	0.597243
H275	H	1.554025	0.301994	0.930577
H276	H	1.887358	0.635328	1.263910
H277	H	1.221479	0.022058	0.510710
H278	H	1.554813	0.355391	0.844043
H279	H	1.888146	0.688724	1.177376
H280	H	1.152285	-0.032214	0.510742
H281	H	1.485618	0.301119	0.844075
H282	H	1.818951	0.634453	1.177409
H283	H	0.764910	0.215187	0.000050
H284	H	1.098243	0.548520	0.333383
H285	H	1.431577	0.881854	0.666717
C286	C	0.487390	0.229308	0.000078
C287	C	0.820723	0.562641	0.333411
C288	C	1.154056	0.895975	0.666744
H289	H	0.439749	0.266579	0.000085
H290	H	0.773082	0.599912	0.333418
H291	H	1.106416	0.933245	0.666751
H292	H	0.523329	0.232491	-0.057596
H293	H	0.856662	0.565824	0.275737
H294	H	1.189995	0.899157	0.609070
H295	H	0.523329	0.232482	0.057757
H296	H	0.856662	0.565815	0.391090
H297	H	1.189995	0.899149	0.724423
C298	C	0.928082	0.195958	0.230240
C299	C	1.261415	0.529291	0.563573
C300	C	1.594749	0.862625	0.896906
H301	H	0.891757	0.224192	0.276146
H302	H	1.225090	0.557526	0.609479
H303	H	1.558423	0.890859	0.942813
H304	H	0.890948	0.170793	0.189642
H305	H	1.224282	0.504126	0.522975
H306	H	1.557615	0.837459	0.856308
H307	H	0.960142	0.225065	0.189618
H308	H	1.293475	0.558399	0.522951
H309	H	1.626808	0.891732	0.856285
H310	H	0.595672	0.212689	0.000071
H311	H	0.929005	0.546022	0.333404
H312	H	1.262339	0.879355	0.666738
