data_functionalizedCrystal
_audit_creation_method	'MofGen! by Chris Wilmer'
_symmetry_space_group_name_H-M	'P1'
_symmetry_Int_Tables_number	1
_symmetry_cell_setting	triclinic
loop_
_symmetry_equiv_pos_as_xyz
  x,y,z
_cell_length_a	15.944551
_cell_length_b	23.532407
_cell_length_c	15.021413
_cell_angle_alpha	89.999348
_cell_angle_beta	89.997174
_cell_angle_gamma	83.173708
loop_
_atom_site_label
_atom_site_type_symbol
_atom_site_fract_x
_atom_site_fract_y
_atom_site_fract_z
O1	O	1.113910	0.073442	-0.073949
O2	O	1.363910	0.323442	0.176051
O3	O	1.613910	0.573442	0.426051
O4	O	1.863910	0.823442	0.676051
O5	O	0.869284	0.082498	-0.073972
O6	O	1.119284	0.332498	0.176028
O7	O	1.369284	0.582498	0.426028
O8	O	1.619284	0.832498	0.676028
O9	O	0.998974	-0.004933	-0.073943
O10	O	1.248974	0.245067	0.176057
O11	O	1.498974	0.495067	0.426057
O12	O	1.748974	0.745067	0.676057
O13	O	0.984220	0.160873	-0.073977
O14	O	1.234220	0.410873	0.176023
O15	O	1.484220	0.660873	0.426023
O16	O	1.734220	0.910873	0.676023
O17	O	0.998953	-0.004921	0.074121
O18	O	1.248953	0.245079	0.324121
O19	O	1.498953	0.495079	0.574121
O20	O	1.748953	0.745079	0.824121
O21	O	0.869263	0.082510	0.074092
O22	O	1.119263	0.332510	0.324092
O23	O	1.369263	0.582510	0.574092
O24	O	1.619263	0.832510	0.824092
O25	O	1.113889	0.073455	0.074116
O26	O	1.363889	0.323455	0.324116
O27	O	1.613889	0.573455	0.574116
O28	O	1.863889	0.823455	0.824116
Zn29	Zn	0.991573	0.077985	0.097612
Zn30	Zn	1.241573	0.327985	0.347612
Zn31	Zn	1.491573	0.577985	0.597612
Zn32	Zn	1.741573	0.827985	0.847612
Zn33	Zn	0.991600	0.077968	-0.097469
Zn34	Zn	1.241600	0.327968	0.152531
Zn35	Zn	1.491600	0.577968	0.402531
Zn36	Zn	1.741600	0.827968	0.652531
O37	O	0.984200	0.160886	0.074087
O38	O	1.234200	0.410886	0.324087
O39	O	1.484200	0.660886	0.574087
O40	O	1.734200	0.910886	0.824087
C41	C	0.837983	0.082128	0.000057
C42	C	1.087983	0.332128	0.250057
C43	C	1.337983	0.582128	0.500057
C44	C	1.587983	0.832128	0.750057
C45	C	0.744746	0.081001	0.000049
C46	C	0.994746	0.331001	0.250049
C47	C	1.244746	0.581001	0.500049
C48	C	1.494746	0.831001	0.750049
C49	C	0.530369	0.024113	0.000078
C50	C	0.780369	0.274113	0.250078
C51	C	1.030369	0.524113	0.500078
C52	C	1.280369	0.774113	0.750078
C53	C	0.469137	0.050524	-0.072931
C54	C	0.719137	0.300524	0.177069
C55	C	0.969137	0.550524	0.427069
C56	C	1.219137	0.800524	0.677069
C57	C	0.574038	0.078962	0.000060
C58	C	0.824038	0.328962	0.250060
C59	C	1.074038	0.578962	0.500060
C60	C	1.324038	0.828962	0.750060
C61	C	0.469138	0.050549	0.073049
C62	C	0.719138	0.300549	0.323049
C63	C	0.969138	0.550549	0.573049
C64	C	1.219138	0.800549	0.823049
C65	C	0.409142	0.076989	0.000075
C66	C	0.659142	0.326989	0.250075
C67	C	0.909142	0.576989	0.500075
C68	C	1.159142	0.826989	0.750075
C69	C	0.514033	0.105388	-0.073009
C70	C	0.764033	0.355388	0.176991
C71	C	1.014033	0.605388	0.426991
C72	C	1.264033	0.855388	0.676991
C73	C	0.514041	0.105405	0.073036
C74	C	0.764041	0.355405	0.323036
C75	C	1.014041	0.605405	0.573036
C76	C	1.264041	0.855405	0.823036
C77	C	0.452826	0.131856	0.000010
C78	C	0.702826	0.381856	0.250010
C79	C	0.952826	0.631856	0.500010
C80	C	1.202826	0.881856	0.750010
C81	C	0.669030	0.080097	0.000051
C82	C	0.919030	0.330097	0.250051
C83	C	1.169030	0.580097	0.500051
C84	C	1.419030	0.830097	0.750051
C85	C	0.314150	0.075858	0.000077
C86	C	0.564150	0.325858	0.250077
C87	C	0.814150	0.575858	0.500077
C88	C	1.064150	0.825858	0.750077
C89	C	0.998588	-0.026144	0.000091
C90	C	1.248588	0.223856	0.250091
C91	C	1.498588	0.473856	0.500091
C92	C	1.748588	0.723856	0.750091
C93	C	0.997458	-0.089366	0.000098
C94	C	1.247458	0.160634	0.250098
C95	C	1.497458	0.410634	0.500098
C96	C	1.747458	0.660634	0.750098
C97	C	1.067121	-0.488199	0.000056
C98	C	1.317121	-0.238199	0.250056
C99	C	1.567121	0.011801	0.500056
C100	C	1.817121	0.261801	0.750056
C101	C	1.066072	-0.547603	0.000049
C102	C	1.316072	-0.297603	0.250049
C103	C	1.566072	-0.047603	0.500049
C104	C	1.816072	0.202397	0.750049
O105	O	1.130650	-0.584098	0.000022
O106	O	1.380650	-0.334098	0.250022
O107	O	1.630650	-0.084098	0.500022
O108	O	1.880650	0.165902	0.750022
N109	N	0.988971	-0.570528	0.000042
N110	N	1.238971	-0.320528	0.250042
N111	N	1.488971	-0.070528	0.500042
N112	N	1.738971	0.179472	0.750042
C113	C	0.912915	-0.534045	0.000033
C114	C	1.162915	-0.284045	0.250033
C115	C	1.412915	-0.034045	0.500033
C116	C	1.662915	0.215955	0.750033
O117	O	0.847239	-0.558999	0.000026
O118	O	1.097239	-0.308999	0.250026
O119	O	1.347239	-0.058999	0.500026
O120	O	1.597239	0.191001	0.750026
C121	C	0.913965	-0.474642	0.000034
C122	C	1.163965	-0.224642	0.250034
C123	C	1.413965	0.025358	0.500034
C124	C	1.663965	0.275358	0.750034
C125	C	0.991071	-0.451721	0.000049
C126	C	1.241071	-0.201721	0.250049
C127	C	1.491071	0.048279	0.500049
C128	C	1.741071	0.298279	0.750049
C129	C	1.144220	-0.465277	0.000070
C130	C	1.394220	-0.215277	0.250070
C131	C	1.644220	0.034723	0.500070
C132	C	1.894220	0.284723	0.750070
C133	C	1.145269	-0.405877	0.000079
C134	C	1.395269	-0.155877	0.250079
C135	C	1.645269	0.094123	0.500079
C136	C	1.895269	0.344123	0.750079
C137	C	1.069219	-0.369399	0.000073
C138	C	1.319219	-0.119399	0.250073
C139	C	1.569219	0.130601	0.500073
C140	C	1.819219	0.380601	0.750073
C141	C	0.992120	-0.392320	0.000058
C142	C	1.242120	-0.142320	0.250058
C143	C	1.492120	0.107680	0.500058
C144	C	1.742120	0.357680	0.750058
C145	C	0.837910	-0.438160	0.000018
C146	C	1.087910	-0.188160	0.250018
C147	C	1.337910	0.061840	0.500018
C148	C	1.587910	0.311840	0.750018
C149	C	0.838967	-0.378754	0.000018
C150	C	1.088967	-0.128754	0.250018
C151	C	1.338967	0.121246	0.500018
C152	C	1.588967	0.371246	0.750018
C153	C	0.916072	-0.355832	0.000034
C154	C	1.166072	-0.105832	0.250034
C155	C	1.416072	0.144168	0.500034
C156	C	1.666072	0.394168	0.750034
C157	C	0.917118	-0.296442	0.000060
C158	C	1.167118	-0.046442	0.250060
C159	C	1.417118	0.203558	0.500060
C160	C	1.667118	0.453558	0.750060
N161	N	0.994219	-0.273517	0.000067
N162	N	1.244219	-0.023517	0.250067
N163	N	1.494219	0.226483	0.500067
N164	N	1.744219	0.476483	0.750067
C165	C	1.070269	-0.309995	0.000073
C166	C	1.320269	-0.059995	0.250073
C167	C	1.570269	0.190005	0.500073
C168	C	1.820269	0.440005	0.750073
C169	C	0.910716	-0.658796	0.000031
C170	C	1.160716	-0.408796	0.250031
C171	C	1.410716	-0.158796	0.500031
C172	C	1.660716	0.091204	0.750031
C173	C	0.909664	-0.718198	0.000037
C174	C	1.159664	-0.468198	0.250037
C175	C	1.409664	-0.218198	0.500037
C176	C	1.659664	0.031802	0.750037
C177	C	1.062821	-0.731752	0.000050
C178	C	1.312821	-0.481752	0.250050
C179	C	1.562821	-0.231752	0.500050
C180	C	1.812821	0.018248	0.750050
C181	C	1.063872	-0.672349	0.000051
C182	C	1.313872	-0.422349	0.250051
C183	C	1.563872	-0.172349	0.500051
C184	C	1.813872	0.077651	0.750051
C185	C	0.987816	-0.635871	0.000037
C186	C	1.237816	-0.385871	0.250037
C187	C	1.487816	-0.135871	0.500037
C188	C	1.737816	0.114129	0.750037
C189	C	1.072466	-0.185250	0.000092
C190	C	1.322466	0.064750	0.250092
C191	C	1.572466	0.314750	0.500092
C192	C	1.822466	0.564750	0.750092
C193	C	1.073508	-0.125844	0.000104
C194	C	1.323508	0.124156	0.250104
C195	C	1.573508	0.374156	0.500104
C196	C	1.823508	0.624156	0.750104
C197	C	0.920352	-0.112295	0.000085
C198	C	1.170352	0.137705	0.250085
C199	C	1.420352	0.387705	0.500085
C200	C	1.670352	0.637705	0.750085
C201	C	0.919309	-0.171696	0.000078
C202	C	1.169309	0.078304	0.250078
C203	C	1.419309	0.328304	0.500078
C204	C	1.669309	0.578304	0.750078
C205	C	0.995373	-0.208173	0.000078
C206	C	1.245373	0.041827	0.250078
C207	C	1.495373	0.291827	0.500078
C208	C	1.745373	0.541827	0.750078
O209	O	0.852574	-0.259913	0.000083
O210	O	1.102574	-0.009913	0.250083
O211	O	1.352574	0.240087	0.500083
O212	O	1.602574	0.490087	0.750083
O213	O	1.135935	-0.285033	0.000069
O214	O	1.385935	-0.035033	0.250069
O215	O	1.635935	0.214967	0.500069
O216	O	1.885935	0.464967	0.750069
C217	C	1.145190	0.073824	0.000084
C218	C	1.395190	0.323824	0.250084
C219	C	1.645190	0.573824	0.500084
C220	C	1.895190	0.823824	0.750084
C221	C	1.238427	0.074951	0.000087
C222	C	1.488427	0.324951	0.250087
C223	C	1.738427	0.574951	0.500087
C224	C	1.988427	0.824951	0.750087
C225	C	0.984586	0.182097	0.000051
C226	C	1.234586	0.432097	0.250051
C227	C	1.484586	0.682097	0.500051
C228	C	1.734586	0.932097	0.750051
C229	C	0.985715	0.245318	0.000038
C230	C	1.235715	0.495318	0.250038
C231	C	1.485715	0.745318	0.500038
C232	C	1.735715	0.995318	0.750038
N233	N	0.991561	0.077995	0.230750
N234	N	1.241561	0.327995	0.480750
N235	N	1.491561	0.577995	0.730750
N236	N	1.741561	0.827995	0.980750
N237	N	0.991619	0.077953	-0.230606
N238	N	1.241619	0.327953	0.019394
N239	N	1.491619	0.577953	0.269394
N240	N	1.741619	0.827953	0.519394
C241	C	0.931583	0.118404	0.470420
C242	C	1.181583	0.368404	0.720420
C243	C	1.431583	0.618404	0.970420
C244	C	1.681583	0.868404	1.220420
C245	C	1.007390	0.129461	0.529759
C246	C	1.257390	0.379461	0.779759
C247	C	1.507390	0.629461	1.029759
C248	C	1.757390	0.879461	1.279759
C249	C	0.991582	0.077981	0.412357
C250	C	1.241582	0.327981	0.662357
C251	C	1.491582	0.577981	0.912357
C252	C	1.741582	0.827981	1.162357
C253	C	0.915796	0.066938	0.529760
C254	C	1.165796	0.316938	0.779760
C255	C	1.415796	0.566938	1.029760
C256	C	1.665796	0.816938	1.279760
C257	C	0.991596	0.077969	0.587781
C258	C	1.241596	0.327969	0.837781
C259	C	1.491596	0.577969	1.087781
C260	C	1.741596	0.827969	1.337781
C261	C	1.067428	0.089063	0.470389
C262	C	1.317428	0.339063	0.720389
C263	C	1.567428	0.589063	0.970389
C264	C	1.817428	0.839063	1.220389
C265	C	0.975783	0.026518	0.470385
C266	C	1.225783	0.276518	0.720385
C267	C	1.475783	0.526518	0.970385
C268	C	1.725783	0.776518	1.220385
C269	C	1.051645	0.037552	0.529697
C270	C	1.301645	0.287552	0.779697
C271	C	1.551645	0.537552	1.029697
C272	C	1.801645	0.787552	1.279697
C273	C	0.991573	0.077990	0.311300
C274	C	1.241573	0.327990	0.561300
C275	C	1.491573	0.577990	0.811300
C276	C	1.741573	0.827990	1.061300
C277	C	0.991614	0.077960	0.688836
C278	C	1.241614	0.327960	0.938836
C279	C	1.491614	0.577960	1.188836
C280	C	1.741614	0.827960	1.438836
H281	H	0.449230	0.027320	-0.134645
H282	H	0.699230	0.277320	0.115355
H283	H	0.949230	0.527320	0.365355
H284	H	1.199230	0.777320	0.615355
Br285	Br	1.136311	-0.019437	0.572812
Br286	Br	1.386311	0.230563	0.822812
Br287	Br	1.636311	0.480563	1.072812
Br288	Br	1.886311	0.730563	1.322812
Br289	Br	0.547029	0.144018	-0.175999
Br290	Br	0.797029	0.394018	0.074001
Br291	Br	1.047029	0.644018	0.324001
Br292	Br	1.297029	0.894018	0.574001
H293	H	1.131539	0.098450	0.444420
H294	H	1.381539	0.348450	0.694420
H295	H	1.631539	0.598450	0.944420
H296	H	1.881539	0.848450	1.194420
H297	H	0.851698	0.057603	0.555841
H298	H	1.101698	0.307603	0.805841
H299	H	1.351698	0.557603	1.055841
H300	H	1.601698	0.807603	1.305841
Br301	Br	0.396916	0.207802	-0.000068
Br302	Br	0.646916	0.457802	0.249932
Br303	Br	0.896916	0.707802	0.499932
Br304	Br	1.146916	0.957802	0.749932
Br305	Br	0.847098	0.175424	0.427034
Br306	Br	1.097098	0.425424	0.677034
Br307	Br	1.347098	0.675424	0.927034
Br308	Br	1.597098	0.925424	1.177034
H309	H	0.564086	-0.021407	-0.000003
H310	H	0.814086	0.228593	0.249997
H311	H	1.064086	0.478593	0.499997
H312	H	1.314086	0.728593	0.749997
H313	H	1.126658	-0.653691	0.000063
H314	H	1.376658	-0.403691	0.250063
H315	H	1.626658	-0.153691	0.500063
H316	H	1.876658	0.096309	0.750063
Br317	Br	0.547258	0.144050	0.175904
Br318	Br	0.797258	0.394050	0.425904
Br319	Br	1.047258	0.644050	0.675904
Br320	Br	1.297258	0.894050	0.925904
Br321	Br	0.817146	-0.062778	0.000077
Br322	Br	1.067146	0.187222	0.250077
Br323	Br	1.317146	0.437222	0.500077
Br324	Br	1.567146	0.687222	0.750077
H325	H	0.449239	0.027346	0.134770
H326	H	0.699239	0.277346	0.384770
H327	H	0.949239	0.527346	0.634770
H328	H	1.199239	0.777346	0.884770
H329	H	1.136300	-0.107185	0.000119
H330	H	1.386300	0.142815	0.250119
H331	H	1.636300	0.392815	0.500119
H332	H	1.886300	0.642815	0.750119
Br333	Br	0.953451	-0.045991	0.426879
Br334	Br	1.203451	0.204009	0.676879
Br335	Br	1.453451	0.454009	0.926879
Br336	Br	1.703451	0.704009	1.176879
Br337	Br	1.175697	-0.234745	0.000091
Br338	Br	1.425697	0.015255	0.250091
Br339	Br	1.675697	0.265255	0.500091
Br340	Br	1.925697	0.515255	0.750091
H341	H	1.208056	-0.387220	0.000088
H342	H	1.458056	-0.137220	0.250088
H343	H	1.708056	0.112780	0.500088
H344	H	1.958056	0.362780	0.750088
H345	H	1.206153	-0.494973	0.000072
H346	H	1.456153	-0.244973	0.250072
H347	H	1.706153	0.005027	0.500072
H348	H	1.956153	0.255027	0.750072
H349	H	1.124746	-0.761464	0.000052
H350	H	1.374746	-0.511464	0.250052
H351	H	1.624746	-0.261464	0.500052
H352	H	1.874746	-0.011464	0.750052
Br353	Br	0.805017	-0.749298	0.000036
Br354	Br	1.055017	-0.499298	0.250036
Br355	Br	1.305017	-0.249298	0.500036
Br356	Br	1.555017	0.000702	0.750036
Br357	Br	1.029688	0.201989	0.573227
Br358	Br	1.279688	0.451989	0.823227
Br359	Br	1.529688	0.701989	1.073227
Br360	Br	1.779688	0.951989	1.323227
H361	H	0.848778	-0.629098	0.000027
H362	H	1.098778	-0.379098	0.250027
H363	H	1.348778	-0.129098	0.500027
H364	H	1.598778	0.120902	0.750027
H365	H	0.775123	-0.456812	0.000000
H366	H	1.025123	-0.206812	0.250000
H367	H	1.275123	0.043188	0.500000
H368	H	1.525123	0.293188	0.750000
H369	H	0.777032	-0.349056	0.000006
H370	H	1.027032	-0.099056	0.250006
H371	H	1.277032	0.150944	0.500006
H372	H	1.527032	0.400944	0.750006
H373	H	0.856524	-0.190359	0.000090
H374	H	1.106524	0.059641	0.250090
H375	H	1.356524	0.309641	0.500090
H376	H	1.606524	0.559641	0.750090
