data_functionalizedCrystal
_audit_creation_method	'MofGen! by Chris Wilmer'
_symmetry_space_group_name_H-M	'P1'
_symmetry_Int_Tables_number	1
_symmetry_cell_setting	triclinic
loop_
_symmetry_equiv_pos_as_xyz
  x,y,z
_cell_length_a	11.026607
_cell_length_b	16.109301
_cell_length_c	15.186229
_cell_angle_alpha	89.986602
_cell_angle_beta	89.994409
_cell_angle_gamma	96.023749
loop_
_atom_site_label
_atom_site_type_symbol
_atom_site_fract_x
_atom_site_fract_y
_atom_site_fract_z
O1	O	-1.610030	-0.348140	0.073244
O2	O	-1.110030	0.151860	0.573244
O3	O	-1.256740	-0.308498	0.073243
O4	O	-0.756740	0.191502	0.573243
O5	O	-1.443090	-0.208743	0.073234
O6	O	-0.943090	0.291257	0.573234
O7	O	-1.423680	-0.447896	0.073252
O8	O	-0.923680	0.052104	0.573252
O9	O	-1.443065	-0.208718	-0.073223
O10	O	-0.943065	0.291282	0.426777
O11	O	-1.256714	-0.308474	-0.073214
O12	O	-0.756714	0.191526	0.426786
O13	O	-1.610005	-0.348116	-0.073214
O14	O	-1.110005	0.151884	0.426786
Zn15	Zn	-1.433356	-0.328291	-0.096467
Zn16	Zn	-0.933356	0.171709	0.403533
Zn17	Zn	-1.433389	-0.328323	0.096497
Zn18	Zn	-0.933389	0.171677	0.596497
O19	O	-1.423654	-0.447871	-0.073205
O20	O	-0.923654	0.052129	0.426795
C21	C	-1.211519	-0.301173	0.000014
C22	C	-0.711519	0.198827	0.500014
C23	C	-1.076814	-0.279372	0.000014
C24	C	-0.576814	0.220628	0.500014
C25	C	-1.442291	-0.177638	0.000005
C26	C	-0.942291	0.322362	0.500005
C27	C	-1.439934	-0.084989	0.000004
C28	C	-0.939934	0.415011	0.500004
C29	C	-1.655225	-0.355441	0.000017
C30	C	-1.155225	0.144559	0.500017
C31	C	-1.789931	-0.377242	0.000023
C32	C	-1.289931	0.122758	0.500023
C33	C	-1.002984	-0.339568	0.000019
C34	C	-0.502984	0.160432	0.500019
C35	C	-0.863759	-0.317037	0.000018
C36	C	-0.363759	0.182963	0.500018
C37	C	-1.424453	-0.478976	0.000026
C38	C	-0.924453	0.021024	0.500026
C39	C	-1.426811	-0.571625	0.000033
C40	C	-0.926811	-0.071625	0.500033
N41	N	-1.433342	-0.328270	-0.228160
N42	N	-0.933342	0.171730	0.271840
C43	C	-1.545030	0.121535	0.000018
C44	C	-1.045030	0.621535	0.500018
C45	C	-1.542805	0.208588	0.000025
C46	C	-1.042805	0.708588	0.500025
C47	C	-1.321707	0.221846	0.000022
C48	C	-0.821707	0.721846	0.500022
C49	C	-1.323932	0.134794	0.000021
C50	C	-0.823932	0.634794	0.500021
C51	C	-1.435597	0.084640	0.000014
C52	C	-0.935597	0.584640	0.500014
C53	C	-1.431147	0.258746	0.000023
C54	C	-0.931147	0.758746	0.500023
C55	C	-1.428735	0.353133	0.000030
C56	C	-0.928735	0.853133	0.500030
C57	C	-1.438011	-0.009754	0.000008
C58	C	-0.938011	0.490246	0.500008
C59	C	-1.359811	-0.266848	-0.546116
C60	C	-0.859811	0.233152	-0.046116
C61	C	-1.359800	-0.266835	-0.453927
C62	C	-0.859800	0.233165	0.046073
C63	C	-1.506952	-0.389764	-0.453861
C64	C	-1.006952	0.110236	0.046139
C65	C	-1.506968	-0.389773	-0.546049
C66	C	-1.006968	0.110227	-0.046049
C67	C	-1.433390	-0.328316	-0.592174
C68	C	-0.933390	0.171684	-0.092174
C69	C	-1.433364	-0.328293	-0.407797
C70	C	-0.933364	0.171707	0.092203
C71	C	-1.433353	-0.328279	-0.307840
C72	C	-0.933353	0.171721	0.192160
C73	C	-1.433402	-0.328329	-0.692137
C74	C	-0.933402	0.171671	-0.192137
N75	N	-1.433413	-0.328339	0.228189
N76	N	-0.933413	0.171661	0.728189
H77	H	-1.042849	-0.407784	0.000019
H78	H	-0.542849	0.092216	0.500019
H79	H	-0.823900	-0.248817	0.000036
H80	H	-0.323900	0.251183	0.500036
H81	H	-1.631916	0.238623	0.000030
H82	H	-1.131916	0.738623	0.500030
Cl83	Cl	-1.685408	0.058487	0.000012
Cl84	Cl	-1.185408	0.558487	0.500012
H85	H	-1.036949	-0.211156	0.000031
H86	H	-0.536949	0.288844	0.500031
Cl87	Cl	-1.181336	0.284901	0.000029
Cl88	Cl	-0.681336	0.784901	0.500029
H89	H	-0.829788	-0.445463	0.000023
H90	H	-0.329788	0.054537	0.500023
Cl91	Cl	-1.186349	0.088408	0.000024
Cl92	Cl	-0.686349	0.588408	0.500024
Cl93	Cl	-1.267319	-0.189585	-0.604099
Cl94	Cl	-0.767319	0.310415	-0.104099
Cl95	Cl	-1.267289	-0.189561	-0.396029
Cl96	Cl	-0.767289	0.310439	0.103971
Cl97	Cl	-1.599482	-0.467051	-0.603955
Cl98	Cl	-1.099482	0.032949	-0.103955
H99	H	-1.566855	-0.439801	-0.416295
H100	H	-1.066855	0.060199	0.083705
