data_functionalizedCrystal
_audit_creation_method	'MofGen! by Chris Wilmer'
_symmetry_space_group_name_H-M	'P1'
_symmetry_Int_Tables_number	1
_symmetry_cell_setting	triclinic
loop_
_symmetry_equiv_pos_as_xyz
  x,y,z
_cell_length_a	18.101398
_cell_length_b	18.101397
_cell_length_c	12.759393
_cell_angle_alpha	90.037652
_cell_angle_beta	90.017030
_cell_angle_gamma	90.018618
loop_
_atom_site_label
_atom_site_type_symbol
_atom_site_fract_x
_atom_site_fract_y
_atom_site_fract_z
Zn1	Zn	1.132195	-0.294822	0.593896
Zn2	Zn	1.132108	-0.418684	0.418197
Zn3	Zn	1.008348	-0.294857	0.418240
Zn4	Zn	1.008328	-0.418623	0.593843
O5	O	1.070245	-0.356747	0.506044
O6	O	1.235817	-0.311264	0.570593
O7	O	1.115664	-0.402298	0.271182
O8	O	1.024822	-0.191219	0.441581
O9	O	1.235753	-0.402265	0.441508
O10	O	1.115812	-0.191194	0.570634
O11	O	1.024738	-0.311323	0.271213
O12	O	0.904713	-0.311263	0.441530
O13	O	1.024787	-0.402160	0.740871
O14	O	0.904698	-0.402194	0.570545
O15	O	1.115792	-0.311205	0.740910
O16	O	1.115644	-0.522309	0.441457
O17	O	1.024703	-0.522264	0.570504
C18	C	0.877835	-0.356726	0.506037
C19	C	0.795520	-0.356735	0.506059
C20	C	0.644812	-0.356749	0.506057
C21	C	0.613474	-0.414048	0.587104
C22	C	0.527855	-0.414280	0.586864
C23	C	0.496429	-0.356763	0.506057
C24	C	0.527482	-0.377598	0.395198
C25	C	0.613127	-0.378006	0.395667
C26	C	0.613277	-0.278472	0.534901
C27	C	0.527627	-0.278901	0.537342
C28	C	0.412570	-0.356769	0.506050
C29	C	0.728671	-0.356744	0.506056
C30	C	1.070182	-0.549157	0.505993
C31	C	1.070222	-0.631471	0.506006
C32	C	1.070317	-0.930562	0.506102
C33	C	1.127375	-0.899234	0.424692
C34	C	1.127573	-0.813616	0.424903
C35	C	1.070270	-0.782180	0.506054
C36	C	1.091430	-0.813178	0.616794
C37	C	1.091871	-0.898823	0.616350
C38	C	0.991947	-0.899071	0.477731
C39	C	0.992334	-0.813422	0.475259
C40	C	1.070242	-0.698320	0.506033
C41	C	1.070346	-1.014422	0.506130
C42	C	1.263407	-0.356768	0.506052
C43	C	1.345721	-0.356776	0.506055
C44	C	1.070297	-0.356672	0.780077
C45	C	1.070319	-0.356640	0.896854
C46	C	1.070329	-0.163585	0.506118
C47	C	1.070365	-0.081270	0.506150
C48	C	1.070236	-0.356767	0.233077
C49	C	1.070357	-0.356591	0.116300
C50	C	1.117712	-0.309275	0.951738
C51	C	1.117729	-0.309248	1.061462
C52	C	1.022959	-0.403958	1.061409
C53	C	1.022939	-0.403980	0.951687
C54	C	1.165092	-0.261935	0.896905
C55	C	1.212489	-0.214566	0.951789
C56	C	1.212507	-0.214539	1.061514
C57	C	1.165127	-0.261881	1.116354
H58	H	0.633857	-0.338056	0.333208
H59	H	1.165085	-0.261953	0.807563
N60	N	0.936121	-0.786590	0.544179
N61	N	0.883415	-0.749777	0.508465
H62	H	0.843715	-0.730827	0.557147
H63	H	1.165137	-0.261847	1.205699
N64	N	0.938619	-0.924501	0.552107
N65	N	0.927534	-0.992200	0.563295
H66	H	0.889877	-1.010164	0.615826
H67	H	0.984336	-0.442538	0.906999
H68	H	0.507343	-0.472287	0.567727
H69	H	0.633079	-0.435216	0.371289
N70	N	0.502188	-0.259160	0.639691
N71	N	0.547657	-0.247262	0.711500
H72	H	0.529690	-0.233318	0.783785
N73	N	0.501945	-0.326845	0.317370
N74	N	0.460474	-0.274628	0.342800
H75	H	0.442437	-0.238781	0.287836
N76	N	0.500785	-0.222515	0.468757
N77	N	0.432911	-0.210929	0.461371
H78	H	0.413951	-0.171109	0.412925
N79	N	0.500539	-0.448581	0.364098
N80	N	0.458476	-0.483945	0.423387
H81	H	0.439447	-0.534079	0.401428
H82	H	1.251094	-0.175965	1.106197
H83	H	0.633544	-0.235785	0.475876
H84	H	0.634902	-0.259438	0.614377
N85	N	0.972293	-0.788011	0.373036
N86	N	0.911858	-0.806767	0.333756
H87	H	0.897703	-0.788815	0.261563
H88	H	1.251059	-0.176018	0.907131
H89	H	0.984385	-0.442501	1.106069
H90	H	1.185109	-0.920703	0.443248
H91	H	1.051142	-0.792812	0.679081
N92	N	1.110944	-0.787338	0.321896
N93	N	1.050920	-0.803974	0.279542
H94	H	1.039173	-0.785424	0.206787
N95	N	0.501524	-0.397967	0.689967
N96	N	0.546401	-0.386332	0.762606
H97	H	0.527809	-0.374812	0.835428
H98	H	1.114296	-0.919884	0.342334
N99	N	1.200401	-0.787850	0.448449
N100	N	1.251240	-0.833120	0.464786
H101	H	1.302678	-0.814925	0.481418
N102	N	1.041995	-0.924826	0.695024
N103	N	0.975085	-0.908060	0.690595
H104	H	0.939862	-0.926423	0.746159
H105	H	1.149156	-0.918742	0.640384
N106	N	0.640433	-0.486407	0.563419
N107	N	0.677939	-0.520850	0.629559
H108	H	0.696979	-0.571955	0.612833
H109	H	0.634094	-0.401200	0.669546
H110	H	1.148073	-0.791670	0.641234
H111	H	0.972698	-0.920738	0.398380
