data_functionalizedCrystal
_audit_creation_method	'MofGen! by Chris Wilmer'
_symmetry_space_group_name_H-M	'P1'
_symmetry_Int_Tables_number	1
_symmetry_cell_setting	triclinic
loop_
_symmetry_equiv_pos_as_xyz
  x,y,z
_cell_length_a	10.685594
_cell_length_b	10.686220
_cell_length_c	10.685910
_cell_angle_alpha	90.323968
_cell_angle_beta	89.672925
_cell_angle_gamma	81.595529
loop_
_atom_site_label
_atom_site_type_symbol
_atom_site_fract_x
_atom_site_fract_y
_atom_site_fract_z
Zn1	Zn	-0.307655	-1.950470	0.587647
Zn2	Zn	-0.535744	-1.918263	0.396603
Zn3	Zn	-0.339809	-1.722387	0.396599
Zn4	Zn	-0.533304	-1.724793	0.622185
O5	O	-0.429128	-1.828978	0.500759
O6	O	-0.325477	-2.122618	0.547852
O7	O	-0.524231	-1.877794	0.222241
O8	O	-0.159109	-1.765115	0.407487
O9	O	-0.493053	-2.098956	0.407492
O10	O	-0.135486	-1.932686	0.547849
O11	O	-0.380278	-1.733885	0.222238
O12	O	-0.377911	-1.546286	0.440976
O13	O	-0.488893	-1.769215	0.791965
O14	O	-0.520071	-1.548053	0.606714
O15	O	-0.323110	-1.935019	0.766590
O16	O	-0.711855	-1.880127	0.440982
O17	O	-0.710062	-1.737985	0.606717
C18	C	-0.452216	-1.501426	0.527593
C19	C	-0.462121	-1.361297	0.539105
C20	C	-0.756701	-1.805859	0.527622
C21	C	-0.896827	-1.796087	0.539147
C22	C	-0.402143	-1.855978	0.825752
C23	C	-0.390643	-1.867484	0.964245
C24	C	-0.100271	-1.852225	0.473815
C25	C	0.039869	-1.862131	0.462333
C26	C	-0.405950	-2.157810	0.473820
C27	C	-0.396074	-2.297938	0.462341
C28	C	-0.456039	-1.802074	1.177033
C29	C	-0.467545	-1.790575	1.038540
H30	H	-0.949836	-1.732068	0.613736
H31	H	-0.907129	-1.926157	0.387757
H32	H	-0.331950	-1.350896	0.387811
C33	C	-0.289813	-1.968339	1.021444
H34	H	-0.295046	-1.963102	1.110145
H35	H	-0.304042	-2.049992	0.994740
H36	H	-0.208140	-1.954124	0.994748
H37	H	-0.526258	-1.308332	0.613632
H38	H	-0.542186	-1.715931	0.996196
