data_functionalizedCrystal
_audit_creation_method	'MofGen! by Chris Wilmer'
_symmetry_space_group_name_H-M	'P1'
_symmetry_Int_Tables_number	1
_symmetry_cell_setting	triclinic
loop_
_symmetry_equiv_pos_as_xyz
  x,y,z
_cell_length_a	14.044220
_cell_length_b	16.176319
_cell_length_c	17.699092
_cell_angle_alpha	90.001079
_cell_angle_beta	88.237623
_cell_angle_gamma	89.997191
loop_
_atom_site_label
_atom_site_type_symbol
_atom_site_fract_x
_atom_site_fract_y
_atom_site_fract_z
O1	O	1.257298	-0.068653	0.182437
O2	O	1.757298	0.431347	0.682437
O3	O	0.981344	-0.068674	0.175853
O4	O	1.481344	0.431326	0.675853
O5	O	1.127113	-0.068661	0.069494
O6	O	1.627113	0.431339	0.569494
O7	O	1.111528	-0.068666	0.288796
O8	O	1.611528	0.431334	0.788796
O9	O	1.127091	0.068832	0.069499
O10	O	1.627091	0.568832	0.569499
O11	O	0.981322	0.068819	0.175858
O12	O	1.481322	0.568819	0.675858
O13	O	1.257276	0.068840	0.182442
O14	O	1.757276	0.568840	0.682442
Cu15	Cu	1.119297	0.081384	0.179150
Cu16	Cu	1.619297	0.581384	0.679150
Cu17	Cu	1.119323	-0.081218	0.179144
Cu18	Cu	1.619323	0.418782	0.679144
O19	O	1.111506	0.068827	0.288801
O20	O	1.611506	0.568827	0.788801
C21	C	0.946025	0.000070	0.172974
C22	C	1.446025	0.500070	0.672974
C23	C	0.840818	0.000062	0.164378
C24	C	1.340818	0.500062	0.664378
N25	N	1.119342	-0.195583	0.179135
N26	N	1.619342	0.304417	0.679135
C27	C	1.126542	0.000084	0.041261
C28	C	1.626542	0.500084	0.541261
C29	C	1.124863	0.000080	-0.042873
C30	C	1.624863	0.500080	0.457127
C31	C	0.648193	0.000078	0.148663
C32	C	1.148193	0.500078	0.648663
C33	C	0.590421	0.000081	0.209629
C34	C	1.090421	0.500081	0.709629
C35	C	0.483238	0.000090	0.200884
C36	C	0.983238	0.500090	0.700884
C37	C	0.755386	0.000069	0.157406
C38	C	1.255386	0.500069	0.657406
C39	C	1.292595	0.000095	0.185321
C40	C	1.792595	0.500095	0.685321
C41	C	1.397801	0.000097	0.193917
C42	C	1.897801	0.500097	0.693917
N43	N	1.119285	0.195749	0.179154
N44	N	1.619285	0.695749	0.679154
C45	C	1.183896	0.761137	0.132058
C46	C	1.683896	1.261137	0.632058
C47	C	1.183892	0.674590	0.132063
C48	C	1.683892	1.174590	0.632063
C49	C	1.119328	0.631324	0.179141
C50	C	1.619328	1.131324	0.679141
C51	C	1.054770	0.674610	0.226224
C52	C	1.554770	1.174610	0.726224
C53	C	1.054780	0.761156	0.226222
C54	C	1.554780	1.261156	0.726222
C55	C	1.054732	0.325582	0.226232
C56	C	1.554732	0.825582	0.726232
C57	C	1.054725	0.239030	0.226228
C58	C	1.554725	0.739030	0.726228
C59	C	1.183844	0.239017	0.132072
C60	C	1.683844	0.739017	0.632072
C61	C	1.183854	0.325562	0.132071
C62	C	1.683854	0.825562	0.632071
C63	C	1.119300	0.368840	0.179156
C64	C	1.619300	0.868840	0.679156
C65	C	1.119306	0.462684	0.179151
C66	C	1.619306	0.962684	0.679151
C67	C	1.119316	0.537482	0.179143
C68	C	1.619316	1.037482	0.679143
C69	C	1.124088	-0.074868	-0.082397
C70	C	1.624088	0.425132	0.417603
C71	C	1.122504	-0.074869	-0.161450
C72	C	1.622504	0.425131	0.338550
C73	C	1.121702	0.000079	-0.200976
C74	C	1.621702	0.500079	0.299024
C75	C	1.122474	0.075033	-0.161446
C76	C	1.622474	0.575033	0.338554
C77	C	1.124051	0.075034	-0.082395
C78	C	1.624051	0.575034	0.417605
C79	C	1.116112	0.075034	-0.480250
C80	C	1.616112	0.575034	0.019750
C81	C	1.114538	0.075028	-0.559307
C82	C	1.614538	0.575028	-0.059307
C83	C	1.114566	-0.074869	-0.559304
C84	C	1.614566	0.425131	-0.059304
C85	C	1.116143	-0.074869	-0.480253
C86	C	1.616143	0.425131	0.019747
C87	C	1.116910	0.000085	-0.440730
C88	C	1.616910	0.500085	0.059270
C89	C	1.118625	0.000085	-0.355013
C90	C	1.618625	0.500085	0.144987
C91	C	1.119993	0.000080	-0.286692
C92	C	1.619993	0.500080	0.213308
C93	C	1.112077	0.000080	0.317034
C94	C	1.612077	0.500080	0.817034
C95	C	1.113756	0.000079	0.401168
C96	C	1.613756	0.500079	0.901168
H97	H	0.621459	0.000075	0.268390
H98	H	1.121459	0.500075	0.768390
N99	N	0.609249	0.000086	0.074956
N100	N	1.109249	0.500086	0.574956
N101	N	0.520969	0.000092	0.067869
N102	N	1.020969	0.500092	0.567869
H103	H	0.493454	0.000096	0.015814
H104	H	0.993454	0.500096	0.515814
H105	H	1.121878	-0.135900	-0.193627
H106	H	1.621878	0.364100	0.306373
N107	N	1.249847	0.805316	0.083956
N108	N	1.749847	1.305316	0.583956
N109	N	1.307481	0.766659	0.041927
N110	N	1.807481	1.266659	0.541927
H111	H	1.354062	0.797857	0.007954
H112	H	1.854062	1.297857	0.507954
H113	H	1.236458	0.639352	0.093730
H114	H	1.736458	1.139352	0.593730
N115	N	1.249736	0.194792	0.083943
N116	N	1.749736	0.694792	0.583943
N117	N	1.248528	0.204459	0.013910
N118	N	1.748528	0.704459	0.513910
H119	H	1.295039	0.173218	-0.020094
H120	H	1.795039	0.673218	0.479906
H121	H	1.236425	0.360787	0.093733
H122	H	1.736425	0.860787	0.593733
N123	N	1.113689	0.151590	-0.599682
N124	N	1.613689	0.651590	-0.099682
N125	N	1.046023	0.168296	-0.641326
N126	N	1.546023	0.668296	-0.141326
H127	H	1.045422	0.222365	-0.669842
H128	H	1.545422	0.722365	-0.169842
N129	N	1.124889	-0.151428	-0.042026
N130	N	1.624889	0.348572	0.457974
N131	N	1.058989	-0.168157	0.004550
N132	N	1.558989	0.331843	0.504550
H133	H	1.059550	-0.222230	0.033061
H134	H	1.559550	0.277770	0.533061
H135	H	1.002168	0.360812	0.264568
H136	H	1.502168	0.860812	0.764568
H137	H	1.002148	0.203805	0.264567
H138	H	1.502148	0.703805	0.764567
N139	N	0.988832	0.630405	0.274315
N140	N	1.488832	1.130405	0.774315
N141	N	0.988831	0.553133	0.274310
N142	N	1.488831	1.053133	0.774310
H143	H	0.942259	0.521913	0.308275
H144	H	1.442259	1.021913	0.808275
N145	N	0.988833	0.805355	0.274316
N146	N	1.488833	1.305355	0.774316
N147	N	0.931190	0.766717	0.316346
N148	N	1.431190	1.266717	0.816346
H149	H	0.884614	0.797931	0.350316
H150	H	1.384614	1.297931	0.850316
N151	N	1.116922	0.151593	-0.439883
N152	N	1.616922	0.651593	0.060117
N153	N	1.184579	0.168322	-0.398239
N154	N	1.684579	0.668322	0.101761
H155	H	1.185153	0.222395	-0.369726
H156	H	1.685153	0.722395	0.130274
H157	H	1.116801	-0.135899	-0.448075
H158	H	1.616801	0.364101	0.051925
H159	H	1.113936	-0.135900	-0.591494
H160	H	1.613936	0.364100	-0.091494
H161	H	1.121815	0.136058	-0.193635
H162	H	1.621815	0.636058	0.306365
H163	H	1.124669	0.136064	-0.050215
H164	H	1.624669	0.636064	0.449785
