data_functionalizedCrystal
_audit_creation_method	'MofGen! by Chris Wilmer'
_symmetry_space_group_name_H-M	'P1'
_symmetry_Int_Tables_number	1
_symmetry_cell_setting	triclinic
loop_
_symmetry_equiv_pos_as_xyz
  x,y,z
_cell_length_a	19.121063
_cell_length_b	16.625548
_cell_length_c	19.120904
_cell_angle_alpha	92.421026
_cell_angle_beta	85.258387
_cell_angle_gamma	87.531074
loop_
_atom_site_label
_atom_site_type_symbol
_atom_site_fract_x
_atom_site_fract_y
_atom_site_fract_z
Zn1	Zn	-0.297115	-1.197998	0.409803
Zn2	Zn	0.202885	-0.697998	0.909803
Zn3	Zn	-0.409762	-1.197899	0.297153
Zn4	Zn	0.090238	-0.697899	0.797153
Zn5	Zn	-0.292115	-1.069176	0.292152
Zn6	Zn	0.207885	-0.569176	0.792152
Zn7	Zn	-0.414741	-1.057114	0.414770
Zn8	Zn	0.085259	-0.557114	0.914770
O9	O	-0.353433	-1.130547	0.353470
O10	O	0.146567	-0.630547	0.853470
O11	O	-0.312066	-1.310816	0.394874
O12	O	0.187934	-0.810816	0.894874
O13	O	-0.389979	-1.185830	0.198030
O14	O	0.110021	-0.685830	0.698030
O15	O	-0.194315	-1.091355	0.303587
O16	O	0.305685	-0.591355	0.803587
O17	O	-0.394827	-1.310743	0.312111
O18	O	0.105173	-0.810743	0.812111
O19	O	-0.197989	-1.186000	0.390024
O20	O	0.302011	-0.686000	0.890024
O21	O	-0.303545	-1.091258	0.194355
O22	O	0.196455	-0.591258	0.694355
O23	O	-0.308373	-0.954745	0.308403
O24	O	0.191627	-0.454745	0.808403
O25	O	-0.403314	-1.070797	0.512571
O26	O	0.096686	-0.570797	1.012571
O27	O	-0.398466	-0.945883	0.398490
O28	O	0.101534	-0.445883	0.898490
O29	O	-0.316894	-1.174304	0.508922
O30	O	0.183106	-0.674304	1.008922
O31	O	-0.508885	-1.174133	0.316928
O32	O	-0.008885	-0.674133	0.816928
O33	O	-0.512543	-1.070700	0.403340
O34	O	-0.012543	-0.570700	0.903340
C35	C	-0.353418	-0.921058	0.353444
C36	C	0.146582	-0.421058	0.853444
C37	C	-0.353429	-0.831436	0.353450
C38	C	0.146571	-0.331436	0.853450
C39	C	-0.353429	-0.503259	0.353471
C40	C	0.146571	-0.003259	0.853471
C41	C	-0.353427	-0.594568	0.353463
C42	C	0.146573	-0.094568	0.853463
C43	C	-0.353429	-0.667345	0.353460
C44	C	0.146571	-0.167345	0.853460
C45	C	-0.353427	-0.758660	0.353453
C46	C	0.146573	-0.258660	0.853453
C47	C	-0.536245	-1.121118	0.361231
C48	C	-0.036245	-0.621118	0.861231
C49	C	-0.614454	-1.117157	0.364575
C50	C	-0.114454	-0.617157	0.864575
C51	C	-0.649270	-1.169186	0.321193
C52	C	-0.149270	-0.669186	0.821193
C53	C	-0.722756	-1.165466	0.324342
C54	C	-0.222756	-0.665466	0.824342
C55	C	-0.761424	-1.109711	0.370870
C56	C	-0.261424	-0.609711	0.870870
C57	C	-0.726603	-1.057679	0.414256
C58	C	-0.226603	-0.557679	0.914256
C59	C	-0.653118	-1.061404	0.411111
C60	C	-0.153118	-0.561404	0.911111
C61	C	-0.983395	-1.095770	0.382621
C62	C	-0.483395	-0.595770	0.882621
C63	C	-1.056884	-1.092047	0.385762
C64	C	-0.556884	-0.592047	0.885762
C65	C	-1.053032	-1.199835	0.295847
C66	C	-0.553032	-0.699835	0.795847
C67	C	-0.979547	-1.203552	0.292703
C68	C	-0.479547	-0.703552	0.792703
C69	C	-0.944732	-1.151523	0.336092
C70	C	-0.444732	-0.651523	0.836092
C71	C	-0.836538	-1.105904	0.374088
C72	C	-0.336538	-0.605904	0.874088
C73	C	-0.869619	-1.155334	0.332877
C74	C	-0.369619	-0.655334	0.832877
C75	C	-0.169908	-1.140034	0.345693
C76	C	0.330092	-0.640034	0.845693
C77	C	-0.091700	-1.144076	0.342380
C78	C	0.408300	-0.644076	0.842380
C79	C	-0.361218	-1.121216	0.536990
C80	C	0.138782	-0.621216	1.036990
C81	C	-0.364535	-1.117239	0.615196
C82	C	0.135465	-0.617239	1.115196
C83	C	-0.353444	-0.340854	0.353489
C84	C	0.146556	0.159146	0.853489
C85	C	-0.353436	-0.430476	0.353479
C86	C	0.146564	0.069524	0.853479
C87	C	-0.345628	-1.139891	0.170661
C88	C	0.154372	-0.639891	0.670661
C89	C	-0.342113	-1.144033	0.092447
C90	C	0.157887	-0.644033	0.592447
C91	C	-0.321101	-1.169259	0.650038
C92	C	0.178899	-0.669259	1.150038
C93	C	-0.324215	-1.165513	0.723520
C94	C	0.175785	-0.665513	1.223520
C95	C	-0.370767	-1.109751	0.762159
C96	C	0.129233	-0.609751	1.262159
C97	C	-0.414203	-1.057726	0.727312
C98	C	0.085797	-0.557726	1.227312
C99	C	-0.411084	-1.061468	0.653831
C100	C	0.088916	-0.561468	1.153831
C101	C	-0.382430	-1.095751	0.984119
C102	C	0.117570	-0.595751	1.484119
C103	C	-0.385546	-1.092014	1.057605
C104	C	0.114454	-0.592014	1.557605
C105	C	-0.295558	-1.199801	1.053808
C106	C	0.204442	-0.699801	1.553808
C107	C	-0.292447	-1.203542	0.980326
C108	C	0.207553	-0.703542	1.480326
C109	C	-0.335879	-1.151514	0.945485
C110	C	0.164121	-0.651514	1.445485
C111	C	-0.373953	-1.105922	0.837270
C112	C	0.126047	-0.605922	1.337270
C113	C	-0.332689	-1.155339	0.870376
C114	C	0.167311	-0.655339	1.370376
H115	H	-0.751099	-1.207833	0.289015
H116	H	-0.251099	-0.707833	0.789015
O117	O	-1.094529	-1.037992	0.431001
O118	O	-0.594529	-0.537992	0.931001
C119	C	-1.181473	-1.018036	0.529552
C120	C	-0.681473	-0.518036	1.029552
C121	C	-1.138897	-1.079335	0.478362
C122	C	-0.638897	-0.579335	0.978362
H123	H	-1.217343	-1.051439	0.567866
H124	H	-0.717343	-0.551439	1.067866
H125	H	-1.214595	-0.975812	0.498726
H126	H	-0.714595	-0.475812	0.998726
H127	H	-1.143956	-0.981472	0.559993
H128	H	-0.643956	-0.481472	1.059993
H129	H	-1.176362	-1.115955	0.447908
H130	H	-0.676362	-0.615955	0.947908
H131	H	-1.105766	-1.121504	0.509228
H132	H	-0.605766	-0.621504	1.009228
H133	H	-0.868030	-1.060507	0.411970
H134	H	-0.368030	-0.560507	0.911970
H135	H	-0.955055	-1.053404	0.417949
H136	H	-0.455055	-0.553404	0.917949
O137	O	-0.832026	-1.209382	0.287604
O138	O	-0.332026	-0.709382	0.787604
C139	C	-0.745024	-1.229333	0.189102
C140	C	-0.245024	-0.729333	0.689102
C141	C	-0.787574	-1.168041	0.240319
C142	C	-0.287574	-0.668041	0.740319
H143	H	-0.709063	-1.195935	0.150869
H144	H	-0.209063	-0.695935	0.650869
H145	H	-0.782492	-1.265874	0.158576
H146	H	-0.282492	-0.765874	0.658576
H147	H	-0.711980	-1.271579	0.219981
H148	H	-0.211980	-0.771579	0.719981
H149	H	-0.820621	-1.125744	0.209494
H150	H	-0.320621	-0.625744	0.709494
H151	H	-0.750067	-1.131560	0.270846
H152	H	-0.250067	-0.631560	0.770846
O153	O	-0.611676	-1.223237	0.275918
O154	O	-0.111676	-0.723237	0.775918
C155	C	-0.524685	-1.243210	0.177408
C156	C	-0.024685	-0.743210	0.677408
C157	C	-0.567224	-1.181908	0.228624
C158	C	-0.067224	-0.681908	0.728624
H159	H	-0.488725	-1.209821	0.139167
H160	H	0.011275	-0.709821	0.639167
H161	H	-0.562161	-1.279749	0.146890
H162	H	-0.062161	-0.779749	0.646890
H163	H	-0.491641	-1.285456	0.208288
H164	H	0.008359	-0.785456	0.708288
H165	H	-0.600272	-1.139610	0.197798
H166	H	-0.100272	-0.639610	0.697798
H167	H	-0.529711	-1.145427	0.259142
H168	H	-0.029711	-0.645427	0.759142
H169	H	-0.423456	-1.046603	1.089063
H170	H	0.076544	-0.546603	1.589063
O171	O	-0.942095	-1.257792	0.247493
O172	O	-0.442095	-0.757792	0.747493
C173	C	-0.946030	-1.364288	0.158623
C174	C	-0.446030	-0.864288	0.658623
C175	C	-0.988531	-1.302913	0.209802
C176	C	-0.488531	-0.802913	0.709802
H177	H	-0.983556	-1.400774	0.128125
H178	H	-0.483556	-0.900774	0.628125
H179	H	-0.912975	-1.406572	0.189459
H180	H	-0.412975	-0.906572	0.689459
H181	H	-0.910087	-1.330908	0.120359
H182	H	-0.410087	-0.830908	0.620359
H183	H	-1.024513	-1.336225	0.248077
H184	H	-0.524513	-0.836225	0.748077
H185	H	-1.021540	-1.260631	0.178920
H186	H	-0.521540	-0.760631	0.678920
O187	O	-0.764269	-1.003542	0.459393
O188	O	-0.264269	-0.503542	0.959393
C189	C	-0.879181	-0.950060	0.504115
C190	C	-0.379181	-0.450060	1.004115
C191	C	-0.836612	-1.011399	0.452956
C192	C	-0.336612	-0.511399	0.952956
H193	H	-0.937679	-0.956403	0.498939
H194	H	-0.437679	-0.456403	0.998939
H195	H	-0.864308	-0.886396	0.491090
H196	H	-0.364308	-0.386396	0.991090
H197	H	-0.867064	-0.962009	0.560232
H198	H	-0.367064	-0.462009	1.060232
H199	H	-0.848707	-0.999524	0.396821
H200	H	-0.348707	-0.499524	0.896821
H201	H	-0.851491	-1.075042	0.466042
H202	H	-0.351491	-0.575042	0.966042
H203	H	-0.624772	-1.019037	0.446438
H204	H	-0.124772	-0.519037	0.946438
O205	O	-0.275818	-1.223451	0.612613
O206	O	0.224182	-0.723451	1.112613
C207	C	-0.186918	-1.329994	0.616612
C208	C	0.313082	-0.829994	1.116612
C209	C	-0.238160	-1.268648	0.659078
C210	C	0.261840	-0.768648	1.159078
H211	H	-0.156468	-1.366563	0.654162
H212	H	0.343532	-0.866563	1.154162
H213	H	-0.148617	-1.296670	0.580662
H214	H	0.351383	-0.796670	1.080662
H215	H	-0.217775	-1.372203	0.583568
H216	H	0.282225	-0.872203	1.083568
H217	H	-0.207361	-1.226422	0.692163
H218	H	0.292639	-0.726422	1.192163
H219	H	-0.276460	-1.302024	0.694984
H220	H	0.223540	-0.802024	1.194984
O221	O	-0.281944	-1.215930	0.757388
O222	O	0.218056	-0.715930	1.257388
C223	C	-0.190479	-1.227455	0.836342
C224	C	0.309521	-0.727455	1.336342
C225	C	-0.238306	-1.170268	0.798020
C226	C	0.261694	-0.670268	1.298020
H227	H	-0.155196	-1.190560	0.869213
H228	H	0.344804	-0.690560	1.369213
H229	H	-0.156626	-1.267936	0.796127
H230	H	0.343374	-0.767936	1.296127
H231	H	-0.224250	-1.266214	0.872095
H232	H	0.275750	-0.766214	1.372095
H233	H	-0.204590	-1.131458	0.762268
H234	H	0.295410	-0.631458	1.262268
H235	H	-0.272164	-1.129842	0.838272
H236	H	0.227836	-0.629842	1.338272
H237	H	-0.417806	-1.053397	0.955761
H238	H	0.082194	-0.553397	1.455761
H239	H	-1.081386	-1.242195	0.260523
H240	H	-0.581386	-0.742195	0.760523
H241	H	-0.446446	-1.019100	0.625463
H242	H	0.053554	-0.519100	1.125463
H243	H	-0.452104	-1.012320	0.758777
H244	H	0.047896	-0.512320	1.258777
O245	O	-0.247162	-1.257731	0.942901
O246	O	0.252838	-0.757731	1.442901
C247	C	-0.158264	-1.364277	0.946893
C248	C	0.341736	-0.864277	1.446893
C249	C	-0.209502	-1.302931	0.989363
C250	C	0.290498	-0.802931	1.489363
H251	H	-0.127813	-1.400850	0.984440
H252	H	0.372187	-0.900850	1.484440
H253	H	-0.119964	-1.330954	0.910942
H254	H	0.380036	-0.830954	1.410942
H255	H	-0.189124	-1.406484	0.913849
H256	H	0.310876	-0.906484	1.413849
H257	H	-0.178701	-1.260708	1.022447
H258	H	0.321299	-0.760708	1.522447
H259	H	-0.247802	-1.336307	1.025269
H260	H	0.252198	-0.836307	1.525269
H261	H	-0.260196	-1.242158	1.082184
H262	H	0.239804	-0.742158	1.582184
H263	H	-0.294784	-1.200737	0.838913
H264	H	0.205216	-0.700737	1.338913
O265	O	-0.419250	-1.051869	0.874842
O266	O	0.080750	-0.551869	1.374842
C267	C	-0.517727	-1.031891	0.961872
C268	C	-0.017727	-0.531891	1.461872
C269	C	-0.466488	-1.093195	0.919352
C270	C	0.033512	-0.593195	1.419352
H271	H	-0.555922	-1.065278	0.997880
H272	H	-0.055922	-0.565278	1.497880
H273	H	-0.548294	-0.995359	0.924388
H274	H	-0.048294	-0.495359	1.424388
H275	H	-0.486857	-0.989638	0.994863
H276	H	0.013143	-0.489638	1.494863
H277	H	-0.497304	-1.135499	0.886358
H278	H	0.002696	-0.635499	1.386358
H279	H	-0.435920	-1.129668	0.956875
H280	H	0.064080	-0.629668	1.456875
