data_functionalizedCrystal
_audit_creation_method	'MofGen! by Chris Wilmer'
_symmetry_space_group_name_H-M	'P1'
_symmetry_Int_Tables_number	1
_symmetry_cell_setting	triclinic
loop_
_symmetry_equiv_pos_as_xyz
  x,y,z
_cell_length_a	9.065215
_cell_length_b	10.723023
_cell_length_c	8.140239
_cell_angle_alpha	89.997483
_cell_angle_beta	89.997810
_cell_angle_gamma	84.741123
loop_
_atom_site_label
_atom_site_type_symbol
_atom_site_fract_x
_atom_site_fract_y
_atom_site_fract_z
O1	O	1.959361	0.182967	-0.136590
O2	O	2.459361	0.682967	0.363410
O3	O	1.529990	0.197980	-0.136598
O4	O	2.029990	0.697980	0.363402
O5	O	1.754580	0.008937	-0.136587
O6	O	2.254580	0.508937	0.363413
O7	O	1.734771	0.372009	-0.136601
O8	O	2.234771	0.872009	0.363399
O9	O	1.754568	0.008935	0.136640
O10	O	2.254568	0.508935	0.636640
O11	O	1.529978	0.197978	0.136630
O12	O	2.029978	0.697978	0.636630
O13	O	1.959348	0.182965	0.136637
O14	O	2.459348	0.682965	0.636637
Zn15	Zn	1.744661	0.190471	0.180014
Zn16	Zn	2.244661	0.690471	0.680014
Zn17	Zn	1.744677	0.190474	-0.179975
Zn18	Zn	2.244677	0.690474	0.320025
O19	O	1.734758	0.372007	0.136626
O20	O	2.234758	0.872007	0.636626
C21	C	1.475005	0.196537	0.000015
C22	C	1.975005	0.696537	0.500015
C23	C	1.311187	0.192225	0.000012
C24	C	1.811187	0.692225	0.500012
C25	C	1.753133	-0.037569	0.000025
C26	C	2.253133	0.462431	0.500025
C27	C	1.748820	-0.176141	0.000019
C28	C	2.248820	0.323859	0.500019
C29	C	1.746904	-0.237913	-0.141523
C30	C	2.246904	0.262087	0.358477
C31	C	1.742447	-0.381135	-0.141532
C32	C	2.242447	0.118865	0.358468
C33	C	2.014333	0.184408	0.000020
C34	C	2.514333	0.684408	0.500020
C35	C	2.178152	0.188719	0.000012
C36	C	2.678152	0.688719	0.500012
C37	C	1.736206	0.418514	0.000011
C38	C	2.236206	0.918514	0.500011
C39	C	1.740518	0.557086	0.000005
C40	C	2.240518	1.057086	0.500005
N41	N	1.744661	0.190468	0.425696
N42	N	2.244661	0.690468	0.925696
N43	N	1.744690	0.190467	-0.425657
N44	N	2.244690	0.690467	0.074343
H45	H	1.748557	-0.184768	-0.262695
H46	H	2.248557	0.315232	0.237305
F47	F	1.742682	-0.373493	0.158408
F48	F	2.242682	0.126507	0.658408
H49	H	1.740807	-0.434258	-0.262711
H50	H	2.240807	0.065742	0.237289
H51	H	1.747152	-0.229285	0.121192
H52	H	2.247152	0.270715	0.621192
