data_functionalizedCrystal
_audit_creation_method	'MofGen! by Chris Wilmer'
_symmetry_space_group_name_H-M	'P1'
_symmetry_Int_Tables_number	1
_symmetry_cell_setting	triclinic
loop_
_symmetry_equiv_pos_as_xyz
  x,y,z
_cell_length_a	16.992694
_cell_length_b	8.559649
_cell_length_c	16.053802
_cell_angle_alpha	92.204030
_cell_angle_beta	87.249047
_cell_angle_gamma	80.223444
loop_
_atom_site_label
_atom_site_type_symbol
_atom_site_fract_x
_atom_site_fract_y
_atom_site_fract_z
O1	O	1.023824	0.329978	-0.069320
O2	O	0.795762	0.326287	-0.069345
O3	O	0.929885	0.098096	-0.069329
O4	O	0.889700	0.558168	-0.069335
O5	O	0.922506	0.110601	0.069529
O6	O	0.788383	0.338792	0.069513
O7	O	1.016444	0.342483	0.069538
Zn8	Zn	0.901242	0.342623	0.091572
Zn9	Zn	0.910964	0.326147	-0.091379
O10	O	0.882321	0.570673	0.069523
C11	C	0.763145	0.327794	0.000081
C12	C	0.676954	0.313635	0.000072
C13	C	0.929241	0.045208	0.000098
C14	C	0.938306	-0.131015	0.000095
C15	C	0.618488	0.450242	0.000071
C16	C	0.537502	0.436931	0.000082
C17	C	0.514985	0.287010	0.000089
C18	C	0.573459	0.150392	0.000093
C19	C	0.654442	0.163706	0.000087
C20	C	0.274709	0.231830	0.000112
C21	C	0.193719	0.218527	0.000115
C22	C	0.157768	0.505067	0.000106
C23	C	0.238755	0.518367	0.000096
C24	C	0.297221	0.381749	0.000104
N25	N	0.432206	0.273399	0.000099
N26	N	0.379998	0.395362	0.000100
C27	C	1.049061	0.340975	0.000110
C28	C	1.135252	0.355134	0.000114
C29	C	0.882965	0.623562	0.000093
C30	C	0.873901	0.799784	0.000091
N31	N	0.894612	0.353867	0.216432
N32	N	0.917601	0.314891	-0.216239
C33	C	0.951698	0.256811	0.260132
C34	C	0.947067	0.264692	0.347539
C35	C	0.885353	0.369639	0.391243
C36	C	0.828261	0.466699	0.347536
C37	C	0.832890	0.458808	0.260132
C38	C	0.865138	0.404060	0.652650
C39	C	0.860515	0.411947	0.740061
C40	C	0.979321	0.209937	0.740057
C41	C	0.983946	0.202063	0.652651
C42	C	0.926852	0.299117	0.608952
N43	N	0.880619	0.377701	0.480586
N44	N	0.931583	0.291046	0.519610
H45	H	0.489901	0.548171	0.000080
O46	O	1.008650	0.160011	0.394662
H47	H	0.978444	0.082290	0.434487
O48	O	0.337761	0.084482	0.000123
H49	H	0.333843	0.008131	-0.056474
O50	O	0.263045	0.680064	0.000089
H51	H	0.296090	0.698066	0.056679
O52	O	0.791673	-0.100119	0.000080
H53	H	0.755743	-0.121974	0.056679
O54	O	0.793946	0.525150	0.787198
H55	H	0.800329	0.514344	0.855317
H56	H	0.555119	0.028324	0.000110
H57	H	1.000384	-0.206593	0.000108
H58	H	0.110157	0.616292	0.000102
H59	H	1.001956	0.171359	0.224554
H60	H	0.175391	0.096437	0.000120
H61	H	0.702047	0.052465	0.000088
O62	O	1.050504	0.088857	0.605512
H63	H	1.089418	0.022677	0.650585
O64	O	1.040893	0.105246	0.787187
H65	H	1.027306	0.128348	0.855307
O66	O	0.803567	0.508750	0.605522
H67	H	0.759884	0.583063	0.650599
H68	H	0.786403	0.537840	0.224552
O69	O	0.642773	0.611944	0.000071
H70	H	0.588508	0.704699	0.000084
O71	O	0.761698	0.579903	0.394668
H72	H	0.768074	0.569101	0.462788
