data_functionalizedCrystal
_audit_creation_method	'MofGen! by Chris Wilmer'
_symmetry_space_group_name_H-M	'P1'
_symmetry_Int_Tables_number	1
_symmetry_cell_setting	triclinic
loop_
_symmetry_equiv_pos_as_xyz
  x,y,z
_cell_length_a	13.897449
_cell_length_b	21.295412
_cell_length_c	13.897448
_cell_angle_alpha	89.975155
_cell_angle_beta	90.018519
_cell_angle_gamma	89.975000
loop_
_atom_site_label
_atom_site_type_symbol
_atom_site_fract_x
_atom_site_fract_y
_atom_site_fract_z
Zn1	Zn	1.474718	-0.355962	-0.384018
Zn2	Zn	1.974718	0.144038	0.115982
Zn3	Zn	1.474607	-0.250698	-0.545323
Zn4	Zn	1.974607	0.249302	-0.045323
Zn5	Zn	1.313403	-0.250704	-0.384046
Zn6	Zn	1.813403	0.249296	0.115954
Zn7	Zn	1.313389	-0.355927	-0.545275
Zn8	Zn	1.813389	0.144073	-0.045275
O9	O	1.394029	-0.303323	-0.464665
O10	O	1.894029	0.196677	0.035335
O11	O	1.609685	-0.342010	-0.405423
O12	O	2.109685	0.157990	0.094577
O13	O	1.453183	-0.162609	-0.523962
O14	O	1.953183	0.337391	-0.023962
O15	O	1.334853	-0.264684	-0.249061
O16	O	1.834853	0.235316	0.250939
O17	O	1.609604	-0.264673	-0.523934
O18	O	2.109604	0.235327	-0.023934
O19	O	1.453371	-0.342016	-0.249040
O20	O	1.953371	0.157984	0.250960
O21	O	1.334746	-0.162614	-0.405472
O22	O	1.834746	0.337386	0.094528
O23	O	1.178419	-0.264650	-0.405425
O24	O	1.678419	0.235350	0.094575
O25	O	1.334830	-0.444021	-0.523851
O26	O	1.834830	0.055979	-0.023851
O27	O	1.178409	-0.341957	-0.523879
O28	O	1.678409	0.158043	-0.023879
O29	O	1.453358	-0.444047	-0.405377
O30	O	1.953358	0.055953	0.094623
O31	O	1.453169	-0.264640	-0.680298
O32	O	1.953169	0.235360	-0.180298
O33	O	1.334723	-0.341951	-0.680263
O34	O	1.834723	0.158049	-0.180263
C35	C	1.143415	-0.303301	-0.464651
C36	C	1.643415	0.196699	0.035349
C37	C	1.036201	-0.303306	-0.464667
C38	C	1.536201	0.196694	0.035333
C39	C	1.394105	-0.467513	-0.464605
C40	C	1.894105	0.032487	0.035395
C41	C	1.394137	-0.537481	-0.464580
C42	C	1.894137	-0.037481	0.035420
C43	C	0.949131	-0.303317	-0.464671
C44	C	1.449131	0.196683	0.035329
C45	C	0.839899	-0.303336	-0.464677
C46	C	1.339899	0.196664	0.035323
C47	C	1.332483	-0.570340	-0.402875
C48	C	1.832483	-0.070340	0.097125
C49	C	1.332480	-0.636083	-0.402857
C50	C	1.832480	-0.136083	0.097143
C51	C	1.394147	-0.668964	-0.464534
C52	C	1.894147	-0.168964	0.035466
C53	C	1.455805	-0.636097	-0.526250
C54	C	1.955805	-0.136097	-0.026250
C55	C	1.455800	-0.570355	-0.526273
C56	C	1.955800	-0.070355	-0.026273
N57	N	1.478587	-0.772204	-0.471899
N58	N	1.978587	-0.272204	0.028101
N59	N	1.478589	-0.834655	-0.471872
N60	N	1.978589	-0.334655	0.028128
C61	C	1.394165	-0.867039	-0.464470
C62	C	1.894165	-0.367039	0.035530
N63	N	1.309737	-0.834611	-0.457077
N64	N	1.809737	-0.334611	0.042923
N65	N	1.309736	-0.772154	-0.457100
N66	N	1.809736	-0.272154	0.042900
C67	C	1.394159	-0.740249	-0.464516
C68	C	1.894159	-0.240249	0.035484
C69	C	1.332503	-0.971183	-0.402742
C70	C	1.832503	-0.471183	0.097258
C71	C	1.332497	-1.036927	-0.402731
C72	C	1.832497	-0.536927	0.097269
C73	C	1.455831	-1.036940	-0.526119
C74	C	1.955831	-0.536940	-0.026119
C75	C	1.455828	-0.971197	-0.526135
C76	C	1.955828	-0.471197	-0.026135
C77	C	1.394165	-0.938323	-0.464442
C78	C	1.894165	-0.438323	0.035558
C79	C	1.645622	-0.303345	-0.464681
C80	C	2.145622	0.196655	0.035319
C81	C	1.752836	-0.303355	-0.464688
C82	C	2.252836	0.196645	0.035312
C83	C	1.393959	-0.303305	-0.715280
C84	C	1.893959	0.196695	-0.215280
C85	C	1.394017	-0.303318	-0.822494
C86	C	1.894017	0.196682	-0.322494
C87	C	1.394009	-0.139771	-0.464656
C88	C	1.894009	0.360229	0.035344
C89	C	1.394164	-0.069803	-0.464409
C90	C	1.894164	0.430197	0.035591
C91	C	1.394118	-0.303357	-1.018789
C92	C	1.894118	0.196643	-0.518789
C93	C	1.394059	-0.303337	-0.909556
C94	C	1.894059	0.196663	-0.409556
C95	C	1.394126	-0.303355	-0.213072
C96	C	1.894126	0.196645	0.286928
C97	C	1.394167	-0.303368	-0.105858
C98	C	1.894167	0.196632	0.394142
H99	H	1.282269	-0.543578	-0.352643
H100	H	1.782269	-0.043578	0.147357
N101	N	1.265984	-0.935722	-0.336219
N102	N	1.765984	-0.435722	0.163781
H103	H	1.275340	-0.889089	-0.345591
H104	H	1.775340	-0.389089	0.154409
H105	H	1.281020	-0.947229	-0.267326
H106	H	1.781020	-0.447229	0.232674
H107	H	1.282285	-1.063680	-0.352487
H108	H	1.782285	-0.563680	0.147513
H109	H	1.282276	-0.662842	-0.352605
H110	H	1.782276	-0.162842	0.147395
H111	H	1.506015	-0.662873	-0.576468
H112	H	2.006015	-0.162873	-0.076468
N113	N	1.522347	-1.072397	-0.592639
N114	N	2.022347	-0.572397	-0.092639
H115	H	1.561408	-1.041601	-0.631731
H116	H	2.061408	-0.541601	-0.131731
H117	H	1.483066	-1.099656	-0.637267
H118	H	1.983066	-0.599656	-0.137267
H119	H	1.506035	-0.944443	-0.576379
H120	H	2.006035	-0.444443	-0.076379
N121	N	1.522299	-0.534911	-0.592830
N122	N	2.022299	-0.034911	-0.092830
H123	H	1.561364	-0.565714	-0.631903
H124	H	2.061364	-0.065714	-0.131903
H125	H	1.566954	-0.507652	-0.553578
H126	H	2.066954	-0.007652	-0.053578
