data_functionalizedCrystal
_audit_creation_method	'MofGen! by Chris Wilmer'
_symmetry_space_group_name_H-M	'P1'
_symmetry_Int_Tables_number	1
_symmetry_cell_setting	triclinic
loop_
_symmetry_equiv_pos_as_xyz
  x,y,z
_cell_length_a	16.959455
_cell_length_b	12.594516
_cell_length_c	16.959447
_cell_angle_alpha	89.974854
_cell_angle_beta	89.979626
_cell_angle_gamma	90.013073
loop_
_atom_site_label
_atom_site_type_symbol
_atom_site_fract_x
_atom_site_fract_y
_atom_site_fract_z
Zn1	Zn	1.208406	-0.423806	-0.447065
Zn2	Zn	1.708406	0.076194	0.052935
Zn3	Zn	1.208338	-0.601813	-0.314898
Zn4	Zn	1.708338	-0.101813	0.185102
Zn5	Zn	1.076234	-0.423839	-0.314888
Zn6	Zn	1.576234	0.076161	0.185112
Zn7	Zn	1.076208	-0.601733	-0.447023
Zn8	Zn	1.576208	-0.101733	0.052977
O9	O	1.142297	-0.512798	-0.380968
O10	O	1.642297	-0.012798	0.119032
O11	O	1.319008	-0.447438	-0.429554
O12	O	1.819008	0.052562	0.070446
O13	O	1.190796	-0.578251	-0.204286
O14	O	1.690796	-0.078251	0.295714
O15	O	1.093807	-0.274889	-0.332435
O16	O	1.593807	0.225111	0.167565
O17	O	1.318958	-0.578219	-0.332452
O18	O	1.818958	-0.078219	0.167548
O19	O	1.190913	-0.274864	-0.429545
O20	O	1.690913	0.225136	0.070455
O21	O	1.093741	-0.447495	-0.204279
O22	O	1.593741	0.052505	0.295721
O23	O	0.965620	-0.447418	-0.332395
O24	O	1.465620	0.052582	0.167605
O25	O	1.093762	-0.578084	-0.557639
O26	O	1.593762	-0.078084	-0.057639
O27	O	0.965601	-0.578116	-0.429473
O28	O	1.465601	-0.078116	0.070527
O29	O	1.190887	-0.447361	-0.557670
O30	O	1.690887	0.052639	-0.057670
O31	O	1.190771	-0.750748	-0.332411
O32	O	1.690771	-0.250748	0.167589
O33	O	1.093696	-0.750690	-0.429483
O34	O	1.593696	-0.250690	0.070517
C35	C	0.936930	-0.512763	-0.380929
C36	C	1.436930	-0.012763	0.119071
C37	C	0.849074	-0.512774	-0.380930
C38	C	1.349074	-0.012774	0.119070
C39	C	0.477561	-0.580828	-0.330382
C40	C	0.977561	-0.080828	0.169618
C41	C	0.477635	-0.444856	-0.431652
C42	C	0.977635	0.055144	0.068348
C43	C	0.560181	-0.444838	-0.431632
C44	C	1.060181	0.055162	0.068368
C45	C	0.601421	-0.512818	-0.380988
C46	C	1.101421	-0.012818	0.119012
C47	C	0.560115	-0.580815	-0.330362
C48	C	1.060115	-0.080815	0.169638
C49	C	0.601493	-0.376850	-0.482263
C50	C	1.101493	0.123150	0.017737
C51	C	0.684044	-0.376831	-0.482246
C52	C	1.184044	0.123169	0.017754
C53	C	0.725285	-0.444806	-0.431597
C54	C	1.225285	0.055194	0.068403
C55	C	0.683974	-0.512805	-0.380969
C56	C	1.183974	-0.012805	0.119031
C57	C	0.725214	-0.580784	-0.330324
C58	C	1.225214	-0.080784	0.169676
C59	C	0.683905	-0.648778	-0.279691
C60	C	1.183905	-0.148778	0.220309
C61	C	0.601356	-0.648790	-0.279713
C62	C	1.101356	-0.148790	0.220287
C63	C	0.807834	-0.444794	-0.431575
C64	C	1.307834	0.055206	0.068425
C65	C	0.807768	-0.580771	-0.330305
C66	C	1.307768	-0.080771	0.169695
C67	C	1.142245	-0.789339	-0.380961
C68	C	1.642245	-0.289339	0.119039
C69	C	1.142295	-0.907644	-0.380984
C70	C	1.642295	-0.407644	0.119016
C71	C	1.089491	-0.976904	-0.433744
C72	C	1.589491	-0.476904	0.066256
C73	C	1.070239	-1.047766	-0.361616
C74	C	1.570239	-0.547766	0.138384
C75	C	1.161619	-1.047581	-0.453124
C76	C	1.661619	-0.547581	0.046876
C77	C	1.123005	-0.976948	-0.308818
C78	C	1.623005	-0.476948	0.191182
C79	C	1.214418	-0.976756	-0.400374
C80	C	1.714418	-0.476756	0.099626
C81	C	1.195194	-1.047587	-0.328197
C82	C	1.695194	-0.547587	0.171803
C83	C	1.348465	-0.512833	-0.381009
C84	C	1.848465	-0.012833	0.118991
C85	C	1.436321	-0.512849	-0.381026
C86	C	1.936321	-0.012849	0.118974
C87	C	1.142329	-0.512710	-0.587137
C88	C	1.642329	-0.012710	-0.087137
C89	C	1.142343	-0.512672	-0.674993
C90	C	1.642343	-0.012672	-0.174993
C91	C	1.142370	-0.235177	-0.380994
C92	C	1.642370	0.264823	0.119006
C93	C	1.142401	-0.116871	-0.381004
C94	C	1.642401	0.383129	0.118996
C95	C	1.091869	-0.580621	-1.046456
C96	C	1.591869	-0.080621	-0.546456
C97	C	1.193007	-0.444499	-1.046483
C98	C	1.693007	0.055501	-0.546483
C99	C	1.192985	-0.444521	-0.963937
C100	C	1.692985	0.055479	-0.463937
C101	C	1.142406	-0.512596	-0.922647
C102	C	1.642406	-0.012596	-0.422647
C103	C	1.091848	-0.580648	-0.963902
C104	C	1.591848	-0.080648	-0.463902
C105	C	1.243548	-0.376478	-0.922675
C106	C	1.743548	0.123522	-0.422675
C107	C	1.243530	-0.376499	-0.840124
C108	C	1.743530	0.123501	-0.340124
C109	C	1.192946	-0.444569	-0.798832
C110	C	1.692946	0.055431	-0.298832
C111	C	1.142385	-0.512623	-0.840093
C112	C	1.642385	-0.012623	-0.340093
C113	C	1.091806	-0.580697	-0.798803
C114	C	1.591806	-0.080697	-0.298803
C115	C	1.041241	-0.648747	-0.840062
C116	C	1.541241	-0.148747	-0.340062
C117	C	1.041265	-0.648718	-0.922610
C118	C	1.541265	-0.148718	-0.422610
C119	C	1.192923	-0.444597	-0.716284
C120	C	1.692923	0.055403	-0.216284
C121	C	1.091785	-0.580724	-0.716249
C122	C	1.591785	-0.080724	-0.216249
C123	C	1.142309	-0.512809	-0.175602
C124	C	1.642309	-0.012809	0.324398
C125	C	1.142448	-0.512546	-0.087746
C126	C	1.642448	-0.012546	0.412254
H127	H	0.717493	-0.704133	-0.238461
H128	H	1.217493	-0.204133	0.261539
F129	F	1.031022	-0.936335	-0.491978
F130	F	1.531022	-0.436335	0.008022
H131	H	1.177920	-1.078607	-0.514124
H132	H	1.677920	-0.578607	-0.014124
F133	F	0.851795	-0.372440	-0.485462
F134	F	1.351795	0.127560	0.014538
F135	F	0.557387	-0.721149	-0.225833
F136	F	1.057387	-0.221149	0.274167
F137	F	0.557599	-0.304520	-0.536167
F138	F	1.057599	0.195480	-0.036167
F139	F	0.433742	-0.372522	-0.485555
F140	F	0.933742	0.127478	0.014445
H141	H	1.000063	-0.704178	-0.806432
H142	H	1.500063	-0.204178	-0.306432
H143	H	1.000100	-0.704124	-0.956211
H144	H	1.500100	-0.204124	-0.456211
H145	H	1.050590	-0.636150	-0.682636
H146	H	1.550590	-0.136150	-0.182636
H147	H	0.443924	-0.636184	-0.289156
H148	H	0.943924	-0.136184	0.210844
F149	F	1.297343	-0.304073	-0.796221
F150	F	1.797343	0.195927	-0.296221
F151	F	1.038055	-0.653037	-1.090366
F152	F	1.538055	-0.153037	-0.590366
H153	H	1.234094	-0.389196	-0.682694
H154	H	1.734094	0.110804	-0.182694
F155	F	1.246838	-0.372060	-1.090429
F156	F	1.746838	0.127940	-0.590429
H157	H	0.841340	-0.636125	-0.289061
H158	H	1.341340	-0.136125	0.210939
H159	H	1.284732	-0.321062	-0.956300
H160	H	1.784732	0.178938	-0.456300
H161	H	1.106633	-0.946050	-0.247802
H162	H	1.606633	-0.446050	0.252198
F163	F	0.728001	-0.304466	-0.536132
F164	F	1.228001	0.195534	-0.036132
H165	H	1.275348	-0.945545	-0.416793
H166	H	1.775348	-0.445545	0.083207
H167	H	1.009295	-1.078981	-0.345232
H168	H	1.509295	-0.578981	0.154768
H169	H	1.239894	-1.078426	-0.283537
H170	H	1.739894	-0.578426	0.216463
