data_functionalizedCrystal
_audit_creation_method	'MofGen! by Chris Wilmer'
_symmetry_space_group_name_H-M	'P1'
_symmetry_Int_Tables_number	1
_symmetry_cell_setting	triclinic
loop_
_symmetry_equiv_pos_as_xyz
  x,y,z
_cell_length_a	16.109301
_cell_length_b	15.944499
_cell_length_c	14.586319
_cell_angle_alpha	89.999455
_cell_angle_beta	89.999213
_cell_angle_gamma	83.469545
loop_
_atom_site_label
_atom_site_type_symbol
_atom_site_fract_x
_atom_site_fract_y
_atom_site_fract_z
O1	O	1.103146	0.107969	-0.076176
O2	O	0.861086	0.121405	-0.076189
O3	O	0.988748	-0.007593	-0.076184
O4	O	0.975483	0.236967	-0.076181
O5	O	0.988740	-0.007595	0.076297
O6	O	0.861077	0.121404	0.076291
O7	O	1.103137	0.107967	0.076305
Cu8	Cu	0.982106	0.114685	0.090221
Cu9	Cu	0.982117	0.114687	-0.090105
O10	O	0.975475	0.236965	0.076299
C11	C	0.830106	0.120860	0.000049
C12	C	0.737811	0.119228	0.000044
C13	C	0.515549	0.191979	0.000055
C14	C	0.428828	0.190439	0.000061
C15	C	0.448681	0.037387	0.000056
C16	C	0.535400	0.038928	0.000056
C17	C	0.568831	0.116226	0.000051
C18	C	0.395392	0.113146	0.000056
C19	C	0.301365	0.111476	0.000063
C20	C	0.662863	0.117897	0.000047
C21	C	0.988201	-0.038888	0.000054
C22	C	0.986573	-0.132136	0.000047
C23	C	1.060741	-0.423697	0.000057
C24	C	1.022182	-0.362660	0.075239
C25	C	0.980657	-0.467771	0.000058
C26	C	1.022169	-0.362664	-0.075095
C27	C	0.983568	-0.302863	0.000051
C28	C	0.942076	-0.407962	0.075302
C29	C	0.942075	-0.407972	-0.075100
C30	C	0.903457	-0.346953	0.000101
C31	C	0.978983	-0.562770	0.000062
C32	C	0.985236	-0.207864	0.000053
C33	C	1.134116	0.108512	0.000065
C34	C	1.226412	0.110144	0.000064
C35	C	0.976022	0.268261	0.000059
C36	C	0.977650	0.361509	0.000060
N37	N	0.982105	0.114683	0.217053
N38	N	0.982125	0.114683	-0.216937
C39	C	1.038653	0.057582	0.452062
C40	C	1.038655	0.057580	0.548043
C41	C	0.925571	0.171787	0.548047
C42	C	0.925565	0.171784	0.452068
C43	C	0.982111	0.114683	0.404077
C44	C	0.982119	0.114683	0.596038
C45	C	0.982121	0.114681	0.700105
C46	C	0.982108	0.114683	0.300004
H47	H	0.421450	-0.025546	0.000065
H48	H	0.385448	0.252125	0.000066
O49	O	1.093508	0.002158	0.405301
C50	C	1.081350	0.014365	0.310297
H51	H	1.050318	0.081155	0.297172
H52	H	1.039606	-0.033160	0.283100
C53	C	1.204493	-0.080359	0.277107
C54	C	1.166385	0.001677	0.260986
H55	H	1.256945	-0.088189	0.246688
H56	H	1.212683	-0.088586	0.341113
H57	H	1.169698	-0.119954	0.254443
H58	H	1.201175	0.041270	0.283660
H59	H	1.158203	0.009910	0.196982
H60	H	0.542765	0.254921	0.000058
H61	H	0.578785	-0.022763	0.000056
O62	O	0.870567	0.227286	0.594525
C63	C	0.820672	0.277696	0.531588
H64	H	0.819736	0.243255	0.463171
H65	H	0.847653	0.340106	0.521375
C66	C	0.732134	0.337282	0.653082
C67	C	0.730980	0.294977	0.569055
H68	H	0.676809	0.347945	0.676194
H69	H	0.765751	0.303322	0.695485
H70	H	0.754623	0.389285	0.644560
H71	H	0.708502	0.242970	0.577580
H72	H	0.697357	0.328929	0.526654
O73	O	1.140040	-0.463456	0.000305
C74	C	1.181958	-0.440494	0.079715
H75	H	1.134230	-0.418474	0.134842
H76	H	1.220824	-0.387131	0.062564
C77	C	1.298335	-0.544285	0.047450
C78	C	1.239715	-0.517247	0.115161
H79	H	1.333966	-0.591628	0.069313
H80	H	1.270096	-0.559753	-0.006052
H81	H	1.330715	-0.499809	0.033164
H82	H	1.207330	-0.561719	0.129437
H83	H	1.267950	-0.501788	0.168666
H84	H	1.056052	-0.342581	0.138802
H85	H	0.908233	-0.428073	-0.138666
H86	H	1.084695	0.011082	0.587109
H87	H	0.908227	-0.427933	0.138929
O88	O	0.870753	0.227294	0.405350
C89	C	0.915268	0.279139	0.349843
H90	H	0.980326	0.245699	0.335462
H91	H	0.920910	0.341223	0.386828
C92	C	0.788483	0.338146	0.276336
C93	C	0.868387	0.297072	0.258667
H94	H	0.759564	0.349212	0.220096
H95	H	0.758492	0.303220	0.313735
H96	H	0.793196	0.389879	0.307159
H97	H	0.863673	0.245336	0.227855
H98	H	0.898377	0.331990	0.221261
H99	H	0.836938	-0.313749	0.000141
H100	H	1.056060	-0.342594	-0.138650
