data_functionalizedCrystal
_audit_creation_method	'MofGen! by Chris Wilmer'
_symmetry_space_group_name_H-M	'P1'
_symmetry_Int_Tables_number	1
_symmetry_cell_setting	triclinic
loop_
_symmetry_equiv_pos_as_xyz
  x,y,z
_cell_length_a	16.625548
_cell_length_b	15.297327
_cell_length_c	15.296720
_cell_angle_alpha	72.680778
_cell_angle_beta	80.338886
_cell_angle_gamma	99.707980
loop_
_atom_site_label
_atom_site_type_symbol
_atom_site_fract_x
_atom_site_fract_y
_atom_site_fract_z
Zn1	Zn	-1.070017	0.461202	-0.589830
Zn2	Zn	-1.069925	0.589823	-0.461224
Zn3	Zn	-0.963404	0.434332	-0.434348
Zn4	Zn	-0.906939	0.616669	-0.616669
O5	O	-1.002571	0.525506	-0.525518
O6	O	-1.182833	0.478274	-0.572786
O7	O	-1.079387	0.546717	-0.327535
O8	O	-1.001215	0.307759	-0.432493
O9	O	-1.182766	0.572771	-0.478300
O10	O	-1.079544	0.327500	-0.546725
O11	O	-1.001126	0.432478	-0.307789
O12	O	-0.843085	0.458509	-0.458518
O13	O	-0.904979	0.618526	-0.743233
O14	O	-0.801601	0.592472	-0.592468
O15	O	-1.024792	0.504305	-0.723514
O16	O	-1.024636	0.723522	-0.504324
O17	O	-0.904890	0.743245	-0.618529
C18	C	-0.958644	0.767130	-0.567276
C19	C	-0.939920	0.870503	-0.585171
C20	C	-0.793088	0.525489	-0.525489
C21	C	-0.703461	0.525507	-0.525503
C22	C	-1.212873	0.525525	-0.525547
C23	C	-1.302491	0.525533	-0.525559
C24	C	-0.375277	0.525520	-0.525544
C25	C	-0.466589	0.525514	-0.525529
C26	C	-0.539367	0.525514	-0.525523
C27	C	-0.630684	0.525507	-0.525510
C28	C	-0.958597	0.567407	-0.768057
C29	C	-0.939858	0.585263	-0.871412
C30	C	-1.046688	0.282943	-0.483617
C31	C	-1.065488	0.179577	-0.465762
C32	C	-1.136670	1.120721	-0.397934
C33	C	-1.154262	1.023596	-0.381116
C34	C	-1.100679	0.985318	-0.432129
C35	C	-1.029499	1.044175	-0.499962
C36	C	-1.011901	1.141308	-0.516777
C37	C	-0.975910	1.005905	-0.550971
C38	C	-0.904730	1.064762	-0.618804
C39	C	-0.887135	1.161885	-0.635616
C40	C	-0.940719	1.200164	-0.584604
C41	C	-0.993508	0.908772	-0.534156
C42	C	-0.868738	0.929359	-0.652998
C43	C	-0.851146	1.026484	-0.669816
C44	C	-1.136562	0.397726	-1.121690
C45	C	-1.154173	0.380952	-1.024583
C46	C	-1.100596	0.432028	-0.986285
C47	C	-1.029405	0.499882	-1.045105
C48	C	-1.011795	0.516664	-1.142223
C49	C	-0.975829	0.550965	-1.006818
C50	C	-0.904638	0.618819	-1.065637
C51	C	-0.887032	0.635597	-1.162745
C52	C	-0.940609	0.584521	-1.201043
C53	C	-0.993438	0.534183	-0.909700
C54	C	-0.868672	0.653121	-0.930232
C55	C	-0.851061	0.669895	-1.027340
C56	C	-1.046433	0.483701	-0.283911
C57	C	-1.065375	0.465584	-0.180511
H58	H	-1.051463	0.860859	-0.478925
C59	C	-0.921239	0.602972	-1.307862
H60	H	-0.963345	0.562835	-1.322242
H61	H	-0.868150	0.590683	-1.327045
H62	H	-0.920289	0.666784	-1.340201
C63	C	-0.772850	1.091227	-0.744427
H64	H	-0.743458	1.054527	-0.772408
H65	H	-0.737326	1.123016	-0.715390
H66	H	-0.789469	1.136073	-0.791526
C67	C	-1.119962	0.413568	-0.879468
H68	H	-1.170028	0.365836	-0.849921
H69	H	-1.126967	0.469784	-0.867859
H70	H	-1.074837	0.393673	-0.854719
H71	H	-0.829168	1.209803	-0.690840
C72	C	-0.772760	0.744538	-1.092048
H73	H	-0.769954	0.747218	-1.155368
H74	H	-0.723946	0.728177	-1.073778
H75	H	-0.776086	0.804277	-1.086929
H76	H	-1.051403	0.478935	-0.861818
H77	H	-0.825104	0.898194	-0.694535
C78	C	-1.232474	0.306317	-0.959889
H79	H	-1.261857	0.278295	-0.996602
H80	H	-1.268002	0.335350	-0.928155
H81	H	-1.215868	0.259244	-0.915002
H82	H	-0.829068	0.690856	-1.210636
C83	C	-1.195485	0.341550	-1.163819
H84	H	-1.174797	0.361260	-1.230078
H85	H	-1.250070	0.352412	-1.150264
H86	H	-1.197930	0.276311	-1.137112
C87	C	-0.809734	0.709314	-0.888121
H88	H	-0.764822	0.752140	-0.937061
H89	H	-0.787942	0.667196	-0.844086
H90	H	-0.840086	0.743293	-0.857244
C91	C	-1.120035	0.878485	-0.413637
H92	H	-1.170105	0.848915	-0.365940
H93	H	-1.074911	0.853775	-0.393715
H94	H	-1.127051	0.866853	-0.469854
H95	H	-1.212216	0.975679	-0.325886
H96	H	-1.180286	1.151896	-0.356402
H97	H	-0.926400	1.279250	-0.598296
