data_functionalizedCrystal
_audit_creation_method	'MofGen! by Chris Wilmer'
_symmetry_space_group_name_H-M	'P1'
_symmetry_Int_Tables_number	1
_symmetry_cell_setting	triclinic
loop_
_symmetry_equiv_pos_as_xyz
  x,y,z
_cell_length_a	29.839134
_cell_length_b	25.639240
_cell_length_c	25.639233
_cell_angle_alpha	90.020815
_cell_angle_beta	89.976874
_cell_angle_gamma	89.961977
loop_
_atom_site_label
_atom_site_type_symbol
_atom_site_fract_x
_atom_site_fract_y
_atom_site_fract_z
Zn1	Zn	0.686719	0.208286	-0.295748
Zn2	Zn	0.686648	0.295705	-0.208309
Zn3	Zn	0.611601	0.208277	-0.208311
Zn4	Zn	0.611547	0.295684	-0.295698
O5	O	0.649129	0.251988	-0.252016
O6	O	0.749577	0.219895	-0.284170
O7	O	0.676685	0.284112	-0.135144
O8	O	0.621617	0.135113	-0.219931
O9	O	0.749524	0.284121	-0.219929
O10	O	0.676807	0.135120	-0.284171
O11	O	0.621548	0.219880	-0.135145
O12	O	0.548726	0.219860	-0.219882
O13	O	0.621527	0.284086	-0.368870
O14	O	0.548687	0.284078	-0.284085
O15	O	0.676755	0.219875	-0.368907
O16	O	0.676633	0.368867	-0.219880
O17	O	0.621458	0.368852	-0.284084
C18	C	0.532406	0.251966	-0.251979
C19	C	0.482472	0.251969	-0.251975
C20	C	0.649044	0.387831	-0.251988
C21	C	0.649049	0.445945	-0.251993
C22	C	0.649143	0.251979	-0.388389
C23	C	0.649149	0.251975	-0.446504
C24	C	0.172818	0.285476	-0.285406
C25	C	-0.014856	0.285490	-0.285429
O26	O	-0.039130	0.313954	-0.313831
N27	N	-0.038313	0.252007	-0.252056
C28	C	-0.014850	0.218516	-0.218677
O29	O	-0.039109	0.190033	-0.190295
C30	C	0.172822	0.218499	-0.218657
C31	C	0.196278	0.251988	-0.252028
C32	C	0.196273	0.318962	-0.318775
C33	C	0.243188	0.318960	-0.318767
C34	C	0.266648	0.285472	-0.285390
C35	C	0.243193	0.251986	-0.252020
C36	C	0.196285	0.185005	-0.185280
C37	C	0.243206	0.185003	-0.185279
C38	C	0.266661	0.218492	-0.218651
C39	C	0.313568	0.218496	-0.218634
N40	N	0.337026	0.251979	-0.252008
C41	C	0.313566	0.285467	-0.285385
C42	C	-0.113381	0.218528	-0.218689
C43	C	-0.160299	0.218533	-0.218693
C44	C	-0.160301	0.285507	-0.285447
C45	C	-0.113382	0.285504	-0.285439
C46	C	-0.089923	0.252011	-0.252062
C47	C	0.412092	0.285460	-0.285365
C48	C	0.459012	0.285457	-0.285353
C49	C	0.459010	0.218481	-0.218602
C50	C	0.412094	0.218486	-0.218612
C51	C	0.388637	0.251978	-0.251998
O52	O	0.337871	0.190043	-0.190252
O53	O	0.337833	0.313937	-0.313771
C54	C	0.125902	0.285478	-0.285414
C55	C	0.102447	0.251992	-0.252045
C56	C	0.125907	0.218504	-0.218667
C57	C	0.055529	0.251997	-0.252049
C58	C	0.032069	0.285485	-0.285427
C59	C	0.055527	0.318968	-0.318800
C60	C	0.102442	0.318966	-0.318792
C61	C	0.102449	0.185021	-0.185294
C62	C	0.055533	0.185026	-0.185304
C63	C	0.032073	0.218514	-0.218682
C64	C	0.766307	0.252011	-0.252055
C65	C	0.816241	0.252021	-0.252071
C66	C	0.677896	0.806303	-0.218622
C67	C	0.677910	0.860907	-0.218627
O68	O	0.702378	0.889140	-0.190239
N69	N	0.649165	0.888227	-0.252028
C70	C	0.620407	0.860940	-0.285430
O71	O	0.595959	0.889192	-0.313840
C72	C	0.620396	0.806337	-0.285427
C73	C	0.649140	0.779020	-0.252020
C74	C	0.706638	0.778986	-0.185219
C75	C	0.706624	0.724385	-0.185213
C76	C	0.677868	0.697102	-0.218611
C77	C	0.649126	0.724419	-0.252015
C78	C	0.591641	0.779050	-0.318831
C79	C	0.591633	0.724443	-0.318825
C80	C	0.620377	0.697126	-0.285419
C81	C	0.620355	0.642535	-0.285407
N82	N	0.649100	0.615215	-0.252006
C83	C	0.677856	0.642499	-0.218609
C84	C	0.620433	0.975611	-0.285434
C85	C	0.620442	1.030213	-0.285434
C86	C	0.677946	1.030177	-0.218632
C87	C	0.677934	0.975573	-0.218630
C88	C	0.649179	0.948291	-0.252033
C89	C	0.677824	0.527834	-0.218599
C90	C	0.677805	0.473228	-0.218595
C91	C	0.620304	0.473269	-0.285398
C92	C	0.620320	0.527870	-0.285401
C93	C	0.649084	0.555151	-0.251999
O94	O	0.595901	0.614268	-0.313783
O95	O	0.702305	0.614240	-0.190207
C96	C	0.649209	1.115615	-0.252048
C97	C	0.649200	1.057501	-0.252038
C98	C	0.677943	0.218441	-0.806892
C99	C	0.677949	0.218427	-0.861496
O100	O	0.702394	0.189976	-0.889754
N101	N	0.649199	0.251853	-0.888786
C102	C	0.620438	0.285291	-0.861469
O103	O	0.595985	0.313721	-0.889696
C104	C	0.620431	0.285303	-0.806866
C105	C	0.649186	0.251878	-0.779579
C106	C	0.706696	0.185019	-0.779604
C107	C	0.706690	0.185034	-0.725004
C108	C	0.677933	0.218472	-0.697691
C109	C	0.649181	0.251894	-0.724978
C110	C	0.591668	0.318739	-0.779550
C111	C	0.591663	0.318747	-0.724943
C112	C	0.620418	0.285323	-0.697656
C113	C	0.620418	0.285346	-0.643064
N114	N	0.649168	0.251920	-0.615774
C115	C	0.677926	0.218483	-0.643087
C116	C	0.620456	0.285264	-0.976140
C117	C	0.620465	0.285256	-1.030742
C118	C	0.677975	0.218390	-1.030765
C119	C	0.677968	0.218402	-0.976162
C120	C	0.649206	0.251838	-0.948850
C121	C	0.677913	0.218518	-0.528422
C122	C	0.677907	0.218538	-0.473817
C123	C	0.620395	0.285401	-0.473798
C124	C	0.620403	0.285384	-0.528399
C125	C	0.649163	0.251938	-0.555710
O126	O	0.595984	0.313781	-0.614772
O127	O	0.702371	0.190053	-0.614854
C128	C	0.649140	0.251960	-0.116174
C129	C	0.649221	0.251816	-0.058060
H130	H	0.478107	0.312730	-0.312528
H131	H	0.036417	0.346236	-0.345976
O132	O	0.705792	0.185989	-0.447337
C133	C	0.696015	0.133876	-0.460697
H134	H	0.660127	0.131230	-0.475691
H135	H	0.720110	0.120208	-0.492406
C136	C	0.745344	0.102239	-0.393785
C137	C	0.701264	0.098989	-0.412197
H138	H	0.748584	0.080718	-0.363870
H139	H	0.751932	0.137348	-0.384785
H140	H	0.765418	0.090850	-0.420214
H141	H	0.681191	0.110384	-0.385771
H142	H	0.694673	0.063881	-0.421192
O143	O	0.389261	0.318021	-0.317722
C144	C	0.362100	0.351760	-0.287899
H145	H	0.355055	0.333260	-0.248314
H146	H	0.380163	0.390493	-0.282075
C147	C	0.326199	0.384003	-0.365282
C148	C	0.317543	0.361280	-0.316665
H149	H	0.298715	0.389878	-0.383027
H150	H	0.344499	0.361274	-0.385375
H151	H	0.341253	0.416278	-0.360422
H152	H	0.302494	0.329003	-0.321526
H153	H	0.299239	0.384004	-0.296573
O154	O	0.125272	0.351421	-0.351239
C155	C	0.152431	0.321703	-0.385072
H156	H	0.159479	0.282055	-0.366703
H157	H	0.134365	0.316013	-0.423827
C158	C	0.188328	0.399184	-0.417051
C159	C	0.196987	0.350488	-0.394488
H160	H	0.215811	0.416940	-0.422861
H161	H	0.170029	0.419206	-0.394258
H162	H	0.173271	0.394435	-0.449344
H163	H	0.212038	0.355238	-0.362192
H164	H	0.215289	0.330468	-0.417275
H165	H	0.596993	0.312605	-0.550618
H166	H	0.730105	0.157815	-0.702791
H167	H	0.262304	0.157725	-0.158102
H168	H	0.701362	1.052401	-0.191440
O169	O	0.173439	0.351521	-0.351127
C170	C	0.146281	0.385261	-0.321300
H171	H	0.139238	0.366761	-0.281715
H172	H	0.164347	0.423993	-0.315476
C173	C	0.110377	0.417510	-0.398679
C174	C	0.101723	0.394786	-0.350061
H175	H	0.082892	0.423388	-0.416420
H176	H	0.128674	0.394781	-0.418774
H177	H	0.125433	0.449784	-0.393819
H178	H	0.086672	0.362510	-0.354922
H179	H	0.083422	0.417511	-0.329967
H180	H	0.597032	1.052450	-0.312632
O181	O	0.592506	0.317804	-0.949692
C182	C	0.567129	0.347293	-0.985493
H183	H	0.585536	0.349089	-1.024420
H184	H	0.533022	0.328143	-0.991292
C185	C	0.538009	0.400740	-0.916370
C186	C	0.560619	0.402950	-0.964180
H187	H	0.533991	0.435072	-0.903223
H188	H	0.555104	0.380872	-0.892250
H189	H	0.509588	0.384780	-0.921210
H190	H	0.589040	0.418905	-0.959339
H191	H	0.543528	0.422823	-0.988300
O192	O	-0.090669	0.318049	-0.317909
C193	C	-0.121442	0.347615	-0.347356
H194	H	-0.154875	0.326204	-0.349204
H195	H	-0.126459	0.387296	-0.328137
C196	C	-0.062055	0.381529	-0.400719
C197	C	-0.103117	0.355229	-0.402993
H198	H	-0.050751	0.386228	-0.435038
H199	H	-0.041322	0.361611	-0.380879
H200	H	-0.066242	0.414594	-0.384701
H201	H	-0.098929	0.322163	-0.419005
H202	H	-0.123849	0.375142	-0.422837
O203	O	0.389262	0.185925	-0.186270
C204	C	0.362173	0.152190	-0.216114
H205	H	0.355149	0.170697	-0.255699
H206	H	0.380290	0.113460	-0.221937
C207	C	0.326228	0.119927	-0.138757
C208	C	0.317597	0.142660	-0.187374
H209	H	0.298731	0.114046	-0.121028
H210	H	0.344479	0.142653	-0.118650
H211	H	0.341325	0.087655	-0.143616
H212	H	0.302504	0.174935	-0.182514
H213	H	0.299342	0.119939	-0.207480
O214	O	0.563690	0.351222	-0.805967
C215	C	0.538316	0.380738	-0.770141
H216	H	0.536781	0.359327	-0.731221
H217	H	0.554734	0.420454	-0.764333
C218	C	0.492381	0.414550	-0.839225
C219	C	0.490492	0.388250	-0.791425
H220	H	0.462881	0.419186	-0.852354
H221	H	0.509477	0.394666	-0.863362
H222	H	0.506064	0.447644	-0.834379
H223	H	0.476814	0.355155	-0.796273
H224	H	0.473393	0.408129	-0.767288
H225	H	0.730113	0.157787	-0.801837
H226	H	0.568236	0.345970	-0.702708
O227	O	0.032821	0.152443	-0.152867
C228	C	0.063594	0.122897	-0.123400
H229	H	0.097050	0.121124	-0.144815
H230	H	0.068554	0.141981	-0.083653
C231	C	0.004226	0.069414	-0.089672
C232	C	0.045316	0.067233	-0.115977
H233	H	-0.007049	0.035078	-0.085091
H234	H	-0.016507	0.089321	-0.109523
H235	H	0.008365	0.085319	-0.056553
H236	H	0.041175	0.051334	-0.149098
H237	H	0.066048	0.047322	-0.096131
H238	H	0.701390	0.191162	-1.053014
H239	H	0.597013	0.953400	-0.312633
O240	O	-0.183164	0.317986	-0.317856
C241	C	-0.229603	0.310814	-0.310690
H242	H	-0.235992	0.270441	-0.293634
H243	H	-0.242946	0.341789	-0.282795
C244	C	-0.245828	0.365259	-0.384531
C245	C	-0.253676	0.315671	-0.363587
H246	H	-0.260678	0.368258	-0.417160
H247	H	-0.214541	0.370093	-0.389358
H248	H	-0.256948	0.391066	-0.361281
H249	H	-0.242551	0.289866	-0.386835
H250	H	-0.284961	0.310833	-0.358766
H251	H	0.262282	0.346229	-0.345943
H252	H	-0.179392	0.191268	-0.191513
H253	H	-0.094284	0.191253	-0.191507
O254	O	0.481855	0.186026	-0.186155
C255	C	0.508956	0.215742	-0.152321
H256	H	0.515966	0.255395	-0.170684
H257	H	0.490859	0.221424	-0.113563
C258	C	0.544930	0.138262	-0.120358
C259	C	0.553542	0.186962	-0.142915
H260	H	0.572431	0.120509	-0.114554
H261	H	0.526670	0.118241	-0.143152
H262	H	0.529847	0.143003	-0.088062
H263	H	0.568619	0.182220	-0.175213
H264	H	0.571805	0.206982	-0.120126
O265	O	0.173577	0.152421	-0.152849
C266	C	0.204354	0.122874	-0.123387
H267	H	0.237807	0.121104	-0.144806
H268	H	0.209317	0.141956	-0.083639
C269	C	0.144990	0.069387	-0.089655
C270	C	0.186077	0.067209	-0.115965
H271	H	0.133716	0.035051	-0.085075
H272	H	0.124255	0.089294	-0.109503
H273	H	0.149131	0.085291	-0.056535
H274	H	0.181934	0.051312	-0.149086
H275	H	0.206811	0.047298	-0.096123
H276	H	0.121545	0.157750	-0.158113
O277	O	0.734529	0.697912	-0.152694
C278	C	0.724741	0.711282	-0.100572
H279	H	0.707474	0.750943	-0.099471
H280	H	0.701654	0.680579	-0.082923
C281	C	0.789767	0.665073	-0.070316
C282	C	0.768563	0.713787	-0.068964
H283	H	0.816798	0.666616	-0.050818
H284	H	0.796361	0.656064	-0.105432
H285	H	0.770524	0.639493	-0.055610
H286	H	0.787804	0.739365	-0.083676
H287	H	0.761973	0.722801	-0.033850
H288	H	0.596983	0.312627	-0.451550
H289	H	0.701212	0.450988	-0.191389
O290	O	0.563706	0.805497	-0.351334
C291	C	0.538321	0.769696	-0.380799
H292	H	0.556717	0.730754	-0.382620
H293	H	0.504210	0.763933	-0.361613
C294	C	0.509228	0.838807	-0.434207
C295	C	0.531824	0.790979	-0.436447
H296	H	0.505218	0.851936	-0.468532
H297	H	0.526329	0.862927	-0.414354
H298	H	0.480804	0.833998	-0.418216
H299	H	0.560249	0.795790	-0.452432
H300	H	0.514727	0.766860	-0.456304
O301	O	0.705836	0.949097	-0.186109
C302	C	0.696042	0.962463	-0.133987
H303	H	0.678777	1.002125	-0.132886
H304	H	0.672951	0.931761	-0.116345
C305	C	0.761061	0.916246	-0.103724
C306	C	0.739860	0.964962	-0.102371
H307	H	0.788090	0.917785	-0.084221
H308	H	0.767659	0.907239	-0.138839
H309	H	0.741815	0.890666	-0.089023
H310	H	0.759105	0.990539	-0.117078
H311	H	0.733267	0.973973	-0.067258
O312	O	0.705777	0.554248	-0.186102
C313	C	0.731146	0.518420	-0.156631
H314	H	0.712733	0.479520	-0.154801
H315	H	0.765254	0.512564	-0.175818
C316	C	0.760274	0.587517	-0.103239
C317	C	0.737656	0.539741	-0.100988
H318	H	0.764292	0.600669	-0.068916
H319	H	0.743184	0.611656	-0.123096
H320	H	0.788695	0.582631	-0.119231
H321	H	0.709234	0.544628	-0.085002
H322	H	0.754742	0.515603	-0.081127
O323	O	0.705874	0.186103	-0.555004
C324	C	0.734881	0.215867	-0.586585
H325	H	0.719008	0.255482	-0.594763
H326	H	0.768165	0.221628	-0.565547
C327	C	0.762544	0.138426	-0.628410
C328	C	0.743047	0.187081	-0.638457
H329	H	0.767583	0.120669	-0.660406
H330	H	0.743003	0.118373	-0.607132
H331	H	0.790279	0.143234	-0.610877
H332	H	0.715311	0.182272	-0.655984
H333	H	0.762584	0.207132	-0.659739
H334	H	0.730058	0.801194	-0.158022
H335	H	0.568217	0.702233	-0.346028
H336	H	0.596916	0.550113	-0.312605
H337	H	0.596889	0.451047	-0.312589
H338	H	0.701382	0.191183	-0.953948
H339	H	0.597055	0.312479	-1.052955
