data_functionalizedCrystal
_audit_creation_method	'MofGen! by Chris Wilmer'
_symmetry_space_group_name_H-M	'P1'
_symmetry_Int_Tables_number	1
_symmetry_cell_setting	triclinic
loop_
_symmetry_equiv_pos_as_xyz
  x,y,z
_cell_length_a	19.805407
_cell_length_b	19.077068
_cell_length_c	19.805399
_cell_angle_alpha	92.269429
_cell_angle_beta	89.982197
_cell_angle_gamma	92.324333
loop_
_atom_site_label
_atom_site_type_symbol
_atom_site_fract_x
_atom_site_fract_y
_atom_site_fract_z
Zn1	Zn	1.023902	-0.280268	-0.393504
Zn2	Zn	1.523902	0.219732	0.106496
Zn3	Zn	1.019267	-0.397967	-0.284858
Zn4	Zn	1.519267	0.102033	0.215142
Zn5	Zn	0.910716	-0.280282	-0.280333
Zn6	Zn	1.410716	0.219718	0.219667
Zn7	Zn	0.906132	-0.397924	-0.398007
Zn8	Zn	1.406132	0.102076	0.101993
O9	O	0.965004	-0.339110	-0.339176
O10	O	1.465004	0.160890	0.160824
O11	O	1.118003	-0.295893	-0.379102
O12	O	1.618003	0.204107	0.120898
O13	O	1.004846	-0.382379	-0.189542
O14	O	1.504846	0.117621	0.310458
O15	O	0.929589	-0.181789	-0.291567
O16	O	1.429589	0.318211	0.208433
O17	O	1.114598	-0.382366	-0.299280
O18	O	1.614598	0.117634	0.200720
O19	O	1.012746	-0.181779	-0.374713
O20	O	1.512746	0.318221	0.125287
O21	O	0.925094	-0.295917	-0.186217
O22	O	1.425094	0.204083	0.313783
O23	O	0.815392	-0.295875	-0.295933
O24	O	1.315392	0.204125	0.204067
O25	O	0.921776	-0.382293	-0.492125
O26	O	1.421776	0.117707	0.007875
O27	O	0.812024	-0.382306	-0.382388
O28	O	1.312024	0.117694	0.117612
O29	O	1.008301	-0.295851	-0.488817
O30	O	1.508301	0.204149	0.011183
O31	O	1.000402	-0.496452	-0.303646
O32	O	1.500402	0.003548	0.196354
O33	O	0.917282	-0.496421	-0.386776
O34	O	1.417282	0.003579	0.113224
C35	C	0.789149	-0.339088	-0.339158
C36	C	1.289149	0.160912	0.160842
C37	C	0.713917	-0.339096	-0.339168
C38	C	1.213917	0.160904	0.160832
C39	C	0.680343	-0.294149	-0.380800
C40	C	1.180343	0.205851	0.119200
C41	C	0.609655	-0.294153	-0.380802
C42	C	1.109655	0.205847	0.119198
C43	C	0.572541	-0.339107	-0.339176
C44	C	1.072541	0.160893	0.160824
C45	C	0.606119	-0.384056	-0.297539
C46	C	1.106119	0.115944	0.202461
C47	C	0.676807	-0.384048	-0.297534
C48	C	1.176807	0.115952	0.202466
C49	C	0.321045	-0.384087	-0.297561
C50	C	0.821045	0.115913	0.202439
C51	C	0.250353	-0.384093	-0.297572
C52	C	0.750353	0.115907	0.202428
C53	C	0.253893	-0.294192	-0.380830
C54	C	0.753893	0.205808	0.119170
C55	C	0.324580	-0.294184	-0.380824
C56	C	0.824580	0.205816	0.119176
C57	C	0.358153	-0.339130	-0.339185
C58	C	0.858153	0.160870	0.160815
C59	C	0.434801	-0.339124	-0.339182
C60	C	0.934801	0.160876	0.160818
C61	C	0.495893	-0.339117	-0.339183
C62	C	0.995893	0.160883	0.160817
C63	C	0.957860	-0.521974	-0.346205
C64	C	1.457860	-0.021974	0.153795
C65	C	0.954865	-0.600204	-0.349235
C66	C	1.454865	-0.100204	0.150765
C67	C	0.996768	-0.636950	-0.307414
C68	C	1.496768	-0.136950	0.192586
C69	C	0.993955	-0.710455	-0.310268
C70	C	1.493955	-0.210455	0.189732
C71	C	0.949236	-0.747213	-0.354940
C72	C	1.449236	-0.247213	0.145060
C73	C	0.907332	-0.710462	-0.396767
C74	C	1.407332	-0.210462	0.103233
C75	C	0.910148	-0.636958	-0.393916
C76	C	1.410148	-0.136958	0.106084
C77	C	0.936172	-0.967047	-0.368107
C78	C	1.436172	-0.467047	0.131893
C79	C	0.933357	-1.040557	-0.370954
C80	C	1.433357	-0.540557	0.129046
C81	C	1.019982	-1.040544	-0.284455
C82	C	1.519982	-0.540544	0.215545
C83	C	1.022792	-0.967039	-0.281605
C84	C	1.522792	-0.467039	0.218395
C85	C	0.980890	-0.930294	-0.323434
C86	C	1.480890	-0.430294	0.176566
N87	N	0.946359	-0.822347	-0.357857
N88	N	1.446359	-0.322347	0.142143
N89	N	0.983771	-0.855161	-0.320520
N90	N	1.483771	-0.355161	0.179480
C91	C	1.141546	-0.339133	-0.339193
C92	C	1.641546	0.160867	0.160807
C93	C	1.216778	-0.339142	-0.339201
C94	C	1.716778	0.160858	0.160799
C95	C	0.965044	-0.339066	-0.515717
C96	C	1.465044	0.160934	-0.015717
C97	C	0.965061	-0.339047	-0.590948
C98	C	1.465061	0.160953	-0.090948
C99	C	0.972195	-0.155532	-0.332133
C100	C	1.472195	0.344468	0.167867
C101	C	0.975260	-0.077302	-0.329132
C102	C	1.475260	0.422698	0.170868
C103	C	1.010116	-0.294035	-0.624571
C104	C	1.510116	0.205965	-0.124571
C105	C	1.010123	-0.294014	-0.695258
C106	C	1.510123	0.205986	-0.195258
C107	C	0.965079	-0.339010	-0.732322
C108	C	1.465079	0.160990	-0.232322
C109	C	0.920020	-0.384024	-0.698695
C110	C	1.420020	0.115976	-0.198695
C111	C	0.920009	-0.384041	-0.628008
C112	C	1.420009	0.115959	-0.128008
C113	C	0.920061	-0.383959	-0.983766
C114	C	1.420061	0.116041	-0.483766
C115	C	0.920076	-0.383940	-1.054457
C116	C	1.420076	0.116060	-0.554457
C117	C	1.010175	-0.293932	-1.051016
C118	C	1.510175	0.206068	-0.551016
C119	C	1.010164	-0.293949	-0.980329
C120	C	1.510164	0.206051	-0.480329
C121	C	0.965103	-0.338960	-0.946708
C122	C	1.465103	0.161040	-0.446708
C123	C	0.965094	-0.338981	-0.870060
C124	C	1.465094	0.161019	-0.370060
C125	C	0.965091	-0.338994	-0.808969
C126	C	1.465091	0.161006	-0.308969
C127	C	0.965006	-0.339103	-0.163319
C128	C	1.465006	0.160897	0.336681
C129	C	0.965128	-0.338924	-0.088081
C130	C	1.465128	0.161076	0.411919
H131	H	0.226550	-0.257592	-0.414732
H132	H	0.726550	0.242408	0.085268
H133	H	1.046813	-0.257362	-0.722631
H134	H	1.546813	0.242638	-0.222631
H135	H	0.582323	-0.257554	-0.414705
H136	H	1.082323	0.242446	0.085295
C137	C	1.071237	-0.927099	-0.233018
C138	C	1.571237	-0.427099	0.266982
C139	C	1.034552	-0.884976	-0.187953
C140	C	1.534552	-0.384976	0.312047
C141	C	1.079154	-0.848182	-0.143176
C142	C	1.579154	-0.348182	0.356824
H143	H	1.101830	-0.898325	-0.257739
H144	H	1.601830	-0.398325	0.242261
H145	H	1.095778	-0.959492	-0.208480
H146	H	1.595778	-0.459492	0.291520
H147	H	1.010022	-0.852586	-0.212489
H148	H	1.510022	-0.352586	0.287511
H149	H	1.003961	-0.913733	-0.163216
H150	H	1.503961	-0.413733	0.336784
H151	H	1.103695	-0.880576	-0.118638
H152	H	1.603695	-0.380576	0.381362
H153	H	1.109745	-0.819412	-0.167904
H154	H	1.609745	-0.319412	0.332096
H155	H	1.054270	-0.819603	-0.112591
H156	H	1.554270	-0.319603	0.387409
C157	C	0.720516	-0.245265	-0.426020
C158	C	1.220516	0.254735	0.073980
C159	C	0.675981	-0.205890	-0.462467
C160	C	1.175981	0.294110	0.037533
C161	C	0.712962	-0.160842	-0.504124
C162	C	1.212962	0.339158	-0.004124
H163	H	0.747057	-0.272147	-0.456561
H164	H	1.247057	0.227853	0.043439
H165	H	0.749265	-0.214521	-0.399009
H166	H	1.249265	0.285479	0.100991
H167	H	0.647244	-0.236630	-0.489476
H168	H	1.147244	0.263370	0.010524
H169	H	0.649439	-0.178993	-0.431943
H170	H	1.149439	0.321007	0.068057
H171	H	0.741710	-0.130099	-0.477113
H172	H	1.241710	0.369901	0.022887
H173	H	0.739501	-0.187731	-0.534660
H174	H	1.239501	0.312269	-0.034660
H175	H	0.682750	-0.134117	-0.528853
H176	H	1.182750	0.365883	-0.028853
H177	H	1.046846	-0.257311	-0.950155
H178	H	1.546846	0.242689	-0.450155
H179	H	0.883393	-0.420583	-1.084633
H180	H	1.383393	0.079417	-0.584633
C181	C	0.209935	-0.432874	-0.252445
C182	C	0.709935	0.067126	0.247555
C183	C	0.140844	-0.423274	-0.261380
C184	C	0.640844	0.076726	0.238620
C185	C	0.103590	-0.468203	-0.219831
C186	C	0.603590	0.031797	0.280169
H187	H	0.221818	-0.422552	-0.206558
H188	H	0.721818	0.077448	0.293442
H189	H	0.219641	-0.480193	-0.264096
H190	H	0.719641	0.019807	0.235904
H191	H	0.131142	-0.375967	-0.249724
H192	H	0.631142	0.124033	0.250276
H193	H	0.128941	-0.433602	-0.307258
H194	H	0.628941	0.066398	0.192742
H195	H	0.113296	-0.515522	-0.231482
H196	H	0.613296	-0.015522	0.268518
H197	H	0.115479	-0.457877	-0.173946
H198	H	0.615479	0.042123	0.326054
H199	H	0.056708	-0.461700	-0.225892
H200	H	0.556708	0.038300	0.274108
C201	C	0.357446	-0.433007	-0.252445
C202	C	0.857446	0.066993	0.247555
C203	C	0.337554	-0.502666	-0.269767
C204	C	0.837554	-0.002666	0.230233
C205	C	0.371080	-0.547753	-0.228224
C206	C	0.871080	-0.047753	0.271776
H207	H	0.346267	-0.422738	-0.206568
H208	H	0.846267	0.077262	0.293432
H209	H	0.404865	-0.426615	-0.258404
H210	H	0.904865	0.073385	0.241596
H211	H	0.290145	-0.509054	-0.263803
H212	H	0.790145	-0.009054	0.236197
H213	H	0.348733	-0.512956	-0.315638
H214	H	0.848733	-0.012956	0.184362
H215	H	0.418500	-0.541361	-0.234183
H216	H	0.918500	-0.041361	0.265817
H217	H	0.359899	-0.537478	-0.182349
H218	H	0.859899	-0.037478	0.317651
H219	H	0.357593	-0.595021	-0.239975
H220	H	0.857593	-0.095021	0.260025
H221	H	1.028077	-0.740370	-0.276211
H222	H	1.528077	-0.240370	0.223789
H223	H	0.354795	-0.257580	-0.414723
H224	H	0.854795	0.242420	0.085277
H225	H	0.870923	-0.740397	-0.433143
H226	H	1.370923	-0.240397	0.066857
H227	H	0.883378	-0.420620	-0.956400
H228	H	1.383378	0.079380	-0.456400
H229	H	1.046864	-0.257279	-1.078399
H230	H	1.546864	0.242721	-0.578399
C231	C	1.065396	-1.080405	-0.238937
C232	C	1.565396	-0.580405	0.261063
C233	C	1.051373	-1.062601	-0.171262
C234	C	1.551373	-0.562601	0.328738
C235	C	1.093193	-1.099314	-0.129312
C236	C	1.593193	-0.599314	0.370688
H237	H	1.111353	-1.068345	-0.248329
H238	H	1.611353	-0.568345	0.251671
H239	H	1.057309	-1.129452	-0.246988
H240	H	1.557309	-0.629452	0.253012
H241	H	1.059466	-1.013565	-0.163214
H242	H	1.559466	-0.513565	0.336786
H243	H	1.005424	-1.074663	-0.161848
H244	H	1.505424	-0.574663	0.338152
H245	H	1.085106	-1.148361	-0.137364
H246	H	1.585106	-0.648361	0.362636
H247	H	1.139148	-1.087251	-0.138711
H248	H	1.639148	-0.587251	0.361289
H249	H	1.083680	-1.087244	-0.083390
H250	H	1.583680	-0.587244	0.416610
H251	H	0.902052	-0.937136	-0.402165
H252	H	1.402052	-0.437136	0.097835
C253	C	0.713300	-0.432733	-0.252246
C254	C	1.213300	0.067267	0.247754
C255	C	0.755405	-0.392817	-0.207376
C256	C	1.255405	0.107183	0.292624
C257	C	0.789025	-0.437640	-0.165638
C258	C	1.289025	0.062360	0.334362
H259	H	0.739745	-0.463446	-0.279188
H260	H	1.239745	0.036554	0.220812
H261	H	0.681095	-0.459496	-0.227417
H262	H	1.181095	0.040504	0.272583
H263	H	0.787606	-0.366066	-0.232203
H264	H	1.287606	0.133934	0.267797
H265	H	0.728977	-0.362106	-0.180420
H266	H	1.228977	0.137894	0.319580
H267	H	0.756819	-0.464403	-0.140809
H268	H	1.256819	0.035597	0.359191
H269	H	0.815466	-0.468351	-0.192585
H270	H	1.315466	0.031649	0.307415
H271	H	0.817592	-0.410563	-0.135185
H272	H	1.317592	0.089437	0.364815
H273	H	0.575896	-0.420655	-0.263643
H274	H	1.075896	0.079345	0.236357
H275	H	0.896949	-1.070483	-0.407343
H276	H	1.396949	-0.570483	0.092657
H277	H	0.883342	-0.420658	-0.728878
H278	H	1.383342	0.079342	-0.228878
H279	H	1.033180	-0.607026	-0.271033
H280	H	1.533180	-0.107026	0.228967
C281	C	0.864577	-0.597187	-0.439356
C282	C	1.364577	-0.097187	0.060644
C283	C	0.824799	-0.645109	-0.479078
C284	C	1.324799	-0.145109	0.020922
C285	C	0.782807	-0.608499	-0.520944
C286	C	1.282807	-0.108499	-0.020944
H287	H	0.891481	-0.568472	-0.467815
H288	H	1.391481	-0.068472	0.032185
H289	H	0.836160	-0.568567	-0.412347
H290	H	1.336160	-0.068567	0.087653
H291	H	0.853213	-0.673717	-0.506085
H292	H	1.353213	-0.173717	-0.006085
H293	H	0.797881	-0.673826	-0.450637
H294	H	1.297881	-0.173826	0.049363
H295	H	0.754390	-0.579879	-0.493935
H296	H	1.254390	-0.079879	0.006065
H297	H	0.809717	-0.579785	-0.549399
H298	H	1.309717	-0.079785	-0.049399
H299	H	0.755809	-0.641008	-0.547896
H300	H	1.255809	-0.141008	-0.047896
H301	H	1.046798	-0.257396	-0.594398
H302	H	1.546798	0.242604	-0.094398
C303	C	0.871181	-0.433036	-0.591536
C304	C	1.371181	0.066964	-0.091536
C305	C	0.883212	-0.502670	-0.611390
C306	C	1.383212	-0.002670	-0.111390
C307	C	0.838251	-0.547825	-0.577798
C308	C	1.338251	-0.047825	-0.077798
H309	H	0.826078	-0.422827	-0.602687
H310	H	1.326078	0.077173	-0.102687
H311	H	0.877634	-0.426646	-0.544126
H312	H	1.377634	0.073354	-0.044126
H313	H	0.876754	-0.509056	-0.658789
H314	H	1.376754	-0.009056	-0.158789
H315	H	0.928306	-0.512901	-0.600238
H316	H	1.428306	-0.012901	-0.100238
H317	H	0.844704	-0.541435	-0.530388
H318	H	1.344704	-0.041435	-0.030388
H319	H	0.793151	-0.537609	-0.588952
H320	H	1.293151	-0.037609	-0.088952
H321	H	0.846412	-0.595077	-0.591259
H322	H	1.346412	-0.095077	-0.091259
