data_functionalizedCrystal
_audit_creation_method	'MofGen! by Chris Wilmer'
_symmetry_space_group_name_H-M	'P1'
_symmetry_Int_Tables_number	1
_symmetry_cell_setting	triclinic
loop_
_symmetry_equiv_pos_as_xyz
  x,y,z
_cell_length_a	11.792241
_cell_length_b	11.792240
_cell_length_c	10.868271
_cell_angle_alpha	90.014483
_cell_angle_beta	89.999893
_cell_angle_gamma	95.806583
loop_
_atom_site_label
_atom_site_type_symbol
_atom_site_fract_x
_atom_site_fract_y
_atom_site_fract_z
O1	O	1.506908	-0.155569	-0.102230
O2	O	1.840242	0.177765	0.231103
O3	O	2.173575	0.511098	0.564436
O4	O	1.176567	-0.171601	-0.102262
O5	O	1.509901	0.161732	0.231071
O6	O	1.843234	0.495065	0.564405
O7	O	1.349754	0.001586	-0.102208
O8	O	1.683088	0.334919	0.231125
O9	O	2.016421	0.668252	0.564459
O10	O	1.333721	-0.328756	-0.102284
O11	O	1.667055	0.004578	0.231049
O12	O	2.000388	0.337911	0.564382
O13	O	1.349740	0.001592	0.102437
O14	O	1.683073	0.334926	0.435770
O15	O	2.016407	0.668259	0.769103
O16	O	1.176553	-0.171595	0.102383
O17	O	1.509886	0.161739	0.435716
O18	O	1.843220	0.495072	0.769049
O19	O	1.506894	-0.155562	0.102414
O20	O	1.840227	0.177772	0.435748
O21	O	2.173561	0.511105	0.769081
Zn22	Zn	1.341721	-0.163577	0.134890
Zn23	Zn	1.675055	0.169756	0.468224
Zn24	Zn	2.008388	0.503090	0.801557
Zn25	Zn	1.341740	-0.163586	-0.134738
Zn26	Zn	1.675073	0.169747	0.198595
Zn27	Zn	2.008407	0.503081	0.531929
O28	O	1.333707	-0.328749	0.102360
O29	O	1.667040	0.004585	0.435694
O30	O	2.000374	0.337918	0.769027
C31	C	1.134269	-0.170591	0.000057
C32	C	1.467603	0.162742	0.333390
C33	C	1.800936	0.496076	0.666724
C34	C	1.008255	-0.167576	0.000047
C35	C	1.341589	0.165757	0.333380
C36	C	1.674922	0.499090	0.666713
C37	C	1.348740	0.043880	0.000121
C38	C	1.682073	0.377213	0.333455
C39	C	2.015407	0.710547	0.666788
C40	C	1.345726	0.169894	0.000142
C41	C	1.679059	0.503227	0.333475
C42	C	2.012392	0.836560	0.666808
N43	N	1.341717	-0.163570	0.318904
N44	N	1.675050	0.169763	0.652238
N45	N	2.008383	0.503096	0.985571
C46	C	0.777543	-0.162034	0.000083
C47	C	1.110877	0.171300	0.333417
C48	C	1.444210	0.504633	0.666750
C49	C	0.905928	-0.165113	0.000063
C50	C	1.239262	0.168220	0.333397
C51	C	1.572595	0.501553	0.666730
C52	C	1.549192	-0.156572	0.000093
C53	C	1.882525	0.176761	0.333426
C54	C	2.215859	0.510094	0.666759
C55	C	1.675206	-0.159587	0.000095
C56	C	2.008539	0.173747	0.333428
C57	C	2.341873	0.507080	0.666761
C58	C	1.340183	0.400606	0.000161
C59	C	1.673516	0.733939	0.333494
C60	C	2.006849	1.067273	0.666828
C61	C	1.343262	0.272221	0.000150
C62	C	1.676596	0.605554	0.333483
C63	C	2.009929	0.938887	0.666817
C64	C	1.334721	0.628957	0.000072
C65	C	1.668055	0.962290	0.333406
C66	C	2.001388	1.295624	0.666739
C67	C	1.337736	0.502943	0.000174
C68	C	1.671069	0.836277	0.333508
C69	C	2.004402	1.169610	0.666841
N70	N	1.341754	-0.163584	-0.318752
N71	N	1.675087	0.169749	0.014581
N72	N	2.008420	0.503083	0.347915
C73	C	1.341734	-0.163584	0.569910
C74	C	1.675068	0.169750	0.903244
C75	C	2.008401	0.503083	1.236577
C76	C	1.341721	-0.163580	0.430233
C77	C	1.675054	0.169754	0.763566
C78	C	2.008387	0.503087	1.096900
