data_functionalizedCrystal
_audit_creation_method	'MofGen! by Chris Wilmer'
_symmetry_space_group_name_H-M	'P1'
_symmetry_Int_Tables_number	1
_symmetry_cell_setting	triclinic
loop_
_symmetry_equiv_pos_as_xyz
  x,y,z
_cell_length_a	10.489741
_cell_length_b	16.109301
_cell_length_c	14.586319
_cell_angle_alpha	90.005214
_cell_angle_beta	90.000816
_cell_angle_gamma	84.000327
loop_
_atom_site_label
_atom_site_type_symbol
_atom_site_fract_x
_atom_site_fract_y
_atom_site_fract_z
O1	O	-1.692350	-0.117298	-0.076187
O2	O	-1.320995	-0.128308	-0.076202
O3	O	-1.516874	-0.001835	-0.076184
O4	O	-1.496471	-0.243771	-0.076204
O5	O	-1.516860	-0.001833	0.076296
O6	O	-1.320981	-0.128306	0.076279
O7	O	-1.692337	-0.117296	0.076294
Cu8	Cu	-1.506658	-0.122801	0.090209
Cu9	Cu	-1.506674	-0.122803	-0.090117
O10	O	-1.496457	-0.243769	0.076277
C11	C	-1.516041	0.029146	0.000056
C12	C	-1.513563	0.121457	0.000058
C13	C	-1.273468	-0.127475	0.000037
C14	C	-1.131875	-0.124987	0.000032
C15	C	-1.739863	-0.118128	0.000053
C16	C	-1.881456	-0.120616	0.000052
C17	C	-1.064902	-0.044516	0.000047
C18	C	-0.972231	-0.082531	-0.075135
C19	C	-0.972251	-0.082548	0.075199
C20	C	-1.041068	-0.163035	-0.075212
C21	C	-1.041098	-0.163041	0.075189
C22	C	-0.948453	-0.201115	-0.000011
C23	C	-1.497291	-0.274750	0.000034
C24	C	-1.499769	-0.367060	0.000027
N25	N	-1.506656	-0.122799	0.217041
C26	C	-1.624032	0.343048	0.000047
C27	C	-1.621694	0.429783	0.000040
C28	C	-1.389290	0.411341	0.000034
C29	C	-1.391630	0.324608	0.000035
C30	C	-1.509004	0.290464	0.000047
C31	C	-1.504327	0.463932	0.000038
C32	C	-1.501791	0.557974	0.000030
C33	C	-1.511541	0.196417	0.000053
N34	N	-1.506686	-0.122799	-0.216949
C35	C	-1.593420	-0.066815	0.452055
C36	C	-1.593423	-0.066813	0.548036
C37	C	-1.419913	-0.178784	0.548031
C38	C	-1.419904	-0.178782	0.452051
C39	C	-1.506665	-0.122798	0.404066
C40	C	-1.506677	-0.122799	0.596027
C41	C	-1.506680	-0.122797	0.700094
C42	C	-1.506660	-0.122799	0.299992
H43	H	-0.941716	-0.048483	-0.138692
H44	H	-1.664064	-0.021229	0.412988
O45	O	-1.280003	0.273403	-0.000006
C46	C	-1.307240	0.189529	0.000015
H47	H	-1.407428	0.185610	-0.028848
H48	H	-1.233926	0.150672	-0.044258
H49	H	-1.302392	0.164483	0.073167
H50	H	-1.664066	-0.021226	0.587106
O51	O	-1.335769	-0.233139	0.594788
C52	C	-1.354359	-0.221126	0.689793
H53	H	-1.455775	-0.190694	0.702899
H54	H	-1.340148	-0.284001	0.726260
H55	H	-1.282188	-0.178971	0.717043
H56	H	-1.293728	0.439152	0.000027
H57	H	-0.941762	-0.048484	0.138760
O58	O	-1.733348	0.480949	0.000164
C59	C	-1.738960	0.531668	0.079142
H60	H	-1.637719	0.536660	0.105468
H61	H	-1.786495	0.596558	0.061377
H62	H	-1.797201	0.502800	0.134445
H63	H	-1.071645	-0.197062	0.138749
O64	O	-1.125242	0.034425	-0.000199
C65	C	-1.090348	0.076545	-0.079603
H66	H	-1.056922	0.029015	-0.134731
H67	H	-1.176604	0.118789	-0.105844
H68	H	-1.009305	0.115891	-0.062444
O69	O	-1.077388	-0.203701	-0.151035
C70	C	-1.138147	-0.273877	-0.124217
H71	H	-1.177262	-0.264108	-0.051664
H72	H	-1.220382	-0.282386	-0.173273
H73	H	-1.065932	-0.331882	-0.126028
H74	H	-1.349251	-0.224370	0.412976
O75	O	-0.888391	-0.280129	-0.000224
C76	C	-0.923497	-0.322238	-0.079587
H77	H	-0.956785	-0.274706	-0.134737
H78	H	-0.837393	-0.364627	-0.105827
H79	H	-1.004699	-0.361432	-0.062374
O80	O	-1.737965	0.309781	-0.000074
C81	C	-1.746283	0.260172	-0.079056
H82	H	-1.645744	0.239170	-0.105382
H83	H	-1.797109	0.203086	-0.061296
H84	H	-1.802722	0.298144	-0.134356
