data_functionalizedCrystal
_audit_creation_method	'MofGen! by Chris Wilmer'
_symmetry_space_group_name_H-M	'P1'
_symmetry_Int_Tables_number	1
_symmetry_cell_setting	triclinic
loop_
_symmetry_equiv_pos_as_xyz
  x,y,z
_cell_length_a	16.120490
_cell_length_b	18.050589
_cell_length_c	16.120256
_cell_angle_alpha	92.877403
_cell_angle_beta	90.129807
_cell_angle_gamma	87.120764
loop_
_atom_site_label
_atom_site_type_symbol
_atom_site_fract_x
_atom_site_fract_y
_atom_site_fract_z
Zn1	Zn	1.247411	-0.376323	-0.534559
Zn2	Zn	1.580744	-0.042989	-0.201226
Zn3	Zn	1.914077	0.290344	0.132108
Zn4	Zn	1.254350	-0.494544	-0.395508
Zn5	Zn	1.587684	-0.161211	-0.062174
Zn6	Zn	1.921017	0.172123	0.271159
Zn7	Zn	1.115402	-0.363763	-0.388479
Zn8	Zn	1.448735	-0.030430	-0.055146
Zn9	Zn	1.782068	0.302904	0.278188
Zn10	Zn	1.108306	-0.493857	-0.527481
Zn11	Zn	1.441639	-0.160523	-0.194148
Zn12	Zn	1.774973	0.172810	0.139186
O13	O	1.181367	-0.432122	-0.461507
O14	O	1.514700	-0.098788	-0.128173
O15	O	1.848034	0.234545	0.205160
O16	O	1.364698	-0.397549	-0.522017
O17	O	1.698031	-0.064216	-0.188684
O18	O	2.031364	0.269118	0.144649
O19	O	1.241792	-0.472227	-0.278209
O20	O	1.575126	-0.138894	0.055124
O21	O	1.908459	0.194440	0.388458
O22	O	1.132978	-0.261508	-0.407877
O23	O	1.466312	0.071825	-0.074544
O24	O	1.799645	0.405158	0.258789
O25	O	1.369796	-0.484406	-0.419857
O26	O	1.703129	-0.151072	-0.086524
O27	O	2.036463	0.182261	0.246810
O28	O	1.229965	-0.270736	-0.515202
O29	O	1.563298	0.062597	-0.181868
O30	O	1.896631	0.395931	0.151465
O31	O	1.139707	-0.376143	-0.273045
O32	O	1.473041	-0.042809	0.060288
O33	O	1.806374	0.290524	0.393622
O34	O	0.998094	-0.375476	-0.401014
O35	O	1.331427	-0.042143	-0.067681
O36	O	1.664761	0.291191	0.265653
O37	O	1.120885	-0.483234	-0.644786
O38	O	1.454218	-0.149901	-0.311453
O39	O	1.787551	0.183432	0.021880
O40	O	0.992881	-0.471055	-0.503138
O41	O	1.326214	-0.137722	-0.169805
O42	O	1.659547	0.195611	0.163528
O43	O	1.223084	-0.396882	-0.649987
O44	O	1.556418	-0.063549	-0.316653
O45	O	1.889751	0.269784	0.016680
O46	O	1.234912	-0.598374	-0.412994
O47	O	1.568245	-0.265040	-0.079660
O48	O	1.901578	0.068293	0.253673
O49	O	1.127614	-0.597869	-0.509954
O50	O	1.460947	-0.264535	-0.176621
O51	O	1.794280	0.068798	0.156713
C52	C	0.965315	-0.421829	-0.450546
C53	C	1.298648	-0.088496	-0.117213
C54	C	1.631981	0.244838	0.216121
C55	C	0.872886	-0.417444	-0.445877
C56	C	1.206219	-0.084111	-0.112543
C57	C	1.539552	0.249222	0.220790
C58	C	0.659920	-0.454859	-0.485729
C59	C	0.993254	-0.121526	-0.152395
C60	C	1.326587	0.211807	0.180938
C61	C	0.703662	-0.409446	-0.437351
C62	C	1.036995	-0.076113	-0.104017
C63	C	1.370328	0.257221	0.229316
C64	C	0.797827	-0.413898	-0.442096
C65	C	1.131160	-0.080564	-0.108763
C66	C	1.464493	0.252769	0.224571
C67	C	0.565747	-0.450409	-0.480984
C68	C	0.899080	-0.117075	-0.147651
C69	C	1.232413	0.216258	0.185682
C70	C	1.181267	-0.625068	-0.461488
C71	C	1.514601	-0.291735	-0.128155
C72	C	1.847934	0.041598	0.205179
C73	C	1.181299	-0.707617	-0.461511
C74	C	1.514633	-0.374283	-0.128178
C75	C	1.847966	-0.040950	0.205155
C76	C	1.123006	-0.906821	-0.514222
C77	C	1.456340	-0.573488	-0.180888
C78	C	1.789673	-0.240155	0.152445
C79	C	1.106583	-0.952040	-0.437316
C80	C	1.439917	-0.618707	-0.103983
C81	C	1.773250	-0.285374	0.229351
C82	C	1.181381	-0.858751	-0.461526
C83	C	1.514714	-0.525418	-0.128193
C84	C	1.848047	-0.192085	0.205140
C85	C	1.197844	-0.960616	-0.538443
C86	C	1.531177	-0.627283	-0.205109
C87	C	1.864511	-0.293950	0.128224
C88	C	1.181457	-1.004741	-0.461548
C89	C	1.514790	-0.671407	-0.128214
C90	C	1.848124	-0.338074	0.205119
C91	C	1.164920	-0.902880	-0.384579
C92	C	1.498253	-0.569546	-0.051245
C93	C	1.831586	-0.236213	0.282088
C94	C	1.256213	-0.911455	-0.485758
C95	C	1.589546	-0.578122	-0.152425
C96	C	1.922880	-0.244788	0.180908
C97	C	1.239822	-0.956651	-0.408802
C98	C	1.573155	-0.623317	-0.075468
C99	C	1.906488	-0.289984	0.257865
C100	C	1.181334	-0.774650	-0.461515
C101	C	1.514668	-0.441317	-0.128182
C102	C	1.848001	-0.107984	0.205151
C103	C	1.181504	-1.088840	-0.461550
C104	C	1.514837	-0.755506	-0.128217
C105	C	1.848170	-0.422173	0.205117
C106	C	1.398263	-0.442455	-0.472511
C107	C	1.731596	-0.109122	-0.139177
C108	C	2.064930	0.224212	0.194156
C109	C	1.490691	-0.446859	-0.477200
C110	C	1.824024	-0.113525	-0.143867
C111	C	2.157358	0.219808	0.189467
C112	C	1.170419	-0.441383	-0.678403
C113	C	1.503752	-0.108049	-0.345069
C114	C	1.837085	0.225284	-0.011736
C115	C	1.165753	-0.445329	-0.770831
C116	C	1.499087	-0.111996	-0.437497
C117	C	1.832420	0.221337	-0.104164
C118	C	1.181489	-0.238423	-0.461545
C119	C	1.514822	0.094910	-0.128212
C120	C	1.848156	0.428243	0.205122
C121	C	1.181541	-0.155880	-0.461561
C122	C	1.514874	0.177453	-0.128228
C123	C	1.848207	0.510786	0.205105
C124	C	1.205696	-0.411522	-0.983812
C125	C	1.539029	-0.078188	-0.650478
C126	C	1.872362	0.255145	-0.317145
C127	C	1.157208	-0.452502	-0.940051
C128	C	1.490541	-0.119169	-0.606718
C129	C	1.823874	0.214164	-0.273385
C130	C	1.161964	-0.448510	-0.845888
C131	C	1.495297	-0.115177	-0.512555
C132	C	1.828631	0.218157	-0.179222
C133	C	1.200940	-0.415513	-1.077983
C134	C	1.534274	-0.082180	-0.744650
C135	C	1.867607	0.251153	-0.411317
C136	C	1.192321	-0.422845	-0.245457
C137	C	1.525654	-0.089512	0.087876
C138	C	1.858987	0.243821	0.421210
C139	C	1.197147	-0.418697	-0.153038
C140	C	1.530481	-0.085364	0.180296
C141	C	1.863814	0.247969	0.513629
H142	H	0.693190	-0.497079	-0.530706
H143	H	1.026523	-0.163746	-0.197373
H144	H	1.359857	0.169588	0.135960
H145	H	1.043335	-0.970032	-0.416839
H146	H	1.376669	-0.636699	-0.083505
H147	H	1.710002	-0.303365	0.249828
H148	H	1.112119	-0.490581	-0.973306
H149	H	1.445452	-0.157248	-0.639972
H150	H	1.778785	0.176086	-0.306639
H151	H	1.250777	-0.373442	-0.950559
H152	H	1.584110	-0.040109	-0.617226
H153	H	1.917443	0.293224	-0.283893
C154	C	0.978006	-0.897597	-0.548715
C155	C	1.311339	-0.564264	-0.215382
C156	C	1.644673	-0.230930	0.117952
C157	C	1.056281	-0.877279	-0.574284
C158	C	1.389615	-0.543946	-0.240951
C159	C	1.722948	-0.210612	0.092382
H160	H	0.936814	-0.879353	-0.585790
H161	H	1.270147	-0.546020	-0.252457
H162	H	1.603480	-0.212686	0.080877
H163	H	0.977247	-0.950181	-0.548771
H164	H	1.310580	-0.616848	-0.215437
H165	H	1.643913	-0.283514	0.117896
H166	H	0.966868	-0.877024	-0.494246
H167	H	1.300202	-0.543691	-0.160913
H168	H	1.633535	-0.210357	0.172421
H169	H	1.067422	-0.897856	-0.628751
H170	H	1.400755	-0.564523	-0.295418
H171	H	1.734089	-0.231190	0.037915
H172	H	1.057043	-0.824685	-0.574237
H173	H	1.390376	-0.491351	-0.240904
H174	H	1.723709	-0.158018	0.092429
H175	H	1.150952	-0.877744	-0.319518
H176	H	1.484285	-0.544411	0.013815
H177	H	1.817618	-0.211077	0.347148
H178	H	0.670390	-0.367223	-0.392369
H179	H	1.003723	-0.033890	-0.059035
H180	H	1.337057	0.299443	0.274298
C181	C	1.289107	-0.956559	-0.268133
C182	C	1.622440	-0.623226	0.065200
C183	C	1.955773	-0.289892	0.398534
C184	C	1.306509	-0.986000	-0.348587
C185	C	1.639842	-0.652667	-0.015254
C186	C	1.973176	-0.319334	0.318079
H187	H	1.330272	-0.974684	-0.230959
H188	H	1.663605	-0.641350	0.102375
H189	H	1.996939	-0.308017	0.435708
H190	H	1.289137	-0.903914	-0.267470
H191	H	1.622470	-0.570581	0.065863
H192	H	1.955804	-0.237247	0.399197
H193	H	1.236112	-0.971124	-0.251403
H194	H	1.569446	-0.637791	0.081930
H195	H	1.902779	-0.304457	0.415264
H196	H	1.359501	-0.971431	-0.365320
H197	H	1.692834	-0.638097	-0.031987
H198	H	2.026168	-0.304764	0.301347
H199	H	1.306487	-1.038657	-0.349253
H200	H	1.639821	-0.705323	-0.015920
H201	H	1.973154	-0.371990	0.317414
C202	C	1.358646	-0.916412	-0.594044
C203	C	1.691980	-0.583079	-0.260711
C204	C	2.025313	-0.249745	0.072623
C205	C	1.341571	-0.887161	-0.513449
C206	C	1.674904	-0.553827	-0.180116
C207	C	2.008238	-0.220494	0.153218
H208	H	1.411340	-0.901408	-0.611146
H209	H	1.744673	-0.568075	-0.277813
H210	H	2.078007	-0.234741	0.055521
H211	H	1.359148	-0.969080	-0.594743
H212	H	1.692482	-0.635747	-0.261410
H213	H	2.025815	-0.302413	0.071924
H214	H	1.317035	-0.898574	-0.630904
H215	H	1.650369	-0.565241	-0.297571
H216	H	1.983702	-0.231907	0.035762
H217	H	1.383179	-0.905003	-0.476588
H218	H	1.716512	-0.571669	-0.143254
H219	H	2.049845	-0.238336	0.190079
H220	H	1.341076	-0.834481	-0.512744
H221	H	1.674409	-0.501148	-0.179411
H222	H	2.007742	-0.167815	0.153923
H223	H	1.211739	-0.985837	-0.603482
H224	H	1.545072	-0.652504	-0.270149
H225	H	1.878405	-0.319170	0.063185
