data_functionalizedCrystal
_audit_creation_method	'MofGen! by Chris Wilmer'
_symmetry_space_group_name_H-M	'P1'
_symmetry_Int_Tables_number	1
_symmetry_cell_setting	triclinic
loop_
_symmetry_equiv_pos_as_xyz
  x,y,z
_cell_length_a	13.032721
_cell_length_b	13.033286
_cell_length_c	18.215399
_cell_angle_alpha	97.174609
_cell_angle_beta	97.154261
_cell_angle_gamma	89.137287
loop_
_atom_site_label
_atom_site_type_symbol
_atom_site_fract_x
_atom_site_fract_y
_atom_site_fract_z
Zn1	Zn	-0.608907	1.520140	-0.334295
Zn2	Zn	-0.108907	2.020140	0.165705
Zn3	Zn	-0.780886	1.498183	-0.228576
Zn4	Zn	-0.280886	1.998183	0.271424
Zn5	Zn	-0.587123	1.348169	-0.224711
Zn6	Zn	-0.087123	1.848169	0.275289
Zn7	Zn	-0.759018	1.326302	-0.365054
Zn8	Zn	-0.259018	1.826302	0.134946
O9	O	-0.683984	1.423198	-0.288159
O10	O	-0.183984	1.923198	0.211841
O11	O	-0.649988	1.661131	-0.309016
O12	O	-0.149988	2.161131	0.190984
O13	O	-0.755218	1.478246	-0.125086
O14	O	-0.255218	1.978246	0.374914
O15	O	-0.446101	1.389322	-0.224757
O16	O	0.053899	1.889322	0.275243
O17	O	-0.776340	1.644999	-0.231345
O18	O	-0.276340	2.144999	0.268655
O19	O	-0.462105	1.515668	-0.305268
O20	O	0.037895	2.015668	0.194732
O21	O	-0.612861	1.368032	-0.122246
O22	O	-0.112861	1.868032	0.377754
O23	O	-0.591658	1.201365	-0.254582
O24	O	-0.091658	1.701365	0.245418
O25	O	-0.739071	1.352052	-0.463952
O26	O	-0.239071	1.852052	0.036048
O27	O	-0.717948	1.185299	-0.357692
O28	O	-0.217948	1.685299	0.142308
O29	O	-0.628785	1.494464	-0.441353
O30	O	-0.128785	1.994464	0.058647
O31	O	-0.921897	1.457042	-0.261171
O32	O	-0.421897	1.957042	0.238829
O33	O	-0.905832	1.330761	-0.361440
O34	O	-0.405832	1.830761	0.138560
C35	C	-0.650067	1.156020	-0.309056
C36	C	-0.150067	1.656020	0.190944
C37	C	-0.635582	1.041716	-0.318016
C38	C	-0.135582	1.541716	0.181984
C39	C	-0.951183	1.389174	-0.315077
C40	C	-0.451183	1.889174	0.184923
C41	C	-1.065504	1.374712	-0.326609
C42	C	-0.565504	1.874712	0.173391
C43	C	-0.691544	0.982787	-0.283501
C44	C	-0.191544	1.482787	0.216499
C45	C	-0.676574	0.864648	-0.292761
C46	C	-0.176574	1.364648	0.207239
C47	C	-1.124393	1.430801	-0.282169
C48	C	-0.624393	1.930801	0.217831
C49	C	-1.242550	1.415855	-0.294087
C50	C	-0.742550	1.915855	0.205913
C51	C	-0.415745	1.457384	-0.261150
C52	C	0.084255	1.957384	0.238850
C53	C	-0.301437	1.471952	-0.249641
C54	C	0.198563	1.971952	0.250359
C55	C	-0.683918	1.423268	-0.480100
C56	C	-0.183918	1.923268	0.019900
C57	C	-0.683891	1.423298	-0.561894
C58	C	-0.183891	1.923298	-0.061894
C59	C	-0.718034	1.691420	-0.267181
C60	C	-0.218034	2.191420	0.232819
C61	C	-0.732544	1.805721	-0.258241
C62	C	-0.232544	2.305721	0.241759
C63	C	-0.626381	1.497501	-0.815174
C64	C	-0.126381	1.997501	-0.315174
C65	C	-0.626407	1.497485	-0.738319
C66	C	-0.126407	1.997485	-0.238319
C67	C	-0.741262	1.349197	-0.761841
C68	C	-0.241262	1.849197	-0.261841
C69	C	-0.741241	1.349218	-0.838694
C70	C	-0.241241	1.849218	-0.338694
C71	C	-0.683794	1.423369	-0.865358
C72	C	-0.183794	1.923369	-0.365358
C73	C	-0.683842	1.423332	-0.711650
C74	C	-0.183842	1.923332	-0.211650
C75	C	-0.683871	1.423315	-0.628320
C76	C	-0.183871	1.923315	-0.128320
C77	C	-0.683767	1.423388	-0.948693
C78	C	-0.183767	1.923388	-0.448693
C79	C	-0.683982	1.423198	-0.096953
C80	C	-0.183982	1.923198	0.403047
C81	C	-0.683745	1.423404	-0.015115
C82	C	-0.183745	1.923404	0.484885
H83	H	-0.750540	1.019797	-0.247100
H84	H	-0.250540	1.519797	0.252900
O85	O	-0.570458	1.569400	-0.841109
O86	O	-0.070458	2.069400	-0.341109
C87	C	-0.496607	1.519328	-0.883470
C88	C	0.003393	2.019328	-0.383470
H89	H	-0.479984	1.439138	-0.866003
H90	H	0.020016	1.939138	-0.366003
H91	H	-0.422183	1.566605	-0.873467
H92	H	0.077817	2.066605	-0.373467
H93	H	-0.527937	1.511753	-0.945194
H94	H	-0.027937	2.011753	-0.445194
H95	H	-0.787999	1.288849	-0.879558
H96	H	-0.287999	1.788849	-0.379558
H97	H	-0.791549	0.842724	-0.221841
H98	H	-0.291549	1.342724	0.278159
H99	H	-0.617580	0.827642	-0.329170
H100	H	-0.117580	1.327642	0.170830
H101	H	-0.788031	1.288824	-0.740121
H102	H	-0.288031	1.788824	-0.240121
H103	H	-1.279603	1.356771	-0.340964
H104	H	-0.779603	1.856771	0.159036
O105	O	-0.570784	1.569574	-0.689538
O106	O	-0.070784	2.069574	-0.189538
C107	C	-0.637758	1.628514	-0.645764
C108	C	-0.137758	2.128514	-0.145764
H109	H	-0.719556	1.624578	-0.676579
H110	H	-0.219556	2.124578	-0.176579
H111	H	-0.610585	1.712385	-0.634954
H112	H	-0.110585	2.212385	-0.134954
H113	H	-0.637290	1.596242	-0.590365
H114	H	-0.137290	2.096242	-0.090365
H115	H	-0.576592	1.004706	-0.354423
H116	H	-0.076592	1.504706	0.145577
O117	O	-1.109834	1.304352	-0.382565
O118	O	-0.609834	1.804352	0.117435
C119	C	-1.179289	1.355073	-0.431780
C120	C	-0.679289	1.855073	0.068220
H121	H	-1.205124	1.431025	-0.401369
H122	H	-0.705124	1.931025	0.098631
H123	H	-1.249595	1.303684	-0.452469
H124	H	-0.749595	1.803684	0.047531
H125	H	-1.139313	1.371525	-0.481297
H126	H	-0.639313	1.871525	0.018703
O127	O	-1.080127	1.501148	-0.226179
O128	O	-0.580127	2.001148	0.273821
C129	C	-1.010629	1.450433	-0.176987
C130	C	-0.510629	1.950433	0.323013
H131	H	-1.032871	1.365361	-0.181985
H132	H	-0.532871	1.865361	0.318015
H133	H	-1.014044	1.487836	-0.117329
H134	H	-0.514044	1.987836	0.382671
H135	H	-0.928776	1.457093	-0.191869
H136	H	-0.428776	1.957093	0.308131
H137	H	-1.264386	1.531044	-0.202769
H138	H	-0.764386	2.031044	0.297231
