data_functionalizedCrystal
_audit_creation_method	'MofGen! by Chris Wilmer'
_symmetry_space_group_name_H-M	'P1'
_symmetry_Int_Tables_number	1
_symmetry_cell_setting	triclinic
loop_
_symmetry_equiv_pos_as_xyz
  x,y,z
_cell_length_a	21.395364
_cell_length_b	13.897447
_cell_length_c	13.897441
_cell_angle_alpha	90.029327
_cell_angle_beta	90.021861
_cell_angle_gamma	90.015295
loop_
_atom_site_label
_atom_site_type_symbol
_atom_site_fract_x
_atom_site_fract_y
_atom_site_fract_z
Zn1	Zn	0.957891	-0.384093	0.545419
Zn2	Zn	1.457891	0.115907	1.045419
Zn3	Zn	0.957819	-0.545415	0.384124
Zn4	Zn	1.457819	-0.045415	0.884124
Zn5	Zn	0.853111	-0.384124	0.384134
Zn6	Zn	1.353111	0.115876	0.884134
Zn7	Zn	0.853096	-0.545336	0.545373
Zn8	Zn	1.353096	-0.045336	1.045373
O9	O	0.905479	-0.464742	0.464762
O10	O	1.405479	0.035258	0.964762
O11	O	1.045560	-0.405513	0.524037
O12	O	1.545560	0.094487	1.024037
O13	O	0.943906	-0.524065	0.249143
O14	O	1.443906	-0.024065	0.749143
O15	O	0.867047	-0.249138	0.405552
O16	O	1.367047	0.250862	0.905552
O17	O	1.045507	-0.524035	0.405535
O18	O	1.545507	-0.024035	0.905535
O19	O	0.944029	-0.249116	0.524047
O20	O	1.444029	0.250884	1.024047
O21	O	0.866977	-0.405565	0.249151
O22	O	1.366977	0.094435	0.749151
O23	O	0.765431	-0.405488	0.405508
O24	O	1.265431	0.094512	0.905508
O25	O	0.867021	-0.523901	0.680361
O26	O	1.367021	-0.023901	1.180361
O27	O	0.765420	-0.523930	0.523970
O28	O	1.265420	-0.023930	1.023970
O29	O	0.944014	-0.405437	0.680394
O30	O	1.444014	0.094563	1.180394
O31	O	0.943891	-0.680386	0.405490
O32	O	1.443891	-0.180386	0.905490
O33	O	0.866951	-0.680328	0.523960
O34	O	1.366951	-0.180328	1.023960
C35	C	0.742692	-0.464705	0.464735
C36	C	1.242692	0.035295	0.964735
C37	C	0.673051	-0.464712	0.464747
C38	C	1.173051	0.035288	0.964747
C39	C	0.171281	-0.403173	0.526581
C40	C	0.671281	0.096827	1.026581
C41	C	0.236717	-0.403166	0.526581
C42	C	0.736717	0.096834	1.026581
C43	C	0.269412	-0.464771	0.464784
C44	C	0.769412	0.035229	0.964784
C45	C	0.236667	-0.526406	0.403000
C46	C	0.736667	-0.026406	0.903000
C47	C	0.171233	-0.526419	0.403009
C48	C	0.671233	-0.026419	0.903009
C49	C	0.373052	-0.472263	0.377852
C50	C	0.873052	0.027737	0.877852
C51	C	0.438485	-0.472244	0.377842
C52	C	0.938485	0.027756	0.877842
C53	C	0.471233	-0.464739	0.464757
C54	C	0.971233	0.035261	0.964757
C55	C	0.438540	-0.457233	0.551686
C56	C	0.938540	0.042767	1.051686
C57	C	0.373106	-0.457245	0.551695
C58	C	0.873106	0.042755	1.051695
C59	C	0.340365	-0.464765	0.464768
C60	C	0.840365	0.035235	0.964768
C61	C	0.574923	-0.403105	0.526542
C62	C	1.074923	0.096895	1.026542
C63	C	0.640360	-0.403105	0.526543
C64	C	1.140360	0.096895	1.026543
C65	C	0.640308	-0.526340	0.402954
C66	C	1.140308	-0.026340	0.902954
C67	C	0.574873	-0.526346	0.402961
C68	C	1.074873	-0.026346	0.902961
C69	C	0.542184	-0.464723	0.464754
C70	C	1.042184	0.035277	0.964754
C71	C	0.905428	-0.715356	0.464740
C72	C	1.405428	-0.215356	0.964740
C73	C	0.905464	-0.822570	0.464763
C74	C	1.405464	-0.322570	0.964763
C75	C	0.905494	-0.909640	0.464785
C76	C	1.405494	-0.409640	0.964785
C77	C	0.905538	-1.018872	0.464809
C78	C	1.405538	-0.518872	0.964809
C79	C	1.068903	-0.464780	0.464790
C80	C	1.568903	0.035220	0.964790
C81	C	1.138544	-0.464796	0.464802
C82	C	1.638544	0.035204	0.964802
C83	C	0.905524	-0.464657	0.716355
C84	C	1.405524	0.035343	1.216355
C85	C	0.905543	-0.464620	0.823569
C86	C	1.405543	0.035380	1.323569
C87	C	0.905548	-0.213149	0.464806
C88	C	1.405548	0.286851	0.964806
C89	C	0.905577	-0.105935	0.464824
C90	C	1.405577	0.394065	0.964824
C91	C	0.905471	-0.464757	0.214148
C92	C	1.405471	0.035243	0.714148
C93	C	0.905574	-0.464522	0.106935
C94	C	1.405574	0.035478	0.606935
C95	C	0.905560	-0.464555	1.019865
C96	C	1.405560	0.035445	1.519865
C97	C	0.905548	-0.464594	0.910632
C98	C	1.405548	0.035406	1.410632
H99	H	0.465201	-0.451116	0.622461
H100	H	0.965201	0.048884	1.122461
O101	O	0.337729	-0.480324	0.284103
O102	O	0.837729	0.019676	0.784103
H103	H	0.307906	-0.545671	0.285504
H104	H	0.807906	-0.045671	0.785504
O105	O	0.539656	-0.336653	0.593189
O106	O	1.039656	0.163347	1.093189
H107	H	0.552227	-0.353290	0.668866
H108	H	1.052227	0.146710	1.168866
H109	H	0.144670	-0.352999	0.576901
H110	H	0.644670	0.147001	1.076901
H111	H	0.263292	-0.576569	0.352688
H112	H	0.763292	-0.076569	0.852688
H113	H	0.667013	-0.352927	0.576858
H114	H	1.167013	0.147073	1.076858
O115	O	0.135916	-0.592874	0.336363
O116	O	0.635916	-0.092874	0.836363
H117	H	0.169642	-0.635709	0.293384
H118	H	0.669642	-0.135709	0.793384
H119	H	0.666928	-0.576509	0.352646
H120	H	1.166928	-0.076509	0.852646
O121	O	0.539556	-0.592795	0.336312
O122	O	1.039556	-0.092795	0.836312
H123	H	0.573283	-0.635625	0.293331
H124	H	1.073283	-0.135625	0.793331
H125	H	0.263377	-0.352981	0.576888
H126	H	0.763377	0.147019	1.076888
H127	H	0.346489	-0.451135	0.622475
H128	H	0.846489	0.048865	1.122475
O129	O	0.473749	-0.480341	0.284092
O130	O	0.973749	0.019659	0.784092
H131	H	0.461179	-0.548940	0.248005
H132	H	0.961179	-0.048940	0.748005
