data_functionalizedCrystal
_audit_creation_method	'MofGen! by Chris Wilmer'
_symmetry_space_group_name_H-M	'P1'
_symmetry_Int_Tables_number	1
_symmetry_cell_setting	triclinic
loop_
_symmetry_equiv_pos_as_xyz
  x,y,z
_cell_length_a	10.268362
_cell_length_b	10.654550
_cell_length_c	10.654550
_cell_angle_alpha	84.484931
_cell_angle_beta	89.994874
_cell_angle_gamma	89.998669
loop_
_atom_site_label
_atom_site_type_symbol
_atom_site_fract_x
_atom_site_fract_y
_atom_site_fract_z
O1	O	0.108203	-1.667841	-0.176400
O2	O	0.608203	-1.167841	0.323600
O3	O	0.108227	-1.302363	-0.193206
O4	O	0.608227	-0.802363	0.306794
O5	O	0.108206	-1.493505	-0.002064
O6	O	0.608206	-0.993505	0.497936
O7	O	0.108223	-1.476699	-0.367542
O8	O	0.608223	-0.976699	0.132458
O9	O	-0.108395	-1.493488	-0.002056
O10	O	0.391605	-0.993488	0.497944
O11	O	-0.108374	-1.302346	-0.193198
O12	O	0.391626	-0.802346	0.306802
O13	O	-0.108398	-1.667824	-0.176392
O14	O	0.391602	-1.167824	0.323608
Cu15	Cu	-0.128163	-1.485084	-0.184794
Cu16	Cu	0.371837	-0.985084	0.315206
Cu17	Cu	0.127992	-1.485104	-0.184804
Cu18	Cu	0.627992	-0.985104	0.315196
O19	O	-0.108377	-1.476682	-0.367534
O20	O	0.391623	-0.976682	0.132466
C21	C	-0.000071	-1.255556	-0.191968
C22	C	0.499929	-0.755556	0.308032
C23	C	-0.000062	-1.116113	-0.188276
C24	C	0.499938	-0.616113	0.311724
N25	N	-0.308329	-1.485079	-0.184787
N26	N	0.191671	-0.985079	0.315213
C27	C	-0.000094	-1.492263	0.044738
C28	C	0.499906	-0.992263	0.544738
C29	C	-0.000091	-1.488571	0.184181
C30	C	0.499909	-0.988571	0.684181
C31	C	-0.574000	-1.485097	-0.184801
C32	C	-0.074000	-0.985097	0.315199
C33	C	-0.426162	-1.485083	-0.184797
C34	C	0.073838	-0.985083	0.315203
N35	N	0.308158	-1.485118	-0.184801
N36	N	0.808158	-0.985118	0.315199
C37	C	-0.000098	-1.714631	-0.177630
C38	C	0.499902	-1.214631	0.322370
C39	C	-0.000098	-1.854074	-0.181322
C40	C	0.499902	-1.354074	0.318678
C41	C	-0.000060	-1.036628	-0.300818
C42	C	0.499940	-0.536628	0.199182
C43	C	-0.000083	-0.905607	-0.297341
C44	C	0.499917	-0.405607	0.202659
C45	C	-0.000104	-0.933570	-0.068772
C46	C	0.499896	-0.433570	0.431228
C47	C	-0.000090	-1.064588	-0.072250
C48	C	0.499910	-0.564588	0.427750
C49	C	-0.000075	-1.477925	-0.414336
C50	C	0.499925	-0.977925	0.085664
C51	C	-0.000069	-1.481616	-0.553779
C52	C	0.499931	-0.981616	-0.053779
C53	C	-0.000098	-1.601112	0.263667
C54	C	0.499902	-1.101112	0.763667
C55	C	-0.000082	-1.597636	0.394688
C56	C	0.499918	-1.097636	0.894688
C57	C	-0.000058	-1.369066	0.366725
C58	C	0.499942	-0.869066	0.866725
C59	C	-0.000065	-1.372544	0.235706
C60	C	0.499935	-0.872544	0.735706
H61	H	-0.000047	-1.078574	-0.395294
H62	H	0.499953	-0.578574	0.104706
H63	H	-0.000085	-1.689279	0.459401
H64	H	0.499915	-1.189279	0.959401
H65	H	-0.000084	-0.840894	-0.388984
H66	H	0.499916	-0.340894	0.111016
Br67	Br	-0.000137	-0.863635	0.088685
Br68	Br	0.499863	-0.363635	0.588685
H69	H	-0.000117	-1.695588	0.221720
H70	H	0.499883	-1.195588	0.721720
H71	H	-0.000038	-1.274601	0.408693
H72	H	0.499962	-0.774601	0.908693
Br73	Br	-0.000038	-1.219798	0.127823
Br74	Br	0.499962	-0.719798	0.627823
H75	H	-0.000095	-1.129309	0.019401
H76	H	0.499905	-0.629309	0.519401
