data_functionalizedCrystal
_audit_creation_method	'MofGen! by Chris Wilmer'
_symmetry_space_group_name_H-M	'P1'
_symmetry_Int_Tables_number	1
_symmetry_cell_setting	triclinic
loop_
_symmetry_equiv_pos_as_xyz
  x,y,z
_cell_length_a	12.759399
_cell_length_b	12.759401
_cell_length_c	19.076919
_cell_angle_alpha	92.281660
_cell_angle_beta	92.274423
_cell_angle_gamma	90.015378
loop_
_atom_site_label
_atom_site_type_symbol
_atom_site_fract_x
_atom_site_fract_y
_atom_site_fract_z
Zn1	Zn	-0.442148	1.582341	-0.397952
Zn2	Zn	-0.610783	1.589305	-0.280263
Zn3	Zn	-0.435120	1.413714	-0.280272
Zn4	Zn	-0.617784	1.406632	-0.397920
O5	O	-0.526459	1.497998	-0.339102
O6	O	-0.464529	1.730285	-0.382350
O7	O	-0.581611	1.571891	-0.181775
O8	O	-0.289032	1.436131	-0.295899
O9	O	-0.588425	1.735402	-0.295885
O10	O	-0.294195	1.560021	-0.382358
O11	O	-0.452552	1.442885	-0.181782
O12	O	-0.459340	1.265754	-0.295869
O13	O	-0.600356	1.424062	-0.496414
O14	O	-0.593542	1.260551	-0.382304
O15	O	-0.471317	1.553154	-0.496437
O16	O	-0.758732	1.565024	-0.295854
O17	O	-0.763875	1.430815	-0.382296
C18	C	-0.526439	1.225032	-0.339084
C19	C	-0.526457	1.108254	-0.339094
C20	C	-0.590859	1.056056	-0.294013
C21	C	-0.590878	0.946331	-0.294032
C22	C	-0.462084	0.941012	-0.384213
C23	C	-0.462071	1.050735	-0.384197
C24	C	-0.713234	0.797858	-0.268762
C25	C	-0.777626	0.745657	-0.223670
C26	C	-0.789497	0.785334	-0.154972
C27	C	-0.736959	0.877211	-0.131352
C28	C	-0.672559	0.929407	-0.176439
C29	C	-0.660709	0.889731	-0.245147
C30	C	-0.339713	1.199211	-0.409460
C31	C	-0.275306	1.251408	-0.454545
C32	C	-0.263425	1.211734	-0.523244
C33	C	-0.315944	1.119853	-0.546862
C34	C	-0.380350	1.067655	-0.501777
C35	C	-0.392233	1.107338	-0.433079
C36	C	-0.799425	1.497935	-0.339086
C37	C	-0.916203	1.498002	-0.339103
C38	C	-0.968355	1.567958	-0.294143
C39	C	-1.078080	1.568025	-0.294167
C40	C	-1.083492	1.428169	-0.384111
C41	C	-0.973769	1.428109	-0.384090
C42	C	-1.226452	1.693539	-0.269123
C43	C	-1.278607	1.763486	-0.224153
C44	C	-1.238936	1.783777	-0.155481
C45	C	-1.147110	1.734106	-0.131766
C46	C	-1.094961	1.664150	-0.176733
C47	C	-1.134631	1.643879	-0.245414
C48	C	-0.825395	1.302593	-0.409127
C49	C	-0.773243	1.232632	-0.454091
C50	C	-0.812912	1.212331	-0.522763
C51	C	-0.904741	1.261984	-0.546476
C52	C	-0.956893	1.331945	-0.501512
C53	C	-0.917216	1.352248	-0.432841
C54	C	-0.252427	1.498089	-0.339133
C55	C	-0.135652	1.498128	-0.339147
C56	C	-0.537401	1.487041	-0.522677
C57	C	-0.542064	1.482372	-0.600905
C58	C	-0.526480	1.772030	-0.339120
C59	C	-0.526488	1.888806	-0.339128
C60	C	-0.477074	1.547387	-0.637670
C61	C	-0.481451	1.542987	-0.711174
C62	C	-0.550825	1.473577	-0.747912
C63	C	-0.615818	1.408555	-0.711142
C64	C	-0.611434	1.412950	-0.637639
C65	C	-0.571134	1.453219	-0.967740
C66	C	-0.575514	1.448831	-1.041248
C67	C	-0.441146	1.583261	-1.041276
C68	C	-0.436773	1.587655	-0.967772
C69	C	-0.501762	1.522630	-0.931008
N70	N	-0.555303	1.469080	-0.823045
N71	N	-0.497278	1.527122	-0.855876
C72	C	-0.515483	1.508973	-0.156241
C73	C	-0.510524	1.513845	-0.078013
H74	H	-0.820401	0.670849	-0.242908
H75	H	-0.306262	1.087542	-0.602801
H76	H	-1.130376	1.371262	-0.420737
H77	H	-0.428532	1.595931	-0.741105
H78	H	-0.632009	1.392306	-1.071158
F79	F	-0.371983	1.652459	-1.080408
F80	F	-0.403242	1.621268	-0.598578
H81	H	-1.114823	1.750624	-0.075844
F82	F	-0.362937	1.661531	-0.928678
H83	H	-0.793081	1.319127	-0.353210
H84	H	-0.624068	1.400286	-0.937816
F85	F	-0.689646	1.334679	-0.750242
H86	H	-0.232536	1.326218	-0.435307
F87	F	-0.749581	0.919421	-0.058228
F88	F	-1.268672	1.671962	-0.342215
H89	H	-0.664346	1.359998	-0.607706
H90	H	-0.629781	1.004209	-0.157207
F91	F	-0.659389	1.117269	-0.246013
F92	F	-1.376331	1.816348	-0.249394
F93	F	-0.194860	1.267282	-0.571222
H94	H	-1.031662	1.372379	-0.520826
F95	F	-0.907092	1.642347	-0.246265
F96	F	-0.700621	0.755633	-0.341883
F97	F	-0.393563	0.879786	-0.432212
F98	F	-0.858026	0.729772	-0.106984
F99	F	-0.352362	1.241449	-0.336343
F100	F	-0.997243	1.611283	-0.151496
F101	F	-0.436245	0.969865	-0.526916
H102	H	-1.281408	1.840732	-0.118867
F103	F	-0.946964	1.240378	-0.619565
F104	F	-0.757438	1.137820	-0.570602
H105	H	-0.698466	1.192208	-0.434780
