data_functionalizedCrystal
_audit_creation_method	'MofGen! by Chris Wilmer'
_symmetry_space_group_name_H-M	'P1'
_symmetry_Int_Tables_number	1
_symmetry_cell_setting	triclinic
loop_
_symmetry_equiv_pos_as_xyz
  x,y,z
_cell_length_a	15.297475
_cell_length_b	16.120484
_cell_length_c	15.296720
_cell_angle_alpha	78.013482
_cell_angle_beta	88.382886
_cell_angle_gamma	83.687474
loop_
_atom_site_label
_atom_site_type_symbol
_atom_site_fract_x
_atom_site_fract_y
_atom_site_fract_z
Zn1	Zn	1.212936	-0.646916	0.755054
Zn2	Zn	1.230712	-0.766607	0.613834
Zn3	Zn	1.094735	-0.600220	0.581241
Zn4	Zn	1.059450	-0.758436	0.734603
O5	O	1.149458	-0.693045	0.671183
O6	O	1.336436	-0.685755	0.758520
O7	O	1.234881	-0.728412	0.486227
O8	O	1.117742	-0.490110	0.599215
O9	O	1.349496	-0.773691	0.654766
O10	O	1.204584	-0.524417	0.726915
O11	O	1.134979	-0.606169	0.462280
O12	O	0.968913	-0.598246	0.579385
O13	O	1.057604	-0.759766	0.860600
O14	O	0.942989	-0.714486	0.692060
O15	O	1.170370	-0.677833	0.875625
O16	O	1.200666	-0.881827	0.634936
O17	O	1.074840	-0.875825	0.723665
C18	C	0.924540	-0.650413	0.629967
C19	C	0.828314	-0.632198	0.612357
C20	C	0.503218	-0.823238	0.797050
C21	C	0.593627	-0.840358	0.813594
C22	C	0.652303	-0.788320	0.763286
C23	C	0.620561	-0.719158	0.696432
C24	C	0.530143	-0.702040	0.679882
C25	C	0.679229	-0.667122	0.646118
C26	C	0.647487	-0.597960	0.579263
C27	C	0.557078	-0.580845	0.562717
C28	C	0.498402	-0.632884	0.613024
C29	C	0.769646	-0.684239	0.662668
C30	C	0.796572	-0.563041	0.545499
C31	C	0.706162	-0.545921	0.528956
C32	C	1.135873	-0.908989	0.680642
C33	C	1.130135	-1.001390	0.684732
C34	C	1.119661	-1.170572	0.692219
C35	C	1.179408	-1.214709	0.650189
C36	C	1.173580	-1.308847	0.654355
C37	C	1.125488	-1.076425	0.688054
C38	C	1.375255	-0.735844	0.712560
C39	C	1.471476	-0.754082	0.730193
C40	C	1.108068	-0.723097	0.900972
C41	C	1.090430	-0.735903	0.998895
C42	C	1.163116	-0.476264	0.661711
C43	C	1.168937	-0.383885	0.657674
C44	C	1.190741	-0.663059	0.442294
C45	C	1.208562	-0.650051	0.344393
C46	C	1.275562	-0.601377	1.306214
C47	C	1.292140	-0.589347	1.214212
C48	C	1.241714	-0.625985	1.160378
C49	C	1.174707	-0.674655	1.198556
C50	C	1.158133	-0.686691	1.290568
C51	C	1.124284	-0.711299	1.144732
C52	C	1.057278	-0.759969	1.182909
C53	C	1.040706	-0.772003	1.274912
C54	C	1.091132	-0.735365	1.328746
C55	C	1.140858	-0.699263	1.052720
C56	C	1.023429	-0.784577	1.037073
C57	C	1.006852	-0.796607	1.129075
H58	H	0.619465	-0.896671	0.868025
H59	H	1.077639	-0.745157	1.403662
H60	H	1.346698	-0.549722	1.183136
H61	H	1.064138	-1.203483	0.731327
N62	N	1.252957	-1.171116	0.598375
H63	H	1.292019	-1.213690	0.570904
H64	H	1.288715	-1.147316	0.640040
N65	N	0.934590	-0.849101	1.170271
H66	H	0.947169	-0.908941	1.159324
H67	H	0.876464	-0.822304	1.142349
H68	H	0.725918	-0.802263	0.776760
N69	N	0.968441	-0.824503	1.316086
H70	H	0.923577	-0.788117	1.345436
H71	H	0.994391	-0.874675	1.362347
H72	H	1.195415	-0.659634	1.021645
N73	N	1.259589	-0.613012	1.061148
H74	H	1.309687	-0.576620	1.045131
H75	H	1.205116	-0.583603	1.027503
H76	H	0.982369	-0.814412	0.993241
N77	N	0.803872	-0.758831	0.734770
H78	H	0.777611	-0.751275	0.794300
H79	H	0.870050	-0.761745	0.737545
N80	N	0.439937	-0.879367	0.851296
H81	H	0.377846	-0.858029	0.830663
H82	H	0.445214	-0.877755	0.916572
H83	H	0.531238	-0.524537	0.508270
H84	H	0.424782	-0.618947	0.599559
H85	H	0.680305	-0.489610	0.474522
N86	N	0.859847	-0.506911	0.491229
H87	H	0.921939	-0.528247	0.511859
H88	H	0.845286	-0.446385	0.499551
N89	N	1.329951	-0.561872	1.364276
H90	H	1.309284	-0.576886	1.428354
H91	H	1.323118	-0.497857	1.343139
