data_functionalizedCrystal
_audit_creation_method	'MofGen! by Chris Wilmer'
_symmetry_space_group_name_H-M	'P1'
_symmetry_Int_Tables_number	1
_symmetry_cell_setting	triclinic
loop_
_symmetry_equiv_pos_as_xyz
  x,y,z
_cell_length_a	25.639242
_cell_length_b	25.639240
_cell_length_c	10.686551
_cell_angle_alpha	94.417087
_cell_angle_beta	94.405628
_cell_angle_gamma	90.027658
loop_
_atom_site_label
_atom_site_type_symbol
_atom_site_fract_x
_atom_site_fract_y
_atom_site_fract_z
Zn1	Zn	0.821997	-0.185498	0.713701
Zn2	Zn	0.815202	-0.279655	0.502646
Zn3	Zn	0.727847	-0.192227	0.502674
Zn4	Zn	0.734523	-0.272901	0.713566
O5	O	0.774892	-0.232570	0.608147
O6	O	0.894262	-0.197999	0.685749
O7	O	0.797976	-0.273701	0.326063
O8	O	0.740386	-0.118167	0.530735
O9	O	0.889270	-0.267176	0.530687
O10	O	0.809558	-0.113223	0.685776
O11	O	0.733796	-0.209468	0.326083
O12	O	0.655566	-0.202918	0.530604
O13	O	0.751765	-0.255663	0.890171
O14	O	0.660471	-0.262189	0.685546
O15	O	0.816032	-0.191449	0.890270
O16	O	0.804450	-0.351927	0.530557
O17	O	0.745176	-0.346964	0.685519
C18	C	0.639047	-0.232551	0.608065
C19	C	0.580933	-0.232554	0.608059
C20	C	0.774815	-0.368416	0.608048
C21	C	0.774831	-0.426530	0.608048
C22	C	0.327184	-0.201648	0.527608
C23	C	0.381787	-0.201644	0.527592
O24	O	0.407849	-0.175337	0.459118
N25	N	0.411661	-0.232559	0.608123
C26	C	0.386928	-0.263476	0.688684
O27	O	0.417352	-0.289771	0.757181
C28	C	0.332326	-0.263477	0.688706
C29	C	0.302455	-0.232564	0.608160
C30	C	0.297313	-0.170737	0.447070
C31	C	0.242713	-0.170742	0.447085
C32	C	0.217984	-0.201658	0.527637
C33	C	0.247855	-0.232569	0.608175
C34	C	0.307594	-0.294391	0.769272
C35	C	0.252988	-0.294389	0.769287
C36	C	0.223117	-0.263476	0.688742
C37	C	0.168525	-0.263491	0.688742
N38	N	0.138652	-0.232576	0.608211
C39	C	0.163381	-0.201659	0.527659
C40	C	0.501598	-0.263471	0.688634
C41	C	0.556199	-0.263473	0.688608
C42	C	0.551054	-0.201639	0.527517
C43	C	0.496452	-0.201641	0.527538
C44	C	0.471724	-0.232556	0.608104
C45	C	0.048717	-0.201673	0.527695
C46	C	-0.005888	-0.201683	0.527713
C47	C	-0.000738	-0.263513	0.688808
C48	C	0.053862	-0.263506	0.688786
C49	C	0.078588	-0.232582	0.608225
O50	O	0.142428	-0.289782	0.757184
O51	O	0.132951	-0.175364	0.459185
C52	C	0.810931	-0.784273	0.689022
C53	C	0.810948	-0.838876	0.689048
O54	O	0.841550	-0.864888	0.757794
N55	N	0.774969	-0.868806	0.608269
C56	C	0.738968	-0.844129	0.527468
O57	O	0.708366	-0.874600	0.458762
C58	C	0.738950	-0.789526	0.527449
C59	C	0.774934	-0.759599	0.608225
C60	C	0.846913	-0.754346	0.769792
C61	C	0.846897	-0.699747	0.769764
C62	C	0.810900	-0.675073	0.688967
C63	C	0.774919	-0.705000	0.608197
C64	C	0.702947	-0.764850	0.446656
C65	C	0.702931	-0.710243	0.446645
C66	C	0.738916	-0.680316	0.527420
C67	C	0.738906	-0.625727	0.527372
N68	N	0.774885	-0.595797	0.608151
C69	C	0.810882	-0.620471	0.688949
C70	C	0.739008	-0.958798	0.527514
C71	C	0.739028	-1.013400	0.527525
C72	C	0.811008	-1.008143	0.689107
C73	C	0.810990	-0.953541	0.689089
C74	C	0.774987	-0.928868	0.608293
C75	C	0.810846	-0.505808	0.688884
C76	C	0.810829	-0.451203	0.688845
C77	C	0.738848	-0.456464	0.527268
C78	C	0.738867	-0.511064	0.527302
C79	C	0.774868	-0.535734	0.608120
O80	O	0.708317	-0.599679	0.458665
O81	O	0.841474	-0.589993	0.757654
C82	C	0.911268	-0.232590	0.608230
C83	C	0.969383	-0.232599	0.608266
C84	C	0.785401	-0.222052	0.937288
C85	C	0.789879	-0.217570	1.077548
C86	C	0.774985	-0.096193	0.608274
C87	C	0.775024	-0.038077	0.608328
C88	C	0.764454	-0.243010	0.280286
C89	C	0.760077	-0.247345	0.140027
H90	H	-0.030207	-0.176509	0.462120
C91	C	0.631778	-0.720927	0.286942
C92	C	0.663355	-0.683124	0.357828
H93	H	0.607349	-0.704185	0.232106
H94	H	0.613525	-0.740469	0.341887
H95	H	0.653047	-0.743759	0.238741
H96	H	0.642087	-0.660294	0.406036
H97	H	0.681610	-0.663573	0.302876
C98	C	0.843233	-1.018059	0.902868
C99	C	0.850576	-1.035269	0.777933
H100	H	0.867662	-1.034805	0.957698
H101	H	0.808689	-1.026444	0.921234
H102	H	0.848376	-0.981257	0.914405
H103	H	0.845429	-1.072071	0.766394
H104	H	0.885127	-1.026888	0.759561
C105	C	0.445644	-0.265435	0.858384
C106	C	0.474419	-0.297461	0.777188
H107	H	0.428870	-0.286420	0.913057
H108	H	0.420037	-0.247031	0.810432
H109	H	0.468513	-0.241141	0.906746
H110	H	0.451550	-0.321754	0.728819
H111	H	0.500029	-0.315874	0.825145
H112	H	0.731138	-0.276267	1.086215
H113	H	0.818824	-0.188650	1.131367
C114	C	0.823500	-0.561731	0.858699
C115	C	0.850419	-0.532921	0.777715
H116	H	0.847932	-0.578467	0.913538
H117	H	0.802080	-0.587370	0.810603
H118	H	0.802237	-0.538889	0.906893
H119	H	0.871679	-0.555763	0.729514
H120	H	0.871848	-0.507279	0.825816
C121	C	0.918042	-0.700052	0.929486
C122	C	0.886449	-0.666856	0.858567
H123	H	0.942458	-0.679748	0.984318
H124	H	0.936311	-0.723099	0.874561
H125	H	0.896782	-0.719818	0.977691
H126	H	0.907709	-0.647093	0.810354
H127	H	0.868179	-0.643800	0.913498
H128	H	0.709569	-0.535432	0.461518
H129	H	0.840291	-0.929177	0.754864
H130	H	0.472134	-0.176466	0.461956
H131	H	0.068842	-0.176489	0.462101
H132	H	0.218396	-0.145570	0.381497
C133	C	0.706865	-0.375090	0.455517
C134	C	0.699278	-0.429336	0.438465
H135	H	0.682432	-0.358342	0.400703
H136	H	0.741406	-0.366711	0.437124
H137	H	0.701893	-0.363428	0.540289
H138	H	0.704254	-0.440998	0.353695
H139	H	0.664729	-0.437719	0.456849
C140	C	0.668090	-0.898027	0.509746
C141	C	0.699435	-0.931681	0.438682
H142	H	0.643658	-0.881292	0.454905
H143	H	0.689512	-0.872387	0.557833
H144	H	0.649836	-0.917582	0.564682
H145	H	0.717693	-0.912126	0.383753
H146	H	0.678010	-0.957325	0.390573
H147	H	0.317441	-0.145558	0.381475
H148	H	0.876226	-0.774429	0.835594
H149	H	0.571199	-0.176465	0.461929
C150	C	0.690312	-0.831720	0.276915
C151	C	0.663385	-0.797737	0.357882
H152	H	0.665884	-0.852020	0.222108
H153	H	0.711748	-0.854232	0.325025
H154	H	0.711558	-0.811951	0.228685
H155	H	0.642141	-0.817506	0.406118
H156	H	0.641940	-0.775223	0.309767
C157	C	0.618123	-0.333266	0.705803
C158	C	0.589030	-0.297457	0.777136
H159	H	0.638387	-0.354247	0.760465
H160	H	0.640668	-0.314854	0.657845
H161	H	0.595042	-0.354989	0.650735
H162	H	0.612111	-0.275732	0.832197
H163	H	0.566482	-0.315871	0.825115
C164	C	0.307172	-0.355496	0.928527
C165	C	0.340420	-0.328369	0.857821
H166	H	0.327438	-0.376470	0.983203
H167	H	0.284103	-0.377221	0.873458
H168	H	0.287434	-0.331192	0.976889
H169	H	0.360155	-0.352673	0.809452
H170	H	0.363498	-0.306642	0.912897
H171	H	0.078184	-0.288682	0.754363
C172	C	0.197029	-0.296341	0.939029
C173	C	0.225807	-0.328373	0.857849
H174	H	0.180253	-0.317322	0.993705
H175	H	0.171425	-0.277939	0.891065
H176	H	0.219897	-0.272045	0.987388
H177	H	0.202938	-0.352666	0.809483
H178	H	0.251414	-0.346784	0.905818
H179	H	0.709731	-1.037762	0.461736
H180	H	-0.020883	-0.288687	0.754387
H181	H	0.840134	-0.426839	0.754622
