data_functionalizedCrystal
_audit_creation_method	'MofGen! by Chris Wilmer'
_symmetry_space_group_name_H-M	'P1'
_symmetry_Int_Tables_number	1
_symmetry_cell_setting	triclinic
loop_
_symmetry_equiv_pos_as_xyz
  x,y,z
_cell_length_a	12.827893
_cell_length_b	16.625546
_cell_length_c	12.827885
_cell_angle_alpha	89.964876
_cell_angle_beta	89.980728
_cell_angle_gamma	90.022439
loop_
_atom_site_label
_atom_site_type_symbol
_atom_site_fract_x
_atom_site_fract_y
_atom_site_fract_z
Zn1	Zn	1.597618	-0.320963	-0.590810
Zn2	Zn	1.930952	0.012370	-0.257477
Zn3	Zn	2.264285	0.345703	0.075857
Zn4	Zn	1.597491	-0.455817	-0.416054
Zn5	Zn	1.930824	-0.122484	-0.082721
Zn6	Zn	2.264157	0.210849	0.250613
Zn7	Zn	1.422860	-0.321002	-0.416084
Zn8	Zn	1.756193	0.012331	-0.082750
Zn9	Zn	2.089526	0.345664	0.250583
Zn10	Zn	1.422823	-0.455757	-0.590754
Zn11	Zn	1.756157	-0.122424	-0.257421
Zn12	Zn	2.089490	0.210909	0.075913
O13	O	1.510198	-0.388385	-0.503425
O14	O	1.843531	-0.055052	-0.170092
O15	O	2.176865	0.278282	0.163241
O16	O	1.743837	-0.338861	-0.567639
O17	O	2.077171	-0.005527	-0.234306
O18	O	2.410504	0.327806	0.099027
O19	O	1.574287	-0.437976	-0.269822
O20	O	1.907621	-0.104642	0.063512
O21	O	2.240954	0.228691	0.396845
O22	O	1.446110	-0.208165	-0.439297
O23	O	1.779444	0.125168	-0.105964
O24	O	2.112777	0.458502	0.227369
O25	O	1.743744	-0.437937	-0.439247
O26	O	2.077077	-0.104604	-0.105913
O27	O	2.410410	0.228729	0.227420
O28	O	1.574505	-0.208136	-0.567668
O29	O	1.907838	0.125197	-0.234335
O30	O	2.241171	0.458531	0.098999
O31	O	1.445987	-0.338928	-0.269843
O32	O	1.779320	-0.005594	0.063490
O33	O	2.112653	0.327739	0.396823
O34	O	1.276619	-0.338869	-0.439243
O35	O	1.609952	-0.005536	-0.105910
O36	O	1.943285	0.327797	0.227424
O37	O	1.446048	-0.437835	-0.736997
O38	O	1.779382	-0.104502	-0.403664
O39	O	2.112715	0.228831	-0.070331
O40	O	1.276592	-0.437873	-0.567572
O41	O	1.609925	-0.104540	-0.234239
O42	O	1.943259	0.228793	0.099094
O43	O	1.574469	-0.338802	-0.737039
O44	O	1.907803	-0.005469	-0.403705
O45	O	2.241136	0.327864	-0.070372
O46	O	1.574252	-0.568642	-0.439192
O47	O	1.907586	-0.235309	-0.105859
O48	O	2.240919	0.098025	0.227474
O49	O	1.445925	-0.568598	-0.567544
O50	O	1.779258	-0.235265	-0.234210
O51	O	2.112591	0.098069	0.099123
C52	C	1.238688	-0.388370	-0.503405
C53	C	1.572021	-0.055036	-0.170072
C54	C	1.905355	0.278297	0.163261
C55	C	1.122535	-0.388382	-0.503422
C56	C	1.455868	-0.055049	-0.170088
C57	C	1.789202	0.278284	0.163245
C58	C	1.510099	-0.597876	-0.503382
C59	C	1.843432	-0.264543	-0.170048
C60	C	2.176766	0.068791	0.163285
C61	C	1.510152	-0.687497	-0.503398
C62	C	1.843486	-0.354164	-0.170064
C63	C	2.176819	-0.020830	0.163269
C64	C	1.070765	-0.437449	-0.566825
C65	C	1.404098	-0.104116	-0.233492
C66	C	1.737431	0.229217	0.099841
C67	C	0.950714	-0.437464	-0.566844
C68	C	1.284048	-0.104130	-0.233510
C69	C	1.617381	0.229203	0.099823
C70	C	1.510335	-1.015673	-0.503507
C71	C	1.843668	-0.682339	-0.170173
C72	C	2.177001	-0.349006	0.163160
C73	C	1.510281	-0.924364	-0.503479
C74	C	1.843614	-0.591031	-0.170146
C75	C	2.176947	-0.257698	0.163187
C76	C	1.510243	-0.851588	-0.503452
C77	C	1.843576	-0.518254	-0.170118
C78	C	2.176909	-0.184921	0.163215
C79	C	1.510190	-0.760274	-0.503425
C80	C	1.843524	-0.426940	-0.170092
C81	C	2.176857	-0.093607	0.163241
C82	C	1.782768	-0.388401	-0.503446
C83	C	2.116101	-0.055068	-0.170113
C84	C	2.449435	0.278265	0.163221
C85	C	1.898921	-0.388408	-0.503455
C86	C	2.232255	-0.055075	-0.170121
C87	C	2.565588	0.278258	0.163212
C88	C	1.510269	-0.388308	-0.775996
C89	C	1.843602	-0.054974	-0.442662
C90	C	2.176936	0.278359	-0.109329
C91	C	1.510299	-0.388275	-0.892149
C92	C	1.843633	-0.054941	-0.558816
C93	C	2.176966	0.278392	-0.225482
C94	C	1.510326	-0.178076	-0.503492
C95	C	1.843659	0.155257	-0.170159
C96	C	2.176992	0.488590	0.163175
C97	C	1.510380	-0.088455	-0.503521
C98	C	1.843713	0.244878	-0.170187
C99	C	2.177047	0.578212	0.163146
C100	C	1.573853	-0.339261	-0.943954
C101	C	1.907186	-0.005927	-0.610621
C102	C	2.240520	0.327406	-0.277287
C103	C	1.573886	-0.339225	-1.064004
C104	C	1.907219	-0.005892	-0.730671
C105	C	2.240553	0.327441	-0.397338
C106	C	1.510187	-0.388404	-0.231915
C107	C	1.843521	-0.055071	0.101418
C108	C	2.176854	0.278263	0.434751
C109	C	1.510359	-0.388210	-0.115763
C110	C	1.843693	-0.054877	0.217571
C111	C	2.177026	0.278457	0.550904
H112	H	1.115319	-0.479444	-0.621098
H113	H	1.448652	-0.146110	-0.287764
H114	H	1.781986	0.187223	0.045569
H115	H	1.628236	-0.297321	-0.899429
H116	H	1.961569	0.036012	-0.566096
H117	H	2.294902	0.369346	-0.232763
H118	H	1.628300	-0.297265	-1.108555
H119	H	1.961633	0.036068	-0.775222
H120	H	2.294967	0.369401	-0.441889
H121	H	1.077981	-0.346382	-0.449157
H122	H	1.411314	-0.013049	-0.115824
H123	H	1.744647	0.320285	0.217509
Cl124	Cl	1.426352	-0.453008	-1.046992
Cl125	Cl	1.759685	-0.119674	-0.713659
Cl126	Cl	2.093018	0.213659	-0.380325
Cl127	Cl	1.426321	-0.453021	-0.960882
Cl128	Cl	1.759654	-0.119688	-0.627549
Cl129	Cl	2.092987	0.213646	-0.294216
H130	H	0.943436	-0.346401	-0.449166
H131	H	1.276769	-0.013068	-0.115833
H132	H	1.610102	0.320266	0.217501
Cl133	Cl	0.881983	-0.502329	-0.650650
Cl134	Cl	1.215316	-0.168995	-0.317317
Cl135	Cl	1.548649	0.164338	0.016017
