data_functionalizedCrystal
_audit_creation_method	'MofGen! by Chris Wilmer'
_symmetry_space_group_name_H-M	'P1'
_symmetry_Int_Tables_number	1
_symmetry_cell_setting	triclinic
loop_
_symmetry_equiv_pos_as_xyz
  x,y,z
_cell_length_a	12.759400
_cell_length_b	11.169417
_cell_length_c	11.169409
_cell_angle_alpha	90.021683
_cell_angle_beta	89.966206
_cell_angle_gamma	89.986377
loop_
_atom_site_label
_atom_site_type_symbol
_atom_site_fract_x
_atom_site_fract_y
_atom_site_fract_z
Zn1	Zn	-0.418211	-1.834926	-0.678590
Zn2	Zn	-0.593937	-1.834800	-0.477902
Zn3	Zn	-0.418269	-1.634212	-0.477918
Zn4	Zn	-0.593845	-1.634204	-0.678540
O5	O	-0.506065	-1.734536	-0.578238
O6	O	-0.441535	-2.002859	-0.651982
O7	O	-0.570697	-1.808142	-0.309954
O8	O	-0.271240	-1.660893	-0.504565
O9	O	-0.570640	-2.002767	-0.504538
O10	O	-0.271198	-1.808357	-0.651998
O11	O	-0.441634	-1.660771	-0.309966
O12	O	-0.441546	-1.466261	-0.504517
O13	O	-0.570484	-1.660880	-0.846497
O14	O	-0.570541	-1.466256	-0.651913
O15	O	-0.441447	-1.808349	-0.846533
O16	O	-0.740946	-1.808135	-0.504489
O17	O	-0.740878	-1.660758	-0.651898
C18	C	-0.506040	-1.422711	-0.578212
C19	C	-0.506055	-1.289311	-0.578230
C20	C	-0.779033	-1.734464	-0.578213
C21	C	-0.895809	-1.734544	-0.578242
C22	C	-0.950672	-1.811368	-0.501571
C23	C	-1.060396	-1.811442	-0.501608
C24	C	-1.060386	-1.657857	-0.654990
C25	C	-0.950664	-1.657790	-0.654958
C26	C	-0.895817	-1.888122	-0.424855
C27	C	-0.950680	-1.964952	-0.348178
C28	C	-1.060404	-1.965025	-0.348215
C29	C	-1.115265	-1.888270	-0.424929
C30	C	-0.232032	-1.734640	-0.578289
C31	C	-0.115256	-1.734684	-0.578311
C32	C	-0.505949	-1.734628	-0.891280
C33	C	-0.505899	-1.734667	-1.024680
C34	C	-0.506083	-1.047578	-0.578254
C35	C	-0.506067	-1.180978	-0.578237
C36	C	-0.506106	-1.734513	-0.266413
C37	C	-0.505860	-1.734706	-0.133013
H38	H	-0.806475	-1.888067	-0.424813
H39	H	-1.105063	-1.595365	-0.717446
H40	H	-1.105069	-2.027592	-0.285789
C41	C	-1.234396	-1.888609	-0.424984
C42	C	-1.270592	-2.002889	-0.455687
C43	C	-1.380326	-2.003247	-0.455731
H44	H	-1.259344	-1.831983	-0.481642
H45	H	-1.259332	-1.867976	-0.347512
H46	H	-1.245667	-2.023507	-0.533149
H47	H	-1.245673	-2.059534	-0.399040
H48	H	-1.405262	-1.982614	-0.378259
H49	H	-1.405264	-1.946617	-0.512390
H50	H	-1.404899	-2.080787	-0.476552
H51	H	-0.905995	-1.595233	-0.717391
C52	C	-0.891065	-2.048085	-0.264745
C53	C	-0.828203	-1.980122	-0.187719
C54	C	-0.773284	-2.056665	-0.110834
H55	H	-0.848102	-2.100351	-0.310546
H56	H	-0.939422	-2.093831	-0.219019
H57	H	-0.779851	-1.934396	-0.233440
H58	H	-0.871139	-1.927860	-0.141892
H59	H	-0.821642	-2.102411	-0.065108
H60	H	-0.730328	-2.108927	-0.156645
H61	H	-0.730634	-2.010563	-0.058556
