data_functionalizedCrystal
_audit_creation_method	'MofGen! by Chris Wilmer'
_symmetry_space_group_name_H-M	'P1'
_symmetry_Int_Tables_number	1
_symmetry_cell_setting	triclinic
loop_
_symmetry_equiv_pos_as_xyz
  x,y,z
_cell_length_a	25.639242
_cell_length_b	12.827892
_cell_length_c	12.827885
_cell_angle_alpha	90.029786
_cell_angle_beta	89.977793
_cell_angle_gamma	89.992304
loop_
_atom_site_label
_atom_site_type_symbol
_atom_site_fract_x
_atom_site_fract_y
_atom_site_fract_z
Zn1	Zn	0.799350	0.416197	-0.590930
Zn2	Zn	1.299350	0.916197	-0.090930
Zn3	Zn	0.799297	0.590974	-0.416191
Zn4	Zn	1.299297	1.090974	0.083809
Zn5	Zn	0.711915	0.416224	-0.416195
Zn6	Zn	1.211915	0.916224	0.083805
Zn7	Zn	0.711907	0.590873	-0.590882
Zn8	Zn	1.211907	1.090873	-0.090882
O9	O	0.755617	0.503567	-0.503549
O10	O	1.255617	1.003567	-0.003549
O11	O	0.872508	0.439412	-0.567769
O12	O	1.372508	0.939412	-0.067769
O13	O	0.787687	0.567847	-0.269955
O14	O	1.287687	1.067847	0.230045
O15	O	0.723538	0.269985	-0.439396
O16	O	1.223538	0.769985	0.060604
O17	O	0.872469	0.567821	-0.439389
O18	O	1.372469	1.067821	0.060611
O19	O	0.787777	0.269965	-0.567774
O20	O	1.287777	0.769965	-0.067774
O21	O	0.723487	0.439459	-0.269958
O22	O	1.223487	0.939459	0.230042
O23	O	0.638748	0.439361	-0.439349
O24	O	1.138748	0.939361	0.060651
O25	O	0.723526	0.567648	-0.737124
O26	O	1.223526	1.067648	-0.237124
O27	O	0.638743	0.567675	-0.567691
O28	O	1.138743	1.067675	-0.067691
O29	O	0.787770	0.439314	-0.737160
O30	O	1.287770	0.939314	-0.237160
O31	O	0.787680	0.737197	-0.439342
O32	O	1.287680	1.237197	0.060658
O33	O	0.723474	0.737123	-0.567686
O34	O	1.223474	1.237123	-0.067686
C35	C	0.619775	0.503511	-0.503516
C36	C	1.119775	1.003511	-0.003516
C37	C	0.561661	0.503512	-0.503526
C38	C	1.061661	1.003512	-0.003526
C39	C	0.310496	0.436824	-0.570519
C40	C	0.810496	0.936824	-0.070519
C41	C	0.365100	0.436814	-0.570513
C42	C	0.865100	0.936814	-0.070513
O43	O	0.393361	0.380067	-0.627466
O44	O	0.893361	0.880067	-0.127466
N45	N	0.392387	0.503555	-0.503561
N46	N	0.892387	1.003555	-0.003561
C47	C	0.365067	0.570319	-0.436619
C48	C	0.865067	1.070319	0.063381
O49	O	0.393290	0.627088	-0.379671
O50	O	0.893290	1.127088	0.120329
C51	C	0.310463	0.570334	-0.436631
C52	C	0.810463	1.070334	0.063369
C53	C	0.283179	0.503580	-0.503579
C54	C	0.783179	1.003580	-0.003579
C55	C	0.283211	0.370077	-0.637463
C56	C	0.783211	0.870077	-0.137463
C57	C	0.228611	0.370086	-0.637468
C58	C	0.728611	0.870086	-0.137468
C59	C	0.201295	0.436842	-0.570528
C60	C	0.701295	0.936842	-0.070528
C61	C	0.228579	0.503589	-0.503584
C62	C	0.728579	1.003589	-0.003584
C63	C	0.283144	0.637102	-0.369694
C64	C	0.783144	1.137102	0.130306
C65	C	0.228537	0.637112	-0.369712
C66	C	0.728537	1.137112	0.130288
C67	C	0.201253	0.570358	-0.436661
C68	C	0.701253	1.070358	0.063339
C69	C	0.146662	0.570355	-0.436648
C70	C	0.646662	1.070355	0.063352
N71	N	0.119375	0.503613	-0.503600
N72	N	0.619375	1.003613	-0.003600
C73	C	0.146691	0.436857	-0.570540
C74	C	0.646691	0.936857	-0.070540
C75	C	0.479737	0.570284	-0.436600
C76	C	0.979737	1.070284	0.063400
C77	C	0.534340	0.570265	-0.436582
C78	C	1.034340	1.070265	0.063418
C79	C	0.534369	0.436761	-0.570478
C80	C	1.034369	0.936761	-0.070478
C81	C	0.479766	0.436775	-0.570490
C82	C	0.979766	0.936775	-0.070490
C83	C	0.452450	0.503542	-0.503552
C84	C	0.952450	1.003542	-0.003552
C85	C	0.032026	0.436881	-0.570543
C86	C	0.532026	0.936881	-0.070543
C87	C	-0.022579	0.436893	-0.570539
C88	C	0.477421	0.936893	-0.070539
C89	C	-0.022604	0.570400	-0.436647
C90	C	0.477396	1.070400	0.063353
C91	C	0.031997	0.570385	-0.436647
C92	C	0.531997	1.070385	0.063353
C93	C	0.059310	0.503622	-0.503604
C94	C	0.559310	1.003622	-0.003604
O95	O	0.118366	0.627075	-0.379728
O96	O	0.618366	1.127075	0.120272
O97	O	0.118461	0.380108	-0.627488
O98	O	0.618461	0.880108	-0.127488
C99	C	0.755585	0.775077	-0.503531
C100	C	1.255585	1.275077	-0.003531
C101	C	0.755618	0.891230	-0.503558
C102	C	1.255618	1.391230	-0.003558
C103	C	0.755653	0.503467	-0.776120
C104	C	1.255653	1.003467	-0.276120
C105	C	0.755668	0.503424	-0.892273
C106	C	1.255668	1.003424	-0.392273
C107	C	0.891990	0.503625	-0.503584
C108	C	1.391990	1.003625	-0.003584
C109	C	0.950104	0.503649	-0.503599
C110	C	1.450104	1.003649	-0.003599
C111	C	0.755664	0.230997	-0.503591
C112	C	1.255664	0.730997	-0.003591
C113	C	0.755684	0.114844	-0.503609
C114	C	1.255684	0.614844	-0.003609
C115	C	0.787427	0.943017	-0.440120
C116	C	1.287427	1.443017	0.059880
C117	C	0.787463	1.063067	-0.440146
C118	C	1.287463	1.563067	0.059854
C119	C	0.787461	0.439908	-0.944075
C120	C	1.287461	0.939908	-0.444075
C121	C	0.787478	0.439862	-1.064126
C122	C	1.287478	0.939862	-0.564126
C123	C	0.755612	0.503592	-0.232040
C124	C	1.255612	1.003592	0.267960
C125	C	0.755698	0.503340	-0.115887
C126	C	1.255698	1.003340	0.384113
H127	H	-0.044855	0.624748	-0.382142
H128	H	0.455145	1.124748	0.117858
C129	C	0.824250	0.366394	-1.124306
C130	C	1.324250	0.866394	-0.624306
N131	N	0.851947	0.311053	-1.169637
N132	N	1.351947	0.811053	-0.669637
C133	C	0.824182	0.882851	-0.366716
C134	C	1.324182	1.382851	0.133284
N135	N	0.851866	0.837534	-0.311425
N136	N	1.351866	1.337534	0.188575
H137	H	0.206300	0.691486	-0.315205
H138	H	0.706300	1.191486	0.184795
H139	H	0.728479	0.557725	-1.071345
H140	H	1.228479	1.057725	-0.571345
H141	H	0.728415	0.935770	-0.557894
H142	H	1.228415	1.435770	-0.057894
C143	C	0.718909	0.576840	-0.952422
C144	C	1.218909	1.076840	-0.452422
N145	N	0.691220	0.632140	-0.997724
N146	N	1.191220	1.132140	-0.497724
C147	C	0.718892	1.054688	-0.576988
C148	C	1.218892	1.554688	-0.076988
N149	N	0.691180	1.009371	-0.632259
N150	N	1.191180	1.509371	-0.132259
C151	C	-0.052589	0.363459	-0.644194
C152	C	0.447411	0.863459	-0.144194
N153	N	-0.075190	0.308152	-0.699672
N154	N	0.424810	0.808152	-0.199672
C155	C	0.824253	1.123230	-0.366767
C156	C	1.324253	1.623230	0.133233
N157	N	0.851964	1.168547	-0.311497
N158	N	1.351964	1.668547	0.188503
H159	H	0.054212	0.624732	-0.382123
H160	H	0.554212	1.124732	0.117877
C161	C	0.564428	0.363334	-0.644122
C162	C	1.064428	0.863334	-0.144122
N163	N	0.587069	0.308035	-0.699588
N164	N	1.087069	0.808035	-0.199588
C165	C	0.824217	0.366485	-0.883927
C166	C	1.324217	0.866485	-0.383927
N167	N	0.851903	0.311181	-0.838624
N168	N	1.351903	0.811181	-0.338624
C169	C	0.062063	0.363431	-0.644193
C170	C	0.562063	0.863431	-0.144193
N171	N	0.084687	0.308103	-0.699659
N172	N	0.584687	0.808103	-0.199659
C173	C	0.449758	0.363349	-0.644145
C174	C	0.949758	0.863349	-0.144145
N175	N	0.427160	0.308044	-0.699628
N176	N	0.927160	0.808044	-0.199628
C177	C	0.313251	0.296626	-0.711103
C178	C	0.813251	0.796626	-0.211103
N179	N	0.335873	0.241291	-0.766565
N180	N	0.835873	0.741291	-0.266565
C181	C	0.564346	0.643689	-0.362923
C182	C	1.064346	1.143689	0.137077
N183	N	0.586945	0.699000	-0.307446
N184	N	1.086945	1.199000	0.192554
C185	C	0.198606	0.296661	-0.711127
C186	C	0.698606	0.796661	-0.211127
N187	N	0.176009	0.241358	-0.766616
N188	N	0.676009	0.741358	-0.266616
C189	C	0.313144	0.710542	-0.296048
C190	C	0.813144	1.210542	0.203952
N191	N	0.335740	0.765863	-0.240575
N192	N	0.835740	1.265863	0.259425
C193	C	0.449695	0.643722	-0.362942
C194	C	0.949695	1.143722	0.137058
N195	N	0.427070	0.699035	-0.307461
N196	N	0.927070	1.199035	0.192539
