data_functionalizedCrystal
_audit_creation_method	'MofGen! by Chris Wilmer'
_symmetry_space_group_name_H-M	'P1'
_symmetry_Int_Tables_number	1
_symmetry_cell_setting	triclinic
loop_
_symmetry_equiv_pos_as_xyz
  x,y,z
_cell_length_a	12.759401
_cell_length_b	12.759394
_cell_length_c	12.759393
_cell_angle_alpha	90.032294
_cell_angle_beta	90.018496
_cell_angle_gamma	90.014998
loop_
_atom_site_label
_atom_site_type_symbol
_atom_site_fract_x
_atom_site_fract_y
_atom_site_fract_z
Zn1	Zn	1.606254	-0.418200	0.593976
Zn2	Zn	1.606148	-0.593919	0.418294
Zn3	Zn	1.430556	-0.418255	0.418315
Zn4	Zn	1.430545	-0.593838	0.593935
O5	O	1.518376	-0.506053	0.506130
O6	O	1.753261	-0.441520	0.570679
O7	O	1.582816	-0.570674	0.271276
O8	O	1.453912	-0.271227	0.441643
O9	O	1.753183	-0.570620	0.441607
O10	O	1.582997	-0.271186	0.570700
O11	O	1.453810	-0.441614	0.271291
O12	O	1.283534	-0.441536	0.441604
O13	O	1.453892	-0.570482	0.740962
O14	O	1.283525	-0.570536	0.570631
O15	O	1.582986	-0.441442	0.740992
O16	O	1.582805	-0.740929	0.441567
O17	O	1.453789	-0.740870	0.570610
C18	C	1.245409	-0.506034	0.506116
C19	C	1.128632	-0.506051	0.506135
C20	C	1.518313	-0.779021	0.506105
C21	C	1.518382	-0.895797	0.506129
C22	C	1.073793	-0.573329	0.573208
C23	C	0.964069	-0.573342	0.573219
C24	C	0.964032	-0.438796	0.439075
C25	C	1.073755	-0.438779	0.439070
C26	C	1.128670	-0.640601	0.640273
C27	C	1.073831	-0.707885	0.707351
C28	C	0.964107	-0.707898	0.707362
C29	C	0.909222	-0.640627	0.640296
C30	C	1.652826	-0.895806	0.371857
C31	C	1.720076	-0.950671	0.304734
C32	C	1.720138	-1.060392	0.304762
C33	C	1.652945	-1.115251	0.371924
C34	C	1.585695	-1.060386	0.439047
C35	C	1.585638	-0.950662	0.439009
C36	C	1.451257	-1.060378	0.573323
C37	C	1.451189	-0.950656	0.573291
C38	C	1.384064	-1.115237	0.640484
C39	C	1.316808	-1.060372	0.707604
C40	C	1.316748	-0.950644	0.707572
C41	C	1.383939	-0.895791	0.640414
C42	C	1.792409	-0.506073	0.506145
C43	C	1.909186	-0.506082	0.506151
C44	C	1.518449	-0.505947	0.780164
C45	C	1.518481	-0.505902	0.896940
C46	C	1.518468	-0.232020	0.506179
C47	C	1.518507	-0.115243	0.506199
C48	C	1.518363	-0.506083	0.233163
C49	C	1.518535	-0.505832	0.116387
C50	C	1.585709	-0.438704	0.951820
C51	C	1.585734	-0.438666	1.061544
C52	C	1.451300	-0.573033	1.061500
C53	C	1.451270	-0.573065	0.951778
C54	C	1.652919	-0.371541	0.896982
C55	C	1.720154	-0.304339	0.951862
C56	C	1.720179	-0.304301	1.061586
C57	C	1.652969	-0.371465	1.116431
H58	H	1.118526	-0.762648	0.761961
O59	O	1.385858	-0.638201	0.898425
C60	C	1.244010	-0.652385	0.774495
C61	C	1.318012	-0.578496	0.834863
H62	H	1.189152	-0.604144	0.723075
H63	H	1.195916	-0.700366	0.832499
H64	H	1.292235	-0.707363	0.723164
H65	H	1.269867	-0.523455	0.886196
H66	H	1.366108	-0.530589	0.776803
O67	O	1.384027	-1.221820	0.640685
C68	C	1.310305	-1.379269	0.714375
C69	C	1.310261	-1.258565	0.714269
H70	H	1.250656	-1.409015	0.773846
H71	H	1.391642	-1.409029	0.736307
H72	H	1.288600	-1.409124	0.632982
H73	H	1.331921	-1.228621	0.795637
H74	H	1.228914	-1.228877	0.692278
H75	H	1.774903	-1.105063	0.250110
H76	H	0.819877	-0.640635	0.640319
H77	H	1.218013	-0.640599	0.640269
H78	H	0.919460	-0.762677	0.761988
H79	H	1.118406	-0.383987	0.384461
H80	H	1.653010	-1.204592	0.371950
O81	O	1.785244	-0.897218	0.239528
C82	C	1.844781	-0.728190	0.180009
C83	C	1.770907	-0.788588	0.253886
H84	H	1.833231	-0.640352	0.191607
H85	H	1.826378	-0.749773	0.095262
H86	H	1.929490	-0.749742	0.198518
H87	H	1.686174	-0.767068	0.235472
H88	H	1.789400	-0.767000	0.338611
O89	O	0.910558	-0.373564	0.373954
C90	C	0.741507	-0.313938	0.314542
C91	C	0.801933	-0.387878	0.388334
H92	H	0.653673	-0.325469	0.326158
H93	H	0.762972	-0.332293	0.229772
H94	H	0.763152	-0.229248	0.333118
H95	H	0.780321	-0.472593	0.369853
H96	H	0.780463	-0.369433	0.473083
H97	H	1.262110	-1.105047	0.762287
H98	H	1.652983	-0.371417	1.205776
H99	H	1.396581	-0.627714	1.106163
H100	H	1.652770	-0.806465	0.371814
H101	H	1.261990	-0.905978	0.762236
O102	O	1.785397	-0.239191	0.898429
C103	C	1.844886	-0.179643	0.729416
C104	C	1.770964	-0.253497	0.789794
H105	H	1.833227	-0.191167	0.641575
H106	H	1.929625	-0.198090	0.750912
H107	H	1.826478	-0.094931	0.751073
H108	H	1.789277	-0.338234	0.768170
H109	H	1.686247	-0.234960	0.768293
O110	O	1.785581	-0.238988	1.114735
C111	C	1.918878	-0.105677	1.103192
C112	C	1.844874	-0.179606	1.042874
H113	H	1.966819	-0.057632	1.045119
H114	H	1.973877	-0.153853	1.154525
H115	H	1.870660	-0.050762	1.154599
H116	H	1.893006	-0.234535	0.991410
H117	H	1.789871	-0.131365	0.991607
H118	H	1.383890	-0.806450	0.640375
H119	H	1.652909	-0.371567	0.807640
