data_functionalizedCrystal
_audit_creation_method	'MofGen! by Chris Wilmer'
_symmetry_space_group_name_H-M	'P1'
_symmetry_Int_Tables_number	1
_symmetry_cell_setting	triclinic
loop_
_symmetry_equiv_pos_as_xyz
  x,y,z
_cell_length_a	16.109318
_cell_length_b	15.995292
_cell_length_c	15.186229
_cell_angle_alpha	89.999448
_cell_angle_beta	90.000224
_cell_angle_gamma	83.468590
loop_
_atom_site_label
_atom_site_type_symbol
_atom_site_fract_x
_atom_site_fract_y
_atom_site_fract_z
O1	O	1.103128	0.107696	-0.073149
O2	O	1.603128	0.607696	0.426851
O3	O	0.861069	0.121075	-0.073166
O4	O	1.361069	0.621075	0.426834
O5	O	0.988741	-0.007507	-0.073158
O6	O	1.488741	0.492493	0.426842
O7	O	0.975457	0.236278	-0.073157
O8	O	1.475457	0.736278	0.426843
O9	O	0.988732	-0.007509	0.073299
O10	O	1.488732	0.492491	0.573299
O11	O	0.861061	0.121073	0.073291
O12	O	1.361061	0.621073	0.573291
O13	O	1.103120	0.107694	0.073308
O14	O	1.603120	0.607694	0.573308
Zn15	Zn	0.982089	0.114383	0.096553
Zn16	Zn	1.482089	0.614383	0.596553
Zn17	Zn	0.982100	0.114386	-0.096411
Zn18	Zn	1.482100	0.614386	0.403589
O19	O	0.975448	0.236276	0.073301
O20	O	1.475448	0.736276	0.573301
C21	C	0.988196	-0.038703	0.000068
C22	C	1.488196	0.461297	0.500068
C23	C	0.986575	-0.131656	0.000061
C24	C	1.486575	0.368344	0.500061
C25	C	0.830090	0.120530	0.000060
C26	C	1.330090	0.620530	0.500060
C27	C	0.737796	0.118897	0.000054
C28	C	1.237796	0.618897	0.500054
C29	C	0.438726	0.113626	-0.079765
C30	C	0.938726	0.613626	0.420235
C31	C	0.525448	0.115154	-0.079770
C32	C	1.025448	0.615154	0.420230
C33	C	0.525457	0.115141	0.079906
C34	C	1.025457	0.615141	0.579906
C35	C	0.438738	0.113606	0.079910
C36	C	0.938738	0.613606	0.579910
C37	C	0.395374	0.112853	0.000072
C38	C	0.895374	0.612853	0.500072
C39	C	0.568815	0.115916	0.000062
C40	C	1.068815	0.615916	0.500062
C41	C	0.662842	0.117573	0.000057
C42	C	1.162842	0.617573	0.500057
C43	C	0.301341	0.111195	0.000077
C44	C	0.801341	0.611195	0.500077
C45	C	0.980616	-0.469393	0.000069
C46	C	1.480616	0.030607	0.500069
C47	C	1.072766	-0.446100	0.000403
C48	C	1.572766	0.053900	0.500403
C49	C	1.074517	-0.349425	0.000069
C50	C	1.574517	0.150575	0.500069
C51	C	0.983573	-0.301838	0.000066
C52	C	1.483573	0.198162	0.500066
C53	C	0.937507	-0.330928	-0.083569
C54	C	1.437507	0.169072	0.416431
C55	C	0.936398	-0.427718	-0.083636
C56	C	1.436398	0.072282	0.416364
C57	C	0.934506	-0.427577	0.082913
C58	C	1.434506	0.072423	0.582913
C59	C	0.937921	-0.331085	0.084015
C60	C	1.437921	0.168915	0.584015
C61	C	0.985239	-0.207142	0.000061
C62	C	1.485239	0.292858	0.500061
C63	C	0.978947	-0.564088	0.000068
C64	C	1.478947	-0.064088	0.500068
C65	C	1.134099	0.108240	0.000080
C66	C	1.634099	0.608240	0.500080
C67	C	1.226393	0.109872	0.000081
C68	C	1.726393	0.609872	0.500081
C69	C	0.975993	0.267472	0.000072
C70	C	1.475993	0.767472	0.500072
C71	C	0.977614	0.360425	0.000073
C72	C	1.477614	0.860425	0.500073
N73	N	0.982087	0.114381	0.228246
N74	N	1.482087	0.614381	0.728246
N75	N	0.982108	0.114381	-0.228103
N76	N	1.482108	0.614381	0.271897
C77	C	1.038639	0.057464	0.453972
C78	C	1.538639	0.557464	0.953972
C79	C	1.038642	0.057462	0.546162
C80	C	1.538642	0.557462	1.046162
C81	C	0.925550	0.171301	0.546164
C82	C	1.425550	0.671301	1.046164
C83	C	0.925544	0.171298	0.453976
C84	C	1.425544	0.671298	0.953976
C85	C	0.982093	0.114381	0.407882
C86	C	1.482093	0.614381	0.907882
C87	C	0.982102	0.114382	0.592260
C88	C	1.482102	0.614382	1.092260
C89	C	0.982104	0.114380	0.692216
C90	C	1.482104	0.614380	1.192216
C91	C	0.982090	0.114381	0.307920
C92	C	1.482090	0.614381	0.807920
H93	H	0.560741	0.115782	-0.144782
H94	H	1.060741	0.615782	0.355218
N95	N	0.394418	0.112855	-0.161306
N96	N	0.894418	0.612855	0.338694
N97	N	0.338351	0.170986	-0.179115
N98	N	0.838351	0.670986	0.320885
H99	H	0.307058	0.170440	-0.236706
H100	H	0.807058	0.670440	0.263294
N101	N	1.119780	-0.325548	0.075266
N102	N	1.619780	0.174452	0.575266
N103	N	1.128825	-0.249893	0.087882
N104	N	1.628825	0.250107	0.587882
H105	H	1.160796	-0.233032	0.140991
H106	H	1.660796	0.266968	0.640991
H107	H	0.560774	0.115756	0.144907
H108	H	1.060774	0.615756	0.644907
H109	H	0.403440	0.112977	0.144927
H110	H	0.903440	0.612977	0.644927
H111	H	0.879510	0.217643	0.583702
H112	H	1.379510	0.717643	1.083702
N113	N	0.851649	-0.445982	-0.088404
N114	N	1.351649	0.054018	0.411596
N115	N	0.822050	-0.486958	-0.028253
N116	N	1.322050	0.013042	0.471747
H117	H	0.762199	-0.499858	-0.031624
H118	H	1.262199	0.000142	0.468376
H119	H	1.108281	-0.474106	0.060381
H120	H	1.608281	0.025894	0.560381
N121	N	1.117075	-0.482513	-0.074413
N122	N	1.617075	0.017487	0.425587
N123	N	1.081081	-0.525544	-0.127977
N124	N	1.581081	-0.025544	0.372023
H125	H	1.112372	-0.551262	-0.180818
H126	H	1.612372	-0.051262	0.319182
H127	H	1.110815	-0.331027	-0.059983
H128	H	1.610815	0.168973	0.440017
H129	H	0.968308	-0.454541	-0.146152
H130	H	1.468308	0.045459	0.353848
N131	N	0.867769	0.229441	0.406904
N132	N	1.367769	0.729441	0.906904
N133	N	0.817287	0.280257	0.448067
N134	N	1.317287	0.780257	0.948067
H135	H	0.776482	0.321317	0.414823
H136	H	1.276482	0.821317	0.914823
H137	H	0.870584	-0.299046	-0.086681
H138	H	1.370584	0.200954	0.413319
H139	H	1.084686	0.011115	0.583685
H140	H	1.584686	0.511115	1.083685
N141	N	0.977651	-0.305768	-0.161641
N142	N	1.477651	0.194232	0.338359
N143	N	1.040177	-0.266422	-0.155903
N144	N	1.540177	0.233578	0.344097
H145	H	1.068534	-0.248654	-0.211039
H146	H	1.568534	0.251346	0.288961
N147	N	0.970716	-0.463044	0.162432
N148	N	1.470716	0.036956	0.662432
N149	N	1.030953	-0.519579	0.159009
N150	N	1.530953	-0.019579	0.659009
H151	H	1.056534	-0.544631	0.215164
H152	H	1.556534	-0.044631	0.715164
H153	H	0.971464	-0.312528	0.145888
H154	H	1.471464	0.187472	0.645888
H155	H	0.866677	-0.441553	0.083474
H156	H	1.366677	0.058447	0.583474
N157	N	0.854668	-0.289660	0.090375
N158	N	1.354668	0.210340	0.590375
N159	N	0.827501	-0.237682	0.032876
N160	N	1.327501	0.262318	0.532876
H161	H	0.768707	-0.208409	0.037373
H162	H	1.268707	0.291591	0.537373
H163	H	1.084684	0.011118	0.416445
H164	H	1.584684	0.511118	0.916445
