data_functionalizedCrystal
_audit_creation_method	'MofGen! by Chris Wilmer'
_symmetry_space_group_name_H-M	'P1'
_symmetry_Int_Tables_number	1
_symmetry_cell_setting	triclinic
loop_
_symmetry_equiv_pos_as_xyz
  x,y,z
_cell_length_a	18.050591
_cell_length_b	18.215405
_cell_length_c	18.215399
_cell_angle_alpha	89.969449
_cell_angle_beta	90.025700
_cell_angle_gamma	89.979109
loop_
_atom_site_label
_atom_site_type_symbol
_atom_site_fract_x
_atom_site_fract_y
_atom_site_fract_z
Zn1	Zn	1.135345	0.293070	0.416218
Zn2	Zn	1.635345	0.793070	0.916218
Zn3	Zn	1.135252	0.416141	0.293146
Zn4	Zn	1.635252	0.916141	0.793146
Zn5	Zn	1.011154	0.293085	0.293152
Zn6	Zn	1.511154	0.793085	0.793152
Zn7	Zn	1.011119	0.416091	0.416158
Zn8	Zn	1.511119	0.916091	0.916158
O9	O	1.073217	0.354597	0.354669
O10	O	1.573217	0.854597	0.854669
O11	O	1.239257	0.309411	0.399914
O12	O	1.739257	0.809411	0.899914
O13	O	1.118766	0.399845	0.190162
O14	O	1.618766	0.899845	0.690162
O15	O	1.027681	0.190099	0.309505
O16	O	1.527681	0.690099	0.809505
O17	O	1.239189	0.399831	0.309494
O18	O	1.739189	0.899831	0.809494
O19	O	1.118924	0.190088	0.399921
O20	O	1.618924	0.690088	0.899921
O21	O	1.027591	0.309436	0.190167
O22	O	1.527591	0.809436	0.690167
O23	O	0.907224	0.309387	0.309447
O24	O	1.407224	0.809387	0.809447
O25	O	1.027622	0.399745	0.519150
O26	O	1.527622	0.899745	1.019150
O27	O	0.907199	0.399759	0.399819
O28	O	1.407199	0.899759	0.899819
O29	O	1.118890	0.309362	0.519194
O30	O	1.618890	0.809362	1.019194
O31	O	1.118733	0.519119	0.309436
O32	O	1.618733	1.019119	0.809436
O33	O	1.027533	0.519082	0.399813
O34	O	1.527533	1.019082	0.899813
C35	C	0.880265	0.354569	0.354628
C36	C	1.380265	0.854569	0.854628
C37	C	0.797720	0.354575	0.354628
C38	C	1.297720	0.854575	0.854628
C39	C	1.073139	0.545803	0.354633
C40	C	1.573139	1.045803	0.854633
C41	C	1.073173	0.627602	0.354643
C42	C	1.573173	1.127602	0.854643
C43	C	1.073263	0.354546	0.546622
C44	C	1.573263	0.854546	1.046622
C45	C	1.073282	0.354524	0.628420
C46	C	1.573282	0.854524	1.128420
C47	C	0.598261	0.305374	0.305597
C48	C	1.098261	0.805374	0.805597
C49	C	0.548844	0.372499	0.287483
C50	C	1.048844	0.872499	0.787483
C51	C	0.646589	0.354598	0.354661
C52	C	1.146589	0.854598	0.854661
C53	C	0.548925	0.287496	0.372773
C54	C	1.048925	0.787496	0.872773
C55	C	0.500604	0.354613	0.354692
C56	C	1.000604	0.854613	0.854692
C57	C	0.598259	0.421758	0.336512
C58	C	1.098259	0.921758	0.836512
C59	C	0.598344	0.336710	0.421833
C60	C	1.098344	0.836710	0.921833
C61	C	0.548949	0.403881	0.403745
C62	C	1.048949	0.903881	0.903745
C63	C	0.730687	0.354588	0.354642
C64	C	1.230687	0.854588	0.854642
C65	C	0.416508	0.354631	0.354712
C66	C	0.916508	0.854631	0.854712
C67	C	1.266923	0.354625	0.354710
C68	C	1.766923	0.854625	0.854710
C69	C	1.349469	0.354637	0.354727
C70	C	1.849469	0.854637	0.854727
C71	C	1.073316	0.162644	0.354720
C72	C	1.573316	0.662644	0.854720
C73	C	1.073359	0.080845	0.354742
C74	C	1.573359	0.580845	0.854742
C75	C	1.120773	0.815791	0.307670
C76	C	1.620773	1.315791	0.807670
C77	C	1.120806	0.892650	0.307688
C78	C	1.620806	1.392650	0.807688
C79	C	1.025757	0.892651	0.401720
C80	C	1.525757	1.392651	0.901720
C81	C	1.025728	0.815794	0.401705
C82	C	1.525728	1.315794	0.901705
C83	C	1.073235	0.777365	0.354676
C84	C	1.573235	1.277365	0.854676
C85	C	1.073297	0.931082	0.354709
C86	C	1.573297	1.431082	0.854709
C87	C	1.073333	1.014415	0.354728
C88	C	1.573333	1.514415	0.854728
C89	C	1.073201	0.694027	0.354657
C90	C	1.573201	1.194027	0.854657
C91	C	1.073215	0.354594	0.163462
C92	C	1.573215	0.854594	0.663462
C93	C	1.073340	0.354409	0.081664
C94	C	1.573340	0.854409	0.581664
C95	C	1.120822	0.307418	0.816639
C96	C	1.620822	0.807418	1.316639
C97	C	1.120831	0.307397	0.893497
C98	C	1.620831	0.807397	1.393497
C99	C	1.025794	0.401517	0.893440
C100	C	1.525794	0.901517	1.393440
C101	C	1.025782	0.401534	0.816583
C102	C	1.525782	0.901534	1.316583
C103	C	1.073300	0.354486	0.778184
C104	C	1.573300	0.854486	1.278184
C105	C	1.073321	0.354447	0.931900
C106	C	1.573321	0.854447	1.431900
C107	C	1.073331	0.354424	1.015234
C108	C	1.573331	0.854424	1.515234
C109	C	1.073290	0.354508	0.694845
C110	C	1.573290	0.854508	1.194845
H111	H	0.619913	0.263792	0.264060
H112	H	1.119913	0.763792	0.764060
H113	H	0.987078	0.923948	0.440008
H114	H	1.487078	1.423948	0.940008
O115	O	1.166948	0.261779	0.779223
O116	O	1.666948	0.761779	1.279223
C117	C	1.156735	0.271870	0.703140
C118	C	1.656735	0.771870	1.203140
H119	H	1.132391	0.328667	0.692616
H120	H	1.632391	0.828667	1.192616
H121	H	1.117198	0.228223	0.681334
H122	H	1.617198	0.728223	1.181334
C123	C	1.261773	0.195374	0.676630
C124	C	1.761773	0.695374	1.176630
C125	C	1.231878	0.265135	0.663704
C126	C	1.731878	0.765135	1.163704
H127	H	1.308123	0.191216	0.652303
H128	H	1.808123	0.691216	1.152303
H129	H	1.268652	0.188572	0.727889
H130	H	1.768652	0.688572	1.227889
H131	H	1.228818	0.159008	0.658459
H132	H	1.728818	0.659008	1.158459
H133	H	1.264828	0.301498	0.681883
H134	H	1.764828	0.801498	1.181883
H135	H	1.225006	0.271942	0.612447
H136	H	1.725006	0.771942	1.112447
H137	H	0.987108	0.439824	0.924714
H138	H	1.487108	0.939824	1.424714
O139	O	1.166960	0.778381	0.262094
O140	O	1.666960	1.278381	0.762094
C141	C	1.214895	0.733871	0.304036
C142	C	1.714895	1.233871	0.804036
H143	H	1.188662	0.722333	0.359776
H144	H	1.688662	1.222333	0.859776
H145	H	1.269936	0.763446	0.312189
H146	H	1.769936	1.263446	0.812189
C147	C	1.260562	0.675057	0.195082
C148	C	1.760562	1.175057	0.695082
C149	C	1.228340	0.660881	0.263540
C150	C	1.728340	1.160881	0.763540
H151	H	1.268859	0.630034	0.170101
H152	H	1.768859	1.130034	0.670101
H153	H	1.228270	0.705046	0.166824
H154	H	1.728270	1.205046	0.666824
H155	H	1.306426	0.699705	0.201885
H156	H	1.806426	1.199705	0.701885
H157	H	1.182473	0.636242	0.256736
H158	H	1.682473	1.136242	0.756736
H159	H	1.260625	0.630886	0.291796
H160	H	1.760625	1.130886	0.791796
H161	H	0.987079	0.439862	0.785273
H162	H	1.487079	0.939862	1.285273
O163	O	0.623873	0.489536	0.318188
O164	O	1.123873	0.989536	0.818188
C165	C	0.563473	0.536949	0.305375
C166	C	1.063473	1.036949	0.805375
H167	H	0.512478	0.515255	0.335225
H168	H	1.012478	1.015255	0.835225
H169	H	0.551699	0.539764	0.243943
H170	H	1.051699	1.039764	0.743943
C171	C	0.644916	0.640893	0.297381
C172	C	1.144916	1.140893	0.797381
C173	C	0.582285	0.614250	0.334048
C174	C	1.082285	1.114250	0.834048
H175	H	0.656521	0.688576	0.315064
H176	H	1.156521	1.188576	0.815064
H177	H	0.685609	0.608949	0.306010
H178	H	1.185609	1.108949	0.806010
H179	H	0.635097	0.643232	0.246190
H180	H	1.135097	1.143232	0.746190
H181	H	0.592109	0.611903	0.385236
H182	H	1.092109	1.111903	0.885236
H183	H	0.541594	0.646195	0.325427
H184	H	1.041594	1.146195	0.825427
H185	H	0.527102	0.387640	0.230690
H186	H	1.027102	0.887640	0.730690
O187	O	0.979477	0.778576	0.447393
O188	O	1.479477	1.278576	0.947393
C189	C	0.937561	0.828973	0.488914
C190	C	1.437561	1.328973	0.988914
H191	H	0.935025	0.883783	0.458780
H192	H	1.435025	1.383783	0.958780
H193	H	0.964727	0.837087	0.544836
H194	H	1.464727	1.337087	1.044836
C195	C	0.861621	0.731702	0.536445
C196	C	1.361621	1.231702	1.036445
C197	C	0.858500	0.799020	0.499431
C198	C	1.358500	1.299020	0.999431
H199	H	0.812853	0.713225	0.542936
H200	H	1.312853	1.213225	1.042936
H201	H	0.889862	0.697748	0.508474
H202	H	1.389862	1.197748	1.008474
H203	H	0.884262	0.738473	0.583043
H204	H	1.384262	1.238473	1.083043
H205	H	0.835868	0.792246	0.452830
H206	H	1.335868	1.292246	0.952830
H207	H	0.830254	0.832972	0.527394
H208	H	1.330254	1.332972	1.027394
O209	O	0.523399	0.453658	0.453268
O210	O	1.023399	0.953658	0.953268
C211	C	0.583841	0.488803	0.487440
C212	C	1.083841	0.988803	0.987440
H213	H	0.634637	0.484893	0.450479
H214	H	1.134637	0.984893	0.950479
H215	H	0.596066	0.460940	0.542180
H216	H	1.096066	0.960940	1.042180
C217	C	0.502348	0.574914	0.546144
C218	C	1.002348	1.074914	1.046144
C219	C	0.564734	0.570118	0.500746
C220	C	1.064734	1.070118	1.000746
H221	H	0.490562	0.625072	0.554356
H222	H	0.990562	1.125072	1.054356
H223	H	0.461626	0.551235	0.523125
H224	H	0.961626	1.051235	1.023125
H225	H	0.512544	0.551691	0.591756
H226	H	1.012544	1.051691	1.091756
H227	H	0.554535	0.593332	0.455132
H228	H	1.054535	1.093332	0.955132
H229	H	0.605454	0.593803	0.523758
H230	H	1.105454	1.093803	1.023758
H231	H	0.527215	0.230750	0.388054
H232	H	1.027215	0.730750	0.888054
H233	H	1.159527	0.269068	0.924803
H234	H	1.659527	0.769068	1.424803
H235	H	1.159517	0.923932	0.269412
H236	H	1.659517	1.423932	0.769412
H237	H	0.620104	0.321548	0.478609
H238	H	1.120104	0.821548	0.978609
