data_functionalizedCrystal
_audit_creation_method	'MofGen! by Chris Wilmer'
_symmetry_space_group_name_H-M	'P1'
_symmetry_Int_Tables_number	1
_symmetry_cell_setting	triclinic
loop_
_symmetry_equiv_pos_as_xyz
  x,y,z
_cell_length_a	16.959455
_cell_length_b	16.959447
_cell_length_c	16.959454
_cell_angle_alpha	89.973182
_cell_angle_beta	90.019023
_cell_angle_gamma	89.980656
loop_
_atom_site_label
_atom_site_type_symbol
_atom_site_fract_x
_atom_site_fract_y
_atom_site_fract_z
Zn1	Zn	1.208404	-0.446979	-0.314687
Zn2	Zn	1.208321	-0.314809	-0.446880
Zn3	Zn	1.076227	-0.314811	-0.314717
Zn4	Zn	1.076197	-0.446942	-0.446825
O5	O	1.142287	-0.380885	-0.380778
O6	O	1.319004	-0.429461	-0.332234
O7	O	1.190775	-0.204198	-0.429384
O8	O	1.093808	-0.332360	-0.204102
O9	O	1.318943	-0.332356	-0.429355
O10	O	1.190918	-0.429463	-0.204081
O11	O	1.093726	-0.204200	-0.332284
O12	O	0.965612	-0.332324	-0.332231
O13	O	1.093758	-0.557558	-0.429262
O14	O	0.965590	-0.429400	-0.429290
O15	O	1.190889	-0.557585	-0.332181
O16	O	1.190747	-0.332320	-0.557484
O17	O	1.093677	-0.429398	-0.557444
C18	C	0.936921	-0.380858	-0.380759
C19	C	0.849064	-0.380866	-0.380770
C20	C	0.807778	-0.330404	-0.330163
C21	C	0.807797	-0.431339	-0.431382
C22	C	0.725251	-0.431351	-0.431391
C23	C	0.683965	-0.380889	-0.380785
C24	C	0.725225	-0.330415	-0.330169
C25	C	0.683985	-0.481829	-0.482000
C26	C	0.601434	-0.481844	-0.482011
C27	C	0.560147	-0.431377	-0.431407
C28	C	0.601411	-0.380901	-0.380790
C29	C	0.560125	-0.330439	-0.330184
C30	C	0.601388	-0.279958	-0.279570
C31	C	0.683937	-0.279949	-0.279566
C32	C	0.477598	-0.431386	-0.431412
C33	C	0.477572	-0.330450	-0.330190
C34	C	1.142330	-0.587053	-0.380712
C35	C	1.142348	-0.674910	-0.380684
C36	C	1.091888	-1.046393	-0.330045
C37	C	1.192946	-1.046379	-0.431156
C38	C	1.192932	-0.963833	-0.431174
C39	C	1.142395	-0.922563	-0.380628
C40	C	1.091871	-0.963839	-0.330064
C41	C	1.243449	-0.922550	-0.481744
C42	C	1.243437	-0.839999	-0.481765
C43	C	1.192903	-0.798728	-0.431214
C44	C	1.142378	-0.840010	-0.380647
C45	C	1.091841	-0.798740	-0.330101
C46	C	1.041319	-0.840020	-0.279529
C47	C	1.041337	-0.922568	-0.279513
C48	C	1.192885	-0.716180	-0.431230
C49	C	1.091824	-0.716186	-0.330119
C50	C	1.348455	-0.380912	-0.380797
C51	C	1.436312	-0.380924	-0.380805
C52	C	1.142221	-0.380872	-0.586144
C53	C	1.142265	-0.380892	-0.674000
C54	C	1.142291	-0.175519	-0.380786
C55	C	1.142426	-0.087663	-0.380591
C56	C	1.091816	-0.431428	-1.045485
C57	C	1.192979	-0.330423	-1.045467
C58	C	1.192951	-0.330415	-0.962921
C59	C	1.142354	-0.380914	-0.921653
C60	C	1.091785	-0.431421	-0.962931
C61	C	1.243514	-0.279905	-0.921637
C62	C	1.243487	-0.279895	-0.839086
C63	C	1.192894	-0.330398	-0.797817
C64	C	1.142323	-0.380907	-0.839100
C65	C	1.091727	-0.431406	-0.797832
C66	C	1.041160	-0.481919	-0.839114
C67	C	1.041192	-0.481924	-0.921662
C68	C	1.192862	-0.330393	-0.715268
C69	C	1.091696	-0.431399	-0.715279
C70	C	1.142375	-0.380916	-0.174609
C71	C	1.142413	-0.380929	-0.086753
H72	H	0.443962	-0.289356	-0.288980
H73	H	1.000204	-0.956186	-0.238341
H74	H	1.050497	-0.472524	-0.681683
C75	C	0.555968	-0.224455	-0.223905
H76	H	0.500897	-0.231694	-0.231162
H77	H	0.569516	-0.236103	-0.170808
H78	H	0.569460	-0.171321	-0.235416
H79	H	1.234085	-1.079985	-0.472314
C80	C	0.985507	-0.537465	-0.793714
H81	H	0.992737	-0.530224	-0.738640
H82	H	0.932409	-0.525855	-0.807286
H83	H	0.997056	-0.590590	-0.807198
C84	C	0.729327	-0.224434	-0.223891
H85	H	0.784403	-0.231662	-0.231129
H86	H	0.715776	-0.171306	-0.235393
H87	H	0.715816	-0.236098	-0.170795
H88	H	1.000022	-0.523049	-0.955281
H89	H	1.284701	-0.238785	-0.955243
C90	C	0.985732	-0.794618	-0.223931
H91	H	0.992963	-0.739544	-0.231187
H92	H	0.932620	-0.808136	-0.235485
H93	H	0.997333	-0.808154	-0.170817
H94	H	1.234029	-0.289262	-0.681660
C95	C	1.036194	-0.486986	-1.090890
H96	H	1.043453	-0.479758	-1.145964
H97	H	1.047722	-0.540104	-1.077320
H98	H	0.983085	-0.475359	-1.077405
H99	H	1.284574	-0.806396	-0.522944
C100	C	0.853162	-0.274882	-0.274490
H101	H	0.908239	-0.282102	-0.281729
H102	H	0.839602	-0.221757	-0.285994
H103	H	0.839653	-0.286546	-0.221393
C104	C	0.853209	-0.486848	-0.487039
H105	H	0.908282	-0.479611	-0.479787
H106	H	0.839706	-0.539976	-0.475534
H107	H	0.839667	-0.475192	-0.540140
C108	C	1.248634	-0.274883	-1.090859
H109	H	1.241414	-0.282125	-1.145934
H110	H	1.237103	-0.221760	-1.077369
H111	H	1.301732	-0.286513	-1.077287
C112	C	0.729400	-0.537346	-0.537647
H113	H	0.784472	-0.530106	-0.530396
H114	H	0.715897	-0.590472	-0.526130
H115	H	0.715858	-0.525703	-0.590751
H116	H	1.284585	-0.956158	-0.522904
H117	H	1.284662	-0.238765	-0.805479
H118	H	0.567845	-0.522947	-0.523224
H119	H	1.050673	-0.682590	-0.288954
C120	C	0.432212	-0.486951	-0.487035
H121	H	0.468624	-0.517015	-0.517161
H122	H	0.400054	-0.521427	-0.456799
H123	H	0.399967	-0.456701	-0.521464
C124	C	1.036316	-1.091795	-0.274423
H125	H	1.043559	-1.146870	-0.281651
H126	H	1.047902	-1.078278	-0.221319
H127	H	0.983198	-1.078257	-0.285997
C128	C	1.248448	-0.670775	-0.486855
H129	H	1.278548	-0.707177	-0.516955
H130	H	1.218187	-0.638559	-0.521294
H131	H	1.282902	-0.638587	-0.456628
