data_functionalizedCrystal
_audit_creation_method	'MofGen! by Chris Wilmer'
_symmetry_space_group_name_H-M	'P1'
_symmetry_Int_Tables_number	1
_symmetry_cell_setting	triclinic
loop_
_symmetry_equiv_pos_as_xyz
  x,y,z
_cell_length_a	15.944545
_cell_length_b	15.944551
_cell_length_c	14.421503
_cell_angle_alpha	90.003340
_cell_angle_beta	89.995153
_cell_angle_gamma	83.497455
loop_
_atom_site_label
_atom_site_type_symbol
_atom_site_fract_x
_atom_site_fract_y
_atom_site_fract_z
O1	O	1.114533	0.108295	-0.077054
O2	O	0.869982	0.121657	-0.077069
O3	O	0.998936	-0.007299	-0.077053
O4	O	0.985579	0.237251	-0.077070
O5	O	0.998914	-0.007280	0.077171
O6	O	0.869961	0.121676	0.077154
O7	O	1.114511	0.108315	0.077170
Cu8	Cu	0.992234	0.114997	0.091244
Cu9	Cu	0.992259	0.114974	-0.091143
O10	O	0.985558	0.237270	0.077153
C11	C	0.838677	0.121113	0.000041
C12	C	0.745431	0.119453	0.000035
C13	C	0.474798	0.034559	0.000051
C14	C	0.525370	0.075497	0.076091
C15	C	0.409787	0.113532	0.000052
C16	C	0.525371	0.075500	-0.075961
C17	C	0.574701	0.116437	0.000042
C18	C	0.459130	0.154449	0.076154
C19	C	0.459128	0.154440	-0.075967
C20	C	0.509667	0.195436	0.000092
C21	C	0.314785	0.111856	0.000058
C22	C	0.669700	0.118119	0.000042
C23	C	0.998370	-0.038583	0.000059
C24	C	0.996708	-0.131829	0.000060
C25	C	0.912803	-0.346684	0.000042
C26	C	0.951755	-0.407693	0.076086
C27	C	0.993701	-0.302555	0.000052
C28	C	0.951796	-0.407695	-0.075967
C29	C	0.990790	-0.467468	0.000041
C30	C	1.032675	-0.362335	0.076159
C31	C	1.032704	-0.362331	-0.075961
C32	C	1.071715	-0.423322	0.000101
C33	C	0.995375	-0.207553	0.000060
C34	C	0.989122	-0.562469	0.000041
C35	C	1.145816	0.108859	0.000058
C36	C	1.239062	0.110519	0.000057
C37	C	0.986123	0.268555	0.000039
C38	C	0.987785	0.361801	0.000033
N39	N	0.992222	0.115013	0.219525
N40	N	0.992278	0.114952	-0.219424
C41	C	0.932584	0.174615	0.469171
C42	C	1.008484	0.190921	0.530977
C43	C	0.992243	0.114993	0.408687
C44	C	0.916362	0.098707	0.530974
C45	C	0.992256	0.114975	0.591408
C46	C	1.068181	0.131336	0.469132
C47	C	0.976010	0.039089	0.469124
C48	C	1.051965	0.055362	0.530902
C49	C	0.992234	0.115005	0.303426
C50	C	0.992273	0.114962	0.696667
H51	H	0.525158	0.263501	0.000131
H52	H	0.962243	-0.025073	0.441933
O53	O	1.026705	0.275922	0.566993
H54	H	1.027148	0.274916	0.643948
H55	H	1.066900	-0.342210	-0.140250
H56	H	0.852186	0.084940	0.558142
H57	H	0.459145	-0.033453	0.000130
H58	H	0.430191	0.187755	-0.140259
O59	O	0.865819	0.241446	0.433258
H60	H	0.896013	0.287065	0.389853
H61	H	0.554291	0.042153	0.140381
H62	H	0.845655	-0.313375	0.000113
H63	H	0.917578	-0.427779	-0.140260
H64	H	1.132372	0.145180	0.442081
H65	H	1.138922	-0.456483	0.000148
H66	H	0.430312	0.187785	0.140508
H67	H	0.554298	0.042126	-0.140243
H68	H	0.917530	-0.427792	0.140370
H69	H	1.066854	-0.342338	0.140519
H70	H	1.102477	0.004931	0.557836
