data_functionalizedCrystal
_audit_creation_method	'MofGen! by Chris Wilmer'
_symmetry_space_group_name_H-M	'P1'
_symmetry_Int_Tables_number	1
_symmetry_cell_setting	triclinic
loop_
_symmetry_equiv_pos_as_xyz
  x,y,z
_cell_length_a	21.395362
_cell_length_b	12.827892
_cell_length_c	21.395355
_cell_angle_alpha	89.986671
_cell_angle_beta	89.956060
_cell_angle_gamma	90.031271
loop_
_atom_site_label
_atom_site_type_symbol
_atom_site_fract_x
_atom_site_fract_y
_atom_site_fract_z
Zn1	Zn	0.957926	-0.415711	-0.354608
Zn2	Zn	1.457926	0.084289	0.145392
Zn3	Zn	0.957857	-0.590438	-0.249840
Zn4	Zn	1.457857	-0.090438	0.250160
Zn5	Zn	0.853141	-0.415760	-0.249809
Zn6	Zn	1.353141	0.084240	0.250191
Zn7	Zn	0.853138	-0.590459	-0.354545
Zn8	Zn	1.353138	-0.090459	0.145455
O9	O	0.905516	-0.503092	-0.302201
O10	O	1.405516	-0.003092	0.197799
O11	O	1.045595	-0.438860	-0.340750
O12	O	1.545595	0.061140	0.159250
O13	O	0.943938	-0.567278	-0.162158
O14	O	1.443938	-0.067278	0.337842
O15	O	0.867071	-0.269517	-0.263725
O16	O	1.367071	0.230483	0.236275
O17	O	1.045544	-0.567231	-0.263777
O18	O	1.545544	-0.067231	0.236223
O19	O	0.944056	-0.269482	-0.340720
O20	O	1.444056	0.230518	0.159280
O21	O	0.867004	-0.438943	-0.162136
O22	O	1.367004	0.061057	0.337864
O23	O	0.765463	-0.438963	-0.263664
O24	O	1.265463	0.061037	0.236336
O25	O	0.867067	-0.567267	-0.442231
O26	O	1.367067	-0.067267	0.057769
O27	O	0.765461	-0.567314	-0.340612
O28	O	1.265461	-0.067314	0.159388
O29	O	0.944054	-0.438881	-0.442278
O30	O	1.444054	0.061119	0.057722
O31	O	0.943935	-0.736677	-0.263716
O32	O	1.443935	-0.236677	0.236284
O33	O	0.866999	-0.736692	-0.340642
O34	O	1.366999	-0.236692	0.159358
C35	C	0.742728	-0.503147	-0.302128
C36	C	1.242728	-0.003147	0.197872
C37	C	0.673087	-0.503196	-0.302112
C38	C	1.173087	-0.003196	0.197888
C39	C	0.640389	-0.570117	-0.342119
C40	C	1.140389	-0.070117	0.157881
C41	C	0.574953	-0.570091	-0.342147
C42	C	1.074953	-0.070091	0.157853
C43	C	0.542218	-0.503156	-0.302156
C44	C	1.042218	-0.003156	0.197844
C45	C	0.574924	-0.436222	-0.262146
C46	C	1.074924	0.063778	0.237854
C47	C	0.640358	-0.436242	-0.262124
C48	C	1.140358	0.063758	0.237876
C49	C	0.438492	-0.494737	-0.245751
C50	C	0.938492	0.005263	0.254249
C51	C	0.373059	-0.494724	-0.245772
C52	C	0.873059	0.005276	0.254228
C53	C	0.340398	-0.503088	-0.302226
C54	C	0.840398	-0.003088	0.197774
C55	C	0.373177	-0.511486	-0.358660
C56	C	0.873177	-0.011486	0.141340
C57	C	0.438611	-0.511506	-0.358637
C58	C	0.938611	-0.011506	0.141363
C59	C	0.471266	-0.503126	-0.302176
C60	C	0.971266	-0.003126	0.197824
C61	C	0.236747	-0.569984	-0.342266
C62	C	0.736747	-0.069984	0.157734
C63	C	0.171311	-0.569951	-0.342295
C64	C	0.671311	-0.069951	0.157705
C65	C	0.171283	-0.436087	-0.262289
C66	C	0.671283	0.063913	0.237711
C67	C	0.236718	-0.436115	-0.262266
C68	C	0.736718	0.063885	0.237734
C69	C	0.269446	-0.503069	-0.302254
C70	C	0.769446	-0.003069	0.197746
C71	C	0.905476	-0.774602	-0.302189
C72	C	1.405476	-0.274602	0.197811
C73	C	0.905517	-0.890755	-0.302205
C74	C	1.405517	-0.390755	0.197795
C75	C	0.943595	-0.942439	-0.340339
C76	C	1.443595	-0.442439	0.159661
C77	C	0.943637	-1.062489	-0.340356
C78	C	1.443637	-0.562489	0.159644
C79	C	1.068939	-0.503037	-0.302274
C80	C	1.568939	-0.003037	0.197726
C81	C	1.138580	-0.503014	-0.302305
C82	C	1.638580	-0.003014	0.197695
C83	C	0.905568	-0.503071	-0.465624
C84	C	1.405568	-0.003071	0.034376
C85	C	0.905590	-0.503062	-0.535265
C86	C	1.405590	-0.003062	-0.035265
C87	C	0.905572	-0.230522	-0.302226
C88	C	1.405572	0.269478	0.197774
C89	C	0.905596	-0.114369	-0.302237
C90	C	1.405596	0.385631	0.197763
C91	C	0.945675	-0.436208	-0.568004
C92	C	1.445675	0.063792	-0.068004
C93	C	0.945674	-0.436163	-0.633439
C94	C	1.445674	0.063837	-0.133439
C95	C	0.905595	-0.502991	-0.666134
C96	C	1.405595	-0.002991	-0.166134
C97	C	0.865501	-0.569849	-0.633388
C98	C	1.365501	-0.069849	-0.133388
C99	C	0.865499	-0.569885	-0.567953
C100	C	1.365499	-0.069885	-0.067953
C101	C	0.900634	-0.597087	-0.769803
C102	C	1.400634	-0.097087	-0.269803
C103	C	0.900641	-0.597053	-0.835236
C104	C	1.400641	-0.097053	-0.335236
C105	C	0.905598	-0.502880	-0.867955
C106	C	1.405598	-0.002880	-0.367955
C107	C	0.910563	-0.408738	-0.835232
C108	C	1.410563	0.091262	-0.335232
C109	C	0.910560	-0.408774	-0.769798
C110	C	1.410560	0.091226	-0.269798
C111	C	0.905592	-0.502959	-0.737086
C112	C	1.405592	-0.002959	-0.237086
C113	C	0.945685	-0.435972	-0.971646
C114	C	1.445685	0.064028	-0.471646
C115	C	0.945680	-0.435925	-1.037082
C116	C	1.445680	0.064075	-0.537082
C117	C	0.865510	-0.569621	-1.037029
C118	C	1.365510	-0.069621	-0.537029
C119	C	0.865512	-0.569658	-0.971594
C120	C	1.365512	-0.069658	-0.471594
C121	C	0.905603	-0.502835	-0.938906
C122	C	1.405603	-0.002835	-0.438906
C123	C	0.905500	-0.503038	-0.139413
C124	C	1.405500	-0.003038	0.360587
C125	C	0.905599	-0.502752	-0.069772
C126	C	1.405599	-0.002752	0.430228
H127	H	0.263396	-0.624497	-0.374830
H128	H	0.763396	-0.124497	0.125170
O129	O	0.988910	-0.364128	-0.532749
O130	O	1.488910	0.135872	-0.032749
H131	H	1.020779	-0.410908	-0.502967
H132	H	1.520779	0.089092	-0.002967
H133	H	0.465297	-0.518341	-0.404588
H134	H	0.965297	-0.018341	0.095412
O135	O	0.675625	-0.364075	-0.218958
O136	O	1.175625	0.135925	0.281042
H137	H	0.663114	-0.282077	-0.229784
H138	H	1.163114	0.217923	0.270216
H139	H	0.872946	-0.935383	-0.269573
H140	H	1.372946	-0.435383	0.230427
O141	O	0.337961	-0.520498	-0.419557
O142	O	0.837961	-0.020498	0.080443
H143	H	0.286954	-0.519058	-0.410095
H144	H	0.786954	-0.019058	0.089905
O145	O	0.988911	-0.363805	-1.072398
O146	O	1.488911	0.136195	-0.572398
H147	H	1.020772	-0.410549	-1.102244
H148	H	1.520772	0.089451	-0.602244
H149	H	0.832874	-0.624104	-0.944938
H150	H	1.332874	-0.124104	-0.444938
O151	O	0.862414	-1.055512	-0.258981
O152	O	1.362414	-0.555512	0.241019
H153	H	0.813229	-1.076490	-0.269650
H154	H	1.313229	-0.576490	0.230350
O155	O	0.822261	-0.641999	-0.532641
O156	O	1.322261	-0.141999	-0.032641
H157	H	0.828992	-0.630793	-0.481649
H158	H	1.328992	-0.130793	0.018351
O159	O	0.988916	-0.364064	-0.668762
O160	O	1.488916	0.135936	-0.168762
H161	H	1.016796	-0.317610	-0.635039
H162	H	1.516796	0.182390	-0.135039
H163	H	0.896602	-0.673709	-0.861873
H164	H	1.396602	-0.173709	-0.361873
O165	O	0.986822	-1.121359	-0.383604
O166	O	1.486822	-0.621359	0.116396
H167	H	1.014684	-1.065088	-0.411521
H168	H	1.514684	-0.565088	0.088479
H169	H	0.976161	-0.897813	-0.372977
H170	H	1.476161	-0.397813	0.127023
O171	O	0.915911	-0.307246	-0.734502
O172	O	1.415911	0.192754	-0.234502
H173	H	0.919357	-0.241750	-0.768241
H174	H	1.419357	0.258250	-0.268241
H175	H	0.346375	-0.487893	-0.199820
H176	H	0.846375	0.012107	0.300180
O177	O	0.988922	-0.363902	-0.936382
O178	O	1.488922	0.136098	-0.436382
H179	H	0.960891	-0.310770	-0.906539
H180	H	1.460891	0.189230	-0.406539
O181	O	0.136085	-0.642271	-0.385403
O182	O	0.636085	-0.142271	0.114597
H183	H	0.148703	-0.624590	-0.434608
H184	H	0.648703	-0.124590	0.065392
O185	O	0.915894	-0.307151	-0.870510
O186	O	1.415894	0.192849	-0.370510
H187	H	0.915048	-0.322935	-0.921508
H188	H	1.415048	0.177065	-0.421508
O189	O	0.539611	-0.364040	-0.219012
O190	O	1.039611	0.135960	0.280988
H191	H	0.552206	-0.282049	-0.229839
H192	H	1.052206	0.217951	0.270161
O193	O	0.822278	-0.641702	-1.072282
O194	O	1.322278	-0.141702	-0.572282
H195	H	0.829016	-0.630450	-1.123283
H196	H	1.329016	-0.130450	-0.623283
O197	O	0.895282	-0.698663	-0.734513
O198	O	1.395282	-0.198663	-0.234513
H199	H	0.850698	-0.737658	-0.747046
H200	H	1.350698	-0.237658	-0.247046
O201	O	0.675690	-0.642314	-0.385255
O202	O	1.175690	-0.142314	0.114745
H203	H	0.641956	-0.688836	-0.413084
H204	H	1.141956	-0.188836	0.086916
O205	O	0.539674	-0.642313	-0.385274
O206	O	1.039674	-0.142313	0.114726
H207	H	0.573425	-0.688889	-0.413066
H208	H	1.073425	-0.188889	0.086934
O209	O	0.135986	-0.363898	-0.219149
O210	O	0.635986	0.136102	0.280851
H211	H	0.084992	-0.375132	-0.225881
H212	H	0.584992	0.124868	0.274119
O213	O	0.822272	-0.641927	-0.668649
O214	O	1.322272	-0.141927	-0.168649
H215	H	0.773102	-0.624015	-0.656058
H216	H	1.273102	-0.124015	-0.156058
H217	H	0.263341	-0.381626	-0.229685
H218	H	0.763341	0.118374	0.270315
O219	O	0.473719	-0.485719	-0.184858
O220	O	0.973719	0.014281	0.315142
H221	H	0.439935	-0.479894	-0.145621
H222	H	0.939935	0.020106	0.354379
