data_functionalizedCrystal
_audit_creation_method	'MofGen! by Chris Wilmer'
_symmetry_space_group_name_H-M	'P1'
_symmetry_Int_Tables_number	1
_symmetry_cell_setting	triclinic
loop_
_symmetry_equiv_pos_as_xyz
  x,y,z
_cell_length_a	17.038272
_cell_length_b	10.540514
_cell_length_c	9.616153
_cell_angle_alpha	89.992599
_cell_angle_beta	89.997688
_cell_angle_gamma	87.813358
loop_
_atom_site_label
_atom_site_type_symbol
_atom_site_fract_x
_atom_site_fract_y
_atom_site_fract_z
O1	O	0.110152	1.696186	-0.115665
O2	O	0.610152	2.196186	0.384335
O3	O	0.120560	1.327740	-0.115664
O4	O	0.620560	1.827740	0.384336
O5	O	0.001528	1.509773	-0.115654
O6	O	0.501528	2.009773	0.384346
O7	O	0.229184	1.514152	-0.115676
O8	O	0.729184	2.014152	0.384324
O9	O	0.001531	1.509746	0.115638
O10	O	0.501531	2.009746	0.615638
O11	O	0.120563	1.327713	0.115627
O12	O	0.620563	1.827713	0.615627
O13	O	0.110155	1.696159	0.115626
O14	O	0.610155	2.196159	0.615626
Zn15	Zn	0.115359	1.511932	0.152349
Zn16	Zn	0.615359	2.011932	0.652349
Zn17	Zn	0.115356	1.511967	-0.152387
Zn18	Zn	0.615356	2.011967	0.347613
O19	O	0.229186	1.514126	0.115616
O20	O	0.729186	2.014126	0.615616
C21	C	0.119785	1.280350	-0.000018
C22	C	0.619785	1.780350	0.499982
C23	C	0.117462	1.139184	-0.000018
C24	C	0.617462	1.639184	0.499982
C25	C	0.202593	1.076419	-0.000029
C26	C	0.702593	1.576419	0.499971
C27	C	0.200205	0.929584	-0.000560
C28	C	0.700205	1.429584	0.499440
C29	C	0.071163	0.942543	-0.131843
C30	C	0.571163	1.442543	0.368157
C31	C	0.074154	1.089361	-0.131947
C32	C	0.574154	1.589361	0.368053
C33	C	0.072897	1.089616	0.131084
C34	C	0.572897	1.589616	0.631084
C35	C	0.072076	0.942561	0.132810
C36	C	0.572076	1.442561	0.632810
C37	C	-0.027621	1.505776	-0.000008
C38	C	0.472379	2.005776	0.499992
C39	C	-0.114482	1.493892	-0.000008
C40	C	0.385518	1.993892	0.499992
C41	C	-0.163975	1.603003	-0.000007
C42	C	0.336025	2.103003	0.499993
C43	C	-0.245589	1.591829	-0.000020
C44	C	0.254411	2.091829	0.499980
C45	C	-0.277708	1.471543	-0.000025
C46	C	0.222292	1.971543	0.499975
C47	C	-0.228209	1.362424	-0.000030
C48	C	0.271791	1.862424	0.499970
C49	C	-0.146596	1.373599	-0.000027
C50	C	0.353404	1.873599	0.499973
C51	C	-0.523691	1.432063	-0.000044
C52	C	-0.023691	1.932063	0.499956
C53	C	-0.605310	1.420896	-0.000043
C54	C	-0.105310	1.920896	0.499957
C55	C	-0.622685	1.650302	-0.000036
C56	C	-0.122685	2.150302	0.499964
C57	C	-0.541070	1.661467	-0.000024
C58	C	-0.041070	2.161467	0.499976
C59	C	-0.491577	1.552348	-0.000037
C60	C	0.008423	2.052348	0.499963
C61	C	-0.361131	1.460118	-0.000034
C62	C	0.138869	1.960118	0.499966
C63	C	-0.408157	1.563773	-0.000038
C64	C	0.091843	2.063773	0.499962
C65	C	0.258336	1.518122	-0.000033
C66	C	0.758336	2.018122	0.499967
C67	C	0.345197	1.530007	-0.000042
C68	C	0.845197	2.030007	0.499958
C69	C	0.110930	1.743548	-0.000023
C70	C	0.610930	2.243548	0.499977
C71	C	0.113252	1.884715	-0.000032
C72	C	0.613252	2.384715	0.499968
N73	N	0.115361	1.511917	0.360324
N74	N	0.615361	2.011917	0.860324
N75	N	0.115348	1.511991	-0.360362
N76	N	0.615348	2.011991	0.139638
C77	C	0.178821	1.414206	0.580688
C78	C	0.678821	1.914206	1.080688
C79	C	0.179059	1.414457	0.419521
C80	C	0.679059	1.914457	0.919521
C81	C	0.133924	1.646374	0.418771
C82	C	0.633924	2.146374	0.918771
C83	C	0.134373	1.645851	0.579989
C84	C	0.634373	2.145851	1.079989
C85	C	0.033129	1.476475	0.580243
C86	C	0.533129	1.976475	1.080243
C87	C	0.033663	1.473478	0.419017
C88	C	0.533663	1.973478	0.919017
H89	H	0.104893	1.120464	-0.230860
H90	H	0.604893	1.620464	0.269140
H91	H	0.019592	1.374526	0.380818
H92	H	0.519592	1.874526	0.880818
H93	H	0.008696	0.912463	0.141168
H94	H	0.508696	1.412463	0.641168
H95	H	0.233310	0.889997	0.093905
H96	H	0.733310	1.389997	0.593905
H97	H	0.240058	1.438046	0.380935
H98	H	0.740058	1.938046	0.880935
F99	F	0.247071	1.120087	-0.123404
F100	F	0.747071	1.620087	0.376596
F101	F	0.243286	0.879064	-0.124799
F102	F	0.743286	1.379064	0.375201
H103	H	-0.285884	1.680679	-0.000016
H104	H	0.214116	2.180679	0.499984
H105	H	-0.514925	1.759416	-0.000020
H106	H	-0.014925	2.259416	0.499980
H107	H	0.193230	1.676804	0.378375
H108	H	0.693230	2.176804	0.878375
F109	F	-0.675364	1.766426	-0.000024
F110	F	-0.175364	2.266426	0.499976
F111	F	-0.031042	1.559635	0.366369
F112	F	0.468958	2.059635	0.866369
F113	F	0.075146	1.744226	0.368654
F114	F	0.575146	2.244226	0.868654
H115	H	0.090004	1.721356	0.618981
H116	H	0.590004	2.221356	1.118981
H117	H	-0.014114	1.547681	0.618364
H118	H	0.485886	2.047681	1.118364
H119	H	0.015461	1.380088	0.620983
H120	H	0.515461	1.880088	1.120983
H121	H	0.011620	1.131535	-0.137569
H122	H	0.511620	1.631535	0.362431
F123	F	0.247905	1.118562	0.123020
F124	F	0.747905	1.618562	0.623020
H125	H	0.007299	0.914272	-0.136366
H126	H	0.507299	1.414272	0.363634
H127	H	0.194357	1.675801	0.617571
H128	H	0.694357	2.175801	1.117571
H129	H	0.101236	1.123742	0.231024
H130	H	0.601236	1.623742	0.731024
F131	F	0.108923	0.890491	-0.260558
F132	F	0.608923	1.390491	0.239442
H133	H	0.010105	1.131015	0.132363
H134	H	0.510105	1.631015	0.632363
F135	F	0.112278	0.892713	0.260273
F136	F	0.612278	1.392713	0.760273
H137	H	-0.387292	1.362181	-0.000034
H138	H	0.112708	1.862181	0.499966
H139	H	0.167891	1.314797	0.380007
H140	H	0.667891	1.814797	0.880007
F141	F	0.258103	1.444705	0.633591
F142	F	0.758103	1.944705	1.133591
F143	F	-0.639491	1.292865	-0.000040
F144	F	-0.139491	1.792865	0.499960
F145	F	-0.129800	1.731029	0.000011
F146	F	0.370200	2.231029	0.500011
F147	F	-0.471027	1.315927	-0.000061
F148	F	0.028973	1.815927	0.499939
H149	H	-0.254366	1.264484	-0.000042
H150	H	0.245634	1.764484	0.499958
H151	H	-0.382002	1.661710	-0.000065
H152	H	0.117998	2.161710	0.499935
F153	F	0.164440	1.283553	0.631391
F154	F	0.664440	1.783553	1.131391
F155	F	-0.093921	1.257468	-0.000032
F156	F	0.406079	1.757468	0.499968
