data_functionalizedCrystal
_audit_creation_method	'MofGen! by Chris Wilmer'
_symmetry_space_group_name_H-M	'P1'
_symmetry_Int_Tables_number	1
_symmetry_cell_setting	triclinic
loop_
_symmetry_equiv_pos_as_xyz
  x,y,z
_cell_length_a	19.188930
_cell_length_b	19.188930
_cell_length_c	18.266242
_cell_angle_alpha	90.011475
_cell_angle_beta	89.977082
_cell_angle_gamma	96.855221
loop_
_atom_site_label
_atom_site_type_symbol
_atom_site_fract_x
_atom_site_fract_y
_atom_site_fract_z
O1	O	0.926149	-0.087169	-0.061124
O2	O	0.722838	-0.098903	-0.061075
O3	O	0.830361	0.008620	-0.061087
O4	O	0.818627	-0.194691	-0.061113
O5	O	0.830343	0.008625	0.060675
O6	O	0.722820	-0.098897	0.060687
O7	O	0.926131	-0.087163	0.060638
Zn8	Zn	0.824473	-0.093029	0.079994
Zn9	Zn	0.824497	-0.093037	-0.080432
O10	O	0.818608	-0.194686	0.060649
C11	C	0.696818	-0.098520	-0.000188
C12	C	0.619313	-0.097380	-0.000169
C13	C	0.574389	-0.160470	-0.000188
C14	C	0.501566	-0.159399	-0.000196
C15	C	0.473669	-0.095233	-0.000199
C16	C	0.518603	-0.032133	-0.000175
C17	C	0.591425	-0.033207	-0.000160
N18	N	0.365695	-0.046188	-0.041663
N19	N	0.296516	-0.045172	-0.041679
C20	C	0.254260	-0.091994	-0.000243
N21	N	0.283795	-0.139881	0.041200
N22	N	0.352980	-0.140899	0.041213
C23	C	0.394707	-0.094062	-0.000215
C24	C	0.130372	-0.153928	-0.000270
C25	C	0.057547	-0.152853	-0.000274
C26	C	0.074586	-0.025586	-0.000261
C27	C	0.147409	-0.026662	-0.000250
C28	C	0.175298	-0.090835	-0.000258
C29	C	0.829972	0.034634	-0.000204
C30	C	0.828831	0.112138	-0.000197
C31	C	0.952151	-0.087546	-0.000252
C32	C	1.029656	-0.088687	-0.000276
C33	C	0.818997	-0.220700	-0.000236
C34	C	0.820138	-0.298204	-0.000247
N35	N	0.824461	-0.093024	0.189481
C36	C	0.891922	0.157062	-0.000209
C37	C	0.890850	0.229886	-0.000220
C38	C	0.826684	0.257782	-0.000206
C39	C	0.763585	0.212849	-0.000198
C40	C	0.764658	0.140026	-0.000194
N41	N	0.777631	0.365789	0.041244
N42	N	0.776615	0.434968	0.041242
C43	C	0.823446	0.477191	-0.000220
N44	N	0.871341	0.447624	-0.041669
N45	N	0.872359	0.378439	-0.041664
C46	C	0.825513	0.336745	-0.000210
C47	C	0.885379	0.601079	-0.000245
C48	C	0.884305	0.673904	-0.000261
C49	C	0.757038	0.656865	-0.000231
C50	C	0.758114	0.584042	-0.000222
C51	C	0.822287	0.556154	-0.000226
N52	N	0.824513	-0.093037	-0.189919
C53	C	0.872088	-0.045436	0.227785
C54	C	0.872092	-0.045433	0.304430
C55	C	0.824477	-0.093030	0.342768
C56	C	0.776841	-0.140621	0.304455
C57	C	0.776834	-0.140618	0.227812
N58	N	0.815401	-0.154837	0.463094
N59	N	0.815413	-0.154838	0.535902
C60	C	0.824496	-0.093040	0.573691
N61	N	0.833582	-0.031239	0.535920
N62	N	0.833574	-0.031240	0.463106
C63	C	0.824480	-0.093038	0.425875
C64	C	0.872131	-0.045444	0.695101
C65	C	0.872130	-0.045440	0.771748
C66	C	0.776882	-0.140634	0.771772
C67	C	0.776879	-0.140632	0.695127
C68	C	0.824507	-0.093038	0.656796
H69	H	0.153080	-0.206181	-0.000267
H70	H	0.020970	-0.204232	-0.000285
H71	H	0.597091	-0.212725	-0.000196
H72	H	0.495885	0.020111	-0.000188
H73	H	0.704792	0.679578	-0.000222
C74	C	0.688711	0.534622	-0.000197
C75	C	0.636074	0.537592	-0.063410
C76	C	0.566667	0.488173	-0.063386
C77	C	0.549897	0.435782	-0.000150
C78	C	0.602536	0.432810	0.063068
C79	C	0.671942	0.482230	0.063044
H80	H	0.648487	0.576377	-0.110225
H81	H	0.527701	0.490373	-0.110184
H82	H	0.498518	0.399199	-0.000132
H83	H	0.590123	0.394025	0.109884
H84	H	0.710909	0.480029	0.109842
C85	C	0.924470	0.006921	0.185620
C86	C	0.976858	0.059273	0.227756
C87	C	1.029238	0.111632	0.185587
C88	C	1.029230	0.111637	0.101282
C89	C	0.976839	0.059283	0.059141
C90	C	0.924459	0.006925	0.101310
H91	H	0.976866	0.059271	0.290167
H92	H	1.068021	0.150388	0.216783
H93	H	1.068004	0.150396	0.070066
H94	H	0.976831	0.059286	-0.003270
H95	H	0.885677	-0.031831	0.070114
H96	H	0.713281	0.103448	-0.000184
H97	H	0.628003	0.018171	-0.000145
H98	H	0.935683	0.710481	-0.000274
H99	H	0.051874	0.026659	-0.000309
H100	H	0.183988	0.024713	-0.000238
C101	C	0.452137	-0.228802	-0.000226
C102	C	0.482813	-0.299388	-0.000238
C103	C	0.433387	-0.368791	-0.000271
C104	C	0.353286	-0.367609	-0.000293
C105	C	0.322606	-0.297020	-0.000281
C106	C	0.372032	-0.227617	-0.000248
H107	H	0.542112	-0.300266	-0.000222
H108	H	0.456099	-0.421045	-0.000280
H109	H	0.316698	-0.418985	-0.000318
H110	H	0.263307	-0.296142	-0.000297
H111	H	0.349320	-0.175363	-0.000239
C112	C	0.724503	-0.192991	0.813936
C113	C	0.724555	-0.193040	0.898240
C114	C	0.672172	-0.245396	0.940409
C115	C	0.619737	-0.297701	0.898273
C116	C	0.619683	-0.297654	0.813963
C117	C	0.672066	-0.245298	0.771795
H118	H	0.763372	-0.154319	0.929436
H119	H	0.672213	-0.245430	1.002821
H120	H	0.580960	-0.336458	0.929489
H121	H	0.580866	-0.336375	0.782768
H122	H	0.672026	-0.245263	0.709383
H123	H	0.937632	0.578372	-0.000251
C124	C	0.960254	0.279314	-0.000226
C125	C	1.030840	0.248638	-0.000228
C126	C	1.100243	0.298064	-0.000231
C127	C	1.099060	0.378165	-0.000232
C128	C	1.028472	0.408845	-0.000229
C129	C	0.959068	0.359420	-0.000227
H130	H	1.031717	0.189339	-0.000228
H131	H	1.152497	0.275353	-0.000233
H132	H	1.150436	0.414753	-0.000234
H133	H	1.027594	0.468145	-0.000230
H134	H	0.906814	0.382131	-0.000225
H135	H	0.944176	0.134360	-0.000214
C136	C	0.693001	0.243531	-0.000182
C137	C	0.691817	0.323632	-0.000184
C138	C	0.621230	0.354313	-0.000173
C139	C	0.551828	0.304894	-0.000161
C140	C	0.553010	0.224788	-0.000160
C141	C	0.623596	0.194106	-0.000171
H142	H	0.743195	0.360220	-0.000192
H143	H	0.620356	0.413613	-0.000174
H144	H	0.499575	0.327606	-0.000154
H145	H	0.501631	0.188200	-0.000151
H146	H	0.624470	0.134806	-0.000170
C147	C	0.724464	-0.192979	0.346623
C148	C	0.724503	-0.193020	0.430928
C149	C	0.672121	-0.245378	0.473094
C150	C	0.619700	-0.297696	0.430956
C151	C	0.619659	-0.297657	0.346647
C152	C	0.672041	-0.245299	0.304480
H153	H	0.763310	-0.154289	0.462125
H154	H	0.672152	-0.245405	0.535506
H155	H	0.580924	-0.336454	0.462170
H156	H	0.580853	-0.336388	0.315449
H157	H	0.672011	-0.245272	0.242068
C158	C	0.924513	0.006914	0.652934
C159	C	0.976895	0.059269	0.695074
C160	C	1.029278	0.111628	0.652910
C161	C	1.029278	0.111632	0.568605
C162	C	0.976894	0.059275	0.526460
C163	C	0.924511	0.006916	0.568624
H164	H	0.976897	0.059268	0.757486
H165	H	1.068056	0.150386	0.684109
H166	H	1.068055	0.150392	0.537392
H167	H	0.976893	0.059276	0.464048
H168	H	0.885733	-0.031842	0.537425
H169	H	0.910877	-0.006680	0.335623
H170	H	0.738049	-0.179371	0.196624
H171	H	0.910911	-0.006685	0.802935
H172	H	0.738100	-0.179386	0.663938
