data_functionalizedCrystal
_audit_creation_method	'MofGen! by Chris Wilmer'
_symmetry_space_group_name_H-M	'P1'
_symmetry_Int_Tables_number	1
_symmetry_cell_setting	triclinic
loop_
_symmetry_equiv_pos_as_xyz
  x,y,z
_cell_length_a	18.050589
_cell_length_b	18.101398
_cell_length_c	18.101389
_cell_angle_alpha	89.973091
_cell_angle_beta	90.019529
_cell_angle_gamma	89.987495
loop_
_atom_site_label
_atom_site_type_symbol
_atom_site_fract_x
_atom_site_fract_y
_atom_site_fract_z
Zn1	Zn	-0.295896	-1.132175	0.418884
Zn2	Zn	-0.045896	-0.882175	0.668884
Zn3	Zn	0.204104	-0.632175	0.918884
Zn4	Zn	0.454104	-0.382175	1.168884
Zn5	Zn	-0.420071	-1.132094	0.295040
Zn6	Zn	-0.170071	-0.882094	0.545040
Zn7	Zn	0.079929	-0.632094	0.795040
Zn8	Zn	0.329929	-0.382094	1.045040
Zn9	Zn	-0.295882	-1.008334	0.295040
Zn10	Zn	-0.045882	-0.758334	0.545040
Zn11	Zn	0.204118	-0.508334	0.795040
Zn12	Zn	0.454118	-0.258334	1.045040
Zn13	Zn	-0.420032	-1.008308	0.418823
Zn14	Zn	-0.170032	-0.758308	0.668823
Zn15	Zn	0.079968	-0.508308	0.918823
Zn16	Zn	0.329968	-0.258308	1.168823
O17	O	-0.357970	-1.070228	0.356947
O18	O	-0.107970	-0.820228	0.606947
O19	O	0.142030	-0.570228	0.856947
O20	O	0.392030	-0.320228	1.106947
O21	O	-0.312391	-1.235798	0.402482
O22	O	-0.062391	-0.985798	0.652482
O23	O	0.187609	-0.735798	0.902482
O24	O	0.437609	-0.485798	1.152482
O25	O	-0.403607	-1.115654	0.191407
O26	O	-0.153607	-0.865654	0.441407
O27	O	0.096393	-0.615654	0.691407
O28	O	0.346393	-0.365654	0.941407
O29	O	-0.191959	-1.024807	0.311493
O30	O	0.058041	-0.774807	0.561493
O31	O	0.308041	-0.524807	0.811493
O32	O	0.558041	-0.274807	1.061493
O33	O	-0.403621	-1.235738	0.311494
O34	O	-0.153621	-0.985738	0.561494
O35	O	0.096379	-0.735738	0.811494
O36	O	0.346379	-0.485738	1.061494
O37	O	-0.191970	-1.115793	0.402481
O38	O	0.058030	-0.865793	0.652481
O39	O	0.308030	-0.615793	0.902481
O40	O	0.558030	-0.365793	1.152481
O41	O	-0.312366	-1.024728	0.191407
O42	O	-0.062366	-0.774728	0.441407
O43	O	0.187634	-0.524728	0.691407
O44	O	0.437634	-0.274728	0.941407
O45	O	-0.312328	-0.904698	0.311434
O46	O	-0.062328	-0.654698	0.561434
O47	O	0.187672	-0.404698	0.811434
O48	O	0.437672	-0.154698	1.061434
O49	O	-0.403555	-1.024762	0.522464
O50	O	-0.153555	-0.774762	0.772464
O51	O	0.096445	-0.524762	1.022464
O52	O	0.346445	-0.274762	1.272464
O53	O	-0.403540	-0.904679	0.402377
O54	O	-0.153540	-0.654679	0.652377
O55	O	0.096460	-0.404679	0.902377
O56	O	0.346460	-0.154679	1.152377
O57	O	-0.312353	-1.115767	0.522509
O58	O	-0.062353	-0.865767	0.772509
O59	O	0.187647	-0.615767	1.022509
O60	O	0.437647	-0.365767	1.272509
O61	O	-0.523990	-1.115629	0.311435
O62	O	-0.273990	-0.865629	0.561435
O63	O	-0.023990	-0.615629	0.811435
O64	O	0.226010	-0.365629	1.061435
O65	O	-0.523961	-1.024683	0.402378
O66	O	-0.273961	-0.774683	0.652378
O67	O	-0.023961	-0.524683	0.902378
O68	O	0.226039	-0.274683	1.152378
C69	C	-0.357929	-0.877817	0.356899
C70	C	-0.107929	-0.627817	0.606899
C71	C	0.142071	-0.377817	0.856899
C72	C	0.392071	-0.127817	1.106899
C73	C	-0.357929	-0.795503	0.356897
C74	C	-0.107929	-0.545503	0.606897
C75	C	0.142071	-0.295503	0.856897
C76	C	0.392071	-0.045503	1.106897
C77	C	-0.550922	-1.070164	0.356916
C78	C	-0.300922	-0.820164	0.606916
C79	C	-0.050922	-0.570164	0.856916
C80	C	0.199078	-0.320164	1.106916
C81	C	-0.633468	-1.070205	0.356927
C82	C	-0.383468	-0.820205	0.606927
C83	C	-0.133468	-0.570205	0.856927
C84	C	0.116532	-0.320205	1.106927
C85	C	-0.357951	-1.070271	0.550109
C86	C	-0.107951	-0.820271	0.800109
C87	C	0.142049	-0.570271	1.050109
C88	C	0.392049	-0.320271	1.300109
C89	C	-0.357943	-1.070289	0.632423
C90	C	-0.107943	-0.820289	0.882423
C91	C	0.142057	-0.570289	1.132423
C92	C	0.392057	-0.320289	1.382423
C93	C	-0.882282	-1.119790	0.307555
C94	C	-0.632282	-0.869790	0.557555
C95	C	-0.382282	-0.619790	0.807555
C96	C	-0.132282	-0.369790	1.057555
C97	C	-0.832939	-1.052221	0.289356
C98	C	-0.582939	-0.802221	0.539356
C99	C	-0.332939	-0.552221	0.789356
C100	C	-0.082939	-0.302221	1.039356
C101	C	-0.930588	-1.070298	0.356984
C102	C	-0.680588	-0.820298	0.606984
C103	C	-0.430588	-0.570298	0.856984
C104	C	-0.180588	-0.320298	1.106984
C105	C	-0.832850	-1.137817	0.375120
C106	C	-0.582850	-0.887817	0.625120
C107	C	-0.332850	-0.637817	0.875120
C108	C	-0.082850	-0.387817	1.125120
C109	C	-0.784603	-1.070256	0.356955
C110	C	-0.534603	-0.820256	0.606955
C111	C	-0.284603	-0.570256	0.856955
C112	C	-0.034603	-0.320256	1.106955
C113	C	-0.882332	-1.002694	0.338751
C114	C	-0.632332	-0.752694	0.588751
C115	C	-0.382332	-0.502694	0.838751
C116	C	-0.132332	-0.252694	1.088751
C117	C	-0.882248	-1.088335	0.424547
C118	C	-0.632248	-0.838335	0.674547
C119	C	-0.382248	-0.588335	0.924547
C120	C	-0.132248	-0.338335	1.174547
C121	C	-0.832927	-1.020720	0.406373
C122	C	-0.582927	-0.770720	0.656373
C123	C	-0.332927	-0.520720	0.906373
C124	C	-0.082927	-0.270720	1.156373
C125	C	-1.014687	-1.070323	0.357000
C126	C	-0.764687	-0.820323	0.607000
C127	C	-0.514687	-0.570323	0.857000
C128	C	-0.264687	-0.320323	1.107000
C129	C	-0.700507	-1.070223	0.356939
C130	C	-0.450507	-0.820223	0.606939
C131	C	-0.200507	-0.570223	0.856939
C132	C	0.049493	-0.320223	1.106939
C133	C	-0.164264	-1.070312	0.356994
C134	C	0.085736	-0.820312	0.606994
C135	C	0.335736	-0.570312	0.856994
C136	C	0.585736	-0.320312	1.106994
C137	C	-0.081719	-1.070348	0.357014
C138	C	0.168281	-0.820348	0.607014
C139	C	0.418281	-0.570348	0.857014
C140	C	0.668281	-0.320348	1.107014
C141	C	-0.357958	-0.496412	0.356945
C142	C	-0.107958	-0.246412	0.606945
C143	C	0.142042	0.003588	0.856945
C144	C	0.392042	0.253588	1.106945
C145	C	-0.300285	-0.527725	0.300007
C146	C	-0.050285	-0.277725	0.550007
C147	C	0.199715	-0.027725	0.800007
C148	C	0.449715	0.222275	1.050007
C149	C	-0.300444	-0.613343	0.299768
C150	C	-0.050444	-0.363343	0.549768
C151	C	0.199556	-0.113343	0.799768
C152	C	0.449556	0.136657	1.049768
C153	C	-0.357943	-0.644795	0.356921
C154	C	-0.107943	-0.394795	0.606921
C155	C	0.142057	-0.144795	0.856921
C156	C	0.392057	0.105205	1.106921
C157	C	-0.436169	-0.613691	0.335594
C158	C	-0.186169	-0.363691	0.585594
C159	C	0.063831	-0.113691	0.835594
C160	C	0.313831	0.136309	1.085594
C161	C	-0.435843	-0.528046	0.335194
C162	C	-0.185843	-0.278046	0.585194
C163	C	0.064157	-0.028046	0.835194
C164	C	0.314157	0.221954	1.085194
C165	C	-0.338088	-0.528023	0.435347
C166	C	-0.088088	-0.278023	0.685347
C167	C	0.161912	-0.028023	0.935347
C168	C	0.411912	0.221977	1.185347
C169	C	-0.336351	-0.613674	0.434923
C170	C	-0.086351	-0.363674	0.684923
C171	C	0.163649	-0.113674	0.934923
C172	C	0.413649	0.136326	1.184923
C173	C	-0.357939	-0.728654	0.356909
C174	C	-0.107939	-0.478654	0.606909
C175	C	0.142061	-0.228654	0.856909
C176	C	0.392061	0.021346	1.106909
C177	C	-0.357967	-0.412553	0.356956
C178	C	-0.107967	-0.162553	0.606956
C179	C	0.142033	0.087447	0.856956
C180	C	0.392033	0.337447	1.106956
C181	C	-0.357997	-0.263390	0.356983
C182	C	-0.107997	-0.013390	0.606983
C183	C	0.142003	0.236610	0.856983
C184	C	0.392003	0.486610	1.106983
C185	C	-0.357972	-0.345704	0.356970
C186	C	-0.107972	-0.095704	0.606970
C187	C	0.142028	0.154296	0.856970
C188	C	0.392028	0.404296	1.106970
C189	C	-0.357935	-1.070228	0.164536
C190	C	-0.107935	-0.820228	0.414536
C191	C	0.142065	-0.570228	0.664536
C192	C	0.392065	-0.320228	0.914536
C193	C	-0.357734	-1.070353	0.082223
C194	C	-0.107734	-0.820353	0.332223
C195	C	0.142266	-0.570353	0.582223
C196	C	0.392266	-0.320353	0.832223
C197	C	-0.357804	-1.070332	0.931514
C198	C	-0.107804	-0.820332	1.181514
C199	C	0.142196	-0.570332	1.431514
C200	C	0.392196	-0.320332	1.681514
C201	C	-0.415003	-1.012877	0.900161
C202	C	-0.165003	-0.762877	1.150161
C203	C	0.084997	-0.512877	1.400161
C204	C	0.334997	-0.262877	1.650161
C205	C	-0.415269	-1.013032	0.814542
C206	C	-0.165269	-0.763032	1.064542
C207	C	0.084731	-0.513032	1.314542
C208	C	0.334731	-0.263032	1.564542
C209	C	-0.357873	-1.070310	0.783131
C210	C	-0.107873	-0.820310	1.033131
C211	C	0.142127	-0.570310	1.283131
C212	C	0.392127	-0.320310	1.533131
C213	C	-0.379128	-1.148339	0.814240
C214	C	-0.129128	-0.898339	1.064240
C215	C	0.120872	-0.648339	1.314240
C216	C	0.370872	-0.398339	1.564240
C217	C	-0.379503	-1.148019	0.899885
C218	C	-0.129503	-0.898019	1.149885
C219	C	0.120497	-0.648019	1.399885
C220	C	0.370497	-0.398019	1.649885
C221	C	-0.279223	-1.050436	0.899939
C222	C	-0.029223	-0.800436	1.149939
C223	C	0.220777	-0.550436	1.399939
C224	C	0.470777	-0.300436	1.649939
C225	C	-0.279677	-1.048700	0.814288
C226	C	-0.029677	-0.798700	1.064288
C227	C	0.220323	-0.548700	1.314288
C228	C	0.470323	-0.298700	1.564288
C229	C	-0.357911	-1.070302	0.699272
C230	C	-0.107911	-0.820302	0.949272
C231	C	0.142089	-0.570302	1.199272
C232	C	0.392089	-0.320302	1.449272
C233	C	-0.357768	-1.070345	1.015374
C234	C	-0.107768	-0.820345	1.265374
C235	C	0.142232	-0.570345	1.515374
C236	C	0.392232	-0.320345	1.765374
H237	H	-0.903953	-1.161609	0.265734
H238	H	-0.653953	-0.911609	0.515734
H239	H	-0.403953	-0.661609	0.765734
H240	H	-0.153953	-0.411609	1.015734
Br241	Br	-0.240411	-0.647576	0.461738
Br242	Br	0.009589	-0.397576	0.711738
Br243	Br	0.259589	-0.147576	0.961738
Br244	Br	0.509589	0.102424	1.211738
Br245	Br	-0.244664	-0.492055	0.467662
Br246	Br	0.005336	-0.242055	0.717662
Br247	Br	0.255336	0.007945	0.967662
Br248	Br	0.505336	0.257945	1.217662
H249	H	-0.242097	-0.507144	0.313227
H250	H	0.007903	-0.257144	0.563227
H251	H	0.257903	-0.007144	0.813227
H252	H	0.507903	0.242856	1.063227
H253	H	-0.903975	-0.945560	0.323335
H254	H	-0.653975	-0.695560	0.573335
H255	H	-0.403975	-0.445560	0.823335
H256	H	-0.153975	-0.195560	1.073335
H257	H	-0.903925	-1.103634	0.481679
H258	H	-0.653925	-0.853634	0.731679
H259	H	-0.403925	-0.603634	0.981679
H260	H	-0.153925	-0.353634	1.231679
H261	H	-0.436947	-1.164884	0.919868
H262	H	-0.186947	-0.914884	1.169868
H263	H	0.063053	-0.664884	1.419868
H264	H	0.313053	-0.414884	1.669868
Br265	Br	-0.796830	-1.026756	0.194107
Br266	Br	-0.546830	-0.776756	0.444107
Br267	Br	-0.296830	-0.526756	0.694107
Br268	Br	-0.046830	-0.276756	0.944107
Br269	Br	-0.797034	-0.950855	0.476028
Br270	Br	-0.547034	-0.700855	0.726028
Br271	Br	-0.297034	-0.450855	0.976028
Br272	Br	-0.047034	-0.200855	1.226028
H273	H	-0.375299	-0.635086	0.479622
H274	H	-0.125299	-0.385086	0.729622
H275	H	0.124701	-0.135086	0.979622
H276	H	0.374701	0.114914	1.229622
H277	H	-0.811115	-1.194934	0.390471
H278	H	-0.561115	-0.944934	0.640471
H279	H	-0.311115	-0.694934	0.890471
H280	H	-0.061115	-0.444934	1.140471
Br281	Br	-0.203760	-0.648399	0.322049
Br282	Br	0.046240	-0.398399	0.572049
Br283	Br	0.296240	-0.148399	0.822049
Br284	Br	0.546240	0.101601	1.072049
H285	H	-0.313271	-0.506178	0.242251
H286	H	-0.063271	-0.256178	0.492251
H287	H	0.186729	-0.006178	0.742251
H288	H	0.436729	0.243822	0.992251
H289	H	-0.313581	-0.633799	0.241675
H290	H	-0.063581	-0.383799	0.491675
H291	H	0.186419	-0.133799	0.741675
H292	H	0.436419	0.116201	0.991675
Br293	Br	-0.463932	-0.494692	0.239666
Br294	Br	-0.213932	-0.244692	0.489666
Br295	Br	0.036068	0.005308	0.739666
Br296	Br	0.286068	0.255308	0.989666
Br297	Br	-0.252964	-0.952986	0.780410
Br298	Br	-0.002964	-0.702986	1.030410
Br299	Br	0.247036	-0.452986	1.280410
Br300	Br	0.497036	-0.202986	1.530410
H301	H	-0.480269	-0.507332	0.374857
H302	H	-0.230269	-0.257332	0.624857
H303	H	0.019731	-0.007332	0.874857
H304	H	0.269731	0.242668	1.124857
Br305	Br	-0.509715	-0.647632	0.402561
Br306	Br	-0.259715	-0.397632	0.652561
Br307	Br	-0.009715	-0.147632	0.902561
Br308	Br	0.240285	0.102368	1.152561
Br309	Br	-0.246951	-0.957247	0.935910
Br310	Br	0.003049	-0.707247	1.185910
Br311	Br	0.253049	-0.457247	1.435910
Br312	Br	0.503049	-0.207247	1.685910
H313	H	-0.453317	-0.635109	0.278900
H314	H	-0.203317	-0.385109	0.528900
H315	H	0.046683	-0.135109	0.778900
H316	H	0.296683	0.114891	1.028900
H317	H	-0.380095	-0.507774	0.477771
H318	H	-0.130095	-0.257774	0.727771
H319	H	0.119905	-0.007774	0.977771
H320	H	0.369905	0.242226	1.227771
H321	H	-0.401967	-0.955171	0.793507
H322	H	-0.151967	-0.705171	1.043507
H323	H	0.098033	-0.455171	1.293507
H324	H	0.348033	-0.205171	1.543507
H325	H	-0.401837	-0.954842	0.920744
H326	H	-0.151837	-0.704842	1.170744
H327	H	0.098163	-0.454842	1.420744
H328	H	0.348163	-0.204842	1.670744
Br329	Br	-0.511481	-1.034503	0.936098
Br330	Br	-0.261481	-0.784503	1.186098
Br331	Br	-0.011481	-0.534503	1.436098
Br332	Br	0.238519	-0.284503	1.686098
Br333	Br	-0.204872	-1.113365	0.778663
Br334	Br	0.045128	-0.863365	1.028663
Br335	Br	0.295128	-0.613365	1.278663
Br336	Br	0.545128	-0.363365	1.528663
Br337	Br	-0.512340	-1.034971	0.780396
Br338	Br	-0.262340	-0.784971	1.030396
Br339	Br	-0.012340	-0.534971	1.280396
Br340	Br	0.237660	-0.284971	1.530396
Br341	Br	-0.313034	-1.221743	0.934463
Br342	Br	-0.063034	-0.971743	1.184463
Br343	Br	0.186966	-0.721743	1.434463
Br344	Br	0.436966	-0.471743	1.684463
H345	H	-0.338776	-1.192298	0.793897
H346	H	-0.088776	-0.942298	1.043897
H347	H	0.161224	-0.692298	1.293897
H348	H	0.411224	-0.442298	1.543897
Br349	Br	-0.208193	-1.120185	0.933734
Br350	Br	0.041807	-0.870185	1.183734
Br351	Br	0.291807	-0.620185	1.433734
Br352	Br	0.541807	-0.370185	1.683734
Br353	Br	-0.473854	-1.176939	0.778503
Br354	Br	-0.223854	-0.926939	1.028503
Br355	Br	0.026146	-0.676939	1.278503
Br356	Br	0.276146	-0.426939	1.528503
