data_functionalizedCrystal
_audit_creation_method	'MofGen! by Chris Wilmer'
_symmetry_space_group_name_H-M	'P1'
_symmetry_Int_Tables_number	1
_symmetry_cell_setting	triclinic
loop_
_symmetry_equiv_pos_as_xyz
  x,y,z
_cell_length_a	19.188930
_cell_length_b	10.268362
_cell_length_c	11.792241
_cell_angle_alpha	90.005428
_cell_angle_beta	96.330902
_cell_angle_gamma	89.981535
loop_
_atom_site_label
_atom_site_type_symbol
_atom_site_fract_x
_atom_site_fract_y
_atom_site_fract_z
O1	O	0.926947	-0.108720	-0.141694
O2	O	1.260281	0.224614	0.191639
O3	O	1.593614	0.557947	0.524972
O4	O	0.723744	-0.108631	-0.160769
O5	O	1.057077	0.224703	0.172564
O6	O	1.390411	0.558036	0.505898
O7	O	0.830277	-0.108668	0.014013
O8	O	1.163610	0.224665	0.347346
O9	O	1.496944	0.557998	0.680679
O10	O	0.820415	-0.108682	-0.316476
O11	O	1.153748	0.224651	0.016857
O12	O	1.487081	0.557985	0.350191
O13	O	0.830268	0.107932	0.014020
O14	O	1.163601	0.441266	0.347353
O15	O	1.496934	0.774599	0.680686
O16	O	0.723735	0.107970	-0.160762
O17	O	1.057068	0.441303	0.172572
O18	O	1.390401	0.774637	0.505905
O19	O	0.926938	0.107881	-0.141687
O20	O	1.260271	0.441214	0.191646
O21	O	1.593605	0.774548	0.524979
Cu22	Cu	0.825336	0.127703	-0.151224
Cu23	Cu	1.158669	0.461036	0.182109
Cu24	Cu	1.492002	0.794369	0.515443
Cu25	Cu	0.825347	-0.128453	-0.151232
Cu26	Cu	1.158680	0.204881	0.182101
Cu27	Cu	1.492013	0.538214	0.515434
O28	O	0.820405	0.107919	-0.316469
O29	O	1.153739	0.441252	0.016864
O30	O	1.487072	0.774585	0.350198
C31	C	0.697725	-0.000319	-0.160148
C32	C	1.031058	0.333015	0.173186
C33	C	1.364392	0.666348	0.506519
C34	C	0.620210	-0.000285	-0.158293
C35	C	0.953543	0.333049	0.175040
C36	C	1.286877	0.666382	0.508373
N37	N	0.825333	0.307869	-0.151217
N38	N	1.158666	0.641202	0.182116
N39	N	1.492000	0.974535	0.515449
N40	N	0.825355	-0.308618	-0.151230
N41	N	1.158688	0.024715	0.182103
N42	N	1.492021	0.358048	0.515437
C43	C	0.575867	-0.000309	-0.260849
C44	C	0.909200	0.333024	0.072484
C45	C	1.242534	0.666357	0.405817
C46	C	0.503033	-0.000324	-0.259107
C47	C	0.836367	0.333010	0.074226
C48	C	1.169700	0.666343	0.407559
C49	C	0.474546	-0.000339	-0.154803
C50	C	0.807879	0.332994	0.178530
C51	C	1.141213	0.666328	0.511863
C52	C	0.518899	-0.000307	-0.052234
C53	C	0.852232	0.333026	0.281099
C54	C	1.185565	0.666360	0.614433
C55	C	0.591731	-0.000280	-0.053979
C56	C	0.925064	0.333054	0.279354
C57	C	1.258397	0.666387	0.612688
N58	N	0.366117	-0.074107	-0.075079
N59	N	0.699451	0.259226	0.258255
N60	N	1.032784	0.592560	0.591588
N61	N	0.296929	-0.074136	-0.073428
N62	N	0.630263	0.259198	0.259905
N63	N	0.963596	0.592531	0.593239
C64	C	0.255107	-0.000419	-0.149540
C65	C	0.588441	0.332915	0.183794
C66	C	0.921774	0.666248	0.517127
N67	N	0.285086	0.073312	-0.227382
N68	N	0.618419	0.406645	0.105951
N69	N	0.951753	0.739979	0.439285
N70	N	0.354280	0.073335	-0.229036
N71	N	0.687613	0.406668	0.104297
N72	N	1.020947	0.740001	0.437631
C73	C	0.395573	-0.000368	-0.152900
C74	C	0.728906	0.332965	0.180433
C75	C	1.062239	0.666299	0.513767
C76	C	0.131789	-0.000457	-0.250214
C77	C	0.465123	0.332876	0.083119
C78	C	0.798456	0.666210	0.416453
C79	C	0.058955	-0.000463	-0.248468
C80	C	0.392288	0.332870	0.084866
C81	C	0.725621	0.666204	0.418199
C82	C	0.074822	-0.000460	-0.041591
C83	C	0.408155	0.332874	0.291742
C84	C	0.741488	0.666207	0.625075
C85	C	0.147655	-0.000440	-0.043341
C86	C	0.480988	0.332893	0.289993
C87	C	0.814321	0.666226	0.623326
C88	C	0.176134	-0.000445	-0.147655
C89	C	0.509467	0.332888	0.185678
C90	C	0.842801	0.666221	0.519012
C91	C	0.952957	-0.000434	-0.142309
C92	C	1.286291	0.332900	0.191025
C93	C	1.619624	0.666233	0.524358
C94	C	1.030472	-0.000477	-0.144163
C95	C	1.363806	0.332857	0.189170
C96	C	1.697139	0.666190	0.522504
C97	C	0.829653	-0.000368	0.056298
C98	C	1.162986	0.332965	0.389631
C99	C	1.496319	0.666299	0.722965
C100	C	0.827799	-0.000368	0.182284
C101	C	1.161132	0.332965	0.515617
C102	C	1.494465	0.666298	0.848951
C103	C	0.825343	0.573539	-0.151230
C104	C	1.158676	0.906873	0.182103
C105	C	1.492010	1.240206	0.515437
C106	C	0.825335	0.425701	-0.151226
C107	C	1.158669	0.759035	0.182107
C108	C	1.492002	1.092368	0.515440
C109	C	0.821029	-0.000385	-0.358754
C110	C	1.154363	0.332949	-0.025421
C111	C	1.487696	0.666282	0.307913
C112	C	0.822884	-0.000393	-0.484740
C113	C	1.156217	0.332941	-0.151407
C114	C	1.489550	0.666274	0.181927
C115	C	0.824389	-0.000389	0.412945
C116	C	1.157722	0.332945	0.746278
C117	C	1.491056	0.666278	1.079612
C118	C	0.826283	-0.000378	0.284588
C119	C	1.159617	0.332956	0.617921
C120	C	1.492950	0.666289	0.951255
H121	H	0.466922	-0.000340	-0.342624
H122	H	0.800256	0.332993	-0.009290
H123	H	1.133589	0.666327	0.324043
N124	N	0.488183	-0.000333	0.060270
N125	N	0.821516	0.333001	0.393604
N126	N	1.154849	0.666334	0.726937
H127	H	0.504302	0.079970	0.105187
H128	H	0.837635	0.413303	0.438520
H129	H	1.170969	0.746637	0.771853
H130	H	0.435320	-0.000408	0.045726
H131	H	0.768653	0.332926	0.379059
H132	H	1.101986	0.666259	0.712393
N133	N	0.195480	-0.000434	0.067282
N134	N	0.528813	0.332899	0.400615
N135	N	0.862147	0.666233	0.733949
H136	H	0.226074	-0.080717	0.071166
H137	H	0.559407	0.252617	0.404500
H138	H	0.892740	0.585950	0.737833
H139	H	0.225985	0.079924	0.071111
H140	H	0.559318	0.413258	0.404444
H141	H	0.892651	0.746591	0.737778
N142	N	0.011146	-0.000469	-0.359111
N143	N	0.344480	0.332864	-0.025778
N144	N	0.677813	0.666197	0.307555
H145	H	-0.019412	-0.080764	-0.363028
H146	H	0.313922	0.252569	-0.029694
H147	H	0.647255	0.585903	0.303639
H148	H	-0.019395	0.079877	-0.362946
H149	H	0.313938	0.413210	-0.029613
H150	H	0.647272	0.746544	0.303721
N151	N	0.639563	-0.000247	0.056639
N152	N	0.972897	0.333087	0.389973
N153	N	1.306230	0.666420	0.723306
H154	H	0.610468	-0.000253	0.122983
H155	H	0.943802	0.333081	0.456316
H156	H	1.277135	0.666414	0.789650
H157	H	0.670149	-0.080533	0.060422
H158	H	1.003482	0.252800	0.393755
H159	H	1.336816	0.586134	0.727088
N160	N	0.044107	-0.000462	0.070911
N161	N	0.377440	0.332872	0.404244
N162	N	0.710774	0.666205	0.737578
H163	H	-0.008761	-0.000478	0.056457
H164	H	0.324572	0.332855	0.389790
H165	H	0.657906	0.666188	0.723123
H166	H	0.060322	-0.080751	0.115774
H167	H	0.393656	0.252582	0.449108
H168	H	0.726989	0.585915	0.782441
H169	H	0.599050	-0.000316	-0.345790
H170	H	0.932383	0.333018	-0.012457
H171	H	1.265716	0.666351	0.320876
N172	N	0.162513	-0.000456	-0.362717
N173	N	0.495847	0.332878	-0.029384
N174	N	0.829180	0.666211	0.303950
H175	H	0.123367	-0.000462	-0.427424
H176	H	0.456700	0.332871	-0.094091
H177	H	0.790034	0.666204	0.239242
H178	H	0.192367	0.079848	-0.367942
H179	H	0.525700	0.413182	-0.034609
H180	H	0.859034	0.746515	0.298724
