data_functionalizedCrystal
_audit_creation_method	'MofGen! by Chris Wilmer'
_symmetry_space_group_name_H-M	'P1'
_symmetry_Int_Tables_number	1
_symmetry_cell_setting	triclinic
loop_
_symmetry_equiv_pos_as_xyz
  x,y,z
_cell_length_a	10.654545
_cell_length_b	10.723022
_cell_length_c	9.730223
_cell_angle_alpha	89.996766
_cell_angle_beta	89.997167
_cell_angle_gamma	84.475153
loop_
_atom_site_label
_atom_site_type_symbol
_atom_site_fract_x
_atom_site_fract_y
_atom_site_fract_z
O1	O	1.667815	0.175248	-0.114272
O2	O	1.302333	0.191953	-0.114278
O3	O	1.493505	0.002025	-0.114270
O4	O	1.476643	0.365176	-0.114280
O5	O	1.493493	0.002020	0.114310
O6	O	1.302321	0.191948	0.114302
O7	O	1.667803	0.175243	0.114308
Zn8	Zn	1.485060	0.183594	0.150597
Zn9	Zn	1.485076	0.183601	-0.150567
O10	O	1.476630	0.365170	0.114300
C11	C	1.255529	0.190725	0.000011
C12	C	1.116086	0.187059	0.000009
C13	C	1.050575	0.185330	0.124609
C14	C	0.919556	0.181865	0.124609
C15	C	0.919570	0.181862	-0.124601
C16	C	1.050588	0.185318	-0.124600
C17	C	1.492273	-0.044477	0.000018
C18	C	1.488602	-0.183032	0.000014
C19	C	1.378360	-0.231608	0.000010
C20	C	1.374564	-0.374811	0.000004
C21	C	1.714607	0.176471	0.000015
C22	C	1.854050	0.180137	0.000008
C23	C	1.477863	0.411673	0.000008
C24	C	1.481533	0.550228	0.000004
N25	N	1.485058	0.183589	0.356133
N26	N	1.485088	0.183597	-0.356103
C27	C	1.569738	0.099525	0.428063
C28	C	1.569750	0.099525	0.571946
C29	C	1.400399	0.267665	0.571957
C30	C	1.400381	0.267657	0.428077
H31	H	1.103900	0.186747	0.226074
H32	H	1.331418	0.336113	0.369508
H33	H	0.866223	0.180457	0.226071
H34	H	1.638703	0.031071	0.630507
F35	F	1.251186	-0.429474	-0.000010
H36	H	0.866225	0.180446	-0.226053
F37	F	1.120315	0.187150	-0.257223
H38	H	1.286788	-0.167178	0.000017
F39	F	1.659855	0.010048	0.351501
F40	F	1.604916	-0.395118	-0.000001
F41	F	1.608299	-0.267241	0.000023
H42	H	1.331458	0.336114	0.630548
