data_functionalizedCrystal
_audit_creation_method	'MofGen! by Chris Wilmer'
_symmetry_space_group_name_H-M	'P1'
_symmetry_Int_Tables_number	1
_symmetry_cell_setting	triclinic
loop_
_symmetry_equiv_pos_as_xyz
  x,y,z
_cell_length_a	18.215407
_cell_length_b	14.908520
_cell_length_c	18.215399
_cell_angle_alpha	93.269364
_cell_angle_beta	89.980167
_cell_angle_gamma	93.321174
loop_
_atom_site_label
_atom_site_type_symbol
_atom_site_fract_x
_atom_site_fract_y
_atom_site_fract_z
Zn1	Zn	1.108178	-0.359158	-0.433017
Zn2	Zn	1.100989	-0.510027	-0.317051
Zn3	Zn	0.985109	-0.359188	-0.309966
Zn4	Zn	0.977982	-0.509977	-0.440073
O5	O	1.043064	-0.434588	-0.375027
O6	O	1.210208	-0.379180	-0.417646
O7	O	1.085592	-0.490052	-0.213128
O8	O	1.007425	-0.232939	-0.320371
O9	O	1.204927	-0.490023	-0.332446
O10	O	1.097843	-0.232917	-0.410776
O11	O	1.000455	-0.379230	-0.207923
O12	O	0.881180	-0.379182	-0.327213
O13	O	0.995278	-0.489937	-0.542120
O14	O	0.875943	-0.489966	-0.422802
O15	O	1.090932	-0.379131	-0.536936
O16	O	1.078681	-0.636266	-0.339288
O17	O	0.988308	-0.636229	-0.429672
C18	C	0.851859	-0.434572	-0.375005
C19	C	0.770059	-0.434587	-0.375014
C20	C	0.579154	-0.492363	-0.424733
C21	C	0.502295	-0.492366	-0.424742
C22	C	0.507726	-0.376828	-0.325338
C23	C	0.584584	-0.376822	-0.325333
C24	C	0.620295	-0.434594	-0.375029
C25	C	0.466579	-0.434604	-0.375044
C26	C	0.383245	-0.434606	-0.375053
C27	C	0.703635	-0.434591	-0.375021
C28	C	1.031961	-0.668981	-0.386030
C29	C	1.027278	-0.769256	-0.390762
C30	C	1.112681	-0.957660	-0.305613
C31	C	1.108284	-1.051877	-0.310057
C32	C	1.014091	-1.051908	-0.404097
C33	C	1.018488	-0.957691	-0.399653
C34	C	1.067784	-0.910570	-0.350409
C35	C	1.072177	-0.816352	-0.345962
C36	C	0.977988	-0.816385	-0.440005
C37	C	0.973591	-0.910602	-0.444449
C38	C	1.235017	-0.434604	-0.375049
C39	C	1.316815	-0.434611	-0.375059
C40	C	1.043112	-0.434526	-0.566977
C41	C	1.043133	-0.434499	-0.648775
C42	C	1.054231	-0.199279	-0.363996
C43	C	1.058990	-0.099004	-0.359296
C44	C	1.092959	-0.376748	-0.834268
C45	C	1.092969	-0.376722	-0.911126
C46	C	0.993364	-0.492110	-0.916513
C47	C	0.993351	-0.492131	-0.839656
C48	C	1.043153	-0.434452	-0.798536
C49	C	1.043176	-0.434404	-0.952250
C50	C	1.043186	-0.434376	-1.035582
C51	C	1.043142	-0.434478	-0.715198
C52	C	1.043062	-0.434585	-0.183820
C53	C	1.043196	-0.434357	-0.102011
H54	H	0.478640	-0.329793	-0.284876
H55	H	0.608228	-0.539403	-0.465200
H56	H	1.133525	-0.329733	-0.940215
H57	H	0.952819	-0.539073	-0.950002
H58	H	1.112315	-0.777987	-0.305863
H59	H	0.952788	-0.539119	-0.810563
H60	H	0.468801	-0.539406	-0.465216
C61	C	1.157021	-1.103166	-0.261535
C62	C	1.142647	-1.195763	-0.275990
C63	C	1.187552	-1.243038	-0.231326
H64	H	1.147070	-1.087901	-0.211318
H65	H	1.207189	-1.087696	-0.271661
H66	H	1.092491	-1.211227	-0.265859
H67	H	1.152603	-1.211055	-0.326199
H68	H	1.237720	-1.227569	-0.241451
H69	H	1.177598	-1.227767	-0.181111
H70	H	1.177811	-1.305870	-0.241132
H71	H	0.618083	-0.329773	-0.284858
H72	H	0.973961	-1.090290	-0.444194
H73	H	0.933457	-0.948981	-0.484544
C74	C	1.166267	-0.906656	-0.252124
C75	C	1.204654	-0.968062	-0.213852
C76	C	1.254028	-0.921112	-0.164577
H77	H	1.139924	-0.869956	-0.218239
H78	H	1.200074	-0.869863	-0.278551
H79	H	1.170852	-1.004840	-0.187426
H80	H	1.231011	-1.004765	-0.247718
H81	H	1.287835	-0.884319	-0.191004
H82	H	1.227680	-0.884413	-0.130696
H83	H	1.280085	-0.962769	-0.138608
H84	H	0.941427	-0.778034	-0.476478
C85	C	1.147055	-0.314021	-0.789750
C86	C	1.190661	-0.263464	-0.837496
C87	C	1.240494	-0.205658	-0.796515
H88	H	1.177550	-0.348437	-0.761383
H89	H	1.120779	-0.274673	-0.757936
H90	H	1.216934	-0.302808	-0.869298
H91	H	1.160185	-0.229030	-0.865864
H92	H	1.214219	-0.166310	-0.764700
H93	H	1.270985	-0.240082	-0.768150
H94	H	1.270082	-0.171343	-0.828904
