data_functionalizedCrystal
_audit_creation_method	'MofGen! by Chris Wilmer'
_symmetry_space_group_name_H-M	'P1'
_symmetry_Int_Tables_number	1
_symmetry_cell_setting	triclinic
loop_
_symmetry_equiv_pos_as_xyz
  x,y,z
_cell_length_a	19.077105
_cell_length_b	16.120484
_cell_length_c	19.076919
_cell_angle_alpha	84.953390
_cell_angle_beta	89.923776
_cell_angle_gamma	90.738523
loop_
_atom_site_label
_atom_site_type_symbol
_atom_site_fract_x
_atom_site_fract_y
_atom_site_fract_z
Zn1	Zn	1.040337	-0.403262	0.456942
Zn2	Zn	1.540337	0.096738	0.956942
Zn3	Zn	1.039017	-0.537287	0.344927
Zn4	Zn	1.539017	-0.037287	0.844927
Zn5	Zn	0.928051	-0.392095	0.334278
Zn6	Zn	1.428051	0.107905	0.834278
Zn7	Zn	0.916861	-0.536784	0.457659
Zn8	Zn	1.416861	-0.036784	0.957659
O9	O	0.981066	-0.467357	0.398451
O10	O	1.481066	0.032643	0.898451
O11	O	1.138276	-0.425924	0.446240
O12	O	1.638276	0.074076	0.946240
O13	O	1.028428	-0.513564	0.245000
O14	O	1.528428	-0.013564	0.745000
O15	O	0.948182	-0.276934	0.345793
O16	O	1.448182	0.223066	0.845793
O17	O	1.137306	-0.524392	0.363943
O18	O	1.637306	-0.024392	0.863943
O19	O	1.030678	-0.285138	0.435913
O20	O	1.530678	0.214862	0.935913
O21	O	0.946902	-0.406892	0.237176
O22	O	1.446902	0.093108	0.737176
O23	O	0.828452	-0.406405	0.346488
O24	O	1.328452	0.093595	0.846488
O25	O	0.929109	-0.523535	0.556078
O26	O	1.429109	-0.023535	1.056078
O27	O	0.820230	-0.512707	0.437136
O28	O	1.320230	-0.012707	0.937136
O29	O	1.019827	-0.425436	0.555551
O30	O	1.519827	0.074564	1.055551
O31	O	1.017576	-0.653863	0.364638
O32	O	1.517576	-0.153863	0.864638
O33	O	0.927829	-0.653494	0.447462
O34	O	1.427829	-0.153494	0.947462
C35	C	0.798901	-0.458290	0.390734
C36	C	1.298901	0.041710	0.890734
C37	C	0.720969	-0.454433	0.387451
C38	C	1.220969	0.045567	0.887451
C39	C	0.971363	-0.683924	0.407299
C40	C	1.471363	-0.183924	0.907299
C41	C	0.967276	-0.776577	0.411111
C42	C	1.467276	-0.276577	0.911111
C43	C	0.680093	-0.508043	0.433036
C44	C	1.180093	-0.008043	0.933036
C45	C	0.606867	-0.504408	0.429953
C46	C	1.106867	-0.004408	0.929953
C47	C	0.574519	-0.447165	0.381281
C48	C	1.074519	0.052835	0.881281
C49	C	0.615400	-0.393548	0.335694
C50	C	1.115400	0.106452	0.835694
C51	C	0.688624	-0.397180	0.338781
C52	C	1.188624	0.102820	0.838781
C53	C	0.355979	-0.430354	0.367000
C54	C	0.855979	0.069646	0.867000
C55	C	0.282749	-0.426728	0.363916
C56	C	0.782749	0.073272	0.863916
C57	C	0.274222	-0.537586	0.458176
C58	C	0.774222	-0.037586	0.958176
C59	C	0.347448	-0.541217	0.461255
C60	C	0.847448	-0.041217	0.961255
C61	C	0.388323	-0.487598	0.415670
C62	C	0.888323	0.012402	0.915670
N63	N	0.499670	-0.443449	0.378128
N64	N	0.999670	0.056551	0.878128
N65	N	0.463169	-0.491310	0.418828
N66	N	0.963169	0.008690	0.918828
C67	C	0.959816	-0.946215	0.418084
C68	C	1.459816	-0.446215	0.918084
C69	C	1.002442	-0.987665	0.378836
C70	C	1.502442	-0.487665	0.878836
C71	C	0.998291	-1.082058	0.382716
C72	C	1.498291	-0.582058	0.882716
C73	C	0.963966	-0.851814	0.414205
C74	C	1.463966	-0.351814	0.914205
C75	C	1.163943	-0.476459	0.406199
C76	C	1.663943	0.023541	0.906199
C77	C	1.241874	-0.480338	0.409501
C78	C	1.741874	0.019662	0.909501
C79	C	0.973367	-0.475675	0.582072
C80	C	1.473367	0.024325	1.082072
C81	C	0.970086	-0.479220	0.660321
C82	C	1.470086	0.020780	1.160321
C83	C	0.990826	-0.249946	0.389585
C84	C	1.490826	0.250054	0.889585
C85	C	0.994984	-0.157298	0.385807
C86	C	1.494984	0.342702	0.885807
C87	C	0.988779	-0.459013	0.215544
C88	C	1.488779	0.040987	0.715544
C89	C	0.992206	-0.455240	0.137292
C90	C	1.492206	0.044760	0.637292
C91	C	1.015774	-0.429813	0.696809
C92	C	1.515774	0.070187	1.196809
C93	C	1.012683	-0.433140	0.770331
C94	C	1.512683	0.066860	1.270331
C95	C	0.963906	-0.485879	0.807364
C96	C	1.463906	0.014121	1.307364
C97	C	0.918214	-0.535288	0.770871
C98	C	1.418214	-0.035288	1.270871
C99	C	0.921302	-0.531956	0.697350
C100	C	1.421302	-0.031956	1.197350
C101	C	0.949602	-0.501317	1.027278
C102	C	1.449602	-0.001317	1.527278
C103	C	0.946518	-0.504647	1.100804
C104	C	1.446518	-0.004647	1.600804
C105	C	1.040987	-0.402498	1.100259
C106	C	1.540987	0.097502	1.600259
C107	C	1.044074	-0.399174	1.026737
C108	C	1.544074	0.100826	1.526737
C109	C	0.998378	-0.448580	0.990250
C110	C	1.498378	0.051420	1.490250
N111	N	0.960747	-0.489283	0.882516
N112	N	1.460747	0.010717	1.382516
N113	N	1.001535	-0.445171	0.915099
N114	N	1.501535	0.054829	1.415099
H115	H	0.706425	-0.554659	0.472667
H116	H	1.206425	-0.054659	0.972667
N117	N	0.907341	-0.993105	0.466441
N118	N	1.407341	-0.493105	0.966441
H119	H	0.879466	-0.952293	0.492094
H120	H	1.379466	-0.452293	0.992094
H121	H	0.932928	-1.032079	0.501706
H122	H	1.432928	-0.532079	1.001706
N123	N	1.096671	-0.342260	0.986812
N124	N	1.596671	0.157740	1.486812
H125	H	1.071182	-0.300834	0.953532
H126	H	1.571182	0.199166	1.453532
H127	H	1.128923	-0.376404	0.959102
H128	H	1.628923	0.123596	1.459102
N129	N	0.562779	-0.562242	0.479110
N130	N	1.062779	-0.062242	0.979110
H131	H	0.594383	-0.599063	0.510405
H132	H	1.094383	-0.099063	1.010405
H133	H	0.531876	-0.597947	0.450681
H134	H	1.031876	-0.097947	0.950681
H135	H	0.884091	-0.572180	0.667641
H136	H	1.384091	-0.072180	1.167641
N137	N	1.054911	-0.940774	0.330465
N138	N	1.554911	-0.440774	0.830465
H139	H	1.029366	-0.901806	0.295159
H140	H	1.529366	-0.401806	0.795159
H141	H	1.082766	-0.981645	0.304860
H142	H	1.582766	-0.481645	0.804860
H143	H	0.906796	-0.547595	1.130954
H144	H	1.406796	-0.047595	1.630954
N145	N	0.382337	-0.602962	0.513747
N146	N	0.882337	-0.102962	1.013747
H147	H	0.345330	-0.636374	0.542158
H148	H	0.845330	-0.136374	1.042158
H149	H	0.412876	-0.572081	0.546271
H150	H	0.912876	-0.072081	1.046271
N151	N	0.865589	-0.592152	0.810808
N152	N	1.365589	-0.092152	1.310808
H153	H	0.870562	-0.586764	0.862920
H154	H	1.370562	-0.086764	1.362920
H155	H	0.874355	-0.651648	0.800852
H156	H	1.374355	-0.151648	1.300852
H157	H	1.055495	-0.386870	0.666662
H158	H	1.555495	0.113130	1.166662
H159	H	1.078188	-0.362273	1.129975
H160	H	1.578188	0.137727	1.629975
N161	N	1.061947	-0.379834	0.809686
N162	N	1.561947	0.120166	1.309686
H163	H	1.093314	-0.345918	0.775069
H164	H	1.593314	0.154082	1.275069
H165	H	1.091592	-0.416748	0.842959
H166	H	1.591592	0.083252	1.342959
H167	H	0.256414	-0.380104	0.324285
H168	H	0.756414	0.119896	0.824285
H169	H	0.912403	-0.541559	0.997580
H170	H	1.412403	-0.041559	1.497580
H171	H	0.240934	-0.581239	0.495289
H172	H	0.740934	-0.081239	0.995289
H173	H	0.389251	-0.386700	0.329877
H174	H	0.889251	0.113300	0.829877
N175	N	0.580508	-0.331822	0.283188
N176	N	1.080508	0.168178	0.783188
H177	H	0.550649	-0.293038	0.308984
H178	H	1.050649	0.206962	0.808984
H179	H	0.550022	-0.362732	0.250639
H180	H	1.050022	0.137268	0.750639
N181	N	0.732715	-0.339353	0.289619
N182	N	1.232715	0.160647	0.789619
H183	H	0.701113	-0.302538	0.258317
H184	H	1.201113	0.197462	0.758317
H185	H	0.762945	-0.373246	0.259656
H186	H	1.262945	0.126754	0.759656
