data_functionalizedCrystal
_audit_creation_method	'MofGen! by Chris Wilmer'
_symmetry_space_group_name_H-M	'P1'
_symmetry_Int_Tables_number	1
_symmetry_cell_setting	triclinic
loop_
_symmetry_equiv_pos_as_xyz
  x,y,z
_cell_length_a	12.996460
_cell_length_b	10.654550
_cell_length_c	10.654549
_cell_angle_alpha	84.484854
_cell_angle_beta	90.005147
_cell_angle_gamma	90.002324
loop_
_atom_site_label
_atom_site_type_symbol
_atom_site_fract_x
_atom_site_fract_y
_atom_site_fract_z
O1	O	-0.085488	-1.667843	-0.176401
O2	O	0.414512	-1.167843	0.323599
O3	O	-0.085506	-1.302364	-0.193207
O4	O	0.414494	-0.802364	0.306793
O5	O	-0.085492	-1.493507	-0.002065
O6	O	0.414508	-0.993507	0.497935
O7	O	-0.085502	-1.476700	-0.367544
O8	O	0.414498	-0.976700	0.132456
O9	O	0.085642	-1.493487	-0.002054
O10	O	0.585642	-0.993487	0.497946
O11	O	0.085627	-1.302344	-0.193197
O12	O	0.585627	-0.802344	0.306803
O13	O	0.085646	-1.667823	-0.176391
O14	O	0.585646	-1.167823	0.323609
Cu15	Cu	0.101263	-1.485081	-0.184793
Cu16	Cu	0.601263	-0.985081	0.315207
Cu17	Cu	-0.101123	-1.485105	-0.184805
Cu18	Cu	0.398877	-0.985105	0.315195
O19	O	0.085632	-1.476680	-0.367533
O20	O	0.585632	-0.976680	0.132467
C21	C	0.000058	-1.255556	-0.191968
C22	C	0.500058	-0.755556	0.308032
C23	C	0.000051	-1.116113	-0.188276
C24	C	0.500051	-0.616113	0.311724
N25	N	0.243610	-1.485074	-0.184783
N26	N	0.743610	-0.985074	0.315217
N27	N	-0.243470	-1.485123	-0.184805
N28	N	0.256530	-0.985123	0.315195
C29	C	0.663424	-1.485104	-0.184807
C30	C	1.163424	-0.985104	0.315193
C31	C	0.546619	-1.485092	-0.184804
C32	C	1.046619	-0.985092	0.315196
C33	C	0.453521	-1.485089	-0.184796
C34	C	0.953521	-0.985089	0.315204
C35	C	0.336708	-1.485076	-0.184791
C36	C	0.836708	-0.985076	0.315209
C37	C	0.000073	-1.492263	0.044738
C38	C	0.500073	-0.992263	0.544738
C39	C	0.000070	-1.488571	0.184181
C40	C	0.500070	-0.988571	0.684181
C41	C	0.000079	-1.714631	-0.177630
C42	C	0.500079	-1.214631	0.322370
C43	C	0.000080	-1.854074	-0.181322
C44	C	0.500080	-1.354074	0.318678
C45	C	0.000051	-1.036627	-0.300818
C46	C	0.500051	-0.536627	0.199182
C47	C	0.000069	-0.905606	-0.297341
C48	C	0.500069	-0.405606	0.202659
C49	C	0.000083	-0.933570	-0.068772
C50	C	0.500083	-0.433570	0.431228
C51	C	0.000072	-1.064588	-0.072250
C52	C	0.500072	-0.564588	0.427750
C53	C	0.000064	-1.477924	-0.414336
C54	C	0.500064	-0.977924	0.085664
C55	C	0.000061	-1.481616	-0.553780
C56	C	0.500061	-0.981616	-0.053780
C57	C	0.000069	-1.597634	0.394696
C58	C	0.500069	-1.097634	0.894696
C59	C	0.000077	-1.601113	0.263676
C60	C	0.500077	-1.101113	0.763676
C61	C	0.000065	-1.372543	0.235714
C62	C	0.500065	-0.872543	0.735714
C63	C	0.000064	-1.369066	0.366732
C64	C	0.500064	-0.869066	0.866732
H65	H	0.000042	-1.078574	-0.395294
H66	H	0.500042	-0.578574	0.104706
H67	H	0.000085	-1.695586	0.221732
H68	H	0.500085	-1.195586	0.721732
F69	F	0.000061	-1.245577	0.421571
F70	F	0.500061	-0.745577	0.921571
H71	H	0.000071	-0.840893	-0.388984
H72	H	0.500071	-0.340893	0.111016
H73	H	0.000066	-1.280910	0.170979
H74	H	0.500066	-0.780910	0.670979
H75	H	0.000106	-0.891602	0.025693
H76	H	0.500106	-0.391602	0.525693
F77	F	0.000068	-1.717419	0.479289
F78	F	0.500068	-1.217419	0.979289
H79	H	0.000075	-1.129309	0.019401
H80	H	0.500075	-0.629309	0.519401
