data_functionalizedCrystal
_audit_creation_method	'MofGen! by Chris Wilmer'
_symmetry_space_group_name_H-M	'P1'
_symmetry_Int_Tables_number	1
_symmetry_cell_setting	triclinic
loop_
_symmetry_equiv_pos_as_xyz
  x,y,z
_cell_length_a	14.853558
_cell_length_b	23.532407
_cell_length_c	22.610064
_cell_angle_alpha	90.006828
_cell_angle_beta	90.013517
_cell_angle_gamma	83.239940
loop_
_atom_site_label
_atom_site_type_symbol
_atom_site_fract_x
_atom_site_fract_y
_atom_site_fract_z
O1	O	1.195571	0.074322	0.049189
O2	O	0.933013	0.083184	0.049193
O3	O	1.072209	-0.004144	0.049174
O4	O	1.056375	0.161650	0.049208
O5	O	1.072170	-0.004134	-0.049195
O6	O	0.932974	0.083194	-0.049176
O7	O	1.195531	0.074332	-0.049180
Zn8	Zn	1.064246	0.078764	-0.064797
Zn9	Zn	1.064298	0.078751	0.064809
O10	O	1.056335	0.161660	-0.049162
C11	C	0.899409	0.082789	0.000009
C12	C	0.799338	0.081588	0.000009
C13	C	0.752345	0.081020	0.053633
C14	C	0.752301	0.081024	-0.053613
C15	C	0.658280	0.079893	-0.053615
C16	C	0.611287	0.079324	0.000009
C17	C	0.658316	0.079887	0.053633
C18	C	0.611245	0.079324	-0.107238
C19	C	0.517218	0.078193	-0.107241
C20	C	0.470223	0.077628	-0.053617
C21	C	0.517257	0.078192	0.000009
C22	C	0.470265	0.077623	0.053632
C23	C	0.517296	0.078190	0.107259
C24	C	0.611320	0.079323	0.107257
C25	C	0.376199	0.076496	-0.053615
C26	C	0.376235	0.076490	0.053633
C27	C	1.071786	-0.025357	-0.000013
C28	C	1.070574	-0.088579	-0.000022
C29	C	0.983201	-0.355126	0.000016
C30	C	0.984327	-0.295721	0.000011
O31	O	0.915015	-0.259278	0.000031
N32	N	1.067079	-0.272736	0.000003
C33	C	1.148711	-0.309159	0.000006
O34	O	1.219201	-0.284153	-0.000001
C35	C	1.147583	-0.368563	0.000014
C36	C	1.064826	-0.391545	0.000017
C37	C	0.900450	-0.378109	0.000019
C38	C	0.899324	-0.437510	0.000022
C39	C	0.980949	-0.473928	0.000023
C40	C	1.063700	-0.450946	0.000020
C41	C	1.229214	-0.404984	0.000021
C42	C	1.228079	-0.464392	0.000030
C43	C	1.145322	-0.487374	0.000033
C44	C	1.144199	-0.546765	0.000024
N45	N	1.061447	-0.569751	0.000032
C46	C	0.979822	-0.533332	0.000032
C47	C	1.151071	-0.184406	-0.000012
C48	C	1.152199	-0.125003	-0.000025
C49	C	0.987816	-0.111570	-0.000018
C50	C	0.986689	-0.170974	-0.000009
C51	C	1.068319	-0.207391	-0.000004
C52	C	0.977464	-0.658079	0.000038
C53	C	0.976346	-0.717486	0.000039
C54	C	1.140729	-0.730914	0.000036
C55	C	1.141848	-0.671513	0.000032
C56	C	1.060208	-0.635096	0.000035
O57	O	1.213475	-0.583243	0.000007
O58	O	0.909343	-0.558347	0.000046
C59	C	1.229136	0.074727	0.000005
C60	C	1.329207	0.075928	0.000008
C61	C	1.056758	0.182873	0.000027
C62	C	1.057971	0.246095	0.000040
N63	N	1.064218	0.078773	-0.153249
C64	C	1.009910	0.044145	-0.438097
C65	C	1.009901	0.044147	-0.376177
O66	O	0.963689	0.014707	-0.344158
N67	N	1.064255	0.078755	-0.345201
C68	C	1.118629	0.113357	-0.376149
O69	O	1.164861	0.142794	-0.344116
C70	C	1.118642	0.113351	-0.438068
C71	C	1.064277	0.078746	-0.469040
C72	C	0.955550	0.009542	-0.469069
C73	C	0.955558	0.009540	-0.530985
C74	C	1.009925	0.044141	-0.561928
C75	C	1.064284	0.078744	-0.530956
C76	C	1.173019	0.147950	-0.469014
C77	C	1.173028	0.147941	-0.530937
C78	C	1.118663	0.113336	-0.561910
C79	C	1.118659	0.113343	-0.623815
N80	N	1.064305	0.078736	-0.654790
C81	C	1.009938	0.044135	-0.623847
C82	C	1.118599	0.113367	-0.246115
C83	C	1.118582	0.113377	-0.184198
C84	C	1.009855	0.044166	-0.184230
C85	C	1.009868	0.044160	-0.246149
C86	C	1.064245	0.078760	-0.277091
C87	C	1.009957	0.044134	-0.753874
C88	C	1.009967	0.044137	-0.815795
C89	C	1.118697	0.113346	-0.815758
C90	C	1.118684	0.113345	-0.753842
C91	C	1.064312	0.078735	-0.722902
O92	O	1.164850	0.142767	-0.655873
O93	O	0.963722	0.014698	-0.655887
N94	N	1.064334	0.078738	0.153261
H95	H	0.908952	-0.736195	0.000038
O96	O	1.219991	-0.766321	0.000143
C97	C	1.314090	-0.841209	0.051099
C98	C	1.224303	-0.801133	0.051053
H99	H	1.317597	-0.869373	0.092250
H100	H	1.373473	-0.814613	0.051135
H101	H	1.317642	-0.869339	0.009917
H102	H	1.220662	-0.772995	0.092228
H103	H	1.164963	-0.827763	0.050986
H104	H	0.965587	0.015992	-0.159025
H105	H	0.965693	0.015957	-0.841010
H106	H	1.217549	-0.214055	-0.000011
O107	O	1.171286	0.147018	-0.276236
C108	C	1.175808	0.223947	-0.346103
C109	C	1.116036	0.185870	-0.312043
H110	H	1.131161	0.255375	-0.375052
H111	H	1.225845	0.196027	-0.375121
H112	H	1.214672	0.248653	-0.313312
H113	H	1.077114	0.161157	-0.344791
H114	H	1.066055	0.213820	-0.283016
O115	O	1.222215	-0.649159	-0.000079
C116	C	1.318857	-0.589870	-0.051021
C117	C	1.227817	-0.615150	-0.050984
H118	H	1.323408	-0.562358	-0.092166
H119	H	1.377035	-0.626085	-0.051060
H120	H	1.323500	-0.562417	-0.009834
H121	H	1.223085	-0.642596	-0.092164
H122	H	1.169682	-0.578908	-0.050914
O123	O	1.232534	-0.102615	0.000046
C124	C	1.329265	-0.043374	0.051020
C125	C	1.238243	-0.068677	0.051002
H126	H	1.333918	-0.015940	0.092220
H127	H	1.333905	-0.015868	0.009879
H128	H	1.387389	-0.079623	0.050992
H129	H	1.180066	-0.032465	0.051050
H130	H	1.233681	-0.096198	0.092139
O131	O	1.309685	-0.382764	0.000047
C132	C	1.472609	-0.402383	0.000018
C133	C	1.381534	-0.427622	0.000002
H134	H	1.530723	-0.438638	-0.000031
H135	H	1.477328	-0.374922	0.041193
H136	H	1.477195	-0.374896	-0.041142
H137	H	1.376886	-0.455134	0.041134
H138	H	1.376853	-0.455050	-0.041200
O139	O	0.906220	-0.193202	0.000024
C140	C	0.743294	-0.173592	-0.000005
C141	C	0.834365	-0.148347	-0.000032
H142	H	0.685176	-0.137339	-0.000063
H143	H	0.738608	-0.201035	0.041178
H144	H	0.738683	-0.201097	-0.041157
H145	H	0.839038	-0.120816	0.041092
H146	H	0.839012	-0.120937	-0.041242
H147	H	0.833978	-0.348463	0.000020
O148	O	0.818957	-0.459860	-0.000072
C149	C	0.722261	-0.519161	-0.050991
C150	C	0.813303	-0.493883	-0.050970
H151	H	0.717668	-0.546684	-0.092132
H152	H	0.664085	-0.482944	-0.051027
H153	H	0.717657	-0.546602	-0.009799
H154	H	0.817996	-0.466448	-0.092155
H155	H	0.871436	-0.530127	-0.050903
H156	H	1.294555	-0.494041	0.000038
H157	H	0.478933	0.077730	-0.150908
O158	O	1.225874	0.181606	-0.560902
C159	C	1.333765	0.250221	-0.554329
C160	C	1.273948	0.212133	-0.520323
H161	H	1.372663	0.274903	-0.521536
H162	H	1.289193	0.281663	-0.583309
H163	H	1.383774	0.222258	-0.583326
H164	H	1.223931	0.240050	-0.491294
H165	H	1.318577	0.180688	-0.491381
H166	H	0.921352	-0.081907	-0.000019
O167	O	1.171432	0.147044	-0.723815
C168	C	1.205734	0.242936	-0.704820
C169	C	1.145940	0.204844	-0.738868
H170	H	1.185133	0.289676	-0.716968
H171	H	1.279883	0.230370	-0.716996
H172	H	1.196413	0.236961	-0.655253
H173	H	1.155182	0.210799	-0.788443
H174	H	1.071813	0.217419	-0.726643
O175	O	0.957054	0.010502	-0.723916
C176	C	0.849243	-0.058164	-0.730500
C177	C	0.909102	-0.020097	-0.764500
H178	H	0.810474	-0.082922	-0.763297
H179	H	0.799135	-0.030236	-0.701537
H180	H	0.893864	-0.089546	-0.701487
H181	H	0.864554	0.011291	-0.793544
H182	H	0.959217	-0.048061	-0.793425
H183	H	0.911292	-0.018641	-0.556197
O184	O	1.225696	0.181633	-0.438914
C185	C	1.230226	0.258531	-0.368991
C186	C	1.170458	0.220431	-0.403050
H187	H	1.185593	0.289900	-0.339978
H188	H	1.269060	0.283296	-0.401730
H189	H	1.280290	0.230572	-0.340020
H190	H	1.120344	0.248348	-0.432022
H191	H	1.131689	0.195662	-0.370280
O192	O	0.902648	-0.024086	-0.439108
C193	C	0.794837	-0.092751	-0.445696
C194	C	0.854702	-0.054686	-0.479694
H195	H	0.756071	-0.117510	-0.478495
H196	H	0.744725	-0.064821	-0.416737
H197	H	0.839452	-0.124133	-0.416680
H198	H	0.810158	-0.023299	-0.508742
H199	H	0.904820	-0.082652	-0.508615
O200	O	1.171467	0.147013	-0.154207
C201	C	1.279268	0.215685	-0.160727
C202	C	1.219427	0.177612	-0.194762
H203	H	1.318045	0.240443	-0.193501
H204	H	1.329369	0.187762	-0.131747
H205	H	1.234632	0.247067	-0.131729
H206	H	1.263990	0.146224	-0.223793
H207	H	1.169319	0.205571	-0.223705
H208	H	0.965599	0.015981	-0.271362
H209	H	0.337980	0.076031	0.097300
O210	O	0.798110	0.081648	0.105685
C211	C	0.893577	0.132246	0.167949
C212	C	0.841805	0.131599	0.108973
H213	H	0.928901	0.172633	0.170632
H214	H	0.946267	0.092982	0.170635
H215	H	0.843827	0.131616	0.206264
H216	H	0.891485	0.132248	0.070625
H217	H	0.789101	0.170859	0.106339
H218	H	1.162959	0.141518	-0.840963
H219	H	0.479023	0.077725	0.150919
H220	H	0.910985	-0.628435	0.000041
H221	H	0.649622	0.079784	0.150917
H222	H	0.649515	0.079782	-0.150895
O223	O	0.797930	0.081472	-0.105714
C224	C	0.837284	0.032539	-0.197399
C225	C	0.785581	0.031953	-0.138408
H226	H	0.827303	-0.007487	-0.223854
H227	H	0.912583	0.033406	-0.188221
H228	H	0.810189	0.072160	-0.223813
H229	H	0.812600	-0.007662	-0.111965
H230	H	0.710288	0.031116	-0.147628
H231	H	0.337909	0.076039	-0.097277
