data_functionalizedCrystal
_audit_creation_method	'MofGen! by Chris Wilmer'
_symmetry_space_group_name_H-M	'P1'
_symmetry_Int_Tables_number	1
_symmetry_cell_setting	triclinic
loop_
_symmetry_equiv_pos_as_xyz
  x,y,z
_cell_length_a	15.944499
_cell_length_b	15.944551
_cell_length_c	10.268362
_cell_angle_alpha	89.993764
_cell_angle_beta	89.992825
_cell_angle_gamma	83.488174
loop_
_atom_site_label
_atom_site_type_symbol
_atom_site_fract_x
_atom_site_fract_y
_atom_site_fract_z
O1	O	1.114551	0.108126	-0.108381
O2	O	0.869996	0.121527	-0.108367
O3	O	0.998952	-0.007449	-0.108363
O4	O	0.985595	0.237103	-0.108385
O5	O	0.998941	-0.007455	0.108238
O6	O	0.869984	0.121522	0.108234
O7	O	1.114540	0.108121	0.108220
Cu8	Cu	0.992261	0.114821	0.128004
Cu9	Cu	0.992274	0.114827	-0.128151
O10	O	0.985584	0.237097	0.108215
C11	C	0.838695	0.120976	-0.000065
C12	C	0.745447	0.119331	-0.000059
C13	C	0.453911	0.194263	-0.000085
C14	C	0.514946	0.155314	-0.106879
C15	C	0.409810	0.113355	-0.000088
C16	C	0.514921	0.155287	0.106672
C17	C	0.574719	0.116296	-0.000072
C18	C	0.469617	0.074384	-0.106971
C19	C	0.469586	0.074368	0.106676
C20	C	0.530603	0.035360	-0.000144
C21	C	0.314810	0.111663	-0.000099
C22	C	0.669718	0.117981	-0.000070
C23	C	0.998392	-0.038746	-0.000062
C24	C	0.996729	-0.131992	-0.000061
C25	C	0.912823	-0.346833	-0.000074
C26	C	0.951781	-0.407860	0.106721
C27	C	0.993722	-0.302717	-0.000071
C28	C	0.951811	-0.407838	-0.106831
C29	C	0.990811	-0.467629	-0.000086
C30	C	1.032702	-0.362516	0.106812
C31	C	1.032721	-0.362488	-0.106835
C32	C	1.071737	-0.423497	-0.000014
C33	C	0.995397	-0.207715	-0.000061
C34	C	0.989143	-0.562630	-0.000087
C35	C	1.145840	0.108672	-0.000086
C36	C	1.239089	0.110317	-0.000100
C37	C	0.986144	0.268394	-0.000088
C38	C	0.987806	0.361640	-0.000098
N39	N	0.992258	0.114816	0.308170
N40	N	0.992284	0.114825	-0.308317
C41	C	0.992270	0.114825	0.573840
C42	C	0.992261	0.114823	0.426003
H43	H	0.534991	0.189520	0.196954
F44	F	1.159583	-0.466856	0.000056
H45	H	0.917559	-0.427964	0.197011
H46	H	0.449643	0.040196	-0.197358
F47	F	0.907074	-0.434087	-0.224833
H48	H	1.066913	-0.342361	-0.197130
H49	H	0.449464	0.040173	0.196972
F50	F	0.410344	0.282026	-0.000225
H51	H	0.563780	-0.031846	-0.000194
F52	F	0.541213	0.200045	-0.224901
F53	F	0.825053	-0.303282	0.000063
F54	F	1.077385	-0.336402	0.224951
