data_functionalizedCrystal
_audit_creation_method	'MofGen! by Chris Wilmer'
_symmetry_space_group_name_H-M	'P1'
_symmetry_Int_Tables_number	1
_symmetry_cell_setting	triclinic
loop_
_symmetry_equiv_pos_as_xyz
  x,y,z
_cell_length_a	10.723023
_cell_length_b	10.723024
_cell_length_c	9.198806
_cell_angle_alpha	90.002264
_cell_angle_beta	90.003557
_cell_angle_gamma	84.467709
loop_
_atom_site_label
_atom_site_type_symbol
_atom_site_fract_x
_atom_site_fract_y
_atom_site_fract_z
O1	O	1.657188	0.175020	0.120884
O2	O	1.294035	0.191775	0.120888
O3	O	1.483988	0.001821	0.120881
O4	O	1.467235	0.364974	0.120892
O5	O	1.483974	0.001820	-0.120904
O6	O	1.294021	0.191773	-0.120897
O7	O	1.657174	0.175019	-0.120901
Cu8	Cu	1.475596	0.183396	-0.142976
Cu9	Cu	1.475613	0.183398	0.142963
O10	O	1.467221	0.364972	-0.120893
C11	C	1.247529	0.190555	-0.000004
C12	C	1.108974	0.186908	-0.000003
C13	C	0.903999	0.181511	-0.125249
C14	C	1.047202	0.185281	-0.125254
C15	C	1.482762	-0.044679	-0.000010
C16	C	1.479114	-0.183233	-0.000005
C17	C	1.585402	-0.258216	-0.000004
C18	C	1.581634	-0.401420	0.000001
C19	C	1.703680	0.176239	-0.000005
C20	C	1.842235	0.179886	0.000003
C21	C	1.468447	0.411473	0.000001
C22	C	1.472095	0.550027	0.000005
N23	N	1.475593	0.183394	-0.344090
C24	C	1.555546	0.103465	-0.583694
C25	C	1.555530	0.103466	-0.416281
N26	N	1.475625	0.183390	0.344077
H27	H	1.055867	0.185507	0.107236
N28	N	1.384966	0.274040	-0.573690
H29	H	1.433182	0.329665	-0.510526
H30	H	1.329358	0.225726	-0.510636
N31	N	1.117539	0.187132	-0.267311
H32	H	1.181012	0.111331	-0.273113
H33	H	1.162026	0.265826	-0.273020
N34	N	1.646204	0.012828	-0.665947
H35	H	1.597986	-0.042794	-0.729114
H36	H	1.699519	-0.040427	-0.594658
N37	N	0.833763	0.178570	-0.267292
H38	H	0.741485	0.175775	-0.247151
H39	H	0.866395	0.101593	-0.323983
N40	N	1.646149	0.012813	-0.334000
H41	H	1.701764	0.061034	-0.270827
H42	H	1.699414	-0.040514	-0.405267
N43	N	0.912613	0.181724	0.142048
H44	H	0.851721	0.180119	0.225636
H45	H	0.957182	0.260370	0.147716
N46	N	1.709640	-0.202836	-0.000023
H47	H	1.694721	-0.108386	-0.000033
H48	H	1.758640	-0.231612	-0.089664
N49	N	1.351563	-0.364630	0.000003
H50	H	1.301296	-0.381132	0.089634
H51	H	1.301387	-0.381184	-0.089685
N52	N	1.702171	-0.486755	-0.000014
H53	H	1.682394	-0.576958	-0.000013
H54	H	1.752394	-0.470135	0.089616
N55	N	1.354871	-0.238604	0.000000
H56	H	1.348459	-0.292007	0.089632
H57	H	1.348525	-0.291955	-0.089687
N58	N	1.384949	0.274036	-0.426352
H59	H	1.400073	0.362754	-0.399936
H60	H	1.296273	0.258790	-0.399922
