data_functionalizedCrystal
_audit_creation_method	'MofGen! by Chris Wilmer'
_symmetry_space_group_name_H-M	'P1'
_symmetry_Int_Tables_number	1
_symmetry_cell_setting	triclinic
loop_
_symmetry_equiv_pos_as_xyz
  x,y,z
_cell_length_a	18.426585
_cell_length_b	21.606444
_cell_length_c	21.606444
_cell_angle_alpha	59.991153
_cell_angle_beta	90.003736
_cell_angle_gamma	60.002832
loop_
_atom_site_label
_atom_site_type_symbol
_atom_site_fract_x
_atom_site_fract_y
_atom_site_fract_z
Zr1	Zr	0.699140	0.677488	-0.081302
O2	O	0.583254	0.806627	-0.180156
O3	O	0.734665	0.548355	-0.050983
O4	O	0.734658	0.677491	-0.180127
O5	O	0.583267	0.677487	0.050842
O6	O	0.854089	0.677487	-0.180121
O7	O	0.583260	0.677491	-0.051012
O8	O	0.854101	0.446486	0.050894
O9	O	0.583254	0.908487	-0.180173
O10	O	0.838946	0.601464	-0.038066
O11	O	0.749821	0.601464	0.037942
O12	O	0.749813	0.753505	-0.114108
O13	O	0.660687	0.753505	-0.038100
Zr14	Zr	0.889628	0.677474	0.081153
Zr15	Zr	0.889618	0.677481	-0.081293
Zr16	Zr	0.699150	0.677481	0.081143
Zr17	Zr	0.699141	0.839943	-0.081329
Zr18	Zr	0.889627	0.515019	0.081180
O19	O	0.854103	0.806607	0.050834
O20	O	0.854090	0.806617	-0.180143
O21	O	0.583267	0.806617	0.050821
O22	O	1.005514	0.548336	0.180007
O23	O	1.005501	0.548345	-0.050970
O24	O	0.734678	0.548345	0.179994
O25	O	1.005501	0.677476	-0.050991
O26	O	0.854110	0.677471	0.179978
O27	O	0.734679	0.677476	0.179972
O28	O	1.005508	0.677471	0.050863
O29	O	0.734659	0.908481	-0.180166
O30	O	0.854109	0.446481	0.180017
O31	O	1.005514	0.446475	0.180024
O32	O	1.005506	0.446481	0.050901
O33	O	0.583262	0.908481	-0.051051
O34	O	0.734667	0.908476	-0.051043
O35	O	0.838955	0.601457	0.113959
O36	O	0.928081	0.601458	0.037951
O37	O	0.838947	0.753498	-0.038091
O38	O	0.749822	0.753498	0.037917
C39	C	0.794383	0.474274	-0.000041
C40	C	0.794382	0.405308	-0.000029
C41	C	0.728581	0.429048	-0.056161
C42	C	0.728583	0.364258	-0.056176
C43	C	0.794384	0.275730	-0.000057
C44	C	0.860192	0.251991	0.056078
C45	C	0.860192	0.316779	0.056090
C46	C	0.860191	-0.009296	0.056030
C47	C	0.860184	-0.074085	0.056015
C48	C	0.728582	0.038183	-0.056236
C49	C	0.728583	0.102972	-0.056224
C50	C	0.794393	0.079227	-0.000092
C51	C	0.794391	0.149480	-0.000077
C52	C	0.794383	0.205478	-0.000069
C53	C	0.556124	0.677490	-0.000086
C54	C	0.475261	0.677493	-0.000090
C55	C	0.409591	0.677496	-0.000090
C56	C	0.327209	0.677492	-0.000083
C57	C	0.261551	0.677483	-0.000074
C58	C	0.179164	0.677479	-0.000068
C59	C	1.032644	0.677472	-0.000063
C60	C	1.113507	0.677470	-0.000059
C61	C	0.794372	0.677490	-0.203269
C62	C	0.794368	0.677493	-0.272232
C63	C	0.794385	0.880688	-0.000109
C64	C	0.794386	0.949654	-0.000120
C65	C	0.747841	0.756856	-0.344324
C66	C	0.747848	0.756853	-0.409119
C67	C	0.794378	0.677487	-0.401820
C68	C	0.840911	0.598118	-0.329720
C69	C	0.840908	0.598121	-0.264927
C70	C	0.840926	0.598103	-0.591023
C71	C	0.840923	0.598105	-0.655824
C72	C	0.747865	0.756835	-0.735215
C73	C	0.747862	0.756838	-0.670422
C74	C	0.794399	0.677470	-0.598328
C75	C	0.794391	0.677473	-0.528070
C76	C	0.794381	0.677483	-0.472076
C77	C	0.794396	0.677472	0.203120
C78	C	0.794400	0.677469	0.272082
C79	C	1.032642	0.474266	-0.000029
C80	C	1.113505	0.405296	-0.000014
C81	C	0.794395	0.474266	0.203154
C82	C	0.794398	0.405296	0.272128
C83	C	1.032654	0.474257	0.203166
C84	C	1.113521	0.405285	0.272143
C85	C	0.556114	0.880705	-0.203315
C86	C	0.475247	0.949677	-0.272293
C87	C	0.556126	0.880696	-0.000120
C88	C	0.475263	0.949666	-0.000136
C89	C	0.794373	0.880697	-0.203303
C90	C	0.794370	0.949666	-0.272277
C91	C	1.104952	0.372911	-0.039693
C92	C	1.180924	0.308116	-0.039694
C93	C	1.265448	0.275703	-0.000010
C94	C	1.273999	0.308095	0.039671
C95	C	1.198028	0.372893	0.039667
C96	C	0.840927	0.372904	0.344206
C97	C	0.840927	0.308109	0.409020
C98	C	0.794403	0.275703	0.401755
C99	C	0.747868	0.308101	0.329670
C100	C	0.747864	0.372900	0.264857
C101	C	1.198028	0.372895	0.264861
C102	C	1.274018	0.308097	0.329666
C103	C	1.265500	0.275686	0.401754
C104	C	1.180984	0.308082	0.409036
C105	C	1.104996	0.372883	0.344231
C106	C	0.390740	0.982075	-0.265010
C107	C	0.314750	1.046893	-0.329816
C108	C	0.323268	1.079308	-0.401904
C109	C	0.407784	1.046907	-0.409185
C110	C	0.483772	0.982095	-0.344380
C111	C	0.483816	0.982058	0.039537
C112	C	0.407844	1.046871	0.039520
C113	C	0.323320	1.079286	-0.000166
C114	C	0.314769	1.046891	-0.039844
C115	C	0.390740	0.982084	-0.039831
C116	C	0.840903	0.982052	-0.264988
C117	C	0.840917	1.046847	-0.329790
C118	C	0.794392	1.079260	-0.401881
C119	C	0.747857	1.046868	-0.409168
C120	C	0.747849	0.982069	-0.344367
H121	H	0.674999	0.057511	-0.101944
H122	H	0.245939	1.073294	-0.072155
H123	H	0.383763	0.955712	-0.072135
H124	H	1.036190	0.399247	0.350171
H125	H	0.709952	0.955708	-0.350313
H126	H	0.383788	0.955687	-0.206318
H127	H	0.794405	1.132024	-0.454640
H128	H	0.245942	1.073263	-0.323872
H129	H	0.709977	0.399265	0.206171
H130	H	0.913778	-0.028640	0.101736
O131	O	1.339295	0.212847	0.464724
C132	C	1.339162	0.244499	0.508144
H133	H	1.296182	0.319111	0.470096
H134	H	1.311158	0.220928	0.555061
C135	C	1.487695	0.118485	0.590325
C136	C	1.434911	0.210125	0.543592
H137	H	1.546757	0.097280	0.612195
H138	H	1.487783	0.097159	0.561075
H139	H	1.464347	0.098854	0.629416
H140	H	1.458253	0.229755	0.504497
H141	H	1.434829	0.231455	0.572838
H142	H	0.709944	0.821485	-0.350276
O143	O	0.415949	1.078324	-0.479250
C144	C	0.374706	1.062491	-0.519043
H145	H	0.371263	1.005670	-0.476940
H146	H	0.304594	1.123640	-0.557449
C147	C	0.433242	1.109136	-0.619217
C148	C	0.429020	1.039342	-0.567505
H149	H	0.466743	1.094861	-0.649114
H150	H	0.461026	1.119806	-0.592410
H151	H	0.374812	1.160088	-0.651215
H152	H	0.487448	0.988395	-0.535503
H153	H	0.401247	1.028663	-0.594309
O154	O	0.886128	1.078243	-0.322566
C155	C	0.927193	1.035729	-0.245040
H156	H	0.890690	1.009032	-0.210497
H157	H	0.999410	0.979441	-0.225923
C158	C	0.968639	1.134176	-0.275267
C159	C	0.923801	1.101393	-0.232841
H160	H	0.966551	1.174679	-0.267742
H161	H	0.940976	1.162817	-0.327498
H162	H	1.028816	1.087262	-0.259332
H163	H	0.863624	1.148305	-0.248784
H164	H	0.951454	1.072762	-0.180612
O165	O	0.565984	0.950458	0.078075
C166	C	0.631217	0.886326	0.069572
H167	H	0.601613	0.857978	0.054973
H168	H	0.654977	0.917326	0.022059
C169	C	0.746731	0.847506	0.162119
C170	C	0.710372	0.812683	0.144194
H171	H	0.795559	0.802081	0.208147
H172	H	0.702783	0.890715	0.167846
H173	H	0.766523	0.873338	0.122518
H174	H	0.690570	0.786861	0.183790
H175	H	0.754318	0.769467	0.138475
O176	O	0.885963	0.950651	-0.194948
C177	C	0.826246	0.966468	-0.155086
H178	H	0.756146	1.023270	-0.197139
H179	H	0.827878	0.905304	-0.116627
C180	C	0.939600	0.919874	-0.055038
C181	C	0.853504	0.989644	-0.106689
H182	H	0.956416	0.934166	-0.025181
H183	H	0.979834	0.909214	-0.081891
H184	H	0.940949	0.868910	-0.022996
H185	H	0.852159	1.040603	-0.138735
H186	H	0.813270	1.000312	-0.079839
O187	O	0.249357	1.142235	-0.464774
C188	C	0.172947	1.163887	-0.442878
H189	H	0.190406	1.107043	-0.383056
H190	H	0.147368	1.224771	-0.444062
C191	C	0.079005	1.251896	-0.571646
C192	C	0.100447	1.182076	-0.498174
H193	H	0.034282	1.263120	-0.605757
H194	H	0.130483	1.237312	-0.586399
H195	H	0.057694	1.302625	-0.572622
H196	H	0.121767	1.131347	-0.497197
H197	H	0.048970	1.196652	-0.483422
H198	H	1.204980	0.399274	0.206169
H199	H	1.173943	0.281750	-0.072006
H200	H	0.261467	1.132057	-0.000171
H201	H	1.174062	0.281684	0.467738
O202	O	0.664619	0.515002	-0.110751
C203	C	0.606530	0.522058	-0.160286
H204	H	0.641980	0.459421	-0.157618
H205	H	0.545352	0.532415	-0.142628
C206	C	0.534294	0.677316	-0.245131
C207	C	0.577836	0.600387	-0.241859
H208	H	0.516590	0.725635	-0.295449
H209	H	0.573427	0.672563	-0.211757
H210	H	0.483317	0.685935	-0.230412
H211	H	0.628818	0.591764	-0.256569
H212	H	0.538712	0.605140	-0.275238
O213	O	0.664500	0.387306	-0.110552
C214	C	0.616383	0.353201	-0.076101
H215	H	0.658909	0.294664	-0.014855
H216	H	0.553097	0.405821	-0.077227
C217	C	0.539633	0.395836	-0.194902
C218	C	0.591867	0.323935	-0.119681
H219	H	0.524506	0.377787	-0.221786
H220	H	0.572047	0.418816	-0.218114
H221	H	0.486901	0.439680	-0.195830
H222	H	0.644603	0.280098	-0.118754
H223	H	0.559461	0.300947	-0.096470
H224	H	1.327301	0.222939	-0.000012
H225	H	1.342827	0.281726	0.323724
O226	O	0.886127	0.404317	0.351408
C227	C	0.927199	0.361812	0.428931
H228	H	0.890711	0.335104	0.463485
H229	H	0.999420	0.305534	0.448043
C230	C	0.968611	0.460289	0.398676
C231	C	0.923791	0.427492	0.441116
H232	H	0.966513	0.500801	0.406194
H233	H	0.940943	0.488924	0.346448
H234	H	1.028791	0.413384	0.414608
H235	H	0.863610	0.474395	0.425178
H236	H	0.951448	0.398867	0.493342
O237	O	0.702790	1.078350	-0.479241
C238	C	0.762523	1.062500	-0.519082
H239	H	0.823771	1.054405	-0.494317
H240	H	0.783322	1.000204	-0.513700
C241	C	0.641716	1.150213	-0.633744
C242	C	0.716938	1.140279	-0.603331
H243	H	0.613597	1.198188	-0.685713
H244	H	0.601472	1.160890	-0.606902
H245	H	0.659059	1.098295	-0.629251
H246	H	0.699593	1.192191	-0.607815
H247	H	0.757179	1.129613	-0.630176
O248	O	0.924197	-0.160045	0.110567
C249	C	0.982272	-0.167112	0.160123
H250	H	0.979144	-0.104469	0.129899
H251	H	0.961566	-0.177497	0.212305
C252	C	1.081748	-0.322360	0.221717
C253	C	1.077911	-0.245424	0.184593
H254	H	1.140742	-0.370669	0.236814
H255	H	1.042621	-0.317601	0.188332
H256	H	1.064488	-0.331002	0.265197
H257	H	1.095160	-0.236778	0.141109
H258	H	1.117044	-0.250184	0.217972
O259	O	0.924024	0.165955	0.110556
C260	C	0.909927	0.113859	0.098501
H261	H	0.837218	0.153247	0.064043
H262	H	0.953990	0.092824	0.066239
C263	C	1.022527	-0.016216	0.217782
C264	C	0.933222	0.032159	0.175466
H265	H	1.036900	-0.066614	0.265257
H266	H	1.032027	0.018881	0.225903
H267	H	1.059235	-0.033736	0.190888
H268	H	0.896515	0.049688	0.202355
H269	H	0.923716	-0.002937	0.167351
O270	O	0.565794	0.950688	-0.351595
C271	C	0.557005	0.993215	-0.429120
H272	H	0.489192	1.019930	-0.463673
H273	H	0.563237	1.049492	-0.448220
C274	C	0.713879	0.894751	-0.398891
C275	C	0.630593	0.927556	-0.441328
H276	H	0.759273	0.854252	-0.406422
H277	H	0.719801	0.866101	-0.346660
H278	H	0.719060	0.941655	-0.414812
H279	H	0.625409	0.880653	-0.425400
H280	H	0.624672	0.956196	-0.493556
H281	H	0.878816	0.533472	-0.649873
O282	O	1.356175	0.276477	0.078210
C283	C	1.421385	0.212353	0.069686
H284	H	1.391753	0.184036	0.055067
H285	H	1.445151	0.243353	0.022178
C286	C	1.536933	0.173464	0.162255
C287	C	1.500541	0.138679	0.144305
H288	H	1.585762	0.128020	0.208281
H289	H	1.493001	0.216668	0.167996
H290	H	1.556731	0.199296	0.122659
H291	H	1.480733	0.112858	0.183896
H292	H	1.544471	0.095470	0.138572
H293	H	0.674998	0.175054	-0.101920
O294	O	0.924037	0.293677	0.110711
C295	C	0.919882	0.243666	0.182552
H296	H	0.850486	0.258689	0.176057
H297	H	0.970904	0.171061	0.209020
C298	C	1.025394	0.248367	0.242023
C299	C	0.940159	0.266824	0.234047
H300	H	1.037906	0.262648	0.273790
H301	H	1.028197	0.282057	0.193623
H302	H	1.067903	0.187863	0.264077
H303	H	0.897651	0.327329	0.211985
H304	H	0.937350	0.233144	0.282445
O305	O	0.702792	0.833926	-0.479163
C306	C	0.762519	0.838669	-0.519019
H307	H	0.832616	0.793629	-0.476961
H308	H	0.760889	0.817351	-0.557466
C309	C	0.649181	0.988809	-0.619088
C310	C	0.735274	0.933495	-0.567432
H311	H	0.632374	1.047302	-0.648955
H312	H	0.608940	0.985613	-0.592239
H313	H	0.647833	0.971033	-0.651120
H314	H	0.736618	0.951264	-0.535395
H315	H	0.775514	0.936696	-0.594277
O316	O	0.885976	0.521056	-0.520964
C317	C	0.826224	0.516314	-0.481139
H318	H	0.765002	0.585229	-0.505892
H319	H	0.805384	0.477181	-0.486557
C320	C	0.946999	0.386258	-0.366481
C321	C	0.871808	0.470902	-0.396878
H322	H	0.975118	0.358243	-0.314504
H323	H	0.987256	0.389450	-0.393311
H324	H	0.929621	0.353659	-0.371003
H325	H	0.889188	0.503503	-0.392365
H326	H	0.831555	0.467714	-0.370045
O327	O	1.206502	0.404218	0.078288
C328	C	1.297399	0.361721	0.113297
H329	H	1.337904	0.296048	0.121147
H330	H	1.319784	0.404220	0.076109
C331	C	1.261985	0.427267	0.181528
C332	C	1.311733	0.346602	0.191175
H333	H	1.270828	0.417943	0.229565
H334	H	1.200746	0.455900	0.157939
H335	H	1.280644	0.462674	0.150535
H336	H	1.293065	0.311200	0.222159
H337	H	1.372970	0.317962	0.214771
H338	H	0.414825	1.073236	0.071833
H339	H	0.709969	0.821467	-0.676371
H340	H	0.878802	0.533496	-0.323782
O341	O	0.886117	0.520949	-0.194951
C342	C	0.927204	0.450897	-0.202401
H343	H	0.890713	0.474161	-0.260227
H344	H	0.999418	0.426493	-0.197083
C345	C	0.968649	0.347341	-0.068586
C346	C	0.923825	0.375912	-0.139607
H347	H	0.966570	0.301085	-0.029850
H348	H	0.940971	0.394536	-0.063566
H349	H	1.028824	0.327010	-0.064165
H350	H	0.863650	0.396252	-0.144030
H351	H	0.951493	0.328719	-0.144626
H352	H	1.036135	0.399301	-0.072018
H353	H	0.709976	0.821461	-0.793923
H354	H	0.878825	0.281738	0.467709
H355	H	0.709990	0.281707	0.323766
H356	H	0.794414	0.222940	0.454536
