data_functionalizedCrystal
_audit_creation_method	'MofGen! by Chris Wilmer'
_symmetry_space_group_name_H-M	'P1'
_symmetry_Int_Tables_number	1
_symmetry_cell_setting	triclinic
loop_
_symmetry_equiv_pos_as_xyz
  x,y,z
_cell_length_a	6.817900
_cell_length_b	15.300992
_cell_length_c	9.582880
_cell_angle_alpha	92.795750
_cell_angle_beta	111.207034
_cell_angle_gamma	104.175078
loop_
_atom_site_label
_atom_site_type_symbol
_atom_site_fract_x
_atom_site_fract_y
_atom_site_fract_z
V1	V	-4.120121	-0.124377	-0.467051
O2	O	-4.102208	0.006368	-0.457696
O3	O	-4.074509	-0.246996	-0.464302
O4	O	-4.110836	-0.122292	-0.670544
O5	O	-4.065629	-0.119198	-0.250027
V6	V	-4.598319	-0.108759	-0.441039
O7	O	-4.393060	-0.158638	-0.524110
O8	O	-4.775578	-0.074499	-0.383979
O9	O	-4.420724	0.013860	-0.443787
O10	O	-4.733629	-0.239505	-0.450393
O11	O	-4.770208	-0.113938	-0.658063
O12	O	-4.384397	-0.110844	-0.237545
C13	C	-3.918923	-0.276893	-0.457050
C14	C	-3.963177	-0.377134	-0.456159
C15	C	-3.916975	-0.411462	-0.318649
C16	C	-3.958578	-0.505650	-0.317817
C17	C	-4.046368	-0.565508	-0.454497
C18	C	-4.092578	-0.531175	-0.592018
C19	C	-4.050990	-0.436989	-0.592848
C20	C	-4.179252	-0.727487	-0.590277
C21	C	-4.220840	-0.821680	-0.589446
C22	C	-4.086840	-0.796149	-0.315245
C23	C	-4.045252	-0.701963	-0.316076
C24	C	-4.091461	-0.667636	-0.453597
C25	C	-3.965260	-0.117820	-0.720129
C26	C	-4.038971	-0.116927	-0.886489
C27	C	-4.239652	0.043752	-0.451036
C28	C	-4.174638	0.143992	-0.451936
C29	C	-4.193314	-0.115319	-0.187952
C30	C	-4.098842	-0.116208	-0.021591
H31	H	-4.049208	-0.824101	-0.203270
H32	H	-3.845474	-0.362730	-0.207347
H33	H	-4.216917	-0.699543	-0.702263
C34	C	-4.101810	-0.399229	-0.744120
N35	N	-4.140095	-0.370791	-0.858063
H36	H	-4.292320	-0.870415	-0.700743
H37	H	-4.164075	-0.579919	-0.703305
H38	H	-3.973756	-0.653227	-0.204778
C39	C	-3.907739	-0.543405	-0.166544
N40	N	-3.869442	-0.571841	-0.052598
