data_functionalizedCrystal
_audit_creation_method	'MofGen! by Chris Wilmer'
_symmetry_space_group_name_H-M	'P1'
_symmetry_Int_Tables_number	1
_symmetry_cell_setting	triclinic
loop_
_symmetry_equiv_pos_as_xyz
  x,y,z
_cell_length_a	13.032831
_cell_length_b	12.759394
_cell_length_c	13.032268
_cell_angle_alpha	82.850556
_cell_angle_beta	89.113023
_cell_angle_gamma	82.819699
loop_
_atom_site_label
_atom_site_type_symbol
_atom_site_fract_x
_atom_site_fract_y
_atom_site_fract_z
Zn1	Zn	1.498516	-0.709531	0.780836
Zn2	Zn	1.998516	-0.209531	1.280836
Zn3	Zn	1.520266	-0.866066	0.608856
Zn4	Zn	2.020266	-0.366066	1.108856
Zn5	Zn	1.348372	-0.665642	0.587076
Zn6	Zn	1.848372	-0.165642	1.087076
Zn7	Zn	1.326514	-0.860386	0.758981
Zn8	Zn	1.826514	-0.360386	1.258981
O9	O	1.423417	-0.775406	0.683937
O10	O	1.923417	-0.275406	1.183937
O11	O	1.645323	-0.751041	0.776283
O12	O	2.145323	-0.251041	1.276283
O13	O	1.515714	-0.823489	0.462050
O14	O	2.015714	-0.323489	0.962050
O15	O	1.368334	-0.524452	0.612811
O16	O	1.868334	-0.024452	1.112811
O17	O	1.661303	-0.866047	0.649930
O18	O	2.161303	-0.366047	1.149930
O19	O	1.478644	-0.556698	0.755165
O20	O	1.978644	-0.056698	1.255165
O21	O	1.389424	-0.676238	0.446049
O22	O	1.889424	-0.176238	0.946049
O23	O	1.201551	-0.670730	0.591619
O24	O	1.701551	-0.170730	1.091619
O25	O	1.331080	-0.856365	0.905797
O26	O	1.831080	-0.356365	1.405797
O27	O	1.185492	-0.813807	0.717916
O28	O	1.685492	-0.313807	1.217916
O29	O	1.457449	-0.745533	0.921853
O30	O	1.957449	-0.245533	1.421853
O31	O	1.494519	-1.012324	0.628738
O32	O	1.994519	-0.512324	1.128738
O33	O	1.352170	-1.008150	0.739035
O34	O	1.852170	-0.508150	1.239035
C35	C	1.156204	-0.736890	0.650033
C36	C	1.656204	-0.236890	1.150033
C37	C	1.041886	-0.720441	0.635554
C38	C	1.541886	-0.220441	1.135554
C39	C	1.423358	-1.048362	0.683904
C40	C	1.923358	-0.548362	1.183904
C41	C	1.423423	-1.165151	0.683937
C42	C	1.923423	-0.665151	1.183937
C43	C	0.983013	-0.783991	0.691494
C44	C	1.483013	-0.283991	1.191494
C45	C	0.864859	-0.766992	0.676530
C46	C	1.364859	-0.266992	1.176530
C47	C	1.571737	-1.169469	0.569196
C48	C	2.071737	-0.669469	1.069196
C49	C	1.645919	-1.226494	0.511841
C50	C	2.145919	-0.726494	1.011841
C51	C	1.645976	-1.336227	0.511877
C52	C	2.145976	-0.836227	1.011877
C53	C	1.571844	-1.388938	0.569276
C54	C	2.071844	-0.888938	1.069276
C55	C	1.497662	-1.331913	0.626631
C56	C	1.997662	-0.831913	1.126631
C57	C	1.497612	-1.222177	0.626586
C58	C	1.997612	-0.722177	1.126586
C59	C	1.349354	-1.327597	0.741376
C60	C	1.849354	-0.827597	1.241376
C61	C	1.349291	-1.217862	0.741336
C62	C	1.849291	-0.717862	1.241336
C63	C	1.275223	-1.380309	0.798775
C64	C	1.775223	-0.880309	1.298775
C65	C	1.201034	-1.323282	0.856125
C66	C	1.701034	-0.823282	1.356125
C67	C	1.200980	-1.213542	0.856086
C68	C	1.700980	-0.713542	1.356086
C69	C	1.275109	-1.160838	0.798690
C70	C	1.775109	-0.660838	1.298690
C71	C	1.691673	-0.814073	0.717974
C72	C	2.191673	-0.314073	1.217974
C73	C	1.805988	-0.830551	0.732478
C74	C	2.305988	-0.330551	1.232478
C75	C	1.389400	-0.805211	0.952184
C76	C	1.889400	-0.305211	1.452184
C77	C	1.374904	-0.817912	1.066495
C78	C	1.874904	-0.317912	1.566495
C79	C	1.423501	-0.501391	0.683996
C80	C	1.923501	-0.001391	1.183996
C81	C	1.423537	-0.384622	0.684021
C82	C	1.923537	0.115378	1.184021
C83	C	1.457360	-0.745650	0.416741
C84	C	1.957360	-0.245650	0.916741
C85	C	1.472056	-0.732682	0.302456
C86	C	1.972056	-0.232682	0.802456
C87	C	1.430966	-0.768737	1.125403
C88	C	1.930966	-0.268737	1.625403
C89	C	1.415986	-0.781863	1.243550
C90	C	1.915986	-0.281863	1.743550
H91	H	1.020082	-0.850981	0.750469
H92	H	1.520082	-0.350981	1.250469
H93	H	0.827794	-0.699990	0.617559
H94	H	1.327794	-0.199990	1.117559
C95	C	1.295078	-0.887915	1.116510
C96	C	1.795078	-0.387915	1.616510
H97	H	1.261843	-0.917059	1.064230
H98	H	1.761843	-0.417059	1.564230
H99	H	1.329128	-0.943981	1.163403
H100	H	1.829128	-0.443981	1.663403
H101	H	1.244999	-0.845882	1.152737
H102	H	1.744999	-0.345882	1.652737
C103	C	0.991823	-0.629934	0.555888
C104	C	1.491823	-0.129934	1.055888
H105	H	1.044080	-0.592263	0.522737
H106	H	1.544080	-0.092263	1.022737
H107	H	0.955585	-0.659074	0.505739
H108	H	1.455585	-0.159074	1.005739
H109	H	0.944930	-0.582612	0.590048
H110	H	1.444930	-0.082612	1.090048
C111	C	1.336162	-0.851875	1.293565
C112	C	1.836162	-0.351875	1.793565
H113	H	1.336572	-0.851521	1.366412
H114	H	1.836572	-0.351521	1.866412
H115	H	1.269272	-0.824612	1.267248
H116	H	1.769272	-0.324612	1.767248
H117	H	1.353415	-0.922699	1.277906
H118	H	1.853415	-0.422699	1.777906
H119	H	0.843051	-0.897544	0.791460
H120	H	1.343051	-0.397544	1.291460
H121	H	1.571687	-1.080115	0.569147
H122	H	2.071687	-0.580115	1.069147
C123	C	1.119382	-1.150819	0.919179
C124	C	1.619382	-0.650819	1.419179
H125	H	1.129965	-1.077916	0.910944
H126	H	1.629965	-0.577916	1.410944
H127	H	1.052213	-1.157239	0.895324
H128	H	1.552213	-0.657239	1.395324
H129	H	1.125642	-1.178601	0.990203
H130	H	1.625642	-0.678601	1.490203
C131	C	1.727458	-1.168510	0.448707
C132	C	2.227458	-0.668510	0.948707
H133	H	1.716798	-1.094988	0.456890
H134	H	2.216798	-0.594988	0.956890
H135	H	1.794643	-1.198061	0.472578
H136	H	2.294643	-0.698061	0.972578
H137	H	1.721221	-1.176698	0.377695
H138	H	2.221221	-0.676698	0.877695
H139	H	1.531142	-0.680853	1.265427
H140	H	2.031142	-0.180853	1.765427
C141	C	1.510792	-0.698737	1.075384
C142	C	2.010792	-0.198737	1.575384
H143	H	1.510394	-0.699104	1.002538
H144	H	2.010394	-0.199104	1.502538
H145	H	1.493557	-0.627917	1.091044
H146	H	1.993557	-0.127917	1.591044
H147	H	1.577683	-0.726019	1.101703
H148	H	2.077683	-0.226019	1.601703
H149	H	1.706386	-1.382658	0.465180
H150	H	2.206386	-0.882658	0.965180
H151	H	1.571905	-1.478291	0.569310
H152	H	2.071905	-0.978291	1.069310
H153	H	1.140686	-1.366210	0.902860
H154	H	1.640686	-0.866210	1.402860
C155	C	1.275282	-1.501011	0.798813
C156	C	1.775282	-1.001011	1.298813
H157	H	1.330071	-1.527424	0.756426
H158	H	1.830071	-1.027424	1.256426
H159	H	1.284613	-1.535725	0.867449
H160	H	1.784613	-1.035725	1.367449
H161	H	1.211193	-1.514348	0.772563
H162	H	1.711193	-1.014348	1.272563
C163	C	1.275052	-1.040135	0.798652
C164	C	1.775052	-0.540135	1.298652
H165	H	1.220254	-1.013718	0.841027
H166	H	1.720254	-0.513718	1.341027
H167	H	1.339137	-1.026794	0.824892
H168	H	1.839137	-0.526794	1.324892
H169	H	1.265712	-1.005424	0.730010
H170	H	1.765712	-0.505424	1.230010
