data_functionalizedCrystal
_audit_creation_method	'MofGen! by Chris Wilmer'
_symmetry_space_group_name_H-M	'P1'
_symmetry_Int_Tables_number	1
_symmetry_cell_setting	triclinic
loop_
_symmetry_equiv_pos_as_xyz
  x,y,z
_cell_length_a	10.967926
_cell_length_b	12.837942
_cell_length_c	9.482900
_cell_angle_alpha	100.328050
_cell_angle_beta	92.549900
_cell_angle_gamma	89.656601
loop_
_atom_site_label
_atom_site_type_symbol
_atom_site_fract_x
_atom_site_fract_y
_atom_site_fract_z
O1	O	1.631220	0.183842	0.287779
O2	O	1.282268	0.186126	0.200353
O3	O	1.449005	0.033767	0.242136
O4	O	1.464483	0.336201	0.245996
O5	O	1.415152	0.064845	0.475445
O6	O	1.248415	0.217204	0.433662
O7	O	1.597367	0.214920	0.521088
Cu8	Cu	1.419800	0.218899	0.498678
Cu9	Cu	1.459835	0.182146	0.222763
O10	O	1.430630	0.367279	0.479305
C11	C	1.220367	0.199150	0.305739
C12	C	1.086355	0.191646	0.272164
C13	C	1.009072	0.204399	0.378056
C14	C	0.870564	0.196643	0.343357
C15	C	1.426851	0.010472	0.357480
C16	C	1.411259	-0.105240	0.353571
C17	C	1.598705	-0.338566	0.400504
C18	C	1.584061	-0.447289	0.396832
C19	C	1.367330	-0.431412	0.342548
C20	C	1.381974	-0.322689	0.346219
C21	C	1.497665	-0.276270	0.375200
C22	C	1.512306	-0.167544	0.378881
C23	C	1.295578	-0.151670	0.324587
C24	C	1.280934	-0.260393	0.320915
C25	C	1.659269	0.201895	0.415699
C26	C	1.793281	0.209398	0.449265
C27	C	1.452784	0.390573	0.363958
C28	C	1.468377	0.506284	0.367857
N29	N	1.391650	0.244749	0.692744
N30	N	1.487994	0.156289	0.028699
C31	C	1.451523	0.189765	0.779947
C32	C	1.428111	0.211281	0.941498
H33	H	1.606506	-0.129751	0.402484
H34	H	1.692902	-0.300769	0.424115
H35	H	1.049979	0.174982	0.155818
C36	C	1.058200	0.226909	0.535233
H37	H	1.144848	0.229177	0.537935
H38	H	1.032286	0.172405	0.582938
H39	H	1.027785	0.293051	0.581791
H40	H	0.834194	0.179979	0.227003
C41	C	0.842401	0.231908	0.606450
H42	H	0.929049	0.234176	0.609155
H43	H	0.816485	0.177404	0.654153
H44	H	0.811985	0.298050	0.653008
C45	C	1.335446	0.296399	1.002191
H46	H	1.331873	0.299700	1.102810
H47	H	1.257145	0.278794	0.957721
H48	H	1.360170	0.363225	0.983506
C49	C	1.695203	-0.515810	0.424674
H50	H	1.766196	-0.472588	0.442469
H51	H	1.705800	-0.569389	0.343013
H52	H	1.682191	-0.547714	0.505744
C53	C	1.240085	-0.482486	0.310671
H54	H	1.245840	-0.556158	0.312116
H55	H	1.209756	-0.472240	0.218762
H56	H	1.186159	-0.450577	0.381496
C57	C	1.298988	0.329863	0.753444
H58	H	1.295416	0.333164	0.854063
H59	H	1.220688	0.312259	0.708974
H60	H	1.323713	0.396689	0.734759
H61	H	1.186743	-0.298204	0.297314
H62	H	1.213302	-0.100935	0.303994
C63	C	1.544184	0.104651	0.719247
H64	H	1.547768	0.101360	0.618631
H65	H	1.519473	0.037829	0.737939
H66	H	1.622490	0.122267	0.763716
H67	H	1.556585	0.093277	0.983764
