data_functionalizedCrystal
_audit_creation_method	'MofGen! by Chris Wilmer'
_symmetry_space_group_name_H-M	'P1'
_symmetry_Int_Tables_number	1
_symmetry_cell_setting	triclinic
loop_
_symmetry_equiv_pos_as_xyz
  x,y,z
_cell_length_a	14.519731
_cell_length_b	11.792241
_cell_length_c	10.868271
_cell_angle_alpha	89.999850
_cell_angle_beta	89.995592
_cell_angle_gamma	83.941134
loop_
_atom_site_label
_atom_site_type_symbol
_atom_site_fract_x
_atom_site_fract_y
_atom_site_fract_z
O1	O	1.224400	0.148896	-0.102311
O2	O	1.557733	0.482229	0.231022
O3	O	1.891067	0.815563	0.564356
O4	O	0.955990	0.166392	-0.102311
O5	O	1.289323	0.499725	0.231022
O6	O	1.622656	0.833058	0.564355
O7	O	1.096709	-0.007562	-0.102318
O8	O	1.430042	0.325771	0.231015
O9	O	1.763375	0.659105	0.564348
O10	O	1.083681	0.322850	-0.102304
O11	O	1.417015	0.656183	0.231030
O12	O	1.750348	0.989517	0.564363
O13	O	1.096697	-0.007569	0.102326
O14	O	1.430030	0.325764	0.435660
O15	O	1.763364	0.659098	0.768993
O16	O	0.955978	0.166385	0.102333
O17	O	1.289312	0.499718	0.435667
O18	O	1.622645	0.833052	0.769000
O19	O	1.224388	0.148889	0.102334
O20	O	1.557722	0.482223	0.435667
O21	O	1.891055	0.815556	0.769000
Zn22	Zn	1.090181	0.157636	0.134825
Zn23	Zn	1.423515	0.490969	0.468159
Zn24	Zn	1.756848	0.824303	0.801492
Zn25	Zn	1.090197	0.157645	-0.134803
Zn26	Zn	1.423530	0.490978	0.198531
Zn27	Zn	1.756863	0.824312	0.531864
O28	O	1.083670	0.322843	0.102341
O29	O	1.417003	0.656177	0.435674
O30	O	1.750336	0.989510	0.769008
C31	C	1.095884	-0.049852	-0.000001
C32	C	1.429218	0.283481	0.333333
C33	C	1.762551	0.616815	0.666666
C34	C	1.093435	-0.175852	-0.000014
C35	C	1.426768	0.157481	0.333319
C36	C	1.760102	0.490814	0.666653
C37	C	0.921622	0.165569	0.000011
C38	C	1.254955	0.498902	0.333344
C39	C	1.588288	0.832235	0.666678
C40	C	0.819232	0.163112	0.000010
C41	C	1.152566	0.496445	0.333343
C42	C	1.485899	0.829779	0.666677
C43	C	0.736081	0.161116	0.000005
C44	C	1.069414	0.494449	0.333338
C45	C	1.402748	0.827783	0.666672
C46	C	0.631763	0.158622	0.000004
C47	C	0.965096	0.491955	0.333338
C48	C	1.298430	0.825289	0.666671
C49	C	0.548617	0.156642	0.000005
C50	C	0.881950	0.489976	0.333338
C51	C	1.215283	0.823309	0.666671
C52	C	0.444292	0.154149	0.000002
C53	C	0.777626	0.487482	0.333335
C54	C	1.110959	0.820815	0.666668
C55	C	1.258757	0.149713	0.000009
C56	C	1.592090	0.483046	0.333342
C57	C	1.925423	0.816379	0.666676
C58	C	1.361146	0.152169	0.000002
C59	C	1.694479	0.485502	0.333335
C60	C	2.027813	0.818836	0.666668
C61	C	1.084494	0.365133	0.000020
C62	C	1.417827	0.698466	0.333354
C63	C	1.751160	1.031800	0.666687
C64	C	1.086943	0.491133	0.000026
C65	C	1.420276	0.824467	0.333359
C66	C	1.753610	1.157800	0.666693
N67	N	1.090178	0.157629	0.318839
N68	N	1.423511	0.490963	0.652173
N69	N	1.756844	0.824296	0.985506
C70	C	1.091447	0.721821	-0.000005
C71	C	1.424780	1.055154	0.333328
C72	C	1.758114	1.388488	0.666662
C73	C	1.088944	0.593450	0.000012
C74	C	1.422278	0.926783	0.333345
C75	C	1.755611	1.260116	0.666679
N76	N	1.090208	0.157643	-0.318817
N77	N	1.423541	0.490976	0.014516
N78	N	1.756874	0.824309	0.347850
C79	C	1.090192	0.157643	0.569845
C80	C	1.423525	0.490976	0.903179
C81	C	1.756859	0.824309	1.236512
C82	C	1.090181	0.157639	0.430168
C83	C	1.423514	0.490972	0.763501
C84	C	1.756848	0.824305	1.096835
