data_functionalizedCrystal
_audit_creation_method	'MofGen! by Chris Wilmer'
_symmetry_space_group_name_H-M	'P1'
_symmetry_Int_Tables_number	1
_symmetry_cell_setting	triclinic
loop_
_symmetry_equiv_pos_as_xyz
  x,y,z
_cell_length_a	6.817900
_cell_length_b	17.078472
_cell_length_c	14.858572
_cell_angle_alpha	96.030459
_cell_angle_beta	104.524003
_cell_angle_gamma	99.306020
loop_
_atom_site_label
_atom_site_type_symbol
_atom_site_fract_x
_atom_site_fract_y
_atom_site_fract_z
V1	V	-4.017389	-0.110266	-0.289866
O2	O	-4.026521	0.004785	-0.284445
O3	O	-3.948350	-0.218146	-0.287791
O4	O	-3.974308	-0.108796	-0.416329
O5	O	-4.000383	-0.105322	-0.155017
V6	V	-4.503002	-0.096478	-0.273749
O7	O	-4.274063	-0.140512	-0.325222
O8	O	-4.696526	-0.066233	-0.238393
O9	O	-4.348835	0.011401	-0.275823
O10	O	-4.611268	-0.211530	-0.279170
O11	O	-4.637405	-0.101423	-0.408598
O12	O	-4.322877	-0.097949	-0.147286
C13	C	-3.788158	-0.244437	-0.283195
C14	C	-3.813033	-0.332631	-0.282341
C15	C	-4.006243	-0.378114	-0.286576
C16	C	-4.029607	-0.460982	-0.285779
C17	C	-3.859754	-0.498365	-0.280742
C18	C	-3.666530	-0.452877	-0.276510
C19	C	-3.643172	-0.370011	-0.277313
C20	C	-3.910149	-0.745764	-0.277848
C21	C	-3.933521	-0.828636	-0.277043
C22	C	-4.296598	-0.836735	-0.286314
C23	C	-4.273220	-0.753867	-0.287111
C24	C	-4.080001	-0.708387	-0.282884
N25	N	-3.883630	-0.583069	-0.279924
N26	N	-4.056132	-0.623685	-0.283708
C27	C	-3.821269	-0.104950	-0.447156
C28	C	-3.867193	-0.104461	-0.550540
C29	C	-4.035274	-0.102675	-0.929109
C30	C	-3.988500	-0.103172	-0.823780
C31	C	-3.951235	-0.103569	-0.739828
C32	C	-3.904458	-0.104064	-0.634491
C33	C	-4.172368	0.037688	-0.280417
C34	C	-4.126731	0.125882	-0.281277
C35	C	-4.139257	-0.101798	-0.116454
C36	C	-4.072573	-0.102282	-0.013069
H37	H	-3.752820	-0.708743	-0.274401
O38	O	-3.501727	-0.489310	-0.271580
C39	C	-3.563779	-0.572205	-0.271799
H40	H	-3.708582	-0.583020	-0.246098
H41	H	-3.598296	-0.605631	-0.346298
C42	C	-3.211477	-0.589713	-0.237689
C43	C	-3.389317	-0.602994	-0.206114
H44	H	-3.103860	-0.608706	-0.197175
H45	H	-3.169671	-0.533865	-0.237544
H46	H	-3.240270	-0.617568	-0.299771
H47	H	-3.360530	-0.575131	-0.144039
H48	H	-3.431115	-0.658838	-0.206247
H49	H	-3.485844	-0.332980	-0.273869
O50	O	-4.484244	-0.880860	-0.290263
C51	C	-4.549609	-0.852158	-0.212387
H52	H	-4.409436	-0.819388	-0.153343
H53	H	-4.658144	-0.809048	-0.234039
C54	C	-4.835909	-0.963558	-0.250353
C55	C	-4.663744	-0.923314	-0.177830
H56	H	-4.906322	-1.007449	-0.229037
H57	H	-4.791878	-0.982893	-0.302821
H58	H	-4.926332	-0.927625	-0.268389
H59	H	-4.573314	-0.959244	-0.159803
H60	H	-4.707763	-0.903986	-0.125357
O61	O	-4.171153	-0.341731	-0.291590
C62	C	-4.207940	-0.304961	-0.373251
H63	H	-4.059959	-0.292660	-0.396319
H64	H	-4.334109	-0.346534	-0.431885
C65	C	-4.459339	-0.240364	-0.323755
C66	C	-4.277581	-0.225249	-0.352083
H67	H	-4.502306	-0.191195	-0.310700
H68	H	-4.434562	-0.265139	-0.268740
H69	H	-4.564458	-0.275010	-0.372622
H70	H	-4.172459	-0.190612	-0.303212
H71	H	-4.302342	-0.200466	-0.407090
H72	H	-4.186936	-0.498011	-0.289229
H73	H	-3.795207	-0.859073	-0.272962
H74	H	-4.411539	-0.723436	-0.291220
