data_functionalizedCrystal
_audit_creation_method	'MofGen! by Chris Wilmer'
_symmetry_space_group_name_H-M	'P1'
_symmetry_Int_Tables_number	1
_symmetry_cell_setting	triclinic
loop_
_symmetry_equiv_pos_as_xyz
  x,y,z
_cell_length_a	14.519709
_cell_length_b	23.532357
_cell_length_c	13.596369
_cell_angle_alpha	89.988481
_cell_angle_beta	90.000291
_cell_angle_gamma	83.254219
loop_
_atom_site_label
_atom_site_type_symbol
_atom_site_fract_x
_atom_site_fract_y
_atom_site_fract_z
O1	O	1.222963	0.074656	-0.081676
O2	O	0.954380	0.083447	-0.081707
O3	O	1.096795	-0.003846	-0.081670
O4	O	1.080549	0.161948	-0.081713
O5	O	1.096781	-0.003850	0.081912
O6	O	0.954366	0.083443	0.081876
O7	O	1.222949	0.074651	0.081907
Zn8	Zn	1.088655	0.079046	0.107864
Zn9	Zn	1.088674	0.079052	-0.107664
O10	O	1.080535	0.161944	0.081870
C11	C	0.920018	0.083035	0.000080
C12	C	0.817652	0.081807	0.000069
C13	C	1.096382	-0.025066	0.000124
C14	C	1.095160	-0.088290	0.000133
C15	C	0.442811	0.077287	0.000115
C16	C	0.547104	0.078543	0.000102
C17	C	0.630228	0.079547	0.000091
C18	C	0.734527	0.080803	0.000080
C19	C	1.087497	-0.480334	-0.089090
C20	C	1.086336	-0.539739	-0.089096
O21	O	1.085710	-0.570456	-0.164931
N22	N	1.085752	-0.569455	0.000072
C23	C	1.086321	-0.539763	0.089251
O24	O	1.085717	-0.570493	0.165095
C25	C	1.087475	-0.480359	0.089256
C26	C	1.088068	-0.450646	0.000083
C27	C	1.088089	-0.450621	-0.178256
C28	C	1.089252	-0.391221	-0.178250
C29	C	1.089823	-0.361533	-0.089078
C30	C	1.089232	-0.391246	0.000089
C31	C	1.088037	-0.450667	0.178434
C32	C	1.089191	-0.391259	0.178431
C33	C	1.089784	-0.361546	0.089258
C34	C	1.090966	-0.302157	0.089267
N35	N	1.091549	-0.272441	0.000099
C36	C	1.090978	-0.302129	-0.089073
C37	C	1.083894	-0.664515	0.089235
C38	C	1.082746	-0.723919	0.089231
C39	C	1.082759	-0.723890	-0.089116
C40	C	1.083914	-0.664486	-0.089112
C41	C	1.084478	-0.634799	0.000067
C42	C	1.093422	-0.177384	-0.089053
C43	C	1.094589	-0.117978	-0.089039
C44	C	1.094570	-0.118011	0.089307
C45	C	1.093408	-0.177412	0.089294
C46	C	1.092831	-0.207096	0.000106
O47	O	1.091588	-0.271402	0.165063
O48	O	1.091570	-0.271390	-0.164904
C49	C	1.257311	0.075063	0.000117
C50	C	1.359678	0.076291	0.000122
C51	C	1.080948	0.183165	0.000073
C52	C	1.082170	0.246389	0.000058
N53	N	1.088650	0.079042	0.254955
N54	N	1.088687	0.079052	-0.254756
C55	C	1.088673	0.079053	0.656246
C56	C	1.088664	0.079052	0.544595
C57	C	1.088662	0.079048	0.455604
C58	C	1.088652	0.079045	0.343946
H59	H	1.095073	-0.093789	-0.161658
H60	H	1.092934	-0.201606	0.161906
Br61	Br	1.092637	-0.217660	-0.210096
Br62	Br	1.090050	-0.350905	-0.299278
H63	H	1.084356	-0.640348	0.161859
Br64	Br	1.087313	-0.490901	-0.299293
H65	H	1.082277	-0.748107	0.161845
Br66	Br	1.084718	-0.624168	-0.210137
Br67	Br	1.087229	-0.490976	0.299464
Br68	Br	1.095348	-0.077710	0.210322
Br69	Br	1.081979	-0.764192	-0.210138
H70	H	1.089637	-0.367089	0.251053
