data_functionalizedCrystal
_audit_creation_method	'MofGen! by Chris Wilmer'
_symmetry_space_group_name_H-M	'P1'
_symmetry_Int_Tables_number	1
_symmetry_cell_setting	triclinic
loop_
_symmetry_equiv_pos_as_xyz
  x,y,z
_cell_length_a	19.077105
_cell_length_b	13.032721
_cell_length_c	19.076919
_cell_angle_alpha	99.138159
_cell_angle_beta	90.076224
_cell_angle_gamma	95.201395
loop_
_atom_site_label
_atom_site_type_symbol
_atom_site_fract_x
_atom_site_fract_y
_atom_site_fract_z
Zn1	Zn	1.013397	-0.505360	-0.481832
Zn2	Zn	1.513397	-0.005360	0.018168
Zn3	Zn	1.003124	-0.673317	-0.378090
Zn4	Zn	1.503124	-0.173317	0.121910
Zn5	Zn	0.901858	-0.491366	-0.358479
Zn6	Zn	1.401858	0.008634	0.141521
Zn7	Zn	0.881001	-0.672687	-0.490791
Zn8	Zn	1.381001	-0.172687	0.009209
O9	O	0.949845	-0.585683	-0.427298
O10	O	1.449845	-0.085683	0.072702
O11	O	1.109823	-0.533760	-0.472529
O12	O	1.609823	-0.033760	0.027471
O13	O	0.994119	-0.643588	-0.276699
O14	O	1.494119	-0.143588	0.223301
O15	O	0.929682	-0.347048	-0.362886
O16	O	1.429682	0.152952	0.137114
O17	O	1.102275	-0.657157	-0.396309
O18	O	1.602275	-0.157157	0.103691
O19	O	1.011630	-0.357329	-0.453513
O20	O	1.511630	0.142671	0.046487
O21	O	0.919720	-0.509909	-0.262291
O22	O	1.419720	-0.009909	0.237709
O23	O	0.801303	-0.509299	-0.371572
O24	O	1.301303	-0.009299	0.128428
O25	O	0.894135	-0.656084	-0.588392
O26	O	1.394135	-0.156084	-0.088392
O27	O	0.785980	-0.642515	-0.468781
O28	O	1.285980	-0.142515	0.031219
O29	O	0.991406	-0.533149	-0.581810
O30	O	1.491406	-0.033149	-0.081810
O31	O	0.973896	-0.819408	-0.404996
O32	O	1.473896	-0.319408	0.095004
O33	O	0.884173	-0.818945	-0.487797
O34	O	1.384173	-0.318945	0.012203
C35	C	0.768286	-0.574321	-0.419021
C36	C	1.268286	-0.074321	0.080979
C37	C	0.690611	-0.569486	-0.415499
C38	C	1.190611	-0.069486	0.084501
C39	C	0.646154	-0.636670	-0.464393
C40	C	1.146154	-0.136670	0.035607
C41	C	0.573171	-0.632114	-0.461086
C42	C	1.073171	-0.132114	0.038914
C43	C	0.544646	-0.560378	-0.408881
C44	C	1.044646	-0.060378	0.091119
C45	C	0.589109	-0.493187	-0.359985
C46	C	1.089109	0.006813	0.140015
C47	C	0.662091	-0.497739	-0.363296
C48	C	1.162091	0.002261	0.136704
C49	C	0.327230	-0.539312	-0.393562
C50	C	0.827230	-0.039312	0.106438
C51	C	0.254242	-0.534767	-0.390254
C52	C	0.754242	-0.034767	0.109746
C53	C	0.238309	-0.673693	-0.491357
C54	C	0.738309	-0.173693	0.008643
C55	C	0.311292	-0.678243	-0.494660
C56	C	0.811292	-0.178243	0.005340
C57	C	0.355749	-0.611048	-0.445766
C58	C	0.855749	-0.111048	0.054234
N59	N	0.470046	-0.555721	-0.405499
N60	N	0.970046	-0.055721	0.094501
N61	N	0.430348	-0.615700	-0.449153
N62	N	0.930348	-0.115700	0.050847
C63	C	0.925675	-0.857080	-0.449513
C64	C	1.425675	-0.357080	0.050487
C65	C	0.915397	-0.973191	-0.459043
C66	C	1.415397	-0.473191	0.040957
C67	C	0.955245	-1.025155	-0.422357
C68	C	1.455245	-0.525155	0.077643
C69	C	0.944623	-1.145161	-0.432206
C70	C	1.444623	-0.645161	0.067794
C71	C	1.132113	-0.597090	-0.435607
C72	C	1.632113	-0.097090	0.064393
C73	C	1.209785	-0.601951	-0.439148
C74	C	1.709785	-0.101951	0.060852
C75	C	0.941590	-0.596107	-0.611432
C76	C	1.441590	-0.096107	-0.111432
C77	C	0.938072	-0.600549	-0.689899
C78	C	1.438072	-0.100549	-0.189899
C79	C	0.974128	-0.313227	-0.405012
C80	C	1.474128	0.186773	0.094988
C81	C	0.984476	-0.197123	-0.395516
C82	C	1.484476	0.302877	0.104484
C83	C	0.987061	-0.538633	-0.723338
C84	C	1.487061	-0.038633	-0.223338
C85	C	0.983747	-0.542803	-0.797065
C86	C	1.483747	-0.042803	-0.297065
C87	C	0.931448	-0.608894	-0.837354
C88	C	1.431448	-0.108894	-0.337354
C89	C	0.882454	-0.670812	-0.803910
C90	C	1.382454	-0.170812	-0.303910
C91	C	0.885765	-0.666637	-0.730183
C92	C	1.385765	-0.166637	-0.230183
C93	C	0.916112	-0.628240	-1.058220
C94	C	1.416112	-0.128240	-0.558220
C95	C	0.912806	-0.632414	-1.131952
C96	C	1.412806	-0.132414	-0.631952
C97	C	1.014098	-0.504402	-1.125102
C98	C	1.514098	-0.004402	-0.625102
C99	C	1.017407	-0.500237	-1.051375
C100	C	1.517407	-0.000237	-0.551375
C101	C	0.968412	-0.562151	-1.017937
C102	C	1.468412	-0.062151	-0.517937
N103	N	0.928061	-0.613160	-0.912715
N104	N	1.428061	-0.113160	-0.412715
N105	N	0.971796	-0.557879	-0.942576
N106	N	1.471796	-0.057879	-0.442576
C107	C	0.958115	-0.575226	-0.243875
C108	C	1.458115	-0.075226	0.256125
C109	C	0.961794	-0.570498	-0.165391
C110	C	1.461794	-0.070498	0.334609
H111	H	0.536976	-0.686823	-0.500901
H112	H	1.036976	-0.186823	-0.000901
N113	N	1.010857	-0.966416	-0.371099
N114	N	1.510857	-0.466416	0.128901
H115	H	1.010563	-0.889013	-0.371331
H116	H	1.510563	-0.389013	0.128669
H117	H	1.000609	-0.981939	-0.321730
H118	H	1.500609	-0.481939	0.178270
H119	H	0.902645	-1.189513	-0.470911
H120	H	1.402645	-0.689513	0.029089
N121	N	0.223463	-0.457408	-0.333942
N122	N	0.723463	0.042592	0.166058
H123	H	0.242297	-0.384205	-0.339450
H124	H	0.742297	0.115795	0.160550
H125	H	0.170488	-0.464839	-0.339304
H126	H	0.670488	0.035161	0.160696
N127	N	0.558341	-0.415833	-0.303669
N128	N	1.058341	0.084167	0.196331
H129	H	0.531073	-0.367230	-0.327071
H130	H	1.031073	0.132770	0.172929
H131	H	0.525790	-0.454569	-0.273028
H132	H	1.025790	0.045431	0.226972
N133	N	0.826048	-0.742089	-0.847372
N134	N	1.326048	-0.242089	-0.347372
H135	H	0.830821	-0.816679	-0.841144
H136	H	1.330821	-0.316679	-0.341144
H137	H	0.778168	-0.721923	-0.830918
H138	H	1.278168	-0.221923	-0.330918
N139	N	0.342057	-0.755620	-0.550963
N140	N	0.842057	-0.255620	-0.050963
H141	H	0.302818	-0.797491	-0.581436
H142	H	0.802818	-0.297491	-0.081436
H143	H	0.374658	-0.716921	-0.581581
H144	H	0.874658	-0.216921	-0.081581
H145	H	1.053987	-0.453994	-1.152335
H146	H	1.553987	0.046006	-0.652335
H147	H	0.363418	-0.484604	-0.353745
H148	H	0.863418	0.015396	0.146255
N149	N	0.856397	-0.703705	-1.175409
N150	N	1.356397	-0.203705	-0.675409
H151	H	0.825860	-0.742293	-1.143040
H152	H	1.325860	-0.242293	-0.643040
H153	H	0.826478	-0.660892	-1.201049
H154	H	1.326478	-0.160892	-0.701049
N155	N	0.863249	-0.694980	-1.022156
N156	N	1.363249	-0.194980	-0.522156
H157	H	0.829612	-0.737471	-1.058867
H158	H	1.329612	-0.237471	-0.558867
H159	H	0.888732	-0.743380	-0.996804
H160	H	1.388732	-0.243380	-0.496804
N161	N	0.859790	-1.031924	-0.510308
N162	N	1.359790	-0.531924	-0.010308
H163	H	0.882720	-1.080765	-0.548025
H164	H	1.382720	-0.580765	-0.048025
H165	H	0.824749	-1.073542	-0.483757
H166	H	1.324749	-0.573542	0.016243
H167	H	1.029650	-0.484818	-0.690541
H168	H	1.529650	0.015182	-0.190541
N169	N	0.710045	-0.425270	-0.310565
N170	N	1.210045	0.074730	0.189435
H171	H	0.680902	-0.379134	-0.276991
H172	H	1.180902	0.120866	0.223009
H173	H	0.738010	-0.467745	-0.282694
H174	H	1.238010	0.032255	0.217306
N175	N	1.040090	-1.138386	-0.344254
N176	N	1.540090	-0.638386	0.155746
H177	H	1.017162	-1.089544	-0.306536
H178	H	1.517162	-0.589544	0.193464
H179	H	1.065205	-1.189622	-0.321180
H180	H	1.565205	-0.689622	0.178820
H181	H	1.023640	-0.492387	-0.824288
H182	H	1.523640	0.007613	-0.324288
N183	N	1.073818	-0.428956	-1.007923
N184	N	1.573818	0.071044	-0.507923
H185	H	1.104350	-0.390364	-1.040294
H186	H	1.604350	0.109636	-0.540294
H187	H	1.051056	-0.377103	-0.972079
H188	H	1.551056	0.122897	-0.472079
H189	H	0.845867	-0.717044	-0.702958
H190	H	1.345867	-0.217044	-0.202958
H191	H	0.669372	-0.695088	-0.506902
H192	H	1.169372	-0.195088	-0.006902
H193	H	0.202105	-0.728397	-0.531164
H194	H	0.702105	-0.228397	-0.031164
