data_functionalizedCrystal
_audit_creation_method	'MofGen! by Chris Wilmer'
_symmetry_space_group_name_H-M	'P1'
_symmetry_Int_Tables_number	1
_symmetry_cell_setting	triclinic
loop_
_symmetry_equiv_pos_as_xyz
  x,y,z
_cell_length_a	17.077404
_cell_length_b	25.639240
_cell_length_c	17.077396
_cell_angle_alpha	89.961743
_cell_angle_beta	89.980499
_cell_angle_gamma	90.032983
loop_
_atom_site_label
_atom_site_type_symbol
_atom_site_fract_x
_atom_site_fract_y
_atom_site_fract_z
Zn1	Zn	1.200001	-0.208148	-0.443789
Zn2	Zn	1.199885	-0.295585	-0.312501
Zn3	Zn	1.068733	-0.208166	-0.312537
Zn4	Zn	1.068678	-0.295554	-0.443725
O5	O	1.134324	-0.251863	-0.378138
O6	O	1.309832	-0.219752	-0.426386
O7	O	1.182462	-0.284010	-0.202659
O8	O	1.086217	-0.134998	-0.329991
O9	O	1.309747	-0.283992	-0.329929
O10	O	1.182659	-0.134985	-0.426421
O11	O	1.086105	-0.219783	-0.202686
O12	O	0.958878	-0.219753	-0.329928
O13	O	1.086124	-0.283939	-0.553580
O14	O	0.958838	-0.283957	-0.426310
O15	O	1.182606	-0.219722	-0.553628
O16	O	1.182409	-0.368746	-0.329866
O17	O	1.086012	-0.368724	-0.426275
C18	C	0.930376	-0.251854	-0.378116
C19	C	0.843126	-0.251862	-0.378126
C20	C	0.802136	-0.285344	-0.428232
C21	C	0.720155	-0.285345	-0.428244
C22	C	0.679167	-0.251867	-0.378146
C23	C	0.720163	-0.218382	-0.328038
C24	C	0.802142	-0.218378	-0.328030
C25	C	0.549293	-0.218392	-0.328057
C26	C	0.467309	-0.218396	-0.328064
C27	C	0.467307	-0.285358	-0.428271
C28	C	0.549285	-0.285355	-0.428263
C29	C	0.590276	-0.251871	-0.378154
C30	C	1.134213	-0.387706	-0.378077
C31	C	1.134238	-0.445820	-0.378076
C32	C	1.184567	-0.806137	-0.428440
C33	C	1.184590	-0.860742	-0.428456
O34	O	1.227249	-0.888940	-0.471213
N35	N	1.134433	-0.888102	-0.378214
C36	C	1.084244	-0.860856	-0.327958
O37	O	1.041584	-0.889142	-0.285226
C38	C	1.084218	-0.806252	-0.327947
C39	C	1.134383	-0.778895	-0.378187
C40	C	1.234727	-0.778780	-0.478676
C41	C	1.234705	-0.724179	-0.478659
C42	C	1.184522	-0.696936	-0.428406
C43	C	1.134361	-0.724294	-0.378169
C44	C	1.034026	-0.779007	-0.277696
C45	C	1.034003	-0.724400	-0.277689
C46	C	1.084169	-0.697042	-0.327929
C47	C	1.084156	-0.642451	-0.327899
N48	N	1.134312	-0.615090	-0.378141
C49	C	1.184495	-0.642333	-0.428394
C50	C	1.084303	-0.975526	-0.327987
C51	C	1.084333	-1.030129	-0.327994
C52	C	1.184677	-1.030011	-0.428493
C53	C	1.184651	-0.975408	-0.428481
C54	C	1.134460	-0.948166	-0.378229
C55	C	1.184445	-0.527668	-0.428354
C56	C	1.184421	-0.473063	-0.428330
C57	C	1.084074	-0.473185	-0.327834
C58	C	1.084101	-0.527786	-0.327855
C59	C	1.134289	-0.555026	-0.378121
O60	O	1.041516	-0.614218	-0.285165
O61	O	1.227141	-0.614040	-0.471127
C62	C	1.339068	-0.251873	-0.378160
C63	C	1.426318	-0.251877	-0.378170
C64	C	1.134372	-0.251825	-0.582882
C65	C	1.134392	-0.251808	-0.670132
C66	C	1.134457	-0.115490	-0.378217
C67	C	1.134513	-0.057376	-0.378251
C68	C	1.184632	-0.218368	-0.711149
C69	C	1.184641	-0.218350	-0.793129
C70	C	1.134414	-0.251777	-0.834092
C71	C	1.084168	-0.285219	-0.793070
C72	C	1.084156	-0.285233	-0.711091
C73	C	1.084200	-0.285187	-0.963940
C74	C	1.084214	-0.285174	-1.045925
C75	C	1.184686	-0.218304	-1.045978
C76	C	1.184673	-0.218319	-0.963999
C77	C	1.134428	-0.251762	-0.922983
C78	C	1.134322	-0.251864	-0.174190
C79	C	1.134454	-0.251733	-0.086941
H80	H	0.686785	-0.312609	-0.469045
C81	C	1.073207	-0.355533	-0.885214
C82	C	1.028957	-0.321962	-0.838094
H83	H	1.039120	-0.378219	-0.913004
H84	H	1.103123	-0.335615	-0.921372
H85	H	1.107379	-0.375538	-0.853217
H86	H	0.994788	-0.301955	-0.870091
H87	H	0.999028	-0.341883	-0.801931
C88	C	0.641434	-0.355688	-0.438952
C89	C	0.594343	-0.322154	-0.483331
H90	H	0.669247	-0.378406	-0.472952
H91	H	0.677573	-0.335745	-0.409114
H92	H	0.609415	-0.375660	-0.404702
H93	H	0.626363	-0.302178	-0.517577
H94	H	0.558201	-0.342098	-0.513182
H95	H	1.043312	-0.312391	-1.079274
C96	C	0.985127	-0.981136	-0.228641
C97	C	1.029138	-0.945585	-0.272734
H98	H	0.951074	-0.962652	-0.194528
H99	H	0.955093	-1.002430	-0.262820
H100	H	1.019369	-1.002431	-0.198659
H101	H	0.994896	-0.924292	-0.302721
H102	H	1.059174	-0.924282	-0.238550
H103	H	1.225535	-0.191150	-0.677802
C104	C	1.195467	-0.913941	-0.534071
C105	C	1.239787	-0.945336	-0.483710
H106	H	1.229508	-0.895376	-0.568165
H107	H	1.161266	-0.935249	-0.564065
H108	H	1.165580	-0.889900	-0.504135
H109	H	1.269670	-0.969380	-0.513646
H110	H	1.274001	-0.924027	-0.453713
H111	H	1.043237	-0.312459	-0.677696
H112	H	0.993176	-0.801272	-0.236785
H113	H	0.433928	-0.312621	-0.469074
H114	H	1.225577	-0.191103	-0.930649
H115	H	0.993129	-0.702222	-0.236769
H116	H	1.225596	-0.191073	-1.079378
C117	C	1.229253	-1.113667	-0.473141
C118	C	1.239834	-1.059963	-0.483741
H119	H	1.263299	-1.132158	-0.507250
H120	H	1.240781	-1.122634	-0.420418
H121	H	1.176503	-1.122630	-0.484578
H122	H	1.292583	-1.050999	-0.472298
H123	H	1.228311	-1.050993	-0.536475
C124	C	1.195327	-0.588997	-0.533987
C125	C	1.239613	-0.557607	-0.483604
H126	H	1.229388	-0.607478	-0.568095
H127	H	1.165467	-0.613107	-0.504073
H128	H	1.161101	-0.567693	-0.563971
H129	H	1.273835	-0.578912	-0.453615
H130	H	1.269486	-0.533494	-0.513521
H131	H	0.433938	-0.191129	-0.287279
C132	C	0.984910	-0.522415	-0.228517
C133	C	1.028961	-0.557861	-0.272630
H134	H	0.950862	-0.540980	-0.194432
H135	H	1.019121	-0.501121	-0.198513
H136	H	0.954863	-0.501110	-0.262692
H137	H	1.059013	-0.579163	-0.238455
H138	H	0.994745	-0.579164	-0.302636
C139	C	0.541065	-0.152212	-0.228989
C140	C	0.594352	-0.181591	-0.272967
H141	H	0.568884	-0.129499	-0.194973
H142	H	0.509127	-0.132238	-0.263247
H143	H	0.509054	-0.174975	-0.198909
H144	H	0.626360	-0.158828	-0.303051
H145	H	0.626303	-0.201567	-0.238704
H146	H	0.686784	-0.191121	-0.287251
H147	H	1.275552	-0.701908	-0.519570
H148	H	1.043273	-0.312412	-0.930547
H149	H	0.835503	-0.312607	-0.469025
C150	C	0.793915	-0.152198	-0.228969
C151	C	0.847202	-0.181579	-0.272945
H152	H	0.821735	-0.129482	-0.194958
H153	H	0.761975	-0.132228	-0.263229
H154	H	0.761907	-0.174961	-0.198884
H155	H	0.879207	-0.158817	-0.303034
H156	H	0.879157	-0.201551	-0.238680
H157	H	1.225554	-0.191121	-0.826521
H158	H	1.225274	-0.450790	-0.469241
H159	H	1.275592	-0.800955	-0.519603
C160	C	0.978772	-1.091595	-0.317002
C161	C	1.029193	-1.060197	-0.272765
H162	H	0.944731	-1.110158	-0.282906
H163	H	0.948724	-1.070290	-0.351164
H164	H	1.008667	-1.115638	-0.346926
H165	H	0.999298	-1.036152	-0.242845
H166	H	1.059244	-1.081504	-0.238589
H167	H	1.043217	-0.450996	-0.286916
