data_functionalizedCrystal
_audit_creation_method	'MofGen! by Chris Wilmer'
_symmetry_space_group_name_H-M	'P1'
_symmetry_Int_Tables_number	1
_symmetry_cell_setting	triclinic
loop_
_symmetry_equiv_pos_as_xyz
  x,y,z
_cell_length_a	12.759401
_cell_length_b	12.827892
_cell_length_c	12.759393
_cell_angle_alpha	90.029972
_cell_angle_beta	90.020938
_cell_angle_gamma	90.016917
loop_
_atom_site_label
_atom_site_type_symbol
_atom_site_fract_x
_atom_site_fract_y
_atom_site_fract_z
Zn1	Zn	1.606261	-0.415940	0.594024
Zn2	Zn	1.606150	-0.590717	0.418346
Zn3	Zn	1.430560	-0.415996	0.418359
Zn4	Zn	1.430550	-0.590644	0.593983
O5	O	1.518380	-0.503324	0.506178
O6	O	1.753268	-0.439132	0.570731
O7	O	1.582816	-0.567594	0.271326
O8	O	1.453918	-0.269752	0.441684
O9	O	1.753186	-0.567540	0.441661
O10	O	1.583005	-0.269711	0.570744
O11	O	1.453810	-0.439227	0.271336
O12	O	1.283538	-0.439156	0.441644
O13	O	1.453900	-0.567416	0.741009
O14	O	1.283530	-0.567469	0.570674
O15	O	1.582995	-0.439061	0.741040
O16	O	1.582806	-0.736944	0.441622
O17	O	1.453793	-0.736890	0.570661
C18	C	1.245413	-0.503312	0.506157
C19	C	1.128636	-0.503331	0.506173
C20	C	1.073798	-0.570246	0.573253
C21	C	0.964074	-0.570250	0.573274
C22	C	0.964036	-0.436422	0.439125
C23	C	1.073758	-0.436413	0.439111
C24	C	1.518315	-0.774834	0.506158
C25	C	1.518383	-0.890987	0.506185
C26	C	1.582231	-0.942668	0.570106
C27	C	1.582302	-1.062719	0.570135
C28	C	1.792414	-0.503338	0.506199
C29	C	1.909190	-0.503344	0.506209
C30	C	1.518459	-0.503224	0.780211
C31	C	1.518492	-0.503181	0.896988
C32	C	1.518475	-0.230754	0.506220
C33	C	1.518515	-0.114601	0.506239
C34	C	1.518363	-0.503349	0.233211
C35	C	1.518533	-0.503097	0.116434
C36	C	1.585717	-0.436336	0.951867
C37	C	1.585735	-0.436291	1.061592
C38	C	1.451301	-0.569945	1.061547
C39	C	1.451278	-0.569984	0.951825
H40	H	1.118476	-0.624732	0.627862
H41	H	1.463853	-1.070164	0.451507
H42	H	0.919341	-0.381941	0.384524
H43	H	1.636969	-1.107164	0.624856
H44	H	1.640444	-0.381938	0.907222
Cl45	Cl	1.434060	-0.959885	0.421729
Cl46	Cl	1.142703	-0.352278	0.354781
H47	H	1.636837	-0.898040	0.624814
H48	H	1.640474	-0.381858	1.106270
Cl49	Cl	1.366813	-0.653927	1.130493
H50	H	0.919429	-0.624737	0.627899
Cl51	Cl	1.366754	-0.654019	0.882829
