data_functionalizedCrystal
_audit_creation_method	'MofGen! by Chris Wilmer'
_symmetry_space_group_name_H-M	'P1'
_symmetry_Int_Tables_number	1
_symmetry_cell_setting	triclinic
loop_
_symmetry_equiv_pos_as_xyz
  x,y,z
_cell_length_a	16.109301
_cell_length_b	11.792241
_cell_length_c	15.186229
_cell_angle_alpha	89.996105
_cell_angle_beta	89.999362
_cell_angle_gamma	83.827448
loop_
_atom_site_label
_atom_site_type_symbol
_atom_site_fract_x
_atom_site_fract_y
_atom_site_fract_z
O1	O	1.103817	0.145885	-0.073173
O2	O	0.861841	0.164040	-0.073187
O3	O	0.988701	-0.010259	-0.073174
O4	O	0.976957	0.320185	-0.073187
O5	O	0.988692	-0.010262	0.073284
O6	O	0.861832	0.164038	0.073270
O7	O	1.103809	0.145883	0.073284
Zn8	Zn	0.982819	0.154960	0.096530
Zn9	Zn	0.982830	0.154963	-0.096433
O10	O	0.976948	0.320182	0.073271
C11	C	0.830858	0.163304	0.000040
C12	C	0.738552	0.161099	0.000034
C13	C	0.516743	0.259398	0.000041
C14	C	0.430012	0.257318	0.000047
C15	C	0.448914	0.050517	0.000051
C16	C	0.535642	0.052599	0.000052
C17	C	0.569554	0.157043	0.000042
C18	C	0.396095	0.152880	0.000047
C19	C	0.302059	0.150624	0.000053
C20	C	0.663597	0.159300	0.000037
C21	C	0.987959	-0.052545	0.000055
C22	C	0.985751	-0.178539	0.000054
C23	C	0.981691	-0.409216	0.000039
C24	C	0.983947	-0.280850	0.000047
C25	C	1.134791	0.146619	0.000055
C26	C	1.227097	0.148824	0.000055
C27	C	0.977690	0.362468	0.000040
C28	C	0.979898	0.488462	0.000035
N29	N	0.982817	0.154957	0.228223
N30	N	0.982838	0.154957	-0.228126
C31	C	1.039011	0.077803	0.453952
C32	C	1.039013	0.077800	0.546141
C33	C	0.926639	0.232115	0.546139
C34	C	0.926633	0.232111	0.453951
C35	C	0.982824	0.154957	0.407860
C36	C	0.982832	0.154958	0.592237
C37	C	0.982835	0.154955	0.692193
C38	C	0.982820	0.154957	0.307897
H39	H	0.544351	0.344443	0.000040
Br40	Br	1.115266	-0.026917	0.608694
H41	H	0.421291	-0.034518	0.000064
H42	H	0.578644	-0.030757	0.000055
H43	H	0.880891	0.294934	0.583675
Br44	Br	0.850368	0.336818	0.391389
H45	H	0.387016	0.340666	0.000047
Br46	Br	1.115267	-0.026908	0.391403
