data_functionalizedCrystal
_audit_creation_method	'MofGen! by Chris Wilmer'
_symmetry_space_group_name_H-M	'P1'
_symmetry_Int_Tables_number	1
_symmetry_cell_setting	triclinic
loop_
_symmetry_equiv_pos_as_xyz
  x,y,z
_cell_length_a	9.065215
_cell_length_b	9.065218
_cell_length_c	8.140239
_cell_angle_alpha	89.995101
_cell_angle_beta	90.002571
_cell_angle_gamma	94.984675
loop_
_atom_site_label
_atom_site_type_symbol
_atom_site_fract_x
_atom_site_fract_y
_atom_site_fract_z
O1	O	0.216356	-1.960396	0.136694
O2	O	0.716356	-1.460396	0.636694
O3	O	0.234102	-1.531111	0.136678
O4	O	0.734102	-1.031111	0.636678
O5	O	0.010586	-1.754629	0.136680
O6	O	0.510586	-1.254629	0.636680
O7	O	0.439872	-1.736878	0.136693
O8	O	0.939872	-1.236878	0.636693
O9	O	0.010584	-1.754616	-0.136548
O10	O	0.510584	-1.254616	0.363452
O11	O	0.234100	-1.531098	-0.136549
O12	O	0.734100	-1.031098	0.363451
O13	O	0.216353	-1.960383	-0.136533
O14	O	0.716353	-1.460383	0.363467
Zn15	Zn	0.225226	-1.745739	-0.179922
Zn16	Zn	0.725226	-1.245739	0.320078
Zn17	Zn	0.225230	-1.745755	0.180067
Zn18	Zn	0.725230	-1.245755	0.680067
O19	O	0.439869	-1.736865	-0.136534
O20	O	0.939869	-1.236865	0.363466
C21	C	0.232395	-1.476118	0.000063
C22	C	0.732395	-0.976118	0.500063
C23	C	0.227296	-1.312275	0.000057
C24	C	0.727296	-0.812275	0.500057
C25	C	-0.044402	-1.752917	0.000068
C26	C	0.455598	-1.252917	0.500068
C27	C	-0.208245	-1.747819	0.000072
C28	C	0.291755	-1.247819	0.500072
C29	C	0.494857	-1.738576	0.000081
C30	C	0.994857	-1.238576	0.500081
C31	C	0.658700	-1.743674	0.000087
C32	C	1.158700	-1.243674	0.500087
C33	C	0.218060	-1.015376	0.000076
C34	C	0.718060	-0.515376	0.500076
C35	C	0.223159	-1.179219	0.000062
C36	C	0.723159	-0.679219	0.500062
N37	N	0.225223	-1.745738	-0.425604
N38	N	0.725223	-1.245738	0.074396
N39	N	0.225221	-1.745767	0.425750
N40	N	0.725221	-1.245767	0.925750
