data_functionalizedCrystal
_audit_creation_method	'MofGen! by Chris Wilmer'
_symmetry_space_group_name_H-M	'P1'
_symmetry_Int_Tables_number	1
_symmetry_cell_setting	triclinic
loop_
_symmetry_equiv_pos_as_xyz
  x,y,z
_cell_length_a	10.908878
_cell_length_b	23.532407
_cell_length_c	10.065875
_cell_angle_alpha	98.725374
_cell_angle_beta	83.443480
_cell_angle_gamma	71.466769
loop_
_atom_site_label
_atom_site_type_symbol
_atom_site_fract_x
_atom_site_fract_y
_atom_site_fract_z
O1	O	1.723885	-0.098224	-0.113431
O2	O	1.349457	-0.053700	-0.113455
O3	O	1.547955	-0.159931	-0.113404
O4	O	1.525387	0.008007	-0.113482
O5	O	1.510104	-0.139607	0.113575
O6	O	1.311605	-0.033376	0.113524
O7	O	1.686033	-0.077900	0.113548
Zn8	Zn	1.492810	-0.052411	0.149574
Zn9	Zn	1.542681	-0.079189	-0.149481
O10	O	1.487535	0.028331	0.113497
C11	C	1.282637	-0.039377	0.000032
C12	C	1.139928	-0.026985	0.000024
C13	C	1.091492	-0.072201	0.000044
C14	C	0.943995	-0.059394	0.000037
C15	C	1.528453	-0.170932	0.000092
C16	C	1.526721	-0.233988	0.000113
C17	C	1.402134	-0.488675	0.000020
C18	C	1.403739	-0.429422	0.000030
O19	O	1.304902	-0.383568	-0.000019
N20	N	1.521747	-0.417674	0.000054
C21	C	1.638161	-0.465186	0.000053
O22	O	1.738684	-0.449753	0.000072
C23	C	1.636557	-0.524438	0.000032
C24	C	1.518539	-0.536180	0.000023
C25	C	1.284126	-0.500418	0.000009
C26	C	1.282522	-0.559667	0.000001
C27	C	1.398926	-0.607173	0.000004
C28	C	1.516935	-0.595429	0.000015
C29	C	1.752971	-0.571949	0.000022
C30	C	1.751357	-0.631204	0.000000
C31	C	1.633339	-0.642946	-0.000009
C32	C	1.631735	-0.702183	0.000010
N33	N	1.513726	-0.713931	-0.000014
C34	C	1.397322	-0.666425	-0.000017
C35	C	1.641521	-0.340750	0.000093
C36	C	1.643125	-0.281498	0.000123
C37	C	1.408702	-0.245738	0.000098
C38	C	1.407098	-0.304991	0.000078
C39	C	1.523513	-0.352497	0.000070
C40	C	1.393962	-0.790853	-0.000032
C41	C	1.392367	-0.850109	-0.000035
C42	C	1.626790	-0.885863	-0.000017
C43	C	1.628384	-0.826613	-0.000008
C44	C	1.511961	-0.779108	-0.000020
O45	O	1.730521	-0.748067	0.000054
O46	O	1.296819	-0.681869	-0.000054
C47	C	1.752854	-0.092224	0.000058
C48	C	1.895565	-0.104616	0.000057
C49	C	1.507038	0.039331	-0.000002
C50	C	1.508771	0.102386	-0.000032
N51	N	1.458783	-0.034138	0.353671
N52	N	1.576718	-0.097468	-0.353577
C53	C	1.530834	-0.072834	0.421468
C54	C	1.504656	-0.058766	0.578629
H55	H	0.876270	-0.011200	0.000008
Cl56	Cl	1.196052	-0.146607	0.000076
H57	H	1.310996	-0.314545	0.000076
H58	H	1.423580	-0.015221	0.636928
H59	H	1.657784	-0.141017	0.588123
H60	H	1.377712	0.009405	0.411976
H61	H	1.189331	-0.461743	0.000002
H62	H	0.963290	-0.152812	0.000070
H63	H	1.296257	-0.859663	-0.000036
Cl64	Cl	1.035371	0.047420	-0.000022
Cl65	Cl	1.791494	-0.266743	0.000155
Cl66	Cl	1.897718	-0.690925	-0.000015
H67	H	1.299158	-0.752180	-0.000043
Cl68	Cl	1.787883	-0.400467	0.000100
H69	H	1.849075	-0.562401	0.000028
H70	H	1.186421	-0.569221	-0.000019
H71	H	1.724481	-0.817051	0.000020
Cl72	Cl	1.655708	-0.140164	0.331460
Cl73	Cl	1.773117	-0.945593	-0.000004
H74	H	1.313919	-0.207047	0.000097
