data_functionalizedCrystal
_audit_creation_method	'MofGen! by Chris Wilmer'
_symmetry_space_group_name_H-M	'P1'
_symmetry_Int_Tables_number	1
_symmetry_cell_setting	triclinic
loop_
_symmetry_equiv_pos_as_xyz
  x,y,z
_cell_length_a	27.731996
_cell_length_b	27.731994
_cell_length_c	11.892095
_cell_angle_alpha	86.140354
_cell_angle_beta	93.849943
_cell_angle_gamma	82.620961
loop_
_atom_site_label
_atom_site_type_symbol
_atom_site_fract_x
_atom_site_fract_y
_atom_site_fract_z
O1	O	0.054285	0.644043	-0.093855
O2	O	0.063056	0.503246	-0.093895
O3	O	-0.011728	0.578030	-0.093849
O4	O	0.129069	0.569259	-0.093901
O5	O	-0.005502	0.571794	0.094155
O6	O	0.069282	0.497010	0.094109
O7	O	0.060510	0.637808	0.094149
Zn8	Zn	0.065885	0.566419	0.123978
Zn9	Zn	0.057682	0.574634	-0.123724
O10	O	0.135295	0.563024	0.094103
C11	C	0.065989	0.482121	0.000102
C12	C	0.065446	0.428465	0.000088
C13	C	0.065426	0.092347	0.102614
C14	C	0.063364	-0.109311	0.102628
O15	O	0.065963	-0.138274	0.189784
N16	N	0.059715	-0.131127	0.000147
C17	C	0.056577	-0.102525	-0.102344
O18	O	0.053420	-0.125707	-0.189510
C19	C	0.058635	0.099133	-0.102357
C20	C	0.062289	0.120945	0.000131
C21	C	0.069080	0.114160	0.205093
C22	C	0.069598	0.164571	0.205089
C23	C	0.066461	0.193169	0.102605
C24	C	0.062807	0.171356	0.000126
C25	C	0.055493	0.127735	-0.204847
C26	C	0.056007	0.178152	-0.204841
C27	C	0.059662	0.199965	-0.102353
C28	C	0.060189	0.250366	-0.102362
N29	N	0.063839	0.272182	0.000119
C30	C	0.066975	0.243584	0.102602
C31	C	0.055498	-0.208398	-0.102331
C32	C	0.054984	-0.258813	-0.102328
C33	C	0.061771	-0.265596	0.102645
C34	C	0.062288	-0.215181	0.102641
C35	C	0.059147	-0.186583	0.000150
C36	C	0.068063	0.349451	0.102585
C37	C	0.068582	0.399867	0.102572
C38	C	0.061793	0.406645	-0.102400
C39	C	0.061276	0.356234	-0.102387
C40	C	0.064409	0.327638	0.000115
O41	O	0.057587	0.279359	-0.189472
O42	O	0.070120	0.266777	0.189755
C43	C	0.064908	0.041936	0.102618
C44	C	0.061254	0.020123	0.000140
C45	C	0.058117	0.048721	-0.102344
C46	C	0.060740	-0.030291	0.000142
C47	C	0.063876	-0.058890	0.102626
C48	C	0.067526	-0.037074	0.205106
C49	C	0.068044	0.013337	0.205102
C50	C	0.054468	0.026905	-0.204825
C51	C	0.053951	-0.023506	-0.204812
C52	C	0.057087	-0.052105	-0.102328
C53	C	-0.026622	0.574732	0.000156
C54	C	-0.080278	0.574188	0.000168
C55	C	-0.416389	0.574174	-0.102369
C56	C	-0.618048	0.572114	-0.102390
O57	O	-0.647005	0.574717	-0.189546
N58	N	-0.639871	0.568459	0.000090
C59	C	-0.611276	0.565316	0.102582
O60	O	-0.634465	0.562155	0.189747
C61	C	-0.409618	0.567373	0.102602
C62	C	-0.387798	0.571033	0.000115
C63	C	-0.394569	0.577833	-0.204847
C64	C	-0.344158	0.578351	-0.204841
C65	C	-0.315567	0.575210	-0.102357
C66	C	-0.337387	0.571551	0.000121
C67	C	-0.381024	0.564226	0.205093
C68	C	-0.330606	0.564740	0.205088
C69	C	-0.308786	0.568400	0.102602
C70	C	-0.258385	0.568927	0.102612
N71	N	-0.236561	0.572582	0.000132
C72	C	-0.265152	0.575723	-0.102352
C73	C	-0.717150	0.564237	0.102565
C74	C	-0.767564	0.563724	0.102560
C75	C	-0.774332	0.570521	-0.102412
C76	C	-0.723918	0.571038	-0.102406
C77	C	-0.695327	0.567892	0.000085
C78	C	-0.159285	0.576810	-0.102332
C79	C	-0.108869	0.577330	-0.102316
C80	C	-0.102105	0.570530	0.102655
C81	C	-0.152517	0.570013	0.102641
C82	C	-0.181106	0.573152	0.000138
O83	O	-0.229398	0.566320	0.189723
O84	O	-0.241953	0.578873	-0.189504
C85	C	-0.466801	0.573657	-0.102375
C86	C	-0.488621	0.569998	0.000103
C87	C	-0.460030	0.566856	0.102587
C88	C	-0.539035	0.569484	0.000098
C89	C	-0.567626	0.572626	-0.102386
C90	C	-0.545803	0.576280	-0.204866
C91	C	-0.495392	0.576798	-0.204860
C92	C	-0.481853	0.563201	0.205067
C93	C	-0.532265	0.562685	0.205052
C94	C	-0.560856	0.565826	0.102568
C95	C	0.150189	0.566322	0.000095
C96	C	0.203845	0.566865	0.000076
C97	C	0.057578	0.658933	0.000149
C98	C	0.058120	0.712589	0.000156
N99	N	0.071483	0.560816	0.293029
N100	N	0.052080	0.580241	-0.292775
C101	C	0.013100	0.619231	0.529713
C102	C	0.017016	0.615318	0.648052
C103	C	0.083229	0.549075	0.648050
C104	C	0.079313	0.552988	0.529710
C105	C	0.044247	0.588068	0.470546
C106	C	0.040334	0.591983	0.352204
C107	C	0.106544	0.525738	0.352204
C108	C	0.110460	0.521825	0.470544
H109	H	0.070619	0.326173	0.186052
H110	H	-0.458579	0.560644	0.288524
H111	H	0.065264	-0.197425	0.186095
H112	H	0.052516	0.109984	-0.288303
C113	C	0.076247	0.152788	0.407688
C114	C	0.073608	0.188544	0.317747
H115	H	0.078719	0.167587	0.477242
H116	H	0.104104	0.129364	0.403414
H117	H	0.047704	0.137169	0.403414
H118	H	0.102153	0.204160	0.322016
H119	H	0.045748	0.211976	0.322024
C120	C	0.030869	0.059293	0.324060
C121	C	0.072526	0.082732	0.317759
H122	H	0.032998	0.039896	0.393625
H123	H	0.028625	0.039080	0.263049
H124	H	0.002731	0.083009	0.319797
H125	H	0.100664	0.059015	0.322014
H126	H	0.074775	0.102947	0.378787
H127	H	-0.015449	0.647797	0.481540
C128	C	0.068526	-0.267249	0.305261
C129	C	0.065216	-0.297036	0.215299
H130	H	0.070653	-0.286661	0.374803
H131	H	0.040388	-0.243541	0.301006
H132	H	0.096788	-0.251348	0.300994
H133	H	0.036952	-0.312934	0.219561
H134	H	0.093356	-0.320753	0.219556
H135	H	0.071020	0.031092	0.288558
C136	C	0.007858	-0.070501	-0.323712
C137	C	0.049934	-0.047481	-0.317475
H138	H	0.005378	-0.085302	-0.393260
H139	H	-0.019991	-0.047069	-0.319437
H140	H	0.009658	-0.094751	-0.262675
H141	H	0.048132	-0.023228	-0.378507
H142	H	0.077790	-0.070915	-0.321761
C143	C	-0.250320	0.562507	0.296128
C144	C	-0.299179	0.561283	0.317753
H145	H	-0.230920	0.560370	0.365682
H146	H	-0.247355	0.592187	0.254042
H147	H	-0.239547	0.535788	0.254007
H148	H	-0.309953	0.588004	0.359866
H149	H	-0.302146	0.531599	0.359856
H150	H	0.011783	0.620547	0.304033
H151	H	-0.008348	0.640694	0.696222
C152	C	0.098581	0.478814	0.781160
C153	C	0.121767	0.510517	0.713107
H154	H	0.122373	0.455012	0.821330
H155	H	0.077063	0.463107	0.734997
H156	H	0.080588	0.496822	0.833319
H157	H	0.139756	0.492508	0.660941
H158	H	0.143293	0.526225	0.759274
H159	H	-0.417843	0.580390	-0.288307
H160	H	-0.326397	0.581330	-0.288296
H161	H	0.053450	0.201435	-0.288303
H162	H	0.071560	0.417623	0.186033
H163	H	0.131908	0.500364	0.304017
C164	C	-0.572862	0.623475	-0.379588
C165	C	-0.577233	0.579725	-0.317524
H166	H	-0.592268	0.625597	-0.449132
H167	H	-0.539719	0.624305	-0.394253
H168	H	-0.583644	0.650193	-0.337473
H169	H	-0.566447	0.553007	-0.359635
H170	H	-0.610383	0.578891	-0.302861
C171	C	-0.579257	0.516573	0.323949
C172	C	-0.556242	0.558653	0.317721
H173	H	-0.594058	0.514081	0.393502
H174	H	-0.555822	0.488727	0.319656
H175	H	-0.603506	0.518379	0.262919
H176	H	-0.531990	0.556846	0.378747
H177	H	-0.579679	0.586506	0.322024
C178	C	0.125826	0.451560	0.603648
C179	C	0.149003	0.483268	0.535589
H180	H	0.149622	0.427759	0.643808
H181	H	0.104307	0.435851	0.557491
H182	H	0.107835	0.469565	0.655817
H183	H	0.166990	0.465263	0.483415
H184	H	0.170530	0.498977	0.581751
H185	H	0.052016	-0.276569	-0.185783
C186	C	0.093708	-0.153528	-0.221278
C187	C	0.052051	-0.176967	-0.214998
H188	H	0.091580	-0.134123	-0.290833
H189	H	0.121843	-0.177240	-0.217018
H190	H	0.095949	-0.133316	-0.160249
H191	H	0.049812	-0.197181	-0.276023
H192	H	0.023908	-0.153252	-0.219269
C193	C	0.098328	0.297713	-0.221310
C194	C	0.057264	0.332252	-0.215038
H195	H	0.095849	0.282912	-0.290860
H196	H	0.100115	0.273468	-0.160281
H197	H	0.126869	0.313336	-0.217062
H198	H	0.028724	0.316628	-0.219278
H199	H	0.055472	0.356500	-0.276085
C200	C	0.069740	-0.117369	0.296103
C201	C	0.070969	-0.068516	0.317759
H202	H	0.071860	-0.136780	0.365647
H203	H	0.096461	-0.128139	0.253997
H204	H	0.040061	-0.120322	0.253993
H205	H	0.100650	-0.065563	0.359862
H206	H	0.044246	-0.057743	0.359883
C207	C	0.047713	0.028535	-0.407422
C208	C	0.051024	0.058336	-0.317484
H209	H	0.045591	0.047938	-0.476977
H210	H	0.019453	0.012639	-0.403145
H211	H	0.075853	0.004822	-0.403146
H212	H	0.022882	0.082047	-0.321755
H213	H	0.079286	0.074239	-0.321763
C214	C	-0.120630	0.583994	-0.304928
C215	C	-0.084885	0.581350	-0.214977
H216	H	-0.105823	0.586471	-0.374476
H217	H	-0.144057	0.611849	-0.300659
H218	H	-0.136247	0.555449	-0.300662
H219	H	-0.069271	0.609896	-0.219239
H220	H	-0.061450	0.553492	-0.219249
H221	H	-0.398781	0.561247	0.288548
C222	C	-0.735683	0.577704	-0.305008
C223	C	-0.699935	0.575055	-0.215061
H224	H	-0.720877	0.580180	-0.374558
H225	H	-0.759106	0.605561	-0.300735
H226	H	-0.751303	0.549161	-0.300740
H227	H	-0.684317	0.603599	-0.219325
H228	H	-0.676503	0.547195	-0.219337
C229	C	-0.225654	0.621740	-0.221276
C230	C	-0.190701	0.580261	-0.215008
H231	H	-0.245049	0.623869	-0.290836
H232	H	-0.209752	0.649995	-0.216995
H233	H	-0.245871	0.619483	-0.160254
H234	H	-0.170482	0.582521	-0.276025
H235	H	-0.206605	0.551999	-0.219299
C236	C	-0.854622	0.572743	-0.193413
C237	C	-0.805766	0.573969	-0.215066
H238	H	-0.874027	0.574866	-0.262959
H239	H	-0.865393	0.599463	-0.151314
H240	H	-0.857579	0.543063	-0.151298
H241	H	-0.802807	0.603651	-0.257174
H242	H	-0.794991	0.547246	-0.257183
H243	H	0.059242	0.429939	-0.185839
C244	C	-0.755798	0.557054	0.305163
C245	C	-0.791546	0.559705	0.215217
H246	H	-0.770602	0.554567	0.374714
H247	H	-0.740181	0.585594	0.300909
H248	H	-0.732370	0.529195	0.300876
H249	H	-0.814972	0.587566	0.219499
H250	H	-0.807170	0.531162	0.219473
C251	C	-0.662285	0.602442	0.221503
C252	C	-0.685725	0.560785	0.215230
H253	H	-0.642884	0.600310	0.291055
H254	H	-0.685997	0.630577	0.217244
H255	H	-0.642072	0.604686	0.160471
H256	H	-0.705941	0.558543	0.276258
H257	H	-0.662010	0.532642	0.219501
H258	H	-0.170284	0.567038	0.186093
C259	C	-0.021814	0.568297	0.193652
C260	C	-0.070671	0.567074	0.215303
H261	H	-0.002407	0.566157	0.263198
H262	H	-0.018852	0.597977	0.151568
H263	H	-0.011047	0.541579	0.151522
H264	H	-0.081439	0.593794	0.257426
H265	H	-0.073636	0.537390	0.257405
C266	C	-0.436900	0.539707	-0.323775
C267	C	-0.471421	0.580787	-0.317536
H268	H	-0.422106	0.542163	-0.393345
H269	H	-0.452532	0.511177	-0.319455
H270	H	-0.412644	0.537926	-0.262766
H271	H	-0.495679	0.582566	-0.378541
H272	H	-0.455789	0.609325	-0.321867
