data_functionalizedCrystal
_audit_creation_method	'MofGen! by Chris Wilmer'
_symmetry_space_group_name_H-M	'P1'
_symmetry_Int_Tables_number	1
_symmetry_cell_setting	triclinic
loop_
_symmetry_equiv_pos_as_xyz
  x,y,z
_cell_length_a	14.048226
_cell_length_b	14.971486
_cell_length_c	14.971486
_cell_angle_alpha	96.385817
_cell_angle_beta	89.995493
_cell_angle_gamma	90.001501
loop_
_atom_site_label
_atom_site_type_symbol
_atom_site_fract_x
_atom_site_fract_y
_atom_site_fract_z
O1	O	-0.079047	-1.186947	0.116565
O2	O	-0.079072	-0.926547	0.130523
O3	O	-0.079057	-1.063726	-0.006656
O4	O	-0.079062	-1.049768	0.253744
O5	O	0.079264	-1.063710	-0.006664
O6	O	0.079249	-0.926530	0.130515
O7	O	0.079274	-1.186931	0.116556
Zn8	Zn	0.104399	-1.056728	0.123535
Zn9	Zn	-0.104197	-1.056750	0.123545
O10	O	0.079259	-1.049751	0.253736
C11	C	0.000085	-0.893214	0.129895
C12	C	0.000075	-0.793917	0.128024
N13	N	0.246759	-1.056720	0.123527
C14	C	0.000102	-1.063094	-0.039985
C15	C	0.000097	-1.061223	-0.139282
N16	N	-0.246557	-1.056765	0.123546
C17	C	0.296584	-1.117482	0.062809
C18	C	0.396242	-1.117488	0.062808
C19	C	0.446073	-1.056735	0.123531
C20	C	0.396241	-0.995967	0.184252
C21	C	0.296585	-0.995957	0.184247
C22	C	0.603955	-0.995992	0.184258
C23	C	0.703618	-0.996003	0.184264
C24	C	0.703612	-1.117523	0.062819
C25	C	0.603956	-1.117514	0.062815
C26	C	0.554131	-1.056746	0.123537
C27	C	0.000115	-1.220264	0.117185
C28	C	0.000118	-1.319561	0.119056
C29	C	0.000075	-0.736692	0.208614
C30	C	0.000089	-0.643392	0.206850
C31	C	0.000097	-0.607320	0.124497
C32	C	0.000100	-0.664552	0.043902
C33	C	0.000092	-0.757850	0.045666
C34	C	0.000113	-0.470090	0.040231
C35	C	0.000119	-0.376786	0.038466
C36	C	0.000110	-0.355632	0.201415
C37	C	0.000102	-0.448930	0.203179
C38	C	0.000104	-0.506156	0.122584
C39	C	0.000098	-1.050384	0.287065
C40	C	0.000097	-1.052255	0.386362
C41	C	-0.086205	-1.053143	0.433013
C42	C	-0.086206	-1.054913	0.526311
C43	C	0.000096	-1.055787	0.572958
C44	C	0.086405	-1.054901	0.526300
C45	C	0.086405	-1.053138	0.433002
C46	C	0.086398	-1.058573	0.720763
C47	C	0.086399	-1.060334	0.814067
C48	C	-0.086212	-1.060348	0.814072
C49	C	-0.086212	-1.058585	0.720774
C50	C	0.000097	-1.057697	0.674123
H51	H	0.256018	-1.166957	0.013365
Br52	Br	0.000119	-0.615598	-0.067865
Br53	Br	0.203524	-1.061542	0.877371
Br54	Br	0.000119	-0.547754	-0.069150
H55	H	0.436808	-1.166964	0.013367
H56	H	0.000068	-0.766054	0.275675
Br57	Br	0.771239	-0.913549	0.266677
Br58	Br	0.203533	-1.057376	0.657449
H59	H	0.000126	-0.347419	-0.028593
H60	H	0.563384	-1.166987	0.013375
H61	H	0.000092	-0.804443	-0.019958
H62	H	0.156681	-1.052414	0.395020
Br63	Br	0.000107	-0.277970	0.310796
H64	H	0.000088	-0.596803	0.272474
H65	H	0.744185	-1.167002	0.013377
Br66	Br	-0.203346	-1.061499	0.877389
H67	H	0.436819	-0.946496	0.233690
H68	H	0.156673	-1.055618	0.564287
Br69	Br	0.000078	-0.497885	0.314946
Br70	Br	0.536339	-0.913516	0.266664
H71	H	-0.156482	-1.052423	0.395041
Br72	Br	0.228966	-0.913485	0.266648
H73	H	-0.156487	-1.057868	0.682797
H74	H	-0.156482	-1.055638	0.564290
