data_functionalizedCrystal
_audit_creation_method	'MofGen! by Chris Wilmer'
_symmetry_space_group_name_H-M	'P1'
_symmetry_Int_Tables_number	1
_symmetry_cell_setting	triclinic
loop_
_symmetry_equiv_pos_as_xyz
  x,y,z
_cell_length_a	14.908558
_cell_length_b	18.050590
_cell_length_c	14.908308
_cell_angle_alpha	93.264736
_cell_angle_beta	90.175599
_cell_angle_gamma	86.713657
loop_
_atom_site_label
_atom_site_type_symbol
_atom_site_fract_x
_atom_site_fract_y
_atom_site_fract_z
Zn1	Zn	1.345315	-0.387578	-0.587551
Zn2	Zn	1.678648	-0.054245	-0.254217
Zn3	Zn	2.011981	0.279088	0.079116
Zn4	Zn	1.353900	-0.505045	-0.437185
Zn5	Zn	1.687233	-0.171712	-0.103851
Zn6	Zn	2.020567	0.161622	0.229482
Zn7	Zn	1.203629	-0.373312	-0.428550
Zn8	Zn	1.536962	-0.039979	-0.095217
Zn9	Zn	1.870296	0.293355	0.238116
Zn10	Zn	1.194927	-0.504160	-0.578838
Zn11	Zn	1.528261	-0.170827	-0.245504
Zn12	Zn	1.861594	0.162506	0.087829
O13	O	1.274443	-0.442524	-0.508031
O14	O	1.607776	-0.109191	-0.174698
O15	O	1.941109	0.224143	0.158636
O16	O	1.472280	-0.409501	-0.574864
O17	O	1.805613	-0.076168	-0.241531
O18	O	2.138947	0.257166	0.091803
O19	O	1.341201	-0.481970	-0.310215
O20	O	1.674534	-0.148637	0.023118
O21	O	2.007867	0.184697	0.356452
O22	O	1.222473	-0.271284	-0.449675
O23	O	1.555806	0.062050	-0.116341
O24	O	1.889139	0.395383	0.216992
O25	O	1.478588	-0.495803	-0.464391
O26	O	1.811921	-0.162470	-0.131058
O27	O	2.145254	0.170863	0.202276
O28	O	1.326568	-0.281765	-0.566492
O29	O	1.659902	0.051568	-0.233158
O30	O	1.993235	0.384902	0.100175
O31	O	1.230797	-0.385186	-0.303871
O32	O	1.564131	-0.051853	0.029462
O33	O	1.897464	0.281480	0.362795
O34	O	1.076648	-0.384329	-0.441226
O35	O	1.409981	-0.050995	-0.107893
O36	O	1.743315	0.282338	0.225440
O37	O	1.207642	-0.494296	-0.705818
O38	O	1.540975	-0.160963	-0.372485
O39	O	1.874309	0.172371	-0.039151
O40	O	1.070255	-0.480462	-0.551642
O41	O	1.403588	-0.147129	-0.218309
O42	O	1.736922	0.186204	0.115025
O43	O	1.318131	-0.408644	-0.712219
O44	O	1.651464	-0.075310	-0.378886
O45	O	1.984797	0.258023	-0.045553
O46	O	1.332763	-0.608848	-0.455943
O47	O	1.666097	-0.275515	-0.122609
O48	O	1.999430	0.057818	0.210724
O49	O	1.215967	-0.608199	-0.560014
O50	O	1.549300	-0.274865	-0.226681
O51	O	1.882633	0.058468	0.106652
C52	C	1.040826	-0.430752	-0.494552
C53	C	1.374160	-0.097419	-0.161219
C54	C	1.707493	0.235915	0.172114
C55	C	0.940883	-0.425735	-0.488807
C56	C	1.274216	-0.092402	-0.155474
C57	C	1.607549	0.240932	0.177859
C58	C	1.274376	-0.635471	-0.507991
C59	C	1.607709	-0.302138	-0.174658
C60	C	1.941042	0.031196	0.158676
C61	C	1.274427	-0.718020	-0.508009
C62	C	1.607761	-0.384687	-0.174675
C63	C	1.941094	-0.051353	0.158658
C64	C	0.803314	-0.368546	-0.423317
C65	C	1.136647	-0.035213	-0.089984
C66	C	1.469981	0.298120	0.243349
C67	C	0.897220	-0.373257	-0.428712
C68	C	1.230553	-0.039923	-0.095378
C69	C	1.563887	0.293410	0.237955
C70	C	0.890633	-0.473505	-0.543515
C71	C	1.223966	-0.140172	-0.210182
C72	C	1.557300	0.193162	0.123151
C73	C	0.796727	-0.468795	-0.538121
C74	C	1.130060	-0.135462	-0.204788
C75	C	1.463394	0.197872	0.128546
C76	C	0.753071	-0.416315	-0.478019
C77	C	1.086404	-0.082981	-0.144686
C78	C	1.419738	0.250352	0.188647
C79	C	0.659163	-0.411608	-0.472621
C80	C	0.992497	-0.078275	-0.139288
C81	C	1.325830	0.255058	0.194046
C82	C	0.652578	-0.511853	-0.587429
C83	C	0.985911	-0.178519	-0.254096
C84	C	1.319245	0.154814	0.079238
C85	C	0.746484	-0.516563	-0.592823
C86	C	1.079817	-0.183230	-0.259490
C87	C	1.413151	0.150104	0.073844
C88	C	1.338061	-0.917807	-0.451505
C89	C	1.671395	-0.584474	-0.118172
C90	C	2.004728	-0.251140	0.215161
C91	C	1.355288	-0.971914	-0.534833
C92	C	1.688622	-0.638581	-0.201499
C93	C	2.021955	-0.305247	0.131834
C94	C	1.274476	-0.869155	-0.508048
C95	C	1.607810	-0.535821	-0.174714
C96	C	1.941143	-0.202488	0.158619
C97	C	1.257339	-0.962135	-0.424763
C98	C	1.590672	-0.628802	-0.091429
C99	C	1.924006	-0.295469	0.241904
C100	C	1.274526	-1.015143	-0.508078
C101	C	1.607859	-0.681810	-0.174745
C102	C	1.941193	-0.348477	0.158589
C103	C	1.291743	-0.922178	-0.591420
C104	C	1.625076	-0.588845	-0.258087
C105	C	1.958410	-0.255512	0.075246
C106	C	1.193759	-0.912391	-0.481293
C107	C	1.527092	-0.579058	-0.147959
C108	C	1.860425	-0.245724	0.185374
C109	C	1.210951	-0.966477	-0.564675
C110	C	1.544284	-0.633143	-0.231341
C111	C	1.877618	-0.299810	0.101992
C112	C	1.274450	-0.785054	-0.508029
C113	C	1.607784	-0.451721	-0.174696
C114	C	1.941117	-0.118387	0.158638
C115	C	1.274551	-1.099242	-0.508106
C116	C	1.607885	-0.765909	-0.174772
C117	C	1.941218	-0.432576	0.158561
C118	C	1.508971	-0.454342	-0.521563
C119	C	1.842305	-0.121009	-0.188229
C120	C	2.175638	0.212324	0.145104
C121	C	1.608914	-0.459379	-0.527329
C122	C	1.942247	-0.126045	-0.193996
C123	C	2.275580	0.207288	0.139338
C124	C	1.260958	-0.452962	-0.742556
C125	C	1.594291	-0.119629	-0.409222
C126	C	1.927625	0.213704	-0.075889
C127	C	1.255212	-0.457411	-0.842496
C128	C	1.588545	-0.124077	-0.509163
C129	C	1.921878	0.209256	-0.175830
C130	C	1.274533	-0.248826	-0.508092
C131	C	1.607867	0.084508	-0.174759
C132	C	1.941200	0.417841	0.158575
C133	C	1.274572	-0.166283	-0.508118
C134	C	1.607905	0.167051	-0.174785
C135	C	1.941239	0.500384	0.158549
C136	C	1.359463	-0.376562	-1.036962
C137	C	1.692796	-0.043229	-0.703629
C138	C	2.026130	0.290104	-0.370296
C139	C	1.354067	-0.380739	-1.130865
C140	C	1.687400	-0.047406	-0.797532
C141	C	2.020733	0.285927	-0.464199
C142	C	1.239018	-0.469938	-1.124207
C143	C	1.572352	-0.136604	-0.790874
C144	C	1.905685	0.196729	-0.457541
C145	C	1.244415	-0.465761	-1.030304
C146	C	1.577748	-0.132427	-0.696971
C147	C	1.911081	0.200906	-0.363637
C148	C	1.304640	-0.419072	-0.986685
C149	C	1.637973	-0.085739	-0.653352
C150	C	1.971307	0.247595	-0.320018
C151	C	1.310040	-0.414899	-0.892780
C152	C	1.643374	-0.081566	-0.559447
C153	C	1.976707	0.251767	-0.226114
C154	C	1.194988	-0.504093	-0.886124
C155	C	1.528322	-0.170760	-0.552790
C156	C	1.861655	0.162573	-0.219457
C157	C	1.189592	-0.508270	-0.980027
C158	C	1.522925	-0.174937	-0.646694
C159	C	1.856259	0.158396	-0.313360
C160	C	1.287927	-0.432075	-0.274421
C161	C	1.621260	-0.098742	0.058912
C162	C	1.954593	0.234592	0.392245
C163	C	1.293847	-0.427426	-0.174491
C164	C	1.627181	-0.094093	0.158842
C165	C	1.960514	0.239240	0.492175
H166	H	0.623620	-0.368876	-0.423684
H167	H	0.956954	-0.035542	-0.090350
H168	H	1.290287	0.297791	0.242983
C169	C	1.134680	-0.550858	-0.830811
C170	C	1.468013	-0.217524	-0.497478
C171	C	1.801346	0.115809	-0.164144
N172	N	1.089258	-0.586081	-0.789149
N173	N	1.422591	-0.252748	-0.455815
N174	N	1.755925	0.080585	-0.122482
H175	H	0.611660	-0.550749	-0.631971
H176	H	0.944993	-0.217416	-0.298637
H177	H	1.278327	0.115917	0.034696
C178	C	1.138330	-0.995179	-0.629366
C179	C	1.471663	-0.661845	-0.296032
C180	C	1.804996	-0.328512	0.037301
N181	N	1.083634	-1.016798	-0.678094
N182	N	1.416967	-0.683464	-0.344760
N183	N	1.750300	-0.350131	-0.011427
H184	H	0.938124	-0.334356	-0.384171
H185	H	1.271458	-0.001023	-0.050837
H186	H	1.604791	0.332310	0.282496
H187	H	1.398707	-0.346121	-1.171798
H188	H	1.732040	-0.012788	-0.838464
H189	H	2.065373	0.320545	-0.505131
C190	C	0.794517	-0.574291	-0.658927
C191	C	1.127850	-0.240958	-0.325594
C192	C	1.461183	0.092375	0.007739
N193	N	0.830694	-0.617777	-0.708715
N194	N	1.164027	-0.284443	-0.375382
N195	N	1.497361	0.048890	-0.042048
C196	C	1.425714	-0.325209	-0.988979
C197	C	1.759048	0.008124	-0.655646
C198	C	2.092381	0.341458	-0.322313
N199	N	1.475616	-0.286528	-0.952840
N200	N	1.808949	0.046805	-0.619507
N201	N	2.142282	0.380139	-0.286173
C202	C	1.311467	-0.898387	-0.686622
C203	C	1.644801	-0.565053	-0.353289
C204	C	1.978134	-0.231720	-0.019955
N205	N	1.326328	-0.880465	-0.758326
N206	N	1.659661	-0.547132	-0.424993
N207	N	1.992995	-0.213799	-0.091659
H208	H	0.926194	-0.516228	-0.592452
H209	H	1.259527	-0.182895	-0.259118
H210	H	1.592860	0.150438	0.074215
C211	C	1.237724	-0.986056	-0.329593
C212	C	1.571058	-0.652723	0.003740
C213	C	1.904391	-0.319389	0.337074
N214	N	1.222957	-1.004070	-0.257909
N215	N	1.556290	-0.670737	0.075424
N216	N	1.889623	-0.337403	0.408757
H217	H	1.189986	-0.507949	-1.159738
H218	H	1.523319	-0.174615	-0.826405
H219	H	1.856652	0.158718	-0.493072
H220	H	1.140557	-0.546281	-1.015554
H221	H	1.473890	-0.212948	-0.682221
H222	H	1.807223	0.120386	-0.348888
C223	C	1.101546	-0.877262	-0.450660
C224	C	1.434879	-0.543928	-0.117327
C225	C	1.768213	-0.210595	0.216006
N226	N	1.032093	-0.850798	-0.427577
N227	N	1.365426	-0.517465	-0.094244
N228	N	1.698759	-0.184132	0.239090
H229	H	1.391847	-0.896431	-0.403743
H230	H	1.725181	-0.563098	-0.070410
H231	H	2.058514	-0.229765	0.262924
H232	H	0.767769	-0.325816	-0.374378
H233	H	1.101102	0.007517	-0.041045
H234	H	1.434435	0.340850	0.292288
C235	C	1.447533	-1.007016	-0.565426
C236	C	1.780866	-0.673683	-0.232092
C237	C	2.114199	-0.340350	0.101241
N238	N	1.517013	-1.033454	-0.588462
N239	N	1.850346	-0.700121	-0.255129
N240	N	2.183680	-0.366788	0.078205
H241	H	1.359080	-0.376884	-0.857267
H242	H	1.692414	-0.043551	-0.523934
H243	H	2.025747	0.289782	-0.190601
