data_functionalizedCrystal
_audit_creation_method	'MofGen! by Chris Wilmer'
_symmetry_space_group_name_H-M	'P1'
_symmetry_Int_Tables_number	1
_symmetry_cell_setting	triclinic
loop_
_symmetry_equiv_pos_as_xyz
  x,y,z
_cell_length_a	10.540539
_cell_length_b	10.489741
_cell_length_c	9.616153
_cell_angle_alpha	89.998052
_cell_angle_beta	89.995174
_cell_angle_gamma	84.532333
loop_
_atom_site_label
_atom_site_type_symbol
_atom_site_fract_x
_atom_site_fract_y
_atom_site_fract_z
O1	O	1.685914	0.179760	-0.115579
O2	O	1.316503	0.196697	-0.115596
O3	O	1.509614	0.002629	-0.115579
O4	O	1.492802	0.373827	-0.115596
O5	O	1.509587	0.002633	0.115712
O6	O	1.316476	0.196701	0.115695
O7	O	1.685887	0.179764	0.115712
Zn8	Zn	1.501177	0.188233	0.152426
Zn9	Zn	1.501212	0.188228	-0.152310
O10	O	1.492776	0.373831	0.115695
C11	C	1.269186	0.195429	0.000047
C12	C	1.128238	0.191629	0.000041
C13	C	0.944793	0.046011	0.000588
C14	C	1.091412	0.049864	0.000052
C15	C	1.066588	0.259850	-0.132036
C16	C	0.920043	0.255011	-0.132132
C17	C	0.919525	0.257900	0.130890
C18	C	1.066507	0.259206	0.132621
C19	C	1.508331	-0.044900	0.000066
C20	C	1.504532	-0.186529	0.000063
C21	C	1.381661	-0.254654	0.000047
C22	C	1.439691	-0.346782	0.114088
C23	C	1.439746	-0.346760	-0.113947
C24	C	1.562613	-0.276791	0.114199
C25	C	1.562651	-0.276760	-0.113939
C26	C	1.620770	-0.368860	0.000130
C27	C	1.733203	0.181032	0.000066
C28	C	1.874152	0.184832	0.000063
C29	C	1.494059	0.421361	0.000047
C30	C	1.497858	0.562990	0.000041
N31	N	1.501163	0.188236	0.360401
N32	N	1.501237	0.188215	-0.360285
C33	C	1.397545	0.291701	0.580761
C34	C	1.397773	0.292088	0.419594
C35	C	1.633890	0.218515	0.418855
C36	C	1.633325	0.219248	0.580073
C37	C	1.473374	0.054153	0.580317
C38	C	1.470328	0.055022	0.419090
H39	H	1.088954	0.363958	-0.136955
H40	H	1.540845	-0.025687	0.378802
F41	F	1.630497	-0.236503	0.240358
H42	H	1.658799	0.315218	0.378461
F43	F	1.342703	0.025020	0.369158
F44	F	1.630563	-0.236190	-0.239960
F45	F	1.249616	-0.189742	0.000184
H46	H	1.133162	-0.004197	-0.094786
H47	H	1.387690	-0.377785	0.210498
H48	H	1.712936	0.145199	0.380509
H49	H	1.378634	0.025335	0.621051
H50	H	1.721885	-0.418297	0.000198
F51	F	1.371779	-0.387254	-0.239959
F52	F	0.883174	0.189102	-0.261170
F53	F	1.268854	0.268340	0.367936
F54	F	1.147093	-0.020301	0.123802
F55	F	1.268232	0.268239	0.631458
H56	H	1.415224	0.390600	0.621256
F57	F	1.122258	0.197904	-0.260511
H58	H	0.872087	0.356966	-0.138131
H59	H	1.657691	0.317055	0.617657
H60	H	1.090745	0.362562	0.140590
H61	H	1.548977	-0.022872	0.618440
H62	H	0.887962	0.212023	0.231003
H63	H	0.916190	-0.009992	0.095308
F64	F	1.119898	0.193960	0.260334
H65	H	0.914590	-0.009758	-0.093600
H66	H	0.872310	0.360296	0.131777
F67	F	1.421143	0.422104	0.369156
F68	F	1.737197	0.124458	0.631047
