data_functionalizedCrystal
_audit_creation_method	'MofGen! by Chris Wilmer'
_symmetry_space_group_name_H-M	'P1'
_symmetry_Int_Tables_number	1
_symmetry_cell_setting	triclinic
loop_
_symmetry_equiv_pos_as_xyz
  x,y,z
_cell_length_a	25.639242
_cell_length_b	29.839132
_cell_length_c	25.639233
_cell_angle_alpha	89.978200
_cell_angle_beta	90.022166
_cell_angle_gamma	89.959210
loop_
_atom_site_label
_atom_site_type_symbol
_atom_site_fract_x
_atom_site_fract_y
_atom_site_fract_z
Zn1	Zn	0.799201	0.178962	0.295731
Zn2	Zn	1.299201	0.678962	0.795731
Zn3	Zn	0.799115	0.254076	0.208291
Zn4	Zn	1.299115	0.754076	0.708291
Zn5	Zn	0.711777	0.178955	0.208295
Zn6	Zn	1.211777	0.678955	0.708295
Zn7	Zn	0.711713	0.254059	0.295681
Zn8	Zn	1.211713	0.754059	0.795681
O9	O	0.755451	0.216513	0.251999
O10	O	1.255451	0.716513	0.751999
O11	O	0.872355	0.188935	0.284151
O12	O	1.372355	0.688935	0.784151
O13	O	0.787520	0.244115	0.135126
O14	O	1.287520	0.744115	0.635126
O15	O	0.723438	0.116089	0.219917
O16	O	1.223438	0.616089	0.719917
O17	O	0.872291	0.244122	0.219909
O18	O	1.372291	0.744122	0.719909
O19	O	0.787668	0.116094	0.284156
O20	O	1.287668	0.616094	0.784156
O21	O	0.723354	0.188924	0.135129
O22	O	1.223354	0.688924	0.635129
O23	O	0.638604	0.188908	0.219868
O24	O	1.138604	0.688908	0.719868
O25	O	0.723327	0.244093	0.368853
O26	O	1.223327	0.744093	0.868853
O27	O	0.638556	0.244087	0.284070
O28	O	1.138556	0.744087	0.784070
O29	O	0.787605	0.188919	0.368890
O30	O	1.287605	0.688919	0.868890
O31	O	0.787457	0.316941	0.219860
O32	O	1.287457	0.816941	0.719860
O33	O	0.723243	0.316929	0.284065
O34	O	1.223243	0.816929	0.784065
C35	C	0.619609	0.216495	0.251964
C36	C	1.119609	0.716495	0.751964
C37	C	0.561495	0.216499	0.251961
C38	C	1.061495	0.716499	0.751961
C39	C	0.755348	0.333236	0.251968
C40	C	1.255348	0.833236	0.751968
C41	C	0.755351	0.383170	0.251972
C42	C	1.255351	0.883170	0.751972
C43	C	0.201116	0.245293	0.285398
C44	C	0.701116	0.745293	0.785398
C45	C	0.146511	0.245295	0.285406
C46	C	0.646511	0.745295	0.785406
O47	O	0.118261	0.269755	0.313805
O48	O	0.618261	0.769755	0.813805
N49	N	0.119212	0.216525	0.252034
N50	N	0.619212	0.716525	0.752034
C51	C	0.146520	0.187748	0.218655
C52	C	0.646520	0.687748	0.718655
O53	O	0.118286	0.163276	0.190270
O54	O	0.618286	0.663276	0.690270
C55	C	0.201124	0.187743	0.218649
C56	C	0.701124	0.687743	0.718649
C57	C	0.228420	0.216518	0.252020
C58	C	0.728420	0.716518	0.752020
C59	C	0.228412	0.274065	0.318766
C60	C	0.728412	0.774065	0.818766
C61	C	0.283013	0.274063	0.318757
C62	C	0.783013	0.774063	0.818757
C63	C	0.310317	0.245288	0.285379
C64	C	0.810317	0.745288	0.785379
C65	C	0.283021	0.216516	0.252011
C66	C	0.783021	0.716516	0.752011
C67	C	0.228431	0.158963	0.185273
C68	C	0.728431	0.658963	0.685273
C69	C	0.283038	0.158961	0.185271
C70	C	0.783038	0.658961	0.685271
C71	C	0.310334	0.187736	0.218642
C72	C	0.810334	0.687736	0.718642
C73	C	0.364925	0.187739	0.218624
C74	C	0.864925	0.687739	0.718624
N75	N	0.392224	0.216509	0.251997
N76	N	0.892224	0.716509	0.751997
C77	C	0.364920	0.245283	0.285374
C78	C	0.864920	0.745283	0.785374
C79	C	0.031850	0.187759	0.218669
C80	C	0.531850	0.687759	0.718669
C81	C	-0.022753	0.187766	0.218671
C82	C	0.477247	0.687766	0.718671
C83	C	-0.022758	0.245313	0.285423
C84	C	0.477242	0.745313	0.785423
C85	C	0.031846	0.245308	0.285418
C86	C	0.531846	0.745308	0.785418
C87	C	0.059149	0.216529	0.252041
C88	C	0.559149	0.716529	0.752041
C89	C	0.479585	0.245277	0.285352
C90	C	0.979585	0.745277	0.785352
C91	C	0.534191	0.245273	0.285339
C92	C	1.034191	0.745273	0.785339
C93	C	0.534191	0.187724	0.218589
C94	C	1.034191	0.687724	0.718589
C95	C	0.479590	0.187729	0.218600
C96	C	0.979590	0.687729	0.718600
C97	C	0.452289	0.216507	0.251986
C98	C	0.952289	0.716507	0.751986
O99	O	0.393210	0.163290	0.190242
O100	O	0.893210	0.663290	0.690242
O101	O	0.393161	0.269746	0.313759
O102	O	0.893161	0.769746	0.813759
C103	C	0.788911	0.692807	0.218595
C104	C	1.288911	1.192807	0.718595
C105	C	0.788961	0.880480	0.218607
C106	C	1.288961	1.380480	0.718607
O107	O	0.817439	0.904740	0.190220
O108	O	1.317439	1.404740	0.690220
N109	N	0.755506	0.903955	0.252008
N110	N	1.255506	1.403955	0.752008
C111	C	0.722039	0.880509	0.285411
C112	C	1.222039	1.380509	0.785411
O113	O	0.693588	0.904782	0.313824
O114	O	1.193588	1.404782	0.813824
C115	C	0.721992	0.692837	0.285401
C116	C	1.221992	1.192837	0.785401
C117	C	0.755445	0.669364	0.251994
C118	C	1.255445	1.169364	0.751994
C119	C	0.822362	0.669335	0.185192
C120	C	1.322362	1.169335	0.685192
C121	C	0.822347	0.622419	0.185187
C122	C	1.322347	1.122419	0.685187
C123	C	0.788882	0.598976	0.218586
C124	C	1.288882	1.098976	0.718586
C125	C	0.755430	0.622449	0.251990
C126	C	1.255430	1.122449	0.751990
C127	C	0.688528	0.669391	0.318806
C128	C	1.188528	1.169391	0.818806
C129	C	0.688520	0.622470	0.318801
C130	C	1.188520	1.122470	0.818801
C131	C	0.721973	0.598998	0.285395
C132	C	1.221973	1.098998	0.785395
C133	C	0.721950	0.552090	0.285384
C134	C	1.221950	1.052090	0.785384
N135	N	0.755405	0.528615	0.251983
N136	N	1.255405	1.028615	0.751983
C137	C	0.788871	0.552058	0.218584
C138	C	1.288871	1.052058	0.718584
C139	C	0.722065	0.979039	0.285412
C140	C	1.222065	1.479039	0.785412
C141	C	0.722076	1.025957	0.285414
C142	C	1.222076	1.525957	0.785414
C143	C	0.788999	1.025925	0.218612
C144	C	1.288999	1.525925	0.718612
C145	C	0.788985	0.979007	0.218607
C146	C	1.288985	1.479007	0.718607
C147	C	0.755520	0.955565	0.252012
C148	C	1.255520	1.455565	0.752012
C149	C	0.788837	0.453533	0.218577
C150	C	1.288837	0.953533	0.718577
C151	C	0.788817	0.406613	0.218573
C152	C	1.288817	0.906613	0.718573
C153	C	0.721896	0.406649	0.285378
C154	C	1.221896	0.906649	0.785378
C155	C	0.721914	0.453564	0.285379
C156	C	1.221914	0.953564	0.785379
C157	C	0.755388	0.477005	0.251977
C158	C	1.255388	0.977005	0.751977
O159	O	0.693491	0.527802	0.313761
O160	O	1.193491	1.027802	0.813761
O161	O	0.817325	0.527777	0.190183
O162	O	1.317325	1.027777	0.690183
C163	C	0.788926	0.739723	0.218600
C164	C	1.288926	1.239723	0.718600
C165	C	0.755475	0.763195	0.252004
C166	C	1.255475	1.263195	0.752004
C167	C	0.722009	0.739752	0.285402
C168	C	1.222009	1.239752	0.785402
C169	C	0.755486	0.810113	0.252005
C170	C	1.255486	1.310113	0.752005
C171	C	0.788952	0.833556	0.218606
C172	C	1.288952	1.333556	0.718606
C173	C	0.822407	0.810081	0.185206
C174	C	1.322407	1.310081	0.685206
C175	C	0.822392	0.763166	0.185201
C176	C	1.322392	1.263166	0.685201
C177	C	0.688554	0.763227	0.318803
C178	C	1.188554	1.263227	0.818803
C179	C	0.688571	0.810143	0.318805
C180	C	1.188571	1.310143	0.818805
C181	C	0.722037	0.833586	0.285406
C182	C	1.222037	1.333586	0.785406
C183	C	0.891824	0.216531	0.252035
C184	C	1.391824	0.716531	0.752035
C185	C	0.949938	0.216539	0.252051
C186	C	1.449938	0.716539	0.752051
C187	C	0.755468	0.216505	0.388372
C188	C	1.255468	0.716505	0.888372
C189	C	0.755475	0.216502	0.446487
C190	C	1.255475	0.716502	0.946487
C191	C	0.755550	1.099335	0.252031
C192	C	1.255550	1.599335	0.752031
C193	C	0.755542	1.049400	0.252015
C194	C	1.255542	1.549400	0.752015
C195	C	0.755465	0.216488	0.116157
C196	C	1.255465	0.716488	0.616157
C197	C	0.755559	0.216365	0.058043
C198	C	1.255559	0.716365	0.558043
C199	C	0.788987	0.187687	0.806875
C200	C	1.288987	0.687687	1.306875
C201	C	0.788994	0.187675	0.861479
C202	C	1.288994	0.687675	1.361479
O203	O	0.817444	0.163229	0.889737
O204	O	1.317444	0.663229	1.389737
N205	N	0.755533	0.216396	0.888769
N206	N	1.255533	0.716396	1.388769
C207	C	0.722060	0.245129	0.861452
C208	C	1.222060	0.745129	1.361452
O209	O	0.693600	0.269558	0.889679
O210	O	1.193600	0.769558	1.389679
C211	C	0.722051	0.245139	0.806849
C212	C	1.222051	0.745139	1.306849
C213	C	0.755518	0.216419	0.779562
C214	C	1.255518	0.716419	1.279562
C215	C	0.822451	0.158969	0.779587
C216	C	1.322451	0.658969	1.279587
C217	C	0.822445	0.158982	0.724987
C218	C	1.322445	0.658982	1.224987
C219	C	0.788975	0.187714	0.697674
C220	C	1.288975	0.687714	1.197674
C221	C	0.755512	0.216432	0.724961
C222	C	1.255512	0.716432	1.224961
C223	C	0.688576	0.273869	0.779533
C224	C	1.188576	0.773869	1.279533
C225	C	0.688570	0.273876	0.724926
C226	C	1.188570	0.773876	1.224926
C227	C	0.722037	0.245156	0.697639
C228	C	1.222037	0.745156	1.197639
C229	C	0.722037	0.245176	0.643047
C230	C	1.222037	0.745176	1.143047
N231	N	0.755497	0.216455	0.615757
N232	N	1.255497	0.716455	1.115757
C233	C	0.788967	0.187723	0.643070
C234	C	1.288967	0.687723	1.143070
C235	C	0.722080	0.245106	0.976123
C236	C	1.222080	0.745106	1.476123
C237	C	0.722091	0.245099	1.030725
C238	C	1.222091	0.745099	1.530725
C239	C	0.789024	0.187644	1.030748
C240	C	1.289024	0.687644	1.530748
C241	C	0.789016	0.187653	0.976145
C242	C	1.289016	0.687653	1.476145
C243	C	0.755541	0.216384	0.948833
C244	C	1.255541	0.716384	1.448833
C245	C	0.788952	0.187753	0.528405
C246	C	1.288952	0.687753	1.028405
C247	C	0.788945	0.187770	0.473800
C248	C	1.288945	0.687770	0.973800
C249	C	0.722010	0.245224	0.473781
C250	C	1.222010	0.745224	0.973781
C251	C	0.722019	0.245208	0.528382
C252	C	1.222019	0.745208	1.028382
C253	C	0.755492	0.216470	0.555693
C254	C	1.255492	0.716470	1.055693
O255	O	0.693599	0.269609	0.614755
O256	O	1.193599	0.769609	1.114755
O257	O	0.817418	0.163295	0.614837
O258	O	1.317418	0.663295	1.114837
H259	H	0.556413	0.268707	0.312514
H260	H	1.056413	0.768707	0.812514
H261	H	0.694773	0.268599	0.550601
H262	H	1.194773	0.768599	1.050601
C263	C	0.859251	0.127384	0.694973
C264	C	1.359251	0.627384	1.194973
C265	C	0.900280	0.146854	0.657441
C266	C	1.400280	0.646854	1.157441
C267	C	0.937086	0.115251	0.627431
C268	C	1.437086	0.615251	1.127431
C269	C	0.932862	0.064179	0.634954
C270	C	1.432862	0.564179	1.134954
C271	C	0.891831	0.044706	0.672488
C272	C	1.391831	0.544706	1.172488
C273	C	0.855026	0.076309	0.702498
C274	C	1.355026	0.576309	1.202498
H275	H	0.903408	0.184663	0.651871
H276	H	1.403408	0.684663	1.151871
H277	H	0.967460	0.129666	0.599646
H278	H	1.467460	0.629666	1.099646
H279	H	0.960108	0.040785	0.612739
H280	H	1.460108	0.540785	1.112739
H281	H	0.888703	0.006897	0.678058
H282	H	1.388703	0.506897	1.178058
H283	H	0.824652	0.061894	0.730283
H284	H	1.324652	0.561894	1.230283
H285	H	0.849705	0.135570	0.801820
H286	H	1.349705	0.635570	1.301820
C287	C	0.651751	0.305484	0.694882
C288	C	1.151751	0.805484	1.194882
C289	C	0.610717	0.286024	0.657333
C290	C	1.110717	0.786024	1.157333
C291	C	0.573902	0.317633	0.627289
C292	C	1.073902	0.817633	1.127289
C293	C	0.578121	0.368703	0.634793
C294	C	1.078121	0.868703	1.134793
C295	C	0.619156	0.388167	0.672343
C296	C	1.119156	0.888167	1.172343
C297	C	0.655972	0.356557	0.702387
C298	C	1.155972	0.856557	1.202387
H299	H	0.607593	0.248216	0.651777
H300	H	1.107593	0.748216	1.151777
H301	H	0.543525	0.303225	0.599492
H302	H	1.043525	0.803225	1.099492
H303	H	0.550868	0.392103	0.612553
H304	H	1.050868	0.892103	1.112553
H305	H	0.622281	0.425974	0.677900
H306	H	1.122281	0.925974	1.177900
H307	H	0.686349	0.370965	0.730184
H308	H	1.186349	0.870965	1.230184
H309	H	0.694845	0.268490	1.052938
H310	H	1.194845	0.768490	1.552938
H311	H	0.849617	0.688417	0.157994
H312	H	1.349617	1.188417	0.657994
C313	C	0.825758	0.156174	0.443785
C314	C	1.325758	0.656174	0.943785
C315	C	0.803135	0.120909	0.406245
C316	C	1.303135	0.620909	0.906245
C317	C	0.839946	0.089313	0.376232
C318	C	1.339946	0.589313	0.876232
C319	C	0.899380	0.092983	0.383760
C320	C	1.399380	0.592983	0.883760
C321	C	0.922007	0.128250	0.421301
C322	C	1.422007	0.628250	0.921301
C323	C	0.885196	0.159846	0.451314
C324	C	1.385196	0.659846	0.951314
H325	H	0.759135	0.118190	0.400671
H326	H	1.259135	0.618190	0.900671
H327	H	0.823196	0.063206	0.348441
H328	H	1.323196	0.563206	0.848441
H329	H	0.926630	0.069594	0.361543
H330	H	1.426630	0.569594	0.861543
H331	H	0.966006	0.130969	0.426875
H332	H	1.466006	0.630969	0.926875
H333	H	0.901945	0.185953	0.479105
H334	H	1.401945	0.685953	0.979105
C335	C	0.825825	0.156058	0.946131
C336	C	1.325825	0.656058	1.446131
C337	C	0.821610	0.104985	0.953654
C338	C	1.321610	0.604985	1.453654
C339	C	0.858421	0.073387	0.923643
C340	C	1.358421	0.573387	1.423643
C341	C	0.899446	0.092863	0.886110
C342	C	1.399446	0.592863	1.386110
C343	C	0.903663	0.143938	0.878586
C344	C	1.403663	0.643938	1.378586
C345	C	0.866853	0.175536	0.908597
C346	C	1.366853	0.675536	1.408597
H347	H	0.791239	0.090566	0.981439
H348	H	1.291239	0.590566	1.481439
H349	H	0.855299	0.035578	0.929213
H350	H	1.355299	0.535578	1.429213
H351	H	0.926696	0.069472	0.863895
H352	H	1.426696	0.569472	1.363895
H353	H	0.934034	0.158357	0.850801
H354	H	1.434034	0.658357	1.350801
H355	H	0.869974	0.213345	0.903027
H356	H	1.369974	0.713345	1.403027
H357	H	-0.044999	0.268742	0.312603
H358	H	0.455001	0.768742	0.812603
C359	C	0.449559	0.276934	0.322074
C360	C	0.949559	0.776934	0.822074
C361	C	0.457032	0.327999	0.317688
C362	C	0.957032	0.827999	0.817688
C363	C	0.427006	0.359659	0.354406
C364	C	0.927006	0.859659	0.854406
C365	C	0.389506	0.340254	0.395509
C366	C	0.889506	0.840254	0.895509
C367	C	0.382031	0.289187	0.399896
C368	C	0.882031	0.789187	0.899896
C369	C	0.412057	0.257527	0.363178
C370	C	0.912057	0.757527	0.863178
H371	H	0.484793	0.342366	0.287260
H372	H	0.984793	0.842366	0.787260
H373	H	0.432539	0.397462	0.351158
H374	H	0.932539	0.897462	0.851158
H375	H	0.367278	0.363691	0.422689
H376	H	0.867278	0.863691	0.922689
H377	H	0.354270	0.274820	0.430324
H378	H	0.854270	0.774820	0.930324
H379	H	0.406523	0.219724	0.366426
H380	H	0.906523	0.719724	0.866426
H381	H	0.661325	0.829250	0.346008
H382	H	1.161325	1.329250	0.846008
H383	H	0.206215	0.135532	0.158098
H384	H	0.706215	0.635532	0.658098
H385	H	0.305233	0.297494	0.345932
H386	H	0.805233	0.797494	0.845932
C387	C	0.825837	0.156034	1.060800
C388	C	1.325837	0.656034	1.560800
C389	C	0.862646	0.124437	1.030791
C390	C	1.362646	0.624437	1.530791
C391	C	0.899456	0.092829	1.060843
C392	C	1.399456	0.592829	1.560843
C393	C	0.899457	0.092818	1.120905
C394	C	1.399457	0.592818	1.620905
C395	C	0.862647	0.124415	1.150917
C396	C	1.362647	0.624415	1.650917
C397	C	0.825837	0.156023	1.120864
C398	C	1.325837	0.656023	1.620864
H399	H	0.862647	0.124445	0.986326
H400	H	1.362647	0.624445	1.486326
H401	H	0.926706	0.069439	1.038626
H402	H	1.426706	0.569439	1.538626
H403	H	0.926707	0.069419	1.143152
H404	H	1.426707	0.569419	1.643152
H405	H	0.862647	0.124408	1.195381
H406	H	1.362647	0.624408	1.695381
H407	H	0.798588	0.179414	1.143082
H408	H	1.298588	0.679414	1.643082
H409	H	0.816096	0.472612	0.191378
H410	H	1.316096	0.972612	0.691378
H411	H	0.661303	0.744143	0.346001
H412	H	1.161303	1.244143	0.846001
C413	C	0.198384	0.305723	0.355483
C414	C	0.698384	0.805723	0.855483
C415	C	0.205864	0.356787	0.351098
C416	C	0.705864	0.856787	0.851098
C417	C	0.175841	0.388450	0.387814
C418	C	0.675841	0.888450	0.887814
C419	C	0.138338	0.369049	0.428917
C420	C	0.638338	0.869049	0.928917
C421	C	0.130857	0.317982	0.433304
C422	C	0.630857	0.817982	0.933304
C423	C	0.160880	0.286319	0.396588
C424	C	0.660880	0.786319	0.896588
H425	H	0.233628	0.371150	0.320670
H426	H	0.733628	0.871150	0.820670
H427	H	0.181380	0.426252	0.384566
H428	H	0.681380	0.926252	0.884566
H429	H	0.116114	0.392488	0.456097
H430	H	0.616114	0.892488	0.956097
H431	H	0.103093	0.303618	0.463732
H432	H	0.603093	0.803618	0.963732
H433	H	0.155341	0.248516	0.399836
H434	H	0.655341	0.748516	0.899836
H435	H	0.849590	0.603311	0.157986
H436	H	1.349590	1.103311	0.657986
H437	H	0.054067	0.268739	0.312592
H438	H	0.554067	0.768739	0.812592
H439	H	0.816207	0.164350	0.550635
H440	H	1.316207	0.664350	1.050635
C441	C	0.825787	0.953189	0.181863
C442	C	1.325787	1.453189	0.681863
C443	C	0.821564	0.959667	0.122422
C444	C	1.321564	1.459667	0.622422
C445	C	0.858369	0.933852	0.085677
C446	C	1.358369	1.433852	0.585677
C447	C	0.899397	0.901559	0.108374
C448	C	1.399397	1.401559	0.608374
C449	C	0.903623	0.895080	0.167819
C450	C	1.403623	1.395080	0.667819
C451	C	0.866818	0.920895	0.204563
C452	C	1.366818	1.420895	0.704563
H453	H	0.791191	0.983573	0.105618
H454	H	1.291191	1.483573	0.605618
H455	H	0.855241	0.938649	0.041672
H456	H	1.355241	1.438649	0.541672
H457	H	0.926643	0.882449	0.081174
H458	H	1.426643	1.382449	0.581174
H459	H	0.933996	0.871173	0.184623
H460	H	1.433996	1.371173	0.684623
H461	H	0.869946	0.916098	0.248568
H462	H	1.369946	1.416098	0.748568
C463	C	0.685203	0.276830	0.443725
C464	C	1.185203	0.776830	0.943725
C465	C	0.644176	0.257365	0.406172
C466	C	1.144176	0.757365	0.906172
C467	C	0.607370	0.288970	0.376112
C468	C	1.107370	0.788970	0.876112
C469	C	0.611590	0.340042	0.383604
C470	C	1.111590	0.840042	0.883604
C471	C	0.652618	0.359510	0.421159
C472	C	1.152618	0.859510	0.921159
C473	C	0.689425	0.327904	0.451219
C474	C	1.189425	0.827904	0.951219
H475	H	0.641051	0.219556	0.400624
H476	H	1.141051	0.719556	0.900624
H477	H	0.576998	0.274559	0.348311
H478	H	1.076998	0.774559	0.848311
H479	H	0.584344	0.363438	0.361352
H480	H	1.084344	0.863438	0.861352
H481	H	0.655744	0.397318	0.426707
H482	H	1.155744	0.897318	0.926707
H483	H	0.719797	0.342316	0.479020
H484	H	1.219797	0.842316	0.979020
C485	C	0.685261	0.276718	0.946083
C486	C	1.185261	0.776718	1.446083
C487	C	0.625829	0.273045	0.953585
C488	C	1.125829	0.773045	1.453585
C489	C	0.589009	0.304656	0.923549
C490	C	1.089009	0.804656	1.423549
C491	C	0.611620	0.339940	0.886011
C492	C	1.111620	0.839940	1.386011
C493	C	0.671055	0.343614	0.878508
C494	C	1.171055	0.843614	1.378508
C495	C	0.707876	0.312003	0.908544
C496	C	1.207876	0.812003	1.408544
H497	H	0.609087	0.246925	0.981374
H498	H	1.109087	0.746925	1.481374
H499	H	0.545011	0.301936	0.929104
H500	H	1.045011	0.801936	1.429104
H501	H	0.584364	0.363341	0.863777
H502	H	1.084364	0.863341	1.363777
H503	H	0.687797	0.369735	0.850719
H504	H	1.187797	0.869735	1.350719
H505	H	0.751873	0.314723	0.902989
H506	H	1.251873	0.814723	1.402989
C507	C	0.061880	0.156105	0.181944
C508	C	0.561880	0.656105	0.681944
C509	C	0.054406	0.105040	0.186316
C510	C	0.554406	0.605040	0.686316
C511	C	0.084433	0.073386	0.149591
C512	C	0.584433	0.573386	0.649591
C513	C	0.121934	0.092798	0.108494
C514	C	0.621934	0.592798	0.608494
C515	C	0.129410	0.143866	0.104120
C516	C	0.629410	0.643866	0.604120
C517	C	0.099383	0.175520	0.140845
C518	C	0.599383	0.675520	0.640845
H519	H	0.026644	0.090668	0.216740
H520	H	0.526644	0.590668	0.716740
H521	H	0.078898	0.035582	0.152830
H522	H	0.578898	0.535582	0.652830
H523	H	0.144162	0.069366	0.081308
H524	H	0.644162	0.569366	0.581308
H525	H	0.157172	0.158238	0.073696
H526	H	0.657172	0.658238	0.573696
H527	H	0.104917	0.213324	0.137606
H528	H	0.604917	0.713324	0.637606
C529	C	0.685273	1.051774	0.322158
C530	C	1.185273	1.551774	0.822158
C531	C	0.648465	1.025981	0.358897
C532	C	1.148465	1.525981	0.858897
C533	C	0.611663	1.051795	0.395644
C534	C	1.111663	1.551795	0.895644
C535	C	0.611668	1.103403	0.395654
C536	C	1.111668	1.603403	0.895654
C537	C	0.648477	1.129199	0.358914
C538	C	1.148477	1.629199	0.858914
C539	C	0.685279	1.103385	0.322166
C540	C	1.185279	1.603385	0.822166
H541	H	0.648460	0.987775	0.358891
H542	H	1.148460	1.487775	0.858891
H543	H	0.584414	1.032699	0.422842
H544	H	1.084414	1.532699	0.922842
H545	H	0.584425	1.122513	0.422857
H546	H	1.084425	1.622513	0.922857
H547	H	0.648483	1.167405	0.358920
H548	H	1.148483	1.667405	0.858920
H549	H	0.712528	1.122481	0.294969
H550	H	1.212528	1.622481	0.794969
H551	H	-0.044973	0.164338	0.191492
H552	H	0.455027	0.664338	0.691492
C553	C	0.313071	0.127303	0.148554
C554	C	0.813071	0.627303	0.648554
C555	C	0.350648	0.092059	0.171282
C556	C	0.850648	0.592059	0.671282
C557	C	0.380680	0.060403	0.134565
C558	C	0.880680	0.560403	0.634565
C559	C	0.373137	0.063991	0.075121
C560	C	0.873137	0.563991	0.575121
C561	C	0.335559	0.099237	0.052390
C562	C	0.835559	0.599237	0.552390
C563	C	0.305527	0.130893	0.089107
C564	C	0.805527	0.630893	0.589107
H565	H	0.356233	0.089401	0.215289
H566	H	0.856233	0.589401	0.715289
H567	H	0.408498	0.034312	0.151392
H568	H	0.908498	0.534312	0.651392
H569	H	0.395369	0.040558	0.047940
H570	H	0.895369	0.540558	0.547940
H571	H	0.329974	0.101895	0.008383
H572	H	0.829974	0.601895	0.508383
H573	H	0.277709	0.156985	0.072280
H574	H	0.777709	0.656985	0.572280
C575	C	0.564235	0.156072	0.181879
C576	C	1.064235	0.656072	0.681879
C577	C	0.601811	0.120834	0.204620
C578	C	1.101811	0.620834	0.704620
C579	C	0.631858	0.089178	0.167914
C580	C	1.131858	0.589178	0.667914
C581	C	0.624329	0.092761	0.108467
C582	C	1.124329	0.592761	0.608467
C583	C	0.586751	0.128000	0.085723
C584	C	1.086751	0.628000	0.585723
C585	C	0.556704	0.159656	0.122429
C586	C	1.056704	0.659656	0.622429
H587	H	0.607386	0.118181	0.248628
H588	H	1.107386	0.618181	0.748628
H589	H	0.659676	0.063091	0.184751
H590	H	1.159676	0.563091	0.684751
H591	H	0.646572	0.069327	0.081295
H592	H	1.146572	0.569327	0.581295
H593	H	0.581176	0.130653	0.041715
H594	H	1.081176	0.630653	0.541715
H595	H	0.528887	0.185742	0.105592
H596	H	1.028887	0.685742	0.605592
C597	C	0.825620	0.380794	0.181825
C598	C	1.325620	0.880794	0.681825
C599	C	0.821398	0.387276	0.122384
C600	C	1.321398	0.887276	0.622384
C601	C	0.858200	0.361460	0.085638
C602	C	1.358200	0.861460	0.585638
C603	C	0.899224	0.329161	0.108333
C604	C	1.399224	0.829161	0.608333
C605	C	0.903448	0.322678	0.167777
C606	C	1.403448	0.822678	0.667777
C607	C	0.866646	0.348495	0.204523
C608	C	1.366646	0.848495	0.704523
H609	H	0.791028	0.411187	0.105581
H610	H	1.291028	0.911187	0.605581
H611	H	0.855073	0.366259	0.041634
H612	H	1.355073	0.866259	0.541634
H613	H	0.926467	0.310050	0.081132
H614	H	1.426467	0.810050	0.581132
H615	H	0.933817	0.298768	0.184580
H616	H	1.433817	0.798768	0.684580
H617	H	0.869772	0.343695	0.248528
H618	H	1.369772	0.843695	0.748528
H619	H	0.694812	0.959956	0.312615
H620	H	1.194812	1.459956	0.812615
H621	H	0.457365	0.164299	0.191426
H622	H	0.957365	0.664299	0.691426
H623	H	0.661324	0.297256	0.801741
H624	H	1.161324	0.797256	1.301741
C625	C	0.651730	0.695201	0.355559
C626	C	1.151730	1.195201	0.855559
C627	C	0.592294	0.688791	0.351236
C628	C	1.092294	1.188791	0.851236
C629	C	0.555494	0.714599	0.387992
C630	C	1.055494	1.214599	0.887992
C631	C	0.578130	0.746815	0.429072
C632	C	1.078130	1.246815	0.929072
C633	C	0.637568	0.753226	0.433397
C634	C	1.137568	1.253226	0.933397
C635	C	0.674368	0.727419	0.396640
C636	C	1.174368	1.227419	0.896640
H637	H	0.575535	0.664941	0.320824
H638	H	1.075535	1.164941	0.820824
H639	H	0.511493	0.709853	0.384791
H640	H	1.011493	1.209853	0.884791
H641	H	0.550888	0.765920	0.456282
H642	H	1.050888	1.265920	0.956282
H643	H	0.654327	0.777076	0.463808
H644	H	1.154327	1.277076	0.963808
H645	H	0.718369	0.732165	0.399842
H646	H	1.218369	1.232165	0.899842
H647	H	0.661269	0.603386	0.346005
H648	H	1.161269	1.103386	0.846005
C649	C	0.685114	0.479389	0.322123
C650	C	1.185114	0.979389	0.822123
C651	C	0.625676	0.472994	0.317794
C652	C	1.125676	0.972994	0.817794
C653	C	0.588881	0.498816	0.354541
C654	C	1.088881	0.998816	0.854541
C655	C	0.611523	0.531033	0.395618
C656	C	1.111523	1.031033	0.895618
C657	C	0.670963	0.537429	0.399948
C658	C	1.170963	1.037429	0.899948
C659	C	0.707759	0.511607	0.363201
C660	C	1.207759	1.011607	0.863201
H661	H	0.608913	0.449144	0.287385
H662	H	1.108913	0.949144	0.787385
H663	H	0.544879	0.494081	0.351335
H664	H	1.044879	0.994081	0.851335
H665	H	0.584284	0.550148	0.422820
H666	H	1.084284	1.050148	0.922820
H667	H	0.687727	0.561279	0.430357
H668	H	1.187727	1.061279	0.930357
H669	H	0.751761	0.516343	0.366407
H670	H	1.251761	1.016343	0.866407
C671	C	0.859195	0.737350	0.148455
C672	C	1.359195	1.237350	0.648455
C673	C	0.854973	0.743834	0.089015
C674	C	1.354973	1.243834	0.589015
C675	C	0.891779	0.718023	0.052268
C676	C	1.391779	1.218023	0.552268
C677	C	0.932807	0.685728	0.074961
C678	C	1.432807	1.185728	0.574961
C679	C	0.937031	0.679243	0.134405
C680	C	1.437031	1.179243	0.634405
C681	C	0.900225	0.705054	0.171152
C682	C	1.400225	1.205054	0.671152
H683	H	0.824599	0.767742	0.072213
H684	H	1.324599	1.267742	0.572213
H685	H	0.888652	0.722824	0.008263
H686	H	1.388652	1.222824	0.508263
H687	H	0.960053	0.666621	0.047759
H688	H	1.460053	1.166621	0.547759
H689	H	0.967404	0.655335	0.151207
H690	H	1.467404	1.155335	0.651207
H691	H	0.903352	0.700253	0.215156
H692	H	1.403352	1.200253	0.715156
H693	H	0.849654	0.829176	0.158010
H694	H	1.349654	1.329176	0.658010
H695	H	0.816249	1.045021	0.191417
H696	H	1.316249	1.545021	0.691417
H697	H	0.694647	0.387554	0.312570
H698	H	1.194647	0.887554	0.812570
