data_functionalizedCrystal
_audit_creation_method	'MofGen! by Chris Wilmer'
_symmetry_space_group_name_H-M	'P1'
_symmetry_Int_Tables_number	1
_symmetry_cell_setting	triclinic
loop_
_symmetry_equiv_pos_as_xyz
  x,y,z
_cell_length_a	13.897449
_cell_length_b	18.215405
_cell_length_c	18.215399
_cell_angle_alpha	90.032960
_cell_angle_beta	89.984477
_cell_angle_gamma	89.973835
loop_
_atom_site_label
_atom_site_type_symbol
_atom_site_fract_x
_atom_site_fract_y
_atom_site_fract_z
Zn1	Zn	1.474605	0.292949	-0.416077
Zn2	Zn	1.474493	0.416026	-0.293005
Zn3	Zn	1.313309	0.292980	-0.293027
Zn4	Zn	1.313255	0.415981	-0.416033
O5	O	1.393916	0.354484	-0.354536
O6	O	1.609572	0.309281	-0.399761
O7	O	1.453087	0.399735	-0.190024
O8	O	1.334774	0.189992	-0.309378
O9	O	1.609490	0.399705	-0.309340
O10	O	1.453277	0.189969	-0.399782
O11	O	1.334666	0.309334	-0.190040
O12	O	1.178320	0.309291	-0.309335
O13	O	1.334683	0.399629	-0.519023
O14	O	1.178281	0.399659	-0.399707
O15	O	1.453226	0.309238	-0.519055
O16	O	1.453036	0.519004	-0.309297
O17	O	1.334575	0.518971	-0.399685
C18	C	1.393814	0.545690	-0.354500
C19	C	1.393858	0.627489	-0.354510
C20	C	1.143301	0.354474	-0.354519
C21	C	1.036087	0.354488	-0.354529
C22	C	1.393961	0.354425	-0.546489
C23	C	1.393980	0.354400	-0.628288
C24	C	0.839792	0.354490	-0.354548
C25	C	0.949025	0.354487	-0.354536
C26	C	1.645508	0.354495	-0.354553
C27	C	1.752722	0.354499	-0.354560
C28	C	1.394044	0.162531	-0.354587
C29	C	1.394099	0.080732	-0.354609
C30	C	1.455686	0.815676	-0.307531
C31	C	1.455729	0.892534	-0.307549
C32	C	1.332269	0.892540	-0.401593
C33	C	1.332231	0.815683	-0.401578
C34	C	1.393938	0.777253	-0.354543
C35	C	1.394019	0.930969	-0.354576
C36	C	1.394065	1.014302	-0.354595
C37	C	1.393893	0.693914	-0.354524
C38	C	1.332370	0.307297	-0.816491
C39	C	1.332387	0.307282	-0.893350
C40	C	1.455706	0.401416	-0.893322
C41	C	1.455684	0.401434	-0.816465
C42	C	1.394017	0.354370	-0.778051
C43	C	1.394056	0.354337	-0.931767
C44	C	1.394075	0.354322	-1.015101
C45	C	1.393997	0.354387	-0.694712
C46	C	1.393926	0.354490	-0.163329
C47	C	1.394093	0.354307	-0.081531
H48	H	1.505933	0.784387	-0.269234
N49	N	1.518799	0.931770	-0.259515
N50	N	1.512452	0.923240	-0.191602
H51	H	1.556999	0.950949	-0.157675
N52	N	1.269248	0.931809	-0.449632
N53	N	1.269289	1.000431	-0.449640
H54	H	1.224778	1.028164	-0.483568
N55	N	1.269168	0.776431	-0.449615
N56	N	1.275518	0.784960	-0.517528
H57	H	1.230985	0.757239	-0.551456
H58	H	1.505913	0.439733	-0.924608
H59	H	1.282158	0.268974	-0.785217
N60	N	1.269405	0.259197	-0.932603
N61	N	1.214350	0.217185	-0.898293
H62	H	1.169864	0.183223	-0.926015
H63	H	1.505886	0.439770	-0.785166
