data_functionalizedCrystal
_audit_creation_method	'MofGen! by Chris Wilmer'
_symmetry_space_group_name_H-M	'P1'
_symmetry_Int_Tables_number	1
_symmetry_cell_setting	triclinic
loop_
_symmetry_equiv_pos_as_xyz
  x,y,z
_cell_length_a	9.482900
_cell_length_b	14.971486
_cell_length_c	14.971486
_cell_angle_alpha	83.614129
_cell_angle_beta	99.345500
_cell_angle_gamma	80.704073
loop_
_atom_site_label
_atom_site_type_symbol
_atom_site_fract_x
_atom_site_fract_y
_atom_site_fract_z
O1	O	0.120726	-1.200851	-0.102592
O2	O	0.620726	-0.700851	0.397408
O3	O	0.120766	-0.940456	-0.116546
O4	O	0.620766	-0.440456	0.383454
O5	O	0.120735	-1.077632	0.020630
O6	O	0.620735	-0.577632	0.520630
O7	O	0.120758	-1.063675	-0.239768
O8	O	0.620758	-0.563675	0.260232
O9	O	-0.121051	-1.049768	-0.007346
O10	O	0.378949	-0.549768	0.492654
O11	O	-0.121020	-0.912592	-0.144522
O12	O	0.378980	-0.412592	0.355478
O13	O	-0.121060	-1.172988	-0.130568
O14	O	0.378940	-0.672988	0.369432
Cu15	Cu	-0.143117	-1.040246	-0.140099
Cu16	Cu	0.356883	-0.540246	0.359901
Cu17	Cu	0.142823	-1.073198	-0.107015
Cu18	Cu	0.642823	-0.573198	0.392985
O19	O	-0.121028	-1.035812	-0.267743
O20	O	0.378972	-0.535812	0.232257
C21	C	-0.000122	-0.893200	-0.129909
C22	C	0.499878	-0.393200	0.370091
C23	C	-0.000107	-0.793904	-0.128037
C24	C	0.499893	-0.293904	0.371963
N25	N	-0.344232	-1.017076	-0.163368
N26	N	0.155768	-0.517076	0.336632
C27	C	-0.000158	-1.063076	0.039967
C28	C	0.499842	-0.563076	0.539967
C29	C	-0.000156	-1.061205	0.139264
C30	C	0.499844	-0.561205	0.639264
C31	C	-0.416442	-1.066357	-0.113873
C32	C	0.083558	-0.566357	0.386127
C33	C	-0.583855	-1.047086	-0.133241
C34	C	-0.083855	-0.547086	0.366759
N35	N	0.343938	-1.096375	-0.083739
N36	N	0.843938	-0.596375	0.416261
C37	C	-0.000168	-1.220244	-0.117204
C38	C	0.499832	-0.720244	0.382796
C39	C	-0.000174	-1.319541	-0.119076
C40	C	0.499826	-0.819541	0.380924
C41	C	-0.000102	-0.736680	-0.208625
C42	C	0.499898	-0.236680	0.291375
C43	C	-0.000124	-0.643378	-0.206865
C44	C	0.499876	-0.143378	0.293135
C45	C	-0.000140	-0.607304	-0.124513
C46	C	0.499860	-0.107304	0.375487
C47	C	-0.000150	-0.664535	-0.043919
C48	C	0.499850	-0.164535	0.456081
C49	C	-0.000138	-0.757834	-0.045682
C50	C	0.499862	-0.257834	0.454318
C51	C	-0.000170	-0.470070	-0.040250
C52	C	0.499830	0.029930	0.459750
C53	C	-0.000179	-0.376765	-0.038487
C54	C	0.499821	0.123235	0.461513
C55	C	-0.000156	-0.355614	-0.201433
C56	C	0.499844	0.144386	0.298567
C57	C	-0.000144	-0.448913	-0.203196
C58	C	0.499856	0.051087	0.296804
C59	C	-0.000151	-0.506138	-0.122601
C60	C	0.499849	-0.006138	0.377399
C61	C	-0.000133	-1.050368	-0.287080
C62	C	0.499867	-0.550368	0.212920
C63	C	-0.000125	-1.052240	-0.386376
C64	C	0.499875	-0.552240	0.113624
C65	C	-0.000169	-1.141793	0.196488
C66	C	0.499831	-0.641793	0.696488
C67	C	-0.000154	-1.140031	0.289789
C68	C	0.499846	-0.640031	0.789789
C69	C	-0.000137	-1.057680	0.325863
C70	C	0.499863	-0.557680	0.825863
C71	C	-0.000119	-0.977087	0.268633
C72	C	0.499881	-0.477087	0.768633
C73	C	-0.000123	-0.978850	0.175334
C74	C	0.499877	-0.478850	0.675334
C75	C	-0.000113	-0.973417	0.463096
C76	C	0.499887	-0.473417	0.963096
C77	C	-0.000111	-0.971652	0.556400
C78	C	0.499889	-0.471652	1.056400
C79	C	-0.000144	-1.134598	0.577550
C80	C	0.499856	-0.634598	1.077550
C81	C	-0.000149	-1.136361	0.484252
C82	C	0.499851	-0.636361	0.984252
C83	C	-0.000134	-1.055767	0.427027
C84	C	0.499866	-0.555767	0.927027
H85	H	-0.354327	-1.122813	-0.057157
H86	H	0.145673	-0.622813	0.442843
Cl87	Cl	-0.000181	-0.542009	0.061071
Cl88	Cl	0.499819	-0.042009	0.561071
Cl89	Cl	-0.000108	-0.571442	-0.308180
Cl90	Cl	0.499892	-0.071442	0.191820
H91	H	-0.645967	-0.990620	-0.189954
H92	H	-0.145967	-0.490620	0.310046
H93	H	-0.000097	-0.907788	0.416506
H94	H	0.499903	-0.407788	0.916506
Cl95	Cl	-0.000079	-0.873561	0.313985
Cl96	Cl	0.499921	-0.373561	0.813985
H97	H	-0.000184	-0.635154	0.023130
H98	H	0.499816	-0.135154	0.523130
Cl99	Cl	-0.000207	-1.245324	0.151145
Cl100	Cl	0.499793	-0.745324	0.651145
Cl101	Cl	-0.560178	-1.183740	0.003637
Cl102	Cl	-0.060178	-0.683740	0.503637
Cl103	Cl	-0.440126	-0.929901	-0.250926
Cl104	Cl	0.059874	-0.429901	0.249074
H105	H	-0.000112	-0.913227	0.128743
H106	H	0.499888	-0.413227	0.628743
Cl107	Cl	-0.000176	-1.241346	0.361724
Cl108	Cl	0.499824	-0.741346	0.861724
Cl109	Cl	-0.000090	-0.868123	0.601749
Cl110	Cl	0.499910	-0.368123	1.101749
Cl111	Cl	-0.000072	-0.782021	-0.312158
Cl112	Cl	0.499928	-0.282021	0.187842
Cl113	Cl	-0.000108	-0.494264	-0.306723
Cl114	Cl	0.499892	0.005736	0.193277
H115	H	-0.000157	-0.309015	-0.267058
H116	H	0.499843	0.190985	0.232942
H117	H	-0.000152	-1.200221	0.624148
H118	H	0.499848	-0.700221	1.124148
Cl119	Cl	-0.000248	-0.331410	0.065036
Cl120	Cl	0.499752	0.168590	0.565036
Cl121	Cl	-0.000151	-0.829774	0.055633
Cl122	Cl	0.499849	-0.329774	0.555633
Cl123	Cl	-0.000164	-1.239891	0.438903
Cl124	Cl	0.499836	-0.739891	0.938903
