data_functionalizedCrystal
_audit_creation_method	'MofGen! by Chris Wilmer'
_symmetry_space_group_name_H-M	'P1'
_symmetry_Int_Tables_number	1
_symmetry_cell_setting	triclinic
loop_
_symmetry_equiv_pos_as_xyz
  x,y,z
_cell_length_a	14.519709
_cell_length_b	10.654550
_cell_length_c	9.730223
_cell_angle_alpha	89.998978
_cell_angle_beta	90.007176
_cell_angle_gamma	95.917462
loop_
_atom_site_label
_atom_site_type_symbol
_atom_site_fract_x
_atom_site_fract_y
_atom_site_fract_z
O1	O	0.129535	-1.666595	0.114191
O2	O	0.629535	-1.166595	0.614191
O3	O	0.141875	-1.300998	0.114216
O4	O	0.641875	-0.800998	0.614216
O5	O	0.001517	-1.493490	0.114190
O6	O	0.501517	-0.993490	0.614190
O7	O	0.269893	-1.474103	0.114216
O8	O	0.769893	-0.974103	0.614216
O9	O	0.001508	-1.493474	-0.114390
O10	O	0.501508	-0.993474	0.385610
O11	O	0.141867	-1.300983	-0.114364
O12	O	0.641867	-0.800983	0.385636
O13	O	0.129526	-1.666580	-0.114389
O14	O	0.629526	-1.166580	0.385611
Zn15	Zn	0.135695	-1.483779	-0.150669
Zn16	Zn	0.635695	-0.983779	0.349331
Zn17	Zn	0.135706	-1.483799	0.150495
Zn18	Zn	0.635706	-0.983799	0.650495
O19	O	0.269885	-1.474088	-0.114363
O20	O	0.769885	-0.974088	0.385637
C21	C	0.140965	-1.254201	-0.000071
C22	C	0.640965	-0.754201	0.499929
C23	C	0.138254	-1.114784	-0.000061
C24	C	0.638254	-0.614784	0.499939
C25	C	-0.032852	-1.492579	-0.000100
C26	C	0.467148	-0.992579	0.499900
C27	C	-0.135247	-1.489871	-0.000100
C28	C	0.364753	-0.989871	0.499900
C29	C	0.130436	-1.713377	-0.000099
C30	C	0.630436	-1.213377	0.499901
C31	C	0.133147	-1.852794	-0.000100
C32	C	0.633147	-1.352794	0.499900
C33	C	-0.510195	-1.479904	-0.000064
C34	C	-0.010195	-0.979904	0.499936
C35	C	-0.405872	-1.482672	-0.000075
C36	C	0.094128	-0.982672	0.499925
C37	C	-0.322724	-1.484887	-0.000083
C38	C	0.177276	-0.984887	0.499917
C39	C	-0.218395	-1.487656	-0.000091
C40	C	0.281605	-0.987656	0.499909
C41	C	0.304253	-1.474999	-0.000070
C42	C	0.804253	-0.974999	0.499930
C43	C	0.406649	-1.477706	-0.000061
C44	C	0.906649	-0.977706	0.499939
N45	N	0.135687	-1.483774	-0.356205
N46	N	0.635687	-0.983774	0.143795
C47	C	0.220895	-1.034504	-0.000057
C48	C	0.720895	-0.534504	0.499943
C49	C	0.218342	-0.903507	-0.000081
C50	C	0.718342	-0.403507	0.499919
C51	C	0.050500	-0.933084	-0.000108
C52	C	0.550500	-0.433084	0.499892
C53	C	0.053054	-1.064078	-0.000094
C54	C	0.553054	-0.564078	0.499906
C55	C	0.079248	-1.407519	-0.572068
C56	C	0.579248	-0.907519	-0.072068
C57	C	0.079235	-1.407503	-0.428185
C58	C	0.579235	-0.907503	0.071815
C59	C	0.192149	-1.560077	-0.428115
C60	C	0.692149	-1.060077	0.071885
C61	C	0.192156	-1.560099	-0.571996
C62	C	0.692156	-1.060099	-0.071996
N63	N	0.135707	-1.483813	0.356032
N64	N	0.635707	-0.983813	0.856032
H65	H	0.285637	-0.838147	-0.000081
H66	H	0.785637	-0.338147	0.499919
N67	N	0.018360	-1.325254	-0.649699
N68	N	0.518360	-0.825254	-0.149699
H69	H	-0.017411	-1.276924	-0.582312
H70	H	0.482589	-0.776924	-0.082312
H71	H	-0.026345	-1.379926	-0.709396
H72	H	0.473655	-0.879926	-0.209396
N73	N	-0.041384	-0.878377	-0.000126
N74	N	0.458616	-0.378377	0.499874
H75	H	-0.077627	-0.907633	0.084605
H76	H	0.422373	-0.407633	0.584605
H77	H	-0.077558	-0.907654	-0.084921
H78	H	0.422442	-0.407654	0.415079
H79	H	-0.014247	-1.129446	-0.000101
H80	H	0.485753	-0.629446	0.499899
H81	H	0.033259	-1.345378	-0.369650
H82	H	0.533259	-0.845378	0.130350
H83	H	0.238108	-1.622184	-0.369498
H84	H	0.738108	-1.122184	0.130502
H85	H	0.238133	-1.622234	-0.630538
H86	H	0.738133	-1.122234	-0.130538
H87	H	0.290270	-1.075783	-0.000041
H88	H	0.790270	-0.575783	0.499959
