data_functionalizedCrystal
_audit_creation_method	'MofGen! by Chris Wilmer'
_symmetry_space_group_name_H-M	'P1'
_symmetry_Int_Tables_number	1
_symmetry_cell_setting	triclinic
loop_
_symmetry_equiv_pos_as_xyz
  x,y,z
_cell_length_a	16.120530
_cell_length_b	21.395361
_cell_length_c	21.395355
_cell_angle_alpha	89.978489
_cell_angle_beta	92.920957
_cell_angle_gamma	92.874023
loop_
_atom_site_label
_atom_site_type_symbol
_atom_site_fract_x
_atom_site_fract_y
_atom_site_fract_z
Zn1	Zn	1.274542	0.298157	0.402756
Zn2	Zn	1.274412	0.402911	0.297968
Zn3	Zn	1.135113	0.292835	0.292686
Zn4	Zn	1.135072	0.397577	0.397405
O5	O	1.204785	0.347870	0.347704
O6	O	1.391190	0.316512	0.393305
O7	O	1.255897	0.388315	0.209588
O8	O	1.153680	0.205866	0.307316
O9	O	1.391095	0.393475	0.316318
O10	O	1.256118	0.209776	0.388183
O11	O	1.153554	0.307442	0.205707
O12	O	1.018442	0.302270	0.302127
O13	O	1.153610	0.384383	0.485794
O14	O	1.018412	0.379223	0.379064
O15	O	1.256078	0.311340	0.489725
O16	O	1.255857	0.489879	0.311129
O17	O	1.153484	0.485960	0.384185
C18	C	1.204675	0.510654	0.347664
C19	C	1.204704	0.580296	0.347672
C20	C	0.988177	0.339591	0.339442
C21	C	0.895511	0.336064	0.335923
C22	C	1.204854	0.347860	0.511129
C23	C	1.204884	0.347856	0.580772
C24	C	0.725850	0.329610	0.329503
C25	C	0.684560	0.366176	0.365950
C26	C	0.590155	0.362585	0.362378
C27	C	0.820264	0.333200	0.333074
C28	C	1.422238	0.356182	0.355998
C29	C	1.514904	0.359724	0.359532
C30	C	1.204918	0.184452	0.347757
C31	C	1.204975	0.114813	0.347780
C32	C	1.258056	0.615031	0.309674
C33	C	1.258095	0.680468	0.309690
C34	C	1.204767	0.711167	0.347695
C35	C	1.151410	0.676424	0.385701
C36	C	1.151379	0.610988	0.385689
C37	C	1.129700	0.812017	0.349748
C38	C	1.129730	0.877451	0.349756
C39	C	1.204864	0.912991	0.347736
C40	C	1.279969	0.883089	0.345695
C41	C	1.279938	0.817654	0.345683
C42	C	1.204795	0.782120	0.347713
C43	C	1.258263	1.018680	0.309753
C44	C	1.258303	1.084118	0.309773
C45	C	1.151611	1.080073	0.385781
C46	C	1.151578	1.014636	0.385764
C47	C	1.204903	0.983944	0.347747
C48	C	1.204764	0.347837	0.184915
C49	C	1.204896	0.347671	0.115279
C50	C	1.258236	0.309820	0.615533
C51	C	1.258235	0.309793	0.680968
C52	C	1.204890	0.347813	0.711641
C53	C	1.151527	0.385851	0.676871
C54	C	1.151524	0.385873	0.611437
C55	C	1.198269	0.403976	0.815051
C56	C	1.198278	0.403956	0.880484
C57	C	1.204895	0.347747	0.913462
C58	C	1.211521	0.291558	0.880998
C59	C	1.211517	0.291579	0.815564
C60	C	1.204887	0.347794	0.782593
C61	C	1.258249	0.309679	1.019175
C62	C	1.258242	0.309651	1.084612
C63	C	1.151539	0.385715	1.080513
C64	C	1.151541	0.385737	1.015078
C65	C	1.204901	0.347721	0.984413
H66	H	0.720111	0.400177	0.399837
N67	N	1.218286	0.234132	0.914666
N68	N	1.280799	0.202546	0.909760
H69	H	1.285579	0.161991	0.933541
H70	H	0.690301	0.295612	0.295619
H71	H	1.301479	0.590043	0.278720
H72	H	1.301544	0.708754	0.278748
H73	H	1.301685	0.278863	0.590570
H74	H	1.341091	0.793309	0.344024
N75	N	1.096934	0.707789	0.424513
N76	N	1.043841	0.742322	0.400414
H77	H	1.005367	0.764475	0.427827
H78	H	1.301693	0.278720	0.994206
N79	N	1.097013	0.424720	0.575926
N80	N	1.020088	0.417617	0.580281
H81	H	0.981588	0.445054	0.555201
H82	H	1.341150	0.912025	0.344051
N83	N	1.097044	0.424586	0.979559
N84	N	1.043936	0.400520	0.941012
H85	H	1.005441	0.427955	0.915926
N86	N	1.053014	0.907990	0.351829
N87	N	0.997653	0.898626	0.309342
H88	H	0.943469	0.920193	0.310806
N89	N	1.312755	0.270805	1.120122
N90	N	1.365860	0.294871	1.158672
H91	H	1.404362	0.267437	1.183753
N92	N	1.191456	0.461349	0.913630
N93	N	1.185496	0.511526	0.884179
H94	H	1.180654	0.552060	0.907586
N95	N	1.312735	0.987334	0.270919
N96	N	1.360375	1.018358	0.236998
H97	H	1.398847	0.996222	0.209569
H98	H	1.107932	0.582706	0.416631
H99	H	1.301679	0.278816	0.709276
N100	N	1.218286	0.234182	0.782412
N101	N	1.224197	0.183998	0.811857
H102	H	1.228975	0.143459	0.788444
H103	H	1.301754	1.112399	0.278833
N104	N	1.097146	1.111433	0.424604
N105	N	1.097182	1.169857	0.424612
H106	H	1.058717	1.192009	0.452033
N107	N	1.097072	0.979161	0.424581
N108	N	1.049463	1.006576	0.458515
H109	H	1.010967	0.981522	0.485933
N110	N	1.097021	0.424681	0.708192
N111	N	1.020096	0.417577	0.697934
H112	H	0.981593	0.444998	0.720054
N113	N	1.052941	0.775726	0.351819
N114	N	0.985891	0.802429	0.353636
H115	H	0.931681	0.776800	0.355100
N116	N	1.191553	0.461407	0.781381
N117	N	1.248179	0.479990	0.747055
H118	H	1.243447	0.520552	0.723280
N119	N	1.097044	0.424542	1.111846
N120	N	1.097049	0.424516	1.170269
H121	H	1.058558	0.451936	1.192400
