data_functionalizedCrystal
_audit_creation_method	'MofGen! by Chris Wilmer'
_symmetry_space_group_name_H-M	'P1'
_symmetry_Int_Tables_number	1
_symmetry_cell_setting	triclinic
loop_
_symmetry_equiv_pos_as_xyz
  x,y,z
_cell_length_a	16.109301
_cell_length_b	16.109301
_cell_length_c	9.730223
_cell_angle_alpha	90.002516
_cell_angle_beta	89.997247
_cell_angle_gamma	83.461481
loop_
_atom_site_label
_atom_site_type_symbol
_atom_site_fract_x
_atom_site_fract_y
_atom_site_fract_z
O1	O	0.106864	1.103127	-0.114207
O2	O	0.606864	1.603127	0.385793
O3	O	0.120163	0.861065	-0.114230
O4	O	0.620163	1.361065	0.385770
O5	O	-0.007518	0.988746	-0.114204
O6	O	0.492482	1.488746	0.385796
O7	O	0.234544	0.975446	-0.114233
O8	O	0.734544	1.475446	0.385767
O9	O	-0.007515	0.988744	0.114376
O10	O	0.492485	1.488744	0.614376
O11	O	0.120166	0.861064	0.114350
O12	O	0.620166	1.361064	0.614350
O13	O	0.106867	1.103126	0.114373
O14	O	0.606867	1.603126	0.614373
Zn15	Zn	0.113517	0.982094	0.150653
Zn16	Zn	0.613517	1.482094	0.650653
Zn17	Zn	0.113513	0.982096	-0.150511
Zn18	Zn	0.613513	1.482096	0.349489
O19	O	0.234547	0.975445	0.114347
O20	O	0.734547	1.475445	0.614347
C21	C	0.119626	0.830090	0.000057
C22	C	0.619626	1.330090	0.500057
C23	C	0.118011	0.737794	0.000049
C24	C	0.618011	1.237794	0.500049
C25	C	0.190018	0.515522	0.000057
C26	C	0.690018	1.015522	0.500057
C27	C	0.188494	0.428801	0.000066
C28	C	0.688494	0.928801	0.500066
C29	C	0.037006	0.448676	0.000078
C30	C	0.537006	0.948676	0.500078
C31	C	0.038530	0.535394	0.000079
C32	C	0.538530	1.035394	0.500079
C33	C	0.115039	0.568815	0.000061
C34	C	0.615039	1.068815	0.500061
C35	C	0.111990	0.395376	0.000069
C36	C	0.611990	0.895376	0.500069
C37	C	0.110337	0.301350	0.000079
C38	C	0.610337	0.801350	0.500079
C39	C	0.116693	0.662847	0.000054
C40	C	0.616693	1.162847	0.500054
C41	C	-0.038491	0.988206	0.000087
C42	C	0.461509	1.488206	0.500087
C43	C	-0.130786	0.986591	0.000088
C44	C	0.369214	1.486591	0.500088
C45	C	-0.353059	1.058599	0.000073
C46	C	0.146941	1.558599	0.500073
C47	C	-0.439779	1.057075	0.000062
C48	C	0.060221	1.557075	0.500062
C49	C	-0.419905	0.905586	0.000053
C50	C	0.080095	1.405586	0.500053
C51	C	-0.333186	0.907111	0.000055
C52	C	0.166814	1.407111	0.500055
C53	C	-0.299766	0.983620	0.000072
C54	C	0.200234	1.483620	0.500072
C55	C	-0.473205	0.980571	0.000059
C56	C	0.026795	1.480571	0.500059
C57	C	-0.567231	0.978918	0.000046
C58	C	-0.067231	1.478918	0.500046
C59	C	-0.205734	0.985273	0.000082
C60	C	0.294266	1.485273	0.500082
C61	C	0.265521	0.975984	0.000053
C62	C	0.765521	1.475984	0.500053
C63	C	0.357816	0.977600	0.000042
C64	C	0.857816	1.477600	0.500042
C65	C	0.107404	1.134101	0.000082
C66	C	0.607404	1.634101	0.500082
C67	C	0.109019	1.226397	0.000081
C68	C	0.609019	1.726397	0.500081
N69	N	0.113519	0.982099	0.356190
N70	N	0.613519	1.482099	0.856190
N71	N	0.113504	0.982098	-0.356047
N72	N	0.613504	1.482098	0.143953
C73	C	0.057001	1.038650	0.428127
C74	C	0.557001	1.538650	0.928127
C75	C	0.056991	1.038648	0.572010
C76	C	0.556991	1.538648	1.072010
C77	C	0.170024	0.925541	0.572006
C78	C	0.670024	1.425541	1.072006
C79	C	0.170030	0.925540	0.428125
C80	C	0.670030	1.425540	0.928125
C81	C	-0.008255	1.103955	0.428131
C82	C	0.491745	1.603955	0.928131
C83	C	-0.008265	1.103953	0.572014
C84	C	0.491735	1.603953	1.072014
H85	H	0.252317	0.542730	0.000053
H86	H	0.752317	1.042730	0.500053
F87	F	0.009599	1.187300	0.623068
F88	F	0.509599	1.687300	1.123068
F89	F	-0.455481	0.824164	0.000034
F90	F	0.044519	1.324164	0.500034
H91	H	-0.072036	1.090333	0.389083
H92	H	0.427964	1.590333	0.889083
H93	H	0.216044	0.879484	0.369555
H94	H	0.716044	1.379484	0.869555
F95	F	0.268298	0.372086	0.000063
F96	F	0.768298	0.872086	0.500063
F97	F	-0.044416	0.413100	0.000091
F98	F	0.455584	0.913100	0.500091
F99	F	-0.276464	0.827304	0.000043
F100	F	0.223536	1.327304	0.500043
F101	F	-0.041277	0.592117	0.000093
F102	F	0.458723	1.092117	0.500093
H103	H	-0.068477	1.084294	0.616635
H104	H	0.431523	1.584294	1.116635
H105	H	-0.483168	1.118130	0.000060
H106	H	0.016832	1.618130	0.500060
F107	F	-0.317493	1.140026	0.000090
F108	F	0.182507	1.640026	0.500090
H109	H	0.216033	0.879491	0.630591
H110	H	0.716033	1.379491	1.130591
F111	F	0.017514	1.182617	0.369798
F112	F	0.517514	1.682617	0.869798
