data_functionalizedCrystal
_audit_creation_method	'MofGen! by Chris Wilmer'
_symmetry_space_group_name_H-M	'P1'
_symmetry_Int_Tables_number	1
_symmetry_cell_setting	triclinic
loop_
_symmetry_equiv_pos_as_xyz
  x,y,z
_cell_length_a	31.640172
_cell_length_b	31.640171
_cell_length_c	17.052862
_cell_angle_alpha	70.243933
_cell_angle_beta	89.995270
_cell_angle_gamma	59.987882
loop_
_atom_site_label
_atom_site_type_symbol
_atom_site_fract_x
_atom_site_fract_y
_atom_site_fract_z
Zr1	Zr	0.414504	0.447849	-0.091622
O2	O	0.356026	0.517997	-0.202696
O3	O	0.432443	0.365187	-0.057524
O4	O	0.444222	0.429792	-0.202634
O5	O	0.334941	0.471999	0.056825
O6	O	0.513779	0.429785	-0.202638
O7	O	0.344247	0.453392	-0.057586
O8	O	0.492708	0.314217	0.056936
O9	O	0.356011	0.587567	-0.202750
O10	O	0.491988	0.403816	-0.043042
O11	O	0.433134	0.417709	0.042345
O12	O	0.447002	0.493774	-0.128503
O13	O	0.388148	0.507666	-0.043116
Zr14	Zr	0.510597	0.477514	0.090844
Zr15	Zr	0.525439	0.447837	-0.091629
Zr16	Zr	0.399662	0.477526	0.090851
Zr17	Zr	0.414481	0.558805	-0.091708
Zr18	Zr	0.510620	0.366558	0.090930
O19	O	0.492657	0.560176	0.056746
O20	O	0.513760	0.517980	-0.202707
O21	O	0.334922	0.560194	0.056756
O22	O	0.569075	0.407366	0.201918
O23	O	0.590178	0.365169	-0.057534
O24	O	0.411340	0.407384	0.201928
O25	O	0.590160	0.453364	-0.057603
O26	O	0.480878	0.495571	0.201856
O27	O	0.411322	0.495579	0.201860
O28	O	0.580854	0.471971	0.056808
O29	O	0.444189	0.587557	-0.202756
O30	O	0.480911	0.337806	0.201978
O31	O	0.569089	0.337796	0.201972
O32	O	0.580887	0.314207	0.056931
O33	O	0.344214	0.611156	-0.057709
O34	O	0.432392	0.611146	-0.057715
O35	O	0.478098	0.431590	0.127725
O36	O	0.536953	0.417697	0.042338
O37	O	0.491967	0.507654	-0.043123
O38	O	0.433112	0.521547	0.042264
C39	C	0.462579	0.323893	-0.000282
C40	C	0.462589	0.276789	-0.000245
C41	C	0.431828	-0.052204	0.044190
C42	C	0.431850	0.124762	0.044265
O43	O	0.405740	0.153797	0.082208
N44	N	0.462574	0.139640	-0.000298
C45	C	0.493298	0.110272	-0.044878
O46	O	0.519435	0.126984	-0.082772
C47	C	0.493279	-0.066695	-0.044948
C48	C	0.462548	-0.081568	-0.000389
C49	C	0.401101	-0.067077	0.088746
C50	C	0.401094	-0.111314	0.088723
C51	C	0.431814	-0.140678	0.044144
C52	C	0.462541	-0.125805	-0.000412
C53	C	0.524004	-0.096065	-0.089522
C54	C	0.523998	-0.140310	-0.089534
C55	C	0.493268	-0.155182	-0.044975
C56	C	0.493254	-0.199406	-0.045014
N57	N	0.462530	-0.214284	-0.000451
C58	C	0.431810	-0.184920	0.044128
C59	C	0.493305	0.203183	-0.044840
C60	C	0.493309	0.247425	-0.044824
C61	C	0.431862	0.261912	0.044321
C62	C	0.431855	0.217671	0.044299
C63	C	0.462581	0.188305	-0.000277
C64	C	0.431797	-0.277822	0.044076
C65	C	0.431791	-0.322062	0.044046
C66	C	0.493240	-0.336547	-0.045095
C67	C	0.493245	-0.292308	-0.045069
C68	C	0.462521	-0.262948	-0.000477
O69	O	0.519354	-0.228468	-0.082929
O70	O	0.405685	-0.201648	0.082032
C71	C	0.431835	-0.007966	0.044213
C72	C	0.462563	0.006907	-0.000343
C73	C	0.493283	-0.022457	-0.044922
C74	C	0.462567	0.051149	-0.000327
C75	C	0.431847	0.080513	0.044252
C76	C	0.401122	0.065635	0.088815
C77	C	0.401115	0.021397	0.088792
C78	C	0.524007	-0.007579	-0.089484
C79	C	0.524011	0.036659	-0.089459
C80	C	0.493291	0.066023	-0.044880
C81	C	0.323788	0.462697	-0.000380
C82	C	0.276693	0.462703	-0.000377
C83	C	-0.010185	0.452420	-0.063417
C84	C	-0.187171	0.452411	-0.063424
O85	O	-0.205685	0.443670	-0.117008
N86	N	-0.214428	0.462664	-0.000394
C87	C	-0.197435	0.472915	0.062644
O88	O	-0.224677	0.481630	0.116259
C89	C	-0.020448	0.472920	0.062653
C90	C	0.006805	0.462672	-0.000385
C91	C	0.017068	0.442173	-0.126450
C92	C	0.061310	0.442178	-0.126450
C93	C	0.078300	0.452430	-0.063418
C94	C	0.051047	0.462677	-0.000386
C95	C	-0.003454	0.483168	0.125694
C96	C	0.040797	0.483167	0.125692
C97	C	0.068050	0.472919	0.062654
C98	C	0.112279	0.472935	0.062646
N99	N	0.139537	0.462683	-0.000383
C100	C	0.122547	0.452430	-0.063415
C101	C	-0.290356	0.472913	0.062634
C102	C	-0.334603	0.472913	0.062631
C103	C	-0.324335	0.452408	-0.063436
C104	C	-0.280089	0.452412	-0.063436
C105	C	-0.263099	0.462661	-0.000395
C106	C	0.215459	0.452442	-0.063412
C107	C	0.259703	0.452450	-0.063409
C108	C	0.249433	0.472952	0.062660
C109	C	0.205191	0.472947	0.062655
C110	C	0.188206	0.462689	-0.000385
O111	O	0.130826	0.481666	0.116207
O112	O	0.149802	0.443706	-0.117012
C113	C	-0.054427	0.452415	-0.063417
C114	C	-0.081680	0.462662	-0.000384
C115	C	-0.064690	0.472915	0.062648
C116	C	-0.125927	0.462662	-0.000387
C117	C	-0.142917	0.452410	-0.063419
C118	C	-0.115659	0.442157	-0.126449
C119	C	-0.071417	0.442163	-0.126449
C120	C	-0.091947	0.483167	0.125677
C121	C	-0.136190	0.483162	0.125672
C122	C	-0.153179	0.472909	0.062640
C123	C	0.601313	0.462666	-0.000398
C124	C	0.648407	0.462661	-0.000401
C125	C	0.481115	0.425560	-0.228634
C126	C	0.487416	0.412961	-0.306099
C127	C	0.462521	0.601470	-0.000497
C128	C	0.462511	0.648574	-0.000533
C129	C	0.411240	0.565280	-0.702901
C130	C	0.405317	0.577119	-0.630121
C131	C	0.425841	0.536080	-0.549112
C132	C	0.452289	0.483201	-0.540890
C133	C	0.458210	0.471361	-0.613677
C134	C	0.472811	0.442162	-0.459888
C135	C	0.499259	0.389283	-0.451666
C136	C	0.505178	0.377445	-0.524447
C137	C	0.484654	0.418483	-0.605455
C138	C	0.466891	0.454002	-0.387101
C139	C	0.513860	0.360083	-0.297877
C140	C	0.519783	0.348245	-0.370657
C141	C	0.443985	0.499803	0.227856
C142	C	0.437684	0.512402	0.305321
C143	C	0.601342	0.323877	-0.000291
C144	C	0.648446	0.276768	-0.000257
C145	C	0.444014	0.361014	0.227964
C146	C	0.437723	0.326510	0.305465
C147	C	0.582777	0.360999	0.227955
C148	C	0.623580	0.326488	0.305452
C149	C	0.342324	0.564365	-0.228733
C150	C	0.301520	0.598875	-0.306230
C151	C	0.323759	0.601486	-0.000487
C152	C	0.276654	0.648595	-0.000521
C153	C	0.481086	0.564349	-0.228742
C154	C	0.487377	0.598854	-0.306243
C155	C	0.647097	0.247399	-0.044817
C156	C	0.691354	0.203138	-0.044803
C157	C	0.736959	0.188246	-0.000223
C158	C	0.738307	0.217620	0.044338
C159	C	0.694051	0.261882	0.044318
C160	C	0.458239	0.317553	0.386435
C161	C	0.452326	0.285139	0.459262
C162	C	0.425899	0.261680	0.451117
C163	C	0.405380	0.270640	0.370138
C164	C	0.411291	0.303056	0.297313
C165	C	0.673468	0.303030	0.297275
C166	C	0.711813	0.270609	0.370085
C167	C	0.700268	0.261644	0.451072
C168	C	0.650375	0.285106	0.459248
C169	C	0.612032	0.317530	0.386439
C170	C	0.251632	0.622338	-0.298053
C171	C	0.213288	0.654773	-0.370863
C172	C	0.224833	0.663741	-0.451850
C173	C	0.274725	0.640276	-0.460026
C174	C	0.313069	0.607844	-0.387217
C175	C	0.278004	0.677968	0.044031
C176	C	0.233749	0.722238	0.043997
C177	C	0.188144	0.737131	-0.000585
C178	C	0.186795	0.707755	-0.045143
C179	C	0.231050	0.663489	-0.045113
C180	C	0.513807	0.622303	-0.298070
C181	C	0.519728	0.654720	-0.370884
C182	C	0.499215	0.663689	-0.451869
C183	C	0.472784	0.640235	-0.460039
C184	C	0.466867	0.607816	-0.387227
H185	H	0.406778	-0.253920	0.080384
H186	H	-0.356794	0.481266	0.113955
H187	H	0.421017	0.545723	-0.489854
O188	O	0.637930	0.275424	0.546603
H189	H	0.653927	0.289648	0.581894
O190	O	0.765623	0.245300	0.361258
H191	H	0.767204	0.256974	0.292710
H192	H	0.284120	0.647581	-0.525974
O193	O	0.419527	0.226714	0.529668
H194	H	0.436494	0.186376	0.529651
O195	O	0.597912	0.263461	-0.092915
H196	H	0.591323	0.230498	-0.067147
H197	H	0.376107	0.089552	0.125108
O198	O	0.535941	0.612631	-0.210730
H199	H	0.505716	0.626874	-0.175437
O200	O	0.229587	0.631809	-0.093165
H201	H	0.268019	0.598526	-0.085667
H202	H	0.541248	0.673814	-0.364214
H203	H	0.149657	0.719888	-0.081440
H204	H	0.234857	0.746149	0.080284
O205	O	0.533722	0.320413	-0.515585
H206	H	0.547011	0.293865	-0.447030
H207	H	0.731494	0.235242	0.510352
O208	O	0.450676	0.649910	-0.547400
H209	H	0.466952	0.611554	-0.554784
O210	O	0.558225	0.342816	0.395271
H211	H	0.550844	0.368722	0.430610
H212	H	-0.049230	0.433818	-0.177780
H213	H	0.445343	0.588727	-0.393893
O214	O	0.239175	0.612673	-0.210707
H215	H	0.198040	0.634447	-0.217267
O216	O	0.536005	0.315810	-0.210515
H217	H	0.577053	0.291019	-0.203112
O218	O	0.327188	0.661915	0.092119
H219	H	0.357740	0.626196	0.084668
H220	H	0.172666	0.673874	-0.364190
H221	H	0.193606	0.690149	-0.511130
H222	H	0.376072	-0.123420	0.125010
H223	H	0.353689	0.588739	-0.393885
O224	O	0.526386	-0.276265	-0.093138
H225	H	0.503036	-0.235444	-0.142416
H226	H	0.518327	0.259536	-0.081118
H227	H	0.406765	-0.334167	0.080330
H228	H	0.518251	-0.360460	-0.081393
H229	H	0.690246	0.179226	-0.081089
O230	O	0.140410	0.784864	-0.000587
H231	H	0.149014	0.802777	0.037901
H232	H	0.504037	0.690087	-0.511150
H233	H	0.376085	-0.043173	0.125051
H234	H	0.394585	0.310343	0.231386
O235	O	0.376894	0.245317	0.361372
H236	H	0.344424	0.258849	0.392409
O237	O	0.398702	0.201641	0.092348
H238	H	0.408790	0.192597	0.160875
O239	O	0.398741	0.293575	0.092431
H240	H	0.403917	0.326830	0.084966
H241	H	0.518326	0.179275	-0.081141
O242	O	0.557151	-0.080031	-0.137580
H243	H	0.578512	-0.107893	-0.168567
O244	O	0.784692	0.140505	-0.000201
H245	H	0.782398	0.104715	0.027722
O246	O	0.557133	-0.171979	-0.137624
H247	H	0.596691	-0.187973	-0.111847
O248	O	0.367957	0.005370	0.136826
H249	H	0.346597	0.033228	0.167818
O250	O	0.059121	0.494220	0.193693
H251	H	0.094469	0.492496	0.183114
O252	O	0.548314	0.291211	-0.361787
H253	H	0.529795	0.270961	-0.326414
O254	O	0.557157	0.052699	-0.137523
H255	H	0.578519	0.024841	-0.168516
H256	H	0.695157	0.285791	0.080609
O257	O	0.557137	-0.039243	-0.137578
H258	H	0.578496	-0.021458	-0.168565
O259	O	0.289100	0.441395	-0.131400
H260	H	0.269852	0.434260	-0.175223
H261	H	0.201635	0.444088	-0.114744
H262	H	0.083498	0.433831	-0.177779
O263	O	0.438365	0.511032	-0.395972
H264	H	0.463193	0.518673	-0.364947
O265	O	-0.001257	0.431120	-0.194446
H266	H	0.025131	0.424001	-0.238273
O267	O	0.787497	0.201552	0.092427
H268	H	0.818039	0.165835	0.084959
H269	H	0.479758	0.336651	0.393083
H270	H	0.682878	0.310324	0.231338
H271	H	0.263272	0.481302	0.113978
O272	O	-0.250693	0.441354	-0.131421
H273	H	-0.269944	0.434223	-0.175245
O274	O	0.474469	0.275471	0.546595
H275	H	0.458212	0.313831	0.553962
O276	O	-0.342664	0.441351	-0.131424
H277	H	-0.345013	0.405748	-0.101077
O278	O	-0.272033	0.483969	0.130630
H279	H	-0.298426	0.491101	0.174448
H280	H	0.182997	0.481299	0.113979
O281	O	-0.032834	0.494205	0.193701
H282	H	-0.013573	0.501321	0.237536
H283	H	-0.129501	0.433812	-0.177775
H284	H	-0.158379	0.491511	0.177004
H285	H	-0.078118	0.491515	0.177006
H286	H	0.383783	0.620173	-0.636822
O287	O	0.389112	0.609535	-0.790271
H288	H	0.362038	0.606386	-0.825565
O289	O	0.491042	0.405711	-0.683955
H290	H	0.472326	0.443132	-0.741662
