data_functionalizedCrystal
_audit_creation_method	'MofGen! by Chris Wilmer'
_symmetry_space_group_name_H-M	'P1'
_symmetry_Int_Tables_number	1
_symmetry_cell_setting	triclinic
loop_
_symmetry_equiv_pos_as_xyz
  x,y,z
_cell_length_a	8.597340
_cell_length_b	8.597304
_cell_length_c	14.586319
_cell_angle_alpha	82.296329
_cell_angle_beta	97.698596
_cell_angle_gamma	86.359595
loop_
_atom_site_label
_atom_site_type_symbol
_atom_site_fract_x
_atom_site_fract_y
_atom_site_fract_z
O1	O	2.085998	0.234302	0.070038
O2	O	1.629348	0.252277	0.032544
O3	O	1.866659	0.014961	0.070038
O4	O	1.848687	0.471619	0.032543
O5	O	1.866642	0.014957	0.222518
O6	O	1.629331	0.252273	0.185023
O7	O	2.085981	0.234298	0.222517
Cu8	Cu	1.857655	0.243285	0.217693
Cu9	Cu	1.857674	0.243290	0.037368
O10	O	1.848670	0.471615	0.185023
C11	C	1.570839	0.250345	0.104315
C12	C	1.396526	0.244574	0.091000
C13	C	1.864720	-0.043543	0.150745
C14	C	1.858949	-0.217858	0.164054
C15	C	2.144490	0.236231	0.150744
C16	C	2.318803	0.242001	0.164053
C17	C	1.850609	0.530118	0.104314
C18	C	1.856380	0.704433	0.090999
N19	N	1.857652	0.243281	0.344525
N20	N	1.857689	0.243282	-0.089462
C21	C	1.962769	0.138234	0.596134
C22	C	1.962774	0.138230	0.692116
C23	C	1.752560	0.348334	0.658921
C24	C	1.752550	0.348329	0.562941
C25	C	1.857663	0.243281	0.531550
C26	C	1.857678	0.243282	0.723512
C27	C	1.857682	0.243279	0.827580
C28	C	1.857657	0.243282	0.427476
H29	H	1.385616	0.244203	0.236787
H30	H	1.858591	-0.228740	0.018266
O31	O	1.308014	0.241628	-0.005346
H32	H	1.351713	0.135938	-0.033413
H33	H	1.666982	0.433864	0.684489
O34	O	2.076157	0.024933	0.761766
H35	H	2.008925	-0.052436	0.806295
H36	H	1.856715	-0.284690	0.236790
O37	O	2.076117	0.024921	0.562271
H38	H	2.149192	-0.048136	0.623309
H39	H	1.666952	0.433871	0.510352
