data_functionalizedCrystal
_audit_creation_method	'MofGen! by Chris Wilmer'
_symmetry_space_group_name_H-M	'P1'
_symmetry_Int_Tables_number	1
_symmetry_cell_setting	triclinic
loop_
_symmetry_equiv_pos_as_xyz
  x,y,z
_cell_length_a	17.019372
_cell_length_b	16.098538
_cell_length_c	8.559649
_cell_angle_alpha	87.660898
_cell_angle_beta	76.601210
_cell_angle_gamma	88.864305
loop_
_atom_site_label
_atom_site_type_symbol
_atom_site_fract_x
_atom_site_fract_y
_atom_site_fract_z
O1	O	1.034058	-0.004844	0.204039
O2	O	0.803767	0.011659	0.228310
O3	O	0.939202	0.001953	-0.016325
O4	O	0.898624	0.004862	0.448674
O5	O	0.931294	-0.135993	-0.002090
O6	O	0.795859	-0.126287	0.242544
O7	O	1.026150	-0.142790	0.218274
Zn8	Zn	0.909749	-0.156440	0.232669
Zn9	Zn	0.920168	0.025310	0.213915
O10	O	0.890716	-0.133084	0.462908
C11	C	0.770604	-0.055221	0.234228
C12	C	0.683571	-0.048984	0.230637
C13	C	0.191553	-0.009881	0.209875
C14	C	0.273330	-0.015753	0.213251
C15	C	0.309898	-0.093884	0.222710
C16	C	0.264687	-0.166148	0.228777
C17	C	0.182913	-0.160275	0.225389
C18	C	0.556586	-0.115376	0.233316
C19	C	0.638365	-0.121243	0.236708
C20	C	0.647003	0.029153	0.221179
C21	C	0.565226	0.035019	0.217802
C22	C	0.520023	-0.037246	0.223860
C23	C	0.393486	-0.099887	0.226166
C24	C	0.436438	-0.031241	0.220393
N25	N	0.902644	-0.280480	0.245467
C26	C	0.960144	-0.328186	0.141671
C27	C	0.955181	-0.415020	0.150640
C28	C	0.892719	-0.454146	0.263412
C29	C	0.835213	-0.406433	0.367213
C30	C	0.840174	-0.319601	0.358236
C31	C	0.874736	-0.716107	0.295927
C32	C	0.869780	-0.802945	0.304900
C33	C	0.989747	-0.811526	0.088324
C34	C	0.994706	-0.724692	0.079363
C35	C	0.937197	-0.676987	0.183158
C36	C	0.887645	-0.542903	0.272585
C37	C	0.942269	-0.588231	0.173976
C38	C	1.059314	-0.075908	0.212355
C39	C	1.146348	-0.082140	0.215946
C40	C	0.938323	-0.067239	-0.068722
C41	C	0.947476	-0.067890	-0.246056
N42	N	0.927280	0.149349	0.201104
C43	C	0.891595	-0.063890	0.515306
C44	C	0.882442	-0.063233	0.692639
H45	H	0.519795	-0.174219	0.238226
H46	H	0.819760	-0.058744	-0.224180
C47	C	1.032163	-0.073964	-0.358435
N48	N	1.095948	-0.078537	-0.443080
H49	H	0.146105	-0.219116	0.230350
C50	C	0.151336	0.076070	0.199467
N51	N	0.121049	0.140810	0.191620
H52	H	1.045567	-0.692838	-0.012465
H53	H	0.310134	0.043088	0.208297
C54	C	0.811564	-0.663649	0.410314
N55	N	0.764011	-0.624137	0.496549
H56	H	1.036567	-0.850375	0.003817
H57	H	0.535459	0.098641	0.210097
H58	H	0.294468	-0.229764	0.236469
C59	C	0.396211	0.054700	0.209988
N60	N	0.365903	0.119432	0.202159
H61	H	0.836789	-0.574766	0.364410
H62	H	0.683816	0.087986	0.216244
H63	H	0.818914	-0.834797	0.396739
H64	H	0.423268	-0.163501	0.233871
C65	C	0.678589	-0.207196	0.247104
N66	N	0.708886	-0.271933	0.254935
H67	H	1.011010	-0.296336	0.049847
C68	C	0.766498	-0.449474	0.491249
N69	N	0.714741	-0.481892	0.584676
C70	C	1.018419	-0.467491	0.036417
N71	N	1.066047	-0.507012	-0.049636
H72	H	0.793351	-0.280759	0.442755
H73	H	0.993123	-0.556372	0.082150
