data_functionalizedCrystal
_audit_creation_method	'MofGen! by Chris Wilmer'
_symmetry_space_group_name_H-M	'P1'
_symmetry_Int_Tables_number	1
_symmetry_cell_setting	triclinic
loop_
_symmetry_equiv_pos_as_xyz
  x,y,z
_cell_length_a	10.654550
_cell_length_b	9.065218
_cell_length_c	9.730223
_cell_angle_alpha	89.997438
_cell_angle_beta	89.999957
_cell_angle_gamma	84.750408
loop_
_atom_site_label
_atom_site_type_symbol
_atom_site_fract_x
_atom_site_fract_y
_atom_site_fract_z
O1	O	1.668660	0.207235	-0.114181
O2	O	2.168660	0.707235	0.385819
O3	O	1.303260	0.226979	-0.114206
O4	O	1.803260	0.726979	0.385794
O5	O	1.493512	0.002423	-0.114190
O6	O	1.993512	0.502423	0.385810
O7	O	1.478407	0.431790	-0.114197
O8	O	1.978407	0.931790	0.385803
O9	O	1.493500	0.002417	0.114390
O10	O	1.993500	0.502417	0.614390
O11	O	1.303247	0.226972	0.114374
O12	O	1.803247	0.726972	0.614374
O13	O	1.668647	0.207228	0.114399
O14	O	2.168647	0.707228	0.614399
Zn15	Zn	1.485945	0.217099	0.150678
Zn16	Zn	1.985945	0.717099	0.650678
Zn17	Zn	1.485962	0.217108	-0.150486
Zn18	Zn	1.985962	0.717108	0.349514
O19	O	1.478395	0.431784	0.114383
O20	O	1.978395	0.931784	0.614383
C21	C	1.256450	0.225526	0.000081
C22	C	1.756450	0.725526	0.500081
C23	C	1.116989	0.221188	0.000071
C24	C	1.616989	0.721188	0.500071
C25	C	1.492055	-0.052559	0.000097
C26	C	1.992055	0.447441	0.500097
C27	C	1.487714	-0.216378	0.000091
C28	C	1.987714	0.283622	0.500091
C29	C	1.038027	0.353403	0.000073
C30	C	1.538027	0.853403	0.500073
C31	C	0.906990	0.349319	0.000097
C32	C	1.406990	0.849319	0.500097
C33	C	0.933890	0.080794	0.000112
C34	C	1.433890	0.580794	0.500112
C35	C	1.064924	0.084879	0.000098
C36	C	1.564924	0.584879	0.500098
C37	C	1.715457	0.208681	0.000109
C38	C	2.215457	0.708681	0.500109
C39	C	1.854918	0.213019	0.000109
C40	C	2.354918	0.713019	0.500109
C41	C	1.479852	0.486766	0.000092
C42	C	1.979852	0.986766	0.500092
C43	C	1.484193	0.650585	0.000090
C44	C	1.984193	1.150585	0.500090
N45	N	1.485943	0.217093	0.356215
N46	N	1.985943	0.717093	0.856215
N47	N	1.485973	0.217102	-0.356022
N48	N	1.985973	0.717102	0.143978
C49	C	1.570217	0.117702	0.428148
C50	C	2.070217	0.617702	0.928148
C51	C	1.570229	0.117703	0.572031
C52	C	2.070229	0.617703	1.072031
C53	C	1.401691	0.316498	0.572035
C54	C	1.901691	0.816498	1.072035
C55	C	1.401674	0.316489	0.428155
C56	C	1.901674	0.816489	0.928155
H57	H	1.080414	0.464395	0.000062
H58	H	1.580414	0.964395	0.500062
H59	H	1.333042	0.397426	0.369583
H60	H	1.833042	0.897426	0.869583
N61	N	1.661143	0.010521	0.649612
N62	N	2.161143	0.510521	1.149612
H63	H	1.645513	-0.094365	0.624584
H64	H	2.145513	0.405635	1.124584
H65	H	1.750420	0.028646	0.624514
H66	H	2.250420	0.528646	1.124514
H67	H	0.842704	0.456982	0.000102
H68	H	1.342704	0.956982	0.500102
H69	H	0.891482	-0.030185	0.000141
H70	H	1.391482	0.469815	0.500141
N71	N	1.661101	0.010500	0.350552
N72	N	2.161101	0.510500	0.850552
H73	H	1.714487	-0.052465	0.417960
H74	H	2.214487	0.447535	0.917960
H75	H	1.612275	-0.055259	0.290868
H76	H	2.112275	0.444741	0.790868
N77	N	1.150092	-0.057738	0.000107
N78	N	1.650092	0.442262	0.500107
H79	H	1.133168	-0.117152	-0.084621
H80	H	1.633168	0.382848	0.415379
H81	H	1.240968	-0.034348	0.000154
H82	H	1.740968	0.465652	0.500154
N83	N	1.310804	0.423700	0.649628
N84	N	1.810804	0.923700	1.149628
H85	H	1.323603	0.408628	0.751691
H86	H	1.823603	0.908628	1.251691
H87	H	1.326491	0.528530	0.624463
H88	H	1.826491	1.028530	1.124463
