data_functionalizedCrystal
_audit_creation_method	'MofGen! by Chris Wilmer'
_symmetry_space_group_name_H-M	'P1'
_symmetry_Int_Tables_number	1
_symmetry_cell_setting	triclinic
loop_
_symmetry_equiv_pos_as_xyz
  x,y,z
_cell_length_a	13.032868
_cell_length_b	13.032831
_cell_length_c	13.033255
_cell_angle_alpha	103.333446
_cell_angle_beta	74.859089
_cell_angle_gamma	90.910161
loop_
_atom_site_label
_atom_site_type_symbol
_atom_site_fract_x
_atom_site_fract_y
_atom_site_fract_z
Zn1	Zn	0.734600	-1.617157	-0.889097
Zn2	Zn	1.234600	-1.117157	-0.389097
Zn3	Zn	0.883925	-1.577633	-0.728295
Zn4	Zn	1.383925	-1.077633	-0.228295
Zn5	Zn	0.683776	-1.422723	-0.683272
Zn6	Zn	1.183776	-0.922723	-0.183272
Zn7	Zn	0.883831	-1.422655	-0.883325
Zn8	Zn	1.383831	-0.922655	-0.383325
O9	O	0.796533	-1.510042	-0.795997
O10	O	1.296533	-1.010042	-0.295997
O11	O	0.775717	-1.758144	-0.889024
O12	O	1.275717	-1.258144	-0.389024
O13	O	0.836145	-1.540571	-0.571303
O14	O	1.336145	-1.040571	-0.071303
O15	O	0.544301	-1.465085	-0.694149
O16	O	1.044301	-0.965085	-0.194149
O17	O	0.885426	-1.729106	-0.770883
O18	O	1.385426	-1.229106	-0.270883
O19	O	0.581641	-1.607934	-0.845367
O20	O	1.081641	-1.107934	-0.345367
O21	O	0.689096	-1.426760	-0.538225
O22	O	1.189096	-0.926760	-0.038225
O23	O	0.689005	-1.276484	-0.688552
O24	O	1.189005	-0.776484	-0.188552
O25	O	0.885266	-1.464969	-1.035111
O26	O	1.385266	-0.964969	-0.535111
O27	O	0.835984	-1.276434	-0.835530
O28	O	1.335984	-0.776434	-0.335530
O29	O	0.775626	-1.607868	-1.039351
O30	O	1.275626	-1.107868	-0.539351
O31	O	1.030130	-1.540505	-0.765287
O32	O	1.530130	-1.040505	-0.265287
O33	O	1.030061	-1.426644	-0.879187
O34	O	1.530061	-0.926644	-0.379187
C35	C	0.756970	-1.238544	-0.756530
C36	C	1.256970	-0.738544	-0.256530
C37	C	0.740074	-1.122395	-0.739674
C38	C	1.240074	-0.622395	-0.239674
C39	C	1.068015	-1.479309	-0.826524
C40	C	1.568015	-0.979309	-0.326524
C41	C	1.184175	-1.466261	-0.839633
C42	C	1.684175	-0.966261	-0.339633
C43	C	0.836105	-1.540820	-1.077483
C44	C	1.336105	-1.040820	-0.577483
C45	C	0.852968	-1.553935	-1.197436
C46	C	1.352968	-1.053935	-0.697436
C47	C	1.235977	-1.516842	-0.789179
C48	C	1.735977	-1.016842	-0.289179
C49	C	1.356035	-1.503357	-0.802727
C50	C	1.856035	-1.003357	-0.302727
C51	C	1.523992	-1.540890	-0.765363
C52	C	2.023992	-1.040890	-0.265363
C53	C	1.407835	-1.553945	-0.752266
C54	C	1.907835	-1.053945	-0.252266
C55	C	0.836251	-1.782601	-0.835620
C56	C	1.336251	-1.282601	-0.335620
C57	C	0.853177	-1.898749	-0.852504
C58	C	1.353177	-1.398749	-0.352504
C59	C	0.805352	-1.070593	-0.804795
C60	C	1.305352	-0.570593	-0.304795
C61	C	0.787890	-0.950548	-0.787375
C62	C	1.287890	-0.450548	-0.287375
C63	C	0.805156	-1.517032	-1.358531
C64	C	1.305156	-1.017032	-0.858531
C65	C	0.787724	-1.503469	-1.234552
C66	C	1.287724	-1.003469	-0.734552
C67	C	0.757049	-1.479453	-0.515607
C68	C	1.257049	-0.979453	-0.015607
C69	C	0.739921	-1.466573	-0.395651
C70	C	1.239921	-0.966573	0.104349
H71	H	1.191449	-1.570134	-0.735958
H72	H	1.691449	-1.070134	-0.235958
H73	H	1.228708	-1.412979	-0.892863
H74	H	1.728708	-0.912979	-0.392863
H75	H	0.719068	-0.906030	-0.718726
H76	H	1.219068	-0.406030	-0.218726
H77	H	0.671257	-1.077873	-0.671030
H78	H	1.171257	-0.577873	-0.171030
C79	C	0.694832	-1.431540	-1.153504
C80	C	1.194832	-0.931540	-0.653504
H81	H	0.695297	-1.431865	-1.080809
H82	H	1.195297	-0.931865	-0.580809
H83	H	0.702460	-1.361598	-1.163435
H84	H	1.202460	-0.861598	-0.663435
H85	H	0.629426	-1.456800	-1.166256
H86	H	1.129426	-0.956800	-0.666256
H87	H	0.921991	-0.943268	-0.921163
H88	H	1.421991	-0.443268	-0.421163
C89	C	0.898040	-1.588961	-1.439582
C90	C	1.398040	-1.088961	-0.939582
H91	H	0.897567	-1.588647	-1.512277
H92	H	1.397567	-1.088647	-1.012277
H93	H	0.963446	-1.563715	-1.426830
H94	H	1.463446	-1.063715	-0.926830
H95	H	0.890398	-1.658907	-1.429650
H96	H	1.390398	-1.158907	-0.929650
H97	H	0.874162	-1.115118	-0.873446
H98	H	1.374162	-0.615118	-0.373446
H99	H	0.921727	-1.607184	-1.257436
H100	H	1.421727	-1.107184	-0.757436
C101	C	0.647040	-1.394638	-1.314604
C102	C	1.147040	-0.894638	-0.814604
H103	H	0.608378	-1.364732	-1.353970
H104	H	1.108378	-0.864732	-0.853970
H105	H	0.601197	-1.434986	-1.271329
H106	H	1.101197	-0.934986	-0.771329
H107	H	0.674250	-1.339798	-1.268524
H108	H	1.174250	-0.839798	-0.768524
C109	C	1.416175	-1.431367	-0.874639
C110	C	1.916175	-0.931367	-0.374639
H111	H	1.368108	-1.401388	-0.904543
H112	H	1.868108	-0.901388	-0.404543
H113	H	1.446380	-1.376598	-0.831486
H114	H	1.946380	-0.876598	-0.331486
H115	H	1.471134	-1.471717	-0.932270
H116	H	1.971134	-0.971717	-0.432270
C117	C	1.347686	-1.625912	-0.680331
C118	C	1.847686	-1.125912	-0.180331
H119	H	1.274880	-1.625520	-0.680643
H120	H	1.774880	-1.125520	-0.180643
H121	H	1.377897	-1.695868	-0.708354
H122	H	1.877897	-1.195868	-0.208354
H123	H	1.353156	-1.600722	-0.607597
H124	H	1.853156	-1.100722	-0.107597
