data_functionalizedCrystal
_audit_creation_method	'MofGen! by Chris Wilmer'
_symmetry_space_group_name_H-M	'P1'
_symmetry_Int_Tables_number	1
_symmetry_cell_setting	triclinic
loop_
_symmetry_equiv_pos_as_xyz
  x,y,z
_cell_length_a	11.792254
_cell_length_b	10.868271
_cell_length_c	10.654550
_cell_angle_alpha	90.003964
_cell_angle_beta	84.341750
_cell_angle_gamma	90.004259
loop_
_atom_site_label
_atom_site_type_symbol
_atom_site_fract_x
_atom_site_fract_y
_atom_site_fract_z
O1	O	1.507298	0.102318	0.172212
O2	O	1.176999	0.102320	0.189936
O3	O	1.349743	0.102314	-0.001687
O4	O	1.334554	0.102324	0.363834
O5	O	1.349728	-0.102330	-0.001694
O6	O	1.176985	-0.102324	0.189928
O7	O	1.507283	-0.102327	0.172204
Zn8	Zn	1.342132	-0.134817	0.181065
Zn9	Zn	1.342151	0.134811	0.181075
O10	O	1.334540	-0.102321	0.363827
C11	C	1.134699	-0.000002	0.188815
C12	C	1.008678	-0.000001	0.185474
N13	N	1.342127	-0.318831	0.181058
C14	C	0.906335	0.000004	0.182758
C15	C	0.777941	0.000005	0.179363
C16	C	1.342145	-0.569837	0.181072
C17	C	1.342131	-0.430160	0.181068
C18	C	1.549584	-0.000002	0.173325
C19	C	1.675604	0.000005	0.176666
C20	C	1.348620	-0.000006	-0.048485
C21	C	1.345284	-0.000002	-0.187919
N22	N	1.342164	0.318825	0.181073
C23	C	1.446992	-0.000006	-0.267687
C24	C	1.443850	0.000002	-0.398700
C25	C	1.237283	0.000014	-0.370162
C26	C	1.240426	0.000015	-0.239153
C27	C	1.551850	-0.000023	-0.216454
C28	C	1.653567	-0.000029	-0.296224
C29	C	1.650425	-0.000020	-0.427236
C30	C	1.545567	-0.000006	-0.478478
C31	C	1.335662	0.000003	0.410625
C32	C	1.338999	0.000006	0.550059
H33	H	1.554420	-0.000034	-0.109779
H34	H	1.738940	-0.000010	-0.254493
C35	C	1.762306	-0.000024	-0.514978
H36	H	1.825201	-0.000043	-0.465697
H37	H	1.765388	0.071340	-0.566674
H38	H	1.765362	-0.071398	-0.566681
H39	H	1.151911	0.000024	-0.411895
C40	C	1.542112	0.000010	-0.622589
H41	H	1.617705	0.000002	-0.662760
H42	H	1.503261	0.071375	-0.646948
H43	H	1.503253	-0.071362	-0.646964
C44	C	1.128549	0.000017	-0.151403
H45	H	1.065650	0.000010	-0.200677
H46	H	1.125492	0.071382	-0.099700
H47	H	1.125477	-0.071355	-0.099708
