data_functionalizedCrystal
_audit_creation_method	'MofGen! by Chris Wilmer'
_symmetry_space_group_name_H-M	'P1'
_symmetry_Int_Tables_number	1
_symmetry_cell_setting	triclinic
loop_
_symmetry_equiv_pos_as_xyz
  x,y,z
_cell_length_a	21.295418
_cell_length_b	18.050589
_cell_length_c	18.050582
_cell_angle_alpha	89.981795
_cell_angle_beta	89.965893
_cell_angle_gamma	90.044036
loop_
_atom_site_label
_atom_site_type_symbol
_atom_site_fract_x
_atom_site_fract_y
_atom_site_fract_z
Zn1	Zn	0.962306	-0.295393	-0.420315
Zn2	Zn	1.295639	0.037940	-0.086982
Zn3	Zn	1.628973	0.371274	0.246351
Zn4	Zn	0.962230	-0.419576	-0.296135
Zn5	Zn	1.295564	-0.086243	0.037199
Zn6	Zn	1.628897	0.247090	0.370532
Zn7	Zn	0.857047	-0.295439	-0.296098
Zn8	Zn	1.190380	0.037894	0.037235
Zn9	Zn	1.523713	0.371228	0.370569
Zn10	Zn	0.857003	-0.419580	-0.420242
Zn11	Zn	1.190336	-0.086247	-0.086908
Zn12	Zn	1.523669	0.247087	0.246425
O13	O	0.909646	-0.357497	-0.358197
O14	O	1.242980	-0.024164	-0.024864
O15	O	1.576313	0.309169	0.308469
O16	O	1.050385	-0.311846	-0.403889
O17	O	1.383719	0.021488	-0.070555
O18	O	1.717052	0.354821	0.262778
O19	O	0.948264	-0.403127	-0.192205
O20	O	1.281598	-0.069794	0.141128
O21	O	1.614931	0.263540	0.474461
O22	O	0.871060	-0.191508	-0.312591
O23	O	1.204393	0.141825	0.020742
O24	O	1.537726	0.475158	0.354076
O25	O	1.050330	-0.403083	-0.312654
O26	O	1.383663	-0.069749	0.020679
O27	O	1.716996	0.263584	0.354013
O28	O	0.948393	-0.191475	-0.403853
O29	O	1.281727	0.141859	-0.070520
O30	O	1.615060	0.475192	0.262814
O31	O	0.870986	-0.311924	-0.192178
O32	O	1.204320	0.021409	0.141155
O33	O	1.537653	0.354743	0.474489
O34	O	0.768952	-0.311927	-0.312520
O35	O	1.102285	0.021406	0.020814
O36	O	1.435618	0.354739	0.354147
O37	O	0.870985	-0.403089	-0.524176
O38	O	1.204318	-0.069755	-0.190843
O39	O	1.537651	0.263578	0.142491
O40	O	0.768919	-0.403133	-0.403727
O41	O	1.102252	-0.069800	-0.070394
O42	O	1.435586	0.263533	0.262939
O43	O	0.948350	-0.311849	-0.524230
O44	O	1.281684	0.021484	-0.190897
O45	O	1.615017	0.354818	0.142436
O46	O	0.948221	-0.523502	-0.312582
O47	O	1.281555	-0.190168	0.020751
O48	O	1.614888	0.143165	0.354084
O49	O	0.870911	-0.523504	-0.403763
O50	O	1.204245	-0.190171	-0.070430
O51	O	1.537578	0.143162	0.262903
C52	C	0.909570	-0.550449	-0.358185
C53	C	1.242904	-0.217116	-0.024852
C54	C	1.576237	0.116217	0.308482
C55	C	0.909596	-0.632995	-0.358205
C56	C	1.242929	-0.299662	-0.024871
C57	C	1.576262	0.033672	0.308462
C58	C	0.746095	-0.357536	-0.358112
C59	C	1.079428	-0.024203	-0.024779
C60	C	1.412761	0.309130	0.308555
C61	C	0.676127	-0.357571	-0.358093
C62	C	1.009460	-0.024238	-0.024760
C63	C	1.342793	0.309096	0.308574
C64	C	0.867596	-0.832474	-0.407771
C65	C	1.200929	-0.499141	-0.074438
C66	C	1.534262	-0.165808	0.258895
C67	C	0.852255	-0.881913	-0.339998
C68	C	1.185589	-0.548580	-0.006665
C69	C	1.518922	-0.215246	0.326669
C70	C	0.909657	-0.784125	-0.358214
C71	C	1.242991	-0.450792	-0.024881
C72	C	1.576324	-0.117459	0.308452
C73	C	0.925029	-0.881768	-0.425995
C74	C	1.258362	-0.548435	-0.092662
C75	C	1.591695	-0.215102	0.240671
C76	C	0.909716	-0.930111	-0.358230
C77	C	1.243049	-0.596777	-0.024896
C78	C	1.576383	-0.263444	0.308437
C79	C	0.894287	-0.832477	-0.290405
C80	C	1.227620	-0.499144	0.042928
C81	C	1.560954	-0.165811	0.376262
C82	C	0.967087	-0.832328	-0.376448
C83	C	1.300420	-0.498995	-0.043115
C84	C	1.633754	-0.165661	0.290218
C85	C	0.951768	-0.881745	-0.308628
C86	C	1.285102	-0.548411	0.024705
C87	C	1.618435	-0.215078	0.358039
C88	C	0.909622	-0.700027	-0.358206
C89	C	1.242955	-0.366694	-0.024873
C90	C	1.576289	-0.033361	0.308460
C91	C	0.909751	-1.014207	-0.358230
C92	C	1.243085	-0.680874	-0.024897
C93	C	1.576418	-0.347540	0.308437
C94	C	0.643260	-0.405125	-0.405514
C95	C	0.976593	-0.071791	-0.072181
C96	C	1.309926	0.261542	0.261153
C97	C	0.577517	-0.405106	-0.405547
C98	C	0.910850	-0.071773	-0.072214
C99	C	1.244184	0.261560	0.261119
C100	C	0.544644	-0.357542	-0.358146
C101	C	0.877977	-0.024209	-0.024813
C102	C	1.211311	0.309125	0.308520
C103	C	0.577519	-0.309979	-0.310722
C104	C	0.910852	0.023354	0.022611
C105	C	1.244186	0.356688	0.355945
C106	C	0.643260	-0.309993	-0.310695
C107	C	0.976594	0.023340	0.022638
C108	C	1.309927	0.356673	0.355971
N109	N	0.441377	-0.351735	-0.293191
N110	N	0.774711	-0.018402	0.040143
N111	N	1.108044	0.314932	0.373476
N112	N	0.378926	-0.351726	-0.293218
N113	N	0.712259	-0.018392	0.040115
N114	N	1.045592	0.314941	0.373449
C115	C	0.346570	-0.357495	-0.358225
C116	C	0.679903	-0.024161	-0.024892
C117	C	1.013236	0.309172	0.308442
N118	N	0.379024	-0.363288	-0.423205
N119	N	0.712357	-0.029955	-0.089872
N120	N	1.045691	0.303379	0.243462
N121	N	0.441481	-0.363301	-0.423177
N122	N	0.774814	-0.029968	-0.089843
N123	N	1.108148	0.303366	0.243490
C124	C	0.473359	-0.357521	-0.358170
C125	C	0.806692	-0.024188	-0.024837
C126	C	1.140025	0.309146	0.308496
C127	C	0.242417	-0.405031	-0.405686
C128	C	0.575750	-0.071698	-0.072353
C129	C	0.909084	0.261635	0.260980
C130	C	0.176673	-0.405008	-0.405721
C131	C	0.510007	-0.071674	-0.072388
C132	C	0.843340	0.261659	0.260946
C133	C	0.176677	-0.309884	-0.310889
C134	C	0.510010	0.023449	0.022444
C135	C	0.843343	0.356782	0.355778
C136	C	0.242419	-0.309904	-0.310861
C137	C	0.575752	0.023429	0.022472
C138	C	0.909086	0.356763	0.355806
C139	C	0.275285	-0.357481	-0.358259
C140	C	0.608619	-0.024148	-0.024925
C141	C	0.941952	0.309185	0.308408
C142	C	1.073837	-0.357459	-0.358284
C143	C	1.407170	-0.024125	-0.024950
C144	C	1.740503	0.309208	0.308383
C145	C	1.143805	-0.357442	-0.358320
C146	C	1.477138	-0.024109	-0.024987
C147	C	1.810472	0.309225	0.308346
C148	C	0.909671	-0.357464	-0.551903
C149	C	1.243004	-0.024131	-0.218570
C150	C	1.576338	0.309202	0.114764
C151	C	0.909682	-0.357450	-0.634449
C152	C	1.243015	-0.024117	-0.301116
C153	C	1.576348	0.309216	0.032218
C154	C	0.909740	-0.163792	-0.358226
C155	C	1.243073	0.169542	-0.024893
C156	C	1.576407	0.502875	0.308441
C157	C	0.909780	-0.081246	-0.358238
C158	C	1.243113	0.252088	-0.024905
C159	C	1.576446	0.585421	0.308428
C160	C	0.867642	-0.406999	-0.833870
C161	C	1.200976	-0.073665	-0.500537
C162	C	1.534309	0.259668	-0.167204
C163	C	0.925074	-0.425133	-0.883286
C164	C	1.258407	-0.091800	-0.549952
C165	C	1.591740	0.241533	-0.216619
C166	C	0.909713	-0.357394	-0.785579
C167	C	1.243046	-0.024060	-0.452246
C168	C	1.576379	0.309273	-0.118913
C169	C	0.852313	-0.339238	-0.883246
C170	C	1.185646	-0.005905	-0.549912
C171	C	1.518980	0.327429	-0.216579
C172	C	0.909738	-0.357340	-0.931565
C173	C	1.243071	-0.024007	-0.598231
C174	C	1.576404	0.309326	-0.264898
C175	C	0.967174	-0.375564	-0.833908
C176	C	1.300507	-0.042230	-0.500574
C177	C	1.633841	0.291103	-0.167241
C178	C	0.894375	-0.289637	-0.833863
C179	C	1.227708	0.043696	-0.500530
C180	C	1.561041	0.377030	-0.167197
C181	C	0.951846	-0.307746	-0.883256
C182	C	1.285179	0.025587	-0.549923
C183	C	1.618512	0.358921	-0.216590
C184	C	0.909697	-0.357426	-0.701481
C185	C	1.243031	-0.024093	-0.368148
C186	C	1.576364	0.309241	-0.034814
C187	C	0.909759	-0.357307	-1.015661
C188	C	1.243093	-0.023974	-0.682328
C189	C	1.576426	0.309359	-0.348994
C190	C	0.909658	-0.357476	-0.165245
C191	C	1.242991	-0.024143	0.168088
C192	C	1.576325	0.309190	0.501421
C193	C	0.909770	-0.357281	-0.082700
C194	C	1.243103	-0.023948	0.250633
C195	C	1.576436	0.309385	0.583967
H196	H	0.803716	-0.903709	-0.324590
H197	H	1.137050	-0.570376	0.008744
H198	H	1.470383	-0.237042	0.342077
H199	H	0.832098	-0.449003	-0.812187
H200	H	1.165431	-0.115669	-0.478854
H201	H	1.498765	0.217664	-0.145520
H202	H	0.803760	-0.323905	-0.904919
H203	H	1.137094	0.009429	-0.571586
H204	H	1.470427	0.342762	-0.238253
H205	H	1.015615	-0.810534	-0.391889
H206	H	1.348948	-0.477201	-0.058556
H207	H	1.682281	-0.143867	0.274778
H208	H	0.550750	-0.271251	-0.272129
H209	H	0.884083	0.062083	0.061204
H210	H	1.217416	0.395416	0.394537
O211	O	0.942279	-0.500998	-0.912054
O212	O	1.275613	-0.167665	-0.578720
O213	O	1.608946	0.165669	-0.245387
H214	H	0.907280	-0.542099	-0.892282
H215	H	1.240613	-0.208766	-0.558948
H216	H	1.573947	0.124567	-0.225615
O217	O	0.877017	-0.803927	-0.214461
O218	O	1.210351	-0.470593	0.118872
O219	O	1.543684	-0.137260	0.452206
H220	H	0.877103	-0.742439	-0.215059
H221	H	1.210436	-0.409105	0.118274
H222	H	1.543770	-0.075772	0.451608
O223	O	0.877136	-0.213799	-0.805066
O224	O	1.210470	0.119534	-0.471732
O225	O	1.543803	0.452868	-0.138399
H226	H	0.868104	-0.176109	-0.852468
H227	H	1.201437	0.157225	-0.519134
H228	H	1.534771	0.490558	-0.185801
H229	H	0.670015	-0.443865	-0.444110
H230	H	1.003349	-0.110532	-0.110777
H231	H	1.336682	0.222802	0.222557
H232	H	1.015741	-0.390962	-0.812325
H233	H	1.349074	-0.057629	-0.478992
H234	H	1.682407	0.275704	-0.145659
H235	H	0.149914	-0.443730	-0.444341
H236	H	0.483247	-0.110397	-0.111008
H237	H	0.816581	0.222936	0.222325
O238	O	0.141232	-0.258587	-0.259755
O239	O	0.474565	0.074747	0.073579
O240	O	0.807898	0.408080	0.406912
H241	H	0.089995	-0.266569	-0.267734
H242	H	0.423328	0.066764	0.065599
H243	H	0.756662	0.400097	0.398933
H244	H	0.938006	-0.903420	-0.483311
H245	H	1.271340	-0.570086	-0.149978
H246	H	1.604673	-0.236753	0.183356
O247	O	0.998922	-0.910229	-0.253068
O248	O	1.332255	-0.576895	0.080266
O249	O	1.665588	-0.243562	0.413599
H250	H	0.986039	-0.890380	-0.196889
H251	H	1.319373	-0.557047	0.136444
H252	H	1.652706	-0.223714	0.469777
H253	H	0.670020	-0.271267	-0.272079
H254	H	1.003354	0.062066	0.061254
H255	H	1.336687	0.395400	0.394587
O256	O	0.542055	-0.456427	-0.456667
O257	O	0.875388	-0.123093	-0.123333
O258	O	1.208722	0.210240	0.210000
H259	H	0.575954	-0.489524	-0.489608
H260	H	0.909287	-0.156191	-0.156274
H261	H	1.242620	0.177143	0.177059
O262	O	0.820415	-0.803801	-0.463204
O263	O	1.153749	-0.470467	-0.129871
O264	O	1.487082	-0.137134	0.203463
H265	H	0.772804	-0.823661	-0.447892
H266	H	1.106137	-0.490328	-0.114559
H267	H	1.439470	-0.156994	0.218775
O268	O	0.277873	-0.456333	-0.456814
O269	O	0.611207	-0.123000	-0.123481
O270	O	0.944540	0.210333	0.209853
H271	H	0.243971	-0.489389	-0.489806
H272	H	0.577304	-0.156056	-0.156472
H273	H	0.910637	0.177278	0.176861
H274	H	0.269180	-0.271184	-0.272242
H275	H	0.602513	0.062149	0.061091
H276	H	0.935846	0.395483	0.394425
H277	H	0.987475	-0.265774	-0.904804
H278	H	1.320808	0.067559	-0.571470
H279	H	1.654142	0.400893	-0.238137
