data_functionalizedCrystal
_audit_creation_method	'MofGen! by Chris Wilmer'
_symmetry_space_group_name_H-M	'P1'
_symmetry_Int_Tables_number	1
_symmetry_cell_setting	triclinic
loop_
_symmetry_equiv_pos_as_xyz
  x,y,z
_cell_length_a	16.625546
_cell_length_b	19.805407
_cell_length_c	16.625548
_cell_angle_alpha	89.994286
_cell_angle_beta	89.988486
_cell_angle_gamma	90.022468
loop_
_atom_site_label
_atom_site_type_symbol
_atom_site_fract_x
_atom_site_fract_y
_atom_site_fract_z
Zn1	Zn	0.321150	-1.034662	0.455918
Zn2	Zn	0.455949	-1.034612	0.321080
Zn3	Zn	0.321134	-0.921504	0.321096
Zn4	Zn	0.455945	-0.921448	0.455868
O5	O	0.388545	-0.978056	0.388491
O6	O	0.339040	-1.129372	0.438046
O7	O	0.438061	-1.019610	0.208250
O8	O	0.208304	-0.936559	0.339008
O9	O	0.438076	-1.129335	0.338981
O10	O	0.208316	-1.019695	0.438061
O11	O	0.339013	-0.936510	0.208262
O12	O	0.339009	-0.826780	0.338960
O13	O	0.438069	-0.936463	0.568707
O14	O	0.438053	-0.826738	0.437976
O15	O	0.339036	-1.019641	0.568744
O16	O	0.568781	-1.019556	0.338933
O17	O	0.568778	-0.936415	0.437960
C18	C	0.598036	-0.977992	0.388457
C19	C	0.687657	-0.978027	0.388469
C20	C	0.388529	-0.802200	0.388465
C21	C	0.388542	-0.726968	0.388473
C22	C	0.178236	-0.978139	0.388542
C23	C	0.088615	-0.978174	0.388564
C24	C	1.015832	-0.978145	0.388553
C25	C	0.924524	-0.978110	0.388532
C26	C	0.851747	-0.978085	0.388511
C27	C	0.760433	-0.978051	0.388491
C28	C	0.388554	-0.978051	0.598800
C29	C	0.388558	-0.978049	0.688421
C30	C	0.388561	-1.154599	0.388517
C31	C	0.388568	-1.229831	0.388529
C32	C	0.440192	-0.691620	0.439947
C33	C	0.440194	-0.620932	0.439958
C34	C	0.388548	-0.585593	0.388491
C35	C	0.336892	-0.620945	0.337014
C36	C	0.336888	-0.691632	0.337008
C37	C	0.336910	-0.335872	0.337041
C38	C	0.336921	-0.265180	0.337050
C39	C	0.440216	-0.265171	0.439992
C40	C	0.440211	-0.335858	0.439985
C41	C	0.388553	-0.371205	0.388512
C42	C	0.388551	-0.447854	0.388501
C43	C	0.388554	-0.508945	0.388497
C44	C	0.388562	-0.978047	0.761203
C45	C	0.388559	-0.978047	0.852512
C46	C	0.388552	-0.978049	0.925288
C47	C	0.388550	-0.978050	1.016602
C48	C	0.388552	-0.978054	1.179000
C49	C	0.388543	-0.978053	1.089379
H50	H	0.482251	-0.720388	0.481855
Cl51	Cl	0.271966	-0.380299	0.272334
H52	H	0.294838	-0.592166	0.295112
H53	H	0.294860	-0.236409	0.295139
Cl54	Cl	0.271951	-0.736070	0.272296
H55	H	0.482253	-0.592155	0.481873
Cl56	Cl	0.505142	-0.380281	0.504687
H57	H	0.482276	-0.236384	0.481906
