data_functionalizedCrystal
_audit_creation_method	'MofGen! by Chris Wilmer'
_symmetry_space_group_name_H-M	'P1'
_symmetry_Int_Tables_number	1
_symmetry_cell_setting	triclinic
loop_
_symmetry_equiv_pos_as_xyz
  x,y,z
_cell_length_a	27.732048
_cell_length_b	27.732048
_cell_length_c	26.210047
_cell_angle_alpha	90.000479
_cell_angle_beta	89.996535
_cell_angle_gamma	97.357345
loop_
_atom_site_label
_atom_site_type_symbol
_atom_site_fract_x
_atom_site_fract_y
_atom_site_fract_z
O1	O	0.640931	-0.057510	-0.042369
O2	O	0.974264	0.275823	0.290965
O3	O	1.307598	0.609157	0.624298
O4	O	0.500138	-0.066256	-0.042385
O5	O	0.833471	0.267078	0.290948
O6	O	1.166804	0.600411	0.624282
O7	O	0.574907	0.008514	-0.042367
O8	O	0.908240	0.341847	0.290967
O9	O	1.241574	0.675181	0.624300
O10	O	0.566162	-0.132279	-0.042387
O11	O	0.899495	0.201054	0.290946
O12	O	1.232828	0.534387	0.624280
O13	O	0.574893	0.008502	0.042491
O14	O	0.908226	0.341836	0.375825
O15	O	1.241559	0.675169	0.709158
O16	O	0.500123	-0.066267	0.042473
O17	O	0.833457	0.267066	0.375806
O18	O	1.166790	0.600399	0.709140
O19	O	0.640917	-0.057522	0.042489
O20	O	0.974250	0.275812	0.375823
O21	O	1.307583	0.609145	0.709156
Cu22	Cu	0.570519	-0.061896	0.050229
Cu23	Cu	0.903852	0.271438	0.383563
Cu24	Cu	1.237185	0.604771	0.716896
Cu25	Cu	0.570536	-0.061882	-0.050125
Cu26	Cu	0.903869	0.271452	0.283208
Cu27	Cu	1.237202	0.604785	0.616542
O28	O	0.566147	-0.132291	0.042471
O29	O	0.899481	0.201042	0.375804
O30	O	1.232814	0.534375	0.709138
C31	C	0.482124	-0.066078	0.000042
C32	C	0.815457	0.267256	0.333376
C33	C	1.148790	0.600589	0.666709
C34	C	0.428469	-0.065525	0.000036
C35	C	0.761802	0.267808	0.333370
C36	C	1.095135	0.601142	0.666703
C37	C	0.089654	-0.106229	0.000053
C38	C	0.422987	0.227105	0.333386
C39	C	0.756320	0.560438	0.666719
C40	C	-0.112006	-0.104178	0.000057
C41	C	0.221327	0.229156	0.333391
C42	C	0.554661	0.562489	0.666724
O43	O	-0.143262	-0.141398	0.000074
O44	O	0.190072	0.191935	0.333408
O45	O	0.523405	0.525268	0.666741
N46	N	-0.131130	-0.059843	0.000063
N47	N	0.202204	0.273491	0.333396
N48	N	0.535537	0.606824	0.666730
C49	C	-0.099835	-0.016017	0.000071
C50	C	0.233498	0.317316	0.333404
C51	C	0.566832	0.650650	0.666737
O52	O	-0.120728	0.021740	0.000081
O53	O	0.212605	0.355073	0.333414
O54	O	0.545938	0.688407	0.666747
C55	C	0.101824	-0.018068	0.000069
C56	C	0.435157	0.315265	0.333403
C57	C	0.768490	0.648598	0.666736
C58	C	0.120944	-0.062407	0.000059
C59	C	0.454278	0.270927	0.333392
C60	C	0.787611	0.604260	0.666725
C61	C	0.108775	-0.150563	0.000043
C62	C	0.442108	0.182770	0.333376
C63	C	0.775442	0.516103	0.666709
C64	C	0.159187	-0.151076	0.000039
C65	C	0.492520	0.182258	0.333372
C66	C	0.825853	0.515591	0.666705
C67	C	0.190477	-0.107253	0.000045
C68	C	0.523811	0.226080	0.333378
C69	C	0.857144	0.559413	0.666711
C70	C	0.171356	-0.062919	0.000055
C71	C	0.504690	0.270415	0.333388
C72	C	0.838023	0.603748	0.666721
C73	C	0.133117	0.025757	0.000081
C74	C	0.466451	0.359090	0.333414
C75	C	0.799784	0.692423	0.666747
C76	C	0.183535	0.025240	0.000082
C77	C	0.516868	0.358573	0.333415
C78	C	0.850201	0.691906	0.666748
C79	C	0.202655	-0.019098	0.000071
C80	C	0.535989	0.314235	0.333404
C81	C	0.869322	0.647568	0.666738
C82	C	0.253059	-0.019609	0.000057
C83	C	0.586392	0.313724	0.333390
C84	C	0.919725	0.647058	0.666724
N85	N	0.272183	-0.063944	0.000051
N86	N	0.605516	0.269389	0.333385
N87	N	0.938849	0.602723	0.666718
C88	C	0.240892	-0.107766	0.000045
C89	C	0.574225	0.225567	0.333379
C90	C	0.907559	0.558900	0.666712
C91	C	-0.205709	-0.014943	0.000070
C92	C	0.127624	0.318390	0.333404
C93	C	0.460957	0.651724	0.666737
C94	C	-0.256124	-0.014430	0.000070
C95	C	0.077210	0.318903	0.333403
C96	C	0.410543	0.652237	0.666736
C97	C	-0.268291	-0.102591	0.000057
C98	C	0.065042	0.230742	0.333391
C99	C	0.398376	0.564076	0.666724
C100	C	-0.217876	-0.103104	0.000054
C101	C	0.115458	0.230230	0.333388
C102	C	0.448791	0.563563	0.666721
C103	C	-0.186585	-0.059278	0.000065
C104	C	0.146748	0.274055	0.333398
C105	C	0.480081	0.607388	0.666731
C106	C	0.346761	-0.108839	0.000036
C107	C	0.680094	0.224495	0.333370
C108	C	1.013428	0.557828	0.666703
C109	C	0.397178	-0.109347	0.000030
C110	C	0.730511	0.223986	0.333364
C111	C	1.063845	0.557319	0.666697
C112	C	0.409341	-0.021186	0.000045
C113	C	0.742674	0.312147	0.333379
C114	C	1.076008	0.645480	0.666712
C115	C	0.358929	-0.020678	0.000049
C116	C	0.692262	0.312656	0.333382
C117	C	1.025595	0.645989	0.666715
C118	C	0.327639	-0.064508	0.000046
C119	C	0.660973	0.268825	0.333379
C120	C	0.994306	0.602159	0.666713
O121	O	0.284343	0.017592	0.000046
O122	O	0.617676	0.350925	0.333379
O123	O	0.951009	0.684259	0.666713
O124	O	0.261794	-0.145518	0.000047
O125	O	0.595128	0.187816	0.333380
O126	O	0.928461	0.521149	0.666713
C127	C	0.039242	-0.105716	0.000057
C128	C	0.372575	0.227617	0.333390
C129	C	0.705908	0.560950	0.666723
C130	C	0.020120	-0.061382	0.000067
C131	C	0.353454	0.271951	0.333400
C132	C	0.686787	0.605285	0.666733
C133	C	0.051411	-0.017560	0.000073
C134	C	0.384744	0.315774	0.333406
C135	C	0.718078	0.649107	0.666740
C136	C	-0.030294	-0.060869	0.000066
C137	C	0.303039	0.272464	0.333399
C138	C	0.636373	0.605798	0.666733
C139	C	-0.061585	-0.104691	0.000060
C140	C	0.271749	0.228642	0.333393
C141	C	0.605082	0.561975	0.666727
C142	C	-0.042461	-0.149026	0.000054
C143	C	0.290872	0.184307	0.333388
C144	C	0.624206	0.517640	0.666721
C145	C	0.007951	-0.149539	0.000050
C146	C	0.341284	0.183795	0.333384
C147	C	0.674618	0.517128	0.666717
C148	C	0.032287	0.026775	0.000078
C149	C	0.365621	0.360109	0.333412
C150	C	0.698954	0.693442	0.666745
C151	C	-0.018125	0.027284	0.000082
C152	C	0.315208	0.360617	0.333415
C153	C	0.648541	0.693951	0.666749
C154	C	-0.049416	-0.016538	0.000076
C155	C	0.283917	0.316795	0.333409
C156	C	0.617251	0.650129	0.666742
C157	C	0.574716	0.026515	0.000064
C158	C	0.908050	0.359848	0.333397
C159	C	1.241383	0.693182	0.666731
C160	C	0.574164	0.080170	0.000068
C161	C	0.907497	0.413503	0.333401
C162	C	1.240830	0.746837	0.666735
C163	C	0.658931	-0.057699	0.000061
C164	C	0.992264	0.275634	0.333394
C165	C	1.325598	0.608967	0.666728
C166	C	0.712586	-0.058252	0.000064
C167	C	1.045919	0.275081	0.333397
C168	C	1.379252	0.608414	0.666730
C169	C	0.566338	-0.150292	0.000040
C170	C	0.899671	0.183041	0.333373
C171	C	1.233005	0.516374	0.666706
C172	C	0.566891	-0.203947	0.000032
C173	C	0.900224	0.129386	0.333365
C174	C	1.233557	0.462720	0.666699
N175	N	0.570510	-0.061905	0.120813
N176	N	0.903844	0.271428	0.454147
N177	N	1.237177	0.604762	0.787480
C178	C	0.614867	0.418985	0.000046
C179	C	0.948201	0.752318	0.333380
C180	C	1.281534	1.085652	0.666713
C181	C	0.612816	0.620645	0.000039
C182	C	0.946150	0.953978	0.333372
C183	C	1.279483	1.287311	0.666706
O184	O	0.650037	0.651900	0.000021
O185	O	0.983370	0.985234	0.333354
O186	O	1.316704	1.318567	0.666688
N187	N	0.568481	0.639768	0.000034
N188	N	0.901814	0.973102	0.333368
N189	N	1.235148	1.306435	0.666701
C190	C	0.524656	0.608474	0.000028
C191	C	0.857989	0.941807	0.333362
C192	C	1.191322	1.275140	0.666695
O193	O	0.486899	0.629367	0.000019
O194	O	0.820232	0.962700	0.333352
O195	O	1.153565	1.296033	0.666686
C196	C	0.526707	0.406815	0.000032
C197	C	0.860040	0.740148	0.333365
C198	C	1.193374	1.073482	0.666699
C199	C	0.571045	0.387694	0.000042
C200	C	0.904378	0.721028	0.333375
C201	C	1.237712	1.054361	0.666709
C202	C	0.659202	0.399864	0.000056
C203	C	0.992535	0.733197	0.333389
C204	C	1.325868	1.066530	0.666722
C205	C	0.659714	0.349452	0.000060
C206	C	0.993047	0.682785	0.333394
C207	C	1.326381	1.016118	0.666727
C208	C	0.615892	0.318161	0.000056
C209	C	0.949225	0.651494	0.333389
C210	C	1.282559	0.984828	0.666722
C211	C	0.571557	0.337282	0.000046
C212	C	0.904891	0.670616	0.333380
C213	C	1.238224	1.003949	0.666713
C214	C	0.482882	0.375521	0.000022
C215	C	0.816215	0.708855	0.333356
C216	C	1.149549	1.042188	0.666689
C217	C	0.483399	0.325104	0.000022
C218	C	0.816732	0.658437	0.333355
C219	C	1.150066	0.991771	0.666689
C220	C	0.527737	0.305983	0.000032
C221	C	0.861070	0.639317	0.333365
C222	C	1.194404	0.972650	0.666698
C223	C	0.528247	0.255580	0.000046
C224	C	0.861581	0.588913	0.333380
C225	C	1.194914	0.922246	0.666713
N226	N	0.572583	0.236456	0.000051
N227	N	0.905916	0.569789	0.333384
N228	N	1.239249	0.903123	0.666718
C229	C	0.616405	0.267747	0.000056
C230	C	0.949738	0.601080	0.333389
C231	C	1.283072	0.934413	0.666722
C232	C	0.523582	0.714348	0.000027
C233	C	0.856915	1.047681	0.333361
C234	C	1.190248	1.381014	0.666694
C235	C	0.523069	0.764762	0.000027
C236	C	0.856402	1.098096	0.333361
C237	C	1.189735	1.431429	0.666694
C238	C	0.611230	0.776930	0.000037
C239	C	0.944563	1.110263	0.333371
C240	C	1.277896	1.443596	0.666704
C241	C	0.611742	0.726514	0.000041
C242	C	0.945075	1.059848	0.333374
C243	C	1.278409	1.393181	0.666708
C244	C	0.567917	0.695224	0.000032
C245	C	0.901250	1.028557	0.333365
C246	C	1.234583	1.361891	0.666699
C247	C	0.617477	0.161878	0.000066
C248	C	0.950811	0.495211	0.333399
C249	C	1.284144	0.828544	0.666733
C250	C	0.617986	0.111461	0.000073
C251	C	0.951319	0.444794	0.333406
C252	C	1.284652	0.778127	0.666739
C253	C	0.529825	0.099298	0.000060
C254	C	0.863158	0.432631	0.333393
C255	C	1.196492	0.765964	0.666727
C256	C	0.529316	0.149710	0.000056
C257	C	0.862650	0.483043	0.333389
C258	C	1.195983	0.816377	0.666723
C259	C	0.573147	0.180999	0.000057
C260	C	0.906480	0.514333	0.333391
C261	C	1.239813	0.847666	0.666724
O262	O	0.491047	0.224296	0.000059
O263	O	0.824380	0.557629	0.333392
O264	O	1.157713	0.890962	0.666725
O265	O	0.654156	0.246844	0.000054
O266	O	0.987490	0.580177	0.333387
O267	O	1.320823	0.913511	0.666720
C268	C	0.614355	0.469397	0.000042
C269	C	0.947688	0.802730	0.333375
C270	C	1.281022	1.136064	0.666709
C271	C	0.570021	0.488518	0.000033
C272	C	0.903354	0.821852	0.333366
C273	C	1.236687	1.155185	0.666699
C274	C	0.526198	0.457228	0.000028
C275	C	0.859532	0.790561	0.333361
C276	C	1.192865	1.123894	0.666695
C277	C	0.569508	0.538933	0.000033
C278	C	0.902841	0.872266	0.333366
C279	C	1.236174	1.205599	0.666699
C280	C	0.613330	0.570223	0.000037
C281	C	0.946663	0.903557	0.333371
C282	C	1.279996	1.236890	0.666704
C283	C	0.657665	0.551100	0.000042
C284	C	0.990998	0.884433	0.333375
C285	C	1.324332	1.217766	0.666709
C286	C	0.658177	0.500688	0.000046
C287	C	0.991511	0.834021	0.333380
C288	C	1.324844	1.167354	0.666713
C289	C	0.481863	0.476351	0.000023
C290	C	0.815197	0.809685	0.333357
C291	C	1.148530	1.143018	0.666690
C292	C	0.481355	0.526764	0.000019
C293	C	0.814688	0.860097	0.333353
C294	C	1.148021	1.193430	0.666686
C295	C	0.525177	0.558054	0.000024
C296	C	0.858510	0.891388	0.333357
C297	C	1.191843	1.224721	0.666691
N298	N	0.570548	-0.061868	-0.120709
N299	N	0.903881	0.271465	0.212624
N300	N	1.237215	0.604798	0.545958
C301	C	0.603640	-0.028781	0.473336
C302	C	0.936974	0.304552	0.806669
C303	C	1.270307	0.637885	1.140002
C304	C	0.603651	-0.028774	0.686994
C305	C	0.936984	0.304559	1.020327
C306	C	1.270318	0.637892	1.353661
O307	O	0.631801	-0.000614	0.714623
O308	O	0.965134	0.332720	1.047956
O309	O	1.298467	0.666053	1.381290
N310	N	0.570538	-0.061871	0.713707
N311	N	0.903872	0.271462	1.047041
N312	N	1.237205	0.604796	1.380374
C313	C	0.537419	-0.094970	0.687003
C314	C	0.870752	0.238364	1.020336
C315	C	1.204085	0.571697	1.353669
O316	O	0.509251	-0.123117	0.714626
O317	O	0.842585	0.210216	1.047960
O318	O	1.175918	0.543550	1.381293
C319	C	0.537406	-0.094974	0.473345
C320	C	0.870739	0.238360	0.806678
C321	C	1.204073	0.571693	1.140012
C322	C	0.570524	-0.061878	0.446635
C323	C	0.903857	0.271455	0.779968
C324	C	1.237191	0.604788	1.113301
C325	C	0.636755	0.004312	0.446625
C326	C	0.970088	0.337645	0.779958
C327	C	1.303422	0.670979	1.113292
C328	C	0.636754	0.004308	0.393214
C329	C	0.970087	0.337642	0.726547
C330	C	1.303421	0.670975	1.059880
C331	C	0.603638	-0.028789	0.366513
C332	C	0.936971	0.304545	0.699846
C333	C	1.270304	0.637878	1.033179
C334	C	0.570523	-0.061882	0.393223
C335	C	0.903856	0.271451	0.726556
C336	C	1.237189	0.604785	1.059890
C337	C	0.504284	-0.128070	0.446641
C338	C	0.837618	0.205264	0.779975
C339	C	1.170951	0.538597	1.113308
C340	C	0.504283	-0.128067	0.393223
C341	C	0.837617	0.205266	0.726557
C342	C	1.170950	0.538600	1.059890
C343	C	0.537401	-0.094971	0.366513
C344	C	0.870735	0.238362	0.699846
C345	C	1.204068	0.571695	1.033180
C346	C	0.537405	-0.094983	0.313111
C347	C	0.870739	0.238351	0.646444
C348	C	1.204072	0.571684	0.979777
N349	N	0.570518	-0.061886	0.286397
N350	N	0.903851	0.271447	0.619731
N351	N	1.237185	0.604781	0.953064
C352	C	0.603634	-0.028789	0.313098
C353	C	0.936967	0.304544	0.646432
C354	C	1.270301	0.637878	0.979765
C355	C	0.537428	-0.094966	0.799176
C356	C	0.870762	0.238368	1.132509
C357	C	1.204095	0.571701	1.465843
C358	C	0.537432	-0.094965	0.852590
C359	C	0.870765	0.238368	1.185923
C360	C	1.204099	0.571701	1.519257
C361	C	0.603664	-0.028769	0.852578
C362	C	0.936997	0.304564	1.185911
C363	C	1.270330	0.637897	1.519245
C364	C	0.603662	-0.028773	0.799163
C365	C	0.936995	0.304561	1.132496
C366	C	1.270329	0.637894	1.465829
C367	C	0.570541	-0.061869	0.772463
C368	C	0.903874	0.271464	1.105796
C369	C	1.237207	0.604798	1.439129
C370	C	0.603629	-0.028800	0.200931
C371	C	0.936963	0.304533	0.534264
C372	C	1.270296	0.637867	0.867597
C373	C	0.603626	-0.028808	0.147514
C374	C	0.936960	0.304525	0.480848
C375	C	1.270293	0.637859	0.814181
C376	C	0.537393	-0.095002	0.147531
C377	C	0.870726	0.238331	0.480865
C378	C	1.204060	0.571665	0.814198
C379	C	0.537397	-0.094996	0.200943
C380	C	0.870731	0.238338	0.534276
C381	C	1.204064	0.571671	0.867609
C382	C	0.570517	-0.061891	0.227641
C383	C	0.903851	0.271443	0.560974
C384	C	1.237184	0.604776	0.894308
O385	O	0.509267	-0.123125	0.285449
O386	O	0.842600	0.210208	0.618782
O387	O	1.175933	0.543542	0.952116
O388	O	0.631790	-0.000639	0.285466
O389	O	0.965123	0.332694	0.618799
O390	O	1.298457	0.666028	0.952132
C391	C	0.603641	-0.028777	0.526747
C392	C	0.936975	0.304556	0.860080
C393	C	1.270308	0.637889	1.193414
C394	C	0.570527	-0.061871	0.553457
C395	C	0.903860	0.271463	0.886791
C396	C	1.237193	0.604796	1.220124
C397	C	0.537410	-0.094968	0.526756
C398	C	0.870744	0.238366	0.860090
C399	C	1.204077	0.571699	1.193423
C400	C	0.570530	-0.061870	0.606872
C401	C	0.903864	0.271463	0.940205
C402	C	1.237197	0.604796	1.273538
C403	C	0.603646	-0.028773	0.633573
C404	C	0.936980	0.304560	0.966906
C405	C	1.270313	0.637893	1.300239
C406	C	0.636759	0.004323	0.606859
C407	C	0.970092	0.337657	0.940193
C408	C	1.303426	0.670990	1.273526
C409	C	0.636758	0.004320	0.553448
C410	C	0.970091	0.337653	0.886781
C411	C	1.303424	0.670986	1.220115
C412	C	0.504298	-0.128064	0.553470
C413	C	0.837631	0.205269	0.886803
C414	C	1.170965	0.538602	1.220136
C415	C	0.504302	-0.128058	0.606881
C416	C	0.837635	0.205275	0.940214
C417	C	1.170969	0.538609	1.273548
C418	C	0.537418	-0.094961	0.633582
C419	C	0.870752	0.238372	0.966915
C420	C	1.204085	0.571706	1.300249
H421	H	0.343360	0.015426	0.000050
H422	H	0.676693	0.348759	0.333383
H423	H	1.010027	0.682093	0.666717
H424	H	0.630629	-0.001821	0.874327
H425	H	0.963962	0.331512	1.207660
H426	H	1.297296	0.664845	1.540994
H427	H	0.446777	0.391080	0.000011
H428	H	0.780111	0.724414	0.333345
H429	H	1.113444	1.057747	0.666678
H430	H	0.694282	0.485125	0.000054
H431	H	1.027615	0.818458	0.333388
H432	H	1.360949	1.151791	0.666721
H433	H	-0.271687	0.021674	0.000070
H434	H	0.061646	0.355008	0.333404
H435	H	0.394980	0.688341	0.666737
H436	H	0.510469	-0.121920	0.874334
H437	H	0.843803	0.211413	1.207667
H438	H	1.177136	0.544747	1.541001
C439	C	0.312738	-0.156389	-0.000050
C440	C	0.646071	0.176945	0.333283
C441	C	0.979405	0.510278	0.666616
C442	C	0.283433	-0.158659	-0.043701
C443	C	0.616767	0.174674	0.289632
C444	C	0.950100	0.508007	0.622966
C445	C	0.252082	-0.202451	-0.043799
C446	C	0.585415	0.130882	0.289534
C447	C	0.918748	0.464215	0.622868
H448	H	0.331291	-0.182903	-0.000084
H449	H	0.664625	0.150430	0.333249
H450	H	0.997958	0.483764	0.666582
H451	H	0.292788	-0.158035	0.029526
H452	H	0.626121	0.175298	0.362860
H453	H	0.959454	0.508631	0.696193
H454	H	0.303381	-0.157017	-0.073270
H455	H	0.636715	0.176316	0.260063
H456	H	0.970048	0.509649	0.593396
H457	H	0.264870	-0.132155	-0.043676
H458	H	0.598203	0.201178	0.289657
H459	H	0.931537	0.534512	0.622990
H460	H	0.232131	-0.204098	-0.014222
H461	H	0.565465	0.129235	0.319111
H462	H	0.898798	0.462569	0.652444
H463	H	0.270639	-0.228962	-0.043832
H464	H	0.603972	0.104371	0.289502
H465	H	0.937305	0.437704	0.622835
H466	H	0.232192	-0.203996	-0.073413
H467	H	0.565525	0.129338	0.259920
H468	H	0.898858	0.462671	0.593254
H469	H	0.663725	0.031269	0.531704
H470	H	0.997059	0.364602	0.865038
H471	H	1.330392	0.697936	1.198371
C472	C	0.501446	-0.130960	0.770284
C473	C	0.834780	0.202374	1.103617
C474	C	1.168113	0.535707	1.436950
C475	C	0.472462	-0.159949	0.805117
C476	C	0.805795	0.173384	1.138450
C477	C	1.139129	0.506718	1.471783
C478	C	0.439316	-0.193118	0.778523
C479	C	0.772650	0.140216	1.111856
C480	C	1.105983	0.473549	1.445189
H481	H	0.481404	-0.113771	0.749447
H482	H	0.814738	0.219563	1.082781
H483	H	1.148071	0.552896	1.416114
H484	H	0.518668	-0.150991	0.749456
H485	H	0.852002	0.182342	1.082790
H486	H	1.185335	0.515675	1.416123
H487	H	0.455241	-0.139920	0.825935
H488	H	0.788575	0.193413	1.159269
H489	H	1.121908	0.526747	1.492602
H490	H	0.492491	-0.177149	0.825954
H491	H	0.825824	0.156185	1.159287
H492	H	1.159157	0.489518	1.492621
H493	H	0.456538	-0.213149	0.757695
H494	H	0.789872	0.120184	1.091029
H495	H	1.123205	0.453517	1.424362
H496	H	0.419278	-0.175925	0.757687
H497	H	0.752611	0.157409	1.091021
H498	H	1.085944	0.490742	1.424354
H499	H	0.419650	-0.212794	0.802153
H500	H	0.752983	0.120539	1.135486
H501	H	1.086316	0.453873	1.468819
H502	H	0.653168	0.187348	0.000065
H503	H	0.986501	0.520681	0.333398
H504	H	1.319835	0.854015	0.666731
H505	H	0.647846	0.710950	0.000048
H506	H	0.981179	1.044283	0.333382
H507	H	1.314513	1.377617	0.666715
C508	C	0.112298	0.073860	0.000174
C509	C	0.445631	0.407194	0.333507
C510	C	0.778965	0.740527	0.666841
C511	C	0.083700	0.076719	0.043827
C512	C	0.417033	0.410052	0.377161
C513	C	0.750366	0.743386	0.710494
C514	C	0.064509	0.121025	0.043928
C515	C	0.397842	0.454358	0.377261
C516	C	0.731175	0.787691	0.710594
H517	H	0.138109	0.099924	0.000206
H518	H	0.471442	0.433257	0.333540
H519	H	0.804776	0.766591	0.666873
H520	H	0.092859	0.075907	-0.029401
H521	H	0.426192	0.409241	0.303932
H522	H	0.759526	0.742574	0.637266
H523	H	0.103138	0.074677	0.073395
H524	H	0.436471	0.408010	0.406728
H525	H	0.769804	0.741343	0.740061
H526	H	0.057881	0.050666	0.043804
H527	H	0.391215	0.383999	0.377137
H528	H	0.724548	0.717332	0.710471
H529	H	0.045070	0.123072	0.014352
H530	H	0.378403	0.456405	0.347686
H531	H	0.711736	0.789738	0.681019
H532	H	0.090323	0.147085	0.043959
H533	H	0.423656	0.480418	0.377292
H534	H	0.756990	0.813751	0.710625
H535	H	0.045099	0.122968	0.073543
H536	H	0.378433	0.456301	0.406876
H537	H	0.711766	0.789635	0.740210
C538	C	-0.171716	0.032627	0.000180
C539	C	0.161617	0.365960	0.333514
C540	C	0.494950	0.699294	0.666847
C541	C	-0.142428	0.034917	0.043844
C542	C	0.190906	0.368250	0.377177
C543	C	0.524239	0.701583	0.710510
C544	C	-0.111114	0.078734	0.043962
C545	C	0.222219	0.412067	0.377296
C546	C	0.555552	0.745400	0.710629
H547	H	-0.151749	0.034311	-0.029377
H548	H	0.181584	0.367644	0.303956
H549	H	0.514917	0.700977	0.637289
H550	H	-0.190313	0.059116	0.000209
H551	H	0.143021	0.392449	0.333543
H552	H	0.476354	0.725783	0.666876
H553	H	-0.123833	0.008435	0.043810
H554	H	0.209500	0.341769	0.377143
H555	H	0.542834	0.675102	0.710477
H556	H	-0.162382	0.033242	0.073408
H557	H	0.170952	0.366575	0.406742
H558	H	0.504285	0.699908	0.740075
H559	H	-0.129711	0.105222	0.043991
H560	H	0.203622	0.438556	0.377325
H561	H	0.536956	0.771889	0.710658
H562	H	-0.091151	0.080413	0.014403
H563	H	0.242183	0.413747	0.347736
H564	H	0.575516	0.747080	0.681070
H565	H	-0.091242	0.080295	0.073590
H566	H	0.242092	0.413628	0.406923
H567	H	0.575425	0.746962	0.740256
H568	H	0.477317	-0.155019	0.468381
H569	H	0.810650	0.178315	0.801715
H570	H	1.143983	0.511648	1.135048
H571	H	0.477311	-0.155018	0.371487
H572	H	0.810644	0.178316	0.704820
H573	H	1.143977	0.511649	1.038153
H574	H	0.630629	-0.001823	0.777418
H575	H	0.963962	0.331510	1.110752
H576	H	1.297296	0.664844	1.444085
H577	H	0.663725	0.031271	0.628608
H578	H	0.997059	0.364604	0.961941
H579	H	1.330392	0.697937	1.295275
C580	C	0.482233	0.065343	0.000156
C581	C	0.815566	0.398677	0.333490
C582	C	1.148899	0.732010	0.666823
C583	C	0.455504	0.073922	0.043813
C584	C	0.788838	0.407255	0.377146
C585	C	1.122171	0.740588	0.710479
C586	C	0.411663	0.042647	0.043917
C587	C	0.744996	0.375980	0.377250
C588	C	1.078329	0.709314	0.710583
H589	H	0.463988	0.071076	-0.029406
H590	H	0.797321	0.404409	0.303927
H591	H	1.130654	0.737742	0.637260
H592	H	0.488870	0.032573	0.000185
H593	H	0.822204	0.365907	0.333518
H594	H	1.155537	0.699240	0.666851
H595	H	0.448866	0.106684	0.043779
H596	H	0.782199	0.440017	0.377113
H597	H	1.115532	0.773351	0.710446
H598	H	0.473735	0.068186	0.073382
H599	H	0.807068	0.401519	0.406715
H600	H	1.140401	0.734853	0.740049
H601	H	0.418300	0.009877	0.043945
H602	H	0.751633	0.343210	0.377279
H603	H	1.084967	0.676544	0.710612
H604	H	0.393422	0.048382	0.014353
H605	H	0.726755	0.381715	0.347686
H606	H	1.060089	0.715049	0.681019
H607	H	0.393524	0.048460	0.073539
H608	H	0.726857	0.381793	0.406873
H609	H	1.060191	0.715127	0.740206
H610	H	0.434827	0.014492	0.000048
H611	H	0.768160	0.347826	0.333382
H612	H	1.101494	0.681159	0.666715
H613	H	0.654093	0.095896	0.000082
H614	H	0.987426	0.429229	0.333415
H615	H	1.320759	0.762562	0.666749
H616	H	0.209009	0.060929	0.000091
H617	H	0.542343	0.394262	0.333424
H618	H	0.875676	0.727595	0.666757
H619	H	0.693347	0.576585	0.000048
H620	H	1.026680	0.909919	0.333381
H621	H	1.360013	1.243252	0.666715
H622	H	0.663720	0.031259	0.371469
H623	H	0.997053	0.364592	0.704802
H624	H	1.330387	0.697925	1.038136
H625	H	-0.293777	-0.138273	0.000053
H626	H	0.039557	0.195061	0.333386
H627	H	0.372890	0.528394	0.666719
H628	H	0.663722	0.031266	0.468360
H629	H	0.997056	0.364599	0.801694
H630	H	1.330389	0.697932	1.135027
H631	H	0.630597	-0.001858	0.125768
H632	H	0.963930	0.331476	0.459102
H633	H	1.297263	0.664809	0.792435
C634	C	0.501386	-0.130948	0.229854
C635	C	0.834720	0.202385	0.563187
C636	C	1.168053	0.535718	0.896520
C637	C	0.472377	-0.159926	0.195034
C638	C	0.805710	0.173407	0.528368
C639	C	1.139043	0.506741	0.861701
C640	C	0.439188	-0.193042	0.221644
C641	C	0.772522	0.140292	0.554977
C642	C	1.105855	0.473625	0.888311
H643	H	0.518560	-0.150998	0.250697
H644	H	0.851893	0.182335	0.584031
H645	H	1.185227	0.515669	0.917364
H646	H	0.481370	-0.113703	0.250675
H647	H	0.814703	0.219630	0.584008
H648	H	1.148036	0.552963	0.917341
H649	H	0.492391	-0.177170	0.174222
H650	H	0.825724	0.156164	0.507555
H651	H	1.159057	0.489497	0.840889
H652	H	0.455192	-0.139890	0.174190
H653	H	0.788526	0.193443	0.507523
H654	H	1.121859	0.526777	0.840856
H655	H	0.419172	-0.175797	0.242465
H656	H	0.752505	0.157537	0.575799
H657	H	1.085839	0.490870	0.909132
H658	H	0.456366	-0.213088	0.242487
H659	H	0.789699	0.120246	0.575820
H660	H	1.123033	0.453579	0.909154
H661	H	0.419499	-0.212704	0.198024
H662	H	0.752832	0.120629	0.531357
H663	H	1.086165	0.453963	0.864690
H664	H	0.023514	-0.185643	0.000042
H665	H	0.356847	0.147690	0.333376
H666	H	0.690181	0.481023	0.666709
H667	H	0.174750	-0.187180	0.000030
H668	H	0.508083	0.146153	0.333363
H669	H	0.841417	0.479487	0.666696
H670	H	-0.067947	-0.184708	0.000047
H671	H	0.265386	0.148625	0.333381
H672	H	0.598720	0.481959	0.666714
H673	H	0.445246	0.542327	0.000016
H674	H	0.778580	0.875660	0.333349
H675	H	1.111913	1.208993	0.666682
H676	H	-0.033688	0.063392	0.000086
H677	H	0.299645	0.396725	0.333420
H678	H	0.632979	0.730059	0.666753
H679	H	0.447710	0.299629	0.000014
H680	H	0.781043	0.632963	0.333347
H681	H	1.114377	0.966296	0.666681
H682	H	0.694889	0.425336	0.000058
H683	H	1.028223	0.758670	0.333391
H684	H	1.361556	1.092003	0.666724
H685	H	0.486964	0.780325	0.000028
H686	H	0.820297	1.113659	0.333362
H687	H	1.153631	1.446992	0.666695
C688	C	0.074783	-0.198131	0.000136
C689	C	0.408116	0.135202	0.333470
C690	C	0.741450	0.468535	0.666803
C691	C	0.045485	-0.200436	0.043797
C692	C	0.378819	0.132897	0.377131
C693	C	0.712152	0.466231	0.710464
C694	C	0.014174	-0.244254	0.043899
C695	C	0.347507	0.089079	0.377233
C696	C	0.680841	0.422412	0.710566
H697	H	0.054822	-0.199807	-0.029423
H698	H	0.388155	0.133527	0.303910
H699	H	0.721489	0.466860	0.637244
H700	H	0.093381	-0.224619	0.000158
H701	H	0.426714	0.108714	0.333491
H702	H	0.760048	0.442048	0.666824
H703	H	0.026889	-0.173956	0.043771
H704	H	0.360222	0.159378	0.377105
H705	H	0.693555	0.492711	0.710438
H706	H	0.065433	-0.198769	0.073364
H707	H	0.398766	0.134564	0.406697
H708	H	0.732099	0.467898	0.740030
H709	H	0.032772	-0.270742	0.043920
H710	H	0.366105	0.062591	0.377254
H711	H	0.699439	0.395925	0.710587
H712	H	-0.005784	-0.245926	0.014338
H713	H	0.327550	0.087408	0.347671
H714	H	0.660883	0.420741	0.681005
H715	H	-0.005705	-0.245826	0.073525
H716	H	0.327628	0.087507	0.406858
H717	H	0.660962	0.420841	0.740191
H718	H	0.646911	0.802415	0.000041
H719	H	0.980245	1.135749	0.333375
H720	H	1.313578	1.469082	0.666708
H721	H	0.510432	-0.121951	0.125783
H722	H	0.843765	0.211383	0.459116
H723	H	1.177098	0.544716	0.792450
H724	H	0.477334	-0.155013	0.628625
H725	H	0.810668	0.178321	0.961958
H726	H	1.144001	0.511654	1.295292
H727	H	0.493213	0.165279	0.000062
H728	H	0.826546	0.498612	0.333396
H729	H	1.159879	0.831945	0.666729
H730	H	0.695819	0.333889	0.000066
H731	H	1.029152	0.667222	0.333400
H732	H	1.362485	1.000555	0.666733
C733	C	0.468321	-0.164057	0.524577
C734	C	0.801654	0.169276	0.857910
C735	C	1.134987	0.502610	1.191244
C736	C	0.439334	-0.193045	0.559410
C737	C	0.772668	0.140288	0.892743
C738	C	1.106001	0.473622	1.226076
C739	C	0.406191	-0.226216	0.532815
C740	C	0.739524	0.107118	0.866148
C741	C	1.072858	0.440451	1.199482
H742	H	0.448280	-0.146870	0.503738
H743	H	0.781613	0.186464	0.837071
H744	H	1.114947	0.519797	1.170404
H745	H	0.485545	-0.184090	0.503753
H746	H	0.818878	0.149244	0.837086
H747	H	1.152211	0.482577	1.170419
H748	H	0.422112	-0.173015	0.580225
H749	H	0.755445	0.160318	0.913558
H750	H	1.088778	0.493651	1.246892
H751	H	0.459362	-0.210243	0.580250
H752	H	0.792695	0.123090	0.913583
H753	H	1.126028	0.456423	1.246917
H754	H	0.423415	-0.246248	0.511991
H755	H	0.756748	0.087085	0.845324
H756	H	1.090081	0.420418	1.178657
H757	H	0.386154	-0.209024	0.511977
H758	H	0.719487	0.124309	0.845310
H759	H	1.052820	0.457643	1.178643
H760	H	0.386523	-0.245891	0.556445
H761	H	0.719856	0.087442	0.889778
H762	H	1.053189	0.420776	1.223111
H763	H	0.412743	-0.145454	0.000021
H764	H	0.746076	0.187879	0.333355
H765	H	1.079410	0.521213	0.666688
C766	C	-0.197212	-0.151292	0.000073
C767	C	0.136121	0.182041	0.333406
C768	C	0.469454	0.515375	0.666740
C769	C	-0.235412	-0.189556	0.000078
C770	C	0.097921	0.143777	0.333412
C771	C	0.431255	0.477110	0.666745
C772	C	-0.216399	-0.233956	0.000103
C773	C	0.116934	0.099377	0.333437
C774	C	0.450268	0.432711	0.666770
H775	H	-0.177803	-0.153392	-0.029510
H776	H	0.155530	0.179941	0.303823
H777	H	0.488864	0.513275	0.637157
H778	H	-0.177817	-0.153357	0.029678
H779	H	0.155516	0.179976	0.363011
H780	H	0.488849	0.513309	0.696344
H781	H	-0.254799	-0.187492	-0.029523
H782	H	0.078534	0.145841	0.303810
H783	H	0.411868	0.479175	0.637143
H784	H	-0.254824	-0.187472	0.029659
H785	H	0.078509	0.145861	0.362992
H786	H	0.411842	0.479194	0.696326
H787	H	-0.197004	-0.236021	0.029708
H788	H	0.136330	0.097312	0.363042
H789	H	0.469663	0.430645	0.696375
H790	H	-0.196990	-0.236051	-0.029480
H791	H	0.136344	0.097282	0.303853
H792	H	0.469677	0.430616	0.637187
H793	H	-0.242314	-0.259924	0.000112
H794	H	0.091019	0.073410	0.333445
H795	H	0.424353	0.406743	0.666779
H796	H	0.057760	0.062462	0.000085
H797	H	0.391093	0.395795	0.333418
H798	H	0.724427	0.729128	0.666751
H799	H	0.487892	0.688875	0.000020
H800	H	0.821225	1.022208	0.333354
H801	H	1.154558	1.355542	0.666687
H802	H	0.446177	0.450879	0.000018
H803	H	0.779510	0.784212	0.333352
H804	H	1.112844	1.117545	0.666685
H805	H	0.630598	-0.001842	0.222662
H806	H	0.963931	0.331491	0.555996
H807	H	1.297265	0.664825	0.889329
