data_functionalizedCrystal
_audit_creation_method	'MofGen! by Chris Wilmer'
_symmetry_space_group_name_H-M	'P1'
_symmetry_Int_Tables_number	1
_symmetry_cell_setting	triclinic
loop_
_symmetry_equiv_pos_as_xyz
  x,y,z
_cell_length_a	17.699077
_cell_length_b	10.654545
_cell_length_c	16.176319
_cell_angle_alpha	89.995575
_cell_angle_beta	89.993140
_cell_angle_gamma	83.883002
loop_
_atom_site_label
_atom_site_type_symbol
_atom_site_fract_x
_atom_site_fract_y
_atom_site_fract_z
O1	O	1.005091	0.158773	-0.068731
O2	O	0.784844	0.179442	-0.068735
O3	O	0.900031	-0.013720	-0.068732
O4	O	0.889904	0.351936	-0.068734
O5	O	0.900015	-0.013733	0.068761
O6	O	0.784828	0.179430	0.068758
O7	O	1.005075	0.158761	0.068762
Cu8	Cu	0.894950	0.169094	0.081314
Cu9	Cu	0.894969	0.169109	-0.081287
O10	O	0.889888	0.351924	0.068759
C11	C	0.756634	0.178697	0.000011
C12	C	0.672602	0.176479	0.000010
C13	C	0.633119	0.175427	0.074958
C14	C	0.554163	0.173323	0.074959
C15	C	0.514691	0.172280	0.000011
C16	C	0.554179	0.173328	-0.074944
C17	C	0.633134	0.175423	-0.074944
C18	C	0.235762	0.164877	-0.074945
C19	C	0.156801	0.162785	-0.074939
C20	C	0.156791	0.162777	0.074958
C21	C	0.235746	0.164872	0.074958
C22	C	0.275228	0.165913	0.000004
C23	C	0.360841	0.168192	0.000004
C24	C	0.429078	0.170009	0.000010
C25	C	0.899279	-0.060511	0.000013
C26	C	0.897054	-0.199916	0.000008
C27	C	0.897081	-0.199911	-0.149892
C28	C	0.896051	-0.265400	-0.224841
C29	C	0.893961	-0.396382	-0.224842
C30	C	0.892897	-0.461878	-0.149886
C31	C	0.893927	-0.396388	-0.074936
C32	C	0.896019	-0.265404	-0.074943
C33	C	0.893894	-0.396392	0.074961
C34	C	0.895990	-0.265411	0.074964
C35	C	0.892831	-0.461887	0.149918
C36	C	0.893866	-0.396399	0.224869
C37	C	0.895957	-0.265409	0.224867
C38	C	0.897020	-0.199922	0.149913
C39	C	1.033285	0.159506	0.000014
C40	C	1.117318	0.161724	0.000010
C41	C	0.890640	0.398715	0.000013
C42	C	0.892865	0.538119	0.000012
N43	N	0.894942	0.169083	0.195680
N44	N	0.894983	0.169110	-0.195653
C45	C	0.945963	0.083586	0.238945
C46	C	0.945967	0.083585	0.325492
C47	C	0.894953	0.169088	0.368772
C48	C	0.843927	0.254589	0.325501
C49	C	0.843920	0.254584	0.238955
C50	C	0.843953	0.254613	0.674529
C51	C	0.843965	0.254614	0.761081
C52	C	0.946000	0.083614	0.761066
C53	C	0.945993	0.083608	0.674520
C54	C	0.894964	0.169105	0.631256
C55	C	0.894960	0.169103	0.537412
C56	C	0.894961	0.169096	0.462615
H57	H	0.522035	0.172469	-0.135968
H58	H	0.987507	0.013965	0.203712
H59	H	0.898726	-0.093270	0.149904
O60	O	0.892801	-0.459817	0.297747
C61	C	0.894185	-0.373939	0.363902
H62	H	0.871766	-0.275292	0.341929
H63	H	0.955015	-0.373384	0.386953
C64	C	0.871342	-0.535299	0.461694
C65	C	0.843801	-0.414140	0.434709
H66	H	0.840266	-0.560098	0.505373
H67	H	0.870412	-0.593158	0.417125
H68	H	0.922033	-0.534820	0.480897
H69	H	0.793114	-0.414623	0.415496
H70	H	0.844720	-0.356281	0.479276
O71	O	0.896821	-0.201706	0.297651
C72	C	0.832608	-0.111492	0.302113
H73	H	0.786255	-0.140881	0.259573
H74	H	0.848993	-0.015485	0.281977
C75	C	0.859879	-0.066844	0.443900
C76	C	0.802945	-0.102945	0.391656
H77	H	0.841582	-0.061566	0.499134
H78	H	0.903142	-0.127619	0.440893
H79	H	0.873528	0.013159	0.427110
H80	H	0.789303	-0.182953	0.408440
H81	H	0.759678	-0.042183	0.394667
H82	H	0.898792	-0.093260	-0.149898
H83	H	0.987511	0.013965	0.360718
O84	O	0.995575	0.000428	0.632607
C85	C	1.040621	-0.075017	0.689353
H86	H	1.009592	-0.076366	0.751055
H87	H	1.097057	-0.034362	0.698539
C88	C	1.093618	-0.208871	0.579801
C89	C	1.055504	-0.210536	0.655582
H90	H	1.102802	-0.292465	0.558969
H91	H	1.063272	-0.158040	0.541569
H92	H	1.140643	-0.174986	0.587466
H93	H	1.008476	-0.244407	0.647914
H94	H	1.085843	-0.261377	0.693812
O95	O	0.794401	0.337817	0.367447
C96	C	0.807358	0.462107	0.346299
H97	H	0.836527	0.461887	0.283456
H98	H	0.845233	0.500873	0.394997
C99	C	0.695122	0.546078	0.419492
C100	C	0.730942	0.545808	0.342303
H101	H	0.647986	0.597712	0.417030
H102	H	0.686393	0.462342	0.433743
H103	H	0.726692	0.578380	0.460065
H104	H	0.699376	0.513492	0.301734
H105	H	0.739663	0.629542	0.328045
H106	H	0.893116	-0.449702	-0.285872
O107	O	0.274228	0.165853	-0.147678
C108	C	0.352379	0.167956	-0.131615
H109	H	0.366088	0.128486	-0.067205
H110	H	0.367368	0.269261	-0.135164
C111	C	0.382141	0.135202	-0.275392
C112	C	0.398980	0.086715	-0.196285
H113	H	0.410888	0.085094	-0.315285
H114	H	0.329489	0.133790	-0.286215
H115	H	0.394632	0.219622	-0.278338
H116	H	0.386480	0.002303	-0.193337
H117	H	0.451631	0.088111	-0.185463
H118	H	0.802373	0.324203	0.203729
O119	O	0.794330	0.337717	0.802996
C120	C	0.749300	0.413196	0.746254
H121	H	0.748171	0.361710	0.684564
H122	H	0.774351	0.506443	0.737036
C123	C	0.669182	0.502470	0.855822
C124	C	0.667790	0.439229	0.780056
H125	H	0.618904	0.518534	0.876674
H126	H	0.699521	0.451622	0.894052
H127	H	0.690061	0.580168	0.848131
H128	H	0.646920	0.361526	0.787751
H129	H	0.637446	0.490064	0.741829
H130	H	0.802405	0.324229	0.639310
H131	H	0.522021	0.172445	0.135990
O132	O	0.671346	0.176380	0.147838
C133	C	0.619561	0.175029	0.213989
H134	H	0.566207	0.133797	0.192014
H135	H	0.603745	0.275511	0.237036
C136	C	0.721957	0.144154	0.311790
C137	C	0.656430	0.093503	0.284801
H138	H	0.744700	0.093870	0.355472
H139	H	0.756847	0.145069	0.267223
H140	H	0.708769	0.227888	0.330990
H141	H	0.669621	0.009776	0.265592
H142	H	0.621544	0.092571	0.329366
H143	H	0.124635	0.161923	0.135989
O144	O	0.273976	0.165825	0.147836
C145	C	0.222193	0.164475	0.213990
H146	H	0.168839	0.123244	0.192019
H147	H	0.206380	0.264958	0.237037
C148	C	0.324595	0.133601	0.311785
C149	C	0.259066	0.082950	0.284801
H150	H	0.347340	0.083317	0.355466
H151	H	0.359482	0.134515	0.267216
H152	H	0.311407	0.217335	0.330985
H153	H	0.272256	-0.000777	0.265592
H154	H	0.224182	0.082020	0.329368
H155	H	0.124665	0.161935	-0.135975
H156	H	0.665280	0.176282	-0.135974
H157	H	0.896916	-0.212059	-0.285869
H158	H	0.891124	-0.568539	0.149912
H159	H	0.891186	-0.568528	-0.149893
H160	H	0.987548	0.013994	0.796300
