data_functionalizedCrystal
_audit_creation_method	'MofGen! by Chris Wilmer'
_symmetry_space_group_name_H-M	'P1'
_symmetry_Int_Tables_number	1
_symmetry_cell_setting	triclinic
loop_
_symmetry_equiv_pos_as_xyz
  x,y,z
_cell_length_a	12.996460
_cell_length_b	10.654550
_cell_length_c	10.654550
_cell_angle_alpha	95.515069
_cell_angle_beta	89.994020
_cell_angle_gamma	90.002324
loop_
_atom_site_label
_atom_site_type_symbol
_atom_site_fract_x
_atom_site_fract_y
_atom_site_fract_z
O1	O	-0.085490	-1.667843	0.176401
O2	O	0.414510	-1.167843	0.676401
O3	O	-0.085509	-1.302364	0.193207
O4	O	0.414491	-0.802364	0.693207
O5	O	-0.085492	-1.493507	0.002065
O6	O	0.414508	-0.993507	0.502065
O7	O	-0.085506	-1.476701	0.367544
O8	O	0.414494	-0.976701	0.867544
O9	O	0.085642	-1.493487	0.002054
O10	O	0.585642	-0.993487	0.502054
O11	O	0.085625	-1.302344	0.193197
O12	O	0.585625	-0.802344	0.693197
O13	O	0.085644	-1.667823	0.176391
O14	O	0.585644	-1.167823	0.676391
Cu15	Cu	0.101260	-1.485082	0.184793
Cu16	Cu	0.601260	-0.985082	0.684793
Cu17	Cu	-0.101125	-1.485106	0.184805
Cu18	Cu	0.398875	-0.985106	0.684805
O19	O	0.085628	-1.476680	0.367533
O20	O	0.585628	-0.976680	0.867533
C21	C	0.000056	-1.255556	0.191968
C22	C	0.500056	-0.755556	0.691968
C23	C	0.000049	-1.116113	0.188276
C24	C	0.500049	-0.616113	0.688276
N25	N	0.243608	-1.485074	0.184783
N26	N	0.743608	-0.985074	0.684783
N27	N	-0.243472	-1.485123	0.184805
N28	N	0.256528	-0.985123	0.684805
C29	C	0.663422	-1.485104	0.184807
C30	C	1.163422	-0.985104	0.684807
C31	C	0.546617	-1.485092	0.184804
C32	C	1.046617	-0.985092	0.684804
C33	C	0.453518	-1.485090	0.184796
C34	C	0.953518	-0.985090	0.684796
C35	C	0.336706	-1.485076	0.184791
C36	C	0.836706	-0.985076	0.684791
C37	C	0.000074	-1.492263	-0.044738
C38	C	0.500074	-0.992263	0.455262
C39	C	0.000072	-1.488571	-0.184181
C40	C	0.500072	-0.988571	0.315819
C41	C	0.000077	-1.714631	0.177630
C42	C	0.500077	-1.214631	0.677630
C43	C	0.000078	-1.854074	0.181322
C44	C	0.500078	-1.354074	0.681322
C45	C	0.000048	-1.036628	0.300818
C46	C	0.500048	-0.536628	0.800818
C47	C	0.000066	-0.905607	0.297341
C48	C	0.500066	-0.405607	0.797341
C49	C	0.000082	-0.933570	0.068772
C50	C	0.500082	-0.433570	0.568772
C51	C	0.000071	-1.064588	0.072250
C52	C	0.500071	-0.564588	0.572250
C53	C	0.000078	-1.601112	-0.263667
C54	C	0.500078	-1.101112	0.236333
C55	C	0.000065	-1.597636	-0.394688
C56	C	0.500065	-1.097636	0.105312
C57	C	0.000046	-1.369066	-0.366725
C58	C	0.500046	-0.869066	0.133275
C59	C	0.000051	-1.372544	-0.235706
C60	C	0.500051	-0.872544	0.264294
C61	C	0.000059	-1.477925	0.414336
C62	C	0.500059	-0.977925	0.914336
C63	C	0.000054	-1.481616	0.553779
C64	C	0.500054	-0.981616	1.053779
H65	H	0.000037	-1.078574	0.395294
H66	H	0.500037	-0.578574	0.895294
H67	H	0.000067	-0.840894	0.388984
H68	H	0.500067	-0.340894	0.888984
H69	H	0.000044	-1.280893	-0.170985
H70	H	0.500044	-0.780893	0.329015
H71	H	0.000106	-0.891602	-0.025693
H72	H	0.500106	-0.391602	0.474307
H73	H	0.000093	-1.695588	-0.221720
H74	H	0.500093	-1.195588	0.278280
H75	H	0.000075	-1.129309	-0.019401
H76	H	0.500075	-0.629309	0.480599
Br77	Br	0.000014	-1.211609	-0.436660
Br78	Br	0.500014	-0.711609	0.063340
Br79	Br	0.000066	-1.750378	-0.502558
Br80	Br	0.500066	-1.250378	-0.002558
