data_functionalizedCrystal
_audit_creation_method	'MofGen! by Chris Wilmer'
_symmetry_space_group_name_H-M	'P1'
_symmetry_Int_Tables_number	1
_symmetry_cell_setting	triclinic
loop_
_symmetry_equiv_pos_as_xyz
  x,y,z
_cell_length_a	11.026607
_cell_length_b	15.500227
_cell_length_c	10.967953
_cell_angle_alpha	75.033629
_cell_angle_beta	96.379953
_cell_angle_gamma	93.466421
loop_
_atom_site_label
_atom_site_type_symbol
_atom_site_fract_x
_atom_site_fract_y
_atom_site_fract_z
O1	O	1.614027	-0.006162	0.523881
O2	O	2.114027	0.493838	1.023881
O3	O	1.260925	0.002810	0.463706
O4	O	1.760925	0.502810	0.963706
O5	O	1.447751	0.025383	0.312278
O6	O	1.947751	0.525383	0.812278
O7	O	1.427201	-0.028735	0.675309
O8	O	1.927201	0.471265	1.175309
O9	O	1.436414	-0.119869	0.321421
O10	O	1.936414	0.380131	0.821421
O11	O	1.249589	-0.142441	0.472849
O12	O	1.749589	0.357559	0.972849
O13	O	1.602690	-0.151414	0.533024
O14	O	2.102690	0.348586	1.033024
Cu15	Cu	1.425104	-0.160190	0.503771
Cu16	Cu	1.925104	0.339810	1.003771
Cu17	Cu	1.438511	0.011587	0.492959
Cu18	Cu	1.938511	0.511587	0.992959
O19	O	1.415864	-0.173986	0.684452
O20	O	1.915864	0.326014	1.184452
C21	C	1.210084	-0.068160	0.457176
C22	C	1.710084	0.431840	0.957176
C23	C	1.075482	-0.063226	0.424083
C24	C	1.575482	0.436774	0.924083
N25	N	1.415683	-0.281009	0.511377
N26	N	1.915683	0.218991	1.011377
C27	C	1.001366	-0.076847	0.515459
C28	C	1.501366	0.423153	1.015459
C29	C	0.862248	-0.071747	0.481257
C30	C	1.362248	0.428253	0.981257
C31	C	1.494875	-0.316726	0.447249
C32	C	1.994875	0.183274	0.947249
C33	C	1.487761	-0.408159	0.453015
C34	C	1.987761	0.091841	0.953015
C35	C	1.401460	-0.463873	0.522919
C36	C	1.901460	0.036127	1.022919
C37	C	1.322260	-0.428150	0.587049
C38	C	1.822260	0.071850	1.087049
C39	C	1.329369	-0.336718	0.581274
C40	C	1.829369	0.163282	1.081274
C41	C	1.375851	-0.740438	0.543700
C42	C	1.875851	-0.240438	1.043700
C43	C	1.368750	-0.831876	0.549473
C44	C	1.868750	-0.331876	1.049473
C45	C	1.534250	-0.811878	0.415437
C46	C	2.034250	-0.311878	0.915437
C47	C	1.541357	-0.720447	0.409675
C48	C	2.041357	-0.220447	0.909675
C49	C	1.462152	-0.684730	0.473800
C50	C	1.962152	-0.184730	0.973800
C51	C	1.394189	-0.557333	0.528818
C52	C	1.894189	-0.057333	1.028818
C53	C	1.469418	-0.591271	0.467892
C54	C	1.969418	-0.091271	0.967892
C55	C	1.653532	-0.080442	0.539554
C56	C	2.153532	0.419558	1.039554
C57	C	1.788134	-0.085370	0.572647
C58	C	2.288134	0.414630	1.072647
C59	C	1.441445	-0.040205	0.269651
C60	C	1.941445	0.459795	0.769651
C61	C	1.439529	-0.019234	0.129012
C62	C	1.939529	0.480766	0.629012
N63	N	1.447942	0.132406	0.485345
N64	N	1.947942	0.632406	0.985345
C65	C	1.430816	-0.063467	-0.074313
C66	C	1.930816	0.436533	0.425687
C67	C	1.432800	-0.085139	0.071046
C68	C	1.932800	0.414861	0.571046
C69	C	1.422171	-0.108396	0.727078
C70	C	1.922171	0.391604	1.227078
C71	C	1.424087	-0.129362	0.867717
C72	C	1.924087	0.370638	1.367717
H73	H	0.822716	-0.056287	0.377699
H74	H	1.322716	0.443713	0.877699
H75	H	1.443826	0.053230	0.071036
H76	H	1.943826	0.553230	0.571036
H77	H	1.251986	-0.473517	0.643960
H78	H	1.751986	0.026483	1.143960
H79	H	1.264881	-0.307638	0.633493
H80	H	1.764881	0.192362	1.133493
C81	C	1.299222	-0.618610	0.605659
C82	C	1.799222	-0.118610	1.105659
H83	H	1.253054	-0.584244	0.643009
H84	H	1.753054	-0.084244	1.143009
H85	H	1.339841	-0.663602	0.670390
H86	H	1.839841	-0.163602	1.170390
H87	H	1.246149	-0.645777	0.550951
H88	H	1.746149	-0.145777	1.050951
C89	C	0.841527	-0.106220	0.712544
C90	C	1.341527	0.393780	1.212544
H91	H	0.928026	-0.106905	0.717182
H92	H	1.428026	0.393095	1.217182
H93	H	0.810802	-0.162957	0.756572
H94	H	1.310802	0.337043	1.256572
H95	H	0.818709	-0.061644	0.750178
H96	H	1.318709	0.438356	1.250178
H97	H	1.419802	-0.201821	-0.074300
H98	H	1.919802	0.298179	0.425700
H99	H	1.035945	-0.047767	0.320531
H100	H	1.535945	0.452233	0.820531
C101	C	1.427001	-0.183033	0.149353
C102	C	1.927001	0.316967	0.649353
H103	H	1.422531	-0.221564	0.094134
H104	H	1.922531	0.278436	0.594134
H105	H	1.356755	-0.193006	0.194674
H106	H	1.856755	0.306994	0.694674
H107	H	1.498162	-0.194924	0.207549
H108	H	1.998162	0.305076	0.707549
H109	H	1.611629	-0.675085	0.352754
H110	H	2.111629	-0.175085	0.852754
H111	H	1.565155	-0.271369	0.390332
H112	H	2.065155	0.228631	0.890332
H113	H	1.435114	0.008992	-0.132294
H114	H	1.935114	0.508992	0.367706
H115	H	1.552244	-0.437239	0.400796
H116	H	2.052244	0.062761	0.900796
C117	C	1.054768	-0.097699	0.655348
C118	C	1.554768	0.402301	1.155348
H119	H	1.141266	-0.098385	0.659983
H120	H	1.641266	0.401615	1.159983
H121	H	1.024043	-0.154437	0.699374
H122	H	1.524043	0.345563	1.199374
H123	H	1.031953	-0.053125	0.692988
H124	H	1.531953	0.446875	1.192988
H125	H	1.598734	-0.840967	0.363228
H126	H	2.098734	-0.340967	0.863228
H127	H	1.298470	-0.877237	0.606402
H128	H	1.798470	-0.377237	1.106402
H129	H	1.539680	-0.545905	0.410971
H130	H	2.039680	-0.045905	0.910971
H131	H	1.311361	-0.711366	0.595916
H132	H	1.811361	-0.211366	1.095916
