data_functionalizedCrystal
_audit_creation_method	'MofGen! by Chris Wilmer'
_symmetry_space_group_name_H-M	'P1'
_symmetry_Int_Tables_number	1
_symmetry_cell_setting	triclinic
loop_
_symmetry_equiv_pos_as_xyz
  x,y,z
_cell_length_a	8.597366
_cell_length_b	17.666332
_cell_length_c	8.559649
_cell_angle_alpha	90.004105
_cell_angle_beta	77.624636
_cell_angle_gamma	82.307280
loop_
_atom_site_label
_atom_site_type_symbol
_atom_site_fract_x
_atom_site_fract_y
_atom_site_fract_z
O1	O	2.053694	-0.071000	0.238021
O2	O	1.594573	-0.041054	0.256287
O3	O	1.864583	-0.058666	0.015184
O4	O	1.783685	-0.053388	0.479125
O5	O	1.864541	-0.184560	0.015176
O6	O	1.594532	-0.166948	0.256279
O7	O	2.053653	-0.196894	0.238014
Cu8	Cu	1.824088	-0.193416	0.247146
Cu9	Cu	1.824138	-0.044532	0.247155
O10	O	1.783643	-0.179282	0.479117
C11	C	1.536319	-0.100203	0.254323
C12	C	1.362804	-0.088886	0.248461
N13	N	1.824065	-0.298134	0.247138
C14	C	1.907387	-0.343172	0.345415
C15	C	1.907413	-0.422421	0.345410
C16	C	1.824085	-0.456627	0.247148
C17	C	1.740760	-0.411580	0.148852
C18	C	1.740750	-0.332333	0.148847
N19	N	1.687408	-0.572152	0.240650
N20	N	1.687421	-0.647434	0.240664
C21	C	1.824113	-0.695393	0.247154
N22	N	1.960790	-0.665228	0.253661
N23	N	1.960775	-0.589939	0.253656
C24	C	1.824088	-0.542557	0.247141
C25	C	1.907470	-0.826362	0.345431
C26	C	1.907500	-0.905614	0.345415
C27	C	1.740832	-0.894770	0.148866
C28	C	1.740818	-0.815522	0.148873
C29	C	1.824133	-0.781322	0.247164
C30	C	2.111907	-0.137743	0.239978
C31	C	2.285422	-0.149056	0.245839
C32	C	1.870693	-0.122011	-0.044254
C33	C	1.888941	-0.123197	-0.221350
N34	N	1.824174	0.060185	0.247150
C35	C	1.777533	-0.115935	0.538555
C36	C	1.759285	-0.114744	0.715650
H37	H	1.296314	-0.028709	0.246210
H38	H	1.975312	-0.798516	0.425464
C39	C	1.375246	-0.230358	0.248902
N40	N	1.442900	-0.291593	0.251221
C41	C	1.999057	-0.305558	0.453520
N42	N	2.068111	-0.277227	0.534940
C43	C	1.999076	-0.471972	0.453526
N44	N	2.068116	-0.509291	0.534961
C45	C	1.649075	-0.282789	0.040741
N46	N	1.580018	-0.245471	-0.040682
H47	H	1.672987	-0.922620	0.068857
C48	C	1.649094	-0.449208	0.040768
N49	N	1.580051	-0.477550	-0.040647
C50	C	2.057778	-0.134214	-0.331521
N51	N	2.184943	-0.142510	-0.414503
H52	H	1.975363	-0.942283	0.425439
C53	C	1.649137	-0.765977	0.040776
N54	N	1.580079	-0.728660	-0.040648
H55	H	1.634319	-0.106595	-0.202804
