data_functionalizedCrystal
_audit_creation_method	'MofGen! by Chris Wilmer'
_symmetry_space_group_name_H-M	'P1'
_symmetry_Int_Tables_number	1
_symmetry_cell_setting	triclinic
loop_
_symmetry_equiv_pos_as_xyz
  x,y,z
_cell_length_a	18.050590
_cell_length_b	18.050591
_cell_length_c	16.625539
_cell_angle_alpha	89.976914
_cell_angle_beta	90.014297
_cell_angle_gamma	90.007285
loop_
_atom_site_label
_atom_site_type_symbol
_atom_site_fract_x
_atom_site_fract_y
_atom_site_fract_z
Zn1	Zn	0.295751	1.135471	-0.456107
Zn2	Zn	0.545751	1.385471	-0.206107
Zn3	Zn	0.795751	1.635471	0.043893
Zn4	Zn	1.045751	1.885471	0.293893
Zn5	Zn	0.419944	1.135445	-0.321303
Zn6	Zn	0.669944	1.385445	-0.071303
Zn7	Zn	0.919944	1.635445	0.178697
Zn8	Zn	1.169944	1.885445	0.428697
Zn9	Zn	0.295764	1.011286	-0.321273
Zn10	Zn	0.545764	1.261286	-0.071273
Zn11	Zn	0.795764	1.511286	0.178727
Zn12	Zn	1.045764	1.761286	0.428727
Zn13	Zn	0.419895	1.011307	-0.456079
Zn14	Zn	0.669895	1.261307	-0.206079
Zn15	Zn	0.919895	1.511307	0.043921
Zn16	Zn	1.169895	1.761307	0.293921
O17	O	0.357839	1.073377	-0.388691
O18	O	0.607839	1.323377	-0.138691
O19	O	0.857839	1.573377	0.111309
O20	O	1.107839	1.823377	0.361309
O21	O	0.312241	1.239392	-0.438249
O22	O	0.562241	1.489392	-0.188249
O23	O	0.812241	1.739392	0.061751
O24	O	1.062241	1.989392	0.311751
O25	O	0.403498	1.118956	-0.208467
O26	O	0.653498	1.368956	0.041533
O27	O	0.903498	1.618956	0.291533
O28	O	1.153498	1.868956	0.541533
O29	O	0.191838	1.027761	-0.339159
O30	O	0.441838	1.277761	-0.089159
O31	O	0.691838	1.527761	0.160841
O32	O	0.941838	1.777761	0.410841
O33	O	0.403485	1.239373	-0.339209
O34	O	0.653485	1.489373	-0.089209
O35	O	0.903485	1.739373	0.160791
O36	O	1.153485	1.989373	0.410791
O37	O	0.191828	1.119000	-0.438221
O38	O	0.441828	1.369000	-0.188221
O39	O	0.691828	1.619000	0.061779
O40	O	0.941828	1.869000	0.311779
O41	O	0.312263	1.027736	-0.208445
O42	O	0.562263	1.277736	0.041555
O43	O	0.812263	1.527736	0.291555
O44	O	1.062263	1.777736	0.541555
O45	O	0.312215	0.907364	-0.339131
O46	O	0.562215	1.157364	-0.089131
O47	O	0.812215	1.407364	0.160869
O48	O	1.062215	1.657364	0.410869
O49	O	0.403401	1.027797	-0.568915
O50	O	0.653401	1.277797	-0.318915
O51	O	0.903401	1.527797	-0.068915
O52	O	1.153401	1.777797	0.181085
O53	O	0.403413	0.907379	-0.438172
O54	O	0.653413	1.157379	-0.188172
O55	O	0.903413	1.407379	0.061828
O56	O	1.153413	1.657379	0.311828
O57	O	0.312192	1.119020	-0.568936
O58	O	0.562192	1.369020	-0.318936
O59	O	0.812192	1.619020	-0.068936
O60	O	1.062192	1.869020	0.181064
O61	O	0.523862	1.118976	-0.339182
O62	O	0.773862	1.368976	-0.089182
O63	O	1.023862	1.618976	0.160818
O64	O	1.273862	1.868976	0.410818
O65	O	0.523826	1.027772	-0.438201
O66	O	0.773826	1.277772	-0.188201
O67	O	1.023826	1.527772	0.061799
O68	O	1.273826	1.777772	0.311799
C69	C	0.357811	0.880425	-0.388646
C70	C	0.607811	1.130425	-0.138646
C71	C	0.857811	1.380425	0.111354
C72	C	1.107811	1.630425	0.361354
C73	C	0.357817	0.797879	-0.388646
C74	C	0.607817	1.047879	-0.138646
C75	C	0.857817	1.297879	0.111354
C76	C	1.107817	1.547879	0.361354
C77	C	0.308166	0.598399	-0.334912
C78	C	0.558166	0.848399	-0.084912
C79	C	0.808166	1.098399	0.165088
C80	C	1.058166	1.348399	0.415088
C81	C	0.375903	0.549016	-0.315086
C82	C	0.625903	0.799016	-0.065086
C83	C	0.875903	1.049016	0.184914
C84	C	1.125903	1.299016	0.434914
C85	C	0.357839	0.646749	-0.388682
C86	C	0.607839	0.896749	-0.138682
C87	C	0.857839	1.146749	0.111318
C88	C	1.107839	1.396749	0.361318
C89	C	0.290126	0.549050	-0.408506
C90	C	0.540126	0.799050	-0.158506
C91	C	0.790126	1.049050	0.091494
C92	C	1.040126	1.299050	0.341494
C93	C	0.357855	0.500764	-0.388716
C94	C	0.607855	0.750764	-0.138716
C95	C	0.857855	1.000764	0.111284
C96	C	1.107855	1.250764	0.361284
C97	C	0.425612	0.598453	-0.368818
C98	C	0.675612	0.848453	-0.118818
C99	C	0.925612	1.098453	0.131182
C100	C	1.175612	1.348453	0.381182
C101	C	0.339789	0.598492	-0.462273
C102	C	0.589789	0.848492	-0.212273
C103	C	0.839789	1.098492	0.037727
C104	C	1.089789	1.348492	0.287727
C105	C	0.407573	0.549131	-0.442475
C106	C	0.657573	0.799131	-0.192475
C107	C	0.907573	1.049131	0.057525
C108	C	1.157573	1.299131	0.307525
C109	C	0.357829	0.730847	-0.388661
C110	C	0.607829	0.980847	-0.138661
C111	C	0.857829	1.230847	0.111339
C112	C	1.107829	1.480847	0.361339
C113	C	0.357873	0.416667	-0.388738
C114	C	0.607873	0.666667	-0.138738
C115	C	0.857873	0.916667	0.111262
C116	C	1.107873	1.166667	0.361262
C117	C	0.164133	1.073381	-0.388690
C118	C	0.414133	1.323381	-0.138690
C119	C	0.664133	1.573381	0.111310
C120	C	0.914133	1.823381	0.361310
C121	C	0.081587	1.073382	-0.388689
C122	C	0.331587	1.323382	-0.138689
C123	C	0.581587	1.573382	0.111311
C124	C	0.831587	1.823382	0.361311
C125	C	-0.117858	1.023798	-0.334835
C126	C	0.132142	1.273798	-0.084835
C127	C	0.382142	1.523798	0.165165
C128	C	0.632142	1.773798	0.415165
C129	C	-0.167263	1.005653	-0.408398
C130	C	0.082737	1.255653	-0.158398
C131	C	0.332737	1.505653	0.091602
C132	C	0.582737	1.755653	0.341602
C133	C	-0.069543	1.073411	-0.388710
C134	C	0.180457	1.323411	-0.138710
C135	C	0.430457	1.573411	0.111290
C136	C	0.680457	1.823411	0.361290
C137	C	-0.167220	1.091549	-0.315167
C138	C	0.082780	1.341549	-0.065167
C139	C	0.332780	1.591549	0.184833
C140	C	0.582780	1.841549	0.434833
C141	C	-0.215528	1.073438	-0.388722
C142	C	0.034472	1.323438	-0.138722
C143	C	0.284472	1.573438	0.111278
C144	C	0.534472	1.823438	0.361278
C145	C	-0.117861	1.055231	-0.462312
C146	C	0.132139	1.305231	-0.212312
C147	C	0.382139	1.555231	0.037688
C148	C	0.632139	1.805231	0.287688
C149	C	-0.117814	1.141159	-0.369031
C150	C	0.132186	1.391159	-0.119031
C151	C	0.382186	1.641159	0.130969
C152	C	0.632186	1.891159	0.380969
C153	C	-0.167196	1.123040	-0.442645
C154	C	0.082804	1.373040	-0.192645
C155	C	0.332804	1.623040	0.057355
C156	C	0.582804	1.873040	0.307355
C157	C	0.014555	1.073394	-0.388701
C158	C	0.264555	1.323394	-0.138701
C159	C	0.514555	1.573394	0.111299
C160	C	0.764555	1.823394	0.361299
C161	C	-0.299625	1.073455	-0.388739
C162	C	-0.049625	1.323455	-0.138739
C163	C	0.200375	1.573455	0.111261
C164	C	0.450375	1.823455	0.361261
C165	C	0.550791	1.073394	-0.388709
C166	C	0.800791	1.323394	-0.138709
C167	C	1.050791	1.573394	0.111291
C168	C	1.300791	1.823394	0.361291
C169	C	0.633336	1.073469	-0.388744
C170	C	0.883336	1.323469	-0.138744
C171	C	1.133336	1.573469	0.111256
C172	C	1.383336	1.823469	0.361256
C173	C	0.357790	1.073414	-0.599000
C174	C	0.607790	1.323414	-0.349000
C175	C	0.857790	1.573414	-0.099000
C176	C	1.107790	1.823414	0.151000
C177	C	0.357769	1.073429	-0.688621
C178	C	0.607769	1.323429	-0.438621
C179	C	0.857769	1.573429	-0.188621
C180	C	1.107769	1.823429	0.061379
C181	C	0.357867	1.267083	-0.388736
C182	C	0.607867	1.517083	-0.138736
C183	C	0.857867	1.767083	0.111264
C184	C	1.107867	2.017083	0.361264
C185	C	0.357879	1.349629	-0.388755
C186	C	0.607879	1.599629	-0.138755
C187	C	0.857879	1.849629	0.111245
C188	C	1.107879	2.099629	0.361245
C189	C	0.357752	1.073441	-0.761403
C190	C	0.607752	1.323441	-0.511403
C191	C	0.857752	1.573441	-0.261403
C192	C	1.107752	1.823441	-0.011403
C193	C	0.357725	1.073458	-0.852712
C194	C	0.607725	1.323458	-0.602712
C195	C	0.857725	1.573458	-0.352712
C196	C	1.107725	1.823458	-0.102712
C197	C	0.357698	1.073476	-0.925488
C198	C	0.607698	1.323476	-0.675488
C199	C	0.857698	1.573476	-0.425488
C200	C	1.107698	1.823476	-0.175488
C201	C	0.357672	1.073494	-1.016803
C202	C	0.607672	1.323494	-0.766803
C203	C	0.857672	1.573494	-0.516803
C204	C	1.107672	1.823494	-0.266803
C205	C	0.357834	1.073384	-0.179200
C206	C	0.607834	1.323384	0.070800
C207	C	0.857834	1.573384	0.320800
C208	C	1.107834	1.823384	0.570800
C209	C	0.357645	1.073512	-0.089579
C210	C	0.607645	1.323512	0.160421
C211	C	0.857645	1.573512	0.410421
C212	C	1.107645	1.823512	0.660421
H213	H	0.449636	0.527635	-0.487962
H214	H	0.699636	0.777635	-0.237962
H215	H	0.949636	1.027635	0.012038
H216	H	1.199636	1.277635	0.262038
H217	H	-0.096270	1.039835	-0.524529
H218	H	0.153730	1.289835	-0.274529
H219	H	0.403730	1.539835	-0.024529
H220	H	0.653730	1.789835	0.225471
H221	H	0.391182	0.527284	-0.252866
H222	H	0.641182	0.777284	-0.002866
H223	H	0.891182	1.027284	0.247134
H224	H	1.141182	1.277284	0.497134
H225	H	-0.188983	0.948371	-0.425054
H226	H	0.061017	1.198371	-0.175054
H227	H	0.311017	1.448371	0.074946
H228	H	0.561017	1.698371	0.324946
H229	H	-0.188723	1.165008	-0.488263
H230	H	0.061277	1.415008	-0.238263
H231	H	0.311277	1.665008	0.011737
H232	H	0.561277	1.915008	0.261737
H233	H	0.482901	0.620062	-0.351996
H234	H	0.732901	0.870062	-0.101996
H235	H	0.982901	1.120062	0.148004
H236	H	1.232901	1.370062	0.398004
H237	H	0.232862	0.527312	-0.425231
H238	H	0.482862	0.777312	-0.175231
H239	H	0.732862	1.027312	0.074769
H240	H	0.982862	1.277312	0.324769
O241	O	-0.091909	1.209452	-0.348998
O242	O	0.158091	1.459452	-0.098998
O243	O	0.408091	1.709452	0.151002
O244	O	0.658091	1.959452	0.401002
C245	C	-0.117029	1.228357	-0.271381
C246	C	0.132971	1.478357	-0.021381
C247	C	0.382971	1.728357	0.228619
C248	C	0.632971	1.978357	0.478619
H249	H	-0.130912	1.175727	-0.236583
H250	H	0.119088	1.425727	0.013417
H251	H	0.369088	1.675727	0.263417
H252	H	0.619088	1.925727	0.513417
H253	H	-0.071805	1.260233	-0.238312
H254	H	0.178195	1.510233	0.011688
H255	H	0.428195	1.760233	0.261688
H256	H	0.678195	2.010233	0.511688
H257	H	-0.168679	1.264396	-0.276482
H258	H	0.081321	1.514396	-0.026482
H259	H	0.331321	1.764396	0.223518
H260	H	0.581321	2.014396	0.473518
O261	O	-0.192981	1.109769	-0.240902
O262	O	0.057019	1.359769	0.009098
O263	O	0.307019	1.609769	0.259098
O264	O	0.557019	1.859769	0.509098
C265	C	-0.167848	1.057294	-0.184294
C266	C	0.082152	1.307294	0.065706
C267	C	0.332152	1.557294	0.315706
C268	C	0.582152	1.807294	0.565706
H269	H	-0.115872	1.028987	-0.208186
H270	H	0.134128	1.278987	0.041814
H271	H	0.384128	1.528987	0.291814
H272	H	0.634128	1.778987	0.541814
H273	H	-0.154496	1.086406	-0.125203
H274	H	0.095504	1.336406	0.124797
H275	H	0.345504	1.586406	0.374797
H276	H	0.595504	1.836406	0.624797
H277	H	-0.212852	1.014059	-0.173715
H278	H	0.037148	1.264059	0.076285
H279	H	0.287148	1.514059	0.326285
H280	H	0.537148	1.764059	0.576285
H281	H	0.324490	0.620241	-0.524474
H282	H	0.574490	0.870241	-0.274474
H283	H	0.824490	1.120241	-0.024474
H284	H	1.074490	1.370241	0.225526
O285	O	0.258188	0.624177	-0.280500
O286	O	0.508188	0.874177	-0.030500
O287	O	0.758188	1.124177	0.219500
O288	O	1.008188	1.374177	0.469500
C289	C	0.277499	0.598947	-0.203012
C290	C	0.527499	0.848947	0.046988
C291	C	0.777499	1.098947	0.296988
C292	C	1.027499	1.348947	0.546988
H293	H	0.339100	0.585110	-0.201389
H294	H	0.589100	0.835110	0.048611
H295	H	0.839100	1.085110	0.298611
H296	H	1.089100	1.335110	0.548611
H297	H	0.265049	0.644087	-0.157024
H298	H	0.515049	0.894087	0.092976
H299	H	0.765049	1.144087	0.342976
H300	H	1.015049	1.394087	0.592976
H301	H	0.243964	0.547246	-0.187964
H302	H	0.493964	0.797246	0.062036
H303	H	0.743964	1.047246	0.312036
H304	H	0.993964	1.297246	0.562036
O305	O	-0.092040	0.973596	-0.280636
O306	O	0.157960	1.223596	-0.030636
O307	O	0.407960	1.473596	0.219364
O308	O	0.657960	1.723596	0.469364
C309	C	-0.117254	0.902257	-0.301687
C310	C	0.132746	1.152257	-0.051687
C311	C	0.382746	1.402257	0.198313
C312	C	0.632746	1.652257	0.448313
H313	H	-0.131120	0.900871	-0.368568
H314	H	0.118880	1.150871	-0.118568
H315	H	0.368880	1.400871	0.131432
H316	H	0.618880	1.650871	0.381432
H317	H	-0.072093	0.859881	-0.288227
H318	H	0.177907	1.109881	-0.038227
H319	H	0.427907	1.359881	0.211773
H320	H	0.677907	1.609881	0.461773
H321	H	-0.168935	0.888333	-0.265289
H322	H	0.081065	1.138333	-0.015289
H323	H	0.331065	1.388333	0.234711
H324	H	0.581065	1.638333	0.484711
