data_functionalizedCrystal
_audit_creation_method	'MofGen! by Chris Wilmer'
_symmetry_space_group_name_H-M	'P1'
_symmetry_Int_Tables_number	1
_symmetry_cell_setting	triclinic
loop_
_symmetry_equiv_pos_as_xyz
  x,y,z
_cell_length_a	25.639239
_cell_length_b	18.215407
_cell_length_c	18.215399
_cell_angle_alpha	90.018561
_cell_angle_beta	89.969965
_cell_angle_gamma	89.969578
loop_
_atom_site_label
_atom_site_type_symbol
_atom_site_fract_x
_atom_site_fract_y
_atom_site_fract_z
Zn1	Zn	-0.208271	-1.125001	-0.416080
Zn2	Zn	0.291729	-0.625001	0.083920
Zn3	Zn	-0.295707	-1.124880	-0.293009
Zn4	Zn	0.204293	-0.624880	0.206991
Zn5	Zn	-0.208275	-1.001934	-0.293030
Zn6	Zn	0.291725	-0.501934	0.206970
Zn7	Zn	-0.295665	-1.001870	-0.416037
Zn8	Zn	0.204335	-0.501870	0.083963
O9	O	-0.251980	-1.063421	-0.354539
O10	O	0.248020	-0.563421	0.145461
O11	O	-0.219886	-1.227969	-0.399764
O12	O	0.280114	-0.727969	0.100236
O13	O	-0.284129	-1.108547	-0.190028
O14	O	0.215871	-0.608547	0.309972
O15	O	-0.135110	-1.018336	-0.309380
O16	O	0.364890	-0.518336	0.190620
O17	O	-0.284125	-1.227880	-0.309344
O18	O	0.215875	-0.727880	0.190656
O19	O	-0.135107	-1.108754	-0.399784
O20	O	0.364893	-0.608754	0.100216
O21	O	-0.219893	-1.018219	-0.190043
O22	O	0.280107	-0.518219	0.309957
O23	O	-0.219852	-0.898941	-0.309338
O24	O	0.280148	-0.398941	0.190662
O25	O	-0.284053	-1.018228	-0.519027
O26	O	0.215947	-0.518228	-0.019027
O27	O	-0.284056	-0.898894	-0.399711
O28	O	0.215944	-0.398894	0.100289
O29	O	-0.219845	-1.108692	-0.519059
O30	O	0.280155	-0.608692	-0.019059
O31	O	-0.368867	-1.108485	-0.309302
O32	O	0.131133	-0.608485	0.190698
O33	O	-0.368836	-1.018110	-0.399690
O34	O	0.131164	-0.518110	0.100310
C35	C	-0.251950	-0.872215	-0.354522
C36	C	0.248050	-0.372215	0.145478
C37	C	-0.251950	-0.790416	-0.354533
C38	C	0.248050	-0.290416	0.145467
C39	C	-0.218577	-0.525399	-0.401689
C40	C	0.281423	-0.025399	0.098311
C41	C	-0.218571	-0.602258	-0.401687
C42	C	0.281429	-0.102258	0.098313
C43	C	-0.285366	-0.602185	-0.307393
C44	C	0.214634	-0.102185	0.192607
C45	C	-0.285374	-0.525327	-0.307398
C46	C	0.214626	-0.025327	0.192602
C47	C	-0.251976	-0.486937	-0.354545
C48	C	0.248024	0.013063	0.145455
C49	C	-0.251962	-0.640653	-0.354538
C50	C	0.248038	-0.140653	0.145462
C51	C	-0.251956	-0.723986	-0.354536
C52	C	0.248044	-0.223986	0.145464
C53	C	-0.251983	-0.403598	-0.354548
C54	C	0.248017	0.096402	0.145452
C55	C	-0.387822	-1.063298	-0.354505
C56	C	0.112178	-0.563298	0.145495
C57	C	-0.445936	-1.063312	-0.354516
C58	C	0.054064	-0.563312	0.145484
C59	C	-0.806303	-1.110602	-0.307554
C60	C	-0.306303	-0.610602	0.192446
C61	C	-0.860907	-1.110631	-0.307564
C62	C	-0.360907	-0.610631	0.192436
O63	O	-0.889147	-1.150710	-0.267599
O64	O	-0.389147	-0.650710	0.232401
N65	N	-0.888219	-1.063551	-0.354588
N66	N	-0.388219	-0.563551	0.145412
C67	C	-0.860923	-1.016444	-0.401610
C68	C	-0.360923	-0.516444	0.098390
O69	O	-0.889168	-0.976402	-0.441609
O70	O	-0.389168	-0.476402	0.058391
C71	C	-0.806320	-1.016420	-0.401603
C72	C	-0.306320	-0.516420	0.098397
C73	C	-0.779011	-1.063498	-0.354571
C74	C	-0.279011	-0.563498	0.145429
C75	C	-0.778994	-1.157677	-0.260527
C76	C	-0.278994	-0.657677	0.239473
C77	C	-0.724394	-1.157647	-0.260516
C78	C	-0.224394	-0.657647	0.239484
C79	C	-0.697102	-1.110543	-0.307533
C80	C	-0.197102	-0.610543	0.192467
C81	C	-0.724411	-1.063468	-0.354561
C82	C	-0.224411	-0.563468	0.145439
C83	C	-0.779025	-0.969318	-0.448629
C84	C	-0.279025	-0.469318	0.051371
C85	C	-0.724418	-0.969298	-0.448618
C86	C	-0.224418	-0.469298	0.051382
C87	C	-0.697109	-1.016376	-0.401586
C88	C	-0.197109	-0.516376	0.098414
C89	C	-0.642518	-1.016334	-0.401567
C90	C	-0.142518	-0.516334	0.098433
N91	N	-0.615207	-1.063414	-0.354543
N92	N	-0.115207	-0.563414	0.145457
C93	C	-0.642499	-1.110519	-0.307526
C94	C	-0.142499	-0.610519	0.192474
C95	C	-0.975594	-1.016500	-0.401621
C96	C	-0.475594	-0.516500	0.098379
C97	C	-1.030196	-1.016520	-0.401625
C98	C	-0.530196	-0.516520	0.098375
C99	C	-1.030177	-1.110707	-0.307580
C100	C	-0.530177	-0.610707	0.192420
C101	C	-0.975573	-1.110683	-0.307573
C102	C	-0.475573	-0.610683	0.192427
C103	C	-0.948282	-1.063580	-0.354598
C104	C	-0.448282	-0.563580	0.145402
C105	C	-0.527834	-1.110452	-0.307507
C106	C	-0.027834	-0.610452	0.192493
C107	C	-0.473228	-1.110416	-0.307499
C108	C	0.026772	-0.610416	0.192501
C109	C	-0.473253	-1.016232	-0.401546
C110	C	0.026747	-0.516232	0.098454
C111	C	-0.527853	-1.016265	-0.401552
C112	C	-0.027853	-0.516265	0.098448
C113	C	-0.555142	-1.063381	-0.354530
C114	C	-0.055142	-0.563381	0.145470
O115	O	-0.614244	-0.976277	-0.441514
O116	O	-0.114244	-0.476277	0.058486
O117	O	-0.614248	-1.150561	-0.267541
O118	O	-0.114248	-0.650561	0.232459
C119	C	-0.115607	-1.063566	-0.354589
C120	C	0.384393	-0.563566	0.145411
C121	C	-0.057493	-1.063627	-0.354610
C122	C	0.442507	-0.563627	0.145390
C123	C	-0.251944	-1.063466	-0.546492
C124	C	0.248056	-0.563466	-0.046492
C125	C	-0.251928	-1.063485	-0.628291
C126	C	0.248072	-0.563485	-0.128291
C127	C	-0.252001	-0.255374	-0.354553
C128	C	0.247999	0.244626	0.145447
C129	C	-0.251988	-0.337173	-0.354551
C130	C	0.248012	0.162827	0.145449
C131	C	-0.218464	-1.110607	-0.816503
C132	C	0.281536	-0.610607	-0.316503
C133	C	-0.218449	-1.110616	-0.893362
C134	C	0.281551	-0.610616	-0.393362
C135	C	-0.285312	-1.016416	-0.893317
C136	C	0.214688	-0.516416	-0.393317
C137	C	-0.285324	-1.016404	-0.816460
C138	C	0.214676	-0.516404	-0.316460
C139	C	-0.251901	-1.063504	-0.778055
C140	C	0.248099	-0.563504	-0.278055
C141	C	-0.251874	-1.063524	-0.931771
C142	C	0.248126	-0.563524	-0.431771
C143	C	-0.251857	-1.063533	-1.015105
C144	C	0.248143	-0.563533	-0.515105
C145	C	-0.251916	-1.063494	-0.694716
C146	C	0.248084	-0.563494	-0.194716
C147	C	-0.251978	-1.063419	-0.163333
C148	C	0.248022	-0.563419	0.336667
C149	C	-0.251846	-1.063543	-0.081534
C150	C	0.248154	-0.563543	0.418466
H151	H	-0.191374	-0.633571	-0.440077
H152	H	0.308626	-0.133571	0.059923
C153	C	-1.091654	-0.917541	-0.411777
C154	C	-0.591654	-0.417541	0.088223
C155	C	-1.060210	-0.964764	-0.453318
C156	C	-0.560210	-0.464764	0.046682
H157	H	-1.110179	-0.885589	-0.443696
H158	H	-0.610179	-0.385589	0.056304
H159	H	-1.115725	-0.945597	-0.383788
H160	H	-0.615725	-0.445597	0.116212
H161	H	-1.070381	-0.889403	-0.379684
H162	H	-0.570381	-0.389403	0.120316
H163	H	-1.081484	-0.992907	-0.485408
H164	H	-0.581484	-0.492907	0.014592
H165	H	-1.036136	-0.936705	-0.481320
H166	H	-0.536136	-0.436705	0.018680
H167	H	-0.702162	-1.195984	-0.222221
H168	H	-0.202162	-0.695984	0.277779
H169	H	-0.191382	-0.494144	-0.440078
H170	H	0.308618	0.005856	0.059922
H171	H	-0.312525	-0.978071	-0.924596
H172	H	0.187475	-0.478071	-0.424596
C173	C	-0.351422	-0.923296	-0.824130
C174	C	0.148578	-0.423296	-0.324130
C175	C	-0.322083	-0.964627	-0.774192
C176	C	0.177917	-0.464627	-0.274192
H177	H	-0.374115	-0.891335	-0.798034
H178	H	0.125885	-0.391335	-0.298034
H179	H	-0.328635	-0.895172	-0.854110
H180	H	0.171365	-0.395172	-0.354110
H181	H	-0.371420	-0.955352	-0.854106
H182	H	0.128580	-0.455352	-0.354106
H183	H	-0.302082	-0.932571	-0.744219
H184	H	0.197918	-0.432571	-0.244219
H185	H	-0.344873	-0.992753	-0.744199
H186	H	0.155127	-0.492753	-0.244199
H187	H	-1.052407	-1.149065	-0.269298
H188	H	-0.552407	-0.649065	0.230702
H189	H	-0.801250	-0.930978	-0.486924
H190	H	-0.301250	-0.430978	0.013076
H191	H	-0.312575	-0.494010	-0.269008
H192	H	0.187425	0.005990	0.230992
C193	C	-0.315007	-0.719970	-0.265508
C194	C	0.184993	-0.219970	0.234492
C195	C	-0.322069	-0.644386	-0.255563
C196	C	0.177931	-0.144386	0.244437
H197	H	-0.337665	-0.746020	-0.233505
H198	H	0.162335	-0.246020	0.266495
H199	H	-0.322703	-0.732579	-0.314928
H200	H	0.177297	-0.232579	0.185072
H201	H	-0.279865	-0.732570	-0.254824
H202	H	0.220135	-0.232570	0.245176
H203	H	-0.357211	-0.631785	-0.266253
H204	H	0.142789	-0.131785	0.233747
H205	H	-0.314377	-0.631772	-0.206132
H206	H	0.185623	-0.131772	0.293868
C207	C	-0.478702	-1.203524	-0.214540
C208	C	0.021298	-0.703524	0.285460
C209	C	-0.443211	-1.162171	-0.255801
C210	C	0.056789	-0.662171	0.244199
H211	H	-0.460171	-1.235478	-0.182630
H212	H	0.039829	-0.735478	0.317370
H213	H	-0.500032	-1.171487	-0.186367
H214	H	-0.000032	-0.671487	0.313633
H215	H	-0.499967	-1.231663	-0.246644
H216	H	0.000033	-0.731663	0.253356
H217	H	-0.421949	-1.134028	-0.223697
H218	H	0.078051	-0.634028	0.276303
H219	H	-0.421873	-1.194212	-0.283976
H220	H	0.078127	-0.694212	0.216024
C221	C	-0.707578	-0.933375	-0.573207
C222	C	-0.207578	-0.433375	-0.073207
C223	C	-0.694420	-0.917520	-0.500311
C224	C	-0.194420	-0.417520	-0.000311
H225	H	-0.689061	-0.901407	-0.605117
H226	H	-0.189061	-0.401407	-0.105117
H227	H	-0.698590	-0.982806	-0.584010
H228	H	-0.198590	-0.482806	-0.084010
H229	H	-0.744008	-0.926655	-0.579931
H230	H	-0.244008	-0.426655	-0.079931
H231	H	-0.657991	-0.924246	-0.493585
H232	H	-0.157991	-0.424246	0.006415
H233	H	-0.703405	-0.868078	-0.489504
H234	H	-0.203405	-0.368078	0.010496
C235	C	-0.589157	-1.209514	-0.297383
C236	C	-0.089157	-0.709514	0.202617
C237	C	-0.557818	-1.162254	-0.255825
C238	C	-0.057818	-0.662254	0.244175
H239	H	-0.607664	-1.241497	-0.265475
H240	H	-0.107664	-0.741497	0.234525
H241	H	-0.613244	-1.181487	-0.325374
H242	H	-0.113244	-0.681487	0.174626
H243	H	-0.567815	-1.237617	-0.329475
H244	H	-0.067815	-0.737617	0.170525
H245	H	-0.579162	-1.134147	-0.223736
H246	H	-0.079162	-0.634147	0.276264
H247	H	-0.533729	-1.190284	-0.227821
H248	H	-0.033729	-0.690284	0.272179
H249	H	-0.953342	-1.149018	-0.269276
H250	H	-0.453342	-0.649018	0.230724
C251	C	-0.773476	-1.250761	-0.167561
C252	C	-0.273476	-0.750761	0.332439
C253	C	-0.808987	-1.209456	-0.208835
C254	C	-0.308987	-0.709456	0.291165
H255	H	-0.791991	-1.282723	-0.135641
H256	H	-0.291991	-0.782723	0.364359
H257	H	-0.752152	-1.278883	-0.199651
H258	H	-0.252152	-0.778883	0.300349
H259	H	-0.752208	-1.218689	-0.139391
H260	H	-0.252208	-0.718689	0.360609
H261	H	-0.830253	-1.241528	-0.237009
H262	H	-0.330253	-0.741528	0.262991
H263	H	-0.830321	-1.181332	-0.176741
H264	H	-0.330321	-0.681332	0.323259
C265	C	-0.914158	-1.006171	-0.500608
C266	C	-0.414158	-0.506171	-0.000608
C267	C	-0.945598	-0.964711	-0.453309
C268	C	-0.445598	-0.464711	0.046691
H269	H	-0.895645	-0.974198	-0.532520
H270	H	-0.395645	-0.474198	-0.032520
H271	H	-0.890076	-1.034195	-0.472605
H272	H	-0.390076	-0.534195	0.027395
H273	H	-0.935432	-1.038228	-0.528786
H274	H	-0.435432	-0.538228	-0.028786
H275	H	-0.924323	-0.932658	-0.425126
H276	H	-0.424323	-0.432658	0.074874
H277	H	-0.969682	-0.936674	-0.481315
H278	H	-0.469682	-0.436674	0.018685
C279	C	-0.522385	-0.923166	-0.494515
C280	C	-0.022385	-0.423166	0.005485
C281	C	-0.557874	-0.964517	-0.453250
C282	C	-0.057874	-0.464517	0.046750
H283	H	-0.540917	-0.891227	-0.526439
H284	H	-0.040917	-0.391227	-0.026439
H285	H	-0.501127	-0.895019	-0.462421
H286	H	-0.001127	-0.395019	0.037579
H287	H	-0.501048	-0.955211	-0.522682
H288	H	-0.001048	-0.455211	-0.022682
H289	H	-0.579208	-0.932472	-0.425079
H290	H	-0.079208	-0.432472	0.074921
H291	H	-0.579141	-0.992666	-0.485349
H292	H	-0.079141	-0.492666	0.014651
H293	H	-0.451023	-0.977877	-0.439825
H294	H	0.048977	-0.477877	0.060175
H295	H	-0.191248	-1.148956	-0.785236
H296	H	0.308752	-0.648956	-0.285236
H297	H	-0.191220	-1.148971	-0.924663
H298	H	0.308780	-0.648971	-0.424663
