data_functionalizedCrystal
_audit_creation_method	'MofGen! by Chris Wilmer'
_symmetry_space_group_name_H-M	'P1'
_symmetry_Int_Tables_number	1
_symmetry_cell_setting	triclinic
loop_
_symmetry_equiv_pos_as_xyz
  x,y,z
_cell_length_a	15.298068
_cell_length_b	29.839131
_cell_length_c	15.296720
_cell_angle_alpha	80.368922
_cell_angle_beta	91.645182
_cell_angle_gamma	99.692747
loop_
_atom_site_label
_atom_site_type_symbol
_atom_site_fract_x
_atom_site_fract_y
_atom_site_fract_z
Zn1	Zn	1.253329	-0.133644	0.727299
Zn2	Zn	1.278569	-0.193979	0.580800
Zn3	Zn	1.132211	-0.129279	0.555468
Zn4	Zn	1.106789	-0.219165	0.701811
O5	O	1.192725	-0.169017	0.641345
O6	O	1.379256	-0.132934	0.729134
O7	O	1.280356	-0.173030	0.454884
O8	O	1.148354	-0.066990	0.578326
O9	O	1.397800	-0.177263	0.621502
O10	O	1.237339	-0.070197	0.704570
O11	O	1.172828	-0.125494	0.436273
O12	O	1.006260	-0.149915	0.553612
O13	O	1.105026	-0.220187	0.827748
O14	O	0.987582	-0.215954	0.661130
O15	O	1.212688	-0.157355	0.846473
O16	O	1.255706	-0.260188	0.596788
O17	O	1.129500	-0.278692	0.685694
C18	C	0.965137	-0.185194	0.601857
C19	C	0.867771	-0.192128	0.584985
C20	C	0.554634	-0.119572	0.761934
C21	C	0.646113	-0.113059	0.777791
C22	C	0.701532	-0.132826	0.729591
C23	C	0.665463	-0.159107	0.665531
C24	C	0.573973	-0.165623	0.649677
C25	C	0.720872	-0.178877	0.617334
C26	C	0.684802	-0.205158	0.553274
C27	C	0.593321	-0.211673	0.537422
C28	C	0.537902	-0.191906	0.585623
C29	C	0.812361	-0.172360	0.633188
C30	C	0.831700	-0.218411	0.520931
C31	C	0.740221	-0.224924	0.505074
C32	C	1.192604	-0.285741	0.641248
C33	C	1.192627	-0.335674	0.641249
C34	C	1.239033	-0.646961	0.707157
C35	C	1.239119	-0.834633	0.707226
O36	O	1.278454	-0.860299	0.763186
N37	N	1.192857	-0.856458	0.641468
C38	C	1.146564	-0.831363	0.575690
O39	O	1.107210	-0.854234	0.519765
C40	C	1.146474	-0.643693	0.575625
C41	C	1.192747	-0.621869	0.641383
C42	C	1.285302	-0.625137	0.772911
C43	C	1.285284	-0.578221	0.772890
C44	C	1.238997	-0.553130	0.707116
C45	C	1.192729	-0.574954	0.641363
C46	C	1.100177	-0.618600	0.509852
C47	C	1.100157	-0.571680	0.509843
C48	C	1.146430	-0.549856	0.575601
C49	C	1.146424	-0.502946	0.575568
N50	N	1.192687	-0.481121	0.641327
C51	C	1.238973	-0.506213	0.707101
C52	C	1.146617	-0.929892	0.575728
C53	C	1.146640	-0.976809	0.575743
C54	C	1.239194	-0.980076	0.707280
C55	C	1.239175	-0.933157	0.707261
C56	C	1.192879	-0.908067	0.641487
C57	C	1.238933	-0.407686	0.707052
C58	C	1.238914	-0.360766	0.707023
C59	C	1.146357	-0.357504	0.575489
C60	C	1.146379	-0.404420	0.575514
C61	C	1.192669	-0.429510	0.641303
O62	O	1.107102	-0.477253	0.519643
O63	O	1.278306	-0.483336	0.763029
C64	C	1.239051	-0.693877	0.707178
C65	C	1.192783	-0.715701	0.641425
C66	C	1.146496	-0.690609	0.575651
C67	C	1.192807	-0.762618	0.641440
C68	C	1.239093	-0.787709	0.707214
C69	C	1.285356	-0.765884	0.772973
C70	C	1.285338	-0.718968	0.772952
C71	C	1.100234	-0.712434	0.509892
C72	C	1.100256	-0.759350	0.509918
C73	C	1.146543	-0.784442	0.575691
C74	C	1.421200	-0.152776	0.680987
C75	C	1.518563	-0.145855	0.697880
C76	C	1.153206	-0.192067	0.869777
C77	C	1.136366	-0.201890	0.967121
C78	C	1.192866	-0.051836	0.641465
C79	C	1.192927	-0.001901	0.641517
C80	C	1.232140	-0.146020	0.413810
C81	C	1.249150	-0.136058	0.316496
C82	C	1.313119	-0.098730	1.280516
C83	C	1.328947	-0.089501	1.189058
C84	C	1.280803	-0.117598	1.133569
C85	C	1.216828	-0.154925	1.169548
C86	C	1.201004	-0.164156	1.261016
C87	C	1.168687	-0.183024	1.114069
C88	C	1.104713	-0.220351	1.150048
C89	C	1.088891	-0.229581	1.241507
C90	C	1.137035	-0.201484	1.296996
C91	C	1.184512	-0.173792	1.022600
C92	C	1.072397	-0.239218	1.003100
C93	C	1.056569	-0.248447	1.094559
H94	H	1.276598	-0.342998	0.760572
O95	O	0.685021	-0.084708	0.846866
H96	H	0.631120	-0.072052	0.877711
O97	O	1.288864	-0.434740	0.778010
H98	H	1.241932	-0.463401	0.815751
O99	O	0.701311	-0.253268	0.435981
H100	H	0.716268	-0.288793	0.453893
O101	O	1.289107	-1.007148	0.778228
H102	H	1.360457	-0.991725	0.775203
H103	H	0.509503	-0.103484	0.801177
O104	O	1.019899	-0.269843	1.280319
H105	H	0.968155	-0.257107	1.314286
O106	O	0.851259	-0.144009	0.702266
H107	H	0.821817	-0.159949	0.767930
O108	O	0.891468	-0.239729	0.468935
H109	H	0.851017	-0.259103	0.421736
O110	O	0.554412	-0.240017	0.468329
H111	H	0.608315	-0.252663	0.437467
O112	O	1.335233	-0.652197	0.843855
H113	H	1.367401	-0.629131	0.889564
O114	O	1.335207	-0.554683	0.843804
H115	H	1.367393	-0.580019	0.889536
O116	O	1.335244	-0.695432	0.843878
H117	H	1.386614	-0.666928	0.812445
O118	O	1.365048	-0.068426	1.340351
H119	H	1.353108	-0.032462	1.320218
O120	O	1.096439	-0.330435	0.504547
H121	H	1.025093	-0.345866	0.507582
O122	O	0.987571	-0.288706	1.133375
H123	H	0.956743	-0.306692	1.079430
H124	H	1.276854	-0.915391	0.760807
O125	O	0.800204	-0.125793	0.746673
H126	H	0.815977	-0.104192	0.799305
O127	O	1.253511	-0.133536	0.983800
H128	H	1.221550	-0.109259	0.935346
H129	H	1.033195	-0.262097	0.957921
O130	O	0.439232	-0.198927	0.568516
H131	H	0.412035	-0.236318	0.581893
O132	O	1.096739	-1.000346	0.504814
H133	H	1.064544	-0.975012	0.459085
O134	O	1.096698	-0.902830	0.504769
H135	H	1.064548	-0.925892	0.459044
H136	H	1.062578	-0.777114	0.456361
H137	H	1.124151	-0.208996	1.371470
H138	H	1.293694	-0.110081	1.059100
H139	H	1.062497	-0.636361	0.456305
H140	H	1.381037	-0.059111	1.159771
O141	O	1.050232	-0.544616	0.438893
H142	H	1.018071	-0.567676	0.393171
H143	H	1.108708	-0.422188	0.521963
H144	H	1.323047	-0.786322	0.826526
O145	O	1.050323	-0.685371	0.438936
H146	H	1.018170	-0.708433	0.393213
