data_functionalizedCrystal
_audit_creation_method	'MofGen! by Chris Wilmer'
_symmetry_space_group_name_H-M	'P1'
_symmetry_Int_Tables_number	1
_symmetry_cell_setting	triclinic
loop_
_symmetry_equiv_pos_as_xyz
  x,y,z
_cell_length_a	12.759401
_cell_length_b	21.295417
_cell_length_c	12.759393
_cell_angle_alpha	90.038095
_cell_angle_beta	90.019802
_cell_angle_gamma	90.029593
loop_
_atom_site_label
_atom_site_type_symbol
_atom_site_fract_x
_atom_site_fract_y
_atom_site_fract_z
Zn1	Zn	1.606151	-0.250594	0.593933
Zn2	Zn	1.605994	-0.355876	0.418230
Zn3	Zn	1.430450	-0.250623	0.418271
Zn4	Zn	1.430393	-0.355828	0.593870
O5	O	1.518247	-0.303230	0.506076
O6	O	1.753151	-0.264568	0.570634
O7	O	1.582665	-0.341947	0.271214
O8	O	1.453846	-0.162530	0.441617
O9	O	1.753035	-0.341918	0.441546
O10	O	1.582933	-0.162509	0.570675
O11	O	1.453694	-0.264618	0.271245
O12	O	1.283421	-0.264571	0.441556
O13	O	1.453750	-0.341836	0.740900
O14	O	1.283380	-0.341864	0.570568
O15	O	1.582878	-0.264521	0.740946
O16	O	1.582610	-0.443959	0.441485
O17	O	1.453597	-0.443924	0.570527
C18	C	1.245279	-0.303216	0.506061
C19	C	1.128503	-0.303225	0.506079
C20	C	0.963965	-0.263036	0.573406
C21	C	1.073689	-0.263023	0.573399
C22	C	1.073587	-0.343445	0.438769
C23	C	0.963865	-0.343460	0.438782
C24	C	1.518109	-0.466782	0.506018
C25	C	1.518146	-0.536750	0.506028
C26	C	1.585383	-0.569614	0.438904
C27	C	1.585432	-0.635357	0.438928
C28	C	1.518226	-0.668233	0.506064
C29	C	1.450985	-0.635360	0.573201
C30	C	1.450945	-0.569619	0.573183
N31	N	1.426319	-0.771497	0.514068
N32	N	1.426360	-0.833948	0.514080
C33	C	1.518344	-0.866307	0.506124
N34	N	1.610287	-0.833855	0.498137
N35	N	1.610245	-0.771398	0.498121
C36	C	1.518262	-0.739518	0.506092
C37	C	1.585639	-0.970457	0.439023
C38	C	1.585690	-1.036201	0.439054
C39	C	1.451233	-1.036203	0.573321
C40	C	1.451192	-0.970460	0.573296
C41	C	1.518393	-0.937591	0.506141
C42	C	1.792280	-0.303245	0.506092
C43	C	1.909057	-0.303252	0.506099
C44	C	1.518325	-0.303170	0.780109
C45	C	1.518359	-0.303144	0.896886
C46	C	1.518414	-0.139040	0.506157
C47	C	1.518485	-0.069072	0.506192
C48	C	1.518229	-0.303245	0.233109
C49	C	1.518399	-0.303093	0.116332
C50	C	1.585601	-0.262880	0.951774
C51	C	1.585619	-0.262853	1.061498
C52	C	1.451149	-0.343359	1.061437
C53	C	1.451127	-0.343383	0.951715
H54	H	0.919158	-0.376213	0.383971
Br55	Br	1.359914	-0.397969	1.135854
H56	H	1.640373	-0.230065	1.106183
Br57	Br	1.359854	-0.398026	0.877218
Br58	Br	1.359689	-0.525014	0.664288
Br59	Br	1.676689	-0.679968	0.347826
Br60	Br	1.359934	-0.925856	0.664395
Br61	Br	0.889584	-0.208468	0.664766
Br62	Br	1.676835	-0.925845	0.347884
Br63	Br	1.148203	-0.208445	0.664755
H64	H	1.118226	-0.376180	0.383959
Br65	Br	1.676599	-0.525009	0.347781
Br66	Br	1.676960	-1.080804	0.347960
Br67	Br	1.360034	-1.080813	0.664447
H68	H	1.396267	-0.662132	0.627865
H69	H	1.640343	-0.230113	0.907135
