data_functionalizedCrystal
_audit_creation_method	'MofGen! by Chris Wilmer'
_symmetry_space_group_name_H-M	'P1'
_symmetry_Int_Tables_number	1
_symmetry_cell_setting	triclinic
loop_
_symmetry_equiv_pos_as_xyz
  x,y,z
_cell_length_a	15.995350
_cell_length_b	19.288865
_cell_length_c	18.366186
_cell_angle_alpha	90.011479
_cell_angle_beta	90.005399
_cell_angle_gamma	83.314311
loop_
_atom_site_label
_atom_site_type_symbol
_atom_site_fract_x
_atom_site_fract_y
_atom_site_fract_z
O1	O	-1.110653	-0.089532	-0.060497
O2	O	-0.866836	-0.100587	-0.060513
O3	O	-0.995790	0.006052	-0.060490
O4	O	-0.981700	-0.196172	-0.060519
O5	O	-0.995768	0.006058	0.060610
O6	O	-0.866814	-0.100582	0.060587
O7	O	-1.110631	-0.089526	0.060603
Zn8	Zn	-0.988719	-0.095053	0.079822
Zn9	Zn	-0.988748	-0.095060	-0.079732
O10	O	-0.981678	-0.196166	0.060580
C11	C	-0.835632	-0.100128	0.000035
C12	C	-0.742687	-0.098757	0.000030
C13	C	-0.995326	0.031933	0.000062
C14	C	-0.993965	0.109040	0.000068
C15	C	-1.141835	-0.089986	0.000053
C16	C	-1.234781	-0.091356	0.000054
C17	C	-0.404958	-0.093836	0.000046
C18	C	-0.452679	-0.017889	0.000327
C19	C	-0.549364	-0.019260	0.000049
C20	C	-0.572509	-0.096277	0.000038
C21	C	-0.531294	-0.133740	-0.069118
C22	C	-0.434665	-0.131832	-0.069171
C23	C	-0.434295	-0.133395	0.068542
C24	C	-0.531241	-0.133377	0.069451
C25	C	-0.667202	-0.097661	0.000032
C26	C	-0.310266	-0.092455	0.000047
C27	C	-0.982142	-0.222047	0.000027
C28	C	-0.983503	-0.299154	0.000015
N29	N	-0.988706	-0.095048	0.188713
C30	C	-1.069629	0.153540	0.000077
C31	C	-1.068350	0.225990	0.000065
C32	C	-0.991403	0.253937	0.000060
C33	C	-0.915729	0.209428	0.000047
C34	C	-0.917010	0.136979	0.000052
C35	C	-0.930906	0.362384	0.042474
C36	C	-0.929628	0.434831	0.042475
C37	C	-0.987450	0.477393	0.000043
C38	C	-1.046563	0.447500	-0.042379
C39	C	-1.047843	0.375051	-0.042374
C40	C	-0.990006	0.332495	0.000055
C41	C	-1.061733	0.600453	0.000038
C42	C	-1.060451	0.672904	0.000022
C43	C	-0.907827	0.656340	0.000011
C44	C	-0.909111	0.583890	0.000020
C45	C	-0.986066	0.555951	0.000037
N46	N	-0.988768	-0.095060	-0.188623
C47	C	-1.045825	-0.047851	0.226824
C48	C	-1.045830	-0.047848	0.303051
C49	C	-0.988724	-0.095054	0.341166
C50	C	-0.931594	-0.142255	0.303046
C51	C	-0.931585	-0.142252	0.226820
C52	C	-0.977516	-0.158313	0.461916
C53	C	-0.977531	-0.158317	0.538141
C54	C	-0.988748	-0.095063	0.576273
C55	C	-0.999968	-0.031802	0.538171
C56	C	-0.999959	-0.031800	0.461945
C57	C	-0.988728	-0.095062	0.423821
C58	C	-1.045876	-0.047859	0.697039
C59	C	-1.045876	-0.047855	0.773268
C60	C	-0.931644	-0.142267	0.773261
C61	C	-0.931640	-0.142265	0.697033
C62	C	-0.988761	-0.095062	0.658927
H63	H	-0.434262	0.012471	0.049922
H64	H	-0.558651	-0.106030	0.120612
C65	C	-0.831087	0.240163	0.000038
H66	H	-0.786206	0.203281	0.000028
H67	H	-0.827403	0.268091	0.042266
H68	H	-0.827429	0.268071	-0.042200
C69	C	-0.551706	-0.209250	0.075086
H70	H	-0.585833	-0.219341	0.034998
H71	H	-0.581027	-0.215126	0.119221
H72	H	-0.500876	-0.240095	0.074498
H73	H	-0.559775	-0.107724	-0.120578
H74	H	-0.885071	-0.180686	0.195789
H75	H	-0.845176	0.679094	0.000003
C76	C	-0.864609	0.467708	0.089136
H77	H	-0.830346	0.431984	0.114397
H78	H	-0.893046	0.499118	0.123255
H79	H	-0.830308	0.492295	0.058538
H80	H	-1.122068	0.709136	0.000025
C81	C	-0.406678	-0.099852	0.139357
H82	H	-0.425004	-0.124505	0.180025
H83	H	-0.430919	-0.052538	0.141487
H84	H	-0.347064	-0.101827	0.140250
C85	C	-0.833776	0.088027	0.000049
H86	H	-0.787763	0.115045	0.000047
H87	H	-0.831110	0.059407	-0.042177
H88	H	-0.831098	0.059435	0.042289
H89	H	-1.092334	-0.009414	0.195799
C90	C	-0.825882	0.534935	0.000015
H91	H	-0.837665	0.487785	0.000012
H92	H	-0.794306	0.543414	0.042240
H93	H	-0.794331	0.543398	-0.042225
C94	C	-0.867302	0.315569	0.089152
H95	H	-0.876525	0.268140	0.083075
H96	H	-0.874444	0.328253	0.138937
H97	H	-0.811694	0.321426	0.074228
H98	H	-1.092345	-0.009413	0.334087
C99	C	-1.012287	0.037779	0.420032
H100	H	-1.019084	0.075452	0.453652
H101	H	-1.060970	0.039121	0.390206
H102	H	-0.964396	0.041695	0.390389
C103	C	-0.965191	-0.227897	0.580050
H104	H	-0.966813	-0.218841	0.630909
H105	H	-0.912287	-0.252636	0.567562
H106	H	-1.008874	-0.255138	0.567541
C107	C	-1.012301	0.037781	0.580105
H108	H	-1.010689	0.028722	0.630960
H109	H	-1.065199	0.062527	0.567614
H110	H	-0.968609	0.065015	0.567623
C111	C	-0.410080	-0.094928	-0.138992
H112	H	-0.459125	-0.081237	-0.167055
H113	H	-0.371993	-0.125960	-0.166643
H114	H	-0.383968	-0.054805	-0.126349
H115	H	-0.402207	-0.187591	-0.072317
H116	H	-1.092385	-0.009420	0.666011
C117	C	-1.108705	0.004066	0.815193
H118	H	-1.100524	-0.002688	0.866049
H119	H	-1.164553	-0.003505	0.802693
H120	H	-1.099786	0.050431	0.802711
C121	C	-0.587911	0.020520	0.067017
H122	H	-0.544486	0.037669	0.094637
H123	H	-0.616081	-0.010091	0.096267
H124	H	-0.626938	0.058537	0.051461
H125	H	-0.885144	-0.180700	0.804293
C126	C	-0.426375	0.022935	-0.066285
H127	H	-0.386439	-0.006104	-0.094268
H128	H	-0.401980	0.062918	-0.050376
H129	H	-0.474480	0.037166	-0.095315
C130	C	-0.868818	-0.194190	0.655110
H131	H	-0.834812	-0.222308	0.688725
H132	H	-0.834057	-0.169188	0.625384
H133	H	-0.898829	-0.223119	0.625364
H134	H	-0.402323	-0.189390	0.069002
H135	H	-0.577342	0.010382	-0.049603
H136	H	-0.885097	-0.180689	0.334083
H137	H	-0.968367	-0.209825	0.430876
H138	H	-0.545205	-0.190323	-0.071697
C139	C	-1.154275	0.122810	0.000083
H140	H	-1.199155	0.159694	0.000079
H141	H	-1.157944	0.094898	0.042312
H142	H	-1.157953	0.094887	-0.042154
H143	H	-1.129967	0.262229	0.000069
H144	H	-1.095974	0.350715	-0.076917
H145	H	-1.093646	0.482153	-0.076931
H146	H	-1.124394	0.577704	0.000049
