data_functionalizedCrystal
_audit_creation_method	'MofGen! by Chris Wilmer'
_symmetry_space_group_name_H-M	'P1'
_symmetry_Int_Tables_number	1
_symmetry_cell_setting	triclinic
loop_
_symmetry_equiv_pos_as_xyz
  x,y,z
_cell_length_a	29.839135
_cell_length_b	29.839131
_cell_length_c	19.805399
_cell_angle_alpha	89.969027
_cell_angle_beta	89.980825
_cell_angle_gamma	90.043950
loop_
_atom_site_label
_atom_site_type_symbol
_atom_site_fract_x
_atom_site_fract_y
_atom_site_fract_z
Zn1	Zn	0.686736	-0.178827	-0.382752
Zn2	Zn	1.186736	0.321173	0.117248
Zn3	Zn	0.686663	-0.253957	-0.269559
Zn4	Zn	1.186663	0.246043	0.230441
Zn5	Zn	0.611614	-0.178845	-0.269572
Zn6	Zn	1.111614	0.321155	0.230428
Zn7	Zn	0.611567	-0.253934	-0.382702
Zn8	Zn	1.111567	0.246066	0.117298
O9	O	0.649145	-0.216391	-0.326146
O10	O	1.149145	0.283609	0.173854
O11	O	0.749593	-0.188795	-0.367752
O12	O	1.249593	0.311205	0.132248
O13	O	0.676697	-0.244010	-0.174844
O14	O	1.176697	0.255990	0.325156
O15	O	0.621629	-0.115975	-0.284611
O16	O	1.121629	0.384025	0.215389
O17	O	0.749540	-0.243993	-0.284590
O18	O	1.249540	0.256007	0.215410
O19	O	0.676821	-0.115962	-0.367764
O20	O	1.176821	0.384038	0.132236
O21	O	0.621559	-0.188825	-0.174853
O22	O	1.121559	0.311175	0.325147
O23	O	0.548741	-0.188803	-0.284563
O24	O	1.048741	0.311197	0.215437
O25	O	0.621549	-0.243954	-0.477425
O26	O	1.121549	0.256046	0.022575
O27	O	0.548706	-0.243971	-0.367679
O28	O	1.048706	0.256029	0.132321
O29	O	0.676775	-0.188774	-0.477462
O30	O	1.176775	0.311226	0.022538
O31	O	0.676651	-0.316821	-0.284542
O32	O	1.176651	0.183179	0.215458
O33	O	0.621478	-0.316804	-0.367667
O34	O	1.121478	0.183196	0.132333
C35	C	0.532422	-0.216387	-0.326117
C36	C	1.032422	0.283613	0.173883
C37	C	0.482488	-0.216397	-0.326121
C38	C	0.982488	0.283603	0.173879
C39	C	0.172869	-0.187693	-0.369512
C40	C	0.672869	0.312307	0.130488
C41	C	-0.014804	-0.187696	-0.369532
C42	C	0.485196	0.312304	0.130468
O43	O	-0.039047	-0.163281	-0.406392
O44	O	0.460953	0.336719	0.093608
N45	N	-0.038297	-0.216391	-0.326171
N46	N	0.461703	0.283609	0.173829
C47	C	-0.014869	-0.245085	-0.282799
C48	C	0.485131	0.254915	0.217201
O49	O	-0.039158	-0.269489	-0.245914
O50	O	0.460842	0.230511	0.254086
C51	C	0.172803	-0.245080	-0.282777
C52	C	0.672803	0.254920	0.217223
C53	C	0.196294	-0.216386	-0.326145
C54	C	0.696294	0.283614	0.173855
C55	C	0.196360	-0.159001	-0.412876
C56	C	0.696360	0.340999	0.087124
C57	C	0.243276	-0.159003	-0.412874
C58	C	0.743276	0.340997	0.087126
C59	C	0.266700	-0.187695	-0.369507
C60	C	0.766700	0.312305	0.130493
C61	C	0.243209	-0.216387	-0.326143
C62	C	0.743209	0.283613	0.173857
C63	C	0.196230	-0.273771	-0.239403
C64	C	0.696230	0.226229	0.260597
C65	C	0.243151	-0.273767	-0.239400
C66	C	0.743151	0.226233	0.260600
C67	C	0.266642	-0.245073	-0.282768
C68	C	0.766642	0.254927	0.217232
C69	C	0.313549	-0.245081	-0.282773
C70	C	0.813549	0.254919	0.217227
N71	N	0.337043	-0.216386	-0.326134
N72	N	0.837043	0.283614	0.173866
C73	C	0.313618	-0.187693	-0.369501
C74	C	0.813618	0.312307	0.130499
C75	C	-0.113400	-0.245087	-0.282815
C76	C	0.386600	0.254913	0.217185
C77	C	-0.160318	-0.245089	-0.282821
C78	C	0.339682	0.254911	0.217179
C79	C	-0.160249	-0.187699	-0.369553
C80	C	0.339751	0.312301	0.130447
C81	C	-0.113330	-0.187700	-0.369549
C82	C	0.386670	0.312300	0.130451
C83	C	-0.089907	-0.216392	-0.326176
C84	C	0.410093	0.283608	0.173824
C85	C	0.412144	-0.187698	-0.369492
C86	C	0.912144	0.312302	0.130508
C87	C	0.459064	-0.187704	-0.369488
C88	C	0.959064	0.312296	0.130512
C89	C	0.458990	-0.245092	-0.282754
C90	C	0.958990	0.254908	0.217246
C91	C	0.412075	-0.245089	-0.282761
C92	C	0.912075	0.254911	0.217239
C93	C	0.388653	-0.216388	-0.326132
C94	C	0.888653	0.283612	0.173868
O95	O	0.337822	-0.269480	-0.245927
O96	O	0.837822	0.230520	0.254073
O97	O	0.337915	-0.163286	-0.406370
O98	O	0.837915	0.336714	0.093630
C99	C	0.125954	-0.187692	-0.369515
C100	C	0.625954	0.312308	0.130485
C101	C	0.102463	-0.216383	-0.326151
C102	C	0.602463	0.283617	0.173849
C103	C	0.125887	-0.245076	-0.282784
C104	C	0.625887	0.254924	0.217216
C105	C	0.055545	-0.216386	-0.326157
C106	C	0.555545	0.283614	0.173843
C107	C	0.032121	-0.187693	-0.369524
C108	C	0.532121	0.312307	0.130476
C109	C	0.055614	-0.158998	-0.412884
C110	C	0.555614	0.341002	0.087116
C111	C	0.102530	-0.158999	-0.412882
C112	C	0.602530	0.341001	0.087118
C113	C	0.102394	-0.273772	-0.239423
C114	C	0.602394	0.226228	0.260577
C115	C	0.055478	-0.273768	-0.239430
C116	C	0.555478	0.226232	0.260570
C117	C	0.032054	-0.245075	-0.282797
C118	C	0.532054	0.254925	0.217203
C119	C	0.649064	-0.333113	-0.326113
C120	C	1.149064	0.166887	0.173887
C121	C	0.649070	-0.383048	-0.326121
C122	C	1.149070	0.116952	0.173879
C123	C	0.677926	-0.692687	-0.282926
C124	C	1.177926	-0.192687	0.217074
C125	C	0.677981	-0.880360	-0.282952
C126	C	1.177981	-0.380360	0.217048
O127	O	0.702451	-0.904621	-0.246201
O128	O	1.202451	-0.404621	0.253799
N129	N	0.649238	-0.903833	-0.326197
N130	N	1.149238	-0.403833	0.173803
C131	C	0.620481	-0.880384	-0.369442
C132	C	1.120481	-0.380384	0.130558
O133	O	0.596038	-0.904655	-0.406229
O134	O	1.096038	-0.404655	0.093771
C135	C	0.620428	-0.692712	-0.369418
C136	C	1.120428	-0.192712	0.130582
C137	C	0.649170	-0.669242	-0.326166
C138	C	1.149170	-0.169242	0.173834
C139	C	0.706666	-0.669217	-0.239678
C140	C	1.206666	-0.169217	0.260322
C141	C	0.706650	-0.622301	-0.239669
C142	C	1.206650	-0.122301	0.260331
C143	C	0.677894	-0.598856	-0.282909
C144	C	1.177894	-0.098856	0.217091
C145	C	0.649154	-0.622326	-0.326157
C146	C	1.149154	-0.122326	0.173843
C147	C	0.591674	-0.669265	-0.412666
C148	C	1.091674	-0.169265	0.087334
C149	C	0.591664	-0.622344	-0.412657
C150	C	1.091664	-0.122344	0.087343
C151	C	0.620406	-0.598873	-0.369405
C152	C	1.120406	-0.098873	0.130595
C153	C	0.620383	-0.551966	-0.369388
C154	C	1.120383	-0.051966	0.130612
N155	N	0.649126	-0.528493	-0.326143
N156	N	1.149126	-0.028493	0.173857
C157	C	0.677882	-0.551938	-0.282904
C158	C	1.177882	-0.051938	0.217096
C159	C	0.620510	-0.978915	-0.369450
C160	C	1.120510	-0.478915	0.130550
C161	C	0.620523	-1.025833	-0.369455
C162	C	1.120523	-0.525833	0.130545
C163	C	0.678024	-1.025805	-0.282967
C164	C	1.178024	-0.525805	0.217033
C165	C	0.678009	-0.978887	-0.282958
C166	C	1.178009	-0.478887	0.217042
C167	C	0.649253	-0.955442	-0.326205
C168	C	1.149253	-0.455442	0.173795
C169	C	0.677846	-0.453412	-0.282888
C170	C	1.177846	0.046588	0.217112
C171	C	0.677826	-0.406493	-0.282881
C172	C	1.177826	0.093507	0.217119
C173	C	0.620327	-0.406524	-0.369372
C174	C	1.120327	0.093476	0.130628
C175	C	0.620345	-0.453440	-0.369377
C176	C	1.120345	0.046560	0.130623
C177	C	0.649108	-0.476883	-0.326132
C178	C	1.149108	0.023117	0.173868
O179	O	0.595929	-0.527676	-0.406126
O180	O	1.095929	-0.027676	0.093874
O181	O	0.702328	-0.527659	-0.246132
O182	O	1.202328	-0.027659	0.253868
C183	C	0.677942	-0.739602	-0.282935
C184	C	1.177942	-0.239602	0.217065
C185	C	0.649202	-0.763073	-0.326183
C186	C	1.149202	-0.263073	0.173817
C187	C	0.620446	-0.739628	-0.369423
C188	C	1.120446	-0.239628	0.130577
C189	C	0.649214	-0.809991	-0.326188
C190	C	1.149214	-0.309991	0.173812
C191	C	0.677970	-0.833436	-0.282949
C192	C	1.177970	-0.333436	0.217051
C193	C	0.706713	-0.809963	-0.239704
C194	C	1.206713	-0.309963	0.260296
C195	C	0.706698	-0.763048	-0.239695
C196	C	1.206698	-0.263048	0.260305
C197	C	0.591703	-0.763100	-0.412668
C198	C	1.091703	-0.263100	0.087332
C199	C	0.591721	-0.810016	-0.412672
C200	C	1.091721	-0.310016	0.087328
C201	C	0.620476	-0.833461	-0.369433
C202	C	1.120476	-0.333461	0.130567
C203	C	0.766323	-0.216394	-0.326176
C204	C	1.266323	0.283606	0.173824
C205	C	0.816258	-0.216396	-0.326188
C206	C	1.316258	0.283604	0.173812
C207	C	0.649165	-0.216360	-0.502689
C208	C	1.149165	0.283640	-0.002689
C209	C	0.649173	-0.216346	-0.577921
C210	C	1.149173	0.283654	-0.077921
C211	C	0.649239	-0.099212	-0.326195
C212	C	1.149239	0.400788	0.173805
C213	C	0.649279	-0.049278	-0.326215
C214	C	1.149279	0.450722	0.173785
C215	C	0.620471	-0.187609	-0.613269
C216	C	1.120471	0.312391	-0.113269
C217	C	0.620477	-0.187600	-0.683958
C218	C	1.120477	0.312400	-0.183958
C219	C	0.649188	-0.216327	-0.719297
C220	C	1.149188	0.283673	-0.219297
C221	C	0.677892	-0.245067	-0.683943
C222	C	1.177892	0.254933	-0.183943
C223	C	0.677883	-0.245078	-0.613256
C224	C	1.177883	0.254922	-0.113256
C225	C	0.677927	-0.245025	-0.969017
C226	C	1.177927	0.254975	-0.469017
C227	C	0.677935	-0.245011	-1.039709
C228	C	1.177935	0.254989	-0.539709
C229	C	0.620521	-0.187548	-1.039718
C230	C	1.120521	0.312452	-0.539718
C231	C	0.620512	-0.187558	-0.969031
C232	C	1.120512	0.312442	-0.469031
C233	C	0.649214	-0.216300	-0.933684
C234	C	1.149214	0.283700	-0.433684
C235	C	0.649207	-0.216310	-0.857036
C236	C	1.149207	0.283690	-0.357036
C237	C	0.649198	-0.216315	-0.795944
C238	C	1.149198	0.283685	-0.295944
C239	C	0.649151	-0.216389	-0.150290
C240	C	1.149151	0.283611	0.349710
C241	C	0.649230	-0.216276	-0.075059
C242	C	1.149230	0.283724	0.424941
H243	H	-0.094207	-0.164334	-0.404862
H244	H	0.405793	0.335666	0.095138
N245	N	0.707246	-0.274371	-0.932898
N246	N	1.207246	0.225629	-0.432898
N247	N	0.691420	-0.303004	-0.893429
N248	N	1.191420	0.196996	-0.393429
H249	H	0.712129	-0.323727	-0.867914
H250	H	1.212129	0.176273	-0.367914
H251	H	0.036356	-0.297139	-0.204116
H252	H	0.536356	0.202861	0.295884
H253	H	0.392948	-0.268458	-0.247455
H254	H	0.892948	0.231542	0.252545
N255	N	-0.184188	-0.158394	-0.413850
N256	N	0.315812	0.341606	0.086150
N257	N	-0.226078	-0.158403	-0.413843
N258	N	0.273922	0.341597	0.086157
H259	H	-0.242988	-0.137706	-0.445123
H260	H	0.257012	0.362294	0.054877
N261	N	0.562311	-0.693224	-0.456852
N262	N	1.062311	-0.193224	0.043148
N263	N	0.536644	-0.672276	-0.495455
N264	N	1.036644	-0.172276	0.004545
H265	H	0.515905	-0.689197	-0.526666
H266	H	1.015905	-0.189197	-0.026666
N267	N	0.707213	-0.274412	-0.720049
N268	N	1.207213	0.225588	-0.220049
N269	N	0.707218	-0.274399	-0.783162
N270	N	1.207218	0.225601	-0.283162
H271	H	0.727927	-0.295124	-0.808662
H272	H	1.227927	0.204876	-0.308662
N273	N	0.031675	-0.129694	-0.457183
N274	N	0.531675	0.370306	0.042817
N275	N	-0.010216	-0.129702	-0.457174
N276	N	0.489784	0.370298	0.042826
H277	H	-0.027126	-0.109007	-0.488457
H278	H	0.472874	0.390993	0.011543
N279	N	-0.184303	-0.274409	-0.238528
N280	N	0.315697	0.225591	0.261472
N281	N	-0.163378	-0.300024	-0.199813
N282	N	0.336622	0.199976	0.300187
H283	H	-0.180316	-0.320732	-0.168527
H284	H	0.319684	0.179268	0.331473
N285	N	0.562295	-0.598389	-0.456833
N286	N	1.062295	-0.098389	0.043167
N287	N	0.578076	-0.572173	-0.499982
N288	N	1.078076	-0.072173	0.000018
H289	H	0.557335	-0.555255	-0.531180
H290	H	1.057335	-0.055255	-0.031180
H291	H	0.478071	-0.268454	-0.247447
H292	H	0.978071	0.231546	0.252553
H293	H	0.597150	-0.164146	-1.068507
H294	H	1.097150	0.335854	-0.568507
H295	H	0.701268	-0.472494	-0.247676
H296	H	1.201268	0.027506	0.252324
H297	H	0.701259	-0.268475	-0.584476
H298	H	1.201259	0.231525	-0.084476
N299	N	0.590977	-0.477419	-0.413540
N300	N	1.090977	0.022581	0.086460
N301	N	0.549522	-0.472229	-0.408985
N302	N	1.049522	0.027771	0.091015
H303	H	0.528783	-0.489162	-0.440178
H304	H	1.028783	0.010838	0.059822
N305	N	0.483052	-0.158391	-0.413797
N306	N	0.983052	0.341609	0.086203
N307	N	0.462128	-0.132775	-0.452512
N308	N	0.962128	0.367225	0.047488
H309	H	0.479067	-0.112073	-0.483805
H310	H	0.979067	0.387927	0.016195
N311	N	0.388230	-0.158383	-0.413804
N312	N	0.888230	0.341617	0.086196
N313	N	0.409218	-0.132773	-0.452521
N314	N	0.909218	0.367227	0.047479
H315	H	0.392329	-0.112072	-0.483821
H316	H	0.892329	0.387928	0.016179
H317	H	0.701316	-0.268406	-1.068480
H318	H	1.201316	0.231594	-0.568480
H319	H	0.596913	-0.387428	-0.404575
H320	H	1.096913	0.112572	0.095425
N321	N	0.267261	-0.129690	-0.457179
N322	N	0.767261	0.370310	0.042821
N323	N	0.246333	-0.104076	-0.495893
N324	N	0.746333	0.395924	0.004107
H325	H	0.263269	-0.083372	-0.527187
H326	H	0.763269	0.416628	-0.027187
N327	N	0.591185	-0.158209	-0.932945
N328	N	1.091185	0.341791	-0.432945
N329	N	0.565559	-0.132553	-0.964515
N330	N	1.065559	0.367447	-0.464515
H331	H	0.544844	-0.111825	-0.939030
H332	H	1.044844	0.388175	-0.439030
N333	N	0.591153	-1.049797	-0.413630
N334	N	1.091153	-0.549797	0.086370
N335	N	0.565482	-1.028853	-0.452231
N336	N	1.065482	-0.528853	0.047769
H337	H	0.544740	-1.045776	-0.483433
H338	H	1.044740	-0.545776	0.016567
H339	H	0.121652	-0.135633	-0.448196
H340	H	0.621652	0.364367	0.051804
H341	H	0.730102	-0.743941	-0.204475
H342	H	1.230102	-0.243941	0.295525
N343	N	0.126324	-0.303078	-0.195124
N344	N	0.626324	0.196922	0.304876
N345	N	0.152506	-0.287240	-0.152031
N346	N	0.652506	0.212760	0.347969
H347	H	0.169405	-0.307941	-0.120743
H348	H	0.669405	0.192059	0.379257
H349	H	0.701231	-0.387385	-0.247657
H350	H	1.201231	0.112615	0.252343
H351	H	0.597093	-0.959830	-0.404667
H352	H	1.097093	-0.459830	0.095333
H353	H	0.177293	-0.135633	-0.448191
H354	H	0.677293	0.364367	0.051809
H355	H	0.730126	-0.829060	-0.204495
H356	H	1.230126	-0.329060	0.295505
N357	N	0.736013	-0.598338	-0.195484
N358	N	1.236013	-0.098338	0.304516
N359	N	0.761684	-0.619284	-0.156885
N360	N	1.261684	-0.119284	0.343115
H361	H	0.782425	-0.602363	-0.125678
H362	H	1.282425	-0.102363	0.374322
H363	H	0.730085	-0.688301	-0.204467
H364	H	1.230085	-0.188301	0.295533
H365	H	-0.094333	-0.268453	-0.247493
H366	H	0.405667	0.231547	0.252507
N367	N	0.707369	-0.954921	-0.238772
N368	N	1.207369	-0.454921	0.261228
N369	N	0.733038	-0.975866	-0.200167
N370	N	1.233038	-0.475866	0.299833
H371	H	0.753776	-0.958943	-0.168958
H372	H	1.253776	-0.458943	0.331042
H373	H	0.701438	-1.044902	-0.247759
H374	H	1.201438	-0.544902	0.252241
H375	H	0.568312	-0.829121	-0.447893
H376	H	1.068312	-0.329121	0.052107
H377	H	0.177111	-0.297136	-0.204087
H378	H	0.677111	0.202864	0.295913
N379	N	0.562326	-0.739163	-0.456845
N380	N	1.062326	-0.239163	0.043155
N381	N	0.536668	-0.760131	-0.495451
N382	N	1.036668	-0.260131	0.004549
H383	H	0.515917	-0.743227	-0.526653
H384	H	1.015917	-0.243227	-0.026653
H385	H	0.262220	-0.297131	-0.204078
H386	H	0.762220	0.202869	0.295922
H387	H	0.597093	-0.164214	-0.584501
H388	H	1.097093	0.335786	-0.084501
N389	N	0.591152	-0.158246	-0.720054
N390	N	1.091152	0.341754	-0.220054
N391	N	0.565520	-0.132599	-0.688494
N392	N	1.065520	0.367401	-0.188494
H393	H	0.544808	-0.111866	-0.713987
H394	H	1.044808	0.388134	-0.213987
