data_functionalizedCrystal
_audit_creation_method	'MofGen! by Chris Wilmer'
_symmetry_space_group_name_H-M	'P1'
_symmetry_Int_Tables_number	1
_symmetry_cell_setting	triclinic
loop_
_symmetry_equiv_pos_as_xyz
  x,y,z
_cell_length_a	18.215407
_cell_length_b	25.639239
_cell_length_c	18.215399
_cell_angle_alpha	89.969965
_cell_angle_beta	89.980167
_cell_angle_gamma	90.039134
loop_
_atom_site_label
_atom_site_type_symbol
_atom_site_fract_x
_atom_site_fract_y
_atom_site_fract_z
Zn1	Zn	1.125001	-0.208150	-0.416105
Zn2	Zn	1.124880	-0.295586	-0.293034
Zn3	Zn	1.001934	-0.208167	-0.293053
Zn4	Zn	1.001870	-0.295557	-0.416059
O5	O	1.063421	-0.251865	-0.354563
O6	O	1.227970	-0.219754	-0.399791
O7	O	1.108547	-0.284009	-0.190052
O8	O	1.018337	-0.135000	-0.309403
O9	O	1.227880	-0.283992	-0.309372
O10	O	1.108754	-0.134987	-0.399809
O11	O	1.018219	-0.219783	-0.190066
O12	O	0.898941	-0.219754	-0.309358
O13	O	1.018228	-0.283943	-0.519050
O14	O	0.898894	-0.283959	-0.399731
O15	O	1.108692	-0.219725	-0.519083
O16	O	1.108485	-0.368747	-0.309327
O17	O	1.018110	-0.368726	-0.399713
C18	C	0.872215	-0.251856	-0.354542
C19	C	0.790416	-0.251865	-0.354550
C20	C	0.602217	-0.285349	-0.401548
C21	C	0.525358	-0.285350	-0.401557
C22	C	0.525378	-0.218391	-0.307594
C23	C	0.602235	-0.218387	-0.307589
C24	C	0.640653	-0.251869	-0.354565
C25	C	0.486937	-0.251874	-0.354579
C26	C	0.403603	-0.251876	-0.354589
C27	C	0.723992	-0.251867	-0.354556
C28	C	1.063298	-0.387708	-0.354529
C29	C	1.063312	-0.445822	-0.354539
C30	C	1.110602	-0.806183	-0.307579
C31	C	1.110631	-0.860787	-0.307589
O32	O	1.150711	-0.889023	-0.267625
N33	N	1.063551	-0.888104	-0.354612
C34	C	1.016444	-0.860813	-0.401633
O35	O	0.976402	-0.889062	-0.441631
C36	C	1.016420	-0.806210	-0.401626
C37	C	1.063498	-0.778896	-0.354595
C38	C	1.157677	-0.778869	-0.260553
C39	C	1.157647	-0.724269	-0.260542
C40	C	1.110543	-0.696982	-0.307558
C41	C	1.063468	-0.724296	-0.354584
C42	C	0.969318	-0.778920	-0.448650
C43	C	0.969298	-0.724313	-0.448640
C44	C	1.016376	-0.697000	-0.401609
C45	C	1.016334	-0.642408	-0.401590
N46	N	1.063414	-0.615092	-0.354567
C47	C	1.110519	-0.642379	-0.307551
C48	C	1.016500	-0.975484	-0.401644
C49	C	1.016520	-1.030086	-0.401648
C50	C	1.110708	-1.030057	-0.307605
C51	C	1.110683	-0.975453	-0.307598
C52	C	1.063580	-0.948167	-0.354621
C53	C	1.110452	-0.527714	-0.307532
C54	C	1.110416	-0.473108	-0.307523
C55	C	1.016232	-0.473143	-0.401569
C56	C	1.016265	-0.527743	-0.401575
C57	C	1.063381	-0.555027	-0.354554
O58	O	0.976277	-0.614138	-0.441536
O59	O	1.150561	-0.614123	-0.267567
C60	C	1.255374	-0.251874	-0.354584
C61	C	1.337173	-0.251878	-0.354594
C62	C	1.063466	-0.251829	-0.546516
C63	C	1.063485	-0.251814	-0.628315
C64	C	1.063566	-0.115492	-0.354613
C65	C	1.063627	-0.057378	-0.354634
C66	C	1.110607	-0.218344	-0.816528
C67	C	1.110616	-0.218329	-0.893386
C68	C	1.016416	-0.285202	-0.893340
C69	C	1.016404	-0.285214	-0.816483
C70	C	1.063504	-0.251786	-0.778078
C71	C	1.063524	-0.251759	-0.931795
C72	C	1.063534	-0.251742	-1.015128
C73	C	1.063494	-0.251801	-0.694739
C74	C	1.063419	-0.251863	-0.163357
C75	C	1.063543	-0.251731	-0.081558
H76	H	0.633530	-0.191120	-0.269329
H77	H	0.930941	-0.702100	-0.486935
O78	O	0.970376	-0.446657	-0.447167
C79	C	0.845177	-0.430040	-0.482832
C80	C	0.897017	-0.460059	-0.431126
H81	H	0.785856	-0.440872	-0.469892
H82	H	0.853185	-0.386316	-0.474746
H83	H	0.858122	-0.440735	-0.542179
H84	H	0.884104	-0.449407	-0.371760
H85	H	0.888999	-0.503775	-0.439276
H86	H	0.978042	-0.312446	-0.785176
H87	H	0.633495	-0.312611	-0.439801
O88	O	0.970565	-0.317620	-0.930614
C89	C	0.845364	-0.343019	-0.954061
C90	C	0.897204	-0.306262	-0.911819
H91	H	0.786041	-0.333856	-0.938869
H92	H	0.853399	-0.337266	-1.015607
H93	H	0.858282	-0.385176	-0.938939
H94	H	0.884317	-0.264090	-0.926879
H95	H	0.889159	-0.312059	-0.850283
H96	H	1.148753	-0.450871	-0.269223
H97	H	1.148821	-0.549922	-0.269245
O98	O	1.156381	-0.948980	-0.261814
C99	C	1.192140	-0.932285	-0.136657
C100	C	1.140350	-0.962304	-0.188426
H101	H	1.179187	-0.943037	-0.077312
H102	H	1.251490	-0.942987	-0.149576
H103	H	1.184051	-0.888573	-0.144763
H104	H	1.148374	-1.006023	-0.180350
H105	H	1.081020	-0.951558	-0.175495
H106	H	1.148956	-0.191123	-0.785261
O107	O	0.487941	-0.317900	-0.447093
C108	C	0.401144	-0.388523	-0.456822
C109	C	0.443459	-0.351685	-0.405167
H110	H	0.365181	-0.415856	-0.422945
H111	H	0.365150	-0.364584	-0.495356
H112	H	0.441821	-0.412427	-0.490411
H113	H	0.402835	-0.327774	-0.371531
H114	H	0.479463	-0.375655	-0.366681
H115	H	0.494089	-0.191131	-0.269346
H116	H	1.148971	-0.191096	-0.924688
H117	H	0.977932	-0.549983	-0.439874
H118	H	1.196039	-0.801080	-0.222266
O119	O	1.203457	-0.697821	-0.214840
C120	C	1.296859	-0.703575	-0.121544
C121	C	1.245023	-0.733587	-0.173275
H122	H	1.330468	-0.732479	-0.087914
H123	H	1.335359	-0.677985	-0.155330
H124	H	1.263081	-0.678037	-0.083052
H125	H	1.278742	-0.759154	-0.211777
H126	H	1.206521	-0.759144	-0.139442
O127	O	1.156597	-1.056573	-0.262068
C128	C	1.256038	-1.118124	-0.252374
C129	C	1.204100	-1.088128	-0.304007
H130	H	1.294448	-1.143652	-0.286260
H131	H	1.289739	-1.089228	-0.218806
H132	H	1.222337	-1.143727	-0.213819
H133	H	1.237745	-1.062525	-0.342606
H134	H	1.170398	-1.117052	-0.337522
O135	O	0.970759	-1.056535	-0.447397
C136	C	0.877305	-1.050786	-0.540642
C137	C	0.929101	-1.020771	-0.488875
H138	H	0.843600	-1.021884	-0.574180
H139	H	0.911045	-1.076292	-0.579212
H140	H	0.838886	-1.076409	-0.506815
H141	H	0.967530	-0.995120	-0.522643
H142	H	0.895315	-0.995299	-0.450303
H143	H	0.978136	-0.953270	-0.439934
H144	H	0.930978	-0.801150	-0.486945
