data_functionalizedCrystal
_audit_creation_method	'MofGen! by Chris Wilmer'
_symmetry_space_group_name_H-M	'P1'
_symmetry_Int_Tables_number	1
_symmetry_cell_setting	triclinic
loop_
_symmetry_equiv_pos_as_xyz
  x,y,z
_cell_length_a	15.995350
_cell_length_b	14.971486
_cell_length_c	13.448316
_cell_angle_alpha	89.993189
_cell_angle_beta	89.996887
_cell_angle_gamma	83.553252
loop_
_atom_site_label
_atom_site_type_symbol
_atom_site_fract_x
_atom_site_fract_y
_atom_site_fract_z
O1	O	1.111103	0.115296	-0.082608
O2	O	1.611103	0.615296	0.417392
O3	O	0.867342	0.129533	-0.082629
O4	O	1.367342	0.629533	0.417371
O5	O	0.995756	-0.007793	-0.082611
O6	O	1.495756	0.492207	0.417389
O7	O	0.982690	0.252622	-0.082626
O8	O	1.482690	0.752622	0.417374
O9	O	0.995740	-0.007802	0.082773
O10	O	1.495740	0.492198	0.582773
O11	O	0.867326	0.129524	0.082755
O12	O	1.367326	0.629524	0.582755
O13	O	1.111087	0.115287	0.082776
O14	O	1.611087	0.615287	0.582776
Cu15	Cu	0.989205	0.122405	0.097866
Cu16	Cu	1.489205	0.622405	0.597866
Cu17	Cu	0.989224	0.122415	-0.097719
Cu18	Cu	1.489224	0.622415	0.402281
O19	O	0.982673	0.252613	0.082758
O20	O	1.482673	0.752613	0.582758
C21	C	0.836139	0.128940	0.000061
C22	C	1.336139	0.628940	0.500061
C23	C	0.743187	0.127175	0.000053
C24	C	1.243187	0.627175	0.500053
C25	C	0.995164	-0.041122	0.000081
C26	C	1.495164	0.458878	0.500081
C27	C	0.993413	-0.140417	0.000080
C28	C	1.493413	0.359583	0.500080
C29	C	1.068852	-0.197728	0.000087
C30	C	1.568852	0.302272	0.500087
C31	C	1.067202	-0.291026	0.000077
C32	C	1.567202	0.208974	0.500077
C33	C	0.990111	-0.327010	0.000067
C34	C	1.490111	0.172990	0.500067
C35	C	0.914666	-0.269691	0.000057
C36	C	1.414666	0.230309	0.500057
C37	C	0.916317	-0.176395	0.000060
C38	C	1.416317	0.323605	0.500060
C39	C	0.911229	-0.464150	0.000053
C40	C	1.411229	0.035850	0.500053
C41	C	0.909577	-0.557452	0.000052
C42	C	1.409577	-0.057452	0.500052
C43	C	1.062114	-0.578780	0.000070
C44	C	1.562114	-0.078780	0.500070
C45	C	1.063766	-0.485484	0.000073
C46	C	1.563766	0.014516	0.500073
C47	C	0.988320	-0.428172	0.000065
C48	C	1.488320	0.071828	0.500065
C49	C	0.405433	0.120838	0.000074
C50	C	0.905433	0.620838	0.500074
C51	C	0.452769	0.023037	0.000449
C52	C	0.952769	0.523037	0.500449
C53	C	0.549461	0.024802	0.000069
C54	C	1.049461	0.524802	0.500069
C55	C	0.572997	0.123982	0.000064
C56	C	1.072997	0.623982	0.500064
C57	C	0.531967	0.172225	-0.094377
C58	C	1.031967	0.672225	0.405623
C59	C	0.435329	0.169768	-0.094449
C60	C	0.935329	0.669768	0.405551
C61	C	0.434974	0.171780	0.093623
C62	C	0.934974	0.671780	0.593623
C63	C	0.531919	0.171756	0.094865
C64	C	1.031919	0.671756	0.594865
C65	C	0.667696	0.125763	0.000055
C66	C	1.167696	0.625763	0.500055
C67	C	0.310733	0.119060	0.000076
C68	C	0.810733	0.619060	0.500076
C69	C	1.142291	0.115880	0.000084
C70	C	1.642291	0.615880	0.500084
C71	C	1.235243	0.117645	0.000085
C72	C	1.735243	0.617645	0.500085
C73	C	0.983266	0.285942	0.000064
C74	C	1.483266	0.785942	0.500064
C75	C	0.985017	0.385237	0.000059
C76	C	1.485017	0.885237	0.500059
N77	N	0.989198	0.122397	0.235431
N78	N	1.489198	0.622397	0.735431
N79	N	0.989238	0.122415	-0.235284
N80	N	1.489238	0.622415	0.264716
C81	C	1.046077	0.061614	0.287479
C82	C	1.546077	0.561614	0.787479
C83	C	1.046083	0.061614	0.391582
C84	C	1.546083	0.561614	0.891582
C85	C	0.989212	0.122401	0.443635
C86	C	1.489212	0.622401	0.943635
C87	C	0.932326	0.183187	0.391580
C88	C	1.432326	0.683187	0.891580
C89	C	0.932318	0.183183	0.287478
C90	C	1.432318	0.683183	0.787478
C91	C	0.932350	0.183193	0.608560
C92	C	1.432350	0.683193	1.108560
C93	C	0.932359	0.183199	0.712668
C94	C	1.432359	0.683199	1.212668
C95	C	1.046114	0.061624	0.712664
C96	C	1.546114	0.561624	1.212664
C97	C	1.046106	0.061620	0.608562
C98	C	1.546106	0.561620	1.108562
C99	C	0.989221	0.122407	0.556514
C100	C	1.489221	0.622407	1.056514
H101	H	1.128633	-0.337686	0.000085
H102	H	1.628633	0.162314	0.500085
O103	O	0.834947	-0.114581	0.000056
O104	O	1.334947	0.385419	0.500056
H105	H	0.849045	-0.043661	0.000050
H106	H	1.349045	0.456339	0.500050
H107	H	0.886017	0.232678	0.433967
H108	H	1.386017	0.732678	0.933967
H109	H	0.403153	0.241573	-0.098738
H110	H	0.903153	0.741573	0.401262
H111	H	0.559193	0.136539	0.164732
H112	H	1.059193	0.636539	0.664732
H113	H	0.886000	0.232677	0.245101
H114	H	1.386000	0.732677	0.745101
H115	H	1.123545	-0.625449	0.000073
H116	H	1.623545	-0.125449	0.500073
H117	H	0.577845	-0.013120	0.067769
H118	H	1.077845	0.486880	0.567769
H119	H	1.092392	0.012118	0.245104
H120	H	1.592392	0.512118	0.745104
O121	O	1.107439	-0.003947	0.552415
O122	O	1.607439	0.496053	1.052415
H123	H	1.172723	0.007482	0.572380
H124	H	1.672723	0.507482	1.072380
O125	O	1.107474	-0.003945	0.768785
O126	O	1.607474	0.496055	1.268785
H127	H	1.072199	-0.047454	0.816220
H128	H	1.572199	0.452546	1.316220
O129	O	1.152001	-0.158917	0.000088
O130	O	1.652001	0.341083	0.500088
H131	H	1.204181	-0.214448	0.000079
H132	H	1.704181	0.285552	0.500079
H133	H	0.851897	-0.298997	0.000042
H134	H	1.351897	0.201003	0.500042
O135	O	1.107446	-0.003928	0.447724
O136	O	1.607446	0.496072	0.947724
H137	H	1.147002	-0.046185	0.394039
H138	H	1.647002	0.453815	0.894039
O139	O	0.552366	0.267559	0.102432
O140	O	1.052366	0.767559	0.602432
H141	H	0.592297	0.282689	0.038452
H142	H	1.092297	0.782689	0.538452
O143	O	0.829855	-0.402333	0.000046
O144	O	1.329855	0.097667	0.500046
H145	H	0.826961	-0.359323	0.067453
H146	H	1.326961	0.140677	0.567453
H147	H	0.416992	0.134594	-0.165042
H148	H	0.916992	0.634594	0.334958
O149	O	0.871005	0.248741	0.768818
O150	O	1.371005	0.748741	1.268818
H151	H	0.831435	0.290996	0.715139
H152	H	1.331435	0.790996	1.215139
O153	O	0.426772	-0.028513	-0.088757
O154	O	0.926772	0.471487	0.411243
H155	H	0.398037	-0.088653	-0.063303
H156	H	0.898037	0.411347	0.436697
O157	O	1.146911	-0.446666	0.000072
O158	O	1.646911	0.053334	0.500072
H159	H	1.199096	-0.502191	0.000062
H160	H	1.699096	-0.002191	0.500062
O161	O	0.871001	0.248759	0.552416
O162	O	1.371001	0.748759	1.052416
H163	H	0.831464	0.291037	0.606098
H164	H	1.331464	0.791037	1.106098
H165	H	0.846803	-0.586747	0.000059
H166	H	1.346803	-0.086747	0.500059
H167	H	0.434201	-0.016060	0.068177
H168	H	0.934201	0.483940	0.568177
H169	H	0.577287	-0.013369	-0.067744
H170	H	1.077287	0.486631	0.432256
O171	O	0.550762	0.268747	-0.099043
O172	O	1.050762	0.768747	0.400957
H173	H	0.585581	0.279636	-0.168596
H174	H	1.085581	0.779636	0.331404
O175	O	0.569500	0.127849	-0.187481
O176	O	1.069500	0.627849	0.312519
H177	H	0.617364	0.071443	-0.166729
H178	H	1.117364	0.571443	0.333271
H179	H	0.414399	0.139802	0.165207
H180	H	0.914399	0.639802	0.665207
H181	H	0.403284	0.243888	0.094259
H182	H	0.903284	0.743888	0.594259
