data_functionalizedCrystal
_audit_creation_method	'MofGen! by Chris Wilmer'
_symmetry_space_group_name_H-M	'P1'
_symmetry_Int_Tables_number	1
_symmetry_cell_setting	triclinic
loop_
_symmetry_equiv_pos_as_xyz
  x,y,z
_cell_length_a	17.077404
_cell_length_b	16.625546
_cell_length_c	17.077396
_cell_angle_alpha	90.030215
_cell_angle_beta	90.019501
_cell_angle_gamma	90.022693
loop_
_atom_site_label
_atom_site_type_symbol
_atom_site_fract_x
_atom_site_fract_y
_atom_site_fract_z
Zn1	Zn	1.200057	-0.320997	0.443833
Zn2	Zn	1.199965	-0.455839	0.312563
Zn3	Zn	1.068789	-0.321025	0.312581
Zn4	Zn	1.068758	-0.455792	0.443787
O5	O	1.134392	-0.388413	0.378191
O6	O	1.309892	-0.338892	0.426432
O7	O	1.182539	-0.437988	0.202719
O8	O	1.086253	-0.208189	0.330019
O9	O	1.309824	-0.437960	0.329988
O10	O	1.182695	-0.208168	0.426449
O11	O	1.086164	-0.338940	0.202732
O12	O	0.958938	-0.338894	0.329974
O13	O	1.086200	-0.437879	0.553640
O14	O	0.958915	-0.437906	0.426370
O15	O	1.182665	-0.338846	0.553674
O16	O	1.182509	-0.568666	0.329943
O17	O	1.086111	-0.568630	0.426353
C18	C	0.930444	-0.388399	0.378169
C19	C	0.843194	-0.388412	0.378179
C20	C	1.134318	-0.597904	0.378158
C21	C	1.134358	-0.687525	0.378170
C22	C	0.802213	-0.440045	0.428292
C23	C	0.720232	-0.440047	0.428304
C24	C	0.679235	-0.388419	0.378199
C25	C	0.720222	-0.336780	0.328084
C26	C	0.802201	-0.336774	0.328076
C27	C	0.549352	-0.336795	0.328103
C28	C	0.467368	-0.336801	0.328110
C29	C	0.467383	-0.440068	0.428331
C30	C	0.549362	-0.440063	0.428323
C31	C	0.590344	-0.388425	0.378207
C32	C	1.134495	-1.015701	0.378252
C33	C	1.134454	-0.924392	0.378232
C34	C	1.134426	-0.851616	0.378211
C35	C	1.134386	-0.760302	0.378191
C36	C	1.339136	-0.388428	0.378213
C37	C	1.426386	-0.388435	0.378223
C38	C	1.134440	-0.388354	0.582936
C39	C	1.134460	-0.388329	0.670185
C40	C	1.134488	-0.178104	0.378241
C41	C	1.134529	-0.088483	0.378263
C42	C	1.134390	-0.388414	0.174243
C43	C	1.134522	-0.388212	0.086994
C44	C	1.184691	-0.336758	0.711195
C45	C	1.184700	-0.336731	0.793175
C46	C	1.134482	-0.388280	0.834145
C47	C	1.084245	-0.439853	0.793130
C48	C	1.084233	-0.439875	0.711151
C49	C	1.084277	-0.439804	0.964000
C50	C	1.084291	-0.439783	1.045985
C51	C	1.184745	-0.336660	1.046024
C52	C	1.184732	-0.336682	0.964045
C53	C	1.134496	-0.388257	0.923036
H54	H	0.686869	-0.482093	0.469111
H55	H	1.225605	-0.294739	0.826561
O56	O	1.233461	-0.286575	1.085977
C57	C	1.222713	-0.297613	1.167119
H58	H	1.162126	-0.324019	1.178296
H59	H	1.269261	-0.340540	1.190390
C60	C	1.304352	-0.183582	1.195494
C61	C	1.229935	-0.216007	1.209222
H62	H	1.308810	-0.133245	1.221466
H63	H	1.311596	-0.176147	1.140827
H64	H	1.343133	-0.219362	1.214886
H65	H	1.191156	-0.180232	1.189821
H66	H	1.222685	-0.223435	1.263886
H67	H	1.225587	-0.294783	0.677843
H68	H	1.225629	-0.294711	0.930690
O69	O	0.589273	-0.490101	0.477035
C70	C	0.636714	-0.444253	0.527821
H71	H	0.649000	-0.383112	0.500239
H72	H	0.605148	-0.435472	0.586011
C73	C	0.699491	-0.563720	0.575825
C74	C	0.714586	-0.488628	0.541946
H75	H	0.747524	-0.591093	0.584542
H76	H	0.667527	-0.594610	0.541612
H77	H	0.673184	-0.556391	0.624314
H78	H	0.740883	-0.495958	0.493455
H79	H	0.746555	-0.457740	0.576152
H80	H	0.835567	-0.294725	0.287273
H81	H	1.043397	-0.481757	1.079340
H82	H	1.043321	-0.481861	0.677762
H83	H	1.043357	-0.481789	0.930613
H84	H	1.043354	-0.481822	0.826494
H85	H	0.835587	-0.482090	0.469091
H86	H	0.434012	-0.482112	0.469140
H87	H	0.582717	-0.294739	0.287300
H88	H	0.686836	-0.294739	0.287291
H89	H	0.433990	-0.294752	0.287319
