data_functionalizedCrystal
_audit_creation_method	'MofGen! by Chris Wilmer'
_symmetry_space_group_name_H-M	'P1'
_symmetry_Int_Tables_number	1
_symmetry_cell_setting	triclinic
loop_
_symmetry_equiv_pos_as_xyz
  x,y,z
_cell_length_a	17.000383
_cell_length_b	17.019448
_cell_length_c	13.930277
_cell_angle_alpha	93.870284
_cell_angle_beta	89.989610
_cell_angle_gamma	79.510910
loop_
_atom_site_label
_atom_site_type_symbol
_atom_site_fract_x
_atom_site_fract_y
_atom_site_fract_z
O1	O	1.056073	0.028435	-0.077549
O2	O	1.556073	0.528435	0.422451
O3	O	0.824310	0.057064	-0.075173
O4	O	1.324310	0.557064	0.424827
O5	O	0.946649	-0.072527	-0.085873
O6	O	1.446649	0.427473	0.414127
O7	O	0.933733	0.158027	-0.066849
O8	O	1.433733	0.658027	0.433151
O9	O	0.946632	-0.072529	0.073789
O10	O	1.446632	0.427471	0.573789
O11	O	0.824293	0.057063	0.084489
O12	O	1.324293	0.557063	0.584489
O13	O	1.056056	0.028434	0.082113
O14	O	1.556056	0.528434	0.582113
Zn15	Zn	0.940172	0.042748	0.108651
Zn16	Zn	1.440172	0.542748	0.608651
Zn17	Zn	0.940194	0.042750	-0.101711
Zn18	Zn	1.440194	0.542750	0.398289
O19	O	0.933717	0.158025	0.092813
O20	O	1.433717	0.658025	0.592813
C21	C	0.794646	0.058601	0.004787
C22	C	1.294646	0.558601	0.504787
C23	C	0.706283	0.063173	0.005169
C24	C	1.206283	0.563173	0.505169
C25	C	0.946149	-0.101882	-0.008466
C26	C	1.446149	0.398118	0.491534
C27	C	0.944672	-0.189347	-0.015688
C28	C	1.444672	0.310653	0.484312
C29	C	0.206034	0.092695	0.007569
C30	C	0.706034	0.592695	0.507569
C31	C	0.289062	0.088393	0.007215
C32	C	0.789062	0.588393	0.507215
C33	C	0.340137	0.013720	0.001061
C34	C	0.840137	0.513720	0.501061
C35	C	0.308180	-0.056656	-0.004749
C36	C	0.808180	0.443344	0.495251
C37	C	0.225154	-0.052353	-0.004402
C38	C	0.725154	0.447647	0.495598
C39	C	0.591300	-0.002900	-0.000294
C40	C	1.091300	0.497100	0.499706
C41	C	0.674332	-0.007198	-0.000638
C42	C	1.174332	0.492802	0.499362
C43	C	0.655208	0.137852	0.011325
C44	C	1.155208	0.637852	0.511325
C45	C	0.572181	0.142149	0.011677
C46	C	1.072181	0.642149	0.511677
C47	C	0.540231	0.071773	0.005862
C48	C	1.040231	0.571773	0.505862
C49	C	0.425004	0.009321	0.000702
C50	C	0.925004	0.509321	0.500702
C51	C	0.455365	0.076173	0.006215
C52	C	0.955365	0.576173	0.506215
C53	C	0.936394	-0.684047	-0.061008
C54	C	1.436394	-0.184047	0.438992
C55	C	0.937773	-0.601863	-0.054202
C56	C	1.437773	-0.101863	0.445798
C57	C	0.938448	-0.560786	0.036233
C58	C	1.438448	-0.060786	0.536233
C59	C	0.937750	-0.601900	0.119867
C60	C	1.437750	-0.101900	0.619867
C61	C	0.936376	-0.684085	0.113060
C62	C	1.436376	-0.184085	0.613060
C63	C	0.942601	-0.312646	0.061139
C64	C	1.442601	0.187354	0.561139
C65	C	0.943972	-0.230455	0.067940
C66	C	1.443972	0.269545	0.567940
C67	C	0.943997	-0.230423	-0.106130
C68	C	1.443997	0.269577	0.393870
C69	C	0.942618	-0.312608	-0.112929
C70	C	1.442618	0.187392	0.387071
C71	C	0.941925	-0.353716	-0.029295
C72	C	1.441925	0.146284	0.470705
C73	C	0.939855	-0.476780	0.043192
C74	C	1.439855	0.023220	0.543192
C75	C	0.940523	-0.437722	-0.036255
C76	C	1.440523	0.062278	0.463745
C77	C	1.085720	0.026897	0.002151
C78	C	1.585720	0.526897	0.502151
C79	C	1.174083	0.022325	0.001762
C80	C	1.674083	0.522325	0.501762
C81	C	0.934217	0.187380	0.015404
C82	C	1.434217	0.687380	0.515404
C83	C	0.935694	0.274845	0.022620
C84	C	1.435694	0.774845	0.522620
N85	N	0.940162	0.042746	0.252216
N86	N	1.440162	0.542746	0.752216
N87	N	0.940210	0.042745	-0.245277
N88	N	1.440210	0.542745	0.254723
C89	C	0.886020	0.100112	0.709222
C90	C	1.386020	0.600112	1.209222
C91	C	0.994390	-0.014620	0.699719
C92	C	1.494390	0.485380	1.199719
C93	C	0.994381	-0.014622	0.599223
C94	C	1.494381	0.485378	1.099223
C95	C	0.940191	0.042745	0.553722
C96	C	1.440191	0.542745	1.053722
C97	C	0.886011	0.100113	0.608717
C98	C	1.386011	0.600113	1.108717
C99	C	1.048565	-0.071984	0.544221
C100	C	1.548565	0.428016	1.044221
C101	C	1.048558	-0.071988	0.443718
C102	C	1.548558	0.428012	0.943718
C103	C	0.994364	-0.014624	0.398216
C104	C	1.494364	0.485376	0.898216
C105	C	0.940181	0.042746	0.453217
C106	C	1.440181	0.542746	0.953217
C107	C	0.885992	0.100113	0.407717
C108	C	1.385992	0.600113	0.907717
C109	C	0.831804	0.157480	0.462716
C110	C	1.331804	0.657480	0.962716
C111	C	0.831817	0.157477	0.563215
C112	C	1.331817	0.657477	1.063215
C113	C	0.994352	-0.014621	0.297717
C114	C	1.494352	0.485379	0.797717
C115	C	0.885982	0.100114	0.307212
C116	C	1.385982	0.600114	0.807212
H117	H	0.164454	0.153503	0.012588
H118	H	0.664454	0.653503	0.512588
H119	H	1.038474	-0.061325	0.252942
H120	H	1.538474	0.438675	0.752942
H121	H	0.787700	0.204185	0.608001
H122	H	1.287700	0.704185	1.108001
F123	F	0.557308	-0.077801	-0.006501
F124	F	1.057308	0.422199	0.493499
H125	H	1.092689	-0.118687	0.581271
H126	H	1.592689	0.381313	1.081271
H127	H	0.349772	-0.117457	-0.009766
H128	H	0.849772	0.382543	0.490234
H129	H	0.935806	-0.717553	0.181159
H130	H	1.435806	-0.217553	0.681159
H131	H	0.942037	-0.346106	0.129240
H132	H	1.442037	0.153894	0.629240
F133	F	0.938473	-0.558183	0.216115
F134	F	1.438473	-0.058183	0.716115
H135	H	0.315072	0.145697	0.011935
H136	H	0.815072	0.645697	0.511935
F137	F	0.828350	0.161162	0.767754
F138	F	1.328350	0.661162	1.267754
F139	F	0.517829	0.221626	0.018222
F140	F	1.017829	0.721626	0.518222
H141	H	0.944562	-0.196945	-0.174220
H142	H	1.444562	0.303055	0.325780
F143	F	0.939811	-0.481440	-0.132499
F144	F	1.439811	0.018560	0.367501
F145	F	0.479369	-0.070150	-0.005840
F146	F	0.979369	0.429850	0.494160
H147	H	1.038514	-0.061323	0.736769
H148	H	1.538514	0.438677	1.236769
H149	H	0.940403	-0.443326	0.116824
H150	H	1.440403	0.056674	0.616824
H151	H	0.944498	-0.197009	0.141587
H152	H	1.444498	0.302991	0.641587
H153	H	1.092680	-0.118700	0.398944
H154	H	1.592680	0.381300	0.898944
F155	F	0.728688	-0.086679	-0.007189
F156	F	1.228688	0.413321	0.492811
H157	H	0.199141	-0.109657	-0.009132
H158	H	0.699141	0.390343	0.490868
H159	H	0.681230	0.195148	0.016058
H160	H	1.181230	0.695148	0.516058
F161	F	0.828301	0.161170	0.258794
F162	F	1.328301	0.661170	0.758794
H163	H	0.787686	0.204192	0.425658
H164	H	1.287686	0.704192	0.925658
H165	H	0.935837	-0.717484	-0.134650
H166	H	1.435837	-0.217484	0.365350
F167	F	0.938520	-0.558117	-0.143211
F168	F	1.438520	-0.058117	0.356789
F169	F	0.401007	0.155643	0.012758
F170	F	0.901007	0.655643	0.512758
H171	H	0.942075	-0.346048	-0.186571
H172	H	1.442075	0.153952	0.313429
