data_functionalizedCrystal
_audit_creation_method	'MofGen! by Chris Wilmer'
_symmetry_space_group_name_H-M	'P1'
_symmetry_Int_Tables_number	1
_symmetry_cell_setting	triclinic
loop_
_symmetry_equiv_pos_as_xyz
  x,y,z
_cell_length_a	10.686220
_cell_length_b	18.101395
_cell_length_c	10.686551
_cell_angle_alpha	85.590773
_cell_angle_beta	90.307919
_cell_angle_gamma	94.414081
loop_
_atom_site_label
_atom_site_type_symbol
_atom_site_fract_x
_atom_site_fract_y
_atom_site_fract_z
Zn1	Zn	1.972195	-0.180549	-0.562373
Zn2	Zn	1.955897	-0.314594	-0.352600
Zn3	Zn	1.746304	-0.199495	-0.368688
Zn4	Zn	1.762328	-0.313093	-0.578378
O5	O	1.859181	-0.251933	-0.465510
O6	O	2.145579	-0.191030	-0.521116
O7	O	1.914567	-0.307882	-0.179188
O8	O	1.776384	-0.093342	-0.394415
O9	O	2.133605	-0.289512	-0.366997
O10	O	1.942345	-0.079423	-0.536715
O11	O	1.760580	-0.223319	-0.191007
O12	O	1.572884	-0.221864	-0.409934
O13	O	1.803694	-0.286954	-0.751801
O14	O	1.584657	-0.305325	-0.563992
O15	O	1.957883	-0.189575	-0.740043
O16	O	1.930105	-0.418034	-0.382515
O17	O	1.787891	-0.416932	-0.548393
C18	C	1.533253	-0.265488	-0.490446
C19	C	1.393822	-0.271304	-0.501144
C20	C	1.859004	-0.444353	-0.465470
C21	C	1.859047	-0.526665	-0.465486
C22	C	1.859195	-0.677364	-0.465525
C23	C	1.769662	-0.708061	-0.569820
C24	C	1.770059	-0.793644	-0.570200
C25	C	1.859338	-0.825739	-0.465563
C26	C	1.994323	-0.787323	-0.490996
C27	C	1.993732	-0.701672	-0.491720
C28	C	1.814912	-0.716865	-0.335474
C29	C	1.812132	-0.802599	-0.336426
C30	C	1.859427	-0.909593	-0.465582
C31	C	1.859115	-0.593509	-0.465508
C32	C	2.186382	-0.238325	-0.440476
C33	C	2.325815	-0.232526	-0.429809
C34	C	1.884394	-0.235984	-0.792712
C35	C	1.895138	-0.229187	-0.932146
C36	C	1.859395	-0.058758	-0.465575
C37	C	1.859486	0.023561	-0.465602
C38	C	1.834139	-0.267763	-0.139575
C39	C	1.823637	-0.274341	-0.000123
H40	H	1.345377	-0.308953	-0.570400
Br41	Br	1.646469	-0.845504	-0.304139
H42	H	1.964583	-0.185330	-0.980624
H43	H	1.754206	-0.318200	-0.951650
H44	H	1.374265	-0.194879	-0.360540
H45	H	1.871777	-0.824949	-0.255412
Br46	Br	1.602830	-0.682452	-0.545777
Br47	Br	1.603777	-0.837400	-0.545691
H48	H	1.800285	-0.808364	-0.666766
Br49	Br	1.819376	-0.662656	-0.729882
Br50	Br	2.054244	-0.658430	-0.649651
H51	H	2.063284	-0.681085	-0.418494
H52	H	2.031086	-0.802835	-0.584660
Br53	Br	2.109352	-0.821575	-0.367545
H54	H	1.717584	-0.700857	-0.310291
Br55	Br	1.923391	-0.683997	-0.206171
