data_functionalizedCrystal
_audit_creation_method	'MofGen! by Chris Wilmer'
_symmetry_space_group_name_H-M	'P1'
_symmetry_Int_Tables_number	1
_symmetry_cell_setting	triclinic
loop_
_symmetry_equiv_pos_as_xyz
  x,y,z
_cell_length_a	12.837943
_cell_length_b	12.837942
_cell_length_c	11.295501
_cell_angle_alpha	94.169788
_cell_angle_beta	94.169432
_cell_angle_gamma	94.828940
loop_
_atom_site_label
_atom_site_type_symbol
_atom_site_fract_x
_atom_site_fract_y
_atom_site_fract_z
O1	O	1.409246	0.279050	0.099003
O2	O	1.106113	0.265607	0.099010
O3	O	1.250957	0.120761	0.098999
O4	O	1.264401	0.423896	0.099014
O5	O	1.237120	0.106933	-0.099052
O6	O	1.092275	0.251779	-0.099041
O7	O	1.395408	0.265222	-0.099048
Cu8	Cu	1.242578	0.257238	-0.117128
Cu9	Cu	1.258943	0.273591	0.117090
O10	O	1.250564	0.410067	-0.099037
C11	C	1.060125	0.254152	-0.000014
C12	C	0.943710	0.240607	-0.000012
C13	C	0.718835	0.403436	-0.000021
C14	C	0.609453	0.390715	-0.000020
C15	C	0.615560	0.202444	-0.000016
C16	C	0.724943	0.215165	-0.000017
C17	C	0.776576	0.315664	-0.000018
C18	C	0.885961	0.328385	-0.000011
C19	C	0.892066	0.140115	-0.000016
C20	C	0.782684	0.127394	-0.000015
C21	C	1.239497	0.074778	-0.000025
C22	C	1.225953	-0.041637	-0.000023
C23	C	1.388784	-0.266510	-0.000002
C24	C	1.376062	-0.375892	0.000000
C25	C	1.187791	-0.369785	-0.000008
C26	C	1.200512	-0.260403	-0.000010
C27	C	1.301011	-0.208769	-0.000009
C28	C	1.313731	-0.099386	-0.000020
C29	C	1.125461	-0.093280	-0.000019
C30	C	1.112740	-0.202663	-0.000017
C31	C	1.441396	0.276677	-0.000021
C32	C	1.557812	0.290222	-0.000015
C33	C	1.262024	0.456051	-0.000010
C34	C	1.275569	0.572466	-0.000004
N35	N	1.231076	0.245736	-0.281864
C36	C	1.353245	0.367932	-0.531152
C37	C	1.344560	0.359232	-0.655816
C38	C	1.205027	0.219632	-0.655858
C39	C	1.213712	0.228331	-0.531194
C40	C	1.287822	0.302485	-0.468846
C41	C	1.296502	0.311189	-0.344180
C42	C	1.156974	0.171585	-0.344224
C43	C	1.148289	0.162885	-0.468888
N44	N	1.270452	0.285085	0.281827
H45	H	0.562444	0.462188	-0.000025
H46	H	1.053990	-0.046257	-0.000034
H47	H	1.447536	-0.422900	0.000010
H48	H	0.573494	0.120615	-0.000114
H49	H	1.105969	-0.411844	0.000004
H50	H	1.397835	0.412525	-0.706541
H51	H	1.470613	-0.224470	-0.000013
C52	C	1.002198	-0.259460	-0.000013
H53	H	0.951747	-0.209402	-0.000009
H54	H	0.988497	-0.306834	-0.069072
H55	H	0.998148	-0.297170	0.069066
C56	C	1.123518	0.138068	-0.724455
H57	H	1.127717	0.142266	-0.807623
H58	H	1.137314	0.069799	-0.704025
H59	H	1.055229	0.151836	-0.704049
C60	C	1.378026	0.392747	-0.275597
H61	H	1.415753	0.430469	-0.330565
H62	H	1.343284	0.440064	-0.226968
H63	H	1.425355	0.358013	-0.226964
C64	C	0.942762	0.438926	-0.000012
H65	H	1.016178	0.433936	-0.000001
H66	H	0.918757	0.470693	-0.069078
H67	H	0.928405	0.480343	0.069060
H68	H	0.760876	0.485267	-0.000020
H69	H	1.395562	-0.057347	-0.000023
H70	H	1.087953	0.102508	-0.519669
C71	C	0.725882	0.016854	-0.000007
H72	H	0.652468	0.021847	0.000001
H73	H	0.740239	-0.024571	-0.069067
H74	H	0.749888	-0.014904	0.069072
H75	H	1.413580	0.428320	-0.480387
H76	H	0.939091	0.068645	-0.000006
C77	C	1.084971	0.099625	-0.275685
H78	H	1.100747	0.115432	-0.192509
H79	H	1.013855	0.110569	-0.296157
H80	H	1.095894	0.028487	-0.296091
