data_functionalizedCrystal
_audit_creation_method	'MofGen! by Chris Wilmer'
_symmetry_space_group_name_H-M	'P1'
_symmetry_Int_Tables_number	1
_symmetry_cell_setting	triclinic
loop_
_symmetry_equiv_pos_as_xyz
  x,y,z
_cell_length_a	14.519709
_cell_length_b	11.792241
_cell_length_c	10.868271
_cell_angle_alpha	90.005281
_cell_angle_beta	90.001299
_cell_angle_gamma	96.063220
loop_
_atom_site_label
_atom_site_type_symbol
_atom_site_fract_x
_atom_site_fract_y
_atom_site_fract_z
O1	O	1.224412	-0.148781	-0.102162
O2	O	1.557745	0.184552	0.231171
O3	O	1.891078	0.517886	0.564504
O4	O	0.955999	-0.166302	-0.102200
O5	O	1.289332	0.167032	0.231133
O6	O	1.622666	0.500365	0.564467
O7	O	1.096719	0.007665	-0.102172
O8	O	1.430052	0.340999	0.231162
O9	O	1.763386	0.674332	0.564495
O10	O	1.083692	-0.322748	-0.102191
O11	O	1.417025	0.010585	0.231143
O12	O	1.750358	0.343919	0.564476
O13	O	1.096707	0.007672	0.102473
O14	O	1.430041	0.341005	0.435806
O15	O	1.763374	0.674339	0.769140
O16	O	0.955987	-0.166295	0.102445
O17	O	1.289321	0.167038	0.435778
O18	O	1.622654	0.500372	0.769111
O19	O	1.224400	-0.148774	0.102482
O20	O	1.557733	0.184559	0.435816
O21	O	1.891067	0.517893	0.769149
Zn22	Zn	1.090192	-0.157533	0.134955
Zn23	Zn	1.423525	0.175800	0.468288
Zn24	Zn	1.756859	0.509133	0.801622
Zn25	Zn	1.090207	-0.157542	-0.134673
Zn26	Zn	1.423541	0.175791	0.198660
Zn27	Zn	1.756874	0.509124	0.531994
O28	O	1.083680	-0.322741	0.102454
O29	O	1.417013	0.010592	0.435787
O30	O	1.750347	0.343925	0.769121
C31	C	0.921630	-0.165482	0.000117
C32	C	1.254964	0.167852	0.333451
C33	C	1.588297	0.501185	0.666784
C34	C	0.819240	-0.163035	0.000103
C35	C	1.152573	0.170298	0.333437
C36	C	1.485907	0.503632	0.666770
N37	N	1.090188	-0.157527	0.318969
N38	N	1.423521	0.175807	0.652303
N39	N	1.756855	0.509140	0.985636
C40	C	1.095895	0.049955	0.000150
C41	C	1.429228	0.383288	0.333483
C42	C	1.762562	0.716622	0.666817
C43	C	1.093446	0.175955	0.000149
C44	C	1.426779	0.509289	0.333482
C45	C	1.760112	0.842622	0.666815
C46	C	0.444311	-0.154027	0.000160
C47	C	0.777645	0.179306	0.333493
C48	C	1.110978	0.512640	0.666826
C49	C	0.548628	-0.156528	0.000144
C50	C	0.881962	0.176805	0.333477
C51	C	1.215295	0.510138	0.666810
C52	C	0.631772	-0.158531	0.000130
C53	C	0.965106	0.174803	0.333464
C54	C	1.298439	0.508136	0.666797
C55	C	0.736096	-0.161033	0.000117
C56	C	1.069429	0.172301	0.333450
C57	C	1.402763	0.505634	0.666783
C58	C	1.258769	-0.149594	0.000162
C59	C	1.592102	0.183739	0.333495
C60	C	1.925435	0.517073	0.666829
C61	C	1.361159	-0.152041	0.000168
C62	C	1.694492	0.181292	0.333501
C63	C	2.027826	0.514626	0.666835
C64	C	1.084504	-0.365031	0.000129
C65	C	1.417838	-0.031698	0.333463
C66	C	1.751171	0.301636	0.666796
C67	C	1.086954	-0.491031	0.000123
C68	C	1.420287	-0.157698	0.333456
C69	C	1.753620	0.175636	0.666789
C70	C	1.088942	0.406642	0.000127
C71	C	1.422275	0.739976	0.333461
C72	C	1.755608	1.073309	0.666794
C73	C	1.091444	0.278271	0.000139
C74	C	1.424777	0.611604	0.333472
C75	C	1.758111	0.944938	0.666806
N76	N	1.090218	-0.157540	-0.318687
N77	N	1.423552	0.175793	0.014646
N78	N	1.756885	0.509126	0.347980
C79	C	1.090202	-0.157540	0.569975
C80	C	1.423536	0.175793	0.903309
C81	C	1.756869	0.509127	1.236642
C82	C	1.090191	-0.157536	0.430298
C83	C	1.423525	0.175797	0.763631
C84	C	1.756858	0.509131	1.096964
