data_functionalizedCrystal
_audit_creation_method	'MofGen! by Chris Wilmer'
_symmetry_space_group_name_H-M	'P1'
_symmetry_Int_Tables_number	1
_symmetry_cell_setting	triclinic
loop_
_symmetry_equiv_pos_as_xyz
  x,y,z
_cell_length_a	13.032831
_cell_length_b	19.121063
_cell_length_c	13.032268
_cell_angle_alpha	99.247498
_cell_angle_beta	90.886977
_cell_angle_gamma	85.565596
loop_
_atom_site_label
_atom_site_type_symbol
_atom_site_fract_x
_atom_site_fract_y
_atom_site_fract_z
Zn1	Zn	1.465022	-0.473659	-0.806576
Zn2	Zn	1.965022	0.026341	-0.306576
Zn3	Zn	1.479383	-0.578156	-0.640274
Zn4	Zn	1.979383	-0.078156	-0.140274
Zn5	Zn	1.316950	-0.444360	-0.611224
Zn6	Zn	1.816950	0.055640	-0.111224
Zn7	Zn	1.285899	-0.574364	-0.790193
Zn8	Zn	1.785899	-0.074364	-0.290193
O9	O	1.386814	-0.517635	-0.712067
O10	O	1.886814	-0.017635	-0.212067
O11	O	1.609870	-0.501370	-0.803529
O12	O	2.109870	-0.001370	-0.303529
O13	O	1.476841	-0.549733	-0.491924
O14	O	1.976841	-0.049733	0.008076
O15	O	1.343577	-0.350107	-0.631836
O16	O	1.843577	0.149893	-0.131836
O17	O	1.620421	-0.578143	-0.681348
O18	O	2.120421	-0.078143	-0.181348
O19	O	1.452365	-0.371633	-0.775360
O20	O	1.952365	0.128367	-0.275360
O21	O	1.357502	-0.451434	-0.470581
O22	O	1.857502	0.048566	0.029419
O23	O	1.169889	-0.447756	-0.615951
O24	O	1.669889	0.052244	-0.115951
O25	O	1.290655	-0.571680	-0.936863
O26	O	1.790655	-0.071680	-0.436863
O27	O	1.147076	-0.543270	-0.747439
O28	O	1.647076	-0.043270	-0.247439
O29	O	1.422256	-0.497693	-0.948899
O30	O	1.922256	0.002307	-0.448899
O31	O	1.446733	-0.675793	-0.665463
O32	O	1.946733	-0.175793	-0.165463
O33	O	1.304581	-0.673007	-0.775608
O34	O	1.804581	-0.173007	-0.275608
C35	C	1.121419	-0.491923	-0.676766
C36	C	1.621419	0.008077	-0.176766
C37	C	1.007877	-0.480942	-0.661690
C38	C	1.507877	0.019058	-0.161690
C39	C	0.946005	-0.523366	-0.719935
C40	C	1.446005	-0.023366	-0.219935
C41	C	0.828653	-0.512018	-0.704355
C42	C	1.328653	-0.012018	-0.204355
C43	C	1.373870	-0.699851	-0.721936
C44	C	1.873870	-0.199851	-0.221936
C45	C	1.368422	-0.777815	-0.726206
C46	C	1.868422	-0.277815	-0.226206
C47	C	1.439917	-0.815879	-0.670926
C48	C	1.939917	-0.315879	-0.170926
C49	C	1.434798	-0.889136	-0.674948
C50	C	1.934798	-0.389136	-0.174948
C51	C	1.358179	-0.924327	-0.734244
C52	C	1.858179	-0.424327	-0.234244
C53	C	1.286681	-0.886258	-0.789530
C54	C	1.786681	-0.386258	-0.289530
C55	C	1.291805	-0.813003	-0.785514
C56	C	1.791805	-0.313003	-0.285514
C57	C	1.339006	-1.145437	-0.749244
C58	C	1.839006	-0.645437	-0.249244
C59	C	1.333886	-1.218697	-0.753254
C60	C	1.833886	-0.718697	-0.253254
C61	C	1.482005	-1.221570	-0.638672
C62	C	1.982005	-0.721570	-0.138672
C63	C	1.487118	-1.148313	-0.634656
C64	C	1.987118	-0.648313	-0.134656
C65	C	1.415624	-1.110251	-0.689946
C66	C	1.915624	-0.610251	-0.189946
C67	C	1.352943	-0.999207	-0.738354
C68	C	1.852943	-0.499207	-0.238354
C69	C	1.420865	-1.035374	-0.685842
C70	C	1.920865	-0.535374	-0.185842
C71	C	1.653245	-0.543448	-0.747506
C72	C	2.153245	-0.043448	-0.247506
C73	C	1.766782	-0.554448	-0.762608
C74	C	2.266782	-0.054448	-0.262608
C75	C	1.351390	-0.537532	-0.981395
C76	C	1.851390	-0.037532	-0.481395
C77	C	1.336295	-0.546011	-1.096167
C78	C	1.836295	-0.046011	-0.596167
C79	C	1.399833	-0.334712	-0.702185
C80	C	1.899833	0.165288	-0.202185
C81	C	1.405381	-0.256761	-0.697974
C82	C	1.905381	0.243239	-0.197974
C83	C	1.394678	-0.513183	-1.153291
C84	C	1.894678	-0.013183	-0.653291
C85	C	1.379078	-0.521945	-1.271914
C86	C	1.879078	-0.021945	-0.771914
C87	C	1.422162	-0.497771	-0.443791
C88	C	1.922162	0.002229	0.056209
C89	C	1.437469	-0.489113	-0.329036
C90	C	1.937469	0.010887	0.170964
H91	H	0.979912	-0.568086	-0.781340
H92	H	1.479912	-0.068086	-0.281340
H93	H	1.540213	-1.252568	-0.593660
H94	H	2.040213	-0.752568	-0.093660
F95	F	1.298637	-0.567159	-1.322766
F96	F	1.798637	-0.067159	-0.822766
F97	F	0.811087	-0.612900	-0.842884
F98	F	1.311087	-0.112900	-0.342884
F99	F	0.963564	-0.422482	-0.581437
F100	F	1.463564	0.077518	-0.081437
F101	F	1.262913	-1.104938	-0.808088
F102	F	1.762913	-0.604938	-0.308088
F103	F	1.252324	-1.256146	-0.816356
F104	F	1.752324	-0.756146	-0.316356
F105	F	0.784344	-0.453555	-0.624097
F106	F	1.284344	0.046445	-0.124097
F107	F	1.521461	-0.778433	-0.607807
F108	F	2.021461	-0.278433	-0.107807
F109	F	1.475089	-0.467951	-1.102430
F110	F	1.975089	0.032049	-0.602430
H111	H	1.493016	-0.920125	-0.629933
H112	H	1.993016	-0.420125	-0.129933
F113	F	1.568677	-1.110868	-0.571558
F114	F	2.068677	-0.610868	-0.071558
H115	H	1.224300	-0.914917	-0.837816
H116	H	1.724300	-0.414917	-0.337816
H117	H	1.274755	-0.580597	-1.135080
H118	H	1.774755	-0.080597	-0.635080
H119	H	1.499002	-0.454514	-1.290127
H120	H	1.999002	0.045486	-0.790127
F121	F	1.215712	-0.772493	-0.844353
F122	F	1.715712	-0.272493	-0.344353
F123	F	1.271401	-1.036665	-0.801459
F124	F	1.771401	-0.536665	-0.301459
H125	H	1.483252	-1.006720	-0.637567
H126	H	1.983252	-0.506720	-0.137567
