data_functionalizedCrystal
_audit_creation_method	'MofGen! by Chris Wilmer'
_symmetry_space_group_name_H-M	'P1'
_symmetry_Int_Tables_number	1
_symmetry_cell_setting	triclinic
loop_
_symmetry_equiv_pos_as_xyz
  x,y,z
_cell_length_a	27.732048
_cell_length_b	27.732048
_cell_length_c	26.210047
_cell_angle_alpha	90.000479
_cell_angle_beta	89.996535
_cell_angle_gamma	97.357345
loop_
_atom_site_label
_atom_site_type_symbol
_atom_site_fract_x
_atom_site_fract_y
_atom_site_fract_z
O1	O	0.640931	-0.057510	-0.042369
O2	O	0.500138	-0.066256	-0.042385
O3	O	0.574907	0.008514	-0.042367
O4	O	0.566162	-0.132279	-0.042387
O5	O	0.574893	0.008502	0.042491
O6	O	0.500123	-0.066267	0.042473
O7	O	0.640917	-0.057522	0.042489
Cu8	Cu	0.570519	-0.061896	0.050229
Cu9	Cu	0.570536	-0.061882	-0.050125
O10	O	0.566147	-0.132291	0.042471
C11	C	0.482124	-0.066078	0.000042
C12	C	0.428469	-0.065525	0.000036
C13	C	0.089654	-0.106229	0.000053
C14	C	-0.112006	-0.104178	0.000057
O15	O	-0.143262	-0.141398	0.000074
N16	N	-0.131130	-0.059843	0.000063
C17	C	-0.099835	-0.016017	0.000071
O18	O	-0.120728	0.021740	0.000081
C19	C	0.101824	-0.018068	0.000069
C20	C	0.120944	-0.062407	0.000059
C21	C	0.108775	-0.150563	0.000043
C22	C	0.159187	-0.151076	0.000039
C23	C	0.190477	-0.107253	0.000045
C24	C	0.171356	-0.062919	0.000055
C25	C	0.133117	0.025757	0.000081
C26	C	0.183535	0.025240	0.000082
C27	C	0.202655	-0.019098	0.000071
C28	C	0.253059	-0.019609	0.000057
N29	N	0.272183	-0.063944	0.000051
C30	C	0.240892	-0.107766	0.000045
C31	C	-0.205709	-0.014943	0.000070
C32	C	-0.256124	-0.014430	0.000070
C33	C	-0.268291	-0.102591	0.000057
C34	C	-0.217876	-0.103104	0.000054
C35	C	-0.186585	-0.059278	0.000065
C36	C	0.346761	-0.108839	0.000036
C37	C	0.397178	-0.109347	0.000030
C38	C	0.409341	-0.021186	0.000045
C39	C	0.358929	-0.020678	0.000049
C40	C	0.327639	-0.064508	0.000046
O41	O	0.284343	0.017592	0.000046
O42	O	0.261794	-0.145518	0.000047
C43	C	0.039242	-0.105716	0.000057
C44	C	0.020120	-0.061382	0.000067
C45	C	0.051411	-0.017560	0.000073
C46	C	-0.030294	-0.060869	0.000066
C47	C	-0.061585	-0.104691	0.000060
C48	C	-0.042461	-0.149026	0.000054
C49	C	0.007951	-0.149539	0.000050
C50	C	0.032287	0.026775	0.000078
C51	C	-0.018125	0.027284	0.000082
C52	C	-0.049416	-0.016538	0.000076
C53	C	0.574716	0.026515	0.000064
C54	C	0.574164	0.080170	0.000068
C55	C	0.658931	-0.057699	0.000061
C56	C	0.712586	-0.058252	0.000064
C57	C	0.566338	-0.150292	0.000040
C58	C	0.566891	-0.203947	0.000032
N59	N	0.570510	-0.061905	0.120813
C60	C	0.614867	0.418985	0.000046
C61	C	0.612816	0.620645	0.000039
O62	O	0.650037	0.651900	0.000021
N63	N	0.568481	0.639768	0.000034
C64	C	0.524656	0.608474	0.000028
O65	O	0.486899	0.629367	0.000019
C66	C	0.526707	0.406815	0.000032
C67	C	0.571045	0.387694	0.000042
C68	C	0.659202	0.399864	0.000056
C69	C	0.659714	0.349452	0.000060
C70	C	0.615892	0.318161	0.000056
C71	C	0.571557	0.337282	0.000046
C72	C	0.482882	0.375521	0.000022
C73	C	0.483399	0.325104	0.000022
C74	C	0.527737	0.305983	0.000032
C75	C	0.528247	0.255580	0.000046
N76	N	0.572583	0.236456	0.000051
C77	C	0.616405	0.267747	0.000056
C78	C	0.523582	0.714348	0.000027
C79	C	0.523069	0.764762	0.000027
C80	C	0.611230	0.776930	0.000037
C81	C	0.611742	0.726514	0.000041
C82	C	0.567917	0.695224	0.000032
C83	C	0.617477	0.161878	0.000066
C84	C	0.617986	0.111461	0.000073
C85	C	0.529825	0.099298	0.000060
C86	C	0.529316	0.149710	0.000056
C87	C	0.573147	0.180999	0.000057
O88	O	0.491047	0.224296	0.000059
O89	O	0.654156	0.246844	0.000054
C90	C	0.614355	0.469397	0.000042
C91	C	0.570021	0.488518	0.000033
C92	C	0.526198	0.457228	0.000028
C93	C	0.569508	0.538933	0.000033
C94	C	0.613330	0.570223	0.000037
C95	C	0.657665	0.551100	0.000042
C96	C	0.658177	0.500688	0.000046
C97	C	0.481863	0.476351	0.000023
C98	C	0.481355	0.526764	0.000019
C99	C	0.525177	0.558054	0.000024
N100	N	0.570548	-0.061868	-0.120709
C101	C	0.603640	-0.028781	0.473336
C102	C	0.603651	-0.028774	0.686994
O103	O	0.631801	-0.000614	0.714623
N104	N	0.570538	-0.061871	0.713707
C105	C	0.537419	-0.094970	0.687003
O106	O	0.509251	-0.123117	0.714626
C107	C	0.537406	-0.094974	0.473345
C108	C	0.570524	-0.061878	0.446635
C109	C	0.636755	0.004312	0.446625
C110	C	0.636754	0.004308	0.393214
C111	C	0.603638	-0.028789	0.366513
C112	C	0.570523	-0.061882	0.393223
C113	C	0.504284	-0.128070	0.446641
C114	C	0.504283	-0.128067	0.393223
C115	C	0.537401	-0.094971	0.366513
C116	C	0.537405	-0.094983	0.313111
N117	N	0.570518	-0.061886	0.286397
C118	C	0.603634	-0.028789	0.313098
C119	C	0.537428	-0.094966	0.799176
C120	C	0.537432	-0.094965	0.852590
C121	C	0.603664	-0.028769	0.852578
C122	C	0.603662	-0.028773	0.799163
C123	C	0.570541	-0.061869	0.772463
C124	C	0.603629	-0.028800	0.200931
C125	C	0.603626	-0.028808	0.147514
C126	C	0.537393	-0.095002	0.147531
C127	C	0.537397	-0.094996	0.200943
C128	C	0.570517	-0.061891	0.227641
O129	O	0.509267	-0.123125	0.285449
O130	O	0.631790	-0.000639	0.285466
C131	C	0.603641	-0.028777	0.526747
C132	C	0.570527	-0.061871	0.553457
C133	C	0.537410	-0.094968	0.526756
C134	C	0.570530	-0.061870	0.606872
C135	C	0.603646	-0.028773	0.633573
C136	C	0.636759	0.004323	0.606859
C137	C	0.636758	0.004320	0.553448
C138	C	0.504298	-0.128064	0.553470
C139	C	0.504302	-0.128058	0.606881
C140	C	0.537418	-0.094961	0.633582
H141	H	0.174750	-0.187180	0.000030
H142	H	0.647846	0.710950	0.000048
C143	C	0.112095	0.074529	0.000100
H144	H	0.137958	0.100550	0.000111
H145	H	0.092682	0.076577	-0.029489
H146	H	0.092684	0.076555	0.029699
H147	H	-0.033688	0.063392	0.000086
H148	H	0.209009	0.060929	0.000091
H149	H	0.694889	0.425336	0.000058
C150	C	0.640062	0.007613	0.230291
H151	H	0.659784	0.027316	0.206727
H152	H	0.622831	0.027621	0.251130
H153	H	0.660056	-0.009639	0.251125
H154	H	-0.293777	-0.138273	0.000053
C155	C	0.666759	0.090431	0.000080
H156	H	0.692784	0.116290	0.000077
H157	H	0.668790	0.071018	0.029673
H158	H	0.668797	0.071017	-0.029514
H159	H	0.434827	0.014492	0.000048
C160	C	0.481623	0.064874	0.000052
H161	H	0.455142	0.083479	0.000049
H162	H	0.480002	0.044955	-0.029540
H163	H	0.479985	0.044955	0.029647
H164	H	0.630629	-0.001823	0.777418
H165	H	0.487892	0.688875	0.000020
H166	H	0.447710	0.299629	0.000014
H167	H	0.663725	0.031269	0.531704
H168	H	0.412743	-0.145454	0.000021
H169	H	0.694282	0.485125	0.000054
C170	C	0.467852	-0.164477	0.363856
H171	H	0.448133	-0.184187	0.387417
H172	H	0.447860	-0.147229	0.343019
H173	H	0.485089	-0.184484	0.343021
C174	C	0.074362	-0.198772	0.000031
H175	H	0.092978	-0.225245	0.000021
H176	H	0.054436	-0.200417	0.029620
H177	H	0.054449	-0.200400	-0.029567
H178	H	-0.271687	0.021674	0.000070
C179	C	0.432579	0.547791	0.000007
H180	H	0.406556	0.521931	-0.000001
H181	H	0.430535	0.567208	0.029594
H182	H	0.430554	0.567199	-0.029593
C183	C	0.312350	-0.157051	0.000027
H184	H	0.330965	-0.183525	0.000015
H185	H	0.292427	-0.158696	0.029617
H186	H	0.292434	-0.158678	-0.029570
H187	H	0.343360	0.015426	0.000050
H188	H	0.653168	0.187348	0.000065
C189	C	0.480546	0.170744	0.000044
H190	H	0.454521	0.144886	0.000039
H191	H	0.478504	0.190164	0.029630
H192	H	0.478523	0.190151	-0.029558
C193	C	0.705868	0.585526	0.000043
H194	H	0.699208	0.618288	0.000035
H195	H	0.724064	0.579770	0.029635
H196	H	0.724065	0.579763	-0.029552
H197	H	0.695819	0.333889	0.000066
H198	H	0.446177	0.450879	0.000018
H199	H	0.630629	-0.001821	0.874327
C200	C	0.659433	0.811355	0.000034
H201	H	0.652773	0.844117	0.000028
H202	H	0.677632	0.805600	0.029624
H203	H	0.677627	0.805593	-0.029563
C204	C	0.640055	0.007601	0.118136
H205	H	0.659774	0.027315	0.141691
H206	H	0.660047	-0.009649	0.097297
H207	H	0.622815	0.027605	0.097301
H208	H	0.023514	-0.185643	0.000042
H209	H	-0.067947	-0.184708	0.000047
C210	C	0.673178	0.040719	0.363839
H211	H	0.692895	0.060432	0.387397
H212	H	0.693172	0.023475	0.342998
H213	H	0.655937	0.060724	0.343007
H214	H	0.510434	-0.121950	0.222691
H215	H	0.663725	0.031271	0.628608
C216	C	0.467871	-0.164476	0.524106
H217	H	0.448156	-0.184187	0.547669
H218	H	0.447877	-0.147233	0.503267
H219	H	0.485111	-0.184483	0.503272
H220	H	0.057760	0.062462	0.000085
C221	C	0.474297	0.785790	0.000021
H222	H	0.448274	0.759930	0.000013
H223	H	0.472255	0.805204	0.029611
H224	H	0.472270	0.805201	-0.029577
H225	H	0.446777	0.391080	0.000011
C226	C	0.467868	-0.164464	0.636257
H227	H	0.448143	-0.184170	0.612700
H228	H	0.485096	-0.184469	0.657097
H229	H	0.447877	-0.147205	0.657090
C230	C	-0.171296	0.033268	0.000076
H231	H	-0.189910	0.059742	0.000074
H232	H	-0.151377	0.034903	0.029667
H233	H	-0.151375	0.034905	-0.029520
C234	C	-0.196847	-0.151875	0.000047
H235	H	-0.222707	-0.177898	0.000046
H236	H	-0.177430	-0.153906	-0.029543
H237	H	-0.177439	-0.153913	0.029644
H238	H	0.663722	0.031266	0.468360
H239	H	0.510456	-0.121918	0.777440
C240	C	0.501003	-0.131371	0.881966
H241	H	0.481277	-0.151076	0.858409
H242	H	0.518233	-0.151377	0.902803
H243	H	0.481012	-0.114114	0.902802
H244	H	0.477317	-0.155019	0.468381
H245	H	0.510432	-0.121951	0.125783
