data_functionalizedCrystal
_audit_creation_method	'MofGen! by Chris Wilmer'
_symmetry_space_group_name_H-M	'P1'
_symmetry_Int_Tables_number	1
_symmetry_cell_setting	triclinic
loop_
_symmetry_equiv_pos_as_xyz
  x,y,z
_cell_length_a	14.853567
_cell_length_b	14.971486
_cell_length_c	13.448316
_cell_angle_alpha	90.001801
_cell_angle_beta	89.997194
_cell_angle_gamma	96.375471
loop_
_atom_site_label
_atom_site_type_symbol
_atom_site_fract_x
_atom_site_fract_y
_atom_site_fract_z
O1	O	0.117488	-1.186969	-0.082569
O2	O	0.131557	-0.926571	-0.082595
O3	O	-0.006709	-1.063725	-0.082584
O4	O	0.255753	-1.049814	-0.082580
O5	O	-0.006717	-1.063708	0.082800
O6	O	0.131549	-0.926554	0.082789
O7	O	0.117479	-1.186951	0.082815
Cu8	Cu	0.124513	-1.056751	0.097903
Cu9	Cu	0.124523	-1.056771	-0.097683
O10	O	0.255745	-1.049797	0.082804
C11	C	0.130924	-0.893238	0.000093
C12	C	0.129038	-0.793940	0.000083
C13	C	-0.040301	-1.063087	0.000105
C14	C	-0.140385	-1.061198	0.000096
C15	C	0.118113	-1.220285	0.000124
C16	C	0.119998	-1.319582	0.000128
C17	C	-0.552902	-0.971740	0.000106
C18	C	-0.574213	-1.134683	0.000122
C19	C	-0.480180	-1.136459	0.000116
C20	C	-0.422503	-1.055874	0.000107
C21	C	-0.458860	-0.973514	0.000103
C22	C	-0.443816	-1.218818	0.000130
C23	C	-0.349777	-1.220597	0.000126
C24	C	-0.292099	-1.140012	0.000109
C25	C	-0.328461	-1.057648	0.000104
C26	C	-0.270784	-0.977064	0.000095
C27	C	-0.307144	-0.894699	0.000083
C28	C	-0.401181	-0.892928	0.000087
C29	C	-0.198061	-1.141782	0.000105
C30	C	-0.176741	-0.978837	0.000092
C31	C	0.289338	-1.050436	0.000113
C32	C	0.389421	-1.052325	0.000115
N33	N	0.124505	-1.056743	0.235467
C34	C	0.210265	-0.736730	0.000086
C35	C	0.208488	-0.643430	0.000101
C36	C	0.125483	-0.607342	0.000106
C37	C	0.044249	-0.664560	0.000106
C38	C	0.046027	-0.757858	0.000098
C39	C	0.040549	-0.470097	0.000119
C40	C	0.038771	-0.376793	0.000125
C41	C	0.203010	-0.355669	0.000122
C42	C	0.204788	-0.448967	0.000114
C43	C	0.123554	-0.506178	0.000113
N44	N	0.124524	-1.056786	-0.235247
C45	C	0.063307	-1.117494	0.287512
C46	C	0.063306	-1.117500	0.391615
C47	C	0.124509	-1.056758	0.443672
C48	C	0.185711	-0.996001	0.391619
C49	C	0.185707	-0.995991	0.287518
C50	C	0.185717	-0.996025	0.608599
C51	C	0.185723	-0.996036	0.712708
C52	C	0.063316	-1.117534	0.712697
C53	C	0.063312	-1.117525	0.608595
C54	C	0.124515	-1.056768	0.556550
H55	H	-0.129786	-0.913214	0.000080
C56	C	-0.058495	-0.284124	0.085162
C57	C	-0.052470	-0.337125	0.000142
H58	H	-0.114823	-0.259633	0.085169
H59	H	-0.054388	-0.320084	0.142821
H60	H	-0.010368	-0.236702	0.085146
H61	H	-0.100594	-0.384552	0.000162
H62	H	-0.056586	-0.301163	-0.057531
C63	C	-0.411982	-0.753506	-0.084948
C64	C	-0.441154	-0.802401	0.000078
H65	H	-0.436669	-0.697623	-0.084953
H66	H	-0.347731	-0.743025	-0.084946
H67	H	-0.431777	-0.786708	-0.142609
H68	H	-0.421353	-0.769202	0.057740
H69	H	-0.505419	-0.812880	0.000085
H70	H	-0.260172	-0.829087	0.000082
H71	H	0.013483	-1.167003	0.755078
C72	C	-0.585835	-1.295923	0.000135
C73	C	-0.637607	-1.223259	0.000133
H74	H	-0.624977	-1.350607	0.000146
H75	H	-0.548717	-1.293230	-0.057537
H76	H	-0.548710	-1.293217	0.057809
H77	H	-0.674728	-1.225961	-0.057545
H78	H	-0.674741	-1.225953	0.057811
C79	C	-0.121977	-0.481611	0.000102
C80	C	-0.048744	-0.532986	0.000107
H81	H	-0.177100	-0.520438	0.000082
H82	H	-0.119265	-0.444791	0.057777
H83	H	-0.119239	-0.444773	-0.057569
H84	H	-0.051479	-0.569820	0.057782
H85	H	-0.051458	-0.569822	-0.057575
C86	C	-0.215093	-1.295672	0.000120
C87	C	-0.309813	-1.311129	0.000129
H88	H	-0.190422	-1.351564	0.000124
H89	H	-0.195313	-1.262498	-0.057553
H90	H	-0.195308	-1.262484	0.057794
H91	H	-0.329598	-1.344312	-0.057549
H92	H	-0.329601	-1.344318	0.057807
C93	C	0.306687	-0.875908	0.702268
C94	C	0.252980	-0.929251	0.769931
H95	H	0.348201	-0.834672	0.737598
H96	H	0.339194	-0.913161	0.661663
H97	H	0.269086	-0.843704	0.661666
H98	H	0.290581	-0.961461	0.810528
H99	H	0.220471	-0.891994	0.810553
H100	H	-0.582511	-0.904681	0.000092
H101	H	0.272378	-0.478346	0.000101
H102	H	0.235540	-0.946521	0.245144
H103	H	0.235552	-0.946548	0.566228
C104	C	0.205073	-0.874317	0.508717
C105	C	0.252985	-0.929233	0.448842
H106	H	0.246609	-0.833102	0.544047
H107	H	0.167499	-0.842096	0.468116
H108	H	0.168628	-0.910512	0.554607
H109	H	0.289425	-0.893038	0.402947
H110	H	0.290575	-0.961456	0.489447
H111	H	-0.490782	-1.284425	0.000147
H112	H	0.269154	-0.309082	0.000128
C113	C	-0.116493	-0.769373	0.000085
C114	C	-0.043260	-0.820748	0.000086
H115	H	-0.171616	-0.808200	0.000073
H116	H	-0.113776	-0.732550	0.057758
H117	H	-0.113760	-0.732538	-0.057589
H118	H	-0.045990	-0.857579	0.057763
H119	H	-0.045979	-0.857587	-0.057593
H120	H	-0.168461	-1.208842	0.000122
H121	H	-0.023335	-0.635171	0.000124
H122	H	0.277858	-0.766104	0.000081
H123	H	0.013472	-1.166961	0.245135
C124	C	0.371007	-0.631921	0.000083
C125	C	0.297776	-0.580544	0.000099
H126	H	0.426131	-0.593096	0.000078
H127	H	0.368285	-0.668752	0.057748
H128	H	0.368276	-0.668749	-0.057598
H129	H	0.300504	-0.543721	0.057785
H130	H	0.300500	-0.543697	-0.057571
C131	C	-0.057661	-1.237616	0.381148
C132	C	-0.003952	-1.184293	0.448823
H133	H	-0.099178	-1.278859	0.416468
H134	H	-0.090165	-1.200351	0.340561
H135	H	-0.020062	-1.269814	0.340529
H136	H	-0.041551	-1.152090	0.489437
H137	H	0.028554	-1.221563	0.489427
H138	H	0.013480	-1.166989	0.566211
