data_functionalizedCrystal
_audit_creation_method	'MofGen! by Chris Wilmer'
_symmetry_space_group_name_H-M	'P1'
_symmetry_Int_Tables_number	1
_symmetry_cell_setting	triclinic
loop_
_symmetry_equiv_pos_as_xyz
  x,y,z
_cell_length_a	10.686220
_cell_length_b	19.121063
_cell_length_c	10.685314
_cell_angle_alpha	96.571402
_cell_angle_beta	98.357559
_cell_angle_gamma	96.652836
loop_
_atom_site_label
_atom_site_type_symbol
_atom_site_fract_x
_atom_site_fract_y
_atom_site_fract_z
Zn1	Zn	1.866746	-0.224825	-0.587630
Zn2	Zn	1.873842	-0.333323	-0.384384
Zn3	Zn	1.670751	-0.224884	-0.391670
Zn4	Zn	1.643794	-0.352915	-0.614444
O5	O	1.763783	-0.283987	-0.494532
O6	O	2.045988	-0.230994	-0.546398
O7	O	1.861153	-0.310763	-0.207059
O8	O	1.705062	-0.125888	-0.409492
O9	O	2.051201	-0.310707	-0.397074
O10	O	1.849058	-0.125845	-0.553463
O11	O	1.711943	-0.231094	-0.212412
O12	O	1.488874	-0.250091	-0.435493
O13	O	1.659117	-0.344098	-0.789179
O14	O	1.469069	-0.344155	-0.599164
O15	O	1.822919	-0.249992	-0.769478
O16	O	1.835014	-0.434910	-0.423075
O17	O	1.665998	-0.449304	-0.592099
C18	C	1.432740	-0.299256	-0.521030
C19	C	1.291115	-0.305807	-0.532397
C20	C	1.748383	-0.467773	-0.509731
C21	C	1.741908	-0.546394	-0.516266
C22	C	1.826922	-0.575813	-0.431397
C23	C	1.820839	-0.649687	-0.437550
C24	C	1.729736	-0.694140	-0.528568
C25	C	1.644719	-0.664716	-0.613446
C26	C	1.650808	-0.590844	-0.607298
C27	C	1.706950	-0.917562	-0.551537
C28	C	1.700864	-0.991439	-0.557677
C29	C	1.876987	-0.976404	-0.381782
C30	C	1.883063	-0.902531	-0.375637
C31	C	1.798050	-0.873114	-0.460519
C32	C	1.723514	-0.769650	-0.534857
C33	C	1.804279	-0.797605	-0.454235
C34	C	2.096119	-0.268658	-0.467932
C35	C	2.237740	-0.262126	-0.456597
C36	C	1.737219	-0.299224	-0.826850
C37	C	1.725899	-0.305717	-0.968464
C38	C	1.779276	-0.099482	-0.479299
C39	C	1.785877	-0.020858	-0.472808
C40	C	1.790321	-0.268754	-0.163497
C41	C	1.801904	-0.262050	-0.021848
H42	H	1.228457	-0.348221	-0.605987
Cl43	Cl	1.612057	-0.371113	-1.065169
H44	H	1.300392	-0.219719	-0.383003
H45	H	1.901102	-0.539623	-0.357276
Cl46	Cl	1.530195	-0.720600	-0.727876
H47	H	1.637727	-0.893617	-0.620650
H48	H	1.946201	-1.000364	-0.312677
H49	H	1.890065	-0.673635	-0.368440
H50	H	1.875624	-0.219692	-0.959213
H51	H	1.957246	-0.866338	-0.301523
H52	H	1.649335	-0.805852	-0.608962
Cl53	Cl	1.586311	-1.047323	-0.672093
H54	H	1.878460	-0.761409	-0.380132
Cl55	Cl	1.543933	-0.553860	-0.713999
