data_functionalizedCrystal
_audit_creation_method	'MofGen! by Chris Wilmer'
_symmetry_space_group_name_H-M	'P1'
_symmetry_Int_Tables_number	1
_symmetry_cell_setting	triclinic
loop_
_symmetry_equiv_pos_as_xyz
  x,y,z
_cell_length_a	27.731993
_cell_length_b	27.732064
_cell_length_c	14.472310
_cell_angle_alpha	90.002961
_cell_angle_beta	89.998550
_cell_angle_gamma	82.634907
loop_
_atom_site_label
_atom_site_type_symbol
_atom_site_fract_x
_atom_site_fract_y
_atom_site_fract_z
O1	O	0.640954	0.057388	-0.076585
O2	O	0.500158	0.066161	-0.076640
O3	O	0.574925	-0.008623	-0.076614
O4	O	0.566187	0.132171	-0.076611
O5	O	0.574905	-0.008618	0.077068
O6	O	0.500138	0.066165	0.077042
O7	O	0.640935	0.057392	0.077097
Cu8	Cu	0.570535	0.061779	0.091102
Cu9	Cu	0.570558	0.061774	-0.090645
O10	O	0.566168	0.132176	0.077071
C11	C	0.482141	0.065983	0.000194
C12	C	0.428484	0.065441	0.000172
C13	C	0.045334	0.061507	-0.083555
C14	C	0.246992	0.063574	-0.083580
O15	O	0.273074	0.063820	-0.154827
N16	N	0.272202	0.063836	0.000190
C17	C	0.246994	0.063577	0.083973
O18	O	0.273065	0.063841	0.155224
C19	C	0.045338	0.061506	0.083997
C20	C	0.020130	0.061250	0.000221
C21	C	0.020126	0.061251	-0.167324
C22	C	-0.030285	0.060737	-0.167317
C23	C	-0.055489	0.060479	-0.083541
C24	C	-0.030281	0.060736	0.000228
C25	C	0.020133	0.061244	0.167778
C26	C	-0.030285	0.060725	0.167777
C27	C	-0.055492	0.060469	0.084001
C28	C	-0.105897	0.059964	0.084011
N29	N	-0.131107	0.059703	0.000241
C30	C	-0.105903	0.059961	-0.083535
C31	C	0.352867	0.064665	0.083954
C32	C	0.403280	0.065183	0.083948
C33	C	0.403274	0.065180	-0.083605
C34	C	0.352859	0.064665	-0.083598
C35	C	0.327657	0.064404	0.000184
C36	C	-0.211771	0.058882	-0.083514
C37	C	-0.262188	0.058370	-0.083499
C38	C	-0.262177	0.058370	0.084053
C39	C	-0.211765	0.058885	0.084039
C40	C	-0.186563	0.059139	0.000248
O41	O	-0.132009	0.059713	0.155220
O42	O	-0.131980	0.059685	-0.154775
C43	C	0.095746	0.062022	-0.083562
C44	C	0.120954	0.062278	0.000207
C45	C	0.095750	0.062021	0.083983
C46	C	0.171368	0.062797	0.000201
C47	C	0.196571	0.063054	-0.083575
C48	C	0.171361	0.062793	-0.167345
C49	C	0.120950	0.062279	-0.167338
C50	C	0.120960	0.062282	0.167753
C51	C	0.171372	0.062796	0.167739
C52	C	0.196575	0.063054	0.083963
C53	C	0.574730	-0.026627	0.000224
C54	C	0.574174	-0.080282	0.000215
C55	C	0.526206	-0.457345	0.000192
C56	C	0.528252	-0.255685	0.000192
O57	O	0.491030	-0.224425	0.000141
N58	N	0.572588	-0.236566	0.000209
C59	C	0.616415	-0.267866	0.000221
O60	O	0.654172	-0.246977	0.000226
C61	C	0.614368	-0.469525	0.000214
C62	C	0.570030	-0.488641	0.000207
C63	C	0.481871	-0.476461	0.000184
C64	C	0.481360	-0.526873	0.000189
C65	C	0.525184	-0.558169	0.000203
C66	C	0.569518	-0.539053	0.000212
C67	C	0.658194	-0.500824	0.000219
C68	C	0.657679	-0.551241	0.000215
C69	C	0.613340	-0.570357	0.000207
C70	C	0.612831	-0.620761	0.000231
N71	N	0.568496	-0.639879	0.000214
C72	C	0.524672	-0.608584	0.000200
C73	C	0.617486	-0.161992	0.000226
C74	C	0.617998	-0.111577	0.000229
C75	C	0.529835	-0.099400	0.000199
C76	C	0.529324	-0.149815	0.000202
C77	C	0.573151	-0.181111	0.000208
C78	C	0.523602	-0.714453	0.000211
C79	C	0.523095	-0.764870	0.000220
C80	C	0.611257	-0.777043	0.000246
C81	C	0.611765	-0.726630	0.000241
C82	C	0.567933	-0.695336	0.000221
O83	O	0.650033	-0.652049	0.000272
O84	O	0.486920	-0.629482	0.000174
C85	C	0.526717	-0.406933	0.000187
C86	C	0.571052	-0.387817	0.000196
C87	C	0.614875	-0.419112	0.000210
C88	C	0.571564	-0.337402	0.000199
C89	C	0.527740	-0.306107	0.000185
C90	C	0.483404	-0.325225	0.000168
C91	C	0.482893	-0.375637	0.000173
C92	C	0.659211	-0.399994	0.000228
C93	C	0.659718	-0.349581	0.000224
C94	C	0.615895	-0.318285	0.000209
C95	C	0.658952	0.057570	0.000261
C96	C	0.712608	0.058112	0.000277
C97	C	0.566362	0.150180	0.000231
C98	C	0.566918	0.203834	0.000234
N99	N	0.570523	0.061782	0.218933
N100	N	0.570574	0.061766	-0.218476
C101	C	0.570557	0.061772	0.593024
C102	C	0.530418	0.101655	0.553844
C103	C	0.530509	0.101798	0.446756
C104	C	0.570540	0.061777	0.407433
C105	C	0.620896	0.072407	0.446291
C106	C	0.620670	0.072690	0.553412
C107	C	0.560790	0.011138	0.553547
C108	C	0.559630	0.011485	0.446419
C109	C	0.570533	0.061779	0.302545
C110	C	0.570567	0.061771	0.697912
H111	H	0.040642	0.061459	-0.235548
H112	H	0.100444	0.062070	0.235975
H113	H	0.629778	0.108898	0.419459
N114	N	0.706480	-0.433745	0.000257
H115	H	0.708246	-0.454940	-0.056708
H116	H	0.734613	-0.413946	0.000304
N117	N	0.661393	0.035655	0.587774
H118	H	0.647461	0.010503	0.626565
H119	H	0.679405	0.019246	0.533289
H120	H	0.494152	-0.073910	0.000191
N121	N	0.599561	-0.028177	0.587104
H122	H	0.632483	-0.020886	0.565436
H123	H	0.599038	-0.029342	0.656843
N124	N	-0.289377	0.058087	-0.173859
H125	H	-0.314437	0.087850	-0.177595
H126	H	-0.265725	0.058307	-0.226878
N127	N	0.480913	0.093487	0.411948
H128	H	0.458794	0.089698	0.466191
H129	H	0.466811	0.122193	0.373283
N130	N	0.510568	0.000782	0.412771
H131	H	0.503755	-0.031608	0.438066
H132	H	0.484604	0.027186	0.434686
H133	H	0.647868	-0.711066	0.000261
H134	H	0.191891	0.063009	0.235964
H135	H	0.492853	0.095488	0.579617
H136	H	0.536529	0.139026	0.580758
H137	H	0.486988	-0.780431	0.000218
H138	H	0.586995	-0.019554	0.419654
N139	N	0.434602	-0.442708	0.000173
H140	H	0.415246	-0.448822	-0.056800
H141	H	0.415279	-0.448839	0.057177
H142	H	0.191891	0.063005	-0.235559
N143	N	0.476328	-0.680704	0.000188
H144	H	0.448168	-0.700471	0.000185
H145	H	0.474612	-0.659519	0.057158
N146	N	0.325687	0.064383	0.174324
H147	H	0.349355	0.064302	0.227382
H148	H	0.300845	0.094310	0.178251
N149	N	0.430468	0.065463	0.174303
H150	H	0.447239	0.095654	0.178043
H151	H	0.406821	0.065201	0.227321
N152	N	-0.057469	0.060450	-0.257675
H153	H	-0.082531	0.090210	-0.261421
H154	H	-0.033813	0.060670	-0.310687
N155	N	0.706015	-0.480210	0.000208
H156	H	0.708197	-0.459561	0.057174
H157	H	0.733669	-0.507716	0.000173
H158	H	0.654103	-0.096018	0.000250
N159	N	0.093765	0.062001	-0.257696
H160	H	0.117388	0.062241	-0.310762
H161	H	0.076994	0.031808	-0.261349
N162	N	-0.184593	0.059154	-0.173885
H163	H	-0.208218	0.058914	-0.226945
H164	H	-0.167820	0.089345	-0.177541
H165	H	0.332338	0.064456	-0.151815
H166	H	0.445255	-0.542432	0.000174
N167	N	0.481503	-0.170432	0.000197
H168	H	0.453821	-0.142952	0.000193
H169	H	0.479372	-0.191084	-0.056776
H170	H	0.653177	-0.187469	0.000232
H171	H	0.693369	-0.576720	0.000215
H172	H	0.423804	0.065391	-0.151818
N173	N	-0.184577	0.059167	0.174397
H174	H	-0.159518	0.029403	0.178129
H175	H	-0.167832	0.089375	0.178075
N176	N	0.658522	-0.810802	0.000269
H177	H	0.651467	-0.845639	0.000268
H178	H	0.677867	-0.804655	-0.056698
H179	H	0.446789	-0.391196	0.000168
H180	H	0.536708	0.139381	0.421127
N181	N	0.632147	0.121585	0.586512
H182	H	0.637305	0.142753	0.531517
H183	H	0.604171	0.137688	0.624833
N184	N	-0.289366	0.058095	0.174409
H185	H	-0.325212	0.058379	0.161700
H186	H	-0.276852	0.027881	0.210446
H187	H	0.447722	-0.299735	0.000162
H188	H	0.040648	0.061451	0.235997
H189	H	0.695827	-0.334022	0.000237
H190	H	-0.050802	0.060516	0.236003
H191	H	0.651463	0.044114	0.420818
H192	H	0.524887	0.000821	0.580600
