data_functionalizedCrystal
_audit_creation_method	'MofGen! by Chris Wilmer'
_symmetry_space_group_name_H-M	'P1'
_symmetry_Int_Tables_number	1
_symmetry_cell_setting	triclinic
loop_
_symmetry_equiv_pos_as_xyz
  x,y,z
_cell_length_a	14.395555
_cell_length_b	14.395555
_cell_length_c	18.760492
_cell_angle_alpha	59.995011
_cell_angle_beta	89.997508
_cell_angle_gamma	60.002087
loop_
_atom_site_label
_atom_site_type_symbol
_atom_site_fract_x
_atom_site_fract_y
_atom_site_fract_z
Zr1	Zr	0.894866	1.016886	-0.093619
O2	O	0.746546	1.210685	-0.207444
O3	O	0.940335	0.823082	-0.058717
O4	O	0.940341	1.016888	-0.207436
O5	O	0.746533	1.016879	0.058577
O6	O	1.093208	1.016895	-0.207439
O7	O	0.746540	1.016879	-0.058725
O8	O	1.093198	0.670211	0.058592
O9	O	0.746544	1.363563	-0.207453
O10	O	1.073809	0.902803	-0.043844
O11	O	0.959721	0.902798	0.043700
O12	O	0.959727	1.130980	-0.131397
O13	O	0.845639	1.130975	-0.043853
Zr14	Zr	1.138661	1.016897	0.093461
Zr15	Zr	1.138671	1.016897	-0.093623
Zr16	Zr	0.894855	1.016886	0.093465
Zr17	Zr	0.894862	1.260708	-0.093633
Zr18	Zr	1.138664	0.773075	0.093476
O19	O	1.093191	1.210701	0.058560
O20	O	1.093206	1.210701	-0.207450
O21	O	0.746531	1.210686	0.058566
O22	O	1.286981	0.823098	0.207286
O23	O	1.286995	0.823098	-0.058724
O24	O	0.940320	0.823082	0.207292
O25	O	1.286993	1.016904	-0.058735
O26	O	1.093185	1.016895	0.207278
O27	O	0.940318	1.016888	0.207281
O28	O	1.286986	1.016904	0.058568
O29	O	0.940337	1.363571	-0.207456
O30	O	1.093190	0.670212	0.207299
O31	O	1.286983	0.670220	0.207295
O32	O	1.286991	0.670220	0.058588
O33	O	0.746535	1.363563	-0.058746
O34	O	0.940328	1.363572	-0.058749
O35	O	1.073799	0.902804	0.131239
O36	O	1.187887	0.902809	0.043696
O37	O	1.073806	1.130985	-0.043858
O38	O	0.959718	1.130980	0.043686
C39	C	1.016767	0.711907	-0.000061
C40	C	1.016769	0.608398	-0.000055
C41	C	0.711800	1.016878	-0.000073
C42	C	0.608298	1.016873	-0.000071
C43	C	0.954547	0.485924	0.047648
C44	C	1.061819	0.471650	0.082269
C45	C	0.909517	0.624011	-0.034635
C46	C	1.124093	0.409685	0.034565
C47	C	0.971713	0.562109	-0.082384
C48	C	1.079049	0.547788	-0.047785
C49	C	0.609911	0.892461	0.047665
C50	C	0.516893	0.954655	0.082257
C51	C	0.516888	0.954684	-0.034639
C52	C	0.516642	1.079068	0.034569
C53	C	0.516652	1.079079	-0.082373
C54	C	0.423616	1.141364	-0.047801
C55	C	1.321727	1.016905	-0.000084
C56	C	1.425229	1.016910	-0.000086
C57	C	1.016776	1.016891	-0.234093
C58	C	1.016781	1.016891	-0.313515
C59	C	1.016759	1.321876	-0.000097
C60	C	1.016758	1.425385	-0.000103
C61	C	1.076300	0.897781	-0.603627
C62	C	0.957197	1.136001	-0.695030
C63	C	0.957205	1.136003	-0.620409
C64	C	1.016760	1.016892	-0.537393
C65	C	1.076307	0.897779	-0.528998
C66	C	0.897649	1.255114	-0.628798
C67	C	0.897654	1.255121	-0.554175
C68	C	0.957216	1.136008	-0.471157
C69	C	1.016766	1.016891	-0.462764
C70	C	1.076321	0.897780	-0.379749
C71	C	1.135879	0.778661	-0.371354
C72	C	1.135869	0.778667	-0.445980
C73	C	0.957226	1.136002	-0.396531
C74	C	1.076328	0.897778	-0.305120
C75	C	1.016750	1.016892	0.233935
C76	C	1.016746	1.016892	0.313357
C77	C	1.321731	0.711921	-0.000066
C78	C	1.425234	0.608417	-0.000062
C79	C	1.016754	0.711908	0.233953
C80	C	1.016751	0.608399	0.313381
C81	C	1.321718	0.711921	0.233948
C82	C	1.425216	0.608417	0.313374
C83	C	0.711809	1.321862	-0.234105
C84	C	0.608310	1.425366	-0.313532
C85	C	0.711796	1.321862	-0.000091
C86	C	0.608292	1.425366	-0.000096
C87	C	1.016772	1.321875	-0.234111
C88	C	1.016775	1.425384	-0.313539
C89	C	1.076297	0.559793	0.396384
C90	C	1.076290	0.462549	0.471023
C91	C	1.016742	0.413906	0.462657
C92	C	0.957189	0.462522	0.379645
C93	C	0.957190	0.559771	0.305008
C94	C	1.533383	0.559813	0.304977
C95	C	1.630641	0.462574	0.379599
C96	C	1.619729	0.413933	0.462618
C97	C	1.511550	0.462547	0.471014
C98	C	1.414295	0.559791	0.396392
C99	C	0.500143	1.473982	-0.305134
C100	C	0.402886	1.571251	-0.379757
C101	C	0.413798	1.619897	-0.462776
C102	C	0.521976	1.571277	-0.471172
C103	C	0.619231	1.474016	-0.396550
C104	C	1.076334	1.473996	-0.305145
C105	C	1.076360	1.571241	-0.379769
C106	C	1.016818	1.619878	-0.462787
C107	C	0.957258	1.571257	-0.471179
C108	C	0.957240	1.474007	-0.396556
C109	C	1.548021	0.547863	0.047645
C110	C	1.578881	0.409749	0.082224
C111	C	1.578791	0.562162	-0.034682
C112	C	1.454730	0.471603	0.034565
C113	C	1.454644	0.624089	-0.082386
C114	C	1.485430	0.485985	-0.047828
H115	H	0.902021	0.458664	0.088057
Cl116	Cl	0.535675	1.632440	-0.575545
Cl117	Cl	1.661532	0.268261	0.189659
H118	H	0.908735	1.434438	-0.403403
Cl119	Cl	1.766622	0.401474	0.369024
H120	H	1.573459	0.574937	0.088072
H121	H	0.491236	1.434380	-0.237543
H122	H	1.099951	0.434381	0.151882
Cl123	Cl	1.445830	0.444267	-0.110157
H124	H	0.343989	1.246651	-0.088167
H125	H	1.184358	0.681687	-0.439155
H126	H	0.334597	1.699093	-0.523530
Cl127	Cl	0.755209	1.412901	-0.407122
Cl128	Cl	0.266904	1.632348	-0.369182
H129	H	0.849160	1.352115	-0.561018
H130	H	1.214832	0.318121	0.063873
Cl131	Cl	1.151171	0.748039	-0.593074
Cl132	Cl	1.742005	0.291679	0.556421
H133	H	0.515963	0.902074	0.151853
H134	H	1.124820	1.434410	-0.237554
H135	H	1.124789	0.422978	0.538607
Cl136	Cl	1.151169	0.620920	0.406925
H137	H	1.131737	0.574758	-0.088136
H138	H	1.124859	1.610818	-0.372918
H139	H	1.016842	1.699065	-0.523543
Cl140	Cl	1.661366	0.619644	-0.079834
H141	H	0.908781	1.610872	-0.538782
H142	H	0.908705	1.232976	-0.762623
Cl143	Cl	0.912835	0.619553	-0.189827
Cl144	Cl	1.372391	0.413816	0.079843
Cl145	Cl	1.497851	0.401383	0.575388
H146	H	1.016751	0.334720	0.523438
H147	H	1.401113	0.715754	-0.151958
H148	H	0.818818	0.715614	-0.063861
Cl149	Cl	0.518159	1.160191	-0.189801
Cl150	Cl	1.278317	0.620874	0.406964
Cl151	Cl	0.517909	1.160191	0.079821
Cl152	Cl	0.733051	0.730043	0.110071
H153	H	0.908707	0.422903	0.372846
Cl154	Cl	0.882332	0.620856	0.200664
H155	H	0.515980	0.902079	-0.063868
H156	H	1.124829	0.800782	-0.237527
H157	H	1.184362	0.681681	-0.303753
Cl158	Cl	0.882366	1.285739	-0.407082
Cl159	Cl	0.822766	1.404843	-0.733159
H160	H	1.542290	0.599402	0.237385
