data_functionalizedCrystal
_audit_creation_method	'MofGen! by Chris Wilmer'
_symmetry_space_group_name_H-M	'P1'
_symmetry_Int_Tables_number	1
_symmetry_cell_setting	triclinic
loop_
_symmetry_equiv_pos_as_xyz
  x,y,z
_cell_length_a	13.262390
_cell_length_b	14.853576
_cell_length_c	12.376457
_cell_angle_alpha	101.293843
_cell_angle_beta	63.168449
_cell_angle_gamma	84.051499
loop_
_atom_site_label
_atom_site_type_symbol
_atom_site_fract_x
_atom_site_fract_y
_atom_site_fract_z
O1	O	1.512432	0.019125	-0.559016
O2	O	1.185356	0.050732	-0.458455
O3	O	1.357625	-0.096769	-0.511415
O4	O	1.340163	0.166627	-0.506056
O5	O	1.314573	-0.059942	-0.310168
O6	O	1.142304	0.087560	-0.257207
O7	O	1.469380	0.055952	-0.357768
Zn8	Zn	1.299007	0.077603	-0.275536
Zn9	Zn	1.355729	0.029082	-0.540688
O10	O	1.297112	0.203454	-0.304808
C11	C	1.121972	0.070761	-0.344962
C12	C	0.997248	0.075564	-0.306615
C13	C	0.739554	0.008786	-0.637340
C14	C	0.856739	0.004269	-0.673371
C15	C	0.891872	0.022093	-0.581685
C16	C	0.809808	0.044433	-0.453962
C17	C	0.692612	0.048943	-0.417927
C18	C	0.844931	0.062250	-0.362272
C19	C	0.762866	0.084590	-0.234549
C20	C	0.645682	0.089100	-0.198521
C21	C	0.610549	0.071276	-0.290207
C22	C	0.962127	0.057740	-0.398307
C23	C	0.915185	0.097897	-0.178894
C24	C	0.797999	0.102414	-0.142863
C25	C	1.335306	-0.111902	-0.410549
C26	C	1.332930	-0.211858	-0.409823
C27	C	1.355281	-0.278888	-0.519184
C28	C	1.308357	-0.238752	-0.299780
C29	C	1.306130	-0.332666	-0.299096
C30	C	1.328481	-0.399696	-0.408457
C31	C	1.353058	-0.372813	-0.518504
C32	C	1.281565	-0.359559	-0.189055
C33	C	1.279338	-0.453479	-0.188366
C34	C	1.301681	-0.520510	-0.297726
C35	C	1.326258	-0.493621	-0.407777
C36	C	1.348608	-0.560651	-0.517138
C37	C	1.373178	-0.533763	-0.627188
C38	C	1.375401	-0.439844	-0.627864
C39	C	1.299458	-0.614429	-0.297050
C40	C	1.346385	-0.654575	-0.516458
C41	C	1.532765	0.035923	-0.471264
C42	C	1.657491	0.031119	-0.509619
C43	C	1.319431	0.218586	-0.405677
C44	C	1.321808	0.318541	-0.406412
N45	N	1.260303	0.110717	-0.094579
N46	N	1.394442	-0.004040	-0.721647
C47	C	1.484285	-0.080925	0.191548
C48	C	1.511368	-0.104102	0.064882
C49	C	1.448603	-0.050399	0.025010
C50	C	1.358753	0.026484	0.111817
C51	C	1.331674	0.049667	0.238494
C52	C	1.295992	0.080193	0.071956
C53	C	1.206142	0.157076	0.158763
C54	C	1.179066	0.180255	0.285427
C55	C	1.241831	0.126552	0.325299
C56	C	1.323071	0.057010	-0.054720
C57	C	1.170460	0.187602	-0.007774
C58	C	1.143378	0.210779	0.118892
H59	H	0.731166	0.120603	-0.038869
Cl60	Cl	0.959897	-0.023818	-0.833929
Cl61	Cl	1.482648	-0.079538	-0.134228
Cl62	Cl	0.959343	0.120297	-0.063625
Cl63	Cl	0.542518	0.117181	-0.037955
H64	H	1.263377	-0.304979	-0.100021
H65	H	1.584524	-0.166698	-0.005792
Cl66	Cl	1.401288	-0.618042	-0.764670
Cl67	Cl	1.436021	-0.039640	-0.163832
Cl68	Cl	1.207778	0.155686	0.484544
Cl69	Cl	1.248444	-0.487272	-0.050019
H70	H	1.070220	0.273379	0.189585
H71	H	1.364578	-0.709146	-0.605512
H72	H	1.395408	-0.417942	-0.717462
Cl73	Cl	1.386186	-0.245091	-0.657531
Cl74	Cl	1.563189	-0.148422	0.241673
H75	H	1.279458	-0.636318	-0.207451
Cl76	Cl	1.066125	0.276917	0.394553
H77	H	1.290169	-0.184172	-0.210746
Cl78	Cl	1.091556	0.255121	-0.057891
H79	H	1.028933	0.039552	-0.502300
H80	H	0.987292	0.018415	-0.611029
H81	H	0.710937	-0.005732	-0.711977
H82	H	0.515128	0.074956	-0.260877
