data_functionalizedCrystal
_audit_creation_method	'MofGen! by Chris Wilmer'
_symmetry_space_group_name_H-M	'P1'
_symmetry_Int_Tables_number	1
_symmetry_cell_setting	triclinic
loop_
_symmetry_equiv_pos_as_xyz
  x,y,z
_cell_length_a	10.723024
_cell_length_b	10.540539
_cell_length_c	9.198806
_cell_angle_alpha	89.998955
_cell_angle_beta	89.996352
_cell_angle_gamma	84.496680
loop_
_atom_site_label
_atom_site_type_symbol
_atom_site_fract_x
_atom_site_fract_y
_atom_site_fract_z
O1	O	1.657276	0.178046	-0.120876
O2	O	2.157276	0.678046	0.379124
O3	O	1.294132	0.195088	-0.120880
O4	O	1.794132	0.695088	0.379120
O5	O	1.483989	0.001856	-0.120876
O6	O	1.983989	0.501856	0.379124
O7	O	1.467419	0.371278	-0.120880
O8	O	1.967419	0.871278	0.379120
O9	O	1.483974	0.001856	0.120909
O10	O	1.983974	0.501856	0.620909
O11	O	1.294117	0.195088	0.120905
O12	O	1.794117	0.695088	0.620905
O13	O	1.657261	0.178045	0.120909
O14	O	2.157261	0.678045	0.620909
Cu15	Cu	1.475688	0.186567	0.142984
Cu16	Cu	1.975688	0.686567	0.642984
Cu17	Cu	1.475706	0.186567	-0.142955
Cu18	Cu	1.975706	0.686567	0.357045
O19	O	1.467404	0.371277	0.120905
O20	O	1.967404	0.871277	0.620905
C21	C	1.247624	0.193848	0.000012
C22	C	1.747624	0.693848	0.500012
C23	C	1.109068	0.190137	0.000010
C24	C	1.609068	0.690137	0.500010
C25	C	1.034139	0.298260	0.000008
C26	C	1.534139	0.798260	0.500008
C27	C	0.890934	0.294427	0.000006
C28	C	1.390934	0.794427	0.500006
C29	C	1.482739	-0.045446	0.000014
C30	C	1.982739	0.454554	0.500014
C31	C	1.479021	-0.186392	0.000006
C32	C	1.979021	0.313608	0.500006
C33	C	1.336563	-0.369746	-0.000538
C34	C	1.836563	0.130254	0.499462
C35	C	1.340332	-0.223130	0.000006
C36	C	1.840332	0.276870	0.500006
C37	C	1.545756	-0.248085	0.138078
C38	C	2.045756	0.251915	0.638078
C39	C	1.541023	-0.394627	0.138194
C40	C	2.041023	0.105373	0.638194
C41	C	1.543861	-0.395146	-0.136760
C42	C	2.043861	0.104854	0.363240
C43	C	1.545138	-0.248164	-0.138586
C44	C	2.045138	0.251836	0.361414
C45	C	1.703769	0.179286	0.000014
C46	C	2.203769	0.679286	0.500014
C47	C	1.842325	0.182997	0.000007
C48	C	2.342325	0.682997	0.500007
C49	C	1.468654	0.418580	0.000012
C50	C	1.968654	0.918580	0.500012
C51	C	1.472372	0.559526	0.000011
C52	C	1.972372	1.059526	0.500011
N53	N	1.475684	0.186565	0.344098
N54	N	1.975684	0.686565	0.844098
N55	N	1.475719	0.186558	-0.344069
N56	N	1.975719	0.686558	0.155931
C57	C	1.555399	0.105075	0.416297
C58	C	2.055399	0.605075	0.916297
C59	C	1.555419	0.105071	0.583709
C60	C	2.055419	0.605071	1.083709
H61	H	1.076009	0.393665	0.000015
H62	H	1.576009	0.893665	0.500015
Br63	Br	1.361941	0.302840	0.447634
Br64	Br	1.861941	0.802840	0.947634
H65	H	0.826548	0.386988	-0.000001
H66	H	1.326548	0.886988	0.499999
Br67	Br	0.949625	0.028706	-0.000008
Br68	Br	1.449625	0.528706	0.499992
Br69	Br	1.669186	-0.011209	0.687185
Br70	Br	2.169186	0.488791	1.187185
H71	H	1.067199	0.094732	-0.000026
H72	H	1.567199	0.594732	0.499974
Br73	Br	1.710823	-0.473943	-0.138310
Br74	Br	2.210823	0.026057	0.361690
Br75	Br	1.252812	-0.152069	-0.164960
Br76	Br	1.752812	0.347931	0.335040
H77	H	1.623629	0.035306	0.354172
H78	H	2.123629	0.535306	0.854172
H79	H	1.281784	-0.398318	-0.099552
H80	H	1.781784	0.101682	0.400448
H81	H	1.496309	-0.207281	-0.240728
H82	H	1.996309	0.292719	0.259272
H83	H	1.281995	-0.399926	0.097920
H84	H	1.781995	0.100074	0.597920
H85	H	1.287441	-0.181347	0.099145
H86	H	1.787441	0.318653	0.599145
H87	H	1.491690	-0.422801	0.241405
H88	H	1.991690	0.077199	0.741405
Br89	Br	1.707261	-0.474670	0.148655
Br90	Br	2.207261	0.025330	0.648655
H91	H	1.647605	-0.225783	0.143213
H92	H	2.147605	0.274217	0.643213
H93	H	1.499386	-0.205461	0.240826
H94	H	1.999386	0.294539	0.740826
Br95	Br	1.469046	-0.447678	-0.311186
Br96	Br	1.969046	0.052322	0.188814
H97	H	1.646253	-0.223995	-0.146922
H98	H	2.146253	0.276005	0.353078
H99	H	1.407472	0.256334	0.593853
H100	H	1.907472	0.756334	1.093853
