data_functionalizedCrystal
_audit_creation_method	'MofGen! by Chris Wilmer'
_symmetry_space_group_name_H-M	'P1'
_symmetry_Int_Tables_number	1
_symmetry_cell_setting	triclinic
loop_
_symmetry_equiv_pos_as_xyz
  x,y,z
_cell_length_a	6.817900
_cell_length_b	12.840946
_cell_length_c	15.301131
_cell_angle_alpha	81.995001
_cell_angle_beta	75.011263
_cell_angle_gamma	88.344365
loop_
_atom_site_label
_atom_site_type_symbol
_atom_site_fract_x
_atom_site_fract_y
_atom_site_fract_z
V1	V	-3.903300	0.282022	0.126898
O2	O	-3.888166	0.320352	-0.003898
O3	O	-3.860468	0.238065	0.249503
O4	O	-3.798860	0.424196	0.125911
O5	O	-3.950200	0.132933	0.120548
V6	V	-4.393468	0.269295	0.111139
O7	O	-4.149982	0.309939	0.161467
O8	O	-4.596983	0.241378	0.076571
O9	O	-4.213093	0.313252	-0.011465
O10	O	-4.525999	0.230965	0.241936
O11	O	-4.463965	0.418384	0.117490
O12	O	-4.274701	0.127121	0.112126
C13	C	-3.708637	0.222772	0.279361
C14	C	-3.754530	0.187779	0.379598
C15	C	-3.773036	0.080414	0.413169
C16	C	-3.816187	0.047521	0.507351
C17	C	-3.840815	0.121995	0.567959
C18	C	-3.822312	0.229370	0.534382
C19	C	-3.779177	0.262262	0.440202
C20	C	-3.630062	0.460200	0.121704
C21	C	-3.625914	0.578331	0.121707
C22	C	-4.089871	-0.027023	0.116369
C23	C	-4.106871	0.091112	0.116349
V24	V	-3.886272	0.768181	0.126924
O25	O	-3.922567	0.921545	0.120585
O26	O	-3.791966	0.621336	0.125926
O27	O	-3.841903	0.767852	0.249529
O28	O	-3.872284	0.774014	-0.003873
V29	V	-4.374496	0.810988	0.111173
O30	O	-4.134889	0.740887	0.161493
O31	O	-4.575283	0.860965	0.076610
O32	O	-4.245989	0.946586	0.112168
O33	O	-4.455391	0.663538	0.117514
O34	O	-4.505674	0.811069	0.241972
O35	O	-4.196052	0.800069	-0.011434
C36	C	-4.028268	0.328541	-0.041318
C37	C	-3.961610	0.363540	-0.141554
C38	C	-3.689623	0.765226	0.279381
C39	C	-3.734182	0.768099	0.379618
C40	C	-4.012265	0.785730	-0.041296
C41	C	-3.946981	0.781821	-0.141534
C42	C	-3.935343	0.773317	0.431339
C43	C	-3.977199	0.776022	0.525521
C44	C	-3.817892	0.773502	0.567981
C45	C	-3.616715	0.768287	0.516252
C46	C	-3.574861	0.765589	0.422071
C47	C	-3.703964	0.773907	0.712557
C48	C	-3.745821	0.776603	0.806745
C49	C	-4.106302	0.784341	0.816006
C50	C	-4.064448	0.781643	0.721825
C51	C	-3.863273	0.776426	0.670103
C52	C	-4.104790	0.376340	-0.193258
C53	C	-4.042181	0.409209	-0.287443
C54	C	-3.836394	0.429284	-0.329922
C55	C	-3.693205	0.416478	-0.278212
C56	C	-3.755813	0.383603	-0.184029
H57	H	-4.065075	0.775361	0.396776
O58	O	-4.181018	0.421662	-0.337803
C59	C	-4.081665	0.455003	-0.430039
H60	H	-3.915344	0.431028	-0.443636
H61	H	-4.091967	0.544184	-0.445101
C62	C	-4.388174	0.432785	-0.475378
C63	C	-4.183899	0.403331	-0.492081
H64	H	-4.451240	0.400917	-0.513650
H65	H	-4.455113	0.410327	-0.413237
H66	H	-4.396731	0.507104	-0.487930
H67	H	-4.175346	0.329016	-0.479518
H68	H	-4.116961	0.425776	-0.554222
H69	H	-3.764104	0.349689	0.412877
H70	H	-4.140999	0.780273	0.567628
O71	O	-3.882609	0.089855	0.659415
C72	C	-3.893701	-0.020882	0.676040
H73	H	-3.804522	-0.054664	0.612500
H74	H	-4.059185	-0.047170	0.693307
C75	C	-3.912273	-0.019205	0.834750
C76	C	-3.802727	-0.060698	0.756712
H77	H	-3.856165	-0.043767	0.884514
H78	H	-3.904808	0.055401	0.823551
H79	H	-4.050169	-0.041116	0.849127
H80	H	-3.664840	-0.038776	0.742330
H81	H	-3.810166	-0.135301	0.767910
O82	O	-3.379438	0.760330	0.371892
C83	C	-3.289104	0.668160	0.404928
H84	H	-3.412432	0.607918	0.442496
H85	H	-3.198955	0.687770	0.453807
C86	C	-2.994136	0.696355	0.278099
C87	C	-3.145609	0.622361	0.324234
H88	H	-2.905614	0.668105	0.228325
H89	H	-3.054990	0.758454	0.255843
H90	H	-2.919034	0.712690	0.318841
H91	H	-3.220723	0.606037	0.283496
H92	H	-3.084763	0.560258	0.346481
H93	H	-3.785442	0.456052	-0.406612
H94	H	-3.831239	-0.039912	0.534674
O95	O	-3.616464	0.371279	-0.133935
C96	C	-3.421413	0.396028	-0.191637
H97	H	-3.435784	0.449967	-0.255437
H98	H	-3.341278	0.320621	-0.212116
C99	C	-3.279538	0.385815	-0.062458
C100	C	-3.297188	0.452071	-0.140815
H101	H	-3.202904	0.420380	-0.031108
H102	H	-3.410945	0.369137	-0.023583
H103	H	-3.212765	0.322979	-0.079535
H104	H	-3.363982	0.514898	-0.123736
H105	H	-3.165788	0.468761	-0.179686
O106	O	-4.301780	0.789227	0.866227
C107	C	-4.410305	0.700442	0.858842
H108	H	-4.299695	0.634192	0.839213
H109	H	-4.496325	0.721740	0.804157
C110	C	-4.697922	0.745549	0.975268
C111	C	-4.562070	0.664176	0.951167
H112	H	-4.791546	0.723181	1.032216
H113	H	-4.624811	0.805368	0.980242
H114	H	-4.769585	0.763290	0.929690
H115	H	-4.490393	0.646445	0.996738
H116	H	-4.635174	0.604353	0.946203
H117	H	-3.752977	0.019758	0.363832
H118	H	-4.194173	0.783689	0.687258
H119	H	-3.842374	0.289999	0.583744
O120	O	-4.304605	0.356672	-0.151924
C121	C	-4.329873	0.251041	-0.110574
H122	H	-4.180635	0.220476	-0.096722
H123	H	-4.376837	0.201424	-0.158141
C124	C	-4.678928	0.281507	-0.036876
C125	C	-4.495635	0.243970	-0.019855
H126	H	-4.781183	0.277144	0.019082
H127	H	-4.661908	0.352672	-0.064736
H128	H	-4.718037	0.240155	-0.076518
H129	H	-4.456516	0.285330	0.019777
H130	H	-4.512652	0.172812	0.008015
H131	H	-3.616094	0.774573	0.841310
H132	H	-3.487007	0.766241	0.550830
H133	H	-3.540149	0.769669	0.670446
H134	H	-3.525649	0.432827	-0.312812
