data_functionalizedCrystal
_audit_creation_method	'MofGen! by Chris Wilmer'
_symmetry_space_group_name_H-M	'P1'
_symmetry_Int_Tables_number	1
_symmetry_cell_setting	triclinic
loop_
_symmetry_equiv_pos_as_xyz
  x,y,z
_cell_length_a	19.805407
_cell_length_b	21.295417
_cell_length_c	21.295411
_cell_angle_alpha	89.979403
_cell_angle_beta	89.976284
_cell_angle_gamma	90.027018
loop_
_atom_site_label
_atom_site_type_symbol
_atom_site_fract_x
_atom_site_fract_y
_atom_site_fract_z
Zn1	Zn	1.034760	-0.250726	-0.355902
Zn2	Zn	1.034656	-0.355978	-0.250629
Zn3	Zn	0.921563	-0.250722	-0.250648
Zn4	Zn	0.921531	-0.355956	-0.355862
O5	O	0.978127	-0.303345	-0.303260
O6	O	1.129462	-0.264699	-0.341946
O7	O	1.019624	-0.342022	-0.162542
O8	O	0.936635	-0.162633	-0.264635
O9	O	1.129387	-0.342027	-0.264602
O10	O	1.019800	-0.162636	-0.341964
O11	O	0.936535	-0.264691	-0.162556
O12	O	0.826842	-0.264670	-0.264597
O13	O	0.936581	-0.341990	-0.443957
O14	O	0.826819	-0.341986	-0.341897
O15	O	1.019770	-0.264678	-0.443986
O16	O	1.019594	-0.444064	-0.264564
O17	O	0.936481	-0.444049	-0.341878
C18	C	0.802271	-0.303326	-0.303245
C19	C	0.727039	-0.303332	-0.303254
C20	C	0.691735	-0.263139	-0.343587
C21	C	0.621047	-0.263142	-0.343590
C22	C	0.585664	-0.303343	-0.303261
C23	C	0.620973	-0.343538	-0.262923
C24	C	0.691660	-0.343531	-0.262918
C25	C	0.335899	-0.343566	-0.262942
C26	C	0.265207	-0.343571	-0.262952
C27	C	0.265287	-0.263178	-0.343614
C28	C	0.335974	-0.263171	-0.343609
C29	C	0.371276	-0.303363	-0.303269
C30	C	0.447925	-0.303358	-0.303266
C31	C	0.509017	-0.303351	-0.303267
C32	C	0.978041	-0.466897	-0.303229
C33	C	0.978066	-0.536865	-0.303236
C34	C	1.021346	-0.569676	-0.343530
C35	C	1.021370	-0.635419	-0.343546
C36	C	0.978121	-0.668348	-0.303256
C37	C	0.934833	-0.635529	-0.262959
C38	C	0.934806	-0.569787	-0.262949
N39	N	0.973004	-0.771600	-0.248165
N40	N	0.973034	-0.834051	-0.248176
C41	C	0.978200	-0.866422	-0.303284
N42	N	0.983349	-0.833983	-0.358382
N43	N	0.983322	-0.771526	-0.358370
C44	C	0.978146	-0.739633	-0.303262
C45	C	1.021508	-0.970519	-0.343599
C46	C	1.021527	-1.036263	-0.343615
C47	C	0.934994	-1.036371	-0.263023
C48	C	0.934971	-0.970629	-0.263012
C49	C	0.978232	-0.937707	-0.303299
C50	C	1.154670	-0.303366	-0.303276
C51	C	1.229902	-0.303374	-0.303283
C52	C	0.978184	-0.303332	-0.467451
C53	C	0.978208	-0.303326	-0.537419
C54	C	0.978232	-0.139155	-0.303306
C55	C	0.978277	-0.069187	-0.303326
C56	C	1.021522	-0.263068	-0.570302
C57	C	1.021521	-0.263041	-0.636044
C58	C	0.978213	-0.303283	-0.668901
C59	C	0.934890	-0.343544	-0.636011
C60	C	0.934887	-0.343566	-0.570269
N61	N	0.972992	-0.358351	-0.772118
N62	N	0.972998	-0.358328	-0.834569
C63	C	0.978217	-0.303219	-0.866976
N64	N	0.983443	-0.248132	-0.834572
N65	N	0.983440	-0.248155	-0.772115
C66	C	0.978211	-0.303264	-0.740187
C67	C	1.021533	-0.262928	-0.971145
C68	C	1.021527	-0.262900	-1.036888
C69	C	0.934900	-0.343409	-1.036854
C70	C	0.934902	-0.343431	-0.971111
C71	C	0.978222	-0.303192	-0.938261
C72	C	0.978110	-0.303313	-0.139709
C73	C	0.978218	-0.303142	-0.069741
H74	H	0.236535	-0.230448	-0.376459
C75	C	0.843833	-0.352329	-0.496306
C76	C	0.887276	-0.387825	-0.534122
H77	H	0.814438	-0.379655	-0.473994
H78	H	0.869628	-0.328374	-0.467333
H79	H	0.817962	-0.324892	-0.521949
H80	H	0.913150	-0.415259	-0.508479
H81	H	0.861478	-0.411791	-0.563099
C82	C	0.843983	-1.110371	-0.254217
C83	C	0.887449	-1.072558	-0.218738
H84	H	0.814631	-1.132715	-0.226877
H85	H	0.818074	-1.084728	-0.281613
H86	H	0.869769	-1.139323	-0.278214
H87	H	0.861663	-1.043603	-0.194744
H88	H	0.913361	-1.098203	-0.191331
C89	C	0.541595	-0.178488	-0.352504
C90	C	0.582239	-0.218964	-0.387929
H91	H	0.517639	-0.151212	-0.379880
H92	H	0.510411	-0.202429	-0.328490
H93	H	0.569174	-0.154365	-0.325126
H94	H	0.554659	-0.243091	-0.415304
H95	H	0.613426	-0.195021	-0.411954
C96	C	0.843851	-0.352191	-0.897148
C97	C	0.887294	-0.387690	-0.934961
H98	H	0.814456	-0.379516	-0.874834
H99	H	0.869646	-0.328234	-0.868177
H100	H	0.817981	-0.324756	-0.922793
H101	H	0.913168	-0.415122	-0.909316
H102	H	0.861497	-0.411658	-0.963936
H103	H	0.720539	-0.230405	-0.376430
C104	C	0.849275	-0.576499	-0.183289
C105	C	0.887234	-0.533717	-0.218650
H106	H	0.819911	-0.554229	-0.155938
H107	H	0.823380	-0.602143	-0.210698
H108	H	0.878794	-0.602133	-0.159241
H109	H	0.857715	-0.508086	-0.242702
H110	H	0.913131	-0.508062	-0.191238
C111	C	1.054578	-0.156305	-1.057129
C112	C	1.069143	-0.218641	-1.073032
H113	H	1.083978	-0.128982	-1.079440
H114	H	1.009115	-0.147083	-1.067891
H115	H	1.060777	-0.150572	-1.013273
H116	H	1.062939	-0.224374	-1.116888
H117	H	1.114617	-0.227865	-1.062275
C118	C	0.415511	-0.178507	-0.352502
C119	C	0.374869	-0.218982	-0.387939
H120	H	0.439525	-0.151228	-0.379870
H121	H	0.387929	-0.154391	-0.325129
H122	H	0.446650	-0.202453	-0.328482
H123	H	0.343726	-0.195036	-0.411955
H124	H	0.402453	-0.243100	-0.415323
H125	H	1.056803	-0.230159	-0.944396
C126	C	0.599155	-0.450087	-0.232064
C127	C	0.582082	-0.387729	-0.218592
H128	H	0.575148	-0.477369	-0.204693
H129	H	0.587587	-0.459358	-0.274338
H130	H	0.646307	-0.455825	-0.226285
H131	H	0.534930	-0.381989	-0.224375
H132	H	0.593645	-0.378455	-0.176308
C133	C	0.799986	-0.379215	-0.227090
C134	C	0.730470	-0.387713	-0.218582
H135	H	0.823943	-0.406488	-0.199713
H136	H	0.811586	-0.388492	-0.269362
H137	H	0.811573	-0.336903	-0.217955
H138	H	0.718881	-0.430024	-0.227722
H139	H	0.718865	-0.378440	-0.176300
H140	H	1.056569	-0.542873	-0.376336
H141	H	0.236400	-0.376309	-0.230109
C142	C	0.896452	-0.379135	-1.137611
C143	C	0.887301	-0.387652	-1.072963
H144	H	0.867069	-0.406453	-1.159904
H145	H	0.886565	-0.336842	-1.148382
H146	H	0.941928	-0.388343	-1.148392
H147	H	0.841826	-0.378438	-1.062182
H148	H	0.897184	-0.429954	-1.062188
H149	H	1.056607	-0.662139	-0.376365
C150	C	0.896461	-0.736354	-0.227185
C151	C	0.887295	-0.671721	-0.218670
H152	H	0.867112	-0.758696	-0.199840
H153	H	0.886537	-0.747112	-0.269468
H154	H	0.941950	-0.747089	-0.218010
H155	H	0.841807	-0.660987	-0.227849
H156	H	0.897214	-0.660959	-0.176377
H157	H	0.364634	-0.376294	-0.230095
H158	H	1.056770	-1.062977	-0.376430
C159	C	1.107030	-0.977013	-0.423273
C160	C	1.069045	-0.934326	-0.387892
H161	H	1.136373	-0.954668	-0.450622
H162	H	1.132950	-1.002645	-0.395876
H163	H	1.077527	-1.002668	-0.447324
H164	H	1.098549	-0.908674	-0.363837
H165	H	1.043123	-0.908683	-0.415293
H166	H	0.899732	-0.943912	-0.230198
H167	H	1.056796	-0.230301	-0.543559
H168	H	1.056791	-0.230254	-0.662823
C169	C	0.896441	-0.379267	-0.736773
C170	C	0.887288	-0.387783	-0.672125
H171	H	0.867054	-0.406581	-0.759067
H172	H	0.886561	-0.336973	-0.747544
H173	H	0.941916	-0.388481	-0.747554
H174	H	0.841815	-0.378564	-0.661344
H175	H	0.897164	-0.430087	-0.661350
