data_functionalizedCrystal
_audit_creation_method	'MofGen! by Chris Wilmer'
_symmetry_space_group_name_H-M	'P1'
_symmetry_Int_Tables_number	1
_symmetry_cell_setting	triclinic
loop_
_symmetry_equiv_pos_as_xyz
  x,y,z
_cell_length_a	10.489741
_cell_length_b	23.532357
_cell_length_c	9.565339
_cell_angle_alpha	89.994707
_cell_angle_beta	89.999100
_cell_angle_gamma	83.683733
loop_
_atom_site_label
_atom_site_type_symbol
_atom_site_fract_x
_atom_site_fract_y
_atom_site_fract_z
O1	O	1.691350	0.080342	-0.116193
O2	O	1.319900	0.087883	-0.116216
O3	O	1.516859	0.001253	-0.116175
O4	O	1.494391	0.166972	-0.116234
O5	O	1.516844	0.001259	0.116345
O6	O	1.319885	0.087889	0.116304
O7	O	1.691334	0.080347	0.116327
Zn8	Zn	1.505607	0.084119	0.153233
Zn9	Zn	1.505628	0.084112	-0.153122
O10	O	1.494375	0.166977	0.116286
C11	C	1.272380	0.087317	0.000041
C12	C	1.130808	0.085612	0.000034
C13	C	1.516290	-0.019964	0.000089
C14	C	1.514600	-0.083194	0.000102
C15	C	1.064522	0.030492	0.000066
C16	C	0.971527	0.056528	-0.114585
C17	C	0.971545	0.056546	0.114662
C18	C	1.039677	0.111671	-0.114712
C19	C	1.039705	0.111681	0.114638
C20	C	0.946736	0.137757	-0.000041
C21	C	1.504001	-0.475279	-0.126720
C22	C	1.502394	-0.534689	-0.126729
O23	O	1.501528	-0.565413	-0.234522
N24	N	1.501589	-0.564402	0.000016
C25	C	1.502378	-0.534702	0.126778
O26	O	1.501544	-0.565431	0.234583
C27	C	1.503975	-0.475292	0.126784
C28	C	1.504793	-0.445583	0.000031
C29	C	1.504817	-0.445569	-0.253463
C30	C	1.506426	-0.386163	-0.253455
C31	C	1.507218	-0.356467	-0.126703
C32	C	1.506401	-0.386177	0.000040
C33	C	1.504754	-0.445593	0.253544
C34	C	1.506350	-0.386179	0.253540
C35	C	1.507168	-0.356469	0.126787
C36	C	1.508802	-0.297075	0.126800
N37	N	1.509607	-0.267361	0.000055
C38	C	1.508815	-0.297057	-0.126697
C39	C	1.499021	-0.659466	0.126754
C40	C	1.497434	-0.718875	0.126749
C41	C	1.497448	-0.718857	-0.126758
C42	C	1.499045	-0.659448	-0.126751
C43	C	1.499826	-0.629752	0.000009
C44	C	1.512194	-0.172301	-0.126669
C45	C	1.513808	-0.112890	-0.126649
C46	C	1.513787	-0.112912	0.126857
C47	C	1.512179	-0.172318	0.126838
C48	C	1.511379	-0.202011	0.000064
O49	O	1.509664	-0.266312	0.234538
O50	O	1.509631	-0.266320	-0.234484
C51	C	1.738855	0.080914	0.000067
C52	C	1.880427	0.082618	0.000065
C53	C	1.494945	0.188195	0.000019
C54	C	1.496635	0.251425	-0.000003
N55	N	1.505602	0.084123	0.362313
N56	N	1.505642	0.084103	-0.362201
C57	C	1.414488	0.124173	0.453497
C58	C	1.529598	0.135696	0.546678
C59	C	1.390543	0.072605	0.546686
C60	C	1.620769	0.095672	0.453442
C61	C	1.481639	0.032558	0.453442
C62	C	1.596832	0.044060	0.546582
H63	H	1.115737	-0.014820	-0.000061
H64	H	1.511536	-0.196469	-0.229901
H65	H	0.941304	0.033203	-0.211499
H66	H	1.718110	0.105458	0.412656
C67	C	1.514645	-0.080235	0.266277
N68	N	1.515279	-0.055619	0.371289
H69	H	0.941346	0.033216	0.211591
C70	C	1.259067	0.059452	0.602013
N71	N	1.160036	0.049550	0.643679
C72	C	1.080271	0.143146	-0.245815
N73	N	1.110850	0.166850	-0.344563
H74	H	0.895786	0.183117	-0.000120
C75	C	1.080593	0.143164	0.245572
N76	N	1.111394	0.166872	0.344204
C77	C	1.514703	-0.080213	-0.266093
N78	N	1.515374	-0.055602	-0.371120
H79	H	1.507087	-0.361978	-0.356670
C80	C	1.507215	-0.353518	0.392990
N81	N	1.507871	-0.328919	0.498024
C82	C	1.504001	-0.478228	-0.392913
N83	N	1.503415	-0.502824	-0.497955
C84	C	1.496563	-0.751533	-0.266188
N85	N	1.495895	-0.776147	-0.371200
H86	H	1.499709	-0.635262	-0.229965
H87	H	1.496787	-0.743060	0.229964
C88	C	1.499901	-0.626807	0.266210
N89	N	1.500564	-0.602212	0.371248
H90	H	1.461307	-0.011027	0.412457
H91	H	1.504090	-0.469772	0.356760
H92	H	1.511525	-0.196510	0.230050
C93	C	1.310495	0.169971	0.398264
N94	N	1.232175	0.204467	0.356658
H95	H	1.549893	0.179295	0.587631
C96	C	1.701062	-0.001705	0.601475
N97	N	1.779571	-0.036171	0.642830
