data_functionalizedCrystal
_audit_creation_method	'MofGen! by Chris Wilmer'
_symmetry_space_group_name_H-M	'P1'
_symmetry_Int_Tables_number	1
_symmetry_cell_setting	triclinic
loop_
_symmetry_equiv_pos_as_xyz
  x,y,z
_cell_length_a	29.839134
_cell_length_b	16.120507
_cell_length_c	16.120297
_cell_angle_alpha	84.388175
_cell_angle_beta	92.868807
_cell_angle_gamma	87.070741
loop_
_atom_site_label
_atom_site_type_symbol
_atom_site_fract_x
_atom_site_fract_y
_atom_site_fract_z
Zn1	Zn	0.663643	0.356870	-0.489657
Zn2	Zn	0.663576	0.489560	-0.356963
Zn3	Zn	0.592530	0.349793	-0.349881
Zn4	Zn	0.584475	0.496587	-0.496659
O5	O	0.626056	0.423203	-0.423290
O6	O	0.726500	0.374493	-0.472089
O7	O	0.657495	0.465117	-0.239063
O8	O	0.605362	0.233767	-0.362528
O9	O	0.726451	0.471980	-0.374599
O10	O	0.657609	0.238967	-0.465221
O11	O	0.605297	0.362431	-0.233859
O12	O	0.528595	0.369245	-0.369317
O13	O	0.591634	0.483956	-0.612691
O14	O	0.522678	0.477093	-0.477155
O15	O	0.649798	0.381306	-0.607547
O16	O	0.649684	0.607457	-0.381388
O17	O	0.591569	0.612620	-0.484023
C18	C	0.509336	0.423164	-0.423228
C19	C	0.459402	0.423169	-0.423222
C20	C	0.146683	0.479435	-0.479380
C21	C	-0.040992	0.479461	-0.479418
O22	O	-0.067869	0.527259	-0.527127
N23	N	-0.061389	0.423236	-0.423355
C24	C	-0.034864	0.366998	-0.367281
O25	O	-0.056520	0.319171	-0.319602
C26	C	0.152810	0.366970	-0.367247
C27	C	0.173204	0.423203	-0.423309
C28	C	0.167078	0.535663	-0.535437
C29	C	0.213994	0.535660	-0.535424
C30	C	0.240515	0.479427	-0.479353
C31	C	0.220120	0.423199	-0.423296
C32	C	0.179333	0.310728	-0.311179
C33	C	0.226255	0.310724	-0.311177
C34	C	0.246649	0.366958	-0.367238
C35	C	0.293557	0.366963	-0.367212
N36	N	0.313954	0.423187	-0.423275
C37	C	0.287433	0.479419	-0.479346
C38	C	-0.133396	0.367018	-0.367302
C39	C	-0.180314	0.367027	-0.367309
C40	C	-0.186438	0.479488	-0.479447
C41	C	-0.139519	0.479483	-0.479435
C42	C	-0.112999	0.423243	-0.423365
C43	C	0.385960	0.479407	-0.479314
C44	C	0.432881	0.479401	-0.479293
C45	C	0.439001	0.366937	-0.367158
C46	C	0.392085	0.366946	-0.367175
C47	C	0.365565	0.423184	-0.423260
O48	O	0.320462	0.319183	-0.319534
O49	O	0.309097	0.527227	-0.527030
C50	C	0.099767	0.479439	-0.479393
C51	C	0.079372	0.423211	-0.423335
C52	C	0.105893	0.366979	-0.367265
C53	C	0.032454	0.423219	-0.423343
C54	C	0.005933	0.479451	-0.479413
C55	C	0.026330	0.535675	-0.535477
C56	C	0.073246	0.535671	-0.535464
C57	C	0.085496	0.310754	-0.311201
C58	C	0.038580	0.310764	-0.311218
C59	C	0.012059	0.366996	-0.367289
C60	C	0.619757	0.640367	-0.434252
C61	C	0.617102	0.733272	-0.438969
C62	C	0.639864	0.942186	-0.398947
C63	C	0.612264	0.903366	-0.447591
C64	C	0.614957	0.808717	-0.442793
C65	C	0.637171	1.036843	-0.403744
C66	C	0.743232	0.423242	-0.423353
C67	C	0.793165	0.423259	-0.423380
C68	C	0.619825	0.434204	-0.641293
C69	C	0.617170	0.438893	-0.734194
C70	C	0.632374	1.205191	-0.412291
C71	C	0.635024	1.112285	-0.407571
C72	C	0.612306	0.447433	-0.904282
C73	C	0.639902	0.398721	-0.943138
C74	C	0.637196	0.403474	-1.037780
C75	C	0.615011	0.442682	-0.809630
C76	C	0.632290	0.412183	-0.206132
C77	C	0.635039	0.407260	-0.113220
H78	H	0.449483	0.525196	-0.524946
Cl79	Cl	0.012947	0.240064	-0.240731
H80	H	0.665560	0.353448	-0.905324
Cl81	Cl	0.572696	0.517331	-0.962660
H82	H	-0.111807	0.321219	-0.321639
H83	H	0.364374	0.525200	-0.524985
Cl84	Cl	0.572658	0.961798	-0.517451
H85	H	0.230595	0.581449	-0.581077
H86	H	0.145489	0.581455	-0.581101
H87	H	-0.122917	0.525272	-0.525087
Cl88	Cl	-0.219788	0.550174	-0.549941
H89	H	0.665513	0.904341	-0.353699
Cl90	Cl	0.259592	0.240017	-0.240685
Cl91	Cl	-0.205947	0.296340	-0.296818
H92	H	0.375479	0.321158	-0.321524
Cl93	Cl	0.153706	0.240024	-0.240702
Cl94	Cl	-0.007019	0.606369	-0.605962
Cl95	Cl	0.118830	0.240054	-0.240706
Cl96	Cl	0.098878	0.606368	-0.605946
Cl97	Cl	0.472350	0.296248	-0.296674
