data_functionalizedCrystal
_audit_creation_method	'MofGen! by Chris Wilmer'
_symmetry_space_group_name_H-M	'P1'
_symmetry_Int_Tables_number	1
_symmetry_cell_setting	triclinic
loop_
_symmetry_equiv_pos_as_xyz
  x,y,z
_cell_length_a	18.050590
_cell_length_b	18.050591
_cell_length_c	18.050583
_cell_angle_alpha	89.979141
_cell_angle_beta	89.962959
_cell_angle_gamma	90.015000
loop_
_atom_site_label
_atom_site_type_symbol
_atom_site_fract_x
_atom_site_fract_y
_atom_site_fract_z
Zn1	Zn	-0.295677	1.135350	-0.420004
Zn2	Zn	-0.419889	1.135280	-0.295813
Zn3	Zn	-0.295710	1.011167	-0.295818
Zn4	Zn	-0.419822	1.011139	-0.419951
O5	O	-0.357774	1.073234	-0.357897
O6	O	-0.312168	1.239266	-0.403550
O7	O	-0.403459	1.118798	-0.191889
O8	O	-0.191781	1.027682	-0.312316
O9	O	-0.403427	1.239214	-0.312307
O10	O	-0.191756	1.118919	-0.403556
O11	O	-0.312225	1.027613	-0.191893
O12	O	-0.312159	0.907239	-0.312264
O13	O	-0.403311	1.027633	-0.523883
O14	O	-0.403343	0.907218	-0.403464
O15	O	-0.312102	1.118891	-0.523922
O16	O	-0.523805	1.118771	-0.312255
O17	O	-0.523755	1.027565	-0.403459
C18	C	-0.357748	0.880282	-0.357859
C19	C	-0.357755	0.797736	-0.357861
C20	C	-0.308118	0.548900	-0.308384
C21	C	-0.290020	0.598331	-0.376160
C22	C	-0.357793	0.500616	-0.357922
C23	C	-0.375836	0.598267	-0.290120
C24	C	-0.357772	0.646601	-0.357888
C25	C	-0.339661	0.548959	-0.425734
C26	C	-0.425508	0.548891	-0.339648
C27	C	-0.407437	0.598299	-0.407471
C28	C	-0.357803	0.416517	-0.357940
C29	C	-0.357763	0.730697	-0.357878
C30	C	-0.550727	1.073177	-0.357867
C31	C	-0.633272	1.073220	-0.357879
C32	C	-0.832723	1.122921	-0.308352
C33	C	-0.882047	1.141058	-0.376133
C34	C	-0.784403	1.073263	-0.357909
C35	C	-0.882161	1.055201	-0.290158
C36	C	-0.930388	1.073305	-0.357931
C37	C	-0.832639	1.091434	-0.425726
C38	C	-0.832749	1.005546	-0.339704
C39	C	-0.882050	1.023657	-0.407533
C40	C	-0.700304	1.073240	-0.357895
C41	C	-1.014484	1.073327	-0.357953
C42	C	-0.164069	1.073312	-0.357943
C43	C	-0.081523	1.073345	-0.357962
C44	C	-0.357695	1.073267	-0.551602
C45	C	-0.357661	1.073281	-0.634148
C46	C	-0.357801	1.266940	-0.357934
C47	C	-0.357813	1.349485	-0.357950
C48	C	-0.308038	1.122957	-0.833620
C49	C	-0.289858	1.055220	-0.883010
C50	C	-0.357649	1.073311	-0.785279
C51	C	-0.375782	1.141075	-0.882971
C52	C	-0.357635	1.073345	-0.931264
C53	C	-0.339433	1.005538	-0.833581
C54	C	-0.425389	1.091438	-0.833538
C55	C	-0.407234	1.023655	-0.882905
C56	C	-0.357655	1.073292	-0.701180
C57	C	-0.357629	1.073357	-1.015360
C58	C	-0.357800	1.073244	-0.164944
C59	C	-0.357624	1.073374	-0.082399
H60	H	-0.391106	0.619929	-0.232794
O61	O	-0.321380	0.523358	-0.494196
C62	C	-0.308569	0.583767	-0.542062
H63	H	-0.338609	0.634771	-0.520059
H64	H	-0.246580	0.595508	-0.545087
C65	C	-0.300839	0.502355	-0.647005
C66	C	-0.337739	0.564997	-0.619985
H67	H	-0.318829	0.490776	-0.695073
H68	H	-0.309467	0.461656	-0.614757
H69	H	-0.249184	0.512148	-0.649520
H70	H	-0.389391	0.555200	-0.617462
H71	H	-0.329120	0.605694	-0.652235
O72	O	-0.806921	0.937249	-0.321167
C73	C	-0.832127	0.918389	-0.249656
H74	H	-0.845996	0.971040	-0.217671
H75	H	-0.883804	0.882372	-0.254315
C76	C	-0.754082	0.810651	-0.247739
C77	C	-0.771111	0.875319	-0.208453
H78	H	-0.716447	0.784081	-0.222323
H79	H	-0.737103	0.823356	-0.295919
H80	H	-0.797152	0.780646	-0.251619
H81	H	-0.728044	0.905327	-0.204582
H82	H	-0.788082	0.862618	-0.160272
H83	H	-0.482665	1.106781	-0.811792
H84	H	-0.324024	0.948229	-0.811976
O85	O	-0.457459	0.623983	-0.457586
C86	C	-0.438159	0.598707	-0.528931
H87	H	-0.376548	0.584927	-0.530455
H88	H	-0.471658	0.546961	-0.542676
C89	C	-0.530726	0.676537	-0.584366
C90	C	-0.455052	0.659618	-0.586239
H91	H	-0.541149	0.714108	-0.619717
H92	H	-0.543731	0.693564	-0.536299
H93	H	-0.558633	0.633410	-0.595818
H94	H	-0.427147	0.702742	-0.574778
H95	H	-0.442043	0.642600	-0.634305
O96	O	-0.258034	0.522892	-0.258496
C97	C	-0.259173	0.444791	-0.258735
H98	H	-0.314823	0.424612	-0.280715
H99	H	-0.212797	0.423192	-0.295787
C100	C	-0.179538	0.440694	-0.152260
C101	C	-0.247891	0.415910	-0.179249
H102	H	-0.172576	0.422878	-0.103230
H103	H	-0.178768	0.493312	-0.152100
H104	H	-0.140899	0.422693	-0.183143
H105	H	-0.286529	0.433919	-0.148371
H106	H	-0.248668	0.363294	-0.179402
O107	O	-0.907697	0.973662	-0.457696
C108	C	-0.882309	0.992992	-0.529016
H109	H	-0.868486	1.054602	-0.530489
H110	H	-0.830566	0.959492	-0.542767
C111	C	-0.960124	0.900463	-0.584551
C112	C	-0.943151	0.976135	-0.586361
H113	H	-0.997652	0.890062	-0.619925
H114	H	-0.977226	0.887437	-0.536501
H115	H	-0.916999	0.872555	-0.596008
H116	H	-0.986273	1.004040	-0.574895
H117	H	-0.926057	0.989164	-0.634411
H118	H	-0.903912	1.039908	-0.232852
O119	O	-0.457358	0.973634	-0.908608
C120	C	-0.511167	1.010458	-0.951583
H121	H	-0.513416	1.071318	-0.934884
H122	H	-0.495960	1.005973	-1.012727
C123	C	-0.584687	0.899782	-0.958999
C124	C	-0.587454	0.974530	-0.938485
H125	H	-0.631744	0.877618	-0.950923
H126	H	-0.548434	0.874972	-0.930049
H127	H	-0.572012	0.896054	-1.009951
H128	H	-0.600120	0.978256	-0.887532
H129	H	-0.623712	0.999340	-0.967427
H130	H	-0.266058	1.164872	-0.811977
O131	O	-0.221650	0.624210	-0.394467
C132	C	-0.169451	0.599031	-0.342129
H133	H	-0.198926	0.585135	-0.288005
H134	H	-0.140653	0.547377	-0.364279
C135	C	-0.075314	0.677146	-0.394628
C136	C	-0.111516	0.660083	-0.328149
H137	H	-0.039575	0.714803	-0.386006
H138	H	-0.110481	0.694108	-0.429891
H139	H	-0.051322	0.634095	-0.413079
H140	H	-0.135515	0.703131	-0.309704
H141	H	-0.076352	0.643130	-0.292883
O142	O	-0.806912	1.173134	-0.258490
C143	C	-0.832046	1.244475	-0.277968
H144	H	-0.845850	1.245840	-0.339573
H145	H	-0.883748	1.258437	-0.244466
C146	C	-0.754059	1.300023	-0.185620
C147	C	-0.771007	1.301701	-0.261285
H148	H	-0.716409	1.335323	-0.175327
H149	H	-0.737127	1.251959	-0.172495
H150	H	-0.797149	1.311656	-0.157711
H151	H	-0.727919	1.290059	-0.289193
H152	H	-0.787930	1.349764	-0.274415
O153	O	-0.493792	0.522992	-0.321069
C154	C	-0.512622	0.548084	-0.249534
H155	H	-0.459958	0.561944	-0.217584
H156	H	-0.548649	0.599744	-0.254146
C157	C	-0.620347	0.469965	-0.247565
C158	C	-0.555664	0.486982	-0.208321
H159	H	-0.646900	0.432276	-0.222144
H160	H	-0.607663	0.453061	-0.295761
H161	H	-0.650361	0.513020	-0.251406
H162	H	-0.525647	0.443930	-0.204490
H163	H	-0.568344	0.503877	-0.160124
O164	O	-0.907757	1.209451	-0.394498
C165	C	-0.847421	1.257553	-0.406743
H166	H	-0.796587	1.235684	-0.376344
H167	H	-0.835180	1.260720	-0.468631
C168	C	-0.929153	1.362217	-0.414917
C169	C	-0.866719	1.335361	-0.377575
H170	H	-0.941057	1.410214	-0.396928
H171	H	-0.969803	1.329811	-0.406670
H172	H	-0.918944	1.364851	-0.466489
H173	H	-0.876932	1.332719	-0.326006
H174	H	-0.826071	1.367770	-0.385813
O175	O	-0.806681	1.109784	-0.494059
C176	C	-0.728577	1.109552	-0.493219
H177	H	-0.708175	1.117843	-0.434043
H178	H	-0.707443	1.054257	-0.515217
C179	C	-0.724423	1.162609	-0.615201
C180	C	-0.699366	1.172799	-0.542521
H181	H	-0.706404	1.201620	-0.645615
H182	H	-0.777044	1.162763	-0.615769
H183	H	-0.706810	1.116528	-0.633523
H184	H	-0.716986	1.218874	-0.524197
H185	H	-0.646747	1.172654	-0.541951
O186	O	-0.221466	1.037061	-0.908905
C187	C	-0.169331	1.089511	-0.883785
H188	H	-0.198874	1.143572	-0.869916
H189	H	-0.140504	1.067424	-0.832126
C190	C	-0.075131	1.037216	-0.961900
C191	C	-0.111415	1.103616	-0.944871
H192	H	-0.039404	1.045915	-0.999579
H193	H	-0.110254	1.001877	-0.978822
H194	H	-0.051115	1.018816	-0.918846
H195	H	-0.135439	1.122009	-0.987923
H196	H	-0.076295	1.138958	-0.927958
H197	H	-0.391124	1.198367	-0.904669
