data_functionalizedCrystal
_audit_creation_method	'MofGen! by Chris Wilmer'
_symmetry_space_group_name_H-M	'P1'
_symmetry_Int_Tables_number	1
_symmetry_cell_setting	triclinic
loop_
_symmetry_equiv_pos_as_xyz
  x,y,z
_cell_length_a	13.897441
_cell_length_b	12.759401
_cell_length_c	12.759399
_cell_angle_alpha	90.024459
_cell_angle_beta	90.029682
_cell_angle_gamma	90.021642
loop_
_atom_site_label
_atom_site_type_symbol
_atom_site_fract_x
_atom_site_fract_y
_atom_site_fract_z
Zn1	Zn	-0.545411	-1.606192	0.418210
Zn2	Zn	-0.384115	-1.606059	0.593920
Zn3	Zn	-0.384127	-1.430494	0.418258
Zn4	Zn	-0.545365	-1.430455	0.593850
O5	O	-0.464754	-1.518300	0.506060
O6	O	-0.524029	-1.753196	0.441527
O7	O	-0.249135	-1.582730	0.570668
O8	O	-0.405545	-1.453872	0.271231
O9	O	-0.405525	-1.753097	0.570621
O10	O	-0.524040	-1.582957	0.271195
O11	O	-0.249143	-1.453743	0.441610
O12	O	-0.405501	-1.283468	0.441542
O13	O	-0.680353	-1.453807	0.570501
O14	O	-0.523962	-1.283440	0.570548
O15	O	-0.680386	-1.582920	0.441459
O16	O	-0.405481	-1.582693	0.740932
O17	O	-0.523950	-1.453678	0.740880
C18	C	-0.464728	-1.245333	0.506043
C19	C	-0.464740	-1.128556	0.506062
C20	C	-0.716347	-1.518375	0.505967
C21	C	-0.823561	-1.518406	0.505927
C22	C	-0.526324	-1.073707	0.573337
C23	C	-0.526341	-0.963983	0.573339
C24	C	-0.403180	-0.963967	0.438789
C25	C	-0.403169	-1.073689	0.438782
C26	C	-1.019857	-1.518435	0.505856
C27	C	-0.910624	-1.518416	0.505899
C28	C	-0.214140	-1.518286	0.506076
C29	C	-0.106926	-1.518458	0.505820
C30	C	-0.464730	-1.518195	0.779027
C31	C	-0.464752	-1.518246	0.895804
C32	C	-0.464774	-0.792333	0.506073
C33	C	-0.464767	-0.909110	0.506072
C34	C	-0.526504	-1.585423	0.950557
C35	C	-0.526527	-1.585465	1.060281
C36	C	-0.403040	-1.451150	1.060488
C37	C	-0.403022	-1.451104	0.950766
C38	C	-0.464793	-1.518395	1.232026
C39	C	-0.464794	-1.518334	1.115250
H40	H	-0.576461	-1.118377	0.628118
H41	H	-0.352736	-1.396395	0.906183
H42	H	-0.352779	-1.396487	1.105253
C43	C	-0.689876	-1.636477	0.916603
C44	C	-0.594367	-1.659210	0.890136
H45	H	-0.731774	-1.682025	0.879297
H46	H	-0.698718	-1.646124	0.989777
H47	H	-0.703913	-1.565867	0.898667
H48	H	-0.580328	-1.729818	0.908080
H49	H	-0.585521	-1.649572	0.816947
H50	H	-0.353050	-0.919280	0.384014
C51	C	-0.689593	-0.930283	0.624751
C52	C	-0.594034	-0.903695	0.647295
H53	H	-0.731384	-0.893068	0.670414
H54	H	-0.703822	-0.912330	0.554190
H55	H	-0.698381	-1.003485	0.634377
H56	H	-0.585244	-0.830494	0.637661
H57	H	-0.579800	-0.921641	0.717872
C58	C	-0.281418	-1.062660	0.305788
C59	C	-0.335467	-1.133987	0.364831
H60	H	-0.239622	-1.099889	0.260140
H61	H	-0.323511	-1.019904	0.265660
H62	H	-0.244453	-1.019826	0.351526
H63	H	-0.372439	-1.176816	0.319092
H64	H	-0.293369	-1.176762	0.404962
C65	C	-0.656315	-1.600043	1.183549
C66	C	-0.594406	-1.659309	1.120465
H67	H	-0.698227	-1.645635	1.220697
H68	H	-0.619555	-1.560078	1.231984
H69	H	-0.693163	-1.554235	1.140741
H70	H	-0.557553	-1.705112	1.163274
H71	H	-0.631170	-1.699292	1.072024
