data_functionalizedCrystal
_audit_creation_method	'MofGen! by Chris Wilmer'
_symmetry_space_group_name_H-M	'P1'
_symmetry_Int_Tables_number	1
_symmetry_cell_setting	triclinic
loop_
_symmetry_equiv_pos_as_xyz
  x,y,z
_cell_length_a	12.759395
_cell_length_b	21.295417
_cell_length_c	12.759387
_cell_angle_alpha	89.961464
_cell_angle_beta	89.979491
_cell_angle_gamma	90.032044
loop_
_atom_site_label
_atom_site_type_symbol
_atom_site_fract_x
_atom_site_fract_y
_atom_site_fract_z
Zn1	Zn	1.606153	-0.250550	-0.593949
Zn2	Zn	1.605995	-0.355833	-0.418245
Zn3	Zn	1.430451	-0.250585	-0.418285
Zn4	Zn	1.430395	-0.355788	-0.593884
O5	O	1.518249	-0.303189	-0.506091
O6	O	1.753153	-0.264521	-0.570651
O7	O	1.582667	-0.341905	-0.271229
O8	O	1.453848	-0.162491	-0.441631
O9	O	1.753037	-0.341871	-0.441563
O10	O	1.582936	-0.162465	-0.570690
O11	O	1.453695	-0.264579	-0.271259
O12	O	1.283423	-0.264536	-0.441569
O13	O	1.453753	-0.341795	-0.740914
O14	O	1.283382	-0.341828	-0.570581
O15	O	1.582881	-0.264477	-0.740961
O16	O	1.582612	-0.443917	-0.441501
O17	O	1.453600	-0.443884	-0.570542
C18	C	1.245281	-0.303181	-0.506073
C19	C	1.128505	-0.303193	-0.506090
C20	C	1.128500	-0.383808	-0.640213
C21	C	1.073637	-0.424121	-0.707277
C22	C	0.963916	-0.424129	-0.707290
C23	C	0.909055	-0.383818	-0.640233
C24	C	0.963918	-0.343506	-0.573169
C25	C	1.073642	-0.343504	-0.573161
C26	C	0.963922	-0.262888	-0.439053
C27	C	1.073644	-0.262883	-0.439034
C28	C	0.909061	-0.222578	-0.371997
C29	C	0.963924	-0.182267	-0.304926
C30	C	1.073652	-0.182262	-0.304915
C31	C	1.128507	-0.222570	-0.371969
C32	C	1.518111	-0.466741	-0.506033
C33	C	1.518148	-0.536709	-0.506043
C34	C	1.585385	-0.569572	-0.438920
C35	C	1.585434	-0.635314	-0.438944
C36	C	1.518228	-0.668191	-0.506079
C37	C	1.450987	-0.635320	-0.573215
C38	C	1.450947	-0.569579	-0.573197
N39	N	1.426321	-0.771458	-0.514083
N40	N	1.426362	-0.833909	-0.514094
C41	C	1.518346	-0.866266	-0.506139
N42	N	1.610289	-0.833812	-0.498153
N43	N	1.610247	-0.771355	-0.498137
C44	C	1.518264	-0.739477	-0.506107
C45	C	1.585641	-0.970414	-0.439039
C46	C	1.585692	-1.036158	-0.439070
C47	C	1.451236	-1.036163	-0.573336
C48	C	1.451194	-0.970421	-0.573310
C49	C	1.518395	-0.937550	-0.506156
C50	C	1.792282	-0.303197	-0.506110
C51	C	1.909059	-0.303201	-0.506118
C52	C	1.518328	-0.303127	-0.780125
C53	C	1.518362	-0.303101	-0.896901
C54	C	1.518416	-0.138999	-0.506172
C55	C	1.518487	-0.069031	-0.506207
C56	C	1.652833	-0.222595	-0.896970
C57	C	1.720083	-0.182333	-0.951865
C58	C	1.720108	-0.182310	-1.061587
C59	C	1.652874	-0.222552	-1.116416
C60	C	1.585624	-0.262815	-1.061521
C61	C	1.585608	-0.262835	-0.951797
C62	C	1.451150	-0.343316	-1.061452
C63	C	1.451128	-0.343344	-0.951730
C64	C	1.383916	-0.383559	-1.116281
C65	C	1.316670	-0.423825	-1.061386
C66	C	1.316648	-0.423847	-0.951657
C67	C	1.383878	-0.383606	-0.896835
C68	C	1.518230	-0.303205	-0.233123
C69	C	1.518400	-0.303054	-0.116347
H70	H	1.118315	-0.149430	-0.250310
N71	N	1.378655	-0.934973	-0.645692
H72	H	1.388827	-0.888338	-0.635493
H73	H	1.394972	-0.946416	-0.720745
H74	H	1.396269	-0.662093	-0.627879
N75	N	1.652818	-0.222628	-0.778628
H76	H	1.705615	-0.191029	-0.752225
H77	H	1.580722	-0.211075	-0.752270
H78	H	1.383938	-0.383535	-1.205622
H79	H	1.396520	-1.062931	-0.628003
H80	H	1.217848	-0.222571	-0.371964
H81	H	1.640107	-0.542810	-0.384242
N82	N	1.657957	-0.670770	-0.366546
H83	H	1.700523	-0.639971	-0.324004
H84	H	1.615224	-0.698094	-0.317901
H85	H	0.919247	-0.149447	-0.250339
H86	H	1.396194	-0.542822	-0.627858
N87	N	1.792623	-0.138945	-0.892731
H88	H	1.782418	-0.145074	-0.814892
H89	H	1.867638	-0.148765	-0.911934
H90	H	1.774863	-0.149521	-1.106283
N91	N	1.658120	-0.934955	-0.366615
H92	H	1.700729	-0.965752	-0.324101
H93	H	1.706699	-0.907627	-0.409414
H94	H	1.640451	-1.062914	-0.384412
N95	N	1.652872	-0.222513	-1.234758
H96	H	1.705666	-0.190895	-1.261214
H97	H	1.672102	-0.265709	-1.261106
N98	N	1.244139	-0.467213	-1.120519
H99	H	1.254350	-0.461082	-1.198356
H100	H	1.260421	-0.512180	-1.101334
H101	H	1.383871	-0.383622	-0.807494
N102	N	1.246842	-0.383808	-0.640184
H103	H	1.273271	-0.415462	-0.692835
H104	H	1.273239	-0.340619	-0.659602
N105	N	1.132807	-0.467599	-0.779596
H106	H	1.210640	-0.461482	-0.769412
H107	H	1.113579	-0.512544	-0.763092
N108	N	0.904734	-0.467604	-0.779625
H109	H	0.956132	-0.493139	-0.822104
H110	H	0.859169	-0.496704	-0.736764
H111	H	1.261873	-0.456627	-0.906968
H112	H	0.819720	-0.222584	-0.372017
N113	N	0.790713	-0.383824	-0.640246
H114	H	0.764282	-0.415478	-0.692906
H115	H	0.764332	-0.395325	-0.568101
