data_functionalizedCrystal
_audit_creation_method	'MofGen! by Chris Wilmer'
_symmetry_space_group_name_H-M	'P1'
_symmetry_Int_Tables_number	1
_symmetry_cell_setting	triclinic
loop_
_symmetry_equiv_pos_as_xyz
  x,y,z
_cell_length_a	13.339070
_cell_length_b	16.109301
_cell_length_c	14.586319
_cell_angle_alpha	90.000787
_cell_angle_beta	89.998714
_cell_angle_gamma	80.454612
loop_
_atom_site_label
_atom_site_type_symbol
_atom_site_fract_x
_atom_site_fract_y
_atom_site_fract_z
O1	O	0.130021	-1.133153	-0.076178
O2	O	0.146201	-0.894827	-0.076192
O3	O	-0.009144	-0.986638	-0.076184
O4	O	0.285365	-1.041342	-0.076186
O5	O	-0.009146	-0.986629	0.076297
O6	O	0.146199	-0.894818	0.076289
O7	O	0.130018	-1.133144	0.076303
Cu8	Cu	0.138108	-1.013980	0.090219
Cu9	Cu	0.138111	-1.013991	-0.090107
O10	O	0.285363	-1.041333	0.076295
C11	C	0.145545	-0.863697	0.000047
C12	C	0.143580	-0.770947	0.000041
C13	C	-0.046831	-0.977393	0.000055
C14	C	-0.159124	-0.949849	0.000050
C15	C	0.130675	-1.164275	0.000063
C16	C	0.132640	-1.257024	0.000062
C17	C	-0.523987	-1.164017	0.000063
C18	C	-0.418483	-1.189898	0.000073
C19	C	-0.353638	-1.129888	0.000067
C20	C	-0.394307	-1.043992	0.000051
C21	C	-0.499822	-1.018108	0.000048
C22	C	-0.329473	-0.983979	0.000052
C23	C	-0.370142	-0.898083	0.000037
C24	C	-0.475647	-0.872203	0.000033
C25	C	-0.540492	-0.932213	0.000039
C26	C	-0.223958	-1.009863	0.000055
C27	C	-0.199793	-0.863954	0.000041
C28	C	-0.305297	-0.838073	0.000030
C29	C	0.323050	-1.050578	0.000054
C30	C	0.435343	-1.078122	0.000054
N31	N	0.138106	-1.013978	0.217051
C32	C	0.231189	-0.568905	0.000051
C33	C	0.229335	-0.481756	0.000057
C34	C	0.045023	-0.459072	0.000055
C35	C	0.046879	-0.546219	0.000055
C36	C	0.139965	-0.601133	0.000049
C37	C	0.136255	-0.426838	0.000054
C38	C	0.134244	-0.332347	0.000061
C39	C	0.141976	-0.695630	0.000044
N40	N	0.138106	-1.013998	-0.216939
C41	C	0.069342	-1.054656	0.452061
C42	C	0.069340	-1.054658	0.548042
C43	C	0.206873	-0.973315	0.548044
C44	C	0.206870	-0.973308	0.452065
C45	C	0.138105	-1.013984	0.404075
C46	C	0.138106	-1.013992	0.596036
C47	C	0.138104	-1.013994	0.700103
C48	C	0.138106	-1.013981	0.300002
H49	H	-0.190856	-1.079800	0.000068
H50	H	-0.027412	-0.572459	0.000056
F51	F	-0.130785	-0.800082	0.000040
F52	F	0.280056	-0.930013	0.400991
H53	H	0.303619	-0.455520	0.000061
H54	H	-0.267732	-1.150966	0.000075
F55	F	-0.375207	-1.281311	0.000075
H56	H	-0.030764	-0.414350	0.000066
F57	F	-0.348594	-0.746657	0.000012
F58	F	-0.003849	-1.097944	0.599108
F59	F	-0.593004	-1.227873	0.000084
F60	F	-0.652784	-0.904672	-0.000058
F61	F	0.330259	-0.627346	0.000048
H62	H	0.013349	-1.087775	0.412990
F63	F	0.280055	-0.930029	0.599124
H64	H	-0.508756	-0.802261	0.000027
