data_functionalizedCrystal
_audit_creation_method	'MofGen! by Chris Wilmer'
_symmetry_space_group_name_H-M	'P1'
_symmetry_Int_Tables_number	1
_symmetry_cell_setting	triclinic
loop_
_symmetry_equiv_pos_as_xyz
  x,y,z
_cell_length_a	16.956995
_cell_length_b	12.996460
_cell_length_c	16.974755
_cell_angle_alpha	86.336968
_cell_angle_beta	100.271738
_cell_angle_gamma	90.008872
loop_
_atom_site_label
_atom_site_type_symbol
_atom_site_fract_x
_atom_site_fract_y
_atom_site_fract_z
O1	O	1.058000	0.088368	-0.032775
O2	O	1.391333	0.421701	0.300558
O3	O	1.724666	0.755035	0.633892
O4	O	0.825810	0.090667	-0.060536
O5	O	1.159144	0.424000	0.272797
O6	O	1.492477	0.757334	0.606131
O7	O	0.948386	0.079887	0.068873
O8	O	1.281719	0.413220	0.402207
O9	O	1.615053	0.746554	0.735540
O10	O	0.935424	0.099148	-0.162184
O11	O	1.268757	0.432481	0.171149
O12	O	1.602091	0.765815	0.504482
O13	O	0.948373	-0.091247	0.068879
O14	O	1.281707	0.242086	0.402212
O15	O	1.615040	0.575419	0.735546
O16	O	0.825798	-0.080467	-0.060530
O17	O	1.159131	0.252866	0.272803
O18	O	1.492464	0.586199	0.606136
O19	O	1.057987	-0.082766	-0.032769
O20	O	1.391320	0.250567	0.300564
O21	O	1.724654	0.583900	0.633897
Cu22	Cu	0.941891	-0.097243	-0.046649
Cu23	Cu	1.275224	0.236091	0.286684
Cu24	Cu	1.608558	0.569424	0.620017
Cu25	Cu	0.941906	0.105143	-0.046656
Cu26	Cu	1.275240	0.438477	0.286677
Cu27	Cu	1.608573	0.771810	0.620011
O28	O	0.935411	-0.071986	-0.162179
O29	O	1.268745	0.261347	0.171155
O30	O	1.602078	0.594680	0.504488
C31	C	0.796094	0.005217	-0.061955
C32	C	1.129428	0.338550	0.271379
C33	C	1.462761	0.671883	0.604712
C34	C	0.707569	0.005563	-0.066180
C35	C	1.040902	0.338897	0.267153
C36	C	1.374236	0.672230	0.600486
C37	C	0.208232	0.008237	-0.097794
C38	C	0.541565	0.341570	0.235539
C39	C	0.874898	0.674904	0.568872
C40	C	0.291411	0.007905	-0.093818
C41	C	0.624745	0.341238	0.239516
C42	C	0.958078	0.674571	0.572849
C43	C	0.342587	0.001674	-0.019170
C44	C	0.675920	0.335008	0.314163
C45	C	1.009253	0.668341	0.647496
C46	C	0.310579	-0.004214	0.051504
C47	C	0.643912	0.329120	0.384838
C48	C	0.977245	0.662453	0.718171
C49	C	0.227400	-0.003874	0.047527
C50	C	0.560734	0.329459	0.380860
C51	C	0.894067	0.662793	0.714193
C52	C	0.592382	0.000015	0.000517
C53	C	0.925716	0.333348	0.333850
C54	C	1.259049	0.666682	0.667183
C55	C	0.675566	-0.000327	0.004489
C56	C	1.008899	0.333006	0.337822
C57	C	1.342232	0.666339	0.671156
C58	C	0.656393	0.011793	-0.140833
C59	C	0.989726	0.345126	0.192500
C60	C	1.323059	0.678460	0.525833
C61	C	0.573214	0.012126	-0.144804
C62	C	0.906547	0.345459	0.188529
C63	C	1.239880	0.678793	0.521862
C64	C	0.541213	0.006243	-0.074130
C65	C	0.874546	0.339577	0.259204
C66	C	1.207879	0.672910	0.592537
N67	N	0.427610	0.001331	-0.015104
N68	N	0.760944	0.334665	0.318230
N69	N	1.094277	0.667998	0.651563
N70	N	0.456191	0.006594	-0.078197
N71	N	0.789524	0.339927	0.255136
N72	N	1.122857	0.673261	0.588469
N73	N	0.941886	-0.239590	-0.046643
N74	N	1.275220	0.093743	0.286690
N75	N	1.608553	0.427076	0.620023
C76	C	0.941905	-0.659403	-0.046657
C77	C	1.275238	-0.326070	0.286676
C78	C	1.608572	0.007263	0.620010
C79	C	0.941898	-0.542598	-0.046656
C80	C	1.275231	-0.209265	0.286677
C81	C	1.608564	0.124068	0.620011
C82	C	0.941896	-0.449501	-0.046651
C83	C	1.275229	-0.116167	0.286683
C84	C	1.608563	0.217166	0.620016
C85	C	0.941888	-0.332688	-0.046649
C86	C	1.275221	0.000645	0.286685
C87	C	1.608554	0.333978	0.620018
C88	C	1.087703	0.002686	-0.031351
C89	C	1.421036	0.336020	0.301983
C90	C	1.754370	0.669353	0.635316
C91	C	1.176229	0.002346	-0.027125
C92	C	1.509562	0.335680	0.306208
C93	C	1.842895	0.669013	0.639542
C94	C	0.947889	-0.008131	0.098303
C95	C	1.281223	0.325202	0.431636
C96	C	1.614556	0.658535	0.764970
C97	C	0.946418	-0.015434	0.185985
C98	C	1.279752	0.317899	0.519319
C99	C	1.613085	0.651232	0.852652
N100	N	0.941917	0.247490	-0.046655
N101	N	1.275251	0.580824	0.286678
N102	N	1.608584	0.914157	0.620011
C103	C	0.935908	0.016034	-0.191608
C104	C	1.269241	0.349367	0.141725
C105	C	1.602575	0.682701	0.475058
C106	C	0.937379	0.023344	-0.279291
C107	C	1.270712	0.356677	0.054043
C108	C	1.604046	0.690011	0.387376
C109	C	0.938066	-0.066514	0.679530
C110	C	1.271400	0.266819	1.012864
C111	C	1.604733	0.600152	1.346197
C112	C	0.939456	-0.059657	0.597145
C113	C	1.272789	0.273676	0.930478
C114	C	1.606123	0.607010	1.263812
C115	C	0.940164	0.037059	0.555942
C116	C	1.273497	0.370392	0.889275
C117	C	1.606831	0.703726	1.222608
C118	C	0.939474	0.126924	0.597126
C119	C	1.272807	0.460257	0.930460
C120	C	1.606141	0.793591	1.263793
C121	C	0.938079	0.120066	0.679509
C122	C	1.271412	0.453399	1.012842
C123	C	1.604745	0.786733	1.346176
C124	C	0.944333	0.067573	0.309552
C125	C	1.277666	0.400906	0.642886
C126	C	1.611000	0.734239	0.976219
C127	C	0.945731	0.074424	0.227164
C128	C	1.279064	0.407757	0.560498
C129	C	1.612398	0.741091	0.893831
C130	C	0.945711	-0.112158	0.227189
C131	C	1.279045	0.221175	0.560522
C132	C	1.612378	0.554509	0.893855
C133	C	0.944321	-0.119007	0.309574
C134	C	1.277654	0.214326	0.642907
C135	C	1.610987	0.547659	0.976240
C136	C	0.943627	-0.029143	0.350750
C137	C	1.276960	0.304191	0.684083
C138	C	1.610293	0.637524	1.017417
N139	N	0.941587	0.044070	0.471731
N140	N	1.274920	0.377404	0.805065
N141	N	1.608254	0.710737	1.138398
N142	N	0.942198	-0.036155	0.434958
N143	N	1.275531	0.297179	0.768291
N144	N	1.608865	0.630512	1.101625
H145	H	0.682457	0.016584	-0.198373
H146	H	1.015791	0.349917	0.134960
H147	H	1.349124	0.683251	0.468294
H148	H	0.943775	0.140747	0.343070
H149	H	1.277108	0.474081	0.676403
H150	H	1.610441	0.807414	1.009736
H151	H	0.940046	0.205672	0.563571
H152	H	1.273380	0.539006	0.896905
H153	H	1.606713	0.872339	1.230238
C154	C	0.937342	0.218909	0.724810
C155	C	1.270676	0.552243	1.058143
C156	C	1.604009	0.885576	1.391477
H157	H	0.937976	0.277493	0.688476
H158	H	1.271310	0.610826	1.021809
H159	H	1.604643	0.944159	1.355142
H160	H	0.890323	0.220883	0.747880
H161	H	1.223656	0.554216	1.081213
H162	H	1.556989	0.887549	1.414546
H163	H	0.983291	0.219341	0.766017
H164	H	1.316624	0.552674	1.099350
H165	H	1.649958	0.886008	1.432684
H166	H	0.946307	0.153186	0.193619
H167	H	1.279640	0.486519	0.526952
H168	H	1.612973	0.819852	0.860286
H169	H	0.946275	-0.185321	0.193653
H170	H	1.279609	0.148013	0.526987
H171	H	1.612942	0.481346	0.860320
H172	H	0.566338	-0.004778	0.058065
H173	H	0.899671	0.328556	0.391398
H174	H	1.233004	0.661889	0.724732
H175	H	0.940028	-0.132830	0.563623
H176	H	1.273361	0.200504	0.896956
H177	H	1.606694	0.533837	1.230290
H178	H	0.317464	0.012711	-0.151364
H179	H	0.650797	0.346044	0.181969
H180	H	0.984130	0.679378	0.515302
C181	C	0.151946	0.015096	-0.179907
C182	C	0.485279	0.348430	0.153426
C183	C	0.818612	0.681763	0.486760
H184	H	0.182922	0.018568	-0.221425
H185	H	0.516255	0.351901	0.111908
H186	H	0.849589	0.685235	0.445242
H187	H	0.119086	-0.044194	-0.184486
H188	H	0.452419	0.289139	0.148847
H189	H	0.785752	0.622473	0.482180
H190	H	0.119114	0.075169	-0.184474
H191	H	0.452447	0.408502	0.148859
H192	H	0.785781	0.741835	0.482192
C193	C	0.366869	-0.011070	0.133615
C194	C	0.700202	0.322263	0.466948
C195	C	1.033536	0.655597	0.800281
H196	H	0.420991	-0.010440	0.125863
H197	H	0.754324	0.322893	0.459197
H198	H	1.087658	0.656227	0.792530
H199	H	0.357188	0.046171	0.162821
H200	H	0.690522	0.379505	0.496154
H201	H	1.023855	0.712838	0.829488
H202	H	0.357161	-0.073192	0.162813
H203	H	0.690495	0.260142	0.496146
H204	H	1.023828	0.593475	0.829479
C205	C	0.516926	0.018981	-0.226916
C206	C	0.850260	0.352315	0.106417
C207	C	1.183593	0.685648	0.439750
H208	H	0.547900	0.022449	-0.268436
H209	H	0.881233	0.355783	0.064897
H210	H	1.214567	0.689116	0.398230
H211	H	0.484070	-0.040313	-0.231487
H212	H	0.817403	0.293020	0.101846
H213	H	1.150737	0.626354	0.435179
H214	H	0.484091	0.079051	-0.231488
H215	H	0.817424	0.412384	0.101846
H216	H	1.150758	0.745718	0.435179
C217	C	0.731858	-0.007162	0.086604
C218	C	1.065191	0.326172	0.419938
C219	C	1.398525	0.659505	0.753271
H220	H	0.700887	-0.010603	0.128127
H221	H	1.034220	0.322730	0.461460
H222	H	1.367554	0.656064	0.794793
H223	H	0.764697	-0.067222	0.091184
H224	H	1.098031	0.266112	0.424518
H225	H	1.431364	0.599445	0.757851
H226	H	0.764710	0.052144	0.091163
H227	H	1.098043	0.385477	0.424497
H228	H	1.431377	0.718810	0.757830
H229	H	0.937493	-0.145271	0.713073
H230	H	1.270827	0.188062	1.046406
H231	H	1.604160	0.521396	1.379739
C232	C	0.192197	-0.010357	0.125263
C233	C	0.525530	0.322977	0.458596
C234	C	0.858863	0.656310	0.791930
H235	H	0.234586	-0.014125	0.170290
H236	H	0.567920	0.319208	0.503624
H237	H	0.901253	0.652542	0.836957
H238	H	0.160158	0.049202	0.126732
H239	H	0.493491	0.382536	0.460066
H240	H	0.826825	0.715869	0.793399
H241	H	0.160137	-0.070161	0.126731
H242	H	0.493470	0.263172	0.460064
H243	H	0.826804	0.596505	0.793398
C244	C	0.943538	-0.225395	0.354891
C245	C	1.276871	0.107938	0.688224
C246	C	1.610205	0.441272	1.021557
H247	H	0.944140	-0.277931	0.318565
H248	H	1.277473	0.055402	0.651898
H249	H	1.610807	0.388736	0.985231
H250	H	0.989474	-0.232705	0.396104
H251	H	1.322807	0.100628	0.729437
H252	H	1.656140	0.433961	1.062770
H253	H	0.896506	-0.231189	0.377952
H254	H	1.229839	0.102144	0.711285
H255	H	1.563172	0.435478	1.044618
