data_functionalizedCrystal
_audit_creation_method	'MofGen! by Chris Wilmer'
_symmetry_space_group_name_H-M	'P1'
_symmetry_Int_Tables_number	1
_symmetry_cell_setting	triclinic
loop_
_symmetry_equiv_pos_as_xyz
  x,y,z
_cell_length_a	15.944545
_cell_length_b	15.944551
_cell_length_c	9.198806
_cell_angle_alpha	90.004401
_cell_angle_beta	90.001175
_cell_angle_gamma	83.497455
loop_
_atom_site_label
_atom_site_type_symbol
_atom_site_fract_x
_atom_site_fract_y
_atom_site_fract_z
O1	O	1.114527	0.108305	0.120801
O2	O	0.869977	0.121667	0.120825
O3	O	0.998930	-0.007289	0.120800
O4	O	0.985574	0.237261	0.120827
O5	O	0.998920	-0.007290	-0.120985
O6	O	0.869966	0.121666	-0.120960
O7	O	1.114517	0.108304	-0.120984
Cu8	Cu	0.992241	0.114985	-0.143048
Cu9	Cu	0.992253	0.114986	0.142890
O10	O	0.985563	0.237260	-0.120958
C11	C	0.838677	0.121113	-0.000064
C12	C	0.745431	0.119453	-0.000055
C13	C	0.474798	0.034559	-0.000080
C14	C	0.525375	0.075487	-0.119292
C15	C	0.409787	0.113532	-0.000081
C16	C	0.525366	0.075510	0.119089
C17	C	0.574701	0.116437	-0.000066
C18	C	0.459136	0.154439	-0.119391
C19	C	0.459123	0.154450	0.119097
C20	C	0.509667	0.195436	-0.000144
C21	C	0.314785	0.111856	-0.000091
C22	C	0.669700	0.118119	-0.000067
C23	C	0.998370	-0.038583	-0.000093
C24	C	0.996708	-0.131829	-0.000094
C25	C	0.912803	-0.346684	-0.000065
C26	C	0.951761	-0.407703	-0.119284
C27	C	0.993701	-0.302555	-0.000082
C28	C	0.951790	-0.407685	0.119097
C29	C	0.990790	-0.467468	-0.000065
C30	C	1.032680	-0.362345	-0.119399
C31	C	1.032698	-0.362321	0.119089
C32	C	1.071715	-0.423322	-0.000158
C33	C	0.995375	-0.207553	-0.000093
C34	C	0.989122	-0.562469	-0.000064
C35	C	1.145816	0.108859	-0.000091
C36	C	1.239062	0.110519	-0.000090
C37	C	0.986123	0.268555	-0.000062
C38	C	0.987785	0.361801	-0.000052
N39	N	0.992238	0.114984	-0.344162
C40	C	1.040805	0.163276	-0.416360
C41	C	1.040818	0.163275	-0.583772
N42	N	0.992262	0.114981	0.344004
H43	H	0.459145	-0.033453	-0.000204
H44	H	0.554287	0.042144	0.219867
H45	H	0.950675	0.073638	-0.593917
H46	H	0.554302	0.042135	-0.220083
H47	H	0.430322	0.187766	-0.220283
H48	H	0.525159	0.263501	-0.000206
H49	H	0.430181	0.187773	0.219892
C50	C	1.181618	0.195918	-0.369166
C51	C	1.096929	0.219094	-0.332503
H52	H	1.216265	0.230376	-0.317391
H53	H	1.188982	0.203244	-0.470657
H54	H	1.197043	0.138416	-0.344290
H55	H	1.081501	0.276594	-0.357389
H56	H	1.089560	0.211774	-0.230990
H57	H	0.917540	-0.427810	-0.220067
C58	C	0.779993	-0.324449	-0.125206
C59	C	0.822160	-0.301709	-0.000211
H60	H	0.724037	-0.296678	-0.125302
H61	H	0.778317	-0.383804	-0.126060
H62	H	0.809023	-0.308273	-0.209029
H63	H	0.793133	-0.317891	0.083612
H64	H	0.823832	-0.242341	0.000656
C65	C	1.079923	-0.247683	-0.254426
C66	C	1.078823	-0.335368	-0.255619
H67	H	1.108403	-0.231028	-0.338528
H68	H	1.108471	-0.231794	-0.169889
H69	H	1.023639	-0.220760	-0.254075
H70	H	1.135107	-0.362291	-0.255959
H71	H	1.050277	-0.351265	-0.340179
H72	H	1.082394	0.204624	-0.645860
C73	C	1.204578	-0.445228	-0.125182
C74	C	1.162437	-0.468099	-0.000255
H75	H	1.260583	-0.472877	-0.125247
H76	H	1.206117	-0.385853	-0.125972
H77	H	1.175619	-0.461456	-0.209052
H78	H	1.191393	-0.451864	0.083616
H79	H	1.160903	-0.527486	0.000549
C80	C	1.036374	-0.357756	0.379872
C81	C	1.078854	-0.335135	0.255145
H82	H	1.064862	-0.340964	0.463874
H83	H	1.035213	-0.417177	0.381334
H84	H	0.980240	-0.330453	0.379006
H85	H	1.134986	-0.362442	0.256006
H86	H	1.080024	-0.275702	0.253684
H87	H	0.917567	-0.427761	0.219894
H88	H	0.950670	0.073636	-0.406292
