data_functionalizedCrystal
_audit_creation_method	'MofGen! by Chris Wilmer'
_symmetry_space_group_name_H-M	'P1'
_symmetry_Int_Tables_number	1
_symmetry_cell_setting	triclinic
loop_
_symmetry_equiv_pos_as_xyz
  x,y,z
_cell_length_a	19.805407
_cell_length_b	16.959453
_cell_length_c	19.805399
_cell_angle_alpha	89.973285
_cell_angle_beta	89.975799
_cell_angle_gamma	90.019234
loop_
_atom_site_label
_atom_site_type_symbol
_atom_site_fract_x
_atom_site_fract_y
_atom_site_fract_z
Zn1	Zn	1.034766	-0.314716	-0.382807
Zn2	Zn	1.034693	-0.446898	-0.269621
Zn3	Zn	0.921581	-0.314736	-0.269623
Zn4	Zn	0.921557	-0.446854	-0.382758
O5	O	0.978149	-0.380801	-0.326202
O6	O	1.129473	-0.332260	-0.367812
O7	O	1.019668	-0.429393	-0.174904
O8	O	0.936635	-0.204122	-0.284658
O9	O	1.129420	-0.429374	-0.284655
O10	O	1.019792	-0.204107	-0.367814
O11	O	0.936565	-0.332294	-0.174906
O12	O	0.826861	-0.332252	-0.284611
O13	O	0.936595	-0.429299	-0.477481
O14	O	0.826843	-0.429319	-0.367731
O15	O	1.019769	-0.332217	-0.477517
O16	O	1.019645	-0.557503	-0.284607
O17	O	0.936524	-0.557471	-0.367729
C18	C	0.802293	-0.380783	-0.326166
C19	C	0.727061	-0.380795	-0.326167
C20	C	0.265279	-0.431439	-0.369458
C21	C	0.335967	-0.431437	-0.369444
C22	C	0.371299	-0.380820	-0.326229
C23	C	0.335940	-0.330206	-0.283020
C24	C	0.265252	-0.330212	-0.283032
C25	C	0.621013	-0.330182	-0.282972
C26	C	0.691705	-0.330179	-0.282966
C27	C	0.691728	-0.431407	-0.369385
C28	C	0.621041	-0.431413	-0.369396
C29	C	0.585687	-0.380803	-0.326186
C30	C	0.509038	-0.380806	-0.326201
C31	C	0.447947	-0.380812	-0.326217
C32	C	0.978093	-0.586167	-0.326177
C33	C	0.978131	-0.674024	-0.326190
C34	C	1.021504	-1.045433	-0.369583
C35	C	0.934983	-1.045566	-0.282922
C36	C	0.934958	-0.963020	-0.282906
C37	C	0.978206	-0.921677	-0.326231
C38	C	1.021479	-0.962880	-0.369571
C39	C	0.891681	-0.921811	-0.239572
C40	C	0.891653	-0.839260	-0.239555
C41	C	0.934905	-0.797915	-0.282877
C42	C	0.978181	-0.839123	-0.326218
C43	C	1.021429	-0.797780	-0.369542
C44	C	1.064708	-0.838987	-0.412881
C45	C	1.064731	-0.921535	-0.412892
C46	C	0.934882	-0.715367	-0.282865
C47	C	1.021404	-0.715227	-0.369530
C48	C	1.154692	-0.380819	-0.326239
C49	C	1.229924	-0.380827	-0.326255
C50	C	0.978187	-0.380751	-0.502745
C51	C	0.978203	-0.380730	-0.577977
C52	C	0.978224	-0.174633	-0.326242
C53	C	0.978256	-0.086776	-0.326259
C54	C	1.021513	-0.330177	-0.613341
C55	C	1.021520	-0.330154	-0.684030
C56	C	0.978220	-0.380689	-0.719353
C57	C	0.934906	-0.431244	-0.683984
C58	C	0.934896	-0.431262	-0.613297
C59	C	0.934944	-0.431170	-0.969057
C60	C	0.934958	-0.431150	-1.039749
C61	C	1.021568	-0.330062	-1.039790
C62	C	1.021558	-0.330080	-0.969103
C63	C	0.978241	-0.380632	-0.933740
C64	C	0.978234	-0.380656	-0.857092
C65	C	0.978231	-0.380670	-0.796000
C66	C	0.978150	-0.380794	-0.150346
C67	C	0.978265	-0.380592	-0.075115
H68	H	0.364713	-0.288996	-0.247830
H69	H	0.899642	-0.681820	-0.247583
C70	C	1.112269	-0.793508	-0.460546
H71	H	1.138043	-0.829867	-0.486364
H72	H	1.141764	-0.761290	-0.434687
H73	H	1.086334	-0.761315	-0.490005
H74	H	0.592236	-0.288975	-0.247785
C75	C	0.887416	-1.091040	-0.235267
H76	H	0.893632	-1.146105	-0.241479
H77	H	0.841928	-1.077541	-0.245118
H78	H	0.897354	-1.077540	-0.189796
C79	C	0.226362	-0.274537	-0.235510
H80	H	0.257527	-0.244384	-0.209775
H81	H	0.198762	-0.304729	-0.205978
H82	H	0.198811	-0.240135	-0.261463
H83	H	0.720521	-0.472619	-0.404568
C84	C	0.730573	-0.274501	-0.235425
H85	H	0.777734	-0.281742	-0.241615
H86	H	0.718963	-0.286003	-0.189932
H87	H	0.719006	-0.221405	-0.245414
C88	C	0.374858	-0.487133	-0.416946
H89	H	0.422017	-0.479896	-0.410739
H90	H	0.363316	-0.475658	-0.462450
H91	H	0.363241	-0.540221	-0.406938
C92	C	0.887257	-0.486869	-0.574393
H93	H	0.893447	-0.479637	-0.527236
H94	H	0.897141	-0.539977	-0.585967
H95	H	0.841784	-0.475285	-0.585969
C96	C	1.068971	-0.669756	-0.417194
H97	H	1.094743	-0.706121	-0.443008
H98	H	1.098468	-0.637542	-0.391334
H99	H	1.043042	-0.637560	-0.446656
H100	H	1.056836	-0.288897	-1.068591
H101	H	1.099966	-0.955093	-0.448177
C102	C	1.069141	-0.274584	-0.574492
H103	H	1.094930	-0.244468	-0.605680
H104	H	1.098619	-0.304825	-0.546916
H105	H	1.043250	-0.240147	-0.546919
H106	H	1.056789	-0.288991	-0.712820
H107	H	0.592276	-0.472628	-0.404589
H108	H	1.056743	-1.078987	-0.404867
H109	H	0.856469	-0.955478	-0.204301
C110	C	0.844056	-0.793940	-0.191879
H111	H	0.818307	-0.830386	-0.166076
H112	H	0.814539	-0.761736	-0.217730
H113	H	0.869964	-0.761745	-0.162406
C114	C	1.069186	-0.274490	-0.930251
H115	H	1.094976	-0.244373	-0.961437
H116	H	1.098662	-0.304733	-0.902676
H117	H	1.043295	-0.240053	-0.902679
C118	C	0.887321	-0.486734	-1.078604
H119	H	0.861517	-0.516839	-1.047420
H120	H	0.913202	-0.521172	-1.106179
H121	H	0.857848	-0.456476	-1.106177
H122	H	0.899682	-0.472344	-0.940273
H123	H	0.236516	-0.472653	-0.404653
C124	C	0.887277	-0.486832	-0.722837
H125	H	0.893490	-0.479587	-0.770001
H126	H	0.841802	-0.475264	-0.711244
H127	H	0.897167	-0.539947	-0.711243
