data_functionalizedCrystal
_audit_creation_method	'MofGen! by Chris Wilmer'
_symmetry_space_group_name_H-M	'P1'
_symmetry_Int_Tables_number	1
_symmetry_cell_setting	triclinic
loop_
_symmetry_equiv_pos_as_xyz
  x,y,z
_cell_length_a	14.519709
_cell_length_b	10.489741
_cell_length_c	13.596369
_cell_angle_alpha	89.994306
_cell_angle_beta	90.000291
_cell_angle_gamma	84.109659
loop_
_atom_site_label
_atom_site_type_symbol
_atom_site_fract_x
_atom_site_fract_y
_atom_site_fract_z
O1	O	1.224779	0.167203	-0.081663
O2	O	1.724779	0.667203	0.418337
O3	O	0.956410	0.186894	-0.081693
O4	O	1.456410	0.686894	0.418307
O5	O	1.096701	-0.008613	-0.081671
O6	O	1.596701	0.491387	0.418329
O7	O	1.084488	0.362710	-0.081684
O8	O	1.584488	0.862710	0.418316
O9	O	1.096687	-0.008623	0.081912
O10	O	1.596687	0.491377	0.581912
O11	O	0.956396	0.186883	0.081890
O12	O	1.456396	0.686883	0.581890
O13	O	1.224765	0.167193	0.081920
O14	O	1.724765	0.667193	0.581920
Zn15	Zn	1.090578	0.177037	0.107878
Zn16	Zn	1.590578	0.677037	0.607878
Zn17	Zn	1.090597	0.177050	-0.107650
Zn18	Zn	1.590597	0.677050	0.392350
O19	O	1.084474	0.362700	0.081899
O20	O	1.584474	0.862700	0.581899
C21	C	0.922038	0.185971	0.000095
C22	C	1.422038	0.685971	0.500095
C23	C	0.819642	0.183221	0.000084
C24	C	1.319642	0.683221	0.500084
C25	C	0.444691	0.173098	0.000129
C26	C	0.944691	0.673098	0.500129
C27	C	0.549014	0.175909	0.000116
C28	C	1.049014	0.675909	0.500116
C29	C	0.632163	0.178159	0.000105
C30	C	1.132163	0.678159	0.500105
C31	C	0.736493	0.180971	0.000094
C32	C	1.236493	0.680971	0.500094
C33	C	1.095772	-0.056140	0.000120
C34	C	1.595772	0.443860	0.500120
C35	C	1.093012	-0.197741	0.000118
C36	C	1.593012	0.302259	0.500118
C37	C	1.003749	-0.264951	0.000100
C38	C	1.503749	0.235049	0.500100
C39	C	1.045909	-0.357518	0.080760
C40	C	1.545909	0.142482	0.580760
C41	C	1.045944	-0.357482	-0.080520
C42	C	1.545944	0.142518	0.419480
C43	C	1.135209	-0.288443	0.080844
C44	C	1.635209	0.211557	0.580844
C45	C	1.135232	-0.288398	-0.080509
C46	C	1.635232	0.211602	0.419491
C47	C	1.177457	-0.380938	0.000171
C48	C	1.677457	0.119062	0.500171
C49	C	1.259137	0.168116	0.000130
C50	C	1.759137	0.668116	0.500130
C51	C	1.361533	0.170866	0.000135
C52	C	1.861533	0.670866	0.500135
C53	C	1.085403	0.410227	0.000106
C54	C	1.585403	0.910227	0.500106
C55	C	1.088163	0.551828	0.000101
C56	C	1.588163	1.051828	0.500101
N57	N	1.090572	0.177026	0.254969
N58	N	1.590572	0.677026	0.754969
N59	N	1.090610	0.177050	-0.254742
N60	N	1.590610	0.677050	0.245258
C61	C	1.090596	0.177052	0.656260
C62	C	1.590596	0.677052	1.156260
C63	C	1.090586	0.177049	0.544609
C64	C	1.590586	0.677049	1.044609
C65	C	1.090584	0.177040	0.455618
C66	C	1.590584	0.677040	0.955618
C67	C	1.090574	0.177035	0.343960
C68	C	1.590574	0.677035	0.843960
H69	H	1.008134	-0.388140	0.148944
H70	H	1.508134	0.111860	0.648944
O71	O	1.265141	-0.440645	0.000100
O72	O	1.765141	0.059355	0.500100
C73	C	1.312400	-0.403818	-0.084194
C74	C	1.812400	0.096182	0.415806
H75	H	1.278418	-0.307778	-0.112035
H76	H	1.778418	0.192222	0.387965
H77	H	1.309221	-0.479430	-0.143983
H78	H	1.809221	0.020570	0.356017
C79	C	1.455961	-0.509141	-0.023701
C80	C	1.955961	-0.009141	0.476299
C81	C	1.414228	-0.391178	-0.057891
C82	C	1.914228	0.108822	0.442109
H83	H	1.518774	-0.501350	-0.007480
H84	H	2.018774	-0.001350	0.492520
H85	H	1.424121	-0.533957	0.033087
H86	H	1.924121	-0.033957	0.533087
H87	H	1.453302	-0.572139	-0.073531
H88	H	1.953302	-0.072139	0.426469
H89	H	1.416877	-0.328186	-0.008058
H90	H	1.916877	0.171814	0.491942
H91	H	1.446071	-0.366351	-0.114671
H92	H	1.946071	0.133649	0.385329
O93	O	1.180125	-0.251849	-0.161953
O94	O	1.680125	0.248151	0.338047
C95	C	1.132846	-0.286653	-0.246833
C96	C	1.632846	0.213347	0.253167
H97	H	1.057588	-0.297093	-0.227517
H98	H	1.557588	0.202907	0.272483
H99	H	1.167102	-0.381695	-0.276258
H100	H	1.667102	0.118305	0.223742
C101	C	1.229019	-0.169359	-0.349619
C102	C	1.729019	0.330641	0.150381
C103	C	1.136584	-0.182172	-0.325897
C104	C	1.636584	0.317828	0.174103
H105	H	1.231328	-0.104914	-0.398391
H106	H	1.731328	0.395086	0.101609
H107	H	1.260875	-0.145915	-0.292434
H108	H	1.760875	0.354085	0.207566
H109	H	1.257556	-0.248568	-0.374134
H110	H	1.757556	0.251432	0.125866
H111	H	1.108052	-0.102969	-0.301371
H112	H	1.608052	0.397031	0.198629
H113	H	1.104723	-0.205601	-0.383079
H114	H	1.604723	0.294399	0.116921
H115	H	1.172940	-0.258009	0.149112
H116	H	1.672940	0.241991	0.649112
O117	O	1.000758	-0.393792	-0.161846
O118	O	1.500758	0.106208	0.338154
C119	C	0.909196	-0.334173	-0.161532
C120	C	1.409196	0.165827	0.338468
H121	H	0.905367	-0.243987	-0.114312
H122	H	1.405367	0.256013	0.385688
H123	H	0.860908	-0.402996	-0.130060
H124	H	1.360908	0.097004	0.369940
C125	C	0.884283	-0.408672	-0.325487
C126	C	1.384283	0.091328	0.174513
C127	C	0.879582	-0.297898	-0.267497
C128	C	1.379582	0.202102	0.232503
H129	H	0.866013	-0.386301	-0.390850
H130	H	1.366013	0.113699	0.109150
H131	H	0.945969	-0.448843	-0.325697
H132	H	1.445969	0.051157	0.174303
H133	H	0.844043	-0.466014	-0.299249
H134	H	1.344043	0.033986	0.200751
H135	H	0.919829	-0.240566	-0.293728
H136	H	1.419829	0.259434	0.206272
H137	H	0.817902	-0.257716	-0.267293
H138	H	1.317902	0.242284	0.232707
H139	H	0.930357	-0.214534	0.000173
H140	H	1.430357	0.285466	0.500173
