data_functionalizedCrystal
_audit_creation_method	'MofGen! by Chris Wilmer'
_symmetry_space_group_name_H-M	'P1'
_symmetry_Int_Tables_number	1
_symmetry_cell_setting	triclinic
loop_
_symmetry_equiv_pos_as_xyz
  x,y,z
_cell_length_a	15.995350
_cell_length_b	14.853567
_cell_length_c	13.930277
_cell_angle_alpha	90.004245
_cell_angle_beta	89.997676
_cell_angle_gamma	96.436347
loop_
_atom_site_label
_atom_site_type_symbol
_atom_site_fract_x
_atom_site_fract_y
_atom_site_fract_z
O1	O	0.109317	-1.196221	-0.079760
O2	O	0.122339	-0.933744	-0.079776
O3	O	-0.006051	-1.072157	-0.079766
O4	O	0.237707	-1.057808	-0.079769
O5	O	-0.006054	-1.072138	0.079895
O6	O	0.122336	-0.933725	0.079886
O7	O	0.109314	-1.196202	0.079902
Zn8	Zn	0.115825	-1.064960	0.105244
Zn9	Zn	0.115828	-1.064986	-0.105117
O10	O	0.237705	-1.057788	0.079893
C11	C	0.121748	-0.900146	0.000053
C12	C	0.119980	-0.800065	0.000047
C13	C	-0.037248	-1.071555	0.000063
C14	C	-0.130201	-1.069776	0.000057
C15	C	0.109906	-1.229799	0.000071
C16	C	0.111674	-1.329881	0.000071
C17	C	-0.467956	-1.063389	0.000060
C18	C	-0.420636	-0.964813	-0.000304
C19	C	-0.323944	-0.966592	0.000056
C20	C	-0.300391	-1.066557	0.000058
C21	C	-0.341414	-1.115167	0.091234
C22	C	-0.438052	-1.112691	0.091310
C23	C	-0.438405	-1.114749	-0.090255
C24	C	-0.341460	-1.114726	-0.091460
C25	C	-0.205692	-1.068353	0.000060
C26	C	-0.562655	-1.061596	0.000064
C27	C	0.268901	-1.058391	0.000062
C28	C	0.361854	-1.060170	0.000061
N29	N	0.115822	-1.064950	0.248810
C30	C	0.036238	-0.387644	0.000069
C31	C	0.188769	-0.366158	0.000067
C32	C	0.190432	-0.460189	0.000064
C33	C	0.114996	-0.517953	0.000062
C34	C	0.037899	-0.481685	0.000063
C35	C	0.267528	-0.496464	0.000053
C36	C	0.269194	-0.590501	0.000048
C37	C	0.193758	-0.648266	0.000054
C38	C	0.116657	-0.611993	0.000056
C39	C	0.041221	-0.669757	0.000054
C40	C	-0.035880	-0.633485	0.000064
C41	C	-0.037538	-0.539450	0.000069
C42	C	0.195415	-0.742302	0.000049
C43	C	0.042882	-0.763797	0.000048
N44	N	0.115825	-1.065003	-0.248684
C45	C	0.172657	-1.003694	0.701075
C46	C	0.058993	-1.126302	0.701053
C47	C	0.058990	-1.126292	0.600557
C48	C	0.115823	-1.064982	0.550316
C49	C	0.172658	-1.003683	0.600570
C50	C	0.002162	-1.187595	0.550295
C51	C	0.002158	-1.187588	0.449793
C52	C	0.058987	-1.126273	0.399550
C53	C	0.115824	-1.064971	0.449811
C54	C	0.172656	-1.003661	0.399569
C55	C	0.229490	-0.942354	0.449828
C56	C	0.229487	-0.942368	0.550327
C57	C	0.058989	-1.126259	0.299051
C58	C	0.172657	-1.003651	0.299064
H59	H	-0.439212	-0.925421	-0.065688
C60	C	-0.022306	-0.917488	0.000039
C61	C	-0.040041	-0.827289	0.000048
H62	H	-0.073500	-0.956683	0.000044
H63	H	0.009295	-0.928478	-0.055639
H64	H	0.009304	-0.928477	0.055716
H65	H	-0.071645	-0.816299	-0.055634
H66	H	-0.071655	-0.816295	0.055731
H67	H	-0.097299	-0.680529	0.000056
C68	C	0.285766	-0.835587	-0.082042
C69	C	0.280156	-0.782172	0.000037
H70	H	0.338087	-0.860196	-0.082048
H71	H	0.241083	-0.883442	-0.082031
H72	H	0.281945	-0.799343	-0.137712
H73	H	0.283971	-0.818418	0.055707
H74	H	0.324851	-0.734312	0.000035
H75	H	0.218934	-0.953721	0.258164
C76	C	0.279955	-0.887910	0.295773
C77	C	0.291959	-0.874963	0.394596
H78	H	0.318517	-0.846303	0.261674
H79	H	0.289155	-0.948067	0.279305
H80	H	0.224052	-0.878124	0.279318
H81	H	0.347861	-0.884756	0.411052
H82	H	0.282766	-0.814792	0.411070
H83	H	-0.026536	-0.358108	0.000081
C84	C	-0.111751	-1.207154	0.663316
C85	C	-0.060306	-1.254977	0.605528
H86	H	-0.150321	-1.248753	0.697415
H87	H	-0.077901	-1.170650	0.707616
H88	H	-0.141933	-1.169637	0.624102
H89	H	-0.030119	-1.292489	0.644743
H90	H	-0.094161	-1.291496	0.561223
H91	H	-0.044120	-1.237506	0.408879
C92	C	-0.054918	-1.145869	0.814077
C93	C	-0.003476	-1.193687	0.756280
H94	H	-0.093489	-1.187471	0.848171
H95	H	-0.021066	-1.109373	0.858382
H96	H	-0.085099	-1.108345	0.774870
H97	H	0.026710	-1.231206	0.795488
H98	H	-0.037333	-1.230199	0.711970
H99	H	0.275760	-0.892455	0.591254
H100	H	-0.440277	-0.925581	0.064711
H101	H	0.331975	-0.620025	0.000041
H102	H	0.250185	-0.319121	0.000060
H103	H	0.218928	-0.953776	0.741998
C104	C	0.332701	-0.342775	0.000079
C105	C	0.350442	-0.432971	0.000061
H106	H	0.383892	-0.303576	0.000093
H107	H	0.301101	-0.331781	-0.055593
H108	H	0.301088	-0.331796	0.055763
H109	H	0.382050	-0.443952	-0.055626
H110	H	0.382056	-0.443970	0.055739
H111	H	-0.296125	-0.928108	0.065521
H112	H	-0.100310	-0.509909	0.000099
C113	C	-0.053357	-1.247458	0.309129
C114	C	-0.003477	-1.193640	0.243807
H115	H	-0.091926	-1.289053	0.275022
H116	H	-0.018445	-1.279885	0.348313
H117	H	-0.083540	-1.209933	0.348341
H118	H	0.026711	-1.231165	0.204599
H119	H	-0.038393	-1.161211	0.204606
H120	H	-0.456396	-1.077228	0.159464
C121	C	-0.420409	-1.270885	0.100192
C122	C	-0.481479	-1.210386	0.096914
H123	H	-0.447218	-1.331195	0.103662
H124	H	-0.386689	-1.264063	0.043976
H125	H	-0.385912	-1.258436	0.155173
H126	H	-0.515972	-1.222831	0.041930
H127	H	-0.515214	-1.217212	0.153136
H128	H	-0.327203	-1.188608	0.094626
C129	C	-0.349764	-0.882203	-0.141825
C130	C	-0.285625	-0.914997	-0.088166
H131	H	-0.326108	-0.850341	-0.196285
H132	H	-0.388578	-0.931541	-0.162340
H133	H	-0.378095	-0.842474	-0.103240
H134	H	-0.257298	-0.954732	-0.126749
H135	H	-0.246797	-0.865653	-0.067652
H136	H	-0.313073	-1.081389	0.159082
H137	H	-0.314251	-1.079186	-0.158910
C138	C	-0.395163	-1.041103	-0.238408
C139	C	-0.466175	-1.071257	-0.183551
H140	H	-0.412309	-1.014251	-0.296004
H141	H	-0.359750	-0.997601	-0.202813
H142	H	-0.365279	-1.091011	-0.253625
H143	H	-0.496056	-1.021346	-0.168329
H144	H	-0.501602	-1.114761	-0.219153
C145	C	-0.233252	-1.213780	-0.104497
C146	C	-0.320586	-1.213132	-0.098874
H147	H	-0.220360	-1.274533	-0.109057
H148	H	-0.212493	-1.180920	-0.159636
H149	H	-0.207676	-1.186338	-0.048600
H150	H	-0.346161	-1.240568	-0.154774
H151	H	-0.341355	-1.246004	-0.043730
C152	C	-0.568601	-1.212336	-0.094551
C153	C	-0.481169	-1.212861	-0.091095
H154	H	-0.595003	-1.272904	-0.095070
H155	H	-0.586692	-1.181651	-0.039824
H156	H	-0.583404	-1.182108	-0.151113
H157	H	-0.466365	-1.243084	-0.034528
H158	H	-0.463071	-1.243559	-0.145827
