data_functionalizedCrystal
_audit_creation_method	'MofGen! by Chris Wilmer'
_symmetry_space_group_name_H-M	'P1'
_symmetry_Int_Tables_number	1
_symmetry_cell_setting	triclinic
loop_
_symmetry_equiv_pos_as_xyz
  x,y,z
_cell_length_a	14.971494
_cell_length_b	16.109302
_cell_length_c	14.048226
_cell_angle_alpha	89.991597
_cell_angle_beta	89.995286
_cell_angle_gamma	83.539669
loop_
_atom_site_label
_atom_site_type_symbol
_atom_site_fract_x
_atom_site_fract_y
_atom_site_fract_z
O1	O	0.114976	1.103280	-0.079200
O2	O	0.614976	1.603280	0.420800
O3	O	0.129283	0.861236	-0.079192
O4	O	0.629283	1.361236	0.420808
O5	O	-0.008079	0.988742	-0.079194
O6	O	0.491921	1.488742	0.420806
O7	O	0.252339	0.975775	-0.079198
O8	O	0.752339	1.475775	0.420802
O9	O	-0.008087	0.988727	0.079128
O10	O	0.491913	1.488727	0.579128
O11	O	0.129275	0.861221	0.079130
O12	O	0.629275	1.361221	0.579130
O13	O	0.114968	1.103265	0.079122
O14	O	0.614968	1.603265	0.579122
Zn15	Zn	0.122120	0.982241	0.104263
Zn16	Zn	0.622120	1.482241	0.604263
Zn17	Zn	0.122131	0.982261	-0.104333
Zn18	Zn	0.622131	1.482261	0.395667
O19	O	0.252330	0.975759	0.079124
O20	O	0.752330	1.475759	0.579124
C21	C	0.128700	0.830253	-0.000030
C22	C	0.628700	1.330253	0.499970
C23	C	0.126962	0.737956	-0.000027
C24	C	0.626962	1.237956	0.499973
C25	C	-0.041407	0.988153	-0.000035
C26	C	0.458593	1.488153	0.499965
C27	C	-0.140701	0.986412	-0.000039
C28	C	0.359299	1.486412	0.499961
C29	C	0.122939	0.525601	0.086264
C30	C	0.622939	1.025601	0.586264
C31	C	0.121296	0.438879	0.086261
C32	C	0.621296	0.938879	0.586261
C33	C	0.121310	0.438906	-0.086350
C34	C	0.621310	0.938906	0.413650
C35	C	0.122946	0.525628	-0.086345
C36	C	0.622946	1.025628	0.413655
C37	C	0.123765	0.568972	-0.000035
C38	C	0.623765	1.068972	0.499965
C39	C	0.120486	0.395529	-0.000043
C40	C	0.620486	0.895529	0.499957
C41	C	0.118705	0.301501	-0.000047
C42	C	0.618705	0.801501	0.499953
C43	C	0.125544	0.663007	-0.000031
C44	C	0.625544	1.163007	0.499969
C45	C	-0.187340	0.985604	-0.086341
C46	C	0.312660	1.485604	0.413659
C47	C	-0.280637	0.983962	-0.086342
C48	C	0.219363	1.483962	0.413658
C49	C	-0.327294	0.983134	-0.000040
C50	C	0.172706	1.483134	0.499960
C51	C	-0.280648	0.983939	0.086269
C52	C	0.219352	1.483939	0.586269
C53	C	-0.187352	0.985575	0.086269
C54	C	0.312648	1.485575	0.586269
C55	C	-0.475106	0.980532	0.086262
C56	C	0.024894	1.480532	0.586262
C57	C	-0.568408	0.978898	0.086263
C58	C	-0.068408	1.478898	0.586263
C59	C	-0.568391	0.978919	-0.086348
C60	C	-0.068391	1.478919	0.413652
C61	C	-0.475095	0.980554	-0.086348
C62	C	0.024905	1.480554	0.413652
C63	C	-0.428456	0.981361	-0.000039
C64	C	0.071544	1.481361	0.499961
C65	C	0.285658	0.976348	-0.000038
C66	C	0.785658	1.476348	0.499962
C67	C	0.384952	0.978090	-0.000040
C68	C	0.884952	1.478090	0.499960
C69	C	0.115552	1.134248	-0.000042
C70	C	0.615552	1.634248	0.499958
C71	C	0.117290	1.226546	-0.000051
C72	C	0.617290	1.726546	0.499949
N73	N	0.122112	0.982233	0.246623
N74	N	0.622112	1.482233	0.746623
N75	N	0.122132	0.982275	-0.246693
N76	N	0.622132	1.482275	0.253307
C77	C	0.061313	1.038710	0.296440
C78	C	0.561313	1.538710	0.796440
C79	C	0.061313	1.038716	0.396098
C80	C	0.561313	1.538716	0.896098
C81	C	0.122116	0.982247	0.445937
C82	C	0.622116	1.482247	0.945937
C83	C	0.182918	0.925764	0.396113
C84	C	0.682918	1.425764	0.896113
C85	C	0.182914	0.925755	0.296457
C86	C	0.682914	1.425755	0.796457
C87	C	0.182925	0.925788	0.603827
C88	C	0.682925	1.425788	1.103827
C89	C	0.182931	0.925798	0.703490
C90	C	0.682931	1.425798	1.203490
C91	C	0.061324	1.038749	0.703468
C92	C	0.561324	1.538749	1.203468
C93	C	0.061319	1.038740	0.603812
C94	C	0.561319	1.538740	1.103812
C95	C	0.122123	0.982257	0.553995
C96	C	0.622123	1.482257	1.053995
H97	H	0.123606	0.560890	0.156543
H98	H	0.623606	1.060890	0.656543
C99	C	-0.005567	1.100858	0.548992
C100	C	0.494433	1.600858	1.048992
N101	N	-0.055950	1.147644	0.507701
N102	N	0.444050	1.647644	1.007701
H103	H	0.011816	1.084738	0.744035
H104	H	0.511816	1.584738	1.244035
C105	C	0.249795	0.863640	0.450939
C106	C	0.749795	1.363640	0.950939
N107	N	0.300167	0.816847	0.492233
N108	N	0.800167	1.316847	0.992233
C109	C	-0.619728	0.977981	0.181199
C110	C	-0.119728	1.477981	0.681199
N111	N	-0.658382	0.977289	0.252707
N112	N	-0.158382	1.477289	0.752707
H113	H	0.123616	0.560942	-0.156625
H114	H	0.623616	1.060942	0.343375
C115	C	-0.331973	0.983023	0.181202
C116	C	0.168027	1.483023	0.681202
N117	N	-0.370630	0.982334	0.252708
N118	N	0.129370	1.482334	0.752708
C119	C	0.120416	0.391218	-0.181285
C120	C	0.620416	0.891218	0.318715
N121	N	0.119746	0.355300	-0.252793
N122	N	0.619746	0.855300	0.247207
H123	H	-0.149360	0.986282	-0.156618
H124	H	0.350640	1.486282	0.343382
C125	C	0.120398	0.391174	0.181198
C126	C	0.620398	0.891174	0.681198
N127	N	0.119724	0.355242	0.252709
N128	N	0.619724	0.855242	0.752709
C129	C	-0.331947	0.983150	-0.181281
C130	C	0.168053	1.483150	0.318719
N131	N	-0.370596	0.982565	-0.252794
N132	N	0.129404	1.482565	0.247206
H133	H	-0.149378	0.986221	0.156545
H134	H	0.350622	1.486221	0.656545
H135	H	-0.437111	0.981235	-0.156623
H136	H	0.062889	1.481235	0.343377
H137	H	-0.606369	0.978260	-0.156624
H138	H	-0.106369	1.478260	0.343376
H139	H	-0.437133	0.981171	0.156544
H140	H	0.062867	1.481171	0.656544
C141	C	-0.005577	1.100830	0.241627
C142	C	0.494423	1.600830	0.741627
N143	N	-0.055964	1.147619	0.200344
N144	N	0.444036	1.647619	0.700344
C145	C	0.249812	0.863675	0.758310
C146	C	0.749812	1.363675	1.258310
N147	N	0.300187	0.816882	0.799601
N148	N	0.800187	1.316882	1.299601
C149	C	0.249805	0.863632	0.241658
C150	C	0.749805	1.363632	0.741658
N151	N	0.300189	0.816840	0.200386
N152	N	0.800189	1.316840	0.700386
H153	H	0.011805	1.084703	0.436659
H154	H	0.511805	1.584703	0.936659
H155	H	0.232435	0.879791	0.563269
H156	H	0.732435	1.379791	1.063269
