data_functionalizedCrystal
_audit_creation_method	'MofGen! by Chris Wilmer'
_symmetry_space_group_name_H-M	'P1'
_symmetry_Int_Tables_number	1
_symmetry_cell_setting	triclinic
loop_
_symmetry_equiv_pos_as_xyz
  x,y,z
_cell_length_a	19.188905
_cell_length_b	19.188930
_cell_length_c	17.666332
_cell_angle_alpha	90.011603
_cell_angle_beta	89.983521
_cell_angle_gamma	96.860332
loop_
_atom_site_label
_atom_site_type_symbol
_atom_site_fract_x
_atom_site_fract_y
_atom_site_fract_z
O1	O	0.926161	-0.087086	-0.063081
O2	O	1.426161	0.412914	0.436919
O3	O	0.722847	-0.098838	-0.063057
O4	O	1.222847	0.401162	0.436943
O5	O	0.830371	0.008694	-0.063055
O6	O	1.330371	0.508694	0.436945
O7	O	0.818637	-0.194618	-0.063083
O8	O	1.318637	0.305382	0.436917
O9	O	0.830352	0.008700	0.062842
O10	O	1.330352	0.508700	0.562842
O11	O	0.722828	-0.098832	0.062840
O12	O	1.222828	0.401168	0.562840
O13	O	0.926142	-0.087080	0.062815
O14	O	1.426142	0.412920	0.562815
Cu15	Cu	0.824483	-0.092956	0.074323
Cu16	Cu	1.324483	0.407044	0.574323
Cu17	Cu	0.824506	-0.092962	-0.074565
Cu18	Cu	1.324506	0.407038	0.425435
O19	O	0.818618	-0.194612	0.062814
O20	O	1.318618	0.305388	0.562814
C21	C	0.696826	-0.098458	-0.000105
C22	C	1.196826	0.401542	0.499895
C23	C	0.619321	-0.097324	-0.000095
C24	C	1.119321	0.402676	0.499905
C25	C	0.582939	-0.096782	-0.068723
C26	C	1.082939	0.403218	0.431277
C27	C	0.510116	-0.095709	-0.068732
C28	C	1.010116	0.404291	0.431268
C29	C	0.473678	-0.095164	-0.000110
C30	C	0.973678	0.404836	0.499890
C31	C	0.510068	-0.095709	0.068528
C32	C	1.010068	0.404291	0.568528
C33	C	0.582889	-0.096789	0.068535
C34	C	1.082889	0.403211	0.568535
N35	N	0.364650	-0.053733	0.050966
N36	N	0.864650	0.446267	0.550966
N37	N	0.295473	-0.052705	0.050954
N38	N	0.795473	0.447295	0.550954
C39	C	0.254272	-0.091911	-0.000127
C40	C	0.754272	0.408089	0.499873
N41	N	0.284861	-0.132174	-0.051208
N42	N	0.784861	0.367826	0.448792
N43	N	0.354045	-0.133199	-0.051199
N44	N	0.854045	0.366801	0.448801
C45	C	0.394716	-0.093993	-0.000110
C46	C	0.894716	0.406007	0.499890
C47	C	0.138926	-0.090207	-0.068770
C48	C	0.638926	0.409793	0.431230
C49	C	0.066101	-0.089138	-0.068777
C50	C	0.566101	0.410862	0.431223
C51	C	0.066055	-0.089131	0.068485
C52	C	0.566055	0.410869	0.568485
C53	C	0.138879	-0.090207	0.068490
C54	C	0.638879	0.409793	0.568490
C55	C	0.175310	-0.090742	-0.000140
C56	C	0.675310	0.409258	0.499860
C57	C	0.829982	0.034708	-0.000104
C58	C	1.329982	0.534708	0.499896
C59	C	0.828841	0.112213	-0.000098
C60	C	1.328841	0.612213	0.499902
C61	C	0.952163	-0.087460	-0.000138
C62	C	1.452163	0.412540	0.499862
C63	C	1.029668	-0.088594	-0.000153
C64	C	1.529668	0.411406	0.499847
C65	C	0.819007	-0.220626	-0.000139
C66	C	1.319007	0.279374	0.499861
C67	C	0.820148	-0.298131	-0.000150
C68	C	1.320148	0.201869	0.499850
N69	N	0.824473	-0.092950	0.179042
N70	N	1.324473	0.407050	0.679042
C71	C	0.891933	0.157142	-0.000102
C72	C	1.391933	0.657142	0.499898
C73	C	0.890861	0.229966	-0.000114
C74	C	1.390861	0.729966	0.499886
C75	C	0.826694	0.257857	-0.000107
C76	C	1.326694	0.757857	0.499893
C77	C	0.763594	0.212917	-0.000107
C78	C	1.263594	0.712917	0.499893
C79	C	0.764668	0.140095	-0.000102
C80	C	1.264668	0.640095	0.499898
N81	N	0.777640	0.365859	0.042744
N82	N	1.277640	0.865859	0.542744
N83	N	0.776624	0.435038	0.042742
N84	N	1.276624	0.935038	0.542742
C85	C	0.823456	0.477265	-0.000122
C86	C	1.323456	0.977265	0.499878
N87	N	0.871352	0.447702	-0.042973
N88	N	1.371352	0.947702	0.457027
N89	N	0.872369	0.378517	-0.042967
N90	N	1.372369	0.878517	0.457033
C91	C	0.825523	0.336819	-0.000112
C92	C	1.325523	0.836819	0.499888
C93	C	0.885390	0.601159	-0.000140
C94	C	1.385390	1.101159	0.499860
C95	C	0.884315	0.673984	-0.000156
C96	C	1.384315	1.173984	0.499844
C97	C	0.757047	0.656933	-0.000142
C98	C	1.257047	1.156933	0.499858
C99	C	0.758123	0.584110	-0.000133
C100	C	1.258123	1.084110	0.499867
C101	C	0.822296	0.556228	-0.000128
C102	C	1.322296	1.056228	0.499872
N103	N	0.824522	-0.092962	-0.179284
N104	N	1.324522	0.407038	0.320716
C105	C	0.872100	-0.045358	0.218653
C106	C	1.372100	0.454642	0.718653
C107	C	0.872104	-0.045355	0.297901
C108	C	1.372104	0.454645	0.797901
C109	C	0.824488	-0.092956	0.337535
C110	C	1.324488	0.407044	0.837535
C111	C	0.776852	-0.140552	0.297915
C112	C	1.276852	0.359448	0.797915
C113	C	0.776844	-0.140549	0.218668
C114	C	1.276844	0.359451	0.718668
N115	N	0.815411	-0.154764	0.461945
N116	N	1.315411	0.345236	0.961945
N117	N	0.815422	-0.154764	0.537226
N118	N	1.315422	0.345236	1.037226
C119	C	0.824506	-0.092966	0.576299
C120	C	1.324506	0.407034	1.076299
N121	N	0.833592	-0.031164	0.537247
N122	N	1.333592	0.468836	1.037247
N123	N	0.833584	-0.031165	0.461960
N124	N	1.333584	0.468835	0.961960
C125	C	0.824490	-0.092964	0.423464
C126	C	1.324490	0.407036	0.923464
C127	C	0.872140	-0.045366	0.701838
C128	C	1.372140	0.454634	1.201838
C129	C	0.872139	-0.045361	0.781087
C130	C	1.372139	0.454639	1.281087
C131	C	0.776890	-0.140564	0.781100
C132	C	1.276890	0.359436	1.281100
C133	C	0.776888	-0.140562	0.701852
C134	C	1.276888	0.359438	1.201852
C135	C	0.824516	-0.092964	0.662226
C136	C	1.324516	0.407036	1.162226
H137	H	0.036479	-0.088702	-0.124664
H138	H	0.536479	0.411298	0.375336
H139	H	0.706747	0.547527	-0.000125
H140	H	1.206747	1.047527	0.499875
N141	N	0.028856	-0.088567	0.138590
N142	N	0.528856	0.411433	0.638590
N143	N	0.061354	-0.089044	0.199863
N144	N	0.561354	0.410956	0.699863
H145	H	0.035080	-0.088647	0.249377
H146	H	0.535080	0.411353	0.749377
N147	N	0.472840	-0.095159	0.138618
N148	N	0.972840	0.404841	0.638618
N149	N	0.407822	-0.094195	0.138603
N150	N	0.907822	0.405805	0.638603
H151	H	0.381528	-0.093810	0.188106
H152	H	0.881528	0.406190	0.688106
H153	H	0.612511	-0.097231	0.124422
H154	H	1.112511	0.402769	0.624422
N155	N	0.728255	-0.189186	0.661375
N156	N	1.228255	0.310814	1.161375
N157	N	0.728258	-0.189181	0.590620
N158	N	1.228258	0.310819	1.090620
H159	H	0.693909	-0.223523	0.562032
H160	H	1.193909	0.276477	1.062032
H161	H	0.480488	-0.095270	-0.124620
H162	H	0.980488	0.404730	0.375380
N163	N	0.620141	-0.097329	-0.138831
N164	N	1.120141	0.402671	0.361169
N165	N	0.587642	-0.096846	-0.200103
N166	N	1.087642	0.403154	0.299897
H167	H	0.613917	-0.097233	-0.249618
H168	H	1.113917	0.402767	0.250382
N169	N	0.700225	0.094186	-0.000101
N170	N	1.200225	0.594186	0.499899
N171	N	0.686638	0.051634	-0.053164
N172	N	1.186638	0.551634	0.446836
H173	H	0.641125	0.019208	-0.053162
H174	H	1.141125	0.519208	0.446838
H175	H	0.168501	-0.090643	0.124374
H176	H	0.668501	0.409357	0.624374
N177	N	0.950944	0.572684	-0.000133
N178	N	1.450944	1.072684	0.499867
N179	N	1.007273	0.612812	-0.000141
N180	N	1.507273	1.112812	0.499859
H181	H	1.053572	0.592703	-0.000135
H182	H	1.553572	1.092703	0.499865
N183	N	0.957483	0.128663	-0.000090
N184	N	1.457483	0.628663	0.499910
N185	N	0.999958	0.142516	0.052976
N186	N	1.499958	0.642516	0.552976
H187	H	1.046254	0.122402	0.052984
H188	H	1.546254	0.622402	0.552984
N189	N	0.176134	-0.090753	-0.138877
N190	N	0.676134	0.409247	0.361123
N191	N	0.143637	-0.090276	-0.200150
N192	N	0.643637	0.409724	0.299850
H193	H	0.169913	-0.090661	-0.249664
H194	H	0.669913	0.409339	0.250336
H195	H	0.942239	0.266555	-0.000120
H196	H	1.442239	0.766555	0.499880
H197	H	0.711349	0.235631	-0.000103
H198	H	1.211349	0.735631	0.499897
H199	H	0.935694	0.710565	-0.000164
H200	H	1.435694	1.210565	0.499836
N201	N	0.691495	0.685403	-0.000143
N202	N	1.191495	1.185403	0.499857
N203	N	0.649018	0.671546	-0.053208
N204	N	1.149018	1.171546	0.446792
H205	H	0.602720	0.691654	-0.053213
H206	H	1.102720	1.191654	0.446787
N207	N	0.920813	0.003207	0.178189
N208	N	1.420813	0.503207	0.678189
N209	N	0.963373	0.045658	0.213572
N210	N	1.463373	0.545658	0.713572
H211	H	0.997799	0.079937	0.184994
H212	H	1.497799	0.579937	0.684994
H213	H	0.738060	-0.179305	0.186417
H214	H	1.238060	0.320695	0.686417
N215	N	0.920758	0.003268	0.338361
N216	N	1.420758	0.503268	0.838361
N217	N	0.963276	0.045764	0.302972
N218	N	1.463276	0.545764	0.802972
H219	H	0.997639	0.080105	0.331545
H220	H	1.497639	0.580105	0.831545
N221	N	0.728213	-0.189166	0.338407
N222	N	1.228213	0.310834	0.838407
N223	N	0.728226	-0.189162	0.409162
N224	N	1.228226	0.310838	0.909162
H225	H	0.693871	-0.223495	0.437761
H226	H	1.193871	0.276505	0.937761
N227	N	0.920706	0.003344	0.661368
N228	N	1.420706	0.503344	1.161368
N229	N	0.963166	0.045898	0.696748
N230	N	1.463166	0.545898	1.196748
H231	H	0.997434	0.080333	0.668168
H232	H	1.497434	0.580333	1.168168
N233	N	0.920791	0.003266	0.821540
N234	N	1.420791	0.503266	1.321540
N235	N	0.963308	0.045759	0.786146
N236	N	1.463308	0.545759	1.286146
H237	H	0.997669	0.080104	0.814715
H238	H	1.497669	0.580104	1.314715
H239	H	0.738118	-0.179319	0.813369
H240	H	1.238118	0.320681	1.313369
