data_functionalizedCrystal
_audit_creation_method	'MofGen! by Chris Wilmer'
_symmetry_space_group_name_H-M	'P1'
_symmetry_Int_Tables_number	1
_symmetry_cell_setting	triclinic
loop_
_symmetry_equiv_pos_as_xyz
  x,y,z
_cell_length_a	13.033293
_cell_length_b	12.759400
_cell_length_c	12.759393
_cell_angle_alpha	90.030447
_cell_angle_beta	97.210217
_cell_angle_gamma	97.183247
loop_
_atom_site_label
_atom_site_type_symbol
_atom_site_fract_x
_atom_site_fract_y
_atom_site_fract_z
Zn1	Zn	1.597801	-0.214382	0.798424
Zn2	Zn	1.597701	-0.390114	0.622735
Zn3	Zn	1.423029	-0.236731	0.600402
Zn4	Zn	1.423022	-0.412315	0.776027
O5	O	1.510388	-0.313385	0.699397
O6	O	1.744034	-0.219049	0.793839
O7	O	1.574491	-0.369829	0.472746
O8	O	1.446258	-0.086740	0.626697
O9	O	1.743960	-0.348158	0.664761
O10	O	1.574662	-0.070320	0.772183
O11	O	1.446160	-0.257140	0.456339
O12	O	1.276782	-0.278667	0.604979
O13	O	1.446246	-0.385997	0.926024
O14	O	1.276777	-0.407668	0.734010
O15	O	1.574655	-0.240576	0.942479
O16	O	1.574484	-0.540085	0.643043
O17	O	1.446149	-0.556397	0.755665
C18	C	1.238859	-0.348003	0.664641
C19	C	1.122698	-0.362837	0.649798
C20	C	1.070946	-0.305669	0.707144
C21	C	0.950888	-0.321000	0.691804
C22	C	1.510333	-0.586360	0.699374
C23	C	1.510406	-0.703127	0.699411
C24	C	1.577232	-0.749364	0.775216
C25	C	1.577281	-0.859082	0.775248
C26	C	1.443673	-0.876317	0.623660
C27	C	1.443620	-0.766602	0.623633
C28	C	1.644018	-0.685890	0.850994
C29	C	1.710851	-0.732126	0.926804
C30	C	1.710899	-0.841843	0.926836
C31	C	1.644115	-0.905325	0.851057
C32	C	1.782977	-0.278634	0.734289
C33	C	1.899138	-0.263825	0.749158
C34	C	1.510461	-0.313270	0.973440
C35	C	1.510493	-0.313221	1.090221
C36	C	1.510472	-0.039341	0.699447
C37	C	1.510507	0.077440	0.699469
C38	C	1.510375	-0.313417	0.426428
C39	C	1.510547	-0.313144	0.309674
C40	C	1.577364	-0.237493	1.153654
C41	C	1.577389	-0.237452	1.263381
C42	C	1.443667	-0.388876	1.246232
C43	C	1.443638	-0.388912	1.136506
C44	C	1.644219	-0.161802	1.107368
C45	C	1.711097	-0.086069	1.170803
C46	C	1.711122	-0.086027	1.280530
C47	C	1.644268	-0.161720	1.326823
H48	H	1.078122	-0.423129	0.589342
H49	H	1.765569	-0.024355	1.332174
H50	H	1.389169	-0.450562	1.084855
H51	H	1.765218	-0.680434	0.988507
H52	H	1.644208	-0.161829	1.018024
H53	H	1.115522	-0.245372	0.767593
H54	H	1.389238	-0.450501	1.283933
O55	O	0.897769	-0.392820	0.619534
C56	C	0.924336	-0.366390	0.518231
H57	H	0.954417	-0.278639	0.516882
H58	H	0.987594	-0.414667	0.498700
C59	C	0.790325	-0.498621	0.437437
C60	C	0.827262	-0.390841	0.435777
H61	H	0.730447	-0.513707	0.386574
H62	H	0.772428	-0.516430	0.505686
H63	H	0.843049	-0.538839	0.421164
H64	H	0.774543	-0.350625	0.452063
H65	H	0.845148	-0.373025	0.367529
H66	H	0.943709	-0.203521	0.809611
H67	H	1.643988	-0.596551	0.850974
O68	O	1.378758	-0.938100	0.550187
C69	C	1.311241	-1.010169	0.601318
H70	H	1.348065	-1.021825	0.685684
H71	H	1.233765	-0.977817	0.602873
C72	C	1.247176	-1.102537	0.437484
C73	C	1.292408	-1.116859	0.541102
H74	H	1.235554	-1.168347	0.400338
H75	H	1.292660	-1.053981	0.403035
H76	H	1.182617	-1.075573	0.438794
H77	H	1.356971	-1.143810	0.539790
H78	H	1.246934	-1.165423	0.575549
H79	H	1.644282	-0.161669	1.416170
H80	H	1.765309	-0.879487	0.988572
H81	H	1.765520	-0.024437	1.133102
O82	O	1.378669	-0.721847	0.549897
C83	C	1.319719	-0.801397	0.483033
H84	H	1.362565	-0.874116	0.484914
H85	H	1.240338	-0.823227	0.511294
C86	C	1.252053	-0.671258	0.366967
C87	C	1.304682	-0.760570	0.369270
H88	H	1.242773	-0.646074	0.296793
H89	H	1.291766	-0.617663	0.412016
H90	H	1.185908	-0.689462	0.390523
H91	H	1.370831	-0.742362	0.345727
H92	H	1.264980	-0.814161	0.324214
H93	H	1.644148	-0.994666	0.851100
