data_functionalizedCrystal
_audit_creation_method	'MofGen! by Chris Wilmer'
_symmetry_space_group_name_H-M	'P1'
_symmetry_Int_Tables_number	1
_symmetry_cell_setting	triclinic
loop_
_symmetry_equiv_pos_as_xyz
  x,y,z
_cell_length_a	14.853567
_cell_length_b	17.038272
_cell_length_c	13.930277
_cell_angle_alpha	89.995405
_cell_angle_beta	89.995755
_cell_angle_gamma	87.373243
loop_
_atom_site_label
_atom_site_type_symbol
_atom_site_fract_x
_atom_site_fract_y
_atom_site_fract_z
O1	O	1.204051	0.102086	-0.079765
O2	O	1.704051	0.602086	0.420235
O3	O	0.942506	0.114247	-0.079782
O4	O	1.442506	0.614247	0.420218
O5	O	1.071724	-0.005651	-0.079766
O6	O	1.571724	0.494349	0.420234
O7	O	1.074833	0.221984	-0.079781
O8	O	1.574833	0.721984	0.420219
O9	O	1.071705	-0.005654	0.079896
O10	O	1.571705	0.494346	0.579896
O11	O	0.942487	0.114244	0.079880
O12	O	1.442487	0.614244	0.579880
O13	O	1.204031	0.102083	0.079897
O14	O	1.704031	0.602083	0.579897
Zn15	Zn	1.073256	0.108163	0.105238
Zn16	Zn	1.573256	0.608163	0.605238
Zn17	Zn	1.073282	0.108167	-0.105123
Zn18	Zn	1.573282	0.608167	0.394877
O19	O	1.074814	0.221981	0.079881
O20	O	1.574814	0.721981	0.579881
C21	C	0.908866	0.113695	0.000047
C22	C	1.408866	0.613695	0.500047
C23	C	0.808658	0.112043	0.000041
C24	C	1.308658	0.612043	0.500041
C25	C	0.390240	0.033841	0.000067
C26	C	0.890240	0.533841	0.500067
C27	C	0.379678	0.176283	0.000057
C28	C	0.879678	0.676283	0.500057
C29	C	0.473828	0.177835	0.000054
C30	C	0.973828	0.677835	0.500054
C31	C	0.526189	0.107390	0.000056
C32	C	1.026189	0.607390	0.500056
C33	C	0.484399	0.035392	0.000061
C34	C	0.984399	0.535392	0.500061
C35	C	0.515626	0.249832	0.000039
C36	C	1.015626	0.749832	0.500039
C37	C	0.609782	0.251388	0.000035
C38	C	1.109782	0.751388	0.500035
C39	C	0.662144	0.180941	0.000044
C40	C	1.162144	0.680941	0.500044
C41	C	0.620349	0.108940	0.000050
C42	C	1.120349	0.608940	0.500050
C43	C	0.672709	0.038495	0.000052
C44	C	1.172709	0.538495	0.500052
C45	C	0.630915	-0.033507	0.000065
C46	C	1.130915	0.466493	0.500065
C47	C	0.536762	-0.035055	0.000070
C48	C	1.036762	0.464945	0.500070
C49	C	0.756298	0.182489	0.000039
C50	C	1.256298	0.682489	0.500039
C51	C	0.766869	0.040045	0.000046
C52	C	1.266869	0.540045	0.500046
C53	C	1.068887	-0.034784	0.000065
C54	C	1.568887	0.465216	0.500065
C55	C	1.060451	-0.121588	0.000064
C56	C	1.560451	0.378412	0.500064
C57	C	1.137904	-0.171601	0.000070
C58	C	1.637904	0.328399	0.500070
C59	C	1.129972	-0.253162	0.000060
C60	C	1.629972	0.246838	0.500060
C61	C	1.044586	-0.284709	0.000051
C62	C	1.544586	0.215291	0.500051
C63	C	0.967127	-0.234690	0.000043
C64	C	1.467127	0.265310	0.500043
C65	C	0.975060	-0.153130	0.000045
C66	C	1.475060	0.346870	0.500045
C67	C	1.016561	-0.530503	0.000036
C68	C	1.516561	-0.030503	0.500036
C69	C	1.008634	-0.612069	0.000037
C70	C	1.508634	-0.112069	0.500037
C71	C	1.171480	-0.630535	0.000052
C72	C	1.671480	-0.130535	0.500052
C73	C	1.179405	-0.548974	0.000061
C74	C	1.679405	-0.048974	0.500061
C75	C	1.101946	-0.498962	0.000047
C76	C	1.601946	0.001038	0.500047
C77	C	1.036476	-0.368077	0.000045
C78	C	1.536476	0.131923	0.500045
C79	C	1.110056	-0.415595	0.000047
C80	C	1.610056	0.084405	0.500047
C81	C	1.237671	0.102636	0.000066
C82	C	1.737671	0.602636	0.500066
C83	C	1.337879	0.104287	0.000065
C84	C	1.837879	0.604287	0.500065
C85	C	1.077651	0.251114	0.000048
C86	C	1.577651	0.751114	0.500048
C87	C	1.086087	0.337918	0.000042
C88	C	1.586087	0.837918	0.500042
N89	N	1.073245	0.108161	0.248804
N90	N	1.573245	0.608161	0.748804
N91	N	1.073299	0.108163	-0.248689
N92	N	1.573299	0.608163	0.251311
C93	C	1.016060	0.161237	0.701066
C94	C	1.516060	0.661237	1.201066
C95	C	1.130528	0.055091	0.701050
C96	C	1.630528	0.555091	1.201050
C97	C	1.130517	0.055088	0.600554
C98	C	1.630517	0.555088	1.100554
C99	C	1.073278	0.108162	0.550310
C100	C	1.573278	0.608162	1.050310
C101	C	1.016049	0.161237	0.600561
C102	C	1.516049	0.661237	1.100561
C103	C	1.187750	0.002019	0.550295
C104	C	1.687750	0.502019	1.050295
C105	C	1.187742	0.002015	0.449793
C106	C	1.687742	0.502015	0.949793
C107	C	1.130498	0.055085	0.399547
C108	C	1.630498	0.555085	0.899547
C109	C	1.073267	0.108162	0.449805
C110	C	1.573267	0.608162	0.949805
C111	C	1.016028	0.161236	0.399561
C112	C	1.516028	0.661236	0.899561
C113	C	0.958791	0.214310	0.449817
C114	C	1.458791	0.714310	0.949817
C115	C	0.958805	0.214308	0.550315
C116	C	1.458805	0.714308	1.050315
C117	C	1.130484	0.055087	0.299048
C118	C	1.630484	0.555087	0.799048
C119	C	1.016017	0.161236	0.299056
C120	C	1.516017	0.661236	0.799056
H121	H	0.356207	-0.024781	0.000082
H122	H	0.856207	0.475219	0.500082
Cl123	Cl	0.901283	-0.651726	0.000031
Cl124	Cl	1.401283	-0.151726	0.500031
H125	H	0.337041	0.233636	0.000047
H126	H	0.837041	0.733636	0.500047
Cl127	Cl	1.259711	-0.064694	0.613456
Cl128	Cl	1.759711	0.435306	1.113456
H129	H	1.234542	-0.671263	0.000062
H130	H	1.734542	-0.171263	0.500062
Cl131	Cl	0.877686	-0.090257	0.000034
Cl132	Cl	1.377686	0.409743	0.500034
H133	H	1.179577	-0.389906	0.000033
H134	H	1.679577	0.110094	0.500033
Cl135	Cl	0.929137	-0.407743	0.000029
Cl136	Cl	1.429137	0.092257	0.500029
Cl137	Cl	0.919182	-0.467642	0.000017
Cl138	Cl	1.419182	0.032358	0.500017
Cl139	Cl	0.859784	-0.274349	0.000020
Cl140	Cl	1.359784	0.225651	0.500020
H141	H	1.234346	-0.041201	0.408881
H142	H	1.734346	0.458799	0.908881
Cl143	Cl	0.886842	0.281033	0.386642
Cl144	Cl	1.386842	0.781033	0.886642
Cl145	Cl	0.886859	0.281027	0.613496
Cl146	Cl	1.386859	0.781027	1.113496
Cl147	Cl	0.696751	-0.122063	0.000061
Cl148	Cl	1.196751	0.377937	0.500061
Cl149	Cl	0.944050	0.227957	0.235900
Cl150	Cl	1.444050	0.727957	0.735900
Cl151	Cl	0.944105	0.227953	0.764240
Cl152	Cl	1.444105	0.727953	1.264240
H153	H	0.809495	-0.017321	0.000052
H154	H	1.309495	0.482679	0.500052
Cl155	Cl	1.202489	-0.011622	0.764211
Cl156	Cl	1.702489	0.488378	1.264211
H157	H	1.177090	0.011879	0.258134
H158	H	1.677090	0.511879	0.758134
H159	H	1.207434	-0.145922	0.000083
H160	H	1.707434	0.354078	0.500083
Cl161	Cl	0.484215	-0.125562	0.000081
Cl162	Cl	0.984215	0.374438	0.500081
H163	H	0.643802	0.310016	0.000024
H164	H	1.143802	0.810016	0.500024
Cl165	Cl	0.808835	0.272997	0.000015
Cl166	Cl	1.308835	0.772997	0.500015
Cl167	Cl	0.449798	0.338386	0.000020
Cl168	Cl	0.949798	0.838386	0.500020
H169	H	1.248935	-0.523295	0.000068
H170	H	1.748935	-0.023295	0.500068
Cl171	Cl	1.227347	-0.316032	0.000070
Cl172	Cl	1.727347	0.183968	0.500070
