data_functionalizedCrystal
_audit_creation_method	'MofGen! by Chris Wilmer'
_symmetry_space_group_name_H-M	'P1'
_symmetry_Int_Tables_number	1
_symmetry_cell_setting	triclinic
loop_
_symmetry_equiv_pos_as_xyz
  x,y,z
_cell_length_a	15.995343
_cell_length_b	16.109318
_cell_length_c	14.586319
_cell_angle_alpha	90.006592
_cell_angle_beta	89.985920
_cell_angle_gamma	83.478874
loop_
_atom_site_label
_atom_site_type_symbol
_atom_site_fract_x
_atom_site_fract_y
_atom_site_fract_z
O1	O	0.107701	1.103139	-0.076174
O2	O	0.121080	0.861082	-0.076194
O3	O	-0.007499	0.988731	-0.076166
O4	O	0.236280	0.975491	-0.076201
O5	O	-0.007516	0.988739	0.076315
O6	O	0.121062	0.861091	0.076287
O7	O	0.107684	1.103148	0.076307
Cu8	Cu	0.114372	0.982120	0.090220
Cu9	Cu	0.114392	0.982110	-0.090106
O10	O	0.236263	0.975499	0.076280
C11	C	0.120527	0.830112	0.000045
C12	C	0.118894	0.737817	0.000038
C13	C	0.113632	0.438737	-0.083063
C14	C	0.115160	0.525459	-0.083068
C15	C	0.115129	0.525487	0.083174
C16	C	0.113595	0.438768	0.083179
C17	C	0.112851	0.395395	0.000058
C18	C	0.115913	0.568835	0.000047
C19	C	0.117570	0.662863	0.000042
C20	C	0.111192	0.301361	0.000063
C21	C	-0.038702	0.988189	0.000077
C22	C	-0.131653	0.986551	0.000084
C23	C	-0.301839	0.983579	0.000063
C24	C	-0.325165	0.891436	0.000053
C25	C	-0.421842	0.889703	-0.000303
C26	C	-0.469398	0.980651	0.000043
C27	C	-0.440299	1.026977	-0.086852
C28	C	-0.343506	1.028070	-0.086915
C29	C	-0.343631	1.029429	0.086491
C30	C	-0.440125	1.026027	0.087622
C31	C	-0.564096	0.979001	0.000029
C32	C	-0.207141	0.985231	0.000071
C33	C	0.267466	0.976041	0.000035
C34	C	0.360417	0.977679	0.000022
C35	C	0.108237	1.134118	0.000067
C36	C	0.109869	1.226413	0.000068
N37	N	0.114401	0.982103	-0.216938
C38	C	0.063471	0.931807	-0.451941
C39	C	0.063462	0.931813	-0.547922
C40	C	0.165288	1.032436	-0.547939
C41	C	0.165292	1.032433	-0.451960
C42	C	0.114386	0.982114	-0.403963
C43	C	0.114372	0.982123	-0.595924
C44	C	0.114362	0.982130	-0.699991
C45	C	0.114394	0.982108	-0.299889
N46	N	0.114357	0.982133	0.217052
H47	H	-0.297162	0.855724	0.062359
H48	H	0.022019	0.890834	-0.412864
N49	N	0.011444	0.880425	-0.596915
N50	N	-0.034006	0.835508	-0.554046
H51	H	-0.070748	0.799214	-0.588646
H52	H	0.112959	0.403477	0.150870
H53	H	-0.472158	1.093912	-0.089835
N54	N	0.217312	1.083805	-0.402931
N55	N	0.217311	1.083789	-0.317236
H56	H	0.254049	1.120067	-0.282607
N57	N	0.112853	0.394447	-0.167973
N58	N	0.054044	0.411793	-0.223619
H59	H	0.053490	0.380517	-0.283591
N60	N	-0.288783	0.847369	-0.078018
N61	N	-0.307881	0.872935	-0.157016
H62	H	-0.282184	0.841817	-0.212156
N63	N	0.115951	0.569720	-0.167983
N64	N	0.115281	0.530981	-0.242187
H65	H	0.115838	0.562240	-0.302162
H66	H	0.115737	0.560812	0.150849
H67	H	-0.440865	0.853431	0.061968
H68	H	-0.440259	0.853605	-0.062968
N69	N	-0.481484	1.109279	0.094545
N70	N	-0.559904	1.121384	0.100117
H71	H	-0.589117	1.180183	0.104999
N72	N	-0.309887	0.988287	-0.168722
N73	N	-0.357934	0.959909	-0.225371
H74	H	-0.334194	0.931810	-0.283150
H75	H	-0.328946	1.095641	-0.090613
N76	N	-0.465485	0.987092	-0.168290
N77	N	-0.504856	0.924559	-0.162559
H78	H	-0.522644	0.896386	-0.220073
H79	H	-0.315368	1.000361	0.152378
N80	N	0.217280	1.083829	-0.596983
N81	N	0.217270	1.083825	-0.682678
H82	H	0.253991	1.120121	-0.717315
N83	N	-0.463418	0.983702	0.168264
N84	N	-0.501439	0.920354	0.161334
H85	H	-0.517895	0.890461	0.218286
H86	H	-0.329625	1.097249	0.087340
