data_functionalizedCrystal
_audit_creation_method	'MofGen! by Chris Wilmer'
_symmetry_space_group_name_H-M	'P1'
_symmetry_Int_Tables_number	1
_symmetry_cell_setting	triclinic
loop_
_symmetry_equiv_pos_as_xyz
  x,y,z
_cell_length_a	19.188930
_cell_length_b	19.188924
_cell_length_c	14.750779
_cell_angle_alpha	77.399495
_cell_angle_beta	102.584925
_cell_angle_gamma	83.143372
loop_
_atom_site_label
_atom_site_type_symbol
_atom_site_fract_x
_atom_site_fract_y
_atom_site_fract_z
O1	O	0.910881	0.102421	-0.080135
O2	O	0.707582	0.114143	-0.080069
O3	O	0.815103	0.006624	-0.080093
O4	O	0.803360	0.209940	-0.080112
O5	O	0.845498	-0.023767	0.079551
O6	O	0.737977	0.083752	0.079574
O7	O	0.941276	0.072030	0.079509
Zn8	Zn	0.844452	0.073066	0.104889
Zn9	Zn	0.804406	0.113107	-0.105449
O10	O	0.833755	0.179549	0.079532
C11	C	0.696770	0.098566	-0.000239
C12	C	0.619270	0.097421	-0.000214
C13	C	0.574341	0.160516	-0.000235
C14	C	0.501515	0.159446	-0.000245
C15	C	0.473618	0.095281	-0.000254
C16	C	0.518559	0.032177	-0.000228
C17	C	0.591385	0.033247	-0.000208
N18	N	0.355288	0.056584	-0.054622
N19	N	0.286106	0.055573	-0.054643
C20	C	0.254199	0.092054	-0.000312
N21	N	0.294084	0.129598	0.054028
N22	N	0.363272	0.130613	0.054045
C23	C	0.394652	0.094114	-0.000275
C24	C	0.130303	0.153994	-0.000343
C25	C	0.057477	0.152920	-0.000348
C26	C	0.074521	0.025651	-0.000340
C27	C	0.147347	0.026725	-0.000326
C28	C	0.175232	0.090899	-0.000332
C29	C	0.829921	-0.034582	-0.000270
C30	C	0.828783	-0.112088	-0.000267
C31	C	0.811683	-0.131920	-0.087289
C32	C	0.810602	-0.204742	-0.087296
C33	C	0.826635	-0.257730	-0.000276
C34	C	0.843734	-0.237891	0.086758
C35	C	0.844807	-0.165069	0.086762
N36	N	0.877012	-0.389721	0.064479
N37	N	0.875992	-0.458897	0.064469
C38	C	0.823400	-0.477138	-0.000284
N39	N	0.771871	-0.423588	-0.065041
N40	N	0.772894	-0.354405	-0.065033
C41	C	0.825473	-0.336695	-0.000271
C42	C	0.805126	-0.575931	-0.087319
C43	C	0.804041	-0.648754	-0.087323
C44	C	0.837180	-0.681902	0.086733
C45	C	0.838257	-0.609080	0.086734
C46	C	0.822233	-0.556098	-0.000295
C47	C	0.952087	0.087608	-0.000323
C48	C	1.029586	0.088755	-0.000355
C49	C	0.818936	0.220756	-0.000293
C50	C	0.820073	0.298263	-0.000302
N51	N	0.871788	0.045738	0.248438
N52	N	0.777075	0.140430	-0.248999
C53	C	0.700730	0.216721	0.600293
C54	C	0.719891	0.197576	0.700788
C55	C	0.815120	0.102403	0.700731
C56	C	0.795965	0.121538	0.600234
C57	C	0.738771	0.178697	0.550023
C58	C	0.834006	0.083514	0.549963
C59	C	0.814855	0.102650	0.449475
C60	C	0.757664	0.159809	0.399257
C61	C	0.719620	0.197833	0.449535
C62	C	0.891203	0.026358	0.600175
C63	C	0.929244	-0.011665	0.549905
C64	C	0.910090	0.007467	0.449415
C65	C	0.852899	0.064626	0.399197
C66	C	0.948134	-0.030557	0.399137
C67	C	0.928983	-0.011422	0.298649
C68	C	0.833748	0.083762	0.298709
H69	H	0.597040	0.212771	-0.000242
C70	C	0.487871	-0.038404	-0.000238
N71	N	0.464757	-0.091569	-0.000244
C72	C	0.452081	0.228860	-0.000280
N73	N	0.414849	0.281144	-0.000310
C74	C	0.196769	-0.042684	-0.000314
N75	N	0.233995	-0.094966	-0.000303
C76	C	0.857076	-0.587265	0.182466
N77	N	0.871250	-0.570834	0.254576
C78	C	0.640808	-0.036165	-0.000191
N79	N	0.678035	-0.088446	-0.000182
H80	H	0.153011	0.206245	-0.000334
H81	H	0.654152	0.263261	0.559410
H82	H	0.688909	0.228545	0.741714
H83	H	0.020897	0.204301	-0.000359
H84	H	0.051797	-0.026582	-0.000407
H85	H	0.792074	-0.532790	-0.158183
H86	H	0.850229	-0.725045	0.157586
C87	C	0.770802	0.146613	0.243472
N88	N	0.723385	0.193942	0.201867
H89	H	0.856786	-0.281038	0.157610
H90	H	0.798633	-0.088786	-0.158155
H91	H	0.861690	0.055864	0.741624
C92	C	0.656674	0.260684	0.394297
N93	N	0.609257	0.308014	0.352692
C94	C	0.912268	0.005309	0.710716
N95	N	0.928132	-0.010545	0.793976
C96	C	0.992154	-0.074542	0.605148
N97	N	1.039538	-0.121904	0.646756
H98	H	0.994707	-0.077093	0.440032
C99	C	0.791786	-0.226563	-0.183030
N100	N	0.777613	-0.242997	-0.255138
C101	C	0.970827	-0.053251	0.243348
N102	N	1.002347	-0.084757	0.201696
H103	H	0.790112	-0.664897	-0.158189
C104	C	0.863623	-0.143255	0.182497
N105	N	0.877798	-0.126823	0.254606
H106	H	0.742074	0.175391	0.317433
