data_functionalizedCrystal
_audit_creation_method	'MofGen! by Chris Wilmer'
_symmetry_space_group_name_H-M	'P1'
_symmetry_Int_Tables_number	1
_symmetry_cell_setting	triclinic
loop_
_symmetry_equiv_pos_as_xyz
  x,y,z
_cell_length_a	21.295417
_cell_length_b	12.759401
_cell_length_c	12.759393
_cell_angle_alpha	89.982824
_cell_angle_beta	90.038258
_cell_angle_gamma	89.969332
loop_
_atom_site_label
_atom_site_type_symbol
_atom_site_fract_x
_atom_site_fract_y
_atom_site_fract_z
Zn1	Zn	-0.250575	-1.606126	0.593926
Zn2	Zn	-0.355857	-1.605976	0.418223
Zn3	Zn	-0.250606	-1.430432	0.418265
Zn4	Zn	-0.355811	-1.430368	0.593864
O5	O	-0.303212	-1.518226	0.506069
O6	O	-0.264547	-1.753127	0.570626
O7	O	-0.341928	-1.582654	0.271207
O8	O	-0.162513	-1.453828	0.441611
O9	O	-0.341898	-1.753017	0.441538
O10	O	-0.162490	-1.582910	0.570668
O11	O	-0.264601	-1.453682	0.271238
O12	O	-0.264555	-1.283403	0.441551
O13	O	-0.341818	-1.453719	0.740893
O14	O	-0.341849	-1.283356	0.570562
O15	O	-0.264502	-1.582848	0.740939
O16	O	-0.443941	-1.582592	0.441478
O17	O	-0.443906	-1.453574	0.570521
C18	C	-0.466764	-1.518088	0.506011
C19	C	-0.536732	-1.518125	0.506021
C20	C	-0.303201	-1.245258	0.506055
C21	C	-0.303211	-1.128482	0.506074
C22	C	-0.303151	-1.518293	0.780103
C23	C	-0.303126	-1.518322	0.896880
C24	C	-0.569596	-1.585365	0.438898
C25	C	-0.635338	-1.585414	0.438921
C26	C	-0.668215	-1.518205	0.506058
C27	C	-0.635343	-1.450961	0.573195
C28	C	-0.569602	-1.450921	0.573177
N29	N	-0.771480	-1.426298	0.514062
N30	N	-0.833931	-1.426339	0.514073
C31	C	-0.866289	-1.518323	0.506118
N32	N	-0.833836	-1.610267	0.498130
N33	N	-0.771379	-1.610224	0.498114
C34	C	-0.739500	-1.518241	0.506085
C35	C	-0.970438	-1.585621	0.439016
C36	C	-1.036182	-1.585672	0.439047
C37	C	-1.036186	-1.451210	0.573315
C38	C	-0.970443	-1.451168	0.573289
C39	C	-0.937574	-1.518372	0.506134
C40	C	-0.139022	-1.518393	0.506151
C41	C	-0.069054	-1.518464	0.506185
C42	C	-0.303224	-1.792259	0.506084
C43	C	-0.303230	-1.909036	0.506091
C44	C	-0.343522	-1.073623	0.573139
C45	C	-0.343530	-0.963899	0.573151
C46	C	-0.262914	-0.963902	0.439022
C47	C	-0.262904	-1.073624	0.439017
C48	C	-0.383829	-1.128480	0.640196
C49	C	-0.424144	-1.073621	0.707266
C50	C	-0.424152	-0.963897	0.707277
C51	C	-0.383845	-0.909032	0.640219
C52	C	-0.303228	-1.518219	0.233102
C53	C	-0.303076	-1.518394	0.116326
C54	C	-0.343365	-1.451107	0.951720
C55	C	-0.343342	-1.451145	1.061444
C56	C	-0.262835	-1.585616	1.061478
C57	C	-0.262861	-1.585582	0.951756
C58	C	-0.383629	-1.383846	0.896843
C59	C	-0.423872	-1.316625	0.951684
C60	C	-0.423849	-1.316664	1.061408
C61	C	-0.383584	-1.383923	1.116292
H62	H	-0.542835	-1.640089	0.384219
H63	H	-1.062953	-1.396491	0.627983
H64	H	-0.456956	-1.118299	0.761869
H65	H	-0.230074	-1.118292	0.384415
H66	H	-0.943684	-1.396411	0.627944
Cl67	Cl	-0.383561	-1.383977	1.254232
Cl68	Cl	-0.212276	-1.670086	0.882809
Cl69	Cl	-0.383824	-1.266419	0.640183
H70	H	-0.383652	-1.383806	0.807501
H71	H	-0.662115	-1.396241	0.627859
Cl72	Cl	-0.474493	-1.232084	0.882689
H73	H	-0.943675	-1.640347	0.384338
Cl74	Cl	-0.676661	-1.669948	0.354528
Cl75	Cl	-0.474444	-1.232170	1.130347
H76	H	-0.230052	-1.640375	1.106173
Cl77	Cl	-1.077497	-1.670218	0.354662
Cl78	Cl	-0.474827	-0.894934	0.791600
Cl79	Cl	-0.383852	-0.771092	0.640244
H80	H	-0.542844	-1.396165	0.627838
H81	H	-0.230099	-0.919223	0.384426
