data_functionalizedCrystal
_audit_creation_method	'MofGen! by Chris Wilmer'
_symmetry_space_group_name_H-M	'P1'
_symmetry_Int_Tables_number	1
_symmetry_cell_setting	triclinic
loop_
_symmetry_equiv_pos_as_xyz
  x,y,z
_cell_length_a	14.044220
_cell_length_b	10.489741
_cell_length_c	13.101039
_cell_angle_alpha	93.396862
_cell_angle_beta	86.340132
_cell_angle_gamma	88.864026
loop_
_atom_site_label
_atom_site_type_symbol
_atom_site_fract_x
_atom_site_fract_y
_atom_site_fract_z
O1	O	1.264971	0.301301	-0.085104
O2	O	1.764971	0.801301	0.414896
O3	O	0.988928	0.290194	-0.085130
O4	O	1.488928	0.790194	0.414870
O5	O	1.133230	0.110787	-0.085110
O6	O	1.633230	0.610787	0.414890
O7	O	1.120668	0.480707	-0.085124
O8	O	1.620668	0.980707	0.414876
O9	O	1.122877	0.123682	0.085318
O10	O	1.622877	0.623682	0.585318
O11	O	0.978574	0.303089	0.085298
O12	O	1.478574	0.803089	0.585298
O13	O	1.254618	0.314196	0.085324
O14	O	1.754618	0.814196	0.585324
Zn15	Zn	1.114952	0.310690	0.112370
Zn16	Zn	1.614952	0.810690	0.612370
Zn17	Zn	1.128593	0.293700	-0.112176
Zn18	Zn	1.628593	0.793700	0.387824
O19	O	1.110315	0.493603	0.085305
O20	O	1.610315	0.993603	0.585305
C21	C	0.948404	0.291780	0.000081
C22	C	1.448404	0.791780	0.500081
C23	C	0.843079	0.277280	0.000071
C24	C	1.343079	0.777280	0.500071
C25	C	0.650236	0.250773	0.000092
C26	C	1.150236	0.750773	0.500092
C27	C	0.593304	0.353611	0.000093
C28	C	1.093304	0.853611	0.500093
C29	C	0.486000	0.338862	0.000105
C30	C	0.986000	0.838862	0.500105
C31	C	0.757551	0.265520	0.000080
C32	C	1.257551	0.765520	0.500080
C33	C	1.127105	0.069607	0.000103
C34	C	1.627105	0.569607	0.500103
C35	C	1.124266	-0.072311	0.000101
C36	C	1.624266	0.427689	0.500101
C37	C	1.032451	-0.149765	0.000085
C38	C	1.532451	0.350235	0.500085
C39	C	1.070719	-0.231130	0.084119
C40	C	1.570719	0.268870	0.584119
C41	C	1.080948	-0.243816	-0.083910
C42	C	1.580948	0.256184	0.416090
C43	C	1.162568	-0.151801	0.084204
C44	C	1.662568	0.348199	0.584204
C45	C	1.172789	-0.164485	-0.083900
C46	C	1.672789	0.335515	0.416100
C47	C	1.211123	-0.245814	0.000155
C48	C	1.711123	0.254186	0.500155
C49	C	1.295142	0.312609	0.000111
C50	C	1.795142	0.812609	0.500111
C51	C	1.400466	0.327109	0.000114
C52	C	1.900466	0.827109	0.500114
C53	C	1.116441	0.534783	0.000089
C54	C	1.616441	1.034783	0.500089
C55	C	1.119280	0.676700	0.000084
C56	C	1.619280	1.176700	0.500084
N57	N	1.105649	0.322285	0.265618
N58	N	1.605649	0.822285	0.765618
N59	N	1.137903	0.282095	-0.265424
N60	N	1.637903	0.782095	0.234576
C61	C	1.092993	0.338073	0.474659
C62	C	1.592993	0.838073	0.974659
C63	C	1.150557	0.266311	0.525542
C64	C	1.650557	0.766311	1.025542
C65	C	1.143515	0.275096	0.641860
C66	C	1.643515	0.775096	1.141860
C67	C	1.100034	0.329290	0.358331
C68	C	1.600034	0.829290	0.858331
H69	H	0.618389	0.151662	0.000101
H70	H	1.118389	0.651662	0.500101
O71	O	1.208256	-0.098635	0.178424
O72	O	1.708256	0.401365	0.678424
H73	H	1.209970	0.007052	0.177712
H74	H	1.709970	0.507052	0.677712
O75	O	0.635491	0.484903	0.000077
O76	O	1.135491	0.984903	0.500077
H77	H	0.607318	0.542741	0.069543
H78	H	1.107318	1.042741	0.569543
O79	O	1.222848	0.176188	0.467544
O80	O	1.722848	0.676188	0.967544
H81	H	1.217112	0.183347	0.383961
H82	H	1.717112	0.683347	0.883961
O83	O	1.020723	0.428204	0.532665
O84	O	1.520723	0.928204	1.032665
H85	H	1.034848	0.527535	0.512134
H86	H	1.534848	1.027535	1.012134
H87	H	1.027554	-0.260706	0.155157
H88	H	1.527554	0.239294	0.655157
H89	H	0.956955	-0.107764	0.000162
H90	H	1.456955	0.392236	0.500162
H91	H	1.286678	-0.287571	0.000208
H92	H	1.786678	0.212429	0.500208
O93	O	1.229924	-0.125246	-0.177996
O94	O	1.729924	0.374754	0.322004
H95	H	1.195898	-0.162117	-0.247655
H96	H	1.695898	0.337883	0.252345
O97	O	1.035196	-0.297196	-0.178021
O98	O	1.535196	0.202804	0.321979
H99	H	0.961039	-0.258535	-0.177843
H100	H	1.461039	0.241465	0.322157
