data_functionalizedCrystal
_audit_creation_method	'MofGen! by Chris Wilmer'
_symmetry_space_group_name_H-M	'P1'
_symmetry_Int_Tables_number	1
_symmetry_cell_setting	triclinic
loop_
_symmetry_equiv_pos_as_xyz
  x,y,z
_cell_length_a	16.109301
_cell_length_b	7.540329
_cell_length_c	9.065218
_cell_angle_alpha	89.998628
_cell_angle_beta	95.761317
_cell_angle_gamma	89.998886
loop_
_atom_site_label
_atom_site_type_symbol
_atom_site_fract_x
_atom_site_fract_y
_atom_site_fract_z
O1	O	1.104585	0.147363	-0.189628
O2	O	0.862705	0.147390	-0.213227
O3	O	0.988645	0.147372	0.013336
O4	O	0.978646	0.147381	-0.416191
O5	O	0.988640	-0.147593	0.013338
O6	O	0.862700	-0.147575	-0.213225
O7	O	1.104581	-0.147602	-0.189626
Cu8	Cu	0.983640	-0.174521	-0.201425
Cu9	Cu	0.983646	0.174309	-0.201427
O10	O	0.978641	-0.147584	-0.416189
C11	C	0.831720	-0.000089	-0.212270
C12	C	0.739403	-0.000078	-0.209404
N13	N	0.983643	-0.419870	-0.201423
C14	C	0.518112	-0.000096	-0.337178
C15	C	0.431371	-0.000108	-0.334474
C16	C	0.449180	-0.000105	-0.065664
C17	C	0.535920	-0.000107	-0.068370
C18	C	0.570383	-0.000093	-0.204131
C19	C	0.396903	-0.000103	-0.198721
C20	C	0.302854	-0.000116	-0.195788
C21	C	0.664438	-0.000084	-0.207065
C22	C	1.135565	-0.000119	-0.190583
C23	C	1.227883	-0.000118	-0.193449
C24	C	0.987682	-0.000107	0.068300
C25	C	0.984808	-0.000098	0.232074
N26	N	0.983650	0.419658	-0.201418
C27	C	0.979604	-0.000101	-0.471153
C28	C	0.982478	-0.000098	-0.634926
H29	H	0.546169	-0.000098	-0.447723
H30	H	0.388815	-0.000114	-0.442814
N31	N	0.592299	-0.000118	0.075144
H32	H	0.581100	0.109225	0.134376
H33	H	0.652455	-0.000195	0.052711
H34	H	0.421109	-0.000127	0.044868
