data_functionalizedCrystal
_audit_creation_method	'MofGen! by Chris Wilmer'
_symmetry_space_group_name_H-M	'P1'
_symmetry_Int_Tables_number	1
_symmetry_cell_setting	triclinic
loop_
_symmetry_equiv_pos_as_xyz
  x,y,z
_cell_length_a	10.685194
_cell_length_b	10.685901
_cell_length_c	10.686551
_cell_angle_alpha	89.651709
_cell_angle_beta	81.584560
_cell_angle_gamma	90.347428
loop_
_atom_site_label
_atom_site_type_symbol
_atom_site_fract_x
_atom_site_fract_y
_atom_site_fract_z
Zn1	Zn	-0.609717	1.922266	-0.518947
Zn2	Zn	-0.835447	1.887543	-0.293300
Zn3	Zn	-0.607348	1.696586	-0.325490
Zn4	Zn	-0.803221	1.696620	-0.521397
O5	O	-0.713933	1.800754	-0.414783
O6	O	-0.654138	2.092009	-0.474518
O7	O	-0.817684	1.847666	-0.121148
O8	O	-0.431220	1.741040	-0.363599
O9	O	-0.819981	2.066499	-0.308736
O10	O	-0.432960	1.906846	-0.505731
O11	O	-0.650101	1.707371	-0.144798
O12	O	-0.618853	1.522241	-0.365974
O13	O	-0.765057	1.741098	-0.697494
O14	O	-0.762760	1.522266	-0.509906
O15	O	-0.622890	1.906879	-0.695694
O16	O	-1.007614	1.847699	-0.311111
O17	O	-0.983938	1.707429	-0.478693
C18	C	-0.687053	1.477047	-0.441700
C19	C	-0.675582	1.338563	-0.453242
C20	C	-1.041527	1.773836	-0.391699
C21	C	-1.181679	1.762438	-0.381856
C22	C	-0.385061	1.827813	-0.437982
C23	C	-0.244915	1.839344	-0.447869
C24	C	-0.690643	1.827866	-0.743617
C25	C	-0.680718	1.839419	-0.883746
C26	C	-0.740919	2.125725	-0.387763
C27	C	-0.752418	2.264208	-0.376248
C28	C	-0.737048	1.773826	-0.087230
C29	C	-0.746637	1.762543	0.052894
H30	H	-1.234760	1.687864	-0.317817
O31	O	-0.841473	1.314440	-0.287041
C32	C	-0.910587	1.217508	-0.217750
H33	H	-0.903781	1.128601	-0.276708
H34	H	-1.013960	1.245935	-0.194037
H35	H	-0.869912	1.199607	-0.126478
O36	O	-0.586791	1.287975	-0.542484
C37	C	-0.646788	1.213540	-0.624946
H38	H	-0.743847	1.182646	-0.575193
H39	H	-0.586760	1.127581	-0.653087
H40	H	-0.658270	1.270198	-0.713236
O41	O	-1.181404	1.928278	-0.524182
C42	C	-1.050911	1.920241	-0.517374
H43	H	-1.036629	1.872921	-0.424669
H44	H	-1.007824	2.018310	-0.521732
H45	H	-1.002761	1.862997	-0.600215
H46	H	-0.810670	1.687891	-0.894148
O47	O	-0.604339	1.928386	-0.947122
C48	C	-0.611111	1.920522	-1.077617
H49	H	-0.643177	1.822431	-1.100560
H50	H	-0.513857	1.940824	-1.133707
H51	H	-0.681772	1.991950	-1.104105
