data_functionalizedCrystal
_audit_creation_method	'MofGen! by Chris Wilmer'
_symmetry_space_group_name_H-M	'P1'
_symmetry_Int_Tables_number	1
_symmetry_cell_setting	triclinic
loop_
_symmetry_equiv_pos_as_xyz
  x,y,z
_cell_length_a	12.645331
_cell_length_b	18.050589
_cell_length_c	12.645323
_cell_angle_alpha	90.025443
_cell_angle_beta	90.022676
_cell_angle_gamma	90.027200
loop_
_atom_site_label
_atom_site_type_symbol
_atom_site_fract_x
_atom_site_fract_y
_atom_site_fract_z
Zn1	Zn	1.620654	-0.295674	0.599442
Zn2	Zn	2.120654	0.204326	1.099442
Zn3	Zn	1.620503	-0.419873	0.422180
Zn4	Zn	2.120503	0.080127	0.922180
Zn5	Zn	1.443368	-0.295699	0.422186
Zn6	Zn	1.943368	0.204301	0.922186
Zn7	Zn	1.443317	-0.419824	0.599396
Zn8	Zn	1.943317	0.080176	1.099396
O9	O	1.531961	-0.357767	0.510801
O10	O	2.031961	0.142233	1.010801
O11	O	1.768981	-0.312159	0.575945
O12	O	2.268981	0.187841	1.075945
O13	O	1.596964	-0.403432	0.273834
O14	O	2.096964	0.096568	0.773834
O15	O	1.466970	-0.191771	0.445722
O16	O	1.966970	0.308229	0.945722
O17	O	1.768870	-0.403407	0.445711
O18	O	2.268870	0.096593	0.945711
O19	O	1.597221	-0.191753	0.575951
O20	O	2.097221	0.308247	1.075951
O21	O	1.466824	-0.312202	0.273838
O22	O	1.966824	0.187798	0.773838
O23	O	1.295014	-0.312155	0.445677
O24	O	1.795014	0.187845	0.945677
O25	O	1.466883	-0.403325	0.747749
O26	O	1.966883	0.096675	1.247749
O27	O	1.294977	-0.403349	0.575872
O28	O	1.794977	0.096651	1.075872
O29	O	1.597172	-0.312112	0.747783
O30	O	2.097172	0.187888	1.247783
O31	O	1.596914	-0.523791	0.445666
O32	O	2.096914	-0.023791	0.945666
O33	O	1.466737	-0.523755	0.575866
O34	O	1.966737	-0.023755	1.075866
C35	C	1.256531	-0.357750	0.510770
C36	C	1.756531	0.142250	1.010770
C37	C	1.138701	-0.357760	0.510783
C38	C	1.638701	0.142240	1.010783
C39	C	0.971125	-0.300126	0.429329
C40	C	1.471125	0.199874	0.929329
C41	C	1.093685	-0.300275	0.428970
C42	C	1.593685	0.199725	0.928970
C43	C	1.094160	-0.435993	0.480267
C44	C	1.594160	0.064007	0.980267
C45	C	0.971562	-0.435678	0.479711
C46	C	1.471562	0.064322	0.979711
C47	C	0.971557	-0.337906	0.623067
C48	C	1.471557	0.162094	1.123067
C49	C	1.094163	-0.336158	0.622443
C50	C	1.594163	0.163842	1.122443
C51	C	1.531833	-0.550720	0.510784
C52	C	2.031833	-0.050720	1.010784
C53	C	1.531875	-0.633265	0.510811
C54	C	2.031875	-0.133265	1.010811
C55	C	1.461154	-0.832724	0.581589
C56	C	1.961154	-0.332724	1.081589
C57	C	1.435307	-0.882166	0.484854
C58	C	1.935307	-0.382166	0.984854
C59	C	1.531979	-0.784396	0.510825
C60	C	2.031979	-0.284396	1.010825
C61	C	1.557878	-0.882035	0.607571
C62	C	2.057878	-0.382035	1.107571
C63	C	1.532078	-0.930381	0.510847
C64	C	2.032078	-0.430381	1.010847
C65	C	1.506082	-0.832751	0.414039
C66	C	2.006082	-0.332751	0.914039
C67	C	1.628697	-0.832616	0.536821
C68	C	2.128697	-0.332616	1.036821
C69	C	1.602887	-0.882036	0.440020
C70	C	2.102887	-0.382036	0.940020
C71	C	1.531919	-0.700297	0.510814
C72	C	2.031919	-0.200297	1.010814
C73	C	1.532137	-1.014477	0.510847
C74	C	2.032137	-0.514477	1.010847
C75	C	1.808466	-0.357786	0.510832
C76	C	2.308466	0.142214	1.010832
C77	C	1.926296	-0.357793	0.510846
C78	C	2.426296	0.142207	1.010846
C79	C	1.532039	-0.357710	0.787307
C80	C	2.032039	0.142290	1.287307
C81	C	1.532072	-0.357686	0.905137
C82	C	2.032072	0.142314	1.405137
C83	C	1.532118	-0.164062	0.510842
C84	C	2.032118	0.335938	1.010842
C85	C	1.532185	-0.081516	0.510859
C86	C	2.032185	0.418484	1.010859
C87	C	1.531944	-0.357771	0.235371
C88	C	2.031944	0.142229	0.735371
C89	C	1.532116	-0.357586	0.117542
C90	C	2.032116	0.142414	0.617542
C91	C	1.449855	-0.414797	1.072679
C92	C	1.949855	0.085203	1.572679
C93	C	1.450070	-0.415080	0.950119
C94	C	1.950070	0.084920	1.450119
C95	C	1.643766	-0.378927	0.949656
C96	C	2.143766	0.121073	1.449656
C97	C	1.643315	-0.379285	1.072254
C98	C	2.143315	0.120715	1.572254
C99	C	1.503651	-0.279014	1.072336
C100	C	2.003651	0.220986	1.572336
C101	C	1.501159	-0.279485	0.949729
C102	C	2.001159	0.220515	1.449729
H103	H	1.123801	-0.242262	0.448097
H104	H	1.623801	0.257738	0.948097
H105	H	1.468859	-0.473329	0.920805
H106	H	1.968859	0.026671	1.420805
H107	H	1.124810	-0.375097	0.686428
H108	H	1.624810	0.124903	1.186428
F109	F	1.477380	-0.804574	0.307079
F110	F	1.977380	-0.304574	0.807079
F111	F	1.586457	-0.910335	0.714498
F112	F	2.086457	-0.410335	1.214498
F113	F	1.573761	-0.220824	0.909718
F114	F	2.073761	0.279176	1.409718
F115	F	1.132237	-0.260914	0.652531
F116	F	1.632237	0.239086	1.152531
F117	F	1.341270	-0.397588	1.111193
F118	F	1.841270	0.102412	1.611193
H119	H	1.668310	-0.435763	0.918967
H120	H	2.168310	0.064237	1.418967
F121	F	1.681231	-0.910159	0.361727
F122	F	2.181231	-0.410159	0.861727
H123	H	1.367244	-0.401788	0.920018
H124	H	1.867244	0.098212	1.420018
F125	F	1.474124	-0.490450	1.113022
F126	F	1.974124	0.009550	1.613022
F127	F	0.933665	-0.392805	0.702456
F128	F	1.433665	0.107195	1.202456
F129	F	1.328456	-0.910612	0.456116
F130	F	1.828456	-0.410612	0.956116
H131	H	0.941676	-0.241938	0.448251
H132	H	1.441676	0.258062	0.948251
F133	F	1.382756	-0.804420	0.659699
F134	F	1.882756	-0.304420	1.159699
H135	H	1.710423	-0.810837	0.558835
H136	H	2.210423	-0.310837	1.058835
F137	F	1.674853	-0.454360	1.109653
F138	F	2.174853	0.045640	1.609653
F139	F	0.934111	-0.457721	0.372479
F140	F	1.434111	0.042279	0.872479
F141	F	1.726096	-0.327151	1.111051
F142	F	2.226096	0.172849	1.611051
F143	F	1.726027	-0.326185	0.911579
F144	F	2.226027	0.173815	1.411579
H145	H	1.423623	-0.259652	1.103240
H146	H	1.923623	0.240348	1.603240
H147	H	1.123318	-0.480108	0.537776
H148	H	1.623318	0.019892	1.037776
F149	F	1.393716	-0.258549	0.911707
F150	F	1.893716	0.241451	1.411707
F151	F	1.134219	-0.458418	0.374185
F152	F	1.634219	0.041582	0.874185
F153	F	0.930783	-0.317104	0.321274
F154	F	1.430783	0.182896	0.821274
H155	H	1.563566	-0.236389	1.101350
H156	H	2.063566	0.263611	1.601350
H157	H	1.122959	-0.313420	0.345809
H158	H	1.622959	0.186580	0.845809
H159	H	0.940675	-0.281854	0.650819
H160	H	1.440675	0.218146	1.150819
F161	F	0.932795	-0.493742	0.553926
F162	F	1.432795	0.006258	1.053926
