data_functionalizedCrystal
_audit_creation_method	'MofGen! by Chris Wilmer'
_symmetry_space_group_name_H-M	'P1'
_symmetry_Int_Tables_number	1
_symmetry_cell_setting	triclinic
loop_
_symmetry_equiv_pos_as_xyz
  x,y,z
_cell_length_a	21.395362
_cell_length_b	21.295417
_cell_length_c	21.395355
_cell_angle_alpha	89.978549
_cell_angle_beta	89.956060
_cell_angle_gamma	90.046383
loop_
_atom_site_label
_atom_site_type_symbol
_atom_site_fract_x
_atom_site_fract_y
_atom_site_fract_z
Zn1	Zn	0.957860	-0.250415	-0.354573
Zn2	Zn	1.291194	0.082918	-0.021239
Zn3	Zn	1.624527	0.416251	0.312094
Zn4	Zn	0.957763	-0.355667	-0.249790
Zn5	Zn	1.291097	-0.022334	0.083543
Zn6	Zn	1.624430	0.311000	0.416877
Zn7	Zn	0.853075	-0.250445	-0.249774
Zn8	Zn	1.186409	0.082889	0.083559
Zn9	Zn	1.519742	0.416222	0.416893
Zn10	Zn	0.853045	-0.355680	-0.354495
Zn11	Zn	1.186378	-0.022346	-0.021161
Zn12	Zn	1.519712	0.310987	0.312172
O13	O	0.905436	-0.303052	-0.302158
O14	O	1.238769	0.030282	0.031175
O15	O	1.572103	0.363615	0.364509
O16	O	1.045525	-0.264359	-0.340713
O17	O	1.378859	0.068974	-0.007379
O18	O	1.712192	0.402307	0.325954
O19	O	0.943848	-0.341716	-0.162110
O20	O	1.277182	-0.008382	0.171223
O21	O	1.610515	0.324951	0.504557
O22	O	0.867029	-0.162351	-0.263702
O23	O	1.200362	0.170982	0.069631
O24	O	1.533695	0.504315	0.402965
O25	O	1.045454	-0.341687	-0.263729
O26	O	1.378787	-0.008354	0.069604
O27	O	1.712121	0.324979	0.402938
O28	O	0.944014	-0.162330	-0.340697
O29	O	1.277347	0.171004	-0.007364
O30	O	1.610680	0.504337	0.325970
O31	O	0.866934	-0.264409	-0.162098
O32	O	1.200268	0.068924	0.171235
O33	O	1.533601	0.402257	0.504568
O34	O	0.765393	-0.264422	-0.263626
O35	O	1.098727	0.068911	0.069707
O36	O	1.432060	0.402245	0.403041
O37	O	0.866977	-0.341709	-0.442183
O38	O	1.200310	-0.008376	-0.108850
O39	O	1.533643	0.324957	0.224484
O40	O	0.765371	-0.341738	-0.340564
O41	O	1.098704	-0.008404	-0.007231
O42	O	1.432038	0.324929	0.326103
O43	O	0.943984	-0.264372	-0.442240
O44	O	1.277318	0.068961	-0.108907
O45	O	1.610651	0.402295	0.224426
O46	O	0.943819	-0.443758	-0.263653
O47	O	1.277152	-0.110425	0.069680
O48	O	1.610485	0.222909	0.403013
O49	O	0.866883	-0.443767	-0.340579
O50	O	1.200216	-0.110434	-0.007246
O51	O	1.533549	0.222899	0.326087
C52	C	0.742648	-0.303085	-0.302085
C53	C	1.075982	0.030248	0.031248
C54	C	1.409315	0.363582	0.364581
C55	C	0.673007	-0.303114	-0.302069
C56	C	1.006340	0.030219	0.031264
C57	C	1.339674	0.363552	0.364598
C58	C	0.640299	-0.343426	-0.342070
C59	C	0.973632	-0.010093	-0.008737
C60	C	1.306965	0.323241	0.324596
C61	C	0.574863	-0.343411	-0.342098
C62	C	0.908197	-0.010077	-0.008765
C63	C	1.241530	0.323256	0.324568
C64	C	0.542139	-0.303090	-0.302114
C65	C	0.875472	0.030243	0.031220
C66	C	1.208805	0.363577	0.364553
C67	C	0.574855	-0.262771	-0.262109
C68	C	0.908188	0.070563	0.071224
C69	C	1.241522	0.403896	0.404557
C70	C	0.640289	-0.262783	-0.262087
C71	C	0.973622	0.070551	0.071246
C72	C	1.306956	0.403884	0.404580
C73	C	0.438414	-0.298019	-0.245709
C74	C	0.771747	0.035314	0.087625
C75	C	1.105081	0.368648	0.420958
C76	C	0.372981	-0.298011	-0.245730
C77	C	0.706314	0.035322	0.087603
C78	C	1.039648	0.368655	0.420937
C79	C	0.340318	-0.303049	-0.302183
C80	C	0.673651	0.030284	0.031151
C81	C	1.006985	0.363618	0.364484
C82	C	0.373096	-0.308108	-0.358616
C83	C	0.706429	0.025226	-0.025283
C84	C	1.039763	0.358559	0.308051
C85	C	0.438530	-0.308120	-0.358594
C86	C	0.771863	0.025213	-0.025261
C87	C	1.105197	0.358547	0.308073
C88	C	0.471186	-0.303072	-0.302134
C89	C	0.804520	0.030261	0.031200
C90	C	1.137853	0.363594	0.364533
C91	C	0.236657	-0.343346	-0.342218
C92	C	0.569990	-0.010013	-0.008885
C93	C	0.903324	0.323321	0.324449
C94	C	0.171221	-0.343326	-0.342247
C95	C	0.504554	-0.009993	-0.008914
C96	C	0.837887	0.323340	0.324420
C97	C	0.171214	-0.262690	-0.262252
C98	C	0.504547	0.070644	0.071081
C99	C	0.837880	0.403977	0.404414
C100	C	0.236649	-0.262706	-0.262229
C101	C	0.569982	0.070627	0.071104
C102	C	0.903316	0.403961	0.404438
C103	C	0.269367	-0.303038	-0.302211
C104	C	0.602700	0.030296	0.031122
C105	C	0.936033	0.363629	0.364456
C106	C	0.905354	-0.466603	-0.302123
C107	C	1.238687	-0.133270	0.031210
C108	C	1.572020	0.200063	0.364543
C109	C	0.905376	-0.536571	-0.302129
C110	C	1.238709	-0.203238	0.031204
C111	C	1.572043	0.130095	0.364537
C112	C	0.945472	-0.569412	-0.262115
C113	C	1.278806	-0.236079	0.071218
C114	C	1.612139	0.097254	0.404552
C115	C	0.945502	-0.635155	-0.262129
C116	C	1.278835	-0.301821	0.071204
C117	C	1.612168	0.031512	0.404538
C118	C	0.905424	-0.668054	-0.302151
C119	C	1.238757	-0.334721	0.031182
C120	C	1.572090	-0.001387	0.364516
C121	C	0.865324	-0.635205	-0.342173
C122	C	1.198658	-0.301872	-0.008840
C123	C	1.531991	0.031462	0.324494
C124	C	0.865301	-0.569464	-0.342162
C125	C	1.198634	-0.236131	-0.008829
C126	C	1.531967	0.097203	0.324504
N127	N	0.850614	-0.771336	-0.306903
N128	N	1.183947	-0.438002	0.026430
N129	N	1.517280	-0.104669	0.359764
N130	N	0.850638	-0.833787	-0.306910
N131	N	1.183971	-0.500454	0.026424
N132	N	1.517305	-0.167121	0.359757
C133	C	0.905494	-0.866129	-0.302187
C134	C	1.238827	-0.532795	0.031146
C135	C	1.572160	-0.199462	0.364480
N136	N	0.960325	-0.833659	-0.297445
N137	N	1.293659	-0.500326	0.035888
N138	N	1.626992	-0.166993	0.369222
N139	N	0.960300	-0.771202	-0.297435
N140	N	1.293634	-0.437869	0.035898
N141	N	1.626967	-0.104535	0.369231
C142	C	0.905445	-0.739339	-0.302167
C143	C	1.238778	-0.406006	0.031166
C144	C	1.572112	-0.072673	0.364499
C145	C	0.945625	-0.970255	-0.262186
C146	C	1.278959	-0.636922	0.071148
C147	C	1.612292	-0.303588	0.404481
C148	C	0.945656	-1.035999	-0.262204
C149	C	1.278989	-0.702665	0.071129
C150	C	1.612322	-0.369332	0.404463
C151	C	0.865473	-1.036048	-0.342245
C152	C	1.198806	-0.702714	-0.008912
C153	C	1.532140	-0.369381	0.324422
C154	C	0.865448	-0.970305	-0.342230
C155	C	1.198781	-0.636972	-0.008896
C156	C	1.532115	-0.303639	0.324437
C157	C	0.905523	-0.937413	-0.302197
C158	C	1.238857	-0.604079	0.031137
C159	C	1.572190	-0.270746	0.364470
C160	C	1.068859	-0.303019	-0.302231
C161	C	1.402193	0.030315	0.031102
C162	C	1.735526	0.363648	0.364435
C163	C	1.138501	-0.303005	-0.302262
C164	C	1.471834	0.030329	0.031071
C165	C	1.805167	0.363662	0.364404
C166	C	0.905488	-0.303039	-0.465581
C167	C	1.238821	0.030294	-0.132248
C168	C	1.572155	0.363628	0.201085
C169	C	0.905510	-0.303033	-0.535223
C170	C	1.238843	0.030300	-0.201889
C171	C	1.572177	0.363633	0.131444
C172	C	0.905535	-0.138861	-0.302206
C173	C	1.238869	0.194472	0.031127
C174	C	1.572202	0.527805	0.364460
C175	C	0.905578	-0.068893	-0.302227
C176	C	1.238911	0.264440	0.031106
C177	C	1.572245	0.597773	0.364439
C178	C	0.945606	-0.262762	-0.567967
C179	C	1.278940	0.070571	-0.234633
C180	C	1.612273	0.403904	0.098700
C181	C	0.945605	-0.262735	-0.633402
C182	C	1.278939	0.070598	-0.300069
C183	C	1.612272	0.403932	0.033265
C184	C	0.905515	-0.302991	-0.666091
C185	C	1.238848	0.030343	-0.332758
C186	C	1.572182	0.363676	0.000576
C187	C	0.865411	-0.343265	-0.633339
C188	C	1.198744	-0.009931	-0.300006
C189	C	1.532078	0.323402	0.033328
C190	C	0.865409	-0.343286	-0.567905
C191	C	1.198742	-0.009953	-0.234571
C192	C	1.532075	0.323381	0.098762
C193	C	0.900539	-0.359672	-0.769752
C194	C	1.233873	-0.026339	-0.436419
C195	C	1.567206	0.306995	-0.103085
C196	C	0.900546	-0.359652	-0.835185
C197	C	1.233879	-0.026318	-0.501852
C198	C	1.567213	0.307015	-0.168518
C199	C	0.905519	-0.302924	-0.867912
C200	C	1.238852	0.030409	-0.534578
C201	C	1.572186	0.363743	-0.201245
C202	C	0.910498	-0.246215	-0.835198
C203	C	1.243831	0.087118	-0.501864
C204	C	1.577165	0.420452	-0.168531
C205	C	0.910496	-0.246237	-0.769763
C206	C	1.243829	0.087097	-0.436430
C207	C	1.577162	0.420430	-0.103097
C208	C	0.905513	-0.302972	-0.737043
C209	C	1.238846	0.030362	-0.403710
C210	C	1.572180	0.363695	-0.070377
C211	C	0.945616	-0.262620	-0.971608
C212	C	1.278950	0.070713	-0.638275
C213	C	1.612283	0.404047	-0.304942
C214	C	0.945611	-0.262592	-1.037045
C215	C	1.278944	0.070741	-0.703712
C216	C	1.612278	0.404075	-0.370378
C217	C	0.865420	-0.343127	-1.036981
C218	C	1.198753	-0.009794	-0.703647
C219	C	1.532087	0.323540	-0.370314
C220	C	0.865422	-0.343150	-0.971545
C221	C	1.198755	-0.009816	-0.638212
C222	C	1.532089	0.323517	-0.304879
C223	C	0.905523	-0.302897	-0.938863
C224	C	1.238857	0.030436	-0.605530
C225	C	1.572190	0.363770	-0.272196
C226	C	0.905420	-0.303019	-0.139370
C227	C	1.238754	0.030314	0.193963
C228	C	1.572087	0.363648	0.527296
C229	C	0.905519	-0.302847	-0.069729
C230	C	1.238853	0.030486	0.263604
C231	C	1.572186	0.363820	0.596937
H232	H	0.548227	-0.376237	-0.374675
H233	H	0.881560	-0.042904	-0.041341
H234	H	1.214894	0.290430	0.291992
H235	H	0.832795	-0.943565	-0.374811
H236	H	1.166129	-0.610231	-0.041477
H237	H	1.499462	-0.276898	0.291856
O238	O	0.473640	-0.292588	-0.184815
O239	O	0.806973	0.040745	0.148518
O240	O	1.140307	0.374078	0.481852
H241	H	0.461096	-0.247768	-0.161522
H242	H	0.794429	0.085565	0.171812
H243	H	1.127763	0.418899	0.505145
O244	O	0.337874	-0.313526	-0.419511
O245	O	0.671207	0.019808	-0.086177
O246	O	1.004540	0.353141	0.247156
H247	H	0.371658	-0.317044	-0.458745
H248	H	0.704992	0.016290	-0.125412
H249	H	1.038325	0.349623	0.207921
O250	O	0.271926	-0.219239	-0.219066
O251	O	0.605260	0.114094	0.114267
O252	O	0.938593	0.447428	0.447601
H253	H	0.259426	-0.169846	-0.229896
H254	H	0.592759	0.163488	0.103438
H255	H	0.926093	0.496821	0.436771
O256	O	0.915862	-0.185075	-0.734481
O257	O	1.249195	0.148258	-0.401148
O258	O	1.582529	0.481592	-0.067815
H259	H	0.915029	-0.194624	-0.683484
H260	H	1.248362	0.138709	-0.350151
H261	H	1.581696	0.472043	-0.016817
O262	O	0.822096	-0.670683	-0.385341
O263	O	1.155429	-0.337350	-0.052008
O264	O	1.488763	-0.004017	0.281325
H265	H	0.772924	-0.658121	-0.374535
H266	H	1.106257	-0.324788	-0.041202
H267	H	1.439591	0.008545	0.292132
O268	O	0.988842	-0.219283	-0.668726
O269	O	1.322175	0.114050	-0.335393
O270	O	1.655509	0.447384	-0.002059
H271	H	0.982097	-0.226024	-0.719717
H272	H	1.315431	0.107310	-0.386384
H273	H	1.648764	0.440643	-0.053051
H274	H	0.896322	-0.405855	-0.743111
H275	H	1.229656	-0.072521	-0.409778
H276	H	1.562989	0.260812	-0.076445
H277	H	0.263297	-0.376183	-0.374777
H278	H	0.596631	-0.042850	-0.041444
H279	H	0.929964	0.290483	0.291890
O280	O	0.135895	-0.386807	-0.385360
O281	O	0.469229	-0.053474	-0.052026
O282	O	0.802562	0.279860	0.281307
H283	H	0.106024	-0.418748	-0.357221
H284	H	0.439357	-0.085415	-0.023888
H285	H	0.772690	0.247918	0.309445
H286	H	0.832775	-0.375947	-0.944885
H287	H	1.166108	-0.042613	-0.611552
H288	H	1.499442	0.290720	-0.278218
H289	H	0.914548	-0.200022	-0.861842
H290	H	1.247882	0.133311	-0.528509
H291	H	1.581215	0.466645	-0.195176
H292	H	0.978155	-0.661899	-0.229545
H293	H	1.311488	-0.328566	0.103789
H294	H	1.644822	0.004768	0.437122
O295	O	0.822245	-1.071527	-0.385410
O296	O	1.155578	-0.738194	-0.052076
O297	O	1.488911	-0.404860	0.281257
H298	H	0.832964	-1.058874	-0.434596
H299	H	1.166297	-0.725541	-0.101263
H300	H	1.499631	-0.392207	0.232071
H301	H	0.978266	-0.229840	-0.944997
H302	H	1.311599	0.103493	-0.611664
H303	H	1.644932	0.436826	-0.278330
H304	H	0.832649	-0.542724	-0.374747
H305	H	1.165982	-0.209391	-0.041414
H306	H	1.499316	0.123942	0.291919
O307	O	0.135929	-0.219204	-0.219118
O308	O	0.469262	0.114129	0.114215
O309	O	0.802595	0.447462	0.447549
H310	H	0.084932	-0.225971	-0.225849
H311	H	0.418266	0.107362	0.107484
H312	H	0.751599	0.440695	0.440818
O313	O	0.988860	-0.219156	-1.072367
O314	O	1.322194	0.114178	-0.739034
O315	O	1.655527	0.447511	-0.405700
H316	H	1.016747	-0.191176	-1.038645
H317	H	1.350081	0.142157	-0.705312
H318	H	1.683414	0.475491	-0.371978
H319	H	0.832755	-0.376079	-0.541245
H320	H	1.166088	-0.042746	-0.207912
H321	H	1.499421	0.290588	0.125422
O322	O	0.473887	-0.313563	-0.419456
O323	O	0.807220	0.019771	-0.086122
O324	O	1.140553	0.353104	0.247211
H325	H	0.440186	-0.317058	-0.458718
H326	H	0.773520	0.016275	-0.125385
H327	H	1.106853	0.349609	0.207948
H328	H	0.978259	-0.943473	-0.229590
H329	H	1.311592	-0.610139	0.103743
H330	H	1.644926	-0.276806	0.437076
O331	O	0.337628	-0.292552	-0.184867
O332	O	0.670962	0.040781	0.148466
O333	O	1.004295	0.374115	0.481799
H334	H	0.371332	-0.289037	-0.145609
H335	H	0.704666	0.044297	0.187724
H336	H	1.037999	0.377630	0.521057
H337	H	0.832771	-0.375897	-1.063595
H338	H	1.166105	-0.042564	-0.730262
H339	H	1.499438	0.290769	-0.396929
O340	O	0.895169	-0.420811	-0.870469
O341	O	1.228503	-0.087478	-0.537135
O342	O	1.561836	0.245855	-0.203802
H343	H	0.891696	-0.460260	-0.836720
H344	H	1.225029	-0.126927	-0.503387
H345	H	1.558362	0.206407	-0.170054
H346	H	0.548206	-0.229940	-0.229555
H347	H	0.881540	0.103393	0.103779
H348	H	1.214873	0.436726	0.437112
H349	H	0.666920	-0.229954	-0.229513
H350	H	1.000253	0.103379	0.103821
H351	H	1.333587	0.436713	0.437154
O352	O	0.675588	-0.386922	-0.385195
O353	O	1.008921	-0.053589	-0.051862
O354	O	1.342254	0.279745	0.281472
H355	H	0.705465	-0.358800	-0.417111
H356	H	1.038799	-0.025467	-0.083778
H357	H	1.372132	0.307866	0.249555
O358	O	0.822168	-0.386683	-0.668590
O359	O	1.155501	-0.053350	-0.335257
O360	O	1.488834	0.279984	-0.001924
H361	H	0.828909	-0.379907	-0.719593
H362	H	1.162242	-0.046573	-0.386259
H363	H	1.495575	0.286760	-0.052926
H364	H	0.978105	-0.542633	-0.229519
H365	H	1.311439	-0.209300	0.103814
H366	H	1.644772	0.124034	0.437147
O367	O	0.988903	-1.071425	-0.219043
O368	O	1.322236	-0.738092	0.114291
O369	O	1.655570	-0.404758	0.447624
H370	H	1.016759	-1.037505	-0.191201
H371	H	1.350092	-0.704172	0.142132
H372	H	1.683426	-0.370839	0.475465
H373	H	0.978259	-0.229985	-0.541361
H374	H	1.311593	0.103349	-0.208027
H375	H	1.644926	0.436682	0.125306
