data_functionalizedCrystal
_audit_creation_method	'MofGen! by Chris Wilmer'
_symmetry_space_group_name_H-M	'P1'
_symmetry_Int_Tables_number	1
_symmetry_cell_setting	triclinic
loop_
_symmetry_equiv_pos_as_xyz
  x,y,z
_cell_length_a	17.038272
_cell_length_b	17.019294
_cell_length_c	12.503572
_cell_angle_alpha	89.649141
_cell_angle_beta	86.232200
_cell_angle_gamma	87.244363
loop_
_atom_site_label
_atom_site_type_symbol
_atom_site_fract_x
_atom_site_fract_y
_atom_site_fract_z
O1	O	1.042504	0.166299	-0.104564
O2	O	0.814865	0.163590	-0.104345
O3	O	0.934502	0.051040	-0.093914
O4	O	0.922867	0.278848	-0.114996
O5	O	0.925504	0.059520	0.083942
O6	O	0.805867	0.172069	0.073511
O7	O	1.033507	0.174778	0.073292
Cu8	Cu	0.918865	0.174198	0.089641
Cu9	Cu	0.929506	0.164170	-0.120695
O10	O	0.913870	0.287327	0.062860
C11	C	0.781228	0.165366	-0.015194
C12	C	0.694408	0.158018	-0.014526
C13	C	0.644551	0.225480	-0.020768
C14	C	0.562974	0.218572	-0.020114
C15	C	0.531255	0.144200	-0.013225
C16	C	0.581118	0.076733	-0.006979
C17	C	0.662693	0.083642	-0.007626
C18	C	0.285402	0.119792	-0.010938
C19	C	0.203820	0.112887	-0.010295
C20	C	0.185682	0.254727	-0.023428
C21	C	0.267260	0.261630	-0.024080
C22	C	0.317116	0.194162	-0.017829
C23	C	0.447870	0.137137	-0.012560
C24	C	0.400499	0.201227	-0.018486
C25	C	0.929384	0.025988	-0.002278
C26	C	0.927532	-0.061295	0.005792
C27	C	0.931568	-0.106918	-0.087365
C28	C	0.929822	-0.188928	-0.079779
C29	C	0.924046	-0.225315	0.020965
C30	C	0.920007	-0.179686	0.114129
C31	C	0.921748	-0.097676	0.106542
C32	C	0.918541	-0.472699	0.048722
C33	C	0.916804	-0.554715	0.056302
C34	C	0.926617	-0.563952	-0.137608
C35	C	0.928362	-0.481941	-0.145185
C36	C	0.924319	-0.436318	-0.052021
C37	C	0.922264	-0.309143	0.028721
C38	C	0.926095	-0.352491	-0.059778
C39	C	1.067143	0.173002	-0.015863
C40	C	1.153964	0.180350	-0.016537
C41	C	0.918987	0.312380	-0.028779
C42	C	0.920840	0.399662	-0.036855
N43	N	0.911387	0.181251	0.237579
N44	N	0.936990	0.157111	-0.268633
C45	C	0.900386	0.191633	0.455732
C46	C	0.947988	0.146732	0.513221
C47	C	0.941867	0.152508	0.634609
C48	C	0.906506	0.185857	0.334333
H49	H	0.670370	0.286042	-0.026379
O50	O	0.846326	0.242772	0.505635
C51	C	0.799532	0.377930	0.527852
C52	C	0.860789	0.320099	0.471230
H53	H	0.811214	0.440462	0.500075
H54	H	0.737905	0.362625	0.507218
H55	H	0.804162	0.373515	0.618254
H56	H	0.856231	0.324483	0.380817
H57	H	0.922391	0.335421	0.491952
H58	H	0.293080	0.322190	-0.029702
O59	O	0.514658	0.284183	-0.026235
C60	C	0.505272	0.425601	-0.039268
C61	C	0.560081	0.351356	-0.032371
H62	H	0.541974	0.479930	-0.044208
H63	H	0.470396	0.422416	-0.113745
H64	H	0.462859	0.429419	0.035129
H65	H	0.602542	0.347491	-0.106712
H66	H	0.594902	0.354572	0.042153
H67	H	0.177998	0.052322	-0.004686
O68	O	0.137179	0.320197	-0.029628
C69	C	0.039234	0.390347	-0.128690
C70	C	0.094111	0.316153	-0.121790
H71	H	0.004411	0.387111	-0.203208
H72	H	-0.003219	0.394212	-0.054334
H73	H	0.075931	0.444680	-0.133670
H74	H	0.057478	0.261779	-0.116844
H75	H	0.136567	0.312357	-0.196146
H76	H	0.917564	-0.338778	0.110747
H77	H	0.929907	-0.601106	-0.213456
O78	O	0.911341	-0.590101	0.154152
C79	C	0.971367	-0.681719	0.275637
C80	C	0.977649	-0.641692	0.164804
H81	H	1.024961	-0.723453	0.284276
H82	H	0.968829	-0.635055	0.340958
H83	H	0.915622	-0.716325	0.283700
H84	H	1.033390	-0.607090	0.156637
H85	H	0.980143	-0.688394	0.099538
O86	O	0.417086	0.064884	-0.005689
C87	C	0.403016	-0.054091	0.097822
C88	C	0.437909	0.027724	0.090188
H89	H	0.419852	-0.084166	0.175323
H90	H	0.336141	-0.047481	0.097286
H91	H	0.427271	-0.091220	0.026457
H92	H	0.413716	0.064896	0.161536
H93	H	0.504784	0.021054	0.090674
O94	O	0.917712	-0.053428	0.197107
C95	C	0.842141	-0.016021	0.360053
C96	C	0.846629	-0.066189	0.257544
H97	H	0.784668	-0.026308	0.408934
H98	H	0.894003	-0.033399	0.409779
H99	H	0.844411	0.048834	0.337293
H100	H	0.844336	-0.131057	0.280207
H101	H	0.794771	-0.048745	0.207845
O102	O	1.002133	0.095734	0.463190
C103	C	1.139559	0.056960	0.431707
C104	C	1.078367	0.114757	0.488526
H105	H	1.201208	0.072329	0.452152
H106	H	1.127992	-0.005596	0.459497
H107	H	1.134774	0.061391	0.341335
H108	H	1.083116	0.110396	0.578906
H109	H	1.089952	0.177287	0.460649
H110	H	0.325985	0.064855	-0.005846
H111	H	0.426328	0.261780	-0.024089
H112	H	0.555285	0.016178	-0.001355
H113	H	0.936276	-0.077298	-0.169402
O114	O	0.933790	-0.446686	-0.243117
C115	C	0.874956	-0.425346	-0.411575
C116	C	0.868724	-0.465261	-0.300665
H117	H	0.822366	-0.440363	-0.458143
H118	H	0.875449	-0.358873	-0.401187
H119	H	0.931706	-0.447299	-0.457535
H120	H	0.811978	-0.443372	-0.254646
H121	H	0.868276	-0.531729	-0.311129
O122	O	0.711018	0.018026	-0.001608
C123	C	0.720401	-0.123385	0.011545
C124	C	0.665587	-0.049140	0.004706
H125	H	0.683692	-0.177706	0.016674
H126	H	0.762790	-0.127302	-0.062874
H127	H	0.755307	-0.120103	0.085982
H128	H	0.630631	-0.052371	-0.069685
H129	H	0.623250	-0.045249	0.079177
H130	H	0.933112	-0.226072	-0.155638
O131	O	0.931590	-0.317058	-0.157583
C132	C	0.871530	-0.225501	-0.279116
C133	C	0.865220	-0.265563	-0.168308
H134	H	0.817869	-0.183871	-0.287832
H135	H	0.927219	-0.190809	-0.287209
H136	H	0.874151	-0.272215	-0.344375
H137	H	0.862566	-0.218901	-0.102983
H138	H	0.809540	-0.300272	-0.160307
O139	O	0.914666	-0.428510	0.139326
C140	C	0.904751	-0.428010	0.332457
C141	C	0.909139	-0.478153	0.229930
H142	H	0.900264	-0.468125	0.405737
H143	H	0.960006	-0.392945	0.334144
H144	H	0.850673	-0.385825	0.333386
H145	H	0.963182	-0.520382	0.228934
H146	H	0.853846	-0.513164	0.228284
O147	O	0.914296	-0.215113	0.211931
C148	C	0.838947	-0.297936	0.332646
C149	C	0.845323	-0.257875	0.221840
H150	H	0.783178	-0.332504	0.340702
H151	H	0.892520	-0.339679	0.341395
H152	H	0.836401	-0.251228	0.397908
H153	H	0.847846	-0.304527	0.156512
H154	H	0.791750	-0.216116	0.213183
