data_functionalizedCrystal
_audit_creation_method	'MofGen! by Chris Wilmer'
_symmetry_space_group_name_H-M	'P1'
_symmetry_Int_Tables_number	1
_symmetry_cell_setting	triclinic
loop_
_symmetry_equiv_pos_as_xyz
  x,y,z
_cell_length_a	9.065218
_cell_length_b	17.019294
_cell_length_c	8.140239
_cell_angle_alpha	86.117515
_cell_angle_beta	89.997198
_cell_angle_gamma	84.203176
loop_
_atom_site_label
_atom_site_type_symbol
_atom_site_fract_x
_atom_site_fract_y
_atom_site_fract_z
O1	O	1.957263	0.115662	-0.152977
O2	O	1.527721	0.125150	-0.154321
O3	O	1.754475	0.005659	-0.137409
O4	O	1.730509	0.235153	-0.169889
O5	O	1.754463	0.005657	0.135819
O6	O	1.527709	0.125148	0.118906
O7	O	1.957251	0.115661	0.120250
Zn8	Zn	1.742478	0.120404	0.162959
Zn9	Zn	1.742494	0.120406	-0.197030
O10	O	1.730497	0.235152	0.103338
C11	C	1.472753	0.124237	-0.017579
C12	C	1.308984	0.121511	-0.017194
C13	C	1.753560	-0.023737	0.003362
C14	C	1.750834	-0.111327	0.015748
C15	C	1.749564	-0.152472	-0.127368
C16	C	1.746993	-0.234771	-0.115724
C17	C	1.745704	-0.275925	0.039037
C18	C	1.746970	-0.234774	0.182163
C19	C	1.749530	-0.152476	0.170518
C20	C	1.737964	-0.524413	0.081648
C21	C	1.735408	-0.606718	0.093282
C22	C	1.735429	-0.606709	-0.204607
C23	C	1.737998	-0.524409	-0.216238
C24	C	1.739256	-0.483265	-0.073111
C25	C	1.743081	-0.360049	0.050942
C26	C	1.741868	-0.399142	-0.085018
C27	C	2.012219	0.116573	-0.016496
C28	C	2.175988	0.119300	-0.016891
C29	C	1.731412	0.264548	-0.037436
C30	C	1.734138	0.352138	-0.049834
N31	N	1.742477	0.120403	0.408642
N32	N	1.742506	0.120402	-0.442712
H33	H	1.745965	-0.268268	-0.232265
O34	O	1.734041	-0.651116	0.260206
H35	H	1.632390	-0.682315	0.271735
O36	O	1.739329	-0.480039	0.236010
H37	H	1.840989	-0.448849	0.238714
O38	O	1.739391	-0.480019	-0.383156
H39	H	1.640063	-0.436206	-0.396469
H40	H	1.734402	-0.640217	-0.321132
H41	H	1.745911	-0.268288	0.308173
O42	O	1.750957	-0.108088	-0.294292
H43	H	1.651626	-0.064277	-0.307607
H44	H	1.750544	-0.118976	0.287059
O45	O	1.741713	-0.404449	0.217851
H46	H	1.641698	-0.382357	0.286158
O47	O	1.743251	-0.354762	-0.251939
H48	H	1.844925	-0.323582	-0.263471
