data_functionalizedCrystal
_audit_creation_method	'MofGen! by Chris Wilmer'
_symmetry_space_group_name_H-M	'P1'
_symmetry_Int_Tables_number	1
_symmetry_cell_setting	triclinic
loop_
_symmetry_equiv_pos_as_xyz
  x,y,z
_cell_length_a	14.853566
_cell_length_b	14.853567
_cell_length_c	13.330367
_cell_angle_alpha	90.000844
_cell_angle_beta	90.004705
_cell_angle_gamma	83.634672
loop_
_atom_site_label
_atom_site_type_symbol
_atom_site_fract_x
_atom_site_fract_y
_atom_site_fract_z
O1	O	-1.196370	-0.117698	-0.083349
O2	O	-0.933910	-0.131721	-0.083364
O3	O	-1.072150	0.006520	-0.083359
O4	O	-1.058129	-0.255939	-0.083354
O5	O	-1.072130	0.006523	0.083488
O6	O	-0.933890	-0.131718	0.083483
O7	O	-1.196349	-0.117695	0.083499
Cu8	Cu	-1.065118	-0.124706	0.098725
Cu9	Cu	-1.065142	-0.124710	-0.098591
O10	O	-1.058109	-0.255936	0.083493
C11	C	-0.900311	-0.131084	0.000057
C12	C	-0.800227	-0.129181	0.000051
C13	C	-1.071505	0.040111	0.000062
C14	C	-1.069601	0.140194	0.000053
C15	C	-1.229948	-0.118332	0.000075
C16	C	-1.330032	-0.120235	0.000075
C17	C	-0.377053	-0.121132	-0.090880
C18	C	-0.377053	-0.121129	0.091023
C19	C	-0.471087	-0.122916	0.091020
C20	C	-0.518108	-0.123813	0.000066
C21	C	-0.471096	-0.122922	-0.090886
C22	C	-0.518105	-0.123816	0.181970
C23	C	-0.612145	-0.125605	0.181971
C24	C	-0.659169	-0.126495	0.091015
C25	C	-0.612151	-0.125603	0.000060
C26	C	-0.659172	-0.126500	-0.090895
C27	C	-0.612157	-0.125601	-0.181851
C28	C	-0.518120	-0.123812	-0.181841
C29	C	-0.753206	-0.128284	0.091006
C30	C	-0.753215	-0.128290	-0.090900
C31	C	-1.058754	-0.289526	0.000071
C32	C	-1.060658	-0.389610	0.000073
N33	N	-1.065108	-0.124703	0.237507
C34	C	-0.979435	0.552728	0.000067
C35	C	-1.143668	0.574009	0.000076
C36	C	-1.145458	0.479976	0.000070
C37	C	-1.064236	0.422313	0.000064
C38	C	-0.981223	0.458685	0.000064
C39	C	-1.228470	0.443597	0.000081
C40	C	-1.230263	0.349558	0.000076
C41	C	-1.149040	0.291894	0.000063
C42	C	-1.066023	0.328271	0.000061
C43	C	-0.984801	0.270608	0.000055
C44	C	-0.901784	0.306984	0.000047
C45	C	-0.899999	0.401021	0.000050
C46	C	-1.150824	0.197856	0.000059
C47	C	-0.986588	0.176566	0.000052
N48	N	-1.065159	-0.124706	-0.237372
C49	C	-1.003926	-0.185899	0.710127
C50	C	-1.126381	-0.063514	0.710100
C51	C	-1.126371	-0.063511	0.605082
C52	C	-1.065138	-0.124704	0.552581
C53	C	-1.003916	-0.185900	0.605099
C54	C	-1.187599	-0.002322	0.552556
C55	C	-1.187592	-0.002318	0.447531
C56	C	-1.126354	-0.063507	0.395029
C57	C	-1.065128	-0.124705	0.447553
C58	C	-1.003895	-0.185898	0.395053
C59	C	-0.942664	-0.247092	0.447575
C60	C	-0.942678	-0.247089	0.552597
C61	C	-1.126340	-0.063510	0.290007
C62	C	-1.003885	-0.185899	0.290025
H63	H	-0.791493	-0.129017	-0.164968
H64	H	-0.479831	-0.123080	-0.255893
H65	H	-1.176240	-0.013696	0.752849
C66	C	-0.325940	-0.120345	-0.189597
C67	C	-0.261920	-0.196827	-0.194919
C68	C	-0.214825	-0.196140	-0.285848
H69	H	-0.295987	-0.067174	-0.193476
H70	H	-0.367379	-0.121185	-0.243795
H71	H	-0.220487	-0.195979	-0.140736
H72	H	-0.291850	-0.250010	-0.191058
H73	H	-0.256264	-0.196981	-0.340045
H74	H	-0.184877	-0.142966	-0.289718
H75	H	-0.171388	-0.248036	-0.289474
C76	C	-0.663319	-0.126429	0.280645
C77	C	-0.727362	-0.049963	0.285941
C78	C	-0.774529	-0.050693	0.376819
H79	H	-0.621954	-0.125594	0.334897
H80	H	-0.693255	-0.179629	0.284440
H81	H	-0.697428	0.003223	0.282156
H82	H	-0.768746	-0.050782	0.231710
H83	H	-0.804464	-0.103893	0.380613
H84	H	-0.733157	-0.049860	0.431063
H85	H	-0.817993	0.001183	0.380420
C86	C	-0.809782	0.440340	-0.000005
C87	C	-0.739031	0.369719	-0.000041
C88	C	-0.655912	0.405908	-0.000104
H89	H	-0.805536	0.476566	0.058165
H90	H	-0.805632	0.476560	-0.058209
H91	H	-0.743178	0.333514	0.058158
H92	H	-0.743246	0.333487	-0.058206
H93	H	-0.651762	0.442128	-0.058308
H94	H	-0.651675	0.442134	0.058067
H95	H	-0.607897	0.357998	-0.000137
H96	H	-0.911845	0.582349	0.000056
C97	C	-1.192853	0.003021	0.233164
C98	C	-1.246469	0.056622	0.301620
C99	C	-1.307744	0.117932	0.249294
H100	H	-1.230496	-0.029376	0.192180
H101	H	-1.160399	0.040664	0.192227
H102	H	-1.278920	0.018984	0.342540
H103	H	-1.208851	0.089039	0.342607
H104	H	-1.275290	0.155575	0.208357
H105	H	-1.345381	0.085527	0.208312
H106	H	-1.344124	0.154313	0.295733
C107	C	-0.663382	-0.126534	-0.280495
C108	C	-0.755799	-0.128278	-0.261023
C109	C	-0.803020	-0.129126	-0.351866
H110	H	-0.641273	-0.178758	-0.317942
H111	H	-0.654845	-0.073688	-0.317874
H112	H	-0.764330	-0.181119	-0.223660
H113	H	-0.777934	-0.076058	-0.223591
H114	H	-0.794483	-0.076280	-0.389245
H115	H	-0.780904	-0.181351	-0.389306
H116	H	-0.865731	-0.130301	-0.338667
H117	H	-1.209796	0.620963	0.000089
H118	H	-1.294597	0.490552	0.000095
H119	H	-0.892827	-0.296912	0.595367
C120	C	-0.937490	-0.252479	0.767014
C121	C	-0.952195	-0.341100	0.741445
C122	C	-0.891002	-0.402456	0.793818
H123	H	-0.946193	-0.243844	0.837097
H124	H	-0.877296	-0.242628	0.749784
H125	H	-1.012374	-0.350947	0.758681
H126	H	-0.943485	-0.349764	0.671371
H127	H	-0.830808	-0.392605	0.776588
H128	H	-0.899710	-0.393813	0.863898
H129	H	-0.900965	-0.462592	0.776470
H130	H	-1.237457	0.047495	0.595305
H131	H	-0.338762	-0.120405	0.165074
C132	C	-0.466897	-0.122807	0.280610
C133	C	-0.374484	-0.121023	0.261145
C134	C	-0.327280	-0.120084	0.351991
H135	H	-0.475389	-0.175620	0.318046
H136	H	-0.489064	-0.070552	0.317998
H137	H	-0.352324	-0.173274	0.223773
H138	H	-0.365965	-0.068214	0.223724
H139	H	-0.349447	-0.067829	0.389379
H140	H	-0.335779	-0.172899	0.389421
H141	H	-0.264574	-0.118866	0.338797
C142	C	-0.804386	-0.129121	0.189671
C143	C	-0.868432	-0.052659	0.194975
C144	C	-0.915604	-0.053404	0.285849
H145	H	-0.763024	-0.128291	0.243926
H146	H	-0.834318	-0.182324	0.193453
H147	H	-0.838501	0.000530	0.191202
H148	H	-0.909813	-0.053473	0.140741
H149	H	-0.945536	-0.106607	0.289632
H150	H	-0.874235	-0.052577	0.340097
H151	H	-0.959070	-0.001530	0.289456
H152	H	-0.920446	0.129622	0.000043
H153	H	-0.835653	0.260023	0.000048
C154	C	-1.320483	0.310244	0.000027
C155	C	-1.391230	0.380870	0.000009
C156	C	-1.474352	0.344687	-0.000054
H157	H	-1.324718	0.274010	0.058190
H158	H	-1.324649	0.274033	-0.058184
H159	H	-1.387066	0.417065	0.058214
H160	H	-1.387024	0.417109	-0.058150
H161	H	-1.478518	0.308477	-0.058264
H162	H	-1.478578	0.308454	0.058111
H163	H	-1.522364	0.392601	-0.000075
H164	H	-1.218415	0.168244	0.000073
H165	H	-0.892812	-0.296920	0.404818
H166	H	-1.237448	0.047510	0.404774
C167	C	-0.937361	-0.252441	0.233209
C168	C	-0.883761	-0.306041	0.301687
C169	C	-0.822479	-0.367357	0.249386
H170	H	-0.899708	-0.220047	0.192241
H171	H	-0.969809	-0.290083	0.192258
H172	H	-0.851315	-0.268404	0.342621
H173	H	-0.921389	-0.338454	0.342658
H174	H	-0.854926	-0.404999	0.208435
H175	H	-0.784832	-0.334956	0.208420
H176	H	-0.786109	-0.403737	0.295840
