data_functionalizedCrystal
_audit_creation_method	'MofGen! by Chris Wilmer'
_symmetry_space_group_name_H-M	'P1'
_symmetry_Int_Tables_number	1
_symmetry_cell_setting	triclinic
loop_
_symmetry_equiv_pos_as_xyz
  x,y,z
_cell_length_a	14.044220
_cell_length_b	14.044191
_cell_length_c	14.750779
_cell_angle_alpha	103.818400
_cell_angle_beta	103.815653
_cell_angle_gamma	86.809673
loop_
_atom_site_label
_atom_site_type_symbol
_atom_site_fract_x
_atom_site_fract_y
_atom_site_fract_z
O1	O	-0.249149	1.258212	-0.079776
O2	O	-0.240839	0.981536	-0.079788
O3	O	-0.106657	1.115722	-0.079778
O4	O	-0.383330	1.124026	-0.079786
O5	O	-0.068730	1.153655	0.079875
O6	O	-0.202912	1.019469	0.079865
O7	O	-0.211221	1.296145	0.079878
Zn8	Zn	-0.201045	1.163830	0.105220
Zn9	Zn	-0.251015	1.113851	-0.105130
O10	O	-0.345403	1.161959	0.079867
C11	C	-0.218239	0.964880	0.000037
C12	C	-0.207393	0.858736	0.000032
C13	C	-0.264491	0.613280	0.000040
C14	C	-0.187575	0.664405	0.000041
C15	C	-0.198604	0.772541	0.000036
C16	C	-0.253464	0.505134	0.000045
C17	C	-0.399989	1.146628	0.000040
C18	C	-0.506133	1.157472	0.000037
C19	C	-0.700470	1.177299	0.000042
C20	C	-0.751598	1.100384	0.000039
C21	C	-0.859734	1.111416	0.000042
C22	C	-0.592324	1.166268	0.000039
C23	C	-0.052072	1.131053	0.000048
C24	C	0.054071	1.120207	0.000044
C25	C	-0.233822	1.312800	0.000050
C26	C	-0.244669	1.418943	0.000049
N27	N	-0.166941	1.197945	0.248778
N28	N	-0.285112	1.079742	-0.248689
C29	C	-0.380316	0.984458	0.600580
C30	C	-0.356426	1.008371	0.701081
C31	C	-0.237658	1.127224	0.701053
C32	C	-0.261535	1.103317	0.600550
C33	C	-0.332866	1.031934	0.550321
C34	C	-0.214084	1.150792	0.550291
C35	C	-0.237964	1.126891	0.449797
C36	C	-0.309294	1.055513	0.399561
C37	C	-0.356745	1.008032	0.449827
C38	C	-0.142759	1.222180	0.600521
C39	C	-0.095308	1.269656	0.550262
C40	C	-0.119182	1.245749	0.449766
C41	C	-0.190512	1.174371	0.399531
C42	C	-0.071731	1.293230	0.399501
C43	C	-0.095610	1.269328	0.299006
C44	C	-0.214392	1.150469	0.299037
H45	H	-0.338619	0.650720	0.000035
H46	H	-0.414822	0.949897	0.408929
H47	H	-0.328738	1.036056	0.317732
Br48	Br	-0.689199	0.976821	0.000040
Br49	Br	-0.064013	0.602004	0.000047
Br50	Br	-0.031217	1.333768	0.230795
H51	H	-0.737907	1.251429	0.000049
H52	H	-0.272469	1.092335	0.258139
H53	H	-0.438394	0.926323	0.559682
H54	H	-0.395073	0.969705	0.741997
Br55	Br	-0.140859	1.224103	0.769225
Br56	Br	0.001491	1.366535	0.618435
H57	H	-0.013660	1.351358	0.440410
H58	H	-0.123322	1.241641	0.682350
