data_functionalizedCrystal
_audit_creation_method	'MofGen! by Chris Wilmer'
_symmetry_space_group_name_H-M	'P1'
_symmetry_Int_Tables_number	1
_symmetry_cell_setting	triclinic
loop_
_symmetry_equiv_pos_as_xyz
  x,y,z
_cell_length_a	15.944551
_cell_length_b	10.654541
_cell_length_c	9.130307
_cell_angle_alpha	89.990270
_cell_angle_beta	89.999190
_cell_angle_gamma	96.008667
loop_
_atom_site_label
_atom_site_type_symbol
_atom_site_fract_x
_atom_site_fract_y
_atom_site_fract_z
O1	O	1.115459	-0.161976	0.121646
O2	O	0.871025	-0.181945	0.121682
O3	O	0.998863	0.010852	0.121654
O4	O	0.987621	-0.354773	0.121674
O5	O	0.998855	0.010877	-0.121945
O6	O	0.871017	-0.181920	-0.121917
O7	O	1.115451	-0.161951	-0.121953
Cu8	Cu	0.993233	-0.171933	-0.144177
Cu9	Cu	0.993243	-0.171963	0.143907
O10	O	0.987613	-0.354747	-0.121925
C11	C	0.839722	-0.181103	-0.000113
C12	C	0.746462	-0.178618	-0.000099
N13	N	0.993233	-0.171911	-0.346800
C14	C	0.998034	0.057652	-0.000144
C15	C	0.995566	0.197063	-0.000141
C16	C	0.530880	-0.053173	-0.000134
C17	C	0.470200	-0.111438	0.119976
C18	C	0.575710	-0.174122	-0.000116
C19	C	0.470215	-0.111442	-0.120193
C20	C	0.410772	-0.169770	-0.000140
C21	C	0.516259	-0.232420	0.120093
C22	C	0.516280	-0.232407	-0.120184
C23	C	0.455618	-0.290760	-0.000045
C24	C	0.670727	-0.176625	-0.000102
C25	C	0.315756	-0.167276	-0.000144
C26	C	1.146754	-0.162793	-0.000155
C27	C	1.240014	-0.165278	-0.000159
C28	C	0.988442	-0.401548	-0.000123
C29	C	0.990910	-0.540959	-0.000117
C30	C	1.148431	0.227012	-0.000183
C31	C	1.223700	0.307480	-0.000206
C32	C	1.221376	0.438468	-0.000201
C33	C	1.143774	0.488989	-0.000168
C34	C	1.068504	0.408521	-0.000145
C35	C	1.070837	0.277532	-0.000154
C36	C	0.915641	0.378573	-0.000093
C37	C	0.917963	0.247584	-0.000109
C38	C	0.838039	0.429094	-0.000060
C39	C	0.762767	0.348625	-0.000047
C40	C	0.765095	0.217630	-0.000054
C41	C	0.842694	0.167116	-0.000085
N42	N	0.993250	-0.171975	0.346529
C43	C	1.106659	-0.001505	0.653134
C44	C	1.163381	0.083678	0.576435
C45	C	1.163394	0.083645	0.423101
C46	C	1.106679	-0.001577	0.346464
C47	C	1.049957	-0.086760	0.423163
C48	C	1.049952	-0.086720	0.576500
C49	C	0.936528	-0.257158	0.423229
C50	C	0.936517	-0.257133	0.576562
C51	C	0.879813	-0.342380	0.346591
C52	C	0.823094	-0.427570	0.423291
C53	C	0.823083	-0.427535	0.576634
C54	C	0.879796	-0.342316	0.653262
H55	H	0.563632	0.047204	0.000009
H56	H	0.423041	-0.391241	0.000028
C57	C	0.543881	-0.301438	-0.257357
H58	H	0.528288	-0.258333	-0.342621
H59	H	0.517071	-0.385364	-0.258216
H60	H	0.603324	-0.303174	-0.255877
H61	H	0.879822	-0.342398	0.221739
H62	H	0.449830	-0.060252	-0.221734
H63	H	1.150331	0.120356	-0.000206
H64	H	1.106661	-0.001480	0.777986
H65	H	0.836151	0.535752	-0.000047
C66	C	1.309056	0.251905	-0.000248
H67	H	1.299664	0.162369	-0.000262
H68	H	1.340091	0.279509	0.084688
H69	H	1.340068	0.279539	-0.085220
H70	H	1.282667	0.503986	-0.000209
C71	C	0.442629	-0.042349	0.257139
H72	H	0.468641	0.042051	0.256991
H73	H	0.459155	-0.084509	0.342434
H74	H	0.383077	-0.041940	0.256590
H75	H	0.776916	-0.496947	0.360883
C76	C	0.677417	0.404200	-0.000013
H77	H	0.686813	0.493736	-0.000014
H78	H	0.646397	0.376563	0.084939
H79	H	0.646389	0.376604	-0.084969
H80	H	0.703801	0.152119	-0.000029
C81	C	1.141218	0.633072	-0.000152
H82	H	1.197159	0.673760	-0.000174
H83	H	1.112468	0.657158	0.084805
H84	H	1.112459	0.657191	-0.085103
C85	C	1.106680	-0.001600	0.177802
H86	H	1.064777	-0.064546	0.143145
H87	H	1.160430	-0.018991	0.143116
H88	H	1.094814	0.078725	0.143090
C89	C	1.225763	0.177415	0.660737
H90	H	1.217639	0.165232	0.763042
H91	H	1.216265	0.261276	0.635560
H92	H	1.281875	0.163549	0.635628
C93	C	0.845258	0.023035	-0.000083
H94	H	0.902253	0.004476	-0.000092
H95	H	0.817547	-0.012126	-0.085016
H96	H	0.817568	-0.012132	0.084891
C97	C	1.225784	0.177345	0.338729
H98	H	1.259562	0.228101	0.406325
H99	H	1.195340	0.229726	0.278875
H100	H	1.260952	0.132005	0.278949
C101	C	0.760690	-0.521240	0.660992
H102	H	0.726922	-0.572000	0.593384
H103	H	0.725525	-0.475915	0.720782
H104	H	0.791137	-0.573637	0.720834
H105	H	0.879795	-0.342284	0.778114
H106	H	0.536545	-0.283549	0.221748
