data_functionalizedCrystal
_audit_creation_method	'MofGen! by Chris Wilmer'
_symmetry_space_group_name_H-M	'P1'
_symmetry_Int_Tables_number	1
_symmetry_cell_setting	triclinic
loop_
_symmetry_equiv_pos_as_xyz
  x,y,z
_cell_length_a	8.559649
_cell_length_b	7.088929
_cell_length_c	16.109301
_cell_angle_alpha	83.776684
_cell_angle_beta	103.379927
_cell_angle_gamma	84.674985
loop_
_atom_site_label
_atom_site_type_symbol
_atom_site_fract_x
_atom_site_fract_y
_atom_site_fract_z
O1	O	2.103738	0.158955	0.018614
O2	O	1.638511	0.158969	-0.024326
O3	O	1.883907	0.158942	0.118990
O4	O	1.858342	0.158982	-0.124702
O5	O	1.916701	-0.159037	0.138182
O6	O	1.671305	-0.159010	-0.005134
O7	O	2.136533	-0.159023	0.037805
Cu8	Cu	1.906914	-0.188051	0.018088
Cu9	Cu	1.868130	0.187996	-0.004608
O10	O	1.891137	-0.158997	-0.105511
C11	C	1.595376	-0.000019	-0.017984
C12	C	1.417991	-0.000015	-0.027670
N13	N	1.934204	-0.452542	0.034052
C14	C	2.179667	-0.000031	0.031463
C15	C	2.357051	-0.000023	0.041149
C16	C	1.899269	-0.000048	0.159495
C17	C	1.896165	-0.000051	0.251593
N18	N	1.840853	0.452487	-0.020565
C19	C	1.875774	-0.000002	-0.146016
C20	C	1.878877	0.000013	-0.238115
C21	C	2.034556	-0.000024	0.482680
C22	C	2.031625	-0.000009	0.569213
C23	C	1.740474	-0.000008	0.530790
C24	C	1.743405	-0.000010	0.444258
C25	C	1.890452	-0.000028	0.420207
C26	C	1.884590	-0.000010	0.593271
C27	C	1.881411	0.000007	0.687094
C28	C	1.893631	-0.000041	0.326378
H29	H	1.744106	-0.465856	-0.077165
H30	H	2.030969	-0.534208	0.090650
H31	H	2.148969	-0.000002	0.620077
H32	H	1.440583	-0.000025	0.107477
H33	H	1.334448	0.000006	-0.094005
H34	H	2.154290	-0.000035	0.463101
H35	H	1.620754	0.000003	0.550384
F36	F	1.590020	0.000000	0.377763
