data_functionalizedCrystal
_audit_creation_method	'MofGen! by Chris Wilmer'
_symmetry_space_group_name_H-M	'P1'
_symmetry_Int_Tables_number	1
_symmetry_cell_setting	triclinic
loop_
_symmetry_equiv_pos_as_xyz
  x,y,z
_cell_length_a	18.215407
_cell_length_b	8.497374
_cell_length_c	18.215405
_cell_angle_alpha	89.985971
_cell_angle_beta	90.024806
_cell_angle_gamma	89.995535
loop_
_atom_site_label
_atom_site_type_symbol
_atom_site_fract_x
_atom_site_fract_y
_atom_site_fract_z
Zn1	Zn	-1.124955	0.892010	0.293113
Zn2	Zn	-1.124898	0.628187	0.416149
Zn3	Zn	-1.001922	0.628225	0.293101
Zn4	Zn	-1.001853	0.891906	0.416143
O5	O	-1.063407	0.760082	0.354627
O6	O	-1.227931	0.857041	0.309442
O7	O	-1.108590	0.407430	0.399824
O8	O	-1.018295	0.663276	0.190118
O9	O	-1.227890	0.663212	0.399836
O10	O	-1.108687	0.857078	0.190127
O11	O	-1.018240	0.407458	0.309421
O12	O	-0.898929	0.663175	0.309415
O13	O	-1.018178	1.112682	0.399825
O14	O	-0.898878	0.856900	0.399813
O15	O	-1.108620	1.112759	0.309436
O16	O	-1.108523	0.663111	0.519133
O17	O	-1.018123	0.856864	0.519128
C18	C	-0.872201	0.760031	0.354612
C19	C	-0.790402	0.760047	0.354624
C20	C	-0.602201	0.860788	0.401766
C21	C	-0.525342	0.860806	0.401768
C22	C	-0.525365	0.659382	0.307491
C23	C	-0.602222	0.659374	0.307486
C24	C	-0.640638	0.760074	0.354628
C25	C	-0.486922	0.760100	0.354634
C26	C	-0.403589	0.760119	0.354636
C27	C	-0.723977	0.760059	0.354626
C28	C	-0.255360	0.760127	0.354639
C29	C	-0.337159	0.760128	0.354639
C30	C	-1.063401	1.171562	0.354628
C31	C	-1.063403	1.350207	0.354635
C32	C	-1.063329	0.760006	0.545833
C33	C	-1.063363	0.760027	0.627632
C34	C	-1.063505	0.760193	0.162674
C35	C	-1.063547	0.760240	0.080875
C36	C	-1.110545	0.659325	0.815804
C37	C	-1.110578	0.659363	0.892662
C38	C	-1.016363	0.860953	0.892697
C39	C	-1.016334	0.860921	0.815840
C40	C	-1.063424	0.760099	0.777395
C41	C	-1.063486	0.760168	0.931111
C42	C	-1.063521	0.760210	1.014445
C43	C	-1.063390	0.760058	0.694056
H44	H	-0.633519	0.577361	0.269096
H45	H	-0.494077	0.577393	0.269111
Br46	Br	-0.473179	0.997502	0.465741
Br47	Br	-1.174535	0.522602	0.944786
Br48	Br	-1.174453	0.522496	0.763631
H49	H	-0.977962	0.942991	0.784566
H50	H	-0.633477	0.942789	0.440150
H51	H	-0.978023	0.943037	0.924008
