data_functionalizedCrystal
_audit_creation_method	'MofGen! by Chris Wilmer'
_symmetry_space_group_name_H-M	'P1'
_symmetry_Int_Tables_number	1
_symmetry_cell_setting	triclinic
loop_
_symmetry_equiv_pos_as_xyz
  x,y,z
_cell_length_a	12.759401
_cell_length_b	16.625546
_cell_length_c	12.759393
_cell_angle_alpha	89.964881
_cell_angle_beta	89.980324
_cell_angle_gamma	90.022895
loop_
_atom_site_label
_atom_site_type_symbol
_atom_site_fract_x
_atom_site_fract_y
_atom_site_fract_z
Zn1	Zn	1.606210	-0.320953	-0.593951
Zn2	Zn	1.939543	0.012380	-0.260618
Zn3	Zn	2.272876	0.345713	0.072716
Zn4	Zn	1.606077	-0.455808	-0.418257
Zn5	Zn	1.939410	-0.122474	-0.084924
Zn6	Zn	2.272744	0.210859	0.248410
Zn7	Zn	1.430508	-0.320994	-0.418290
Zn8	Zn	1.763842	0.012340	-0.084957
Zn9	Zn	2.097175	0.345673	0.248377
Zn10	Zn	1.430476	-0.455749	-0.593898
Zn11	Zn	1.763810	-0.122415	-0.260565
Zn12	Zn	2.097143	0.210918	0.072769
O13	O	1.518318	-0.388376	-0.506099
O14	O	1.851651	-0.055043	-0.172766
O15	O	2.184984	0.278291	0.160568
O16	O	1.753213	-0.338850	-0.570653
O17	O	2.086546	-0.005517	-0.237320
O18	O	2.419880	0.327817	0.096014
O19	O	1.582745	-0.437966	-0.271240
O20	O	1.916079	-0.104633	0.062093
O21	O	2.249412	0.228701	0.395427
O22	O	1.453884	-0.208156	-0.441628
O23	O	1.787218	0.125177	-0.108294
O24	O	2.120551	0.458511	0.225039
O25	O	1.753116	-0.437927	-0.441571
O26	O	2.086449	-0.104593	-0.108238
O27	O	2.419782	0.228740	0.225095
O28	O	1.582971	-0.208126	-0.570685
O29	O	1.916305	0.125207	-0.237352
O30	O	2.249638	0.458540	0.095981
O31	O	1.453756	-0.338919	-0.271264
O32	O	1.787089	-0.005585	0.062069
O33	O	2.120422	0.327748	0.395402
O34	O	1.283483	-0.338862	-0.441576
O35	O	1.616816	-0.005528	-0.108243
O36	O	1.950150	0.327805	0.225090
O37	O	1.453830	-0.437826	-0.740926
O38	O	1.787163	-0.104493	-0.407593
O39	O	2.120497	0.228840	-0.074259
O40	O	1.283460	-0.437865	-0.570595
O41	O	1.616793	-0.104532	-0.237262
O42	O	1.950126	0.228801	0.096072
O43	O	1.582940	-0.338793	-0.740965
O44	O	1.916274	-0.005459	-0.407632
O45	O	2.249607	0.327874	-0.074298
O46	O	1.582714	-0.568632	-0.441520
O47	O	1.916048	-0.235299	-0.108187
O48	O	2.249381	0.098034	0.225147
O49	O	1.453701	-0.568589	-0.570563
O50	O	1.787035	-0.235256	-0.237229
O51	O	2.120368	0.098078	0.096104
C52	C	1.245350	-0.388362	-0.506084
C53	C	1.578684	-0.055029	-0.172751
C54	C	1.912017	0.278305	0.160583
C55	C	1.128574	-0.388376	-0.506103
C56	C	1.461907	-0.055042	-0.172769
C57	C	1.795240	0.278291	0.160564
C58	C	1.073763	-0.336879	-0.573419
C59	C	1.407097	-0.003546	-0.240086
C60	C	1.740430	0.329787	0.093248
C61	C	0.964039	-0.336888	-0.573426
C62	C	1.297373	-0.003554	-0.240093
C63	C	1.630706	0.329779	0.093241
C64	C	0.963946	-0.439895	-0.438797
C65	C	1.297279	-0.106562	-0.105464
C66	C	1.630613	0.226772	0.227869
C67	C	1.073668	-0.439882	-0.438786
C68	C	1.407001	-0.106549	-0.105452
C69	C	1.740335	0.226785	0.227881
C70	C	1.518218	-0.597867	-0.506055
C71	C	1.851552	-0.264533	-0.172722
C72	C	2.184885	0.068800	0.160612
C73	C	1.518272	-0.687488	-0.506071
C74	C	1.851605	-0.354155	-0.172738
C75	C	2.184939	-0.020821	0.160595
C76	C	1.518455	-1.015663	-0.506181
C77	C	1.851789	-0.682330	-0.172847
C78	C	2.185122	-0.348997	0.160486
C79	C	1.518401	-0.924355	-0.506153
C80	C	1.851734	-0.591022	-0.172820
C81	C	2.185068	-0.257688	0.160513
C82	C	1.518363	-0.851579	-0.506125
C83	C	1.851696	-0.518245	-0.172792
C84	C	2.185029	-0.184912	0.160541
C85	C	1.518310	-0.760264	-0.506099
C86	C	1.851643	-0.426931	-0.172766
C87	C	2.184977	-0.093598	0.160568
C88	C	1.792351	-0.388390	-0.506114
C89	C	2.125684	-0.055057	-0.172781
C90	C	2.459018	0.278276	0.160552
C91	C	1.909128	-0.388397	-0.506121
C92	C	2.242461	-0.055063	-0.172788
C93	C	2.575794	0.278270	0.160546
C94	C	1.518396	-0.388299	-0.780132
C95	C	1.851730	-0.054965	-0.446799
C96	C	2.185063	0.278368	-0.113466
C97	C	1.518430	-0.388266	-0.896909
C98	C	1.851763	-0.054932	-0.563576
C99	C	2.185097	0.278401	-0.230243
C100	C	1.518446	-0.178067	-0.506166
C101	C	1.851780	0.155266	-0.172833
C102	C	2.185113	0.488600	0.160501
C103	C	1.518501	-0.088446	-0.506195
C104	C	1.851834	0.244887	-0.172861
C105	C	2.185168	0.578221	0.160472
C106	C	1.585663	-0.336691	-0.951793
C107	C	1.918996	-0.003357	-0.618460
C108	C	2.252329	0.329976	-0.285126
C109	C	1.585681	-0.336656	-1.061517
C110	C	1.919014	-0.003322	-0.728184
C111	C	2.252347	0.330011	-0.394851
C112	C	1.451230	-0.439778	-1.061464
C113	C	1.784563	-0.106445	-0.728131
C114	C	2.117896	0.226889	-0.394797
C115	C	1.451208	-0.439808	-0.951742
C116	C	1.784541	-0.106475	-0.618408
C117	C	2.117874	0.226859	-0.285075
C118	C	1.518300	-0.388395	-0.233132
C119	C	1.851633	-0.055062	0.100202
C120	C	2.184967	0.278272	0.433535
C121	C	1.518470	-0.388201	-0.116355
C122	C	1.851803	-0.054867	0.216978
C123	C	2.185137	0.278466	0.550311
H124	H	1.118296	-0.481817	-0.383963
H125	H	1.451629	-0.148484	-0.050630
H126	H	1.784963	0.184849	0.282704
Br127	Br	0.889424	-0.509795	-0.347445
Br128	Br	1.222758	-0.176461	-0.014111
Br129	Br	1.556091	0.156872	0.319222
H130	H	1.640397	-0.294719	-0.907152
H131	H	1.973730	0.038614	-0.573818
H132	H	2.307063	0.371948	-0.240485
H133	H	1.396502	-0.481744	-1.106122
H134	H	1.729835	-0.148410	-0.772789
H135	H	2.063169	0.184923	-0.439455
H136	H	1.396451	-0.481806	-0.907054
H137	H	1.729784	-0.148473	-0.573721
H138	H	2.063118	0.184861	-0.240387
Br139	Br	1.676937	-0.266664	-1.135999
Br140	Br	2.010270	0.066669	-0.802666
Br141	Br	2.343603	0.400003	-0.469332
H142	H	1.118464	-0.294937	-0.628230
H143	H	1.451798	0.038396	-0.294896
H144	H	1.785131	0.371730	0.038437
Br145	Br	0.889657	-0.266994	-0.664784
Br146	Br	1.222990	0.066340	-0.331451
Br147	Br	1.556324	0.399673	0.001882
