data_functionalizedCrystal
_audit_creation_method	'MofGen! by Chris Wilmer'
_symmetry_space_group_name_H-M	'P1'
_symmetry_Int_Tables_number	1
_symmetry_cell_setting	triclinic
loop_
_symmetry_equiv_pos_as_xyz
  x,y,z
_cell_length_a	12.827893
_cell_length_b	16.625546
_cell_length_c	12.827885
_cell_angle_alpha	90.035124
_cell_angle_beta	90.019272
_cell_angle_gamma	90.022439
loop_
_atom_site_label
_atom_site_type_symbol
_atom_site_fract_x
_atom_site_fract_y
_atom_site_fract_z
Zn1	Zn	1.597618	-0.320963	0.590810
Zn2	Zn	1.597491	-0.455817	0.416054
Zn3	Zn	1.422860	-0.321002	0.416084
Zn4	Zn	1.422823	-0.455757	0.590754
O5	O	1.510198	-0.388385	0.503425
O6	O	1.743837	-0.338861	0.567639
O7	O	1.574287	-0.437976	0.269822
O8	O	1.446110	-0.208165	0.439297
O9	O	1.743744	-0.437937	0.439247
O10	O	1.574505	-0.208136	0.567668
O11	O	1.445987	-0.338928	0.269843
O12	O	1.276619	-0.338869	0.439243
O13	O	1.446048	-0.437835	0.736997
O14	O	1.276592	-0.437873	0.567572
O15	O	1.574469	-0.338802	0.737039
O16	O	1.574252	-0.568642	0.439192
O17	O	1.445925	-0.568598	0.567544
C18	C	1.238688	-0.388370	0.503405
C19	C	1.122535	-0.388382	0.503422
C20	C	1.070765	-0.437449	0.566825
C21	C	0.950714	-0.437464	0.566844
C22	C	1.510099	-0.597876	0.503382
C23	C	1.510152	-0.687497	0.503398
C24	C	1.510335	-1.015673	0.503507
C25	C	1.510281	-0.924364	0.503479
C26	C	1.510243	-0.851588	0.503452
C27	C	1.510190	-0.760274	0.503425
C28	C	1.782768	-0.388401	0.503446
C29	C	1.898921	-0.388408	0.503455
C30	C	1.510269	-0.388308	0.775996
C31	C	1.510299	-0.388275	0.892149
C32	C	1.510326	-0.178076	0.503492
C33	C	1.510380	-0.088455	0.503521
C34	C	1.510187	-0.388404	0.231915
C35	C	1.510359	-0.388210	0.115763
C36	C	1.573853	-0.339261	0.943954
C37	C	1.573886	-0.339225	1.064004
H38	H	1.115319	-0.479444	0.621098
H39	H	1.455906	-0.430206	0.936673
O40	O	1.638650	-0.289073	1.117190
C41	C	1.579145	-0.237032	1.180357
H42	H	1.496863	-0.232037	1.147397
H43	H	1.616974	-0.174982	1.181722
H44	H	1.575481	-0.261995	1.263030
O45	O	0.897448	-0.487506	0.631572
C46	C	0.789443	-0.476389	0.617168
H47	H	0.774643	-0.414125	0.583075
H48	H	0.747924	-0.481906	0.695399
H49	H	0.758427	-0.524148	0.561384
O50	O	1.638886	-0.289267	0.890964
C51	C	1.743060	-0.306884	0.917541
H52	H	1.745299	-0.337803	0.996804
H53	H	1.789960	-0.248692	0.921187
H54	H	1.778160	-0.348400	0.856122
O55	O	1.445300	-0.438242	1.062748
C56	C	1.341137	-0.420616	1.089318
H57	H	1.338935	-0.389647	1.168598
H58	H	1.294247	-0.478810	1.092927
H59	H	1.306000	-0.379142	1.027916
O60	O	1.069433	-0.338166	0.438787
C61	C	1.096077	-0.257801	0.461758
H62	H	1.126196	-0.253775	0.545217
H63	H	1.024253	-0.218022	0.452925
H64	H	1.159323	-0.236621	0.405707
H65	H	0.943436	-0.346401	0.449166
