data_functionalizedCrystal
_audit_creation_method	'MofGen! by Chris Wilmer'
_symmetry_space_group_name_H-M	'P1'
_symmetry_Int_Tables_number	1
_symmetry_cell_setting	triclinic
loop_
_symmetry_equiv_pos_as_xyz
  x,y,z
_cell_length_a	14.395555
_cell_length_b	14.395555
_cell_length_c	18.760492
_cell_angle_alpha	59.997022
_cell_angle_beta	90.000498
_cell_angle_gamma	60.001260
loop_
_atom_site_label
_atom_site_type_symbol
_atom_site_fract_x
_atom_site_fract_y
_atom_site_fract_z
Zr1	Zr	0.894946	1.016755	-0.093519
O2	O	0.746622	1.210562	-0.207345
O3	O	0.940411	0.822956	-0.058623
O4	O	0.940418	1.016758	-0.207335
O5	O	0.746614	1.016756	0.058671
O6	O	1.093292	1.016751	-0.207329
O7	O	0.746615	1.016761	-0.058634
O8	O	1.093279	0.670075	0.058689
O9	O	0.746627	1.363432	-0.207347
O10	O	1.073894	0.902660	-0.043738
O11	O	0.959805	0.902662	0.043800
O12	O	0.959813	1.130839	-0.131289
O13	O	0.845724	1.130840	-0.043750
Zr14	Zr	1.138760	1.016737	0.093578
Zr15	Zr	1.138762	1.016744	-0.093509
Zr16	Zr	0.894944	1.016748	0.093568
Zr17	Zr	0.894953	1.260564	-0.093522
Zr18	Zr	1.138753	0.772928	0.093581
O19	O	1.093295	1.210536	0.058683
O20	O	1.093298	1.210547	-0.207331
O21	O	0.746620	1.210552	0.058669
O22	O	1.287084	0.822930	0.207405
O23	O	1.287086	0.822940	-0.058609
O24	O	0.940408	0.822945	0.207391
O25	O	1.287092	1.016736	-0.058612
O26	O	1.093288	1.016734	0.207395
O27	O	0.940414	1.016741	0.207388
O28	O	1.287091	1.016731	0.058693
O29	O	0.940428	1.363423	-0.207339
O30	O	1.093278	0.670069	0.207399
O31	O	1.287079	0.670060	0.207406
O32	O	1.287081	0.670066	0.058697
O33	O	0.746625	1.363426	-0.058638
O34	O	0.940427	1.363417	-0.058630
O35	O	1.073893	0.902653	0.131348
O36	O	1.187982	0.902652	0.043810
O37	O	1.073901	1.130830	-0.043741
O38	O	0.959812	1.130832	0.043798
C39	C	1.016844	0.711778	0.000033
C40	C	1.016841	0.608274	0.000034
C41	C	0.711876	1.016760	0.000017
C42	C	0.608369	1.016764	0.000013
C43	C	0.485579	1.141177	-0.047716
C44	C	0.454741	1.078985	-0.082304
C45	C	0.454783	1.078951	0.034594
C46	C	0.578896	0.954572	-0.034623
C47	C	0.578934	0.954556	0.082321
C48	C	0.548170	0.892273	0.047753
C49	C	0.954638	0.547683	0.047767
C50	C	0.909556	0.561945	-0.034554
C51	C	1.061895	0.409617	0.082330
C52	C	0.971696	0.623962	-0.082335
C53	C	1.124095	0.471572	0.034608
C54	C	1.079040	0.485880	-0.047761
C55	C	1.321830	1.016732	0.000042
C56	C	1.425337	1.016728	0.000046
C57	C	1.016855	1.016755	-0.233988
C58	C	1.016856	1.016758	-0.313411
C59	C	1.016862	1.321714	0.000026
C60	C	1.016865	1.425218	0.000025
C61	C	1.101075	1.016732	-0.649218
C62	C	0.932628	1.016739	-0.649213
C63	C	0.932627	1.016746	-0.574595
C64	C	1.016852	1.016744	-0.537284
C65	C	1.101078	1.016735	-0.574591
C66	C	0.848408	1.016742	-0.537277
C67	C	0.848404	1.016748	-0.462653
C68	C	0.932625	1.016756	-0.425344
C69	C	1.016854	1.016748	-0.462657
C70	C	1.101079	1.016746	-0.425346
C71	C	1.185305	1.016747	-0.462661
C72	C	1.185300	1.016742	-0.537283
C73	C	0.932631	1.016760	-0.350722
C74	C	1.101082	1.016749	-0.350719
C75	C	1.016851	1.016737	0.234047
C76	C	1.016850	1.016734	0.313471
C77	C	1.321821	0.711764	0.000046
C78	C	1.425325	0.608256	0.000051
C79	C	1.016842	0.711769	0.234051
C80	C	1.016838	0.608262	0.313475
C81	C	1.321819	0.711755	0.234063
C82	C	1.425322	0.608244	0.313492
C83	C	0.711887	1.321737	-0.234004
C84	C	0.608384	1.425248	-0.313433
C85	C	0.711885	1.321728	0.000014
C86	C	0.608381	1.425236	0.000008
C87	C	1.016864	1.321723	-0.233991
C88	C	1.016868	1.425230	-0.313416
C89	C	1.076389	0.559650	0.396481
C90	C	1.076381	0.462408	0.471116
C91	C	1.016828	0.413774	0.462744
C92	C	0.957270	0.462395	0.379729
C93	C	0.957272	0.559642	0.305096
C94	C	1.533491	0.559633	0.305099
C95	C	1.630752	0.462387	0.379723
C96	C	1.619842	0.413746	0.462741
C97	C	1.511661	0.462367	0.471133
C98	C	1.414402	0.559618	0.396509
C99	C	0.500215	1.473871	-0.305039
C100	C	0.402954	1.571148	-0.379664
C101	C	0.413864	1.619793	-0.462681
C102	C	0.522045	1.571166	-0.471073
C103	C	0.619304	1.473898	-0.396449
C104	C	1.076432	1.473834	-0.305016
C105	C	1.076458	1.571076	-0.379636
C106	C	1.016912	1.619720	-0.462657
C107	C	0.957346	1.571107	-0.471055
C108	C	0.957328	1.473859	-0.396435
C109	C	1.548117	0.547692	0.047763
C110	C	1.578974	0.409582	0.082338
C111	C	1.578885	0.561991	-0.034562
C112	C	1.454818	0.471445	0.034674
C113	C	1.454733	0.623928	-0.082272
C114	C	1.485516	0.485827	-0.047718
H115	H	0.460138	1.246380	-0.088140
H116	H	1.124962	1.610647	-0.372781
N117	N	0.649563	0.884972	-0.073453
H118	H	0.719482	0.885450	-0.073250
H119	H	0.603068	0.931641	-0.135418
N120	N	1.451488	0.450112	-0.101228
H121	H	1.405433	0.415190	-0.075021
H122	H	1.522034	0.380577	-0.101399
N123	N	1.148716	0.450163	-0.101301
H124	H	1.229378	0.416718	-0.075745
H125	H	1.114471	0.530428	-0.163423
N126	N	1.383814	0.745349	-0.174428
H127	H	1.429827	0.780407	-0.200501
H128	H	1.313565	0.814425	-0.173682
H129	H	1.542397	0.599221	0.237508
N130	N	0.488437	1.421422	-0.215503
H131	H	0.526118	1.323798	-0.182500
H132	H	0.405128	1.467092	-0.221592
H133	H	1.502794	0.422749	0.538735
N134	N	0.286283	1.623580	-0.370602
H135	H	0.294138	1.577988	-0.306686
H136	H	0.243329	1.606669	-0.399579
N137	N	1.244196	0.422351	0.073382
H138	H	1.263875	0.480371	0.028502
H139	H	1.298623	0.329233	0.091530
N140	N	1.112391	0.288273	0.174530
H141	H	1.065337	0.310849	0.210534
H142	H	1.192939	0.254337	0.200924
N143	N	1.191921	1.016758	-0.310482
H144	H	1.245271	1.016760	-0.345446
H145	H	1.236094	0.935755	-0.248440
H146	H	0.334661	1.698994	-0.523438
N147	N	0.735969	1.421436	-0.405512
H148	H	0.795937	1.352429	-0.345647
H149	H	0.744987	1.495704	-0.438515
H150	H	1.016836	0.334589	0.523522
N151	N	0.892971	0.612137	0.215570
H152	H	0.855227	0.566586	0.221600
H153	H	0.947594	0.595251	0.182571
N154	N	1.016924	1.724624	-0.543134
H155	H	0.970163	1.748075	-0.597006
H156	H	1.097616	1.690693	-0.543077
H157	H	0.401279	1.131555	0.063827
H158	H	0.573824	0.786984	0.088121
H159	H	0.908784	0.422783	0.372925
N160	N	0.649827	0.884981	0.174478
H161	H	0.673100	0.791480	0.210834
H162	H	0.603732	0.932184	0.200460
H163	H	1.718829	0.422810	0.372875
N164	N	1.649898	0.288184	0.174508
H165	H	1.719409	0.218390	0.173742
H166	H	1.603316	0.254225	0.200950
H167	H	1.699045	0.334558	0.523497
N168	N	0.533805	1.623639	-0.560615
H169	H	0.455772	1.692629	-0.606608
H170	H	0.576795	1.549371	-0.567533
H171	H	1.253874	1.016742	-0.567668
N172	N	0.884878	0.583742	0.101162
H173	H	0.803863	0.618800	0.074929
H174	H	0.886040	0.653265	0.101234
H175	H	1.326329	0.599184	0.403355
H176	H	1.401479	0.434029	0.063993
H177	H	1.124921	1.434243	-0.237423
H178	H	0.908866	1.610728	-0.538660
H179	H	0.779839	1.016734	-0.567654
N180	N	0.893078	1.421444	-0.405502
H181	H	0.855361	1.467025	-0.469420
H182	H	0.833197	1.438382	-0.376542
N183	N	0.789428	0.611198	-0.073303
H184	H	0.742491	0.633633	-0.037203
H185	H	0.790497	0.540669	-0.073541
N186	N	1.649611	0.611478	-0.073326
H187	H	1.727808	0.552528	-0.028852
H188	H	1.611519	0.703952	-0.090323
H189	H	1.573559	0.574761	0.088194
N190	N	0.921107	0.745244	-0.174575
H191	H	0.921382	0.814890	-0.174000
H192	H	0.840354	0.779519	-0.200742
N193	N	1.276140	1.016740	-0.422401
H194	H	1.272469	1.097738	-0.466458
H195	H	1.353413	0.935685	-0.404299
N196	N	0.383860	1.148624	-0.174485
H197	H	0.359363	1.242611	-0.210507
H198	H	0.314397	1.147249	-0.173666
N199	N	1.191908	1.016741	-0.689466
H200	H	1.236161	0.935743	-0.689350
H201	H	1.245185	1.016790	-0.654480
N202	N	0.841798	1.016724	-0.689445
H203	H	0.854579	1.016716	-0.742378
H204	H	0.764519	1.097730	-0.707487
H205	H	0.779823	1.016749	-0.432276
H206	H	0.864060	1.016750	-0.320341
N207	N	1.140621	0.612092	0.405533
H208	H	1.086003	0.709719	0.376600
H209	H	1.200560	0.595070	0.376631
N210	N	1.140625	0.409974	0.560645
H211	H	1.178359	0.455534	0.554617
H212	H	1.200491	0.312344	0.593606
