data_functionalizedCrystal
_audit_creation_method	'MofGen! by Chris Wilmer'
_symmetry_space_group_name_H-M	'P1'
_symmetry_Int_Tables_number	1
_symmetry_cell_setting	triclinic
loop_
_symmetry_equiv_pos_as_xyz
  x,y,z
_cell_length_a	14.853558
_cell_length_b	12.503572
_cell_length_c	14.853567
_cell_angle_alpha	93.532015
_cell_angle_beta	96.366968
_cell_angle_gamma	93.522596
loop_
_atom_site_label
_atom_site_type_symbol
_atom_site_fract_x
_atom_site_fract_y
_atom_site_fract_z
O1	O	1.201561	0.089299	-0.112456
O2	O	0.939101	0.089302	-0.126486
O3	O	1.077342	0.089304	0.011759
O4	O	1.063320	0.089297	-0.250702
O5	O	1.066945	-0.089338	0.001345
O6	O	0.928704	-0.089340	-0.136900
O7	O	1.191164	-0.089343	-0.122871
Cu8	Cu	1.058985	-0.105653	-0.130836
Cu9	Cu	1.071280	0.105612	-0.118520
O10	O	1.052923	-0.089345	-0.261116
C11	C	0.900313	-0.000018	-0.131059
C12	C	0.800229	-0.000016	-0.129159
C13	C	0.758877	0.097366	-0.122590
C14	C	0.747540	-0.097397	-0.133933
C15	C	0.653506	-0.097398	-0.132143
C16	C	0.612154	-0.000016	-0.125575
C17	C	0.664835	0.097367	-0.120797
C18	C	0.600820	-0.194780	-0.136912
C19	C	0.506780	-0.194786	-0.135120
C20	C	0.465425	-0.097403	-0.128558
C21	C	0.518112	-0.000015	-0.123781
C22	C	0.476759	0.097367	-0.117213
C23	C	0.529443	0.194755	-0.112443
C24	C	0.623479	0.194750	-0.114235
C25	C	0.371389	-0.097397	-0.126766
C26	C	0.382717	0.097368	-0.115420
N27	N	1.050344	-0.254245	-0.139498
C28	C	1.037632	-0.473361	-0.152248
C29	C	1.092637	-0.526687	-0.097105
C30	C	1.085564	-0.648611	-0.104199
C31	C	1.044704	-0.351426	-0.145155
C32	C	1.229952	-0.000021	-0.118298
C33	C	1.330036	-0.000016	-0.120198
C34	C	1.071508	-0.000014	0.040141
C35	C	1.069605	-0.000005	0.140225
N36	N	1.079928	0.254204	-0.109852
C37	C	1.058757	-0.000024	-0.289497
C38	C	1.060661	-0.000027	-0.389581
C39	C	0.979438	-0.000024	0.552755
C40	C	1.143671	-0.000026	0.574041
C41	C	1.145462	-0.000020	0.480008
C42	C	1.064239	-0.000017	0.422343
C43	C	0.981226	-0.000021	0.458712
C44	C	1.228473	-0.000027	0.443631
C45	C	1.230266	-0.000022	0.349592
C46	C	1.149043	-0.000012	0.291926
C47	C	1.066027	-0.000014	0.328301
C48	C	0.984804	-0.000012	0.270636
C49	C	0.901787	-0.000006	0.307009
C50	C	0.900002	-0.000011	0.401046
C51	C	1.150828	-0.000008	0.197889
C52	C	0.986592	-0.000008	0.176594
H53	H	0.495762	0.274044	-0.107090
Br54	Br	0.694985	0.326908	-0.107750
H55	H	0.328496	-0.176690	-0.130659
Br56	Br	0.791560	-0.000016	0.228739
Br57	Br	1.180360	-0.450170	-0.009921
Br58	Br	1.263482	-0.000040	0.148527
H59	H	0.985234	-0.519269	-0.204781
H60	H	0.801776	0.176657	-0.118710
Br61	Br	0.435287	-0.326952	-0.141605
H62	H	0.920449	-0.000002	0.129649
H63	H	0.832414	-0.000007	0.430670
Br64	Br	0.866778	-0.000002	0.602115
Br65	Br	1.253895	-0.000053	0.652298
Br66	Br	1.338695	-0.000060	0.521890
Br67	Br	1.342930	-0.000013	0.300237
H68	H	0.781217	-0.176680	-0.139274
Br69	Br	0.326601	0.229537	-0.106516
H70	H	0.634498	-0.274063	-0.142251
