data_functionalizedCrystal
_audit_creation_method	'MofGen! by Chris Wilmer'
_symmetry_space_group_name_H-M	'P1'
_symmetry_Int_Tables_number	1
_symmetry_cell_setting	triclinic
loop_
_symmetry_equiv_pos_as_xyz
  x,y,z
_cell_length_a	11.792254
_cell_length_b	7.088670
_cell_length_c	8.559649
_cell_angle_alpha	82.338650
_cell_angle_beta	76.988631
_cell_angle_gamma	83.068835
loop_
_atom_site_label
_atom_site_type_symbol
_atom_site_fract_x
_atom_site_fract_y
_atom_site_fract_z
O1	O	1.495980	-0.158983	0.233652
O2	O	1.163578	-0.158986	0.256185
O3	O	1.359064	-0.158983	0.012572
O4	O	1.300494	-0.158987	0.477265
O5	O	1.340807	0.159007	-0.016872
O6	O	1.145322	0.159003	0.226741
O7	O	1.477723	0.159006	0.204208
Cu8	Cu	1.309855	0.188040	0.212786
Cu9	Cu	1.331446	-0.188020	0.247607
O10	O	1.282238	0.159003	0.447821
C11	C	1.112289	0.000008	0.240044
C12	C	0.986665	0.000006	0.235795
N13	N	1.294678	0.452540	0.188294
C14	C	1.354374	0.000009	-0.061641
C15	C	1.367587	-0.000002	-0.238905
C16	C	0.884645	-0.000002	0.232344
C17	C	0.756654	-0.000003	0.228028
C18	C	1.529013	0.000008	0.220350
C19	C	1.654637	-0.000003	0.224599
N20	N	1.346624	0.547480	0.272096
C21	C	1.286927	0.000007	0.522034
C22	C	1.273716	0.000005	0.699299
H23	H	1.240872	0.534231	0.101455
H24	H	1.400441	0.465780	0.358932
N25	N	1.487437	0.000008	-0.348468
H26	H	1.537972	-0.117873	-0.316586
H27	H	1.524335	0.117963	-0.338355
H28	H	1.183241	0.000010	-0.217994
