data_functionalizedCrystal
_audit_creation_method	'MofGen! by Chris Wilmer'
_symmetry_space_group_name_H-M	'P1'
_symmetry_Int_Tables_number	1
_symmetry_cell_setting	triclinic
loop_
_symmetry_equiv_pos_as_xyz
  x,y,z
_cell_length_a	13.635800
_cell_length_b	14.766442
_cell_length_c	17.982934
_cell_angle_alpha	75.018882
_cell_angle_beta	77.548529
_cell_angle_gamma	45.443921
loop_
_atom_site_label
_atom_site_type_symbol
_atom_site_fract_x
_atom_site_fract_y
_atom_site_fract_z
V1	V	2.178644	-0.396785	0.105416
O2	O	2.233257	-0.388689	-0.005062
O3	O	2.091717	-0.394592	0.209019
O4	O	2.254603	-0.569598	0.103796
O5	O	2.069243	-0.212472	0.100889
V6	V	2.415607	-0.374676	0.092201
O7	O	2.319798	-0.445282	0.134403
O8	O	2.499552	-0.326179	0.063214
O9	O	2.390931	-0.376868	-0.011401
O10	O	2.419692	-0.382771	0.202679
O11	O	2.583707	-0.558989	0.096729
O12	O	2.228044	-0.201862	0.093821
C13	C	1.995717	-0.388467	0.234275
C14	C	1.965955	-0.387826	0.318971
C15	C	1.871464	-0.271075	0.347867
C16	C	1.843502	-0.270456	0.427447
C17	C	1.910024	-0.386588	0.478129
C18	C	2.004526	-0.503349	0.449228
C19	C	2.032495	-0.503967	0.369650
C20	C	2.203494	-0.611703	0.100052
C21	C	2.305826	-0.752983	0.099413
C22	C	2.490902	-0.765990	0.107027
C23	C	2.631511	-0.838867	0.110537
C24	C	2.727654	-0.971610	0.109935
C25	C	2.683182	-1.031479	0.105822
C26	C	2.542573	-0.958603	0.102313
C27	C	2.446437	-0.825858	0.102917
C28	C	2.357500	-0.945594	0.094694
C29	C	2.261353	-0.812852	0.095300
C30	C	2.313027	-1.005463	0.090581
C31	C	2.172416	-0.932588	0.087077
C32	C	2.076270	-0.799837	0.087679
C33	C	2.120745	-0.739975	0.091791
V34	V	2.678644	-0.396785	0.105416
O35	O	2.733257	-0.388689	-0.005062
O36	O	2.591717	-0.394592	0.209019
O37	O	2.754603	-0.569598	0.103796
O38	O	2.569243	-0.212472	0.100889
V39	V	2.915607	-0.374676	0.092201
O40	O	2.819798	-0.445282	0.134403
O41	O	2.999552	-0.326179	0.063214
O42	O	2.890931	-0.376868	-0.011401
O43	O	2.919692	-0.382771	0.202679
O44	O	3.083707	-0.558989	0.096729
O45	O	2.728044	-0.201862	0.093821
C46	C	2.318597	-0.382990	-0.036653
C47	C	2.337983	-0.383639	-0.121348
C48	C	2.610819	-0.159751	0.097568
C49	C	2.498108	-0.018470	0.098203
C50	C	2.432032	-0.377579	-0.165020
C51	C	2.450225	-0.378168	-0.244602
C52	C	2.374374	-0.384826	-0.280510
C53	C	2.280313	-0.390883	-0.236834
C54	C	2.262115	-0.390285	-0.157254
C55	C	2.353702	-0.393294	-0.557770
C56	C	2.371911	-0.393896	-0.637356
C57	C	2.541812	-0.381177	-0.645118
C58	C	2.523614	-0.380579	-0.565538
C59	C	2.429550	-0.386629	-0.521869
C60	C	2.409823	-0.385988	-0.435578
C61	C	2.394107	-0.385477	-0.366800
C62	C	2.495717	-0.388467	0.234275
C63	C	2.465955	-0.387826	0.318971
C64	C	2.110819	-0.159751	0.097568
C65	C	1.998108	-0.018470	0.098203
C66	C	2.703494	-0.611703	0.100052
C67	C	2.805826	-0.752983	0.099413
C68	C	2.818597	-0.382990	-0.036653
C69	C	2.837983	-0.383639	-0.121348
C70	C	2.932036	-0.377574	-0.165007
C71	C	2.950248	-0.378163	-0.244590
C72	C	2.874413	-0.384826	-0.280512
C73	C	2.780349	-0.390887	-0.236848
C74	C	2.762131	-0.390289	-0.157267
C75	C	1.999935	0.018540	-0.041343
C76	C	1.947896	0.103417	-0.110816
C77	C	1.841998	0.236162	-0.110217
C78	C	1.788139	0.284031	-0.040138
C79	C	1.840178	0.199154	0.029335
C80	C	1.946076	0.066408	0.028728
C81	C	1.838358	0.162145	0.168879
C82	C	1.944250	0.029399	0.168282
C83	C	1.784500	0.210014	0.238958
C84	C	1.836532	0.125136	0.308433
C85	C	1.942435	-0.007616	0.307831
C86	C	1.996289	-0.055478	0.237755
H87	H	1.887238	-0.386066	0.542925
C88	C	2.732891	-0.397488	-0.355407
C89	C	2.697012	-0.398230	-0.276339
H90	H	2.681454	-0.402038	-0.379785
H91	H	2.713032	-0.320479	-0.376994
H92	H	2.828519	-0.469461	-0.363062
H93	H	2.601385	-0.326252	-0.268684
H94	H	2.716861	-0.475248	-0.254745
H95	H	2.685551	-0.395239	-0.121725
H96	H	1.698278	0.318104	0.239441
C97	C	1.830021	-0.078790	0.308471
C98	C	1.798352	-0.143415	0.292164
H99	H	1.784894	0.000021	0.274081
H100	H	1.799840	-0.061723	0.359996
H101	H	1.926811	-0.130835	0.302382
H102	H	1.701563	-0.091374	0.298259
H103	H	1.828526	-0.160478	0.240627
C104	C	1.673397	0.312194	0.371311
C105	C	1.777329	0.177756	0.385457
H106	H	1.636841	0.344678	0.418864
H107	H	1.710702	0.345680	0.340312
H108	H	1.602152	0.337395	0.345172
H109	H	1.848579	0.152554	0.411590
H110	H	1.740025	0.144258	0.416467
C111	C	1.980467	-0.184481	0.391709
C112	C	1.999637	-0.100911	0.384198
H113	H	2.015787	-0.242078	0.438854
H114	H	1.884930	-0.136072	0.391482
H115	H	2.027705	-0.231987	0.349888
H116	H	1.952390	-0.053398	0.426016
H117	H	2.095192	-0.149326	0.384431
H118	H	2.058684	-0.597900	0.490505
H119	H	1.961784	-0.740503	0.084804
H120	H	2.493808	-0.372164	-0.135788
H121	H	1.701923	0.392121	-0.039657
C122	C	2.319764	-0.509801	-0.453512
C123	C	2.250320	-0.399953	-0.509770
H124	H	2.255933	-0.513905	-0.423873
H125	H	2.388110	-0.584251	-0.477758
H126	H	2.362326	-0.505732	-0.420743
H127	H	2.207766	-0.404027	-0.542542
H128	H	2.181949	-0.325485	-0.485522
C129	C	2.232778	-0.397464	-0.355374
C130	C	2.196938	-0.398208	-0.276302
H131	H	2.181312	-0.401998	-0.379736
H132	H	2.212930	-0.320461	-0.376969
H133	H	2.328400	-0.469444	-0.363042
H134	H	2.101318	-0.326222	-0.268635
H135	H	2.216777	-0.475219	-0.254701
C136	C	2.227494	-0.249590	0.271291
C137	C	2.112694	-0.201392	0.237095
H138	H	2.299356	-0.339673	0.270885
H139	H	2.258133	-0.208579	0.243219
H140	H	2.202851	-0.233223	0.322967
H141	H	2.137335	-0.217752	0.185417
H142	H	2.082051	-0.242418	0.265166
H143	H	2.526812	-0.373238	-0.280155
H144	H	1.766547	-0.175372	0.450966
C145	C	2.152623	-0.151468	-0.118181
C146	C	2.116338	-0.127375	-0.042004
H147	H	2.224493	-0.241550	-0.118588
H148	H	2.074736	-0.118758	-0.141369
H149	H	2.183270	-0.110449	-0.146245
H150	H	2.085681	-0.168385	-0.013941
H151	H	2.194241	-0.160099	-0.018805
C152	C	2.993037	-0.378771	-0.398715
C153	C	2.894458	-0.385494	-0.367988
H154	H	3.005422	-0.379193	-0.452718
H155	H	2.962547	-0.301795	-0.389104
H156	H	3.078006	-0.450779	-0.375168
H157	H	2.809485	-0.313480	-0.391531
H158	H	2.924943	-0.462478	-0.377606
C159	C	2.228175	-0.506796	-0.052989
C160	C	2.158734	-0.396947	-0.109246
H161	H	2.164343	-0.510898	-0.023350
H162	H	2.296519	-0.581246	-0.077235
H163	H	2.270740	-0.502730	-0.020220
H164	H	2.116177	-0.401018	-0.142018
H165	H	2.090365	-0.322479	-0.084998
C166	C	2.062075	0.100189	-0.233532
C167	C	2.007109	0.050791	-0.187843
H168	H	2.098639	0.067694	-0.281083
H169	H	1.991560	0.191382	-0.243117
H170	H	2.133321	0.074973	-0.207386
H171	H	1.935856	0.076016	-0.213988
H172	H	2.077631	-0.040421	-0.178260
H173	H	2.042471	-0.631891	0.092286
H174	H	1.799632	0.305270	-0.166788
H175	H	2.109434	-0.599043	0.346130
C176	C	2.577708	-0.259726	-0.557922
C177	C	2.606986	-0.373249	-0.526072
H178	H	2.629172	-0.255194	-0.533555
H179	H	2.602010	-0.259227	-0.611559
H180	H	2.482085	-0.187763	-0.550238
H181	H	2.702608	-0.445213	-0.533761
H182	H	2.582694	-0.373759	-0.472422
C183	C	2.312837	-0.554837	0.040029
C184	C	2.385220	-0.620079	0.107697
H185	H	2.247590	-0.464758	0.040447
H186	H	2.375576	-0.575423	-0.003328
H187	H	2.266236	-0.580070	0.037082
H188	H	2.431830	-0.594853	0.110641
H189	H	2.322472	-0.599484	0.151065
C190	C	2.620718	-0.714585	0.181440
C191	C	2.680391	-0.773059	0.115061
H192	H	2.650906	-0.673969	0.184232
H193	H	2.523232	-0.652190	0.179430
H194	H	2.647570	-0.777950	0.225675
H195	H	2.653531	-0.709692	0.070825
H196	H	2.777899	-0.835460	0.117064
H197	H	2.842146	-1.030946	0.112792
C198	C	2.780568	-1.200632	0.037077
C199	C	2.788867	-1.177390	0.105152
H200	H	2.845820	-1.290712	0.036662
H201	H	2.690474	-1.165809	0.034410
H202	H	2.799805	-1.161153	-0.006008
H203	H	2.769620	-1.216862	0.148238
H204	H	2.878982	-1.212229	0.107826
H205	H	2.136222	-0.981342	0.083723
C206	C	2.511192	-1.181719	0.026002
C207	C	2.418710	-1.151377	0.089921
H208	H	2.576438	-1.271803	0.025601
H209	H	2.462087	-1.137462	-0.019898
H210	H	2.557790	-1.156487	0.028960
H211	H	2.372105	-1.176600	0.086960
H212	H	2.467821	-1.195649	0.135832
H213	H	2.310137	-0.399317	-0.666590
C214	C	2.777339	-0.480325	-0.665983
C215	C	2.645197	-0.374507	-0.693123
H216	H	2.841162	-0.476209	-0.695620
H217	H	2.777347	-0.479012	-0.613455
H218	H	2.803132	-0.557518	-0.670479
H219	H	2.619400	-0.297313	-0.688620
H220	H	2.645185	-0.375808	-0.745663
H221	H	2.993797	-0.372150	-0.135770
H222	H	3.026846	-0.373228	-0.280131
