data_functionalizedCrystal
_audit_creation_method	'MofGen! by Chris Wilmer'
_symmetry_space_group_name_H-M	'P1'
_symmetry_Int_Tables_number	1
_symmetry_cell_setting	triclinic
loop_
_symmetry_equiv_pos_as_xyz
  x,y,z
_cell_length_a	6.817900
_cell_length_b	24.998341
_cell_length_c	17.982968
_cell_angle_alpha	85.612413
_cell_angle_beta	77.548040
_cell_angle_gamma	105.263689
loop_
_atom_site_label
_atom_site_type_symbol
_atom_site_fract_x
_atom_site_fract_y
_atom_site_fract_z
V1	V	-4.023033	-0.077091	0.236180
O2	O	-4.002495	0.003171	0.233083
O3	O	-3.982386	-0.152345	0.233220
O4	O	-3.969442	-0.076139	0.339800
O5	O	-4.015529	-0.073563	0.125765
V6	V	-4.506328	-0.067463	0.223137
O7	O	-4.284789	-0.098210	0.264792
O8	O	-4.694769	-0.046343	0.194526
O9	O	-4.323768	0.007791	0.226097
O10	O	-4.644263	-0.147725	0.226235
O11	O	-4.631229	-0.070991	0.333553
O12	O	-4.336713	-0.068415	0.119517
C13	C	-3.829442	-0.170683	0.229147
C14	C	-3.877461	-0.232206	0.227418
C15	C	-4.082232	-0.263937	0.230355
C16	C	-4.127342	-0.321744	0.228735
C17	C	-3.967674	-0.347820	0.224171
C18	C	-3.762887	-0.316085	0.221236
C19	C	-3.717783	-0.258279	0.222862
C20	C	-3.944782	-0.549210	0.214679
C21	C	-3.989902	-0.607020	0.213051
C22	C	-4.354341	-0.612675	0.220552
C23	C	-4.309237	-0.554869	0.222178
C24	C	-4.104457	-0.523140	0.219247
C25	C	-4.055547	-0.460459	0.221005
C26	C	-4.016579	-0.410499	0.222407
C27	C	-3.812928	-0.073474	0.365100
C28	C	-3.850447	-0.073194	0.449801
C29	C	-4.070003	0.088803	0.231945
C30	C	-4.140058	0.026124	0.230174
V31	V	-4.215872	0.190780	0.227855
O32	O	-4.164096	0.272452	0.222896
O33	O	-4.206833	0.112390	0.229049
O34	O	-4.193240	0.188575	0.335657
O35	O	-4.177784	0.195739	0.115551
V36	V	-4.660441	0.216150	0.193914
O37	O	-4.476657	0.177015	0.246697
O38	O	-4.820591	0.244181	0.156133
O39	O	-4.460782	0.287468	0.202110
O40	O	-4.821983	0.138198	0.193934
O41	O	-4.808296	0.214911	0.301280
O42	O	-4.474376	0.211282	0.095502
C43	C	-4.156569	-0.071081	0.094214
C44	C	-4.098288	-0.071359	0.009512
C45	C	-4.282854	0.300384	0.213377
C46	C	-4.194679	0.361248	0.215994
C47	C	-4.052645	0.185986	0.367930
C48	C	-4.110380	0.186250	0.452645
C49	C	-4.050279	-0.075836	0.493426
C50	C	-4.085519	-0.075572	0.573011
C51	C	-3.920929	-0.072671	0.608971
C52	C	-3.721078	-0.070027	0.565340
C53	C	-3.685837	-0.070287	0.485755
C54	C	-3.863198	-0.068979	0.886296
C55	C	-3.898457	-0.068721	0.965886
C56	C	-4.262880	-0.074264	0.973551
C57	C	-4.227639	-0.074524	0.893967
C58	C	-4.027790	-0.071877	0.850342
C59	C	-3.989580	-0.072162	0.764047
C60	C	-3.959140	-0.072390	0.695266
C61	C	-4.300194	0.203202	0.077387
C62	C	-4.223046	0.202283	-0.006454
C63	C	-4.309996	0.189256	0.488760
C64	C	-4.364261	0.189513	0.568357
C65	C	-4.218913	0.186760	0.611836
C66	C	-4.019277	0.183755	0.575715
C67	C	-3.965010	0.183502	0.496119
C68	C	-4.027627	0.193493	-0.034582
C69	C	-3.955103	0.192634	-0.113359
C70	C	-4.078010	0.200560	-0.164007
C71	C	-4.273444	0.209352	-0.135876
C72	C	-4.345957	0.210215	-0.057100
H73	H	-4.521088	-0.638516	0.222940
H74	H	-3.795968	0.185474	-0.136251
H75	H	-3.927520	0.187039	0.006647
C76	C	-4.583862	0.192812	0.608080
H77	H	-4.595377	0.192575	0.661711
H78	H	-4.687226	0.161516	0.599901
H79	H	-4.604442	0.226390	0.587140
H80	H	-3.900948	0.181513	0.611128
H81	H	-4.248237	-0.077720	0.608527
C82	C	-4.408629	0.218064	-0.191594
H83	H	-4.337447	0.216282	-0.242534
H84	H	-4.432903	0.253679	-0.189169
H85	H	-4.538936	0.189591	-0.177458
C86	C	-3.745439	0.180186	0.456402
H87	H	-3.666671	0.178577	0.493703
H88	H	-3.675668	0.212400	0.419123
H89	H	-3.758519	0.147526	0.431891
C90	C	-4.560939	0.219875	-0.026167
H91	H	-4.623746	0.224464	-0.067617
H92	H	-4.542852	0.252598	-0.001751
H93	H	-4.648871	0.188511	0.009940
C94	C	-3.540032	-0.066837	0.604894
H95	H	-3.589643	-0.067067	0.658541
H96	H	-3.430664	-0.033303	0.583895
H97	H	-3.488118	-0.098185	0.596657
C98	C	-4.484874	-0.526190	0.227201
H99	H	-4.613298	-0.553368	0.228726
H100	H	-4.450776	-0.498602	0.183449
H101	H	-4.498934	-0.508914	0.272542
H102	H	-4.018877	0.199893	-0.228157
H103	H	-4.184316	-0.078202	0.464154
H104	H	-4.212255	-0.242710	0.234064
H105	H	-4.294084	-0.347577	0.231128
H106	H	-3.764414	-0.066357	0.995162
C107	C	-3.814262	-0.635702	0.208039
H108	H	-3.685846	-0.608528	0.206534
H109	H	-3.800186	-0.652981	0.162704
H110	H	-3.848395	-0.663289	0.251799
H111	H	-3.523103	-0.068122	0.450234
H112	H	-4.428375	0.191497	0.453369
H113	H	-3.778042	-0.523382	0.212287
C114	C	-3.587254	-0.344766	0.216215
H115	H	-3.643437	-0.383737	0.215659
H116	H	-3.529070	-0.339285	0.259483
H117	H	-3.480907	-0.328974	0.170390
H118	H	-3.551041	-0.232445	0.220473
H119	H	-4.361672	-0.076889	0.864693
C120	C	-4.482707	-0.077167	1.021539
H121	H	-4.480128	-0.076591	1.074086
H122	H	-4.580519	-0.110788	1.016456
H123	H	-4.523073	-0.045906	1.003684
C124	C	-3.643384	-0.066075	0.838320
H125	H	-3.550421	-0.064317	0.871138
H126	H	-3.593328	-0.033623	0.800731
H127	H	-3.650787	-0.098504	0.813500
H128	H	-4.263128	0.186965	0.676648
