data_functionalizedCrystal
_audit_creation_method	'MofGen! by Chris Wilmer'
_symmetry_space_group_name_H-M	'P1'
_symmetry_Int_Tables_number	1
_symmetry_cell_setting	triclinic
loop_
_symmetry_equiv_pos_as_xyz
  x,y,z
_cell_length_a	10.967926
_cell_length_b	12.837942
_cell_length_c	10.065875
_cell_angle_alpha	99.723749
_cell_angle_beta	93.120479
_cell_angle_gamma	89.656601
loop_
_atom_site_label
_atom_site_type_symbol
_atom_site_fract_x
_atom_site_fract_y
_atom_site_fract_z
O1	O	1.633692	0.181573	0.270742
O2	O	1.283989	0.184546	0.188491
O3	O	1.451085	0.031857	0.227801
O4	O	1.466596	0.334261	0.231432
O5	O	1.419236	0.061095	0.447297
O6	O	1.252140	0.213784	0.407987
O7	O	1.601843	0.210810	0.490238
Zn8	Zn	1.421935	0.216939	0.483962
Zn9	Zn	1.463897	0.178417	0.194767
O10	O	1.434747	0.363499	0.450928
C11	C	1.222993	0.196739	0.287638
C12	C	1.088693	0.189499	0.256051
C13	C	1.012319	0.201418	0.355674
C14	C	0.873513	0.193935	0.323029
C15	C	1.429922	0.007653	0.336316
C16	C	1.414297	-0.108029	0.332638
C17	C	1.602145	-0.341725	0.376792
C18	C	1.587470	-0.450418	0.373338
C19	C	1.370273	-0.434113	0.322267
C20	C	1.384948	-0.325420	0.325721
C21	C	1.500888	-0.279229	0.352987
C22	C	1.515561	-0.170532	0.356450
C23	C	1.298366	-0.154230	0.305370
C24	C	1.283691	-0.262924	0.301916
C25	C	1.662840	0.198617	0.391088
C26	C	1.797141	0.205855	0.422666
N27	N	1.393305	0.243229	0.681333
C28	C	1.455911	0.387703	0.342410
C29	C	1.471537	0.503383	0.346079
N30	N	1.492535	0.152119	-0.002602
C31	C	1.453928	0.187557	0.763373
C32	C	1.431904	0.207799	0.915359
H33	H	1.049695	0.217155	0.465132
O34	O	1.341572	0.290813	0.971341
H35	H	1.249663	0.270601	0.922413
H36	H	1.560741	0.089462	0.955123
H37	H	1.669925	-0.501300	0.392719
O38	O	1.640608	-0.120714	0.385853
H39	H	1.633804	-0.034630	0.384269
O40	O	1.302959	0.326223	0.737319
H41	H	1.299847	0.329104	0.847912
O42	O	1.245229	-0.483939	0.292871
H43	H	1.252041	-0.570019	0.294479
H44	H	1.696546	-0.304114	0.399006
O45	O	0.824021	0.173055	0.178028
H46	H	0.901081	0.165447	0.110017
H47	H	1.522130	0.124904	0.721093
H48	H	1.189297	-0.300548	0.279712
O49	O	1.189141	-0.086827	0.279686
H50	H	1.218820	-0.003485	0.286660
H51	H	0.834509	0.221596	0.532133
H52	H	1.051318	0.173753	0.146593
