data_functionalizedCrystal
_audit_creation_method	'MofGen! by Chris Wilmer'
_symmetry_space_group_name_H-M	'P1'
_symmetry_Int_Tables_number	1
_symmetry_cell_setting	triclinic
loop_
_symmetry_equiv_pos_as_xyz
  x,y,z
_cell_length_a	10.723024
_cell_length_b	15.500227
_cell_length_c	10.723024
_cell_angle_alpha	92.856340
_cell_angle_beta	95.532131
_cell_angle_gamma	92.871156
loop_
_atom_site_label
_atom_site_type_symbol
_atom_site_fract_x
_atom_site_fract_y
_atom_site_fract_z
O1	O	1.662943	0.071936	-0.169284
O2	O	1.299791	0.071939	-0.186037
O3	O	1.489743	0.071934	0.003915
O4	O	1.472991	0.071941	-0.359237
O5	O	1.478216	-0.071954	-0.007566
O6	O	1.288264	-0.071950	-0.197519
O7	O	1.651416	-0.071952	-0.180765
Cu8	Cu	1.468787	-0.085089	-0.190190
Cu9	Cu	1.482420	0.085076	-0.176612
O10	O	1.461464	-0.071948	-0.370718
C11	C	1.247528	-0.000005	-0.190559
C12	C	1.108974	-0.000004	-0.186911
N13	N	1.459208	-0.204774	-0.199740
C14	C	1.033991	-0.000001	-0.293198
C15	C	0.890788	-0.000000	-0.289431
C16	C	1.539726	-0.250052	-0.119280
C17	C	1.532493	-0.340625	-0.126514
C18	C	1.444748	-0.385917	-0.214214
C19	C	1.364221	-0.340632	-0.294676
C20	C	1.371449	-0.250061	-0.287436
C21	C	1.418710	-0.659384	-0.240276
C22	C	1.411491	-0.749961	-0.247513
C23	C	1.579762	-0.749947	-0.079348
C24	C	1.586987	-0.659375	-0.072120
C25	C	1.506456	-0.614098	-0.152578
C26	C	1.437355	-0.478497	-0.221612
C27	C	1.513844	-0.521519	-0.145173
C28	C	1.703679	-0.000006	-0.176244
C29	C	1.842234	-0.000002	-0.179891
C30	C	1.482761	-0.000009	0.044674
C31	C	1.479113	-0.000006	0.183229
N32	N	1.492008	0.204760	-0.167053
C33	C	1.468446	-0.000003	-0.411477
C34	C	1.472094	0.000000	-0.550031
C35	C	1.585401	-0.000005	0.258211
C36	C	1.581634	-0.000002	0.401415
H37	H	1.075813	-0.000005	-0.386985
C38	C	1.621075	-0.390428	-0.038020
H39	H	1.674381	-0.350482	0.015234
H40	H	1.572938	-0.425774	0.011522
H41	H	1.670581	-0.425744	-0.086228
C42	C	0.929255	-0.000000	-0.056957
H43	H	0.880216	0.000006	0.012255
H44	H	0.976602	-0.050175	-0.057637
H45	H	0.984629	0.050186	-0.049638
H46	H	0.826356	0.000005	-0.380421
H47	H	1.611183	-0.213181	-0.047871
H48	H	1.067153	0.000017	-0.093123
H49	H	1.658437	-0.622499	-0.000708
C50	C	1.668326	-0.799753	0.009159
H51	H	1.651450	-0.860181	-0.007702
H52	H	1.752910	-0.784897	-0.003961
H53	H	1.655235	-0.784918	0.093758
H54	H	1.679186	-0.000011	0.216389
C55	C	1.314899	-0.799781	-0.343920
H56	H	1.267946	-0.759845	-0.390775
H57	H	1.357345	-0.835123	-0.399131
H58	H	1.259784	-0.835103	-0.301299
H59	H	1.353140	-0.622526	-0.305791
H60	H	1.305881	-0.213196	-0.352953
H61	H	1.385328	0.000001	0.225051
C62	C	1.704560	0.000003	0.488449
H63	H	1.685902	0.000012	0.573280
H64	H	1.747793	-0.050172	0.468890
H65	H	1.755817	0.050189	0.476886
C66	C	1.349160	-0.000001	0.362948
H67	H	1.279948	-0.000005	0.411987
H68	H	1.349860	0.050173	0.315583
H69	H	1.341821	-0.050187	0.307592
C70	C	1.267705	-0.390452	-0.391146
H71	H	1.274940	-0.450878	-0.383946
H72	H	1.185490	-0.375625	-0.375650
H73	H	1.283161	-0.375595	-0.473372
H74	H	1.585282	-0.484640	-0.073763
H75	H	1.365913	-0.515382	-0.293021
