data_functionalizedCrystal
_audit_creation_method	'MofGen! by Chris Wilmer'
_symmetry_space_group_name_H-M	'P1'
_symmetry_Int_Tables_number	1
_symmetry_cell_setting	triclinic
loop_
_symmetry_equiv_pos_as_xyz
  x,y,z
_cell_length_a	12.837943
_cell_length_b	12.837942
_cell_length_c	15.186229
_cell_angle_alpha	89.996774
_cell_angle_beta	89.997745
_cell_angle_gamma	94.828940
loop_
_atom_site_label
_atom_site_type_symbol
_atom_site_fract_x
_atom_site_fract_y
_atom_site_fract_z
O1	O	1.402334	0.272139	-0.073212
O2	O	1.099201	0.258696	-0.073217
O3	O	1.244046	0.113850	-0.073209
O4	O	1.257489	0.416984	-0.073220
O5	O	1.244035	0.113847	0.073248
O6	O	1.099190	0.258692	0.073240
O7	O	1.402323	0.272136	0.073245
Zn8	Zn	1.250755	0.265413	0.096496
Zn9	Zn	1.250769	0.265418	-0.096468
O10	O	1.257478	0.416981	0.073237
C11	C	1.060126	0.254153	0.000011
C12	C	0.943711	0.240608	0.000009
C13	C	0.718837	0.403437	0.000016
C14	C	0.609454	0.390716	0.000015
C15	C	0.615562	0.202445	0.000012
C16	C	0.724944	0.215166	0.000013
C17	C	0.776578	0.315666	0.000014
C18	C	0.885962	0.328386	0.000008
C19	C	0.892067	0.140116	0.000012
C20	C	0.782685	0.127395	0.000011
C21	C	1.239499	0.074780	0.000019
C22	C	1.225954	-0.041635	0.000017
C23	C	1.388784	-0.266510	0.000001
C24	C	1.376062	-0.375892	-0.000000
C25	C	1.187791	-0.369785	0.000006
C26	C	1.200513	-0.260402	0.000007
C27	C	1.301012	-0.208769	0.000007
C28	C	1.313732	-0.099384	0.000015
C29	C	1.125462	-0.093279	0.000014
C30	C	1.112741	-0.202661	0.000012
C31	C	1.441398	0.276679	0.000015
C32	C	1.557813	0.290223	0.000011
C33	C	1.262025	0.456052	0.000007
C34	C	1.275569	0.572467	0.000003
N35	N	1.250752	0.265410	0.228188
N36	N	1.250779	0.265413	-0.228161
C37	C	1.314916	0.201299	0.453915
C38	C	1.314919	0.201297	0.546105
C39	C	1.186608	0.329527	0.546107
C40	C	1.186600	0.329523	0.453919
C41	C	1.250760	0.265411	0.407825
C42	C	1.250771	0.265413	0.592203
C43	C	1.250774	0.265411	0.692159
C44	C	1.250756	0.265411	0.307863
H45	H	0.939092	0.068646	0.000004
H46	H	1.134371	0.381727	0.583645
H47	H	0.928000	0.410218	0.000010
Cl48	Cl	1.395571	0.120697	0.395973
Cl49	Cl	1.105935	0.410121	0.395971
Cl50	Cl	1.515122	-0.201595	0.000022
Cl51	Cl	1.440073	-0.034474	0.000019
H52	H	0.573502	0.120623	0.000084
Cl53	Cl	1.061460	-0.434714	-0.000019
Cl54	Cl	0.717764	0.001059	0.000012
Cl55	Cl	1.395574	0.120694	0.604043
Cl56	Cl	1.486409	-0.448478	-0.000009
Cl57	Cl	0.783751	0.529775	0.000004
Cl58	Cl	0.986406	-0.267582	0.000006
H59	H	0.562446	0.462189	0.000019
Cl60	Cl	1.015114	-0.020684	0.000032
