data_functionalizedCrystal
_audit_creation_method	'MofGen! by Chris Wilmer'
_symmetry_space_group_name_H-M	'P1'
_symmetry_Int_Tables_number	1
_symmetry_cell_setting	triclinic
loop_
_symmetry_equiv_pos_as_xyz
  x,y,z
_cell_length_a	10.489716
_cell_length_b	16.992695
_cell_length_c	15.455313
_cell_angle_alpha	92.847427
_cell_angle_beta	87.292090
_cell_angle_gamma	87.598679
loop_
_atom_site_label
_atom_site_type_symbol
_atom_site_fract_x
_atom_site_fract_y
_atom_site_fract_z
O1	O	1.708937	0.107196	-0.072125
O2	O	2.208937	0.607196	0.427875
O3	O	1.338643	0.117606	-0.072128
O4	O	1.838643	0.617606	0.427872
O5	O	1.522305	-0.001750	-0.072120
O6	O	2.022305	0.498250	0.427880
O7	O	1.525275	0.226552	-0.072133
O8	O	2.025275	0.726552	0.427867
O9	O	1.511800	0.005047	0.072142
O10	O	2.011800	0.505047	0.572142
O11	O	1.328138	0.124403	0.072133
O12	O	1.828138	0.624403	0.572133
O13	O	1.698432	0.113993	0.072137
O14	O	2.198432	0.613993	0.572137
Cu15	Cu	1.512326	0.119818	0.085307
Cu16	Cu	2.012326	0.619818	0.585307
Cu17	Cu	1.524750	0.111780	-0.085299
Cu18	Cu	2.024750	0.611780	0.414701
O19	O	1.514770	0.233349	0.072128
O20	O	2.014770	0.733349	0.572128
C21	C	1.285790	0.120222	0.000002
C22	C	1.785790	0.620222	0.500002
C23	C	1.143956	0.117882	0.000001
C24	C	1.643956	0.617882	0.500001
C25	C	1.513233	-0.027585	0.000011
C26	C	2.013233	0.472415	0.500011
C27	C	1.501838	-0.114693	0.000011
C28	C	2.001838	0.385307	0.500011
C29	C	1.611788	-0.164319	0.000013
C30	C	2.111788	0.335681	0.500013
C31	C	1.601074	-0.246165	0.000004
C32	C	2.101074	0.253835	0.500004
C33	C	1.480408	-0.278385	0.000000
C34	C	1.980408	0.221615	0.500000
C35	C	1.370450	-0.228753	-0.000004
C36	C	1.870450	0.271247	0.499996
C37	C	1.381166	-0.146908	-0.000002
C38	C	1.881166	0.353092	0.499998
C39	C	1.435996	-0.522232	-0.000012
C40	C	1.935996	-0.022232	0.499988
C41	C	1.425288	-0.604083	-0.000012
C42	C	1.925288	-0.104083	0.499988
C43	C	1.655913	-0.621490	-0.000005
C44	C	2.155913	-0.121490	0.499995
C45	C	1.666618	-0.539642	0.000003
C46	C	2.166618	-0.039642	0.500003
C47	C	1.556660	-0.490018	-0.000006
C48	C	2.056660	0.009982	0.499994
N49	N	1.469453	-0.362045	-0.000006
N50	N	1.969453	0.137955	0.499994
N51	N	1.567616	-0.406359	-0.000007
N52	N	2.067616	0.093641	0.499993
C53	C	1.052650	0.191074	-0.000005
C54	C	1.552650	0.691074	0.499995
C55	C	0.966759	0.155750	0.071129
C56	C	1.466759	0.655750	0.571129
C57	C	0.977122	0.149031	-0.071101
C58	C	1.477122	0.649031	0.428899
C59	C	1.059929	0.082590	0.071195
C60	C	1.559929	0.582590	0.571195
C61	C	1.070303	0.075880	-0.071100
C62	C	1.570303	0.575880	0.428900
C63	C	0.984455	0.040502	0.000052
C64	C	1.484455	0.540502	0.500052
C65	C	1.751285	0.111377	0.000004
C66	C	2.251285	0.611377	0.500004
C67	C	1.893120	0.113716	-0.000000
C68	C	2.393120	0.613716	0.500000
C69	C	1.523842	0.259184	-0.000004
C70	C	2.023842	0.759184	0.499996
C71	C	1.535238	0.346292	-0.000010
C72	C	2.035238	0.846292	0.499990
N73	N	1.503596	0.125472	0.205302
N74	N	2.003596	0.625472	0.705302
N75	N	1.533488	0.106121	-0.205294
N76	N	2.033488	0.606121	0.294706
C77	C	1.581653	0.074784	0.250700
C78	C	2.081653	0.574784	0.750700
C79	C	1.575064	0.079067	0.341508
C80	C	2.075064	0.579067	0.841508
C81	C	1.490424	0.134041	0.386916
C82	C	1.990424	0.634041	0.886916
C83	C	1.412359	0.184731	0.341512
C84	C	1.912359	0.684731	0.841512
C85	C	1.418942	0.180444	0.250706
C86	C	1.918942	0.680444	0.750706
C87	C	1.462006	0.152524	0.658496
C88	C	1.962006	0.652524	1.158496
C89	C	1.455431	0.156808	0.749308
C90	C	1.955431	0.656808	1.249308
C91	C	1.618136	0.051143	0.749298
C92	C	2.118136	0.551143	1.249298
C93	C	1.624717	0.046864	0.658490
C94	C	2.124717	0.546864	1.158490
C95	C	1.546647	0.097551	0.613094
C96	C	2.046647	0.597551	1.113094
N97	N	1.483690	0.138422	0.479736
N98	N	1.983690	0.638422	0.979736
N99	N	1.553376	0.093166	0.520276
N100	N	2.053376	0.593166	1.020276
H101	H	1.710046	-0.138092	0.000021
H102	H	2.210046	0.361908	0.500021
H103	H	1.693638	0.002100	0.621521
H104	H	2.193638	0.502100	1.121521
H105	H	1.096175	0.054547	0.131393
H106	H	1.596175	0.554547	0.631393
C107	C	0.927946	0.186955	-0.152339
C108	C	1.427946	0.686955	0.347661
H109	H	0.951095	0.240414	-0.152250
H110	H	1.451095	0.740414	0.347750
H111	H	0.837589	0.184749	-0.152040
H112	H	1.337589	0.684749	0.347960
H113	H	0.964844	0.159108	-0.202847
H114	H	1.464844	0.659108	0.297153
H115	H	1.272202	-0.254993	-0.000013
H116	H	1.772202	0.245007	0.499987
H117	H	1.764876	-0.513415	0.000006
H118	H	2.264876	-0.013415	0.500006
H119	H	1.082854	0.254744	0.000057
H120	H	1.582854	0.754744	0.500057
H121	H	1.386503	0.201578	0.786276
H122	H	1.886503	0.701578	1.286276
C123	C	0.943943	-0.045561	0.000112
C124	C	1.443943	0.454439	0.500112
H125	H	0.972412	-0.069056	0.050685
H126	H	1.472412	0.430944	0.550685
H127	H	0.980906	-0.074094	-0.049935
H128	H	1.480906	0.425906	0.450065
H129	H	0.853501	-0.046625	-0.000357
H130	H	1.353501	0.453375	0.499643
H131	H	1.690607	-0.286568	0.000008
H132	H	2.190607	0.213432	0.500008
C133	C	1.333085	0.236200	0.200764
C134	C	1.833085	0.736200	0.700764
H135	H	1.349119	0.225769	0.140181
H136	H	1.849119	0.725769	0.640181
H137	H	1.351195	0.289346	0.215632
H138	H	1.851195	0.789346	0.715632
H139	H	1.245960	0.227869	0.215661
H140	H	1.745960	0.727869	0.715661
H141	H	0.921586	0.189480	0.131264
H142	H	1.421586	0.689480	0.631264
C143	C	1.660923	0.023311	0.391446
C144	C	2.160923	0.523311	0.891446
H145	H	1.644871	0.033729	0.452030
H146	H	2.144871	0.533729	0.952030
H147	H	1.748045	0.031636	0.376553
H148	H	2.248045	0.531636	0.876553
H149	H	1.642801	-0.029836	0.376571
H150	H	2.142801	0.470164	0.876571
H151	H	1.115492	0.042172	-0.131237
H152	H	1.615492	0.542172	0.368763
C153	C	1.376144	0.208284	0.608571
C154	C	1.876144	0.708284	1.108571
H155	H	1.324806	0.241643	0.648623
H156	H	1.824806	0.741643	1.148623
H157	H	1.322706	0.178078	0.573161
H158	H	1.822706	0.678078	1.073161
H159	H	1.427955	0.239547	0.573136
H160	H	1.927955	0.739547	1.073136
C161	C	1.703995	-0.004616	0.799231
C162	C	2.203995	0.495384	1.299231
H163	H	1.755350	-0.037968	0.759182
H164	H	2.255350	0.462032	1.259182
H165	H	1.652190	-0.035875	0.834667
H166	H	2.152190	0.464125	1.334667
H167	H	1.757436	0.025596	0.834641
H168	H	2.257436	0.525596	1.334641
C169	C	1.776855	-0.676077	-0.000007
C170	C	2.276855	-0.176077	0.499993
H171	H	1.753197	-0.729437	-0.000017
H172	H	2.253197	-0.229437	0.499983
H173	H	1.822333	-0.663876	0.050298
H174	H	2.322333	-0.163876	0.550298
H175	H	1.829645	-0.668605	-0.050323
H176	H	2.329645	-0.168605	0.449677
C177	C	1.292551	-0.639524	-0.000031
C178	C	1.792551	-0.139524	0.499969
H179	H	1.228599	-0.598248	-0.000047
H180	H	1.728599	-0.098248	0.499953
H181	H	1.279901	-0.668724	0.050273
H182	H	1.779901	-0.168724	0.550273
H183	H	1.287263	-0.673456	-0.050347
H184	H	1.787263	-0.173456	0.449653
C185	C	1.674757	0.014311	0.200759
C186	C	2.174757	0.514311	0.700759
H187	H	1.720291	-0.015268	0.240805
H188	H	2.220291	0.484732	0.740805
H189	H	1.733327	0.041173	0.165321
H190	H	2.233327	0.541173	0.665321
H191	H	1.628078	-0.020296	0.165351
H192	H	2.128078	0.479704	0.665351
C193	C	1.319259	0.245203	0.391458
C194	C	1.819259	0.745203	0.891458
H195	H	1.326526	0.240503	0.452041
H196	H	1.826526	0.740503	0.952041
H197	H	1.234294	0.235475	0.376593
H198	H	1.734294	0.735475	0.876593
H199	H	1.339542	0.296945	0.376561
H200	H	1.839542	0.796945	0.876561
H201	H	1.346460	-0.481837	-0.000019
H202	H	1.846460	0.018163	0.499981
H203	H	1.291633	-0.106503	-0.000004
H204	H	1.791633	0.393497	0.499996
