data_functionalizedCrystal
_audit_creation_method	'MofGen! by Chris Wilmer'
_symmetry_space_group_name_H-M	'P1'
_symmetry_Int_Tables_number	1
_symmetry_cell_setting	triclinic
loop_
_symmetry_equiv_pos_as_xyz
  x,y,z
_cell_length_a	10.723024
_cell_length_b	17.699083
_cell_length_c	16.176319
_cell_angle_alpha	90.007696
_cell_angle_beta	90.007092
_cell_angle_gamma	83.875442
loop_
_atom_site_label
_atom_site_type_symbol
_atom_site_fract_x
_atom_site_fract_y
_atom_site_fract_z
O1	O	-1.655373	-0.106155	-0.068743
O2	O	-1.155373	0.393845	0.431257
O3	O	-1.292047	-0.116315	-0.068746
O4	O	-0.792047	0.383685	0.431254
O5	O	-1.483975	-0.001110	-0.068737
O6	O	-0.983975	0.498890	0.431263
O7	O	-1.463445	-0.221359	-0.068752
O8	O	-0.963445	0.278641	0.431248
O9	O	-1.483949	-0.001103	0.068756
O10	O	-0.983949	0.498897	0.568756
O11	O	-1.292020	-0.116308	0.068747
O12	O	-0.792020	0.383692	0.568747
O13	O	-1.655347	-0.106147	0.068750
O14	O	-1.155347	0.393853	0.568750
Cu15	Cu	-1.473681	-0.111227	0.081303
Cu16	Cu	-0.973681	0.388773	0.581303
Cu17	Cu	-1.473712	-0.111236	-0.081299
Cu18	Cu	-0.973712	0.388764	0.418701
O19	O	-1.463419	-0.221352	0.068741
O20	O	-0.963419	0.278648	0.568741
C21	C	-1.245547	-0.115572	0.000000
C22	C	-0.745547	0.384428	0.500000
C23	C	-1.107030	-0.113360	-0.000001
C24	C	-0.607030	0.386640	0.499999
C25	C	-1.701847	-0.106890	0.000002
C26	C	-1.201847	0.393110	0.500002
C27	C	-1.840363	-0.109102	-0.000002
C28	C	-1.340363	0.390898	0.499998
C29	C	-1.483226	0.027095	0.000010
C30	C	-0.983226	0.527095	0.500010
C31	C	-1.481019	0.111127	0.000010
C32	C	-0.981019	0.611127	0.500010
C33	C	-1.030942	-0.177822	-0.000006
C34	C	-0.530942	0.322178	0.499994
C35	C	-0.887778	-0.175537	-0.000006
C36	C	-0.387778	0.324463	0.499994
C37	C	-1.464168	-0.249557	-0.000007
C38	C	-0.964168	0.250443	0.499993
C39	C	-1.466374	-0.333589	-0.000013
C40	C	-0.966374	0.166411	0.499987
N41	N	-1.473668	-0.111220	0.195668
N42	N	-0.973668	0.388780	0.695668
C43	C	-1.593677	0.159037	0.000012
C44	C	-1.093677	0.659037	0.500012
C45	C	-1.591596	0.237994	0.000005
C46	C	-1.091596	0.737994	0.500005
C47	C	-1.476856	0.269038	0.000001
C48	C	-0.976856	0.769038	0.500001
C49	C	-1.364189	0.221122	-0.000003
C50	C	-0.864189	0.721122	0.499997
C51	C	-1.366272	0.142167	-0.000002
C52	C	-0.866272	0.642167	0.499998
C53	C	-1.355789	0.539538	-0.000010
C54	C	-0.855789	1.039538	0.499990
C55	C	-1.353715	0.618499	-0.000009
C56	C	-0.853715	1.118499	0.499991
C57	C	-1.581113	0.635365	-0.000004
C58	C	-1.081113	1.135365	0.499996
C59	C	-1.583196	0.556410	-0.000002
C60	C	-1.083196	1.056410	0.499998
C61	C	-1.470530	0.508500	-0.000011
C62	C	-0.970530	1.008500	0.499989
C63	C	-1.472788	0.422887	-0.000005
C64	C	-0.972788	0.922887	0.499995
C65	C	-1.474597	0.354650	0.000001
C66	C	-0.974597	0.854650	0.500001
N67	N	-1.473735	-0.111236	-0.195664
N68	N	-0.973735	0.388764	0.304336
C69	C	-1.558680	-0.060228	0.238936
C70	C	-1.058680	0.439772	0.738936
C71	C	-1.558686	-0.060228	0.325483
C72	C	-1.058686	0.439772	0.825483
C73	C	-1.473686	-0.111223	0.368761
C74	C	-0.973686	0.388777	0.868761
C75	C	-1.388666	-0.162217	0.325487
C76	C	-0.888666	0.337783	0.825487
C77	C	-1.388654	-0.162213	0.238941
C78	C	-0.888654	0.337787	0.738941
C79	C	-1.388708	-0.162231	0.674515
C80	C	-0.888708	0.337769	1.174515
C81	C	-1.388729	-0.162232	0.761066
C82	C	-0.888729	0.337768	1.261066
C83	C	-1.558740	-0.060246	0.761057
C84	C	-1.058740	0.439754	1.261057
C85	C	-1.558729	-0.060242	0.674512
C86	C	-1.058729	0.439758	1.174512
C87	C	-1.473705	-0.111233	0.631245
C88	C	-0.973705	0.388767	1.131245
C89	C	-1.473697	-0.111232	0.537401
C90	C	-0.973697	0.388768	1.037401
C91	C	-1.473699	-0.111228	0.462603
C92	C	-0.973699	0.388772	0.962603
H93	H	-1.071789	-0.234703	-0.000005
H94	H	-0.571789	0.265297	0.499995
Cl95	Cl	-1.043978	-0.025536	0.000011
Cl96	Cl	-0.543978	0.474464	0.500011
H97	H	-1.319428	-0.203735	0.203713
H98	H	-0.819428	0.296265	0.703713
Cl99	Cl	-1.737930	0.120018	0.000025
Cl100	Cl	-1.237930	0.620018	0.500025
H101	H	-1.319507	-0.203760	0.796301
H102	H	-0.819507	0.296240	1.296301
H103	H	-0.905735	-0.053914	-0.000004
H104	H	-0.405735	0.446086	0.499996
Cl105	Cl	-0.786844	-0.260744	-0.000019
Cl106	Cl	-0.286844	0.239256	0.499981
H107	H	-1.627948	-0.018720	0.639278
H108	H	-1.127948	0.481280	1.139278
H109	H	-1.672851	0.674383	-0.000001
H110	H	-1.172851	1.174383	0.499999
H111	H	-1.676629	0.531138	0.000005
H112	H	-1.176629	1.031138	0.500005
Cl113	Cl	-1.281801	-0.226322	0.379891
Cl114	Cl	-0.781801	0.273678	0.879891
Cl115	Cl	-1.733230	0.298221	0.000010
Cl116	Cl	-1.233230	0.798221	0.500010
Cl117	Cl	-1.209459	0.657525	-0.000015
Cl118	Cl	-0.709459	1.157525	0.499985
H119	H	-1.627968	-0.018724	0.796294
H120	H	-1.127968	0.481276	1.296294
H121	H	-1.319481	-0.203751	0.639294
H122	H	-0.819481	0.296249	1.139294
H123	H	-1.270766	0.246404	-0.000012
H124	H	-0.770766	0.746404	0.499988
Cl125	Cl	-1.214151	0.479319	-0.000024
Cl126	Cl	-0.714151	0.979319	0.499976
Cl127	Cl	-1.224639	0.081936	-0.000008
Cl128	Cl	-0.724639	0.581936	0.499992
H129	H	-1.627902	-0.018706	0.203705
H130	H	-1.127902	0.481294	0.703705
H131	H	-1.627908	-0.018706	0.360712
H132	H	-1.127908	0.481294	0.860712
