data_functionalizedCrystal
_audit_creation_method	'MofGen! by Chris Wilmer'
_symmetry_space_group_name_H-M	'P1'
_symmetry_Int_Tables_number	1
_symmetry_cell_setting	triclinic
loop_
_symmetry_equiv_pos_as_xyz
  x,y,z
_cell_length_a	6.817900
_cell_length_b	7.076105
_cell_length_c	19.263245
_cell_angle_alpha	86.462026
_cell_angle_beta	98.567808
_cell_angle_gamma	62.298168
loop_
_atom_site_label
_atom_site_type_symbol
_atom_site_fract_x
_atom_site_fract_y
_atom_site_fract_z
V1	V	4.176074	-0.666007	0.096083
V2	V	4.676074	-0.166007	0.596083
O3	O	4.185293	-0.652293	-0.005747
O4	O	4.685293	-0.152293	0.494253
O5	O	4.102960	-0.662448	0.191602
O6	O	4.602960	-0.162448	0.691602
O7	O	4.203564	-0.956021	0.094109
O8	O	4.703564	-0.456021	0.594109
O9	O	4.083992	-0.356688	0.092421
O10	O	4.583992	0.143312	0.592421
V11	V	4.653070	-0.628889	0.083961
V12	V	5.153070	-0.128889	0.583961
O13	O	4.451648	-0.747428	0.122672
O14	O	4.951648	-0.247428	0.622672
O15	O	4.827693	-0.547467	0.057372
O16	O	5.327693	-0.047467	0.557372
O17	O	4.502977	-0.632448	-0.011558
O18	O	5.002977	-0.132448	0.488442
O19	O	4.761248	-0.642602	0.185791
O20	O	5.261248	-0.142602	0.685791
O21	O	4.862549	-0.938208	0.087623
O22	O	5.362549	-0.438208	0.587623
O23	O	4.402373	-0.338875	0.085935
O24	O	4.902373	0.161125	0.585935
C25	C	4.329784	-0.642692	-0.034856
C26	C	4.829784	-0.142692	0.465144
C27	C	4.287012	-0.643682	-0.112940
C28	C	4.787012	-0.143682	0.387060
C29	C	4.074777	-0.026677	0.090537
C30	C	4.574777	0.473323	0.590537
C31	C	4.201469	-0.268218	0.089518
C32	C	4.701469	0.231782	0.589518
C33	C	4.152287	-0.640050	-0.673896
C34	C	4.652287	-0.140050	-0.173896
C35	C	4.192502	-0.639135	-0.600527
C36	C	4.692502	-0.139135	-0.100527
C37	C	4.041900	-0.649347	-0.560278
C38	C	4.541900	-0.149347	-0.060278
C39	C	3.851098	-0.660532	-0.593400
C40	C	4.351098	-0.160532	-0.093400
C41	C	3.810902	-0.661469	-0.666767
C42	C	4.310902	-0.161469	-0.166767
N43	N	3.910447	-0.533803	-0.448498
N44	N	4.410447	-0.033803	0.051502
N45	N	3.948641	-0.532907	-0.378803
N46	N	4.448641	-0.032907	0.121197
C47	C	4.163002	-0.646529	-0.339227
C48	C	4.663002	-0.146529	0.160773
N49	N	4.337740	-0.761052	-0.371981
N50	N	4.837740	-0.261052	0.128019
N51	N	4.299542	-0.761938	-0.441683
N52	N	4.799542	-0.261938	0.058317
C53	C	4.085468	-0.648334	-0.480723
C54	C	4.585468	-0.148334	0.019277
C55	C	4.397401	-0.634368	-0.226556
C56	C	4.897401	-0.134368	0.273444
C57	C	4.437616	-0.633466	-0.153185
C58	C	4.937616	-0.133466	0.346815
C59	C	4.096195	-0.654842	-0.146061
C60	C	4.596195	-0.154842	0.353939
C61	C	4.055998	-0.655765	-0.219430
C62	C	4.555998	-0.155765	0.280570
C63	C	4.206603	-0.645517	-0.259674
C64	C	4.706603	-0.145517	0.240326
C65	C	3.939493	-0.652198	0.214903
C66	C	4.439493	-0.152198	0.714903
C67	C	3.961507	-0.651222	0.292989
C68	C	4.461507	-0.151222	0.792989
H69	H	4.274934	-0.631720	-0.706658
H70	H	4.774934	-0.131720	-0.206658
H71	H	3.728482	-0.668853	-0.560624
H72	H	4.228482	-0.168853	-0.060624
H73	H	4.347863	-0.630037	-0.573560
H74	H	4.847863	-0.130037	-0.073560
H75	H	3.655544	-0.670568	-0.693728
H76	H	4.155544	-0.170568	-0.193728
H77	H	4.520031	-0.626021	-0.259325
H78	H	5.020031	-0.126021	0.240675
H79	H	4.592983	-0.624383	-0.126224
H80	H	5.092983	-0.124383	0.373776
H81	H	3.973578	-0.663170	-0.113289
H82	H	4.473578	-0.163170	0.386711
H83	H	3.900637	-0.664848	-0.246393
H84	H	4.400637	-0.164848	0.253607
