data_functionalizedCrystal
_audit_creation_method	'MofGen! by Chris Wilmer'
_symmetry_space_group_name_H-M	'P1'
_symmetry_Int_Tables_number	1
_symmetry_cell_setting	triclinic
loop_
_symmetry_equiv_pos_as_xyz
  x,y,z
_cell_length_a	30.700809
_cell_length_b	30.711276
_cell_length_c	30.700862
_cell_angle_alpha	59.998386
_cell_angle_beta	89.999414
_cell_angle_gamma	60.000191
loop_
_atom_site_label
_atom_site_type_symbol
_atom_site_fract_x
_atom_site_fract_y
_atom_site_fract_z
O1	O	-0.371254	-0.311651	0.012944
O2	O	-0.307913	-0.222487	-0.012907
O3	O	-0.307911	-0.311650	0.076286
O4	O	-0.371257	-0.222488	-0.076249
O5	O	-0.235466	-0.384070	0.076286
O6	O	-0.235468	-0.294907	-0.012907
O7	O	-0.298809	-0.384071	0.012944
Zn8	Zn	-0.255636	-0.350987	0.000018
Zn9	Zn	-0.351086	-0.255571	0.000019
O10	O	-0.298812	-0.294908	-0.076249
C11	C	-0.234796	-0.137097	-0.018777
C12	C	-0.261674	-0.083360	-0.015076
C13	C	-0.182374	-0.163176	-0.019143
C14	C	-0.234798	-0.215942	-0.018783
C15	C	-0.261678	-0.246507	-0.015089
C16	C	-0.182376	-0.241901	-0.019150
C17	C	-0.155920	-0.215947	-0.018777
C18	C	-0.098463	-0.246515	-0.015075
C19	C	-0.261132	-0.163172	-0.019150
C20	C	-0.574961	-0.535511	0.039265
C21	C	-0.548506	-0.588283	0.039634
C22	C	-0.496086	-0.535509	0.039262
C23	C	-0.469751	-0.588281	0.039632
C24	C	-0.496085	-0.614360	0.039265
C25	C	-0.548507	-0.509552	0.039632
C26	C	-0.765169	-0.393516	0.024987
C27	C	-0.819034	-0.364488	0.020950
C28	C	-0.846055	-0.389406	0.018925
C29	C	-0.904462	-0.357927	0.014538
C30	C	-0.819206	-0.443357	0.020941
C31	C	-0.765344	-0.472385	0.024984
C32	C	-0.738325	-0.447463	0.027007
C33	C	-0.447920	-0.790230	0.024988
C34	C	-0.423094	-0.840041	0.020951
C35	C	-0.371150	-0.865027	0.018921
C36	C	-0.344230	-0.919028	0.014536
C37	C	-0.344030	-0.840201	0.020935
C38	C	-0.368852	-0.790399	0.024981
C39	C	-0.420803	-0.765414	0.027004
C40	C	-0.447922	-0.393510	0.024977
C41	C	-0.423099	-0.364475	0.020931
C42	C	-0.371152	-0.389391	0.018903
C43	C	-0.344235	-0.357911	0.014513
C44	C	-0.344034	-0.443338	0.020916
C45	C	-0.368860	-0.472368	0.024960
C46	C	-0.420804	-0.447452	0.026995
C47	C	-0.679920	-0.478941	0.031387
C48	C	-0.633366	-0.504032	0.034880
C49	C	-0.469171	-0.504029	0.034875
C50	C	-0.447717	-0.478936	0.031380
C51	C	-0.469170	-0.668361	0.034880
C52	C	-0.447716	-0.711408	0.031386
C53	C	-0.496432	-0.071057	-0.503890
C54	C	-0.548853	-0.018285	-0.530226
C55	C	-0.496432	-0.071056	-0.425015
C56	C	-0.548854	-0.018284	-0.451470
C57	C	-0.575308	0.007793	-0.503892
C58	C	-0.470097	-0.097014	-0.451469
C59	C	-0.368666	-0.213054	-0.552051
C60	C	-0.343664	-0.242084	-0.576877
C61	C	-0.370616	-0.217167	-0.628824
C62	C	-0.343513	-0.248647	-0.655741
C63	C	-0.422570	-0.163216	-0.655945
C64	C	-0.447565	-0.134187	-0.631122
C65	C	-0.420611	-0.159108	-0.579173
C66	C	-0.765518	0.183662	-0.631659
C67	C	-0.819384	0.233473	-0.656662
C68	C	-0.846408	0.258459	-0.629712
C69	C	-0.904813	0.312461	-0.656813
C70	C	-0.819559	0.233635	-0.577758
C71	C	-0.765694	0.183833	-0.552761
C72	C	-0.738677	0.158847	-0.579717
C73	C	-0.368668	-0.213052	-0.234803
C74	C	-0.343669	-0.242086	-0.180935
C75	C	-0.370621	-0.217169	-0.153914
C76	C	-0.343519	-0.248648	-0.095506
C77	C	-0.422573	-0.163222	-0.180762
C78	C	-0.447570	-0.134193	-0.234627
C79	C	-0.420610	-0.159111	-0.261646
C80	C	-0.447720	-0.127629	-0.552258
C81	C	-0.469327	-0.102536	-0.530805
C82	C	-0.469328	-0.102535	-0.366609
C83	C	-0.447721	-0.127627	-0.320054
C84	C	-0.633714	0.061794	-0.530997
C85	C	-0.680269	0.104841	-0.552605
O86	O	0.076277	-0.384081	0.012960
O87	O	-0.076257	-0.294916	-0.012894
O88	O	0.012931	-0.384083	0.076300
O89	O	-0.012910	-0.294914	-0.076234
O90	O	0.012933	-0.311666	0.076306
O91	O	-0.076254	-0.222499	-0.012888
O92	O	0.076280	-0.311664	0.012966
Zn93	Zn	0.000013	-0.255584	0.000040
Zn94	Zn	0.000010	-0.350996	0.000032
O95	O	-0.012908	-0.222497	-0.076228
O96	O	-0.298805	0.063292	0.012964
O97	O	-0.235462	-0.063346	-0.012888
O98	O	-0.235465	-0.063353	0.076305
O99	O	-0.298803	0.063300	-0.076229
O100	O	-0.307912	-0.063350	0.076299
O101	O	-0.307909	-0.063342	-0.012895
O102	O	-0.371252	0.063295	0.012958
Zn103	Zn	-0.351083	-0.000023	0.000031
Zn104	Zn	-0.255631	-0.000027	0.000039
O105	O	-0.371250	0.063303	-0.076236
O106	O	-1.076607	0.456783	-0.692421
O107	O	-0.924074	0.330140	-0.629074
O108	O	-1.013262	0.330138	-0.629073
O109	O	-0.987418	0.456785	-0.692422
O110	O	-1.013261	0.330136	-0.701518
O111	O	-0.924072	0.330138	-0.701518
O112	O	-1.076605	0.456781	-0.764865
Zn113	Zn	-1.000338	0.393459	-0.744694
Zn114	Zn	-1.000340	0.393461	-0.649245
O115	O	-0.987417	0.456783	-0.764866
O116	O	-0.307911	-0.311650	-0.764507
O117	O	-0.371254	-0.222491	-0.701165
O118	O	-0.371252	-0.311652	-0.701162
O119	O	-0.307912	-0.222489	-0.764510
O120	O	-0.298806	-0.384074	-0.628716
O121	O	-0.298807	-0.294912	-0.628719
O122	O	-0.235464	-0.384072	-0.692061
Zn123	Zn	-0.255634	-0.350991	-0.648887
Zn124	Zn	-0.351085	-0.255572	-0.744338
O125	O	-0.235466	-0.294910	-0.692064
C126	C	-0.155920	-0.469469	0.234827
C127	C	-0.098464	-0.523208	0.261706
C128	C	-0.182375	-0.443392	0.261162
C129	C	-0.234797	-0.390619	0.155950
C130	C	-0.261676	-0.360052	0.098494
C131	C	-0.261132	-0.364662	0.182405
C132	C	-0.234797	-0.390620	0.234826
C133	C	-0.261675	-0.360052	0.261704
C134	C	-0.182375	-0.443391	0.182406
C135	C	0.018810	-0.390643	0.234846
C136	C	0.015111	-0.360079	0.261727
C137	C	0.019176	-0.443414	0.261179
C138	C	0.018812	-0.390637	0.155967
C139	C	0.015115	-0.360067	0.098511
C140	C	0.019178	-0.443408	0.182420
C141	C	0.018807	-0.469488	0.234841
C142	C	0.015106	-0.523226	0.261717
C143	C	0.019180	-0.364683	0.182425
C144	C	-0.234799	-0.215977	0.234834
C145	C	-0.261678	-0.246545	0.261708
C146	C	-0.182376	-0.241940	0.261172
C147	C	-0.234798	-0.137119	0.155964
C148	C	-0.261676	-0.083372	0.098509
C149	C	-0.182375	-0.163202	0.182421
C150	C	-0.155921	-0.215981	0.234841
C151	C	-0.098464	-0.246554	0.261721
C152	C	-0.261134	-0.163198	0.182415
C153	C	-0.039199	0.007461	-0.503869
C154	C	-0.039568	-0.018614	-0.530207
C155	C	-0.039203	-0.071390	-0.424995
C156	C	-0.039572	-0.097344	-0.451452
C157	C	-0.039201	-0.071385	-0.503874
C158	C	-0.039570	-0.018618	-0.451448
C159	C	-0.024912	0.183325	-0.552025
C160	C	-0.020873	0.233135	-0.576849
C161	C	-0.018844	0.258123	-0.628796
C162	C	-0.014454	0.312124	-0.655711
C163	C	-0.020859	0.233301	-0.655918
C164	C	-0.024906	0.183500	-0.631097
C165	C	-0.026932	0.158512	-0.579148
C166	C	-0.024920	-0.133799	-0.631644
C167	C	-0.020882	-0.162650	-0.656647
C168	C	-0.018855	-0.216605	-0.629699
C169	C	-0.014470	-0.247897	-0.656801
C170	C	-0.020872	-0.241704	-0.577746
C171	C	-0.024919	-0.212847	-0.552747
C172	C	-0.026939	-0.158893	-0.579702
C173	C	-0.024929	-0.133823	-0.234783
C174	C	-0.020887	-0.162684	-0.180915
C175	C	-0.018862	-0.216639	-0.153896
C176	C	-0.014477	-0.247936	-0.095488
C177	C	-0.020875	-0.241733	-0.180745
C178	C	-0.024915	-0.212872	-0.234610
C179	C	-0.026947	-0.158912	-0.261627
C180	C	-0.031316	0.104507	-0.552235
C181	C	-0.034811	0.061462	-0.530782
C182	C	-0.034820	-0.102682	-0.366590
C183	C	-0.031328	-0.127624	-0.320035
C184	C	-0.034816	-0.102672	-0.530980
C185	C	-0.031322	-0.127610	-0.552588
O186	O	-0.012940	-0.294936	0.371303
O187	O	0.012923	-0.384099	0.307961
O188	O	-0.076273	-0.294935	0.307950
O189	O	0.076257	-0.384100	0.371315
O190	O	-0.076265	-0.222515	0.235508
O191	O	0.012932	-0.311679	0.235520
O192	O	-0.012931	-0.222517	0.298862
Zn193	Zn	0.000002	-0.255600	0.255689
Zn194	Zn	-0.000010	-0.351016	0.351134
O195	O	0.076266	-0.311681	0.298873
C196	C	-0.574962	0.464558	-0.503864
C197	C	-0.548506	0.490518	-0.530195
C198	C	-0.496085	0.385697	-0.424987
C199	C	-0.469749	0.411776	-0.451438
C200	C	-0.496084	0.464555	-0.503857
C201	C	-0.548507	0.411779	-0.451444
C202	C	-0.765173	0.526994	-0.552039
C203	C	-0.819039	0.555852	-0.576867
C204	C	-0.846061	0.609814	-0.628812
C205	C	-0.904469	0.641114	-0.655732
C206	C	-0.819211	0.634913	-0.655928
C207	C	-0.765348	0.606050	-0.631102
C208	C	-0.738329	0.552088	-0.579155
C209	C	-0.447916	0.606561	-0.631604
C210	C	-0.423088	0.635592	-0.656601
C211	C	-0.371143	0.610674	-0.629648
C212	C	-0.344222	0.642150	-0.656742
C213	C	-0.344023	0.556716	-0.577696
C214	C	-0.368845	0.527681	-0.552704
C215	C	-0.420798	0.552613	-0.579664
C216	C	-0.447920	0.209802	-0.234786
C217	C	-0.423096	0.159988	-0.180919
C218	C	-0.371148	0.134996	-0.153895
C219	C	-0.344230	0.080987	-0.095489
C220	C	-0.344029	0.159823	-0.180737
C221	C	-0.368856	0.209637	-0.234602
C222	C	-0.420801	0.234620	-0.261624
C223	C	-0.679923	0.520797	-0.552238
C224	C	-0.633367	0.495853	-0.530781
C225	C	-0.469169	0.331687	-0.366583
C226	C	-0.447714	0.288634	-0.320030
C227	C	-0.469167	0.496035	-0.530956
C228	C	-0.447712	0.521128	-0.552558
H229	H	-0.426680	-0.610102	0.040221
C230	C	-0.622835	0.596193	-0.591296
C231	C	-0.577172	0.547864	-0.588330
H232	H	-0.640527	0.631599	-0.627183
H233	H	-0.646112	0.584405	-0.579350
H234	H	-0.612832	0.605356	-0.569372
H235	H	-0.587175	0.538698	-0.610251
H236	H	-0.553890	0.559654	-0.600283
H237	H	-0.161139	-0.284365	-0.019743
C238	C	-0.847527	-0.259565	-0.025791
C239	C	-0.848546	-0.305184	0.018725
H240	H	-0.865749	-0.222952	-0.027167
H241	H	-0.811584	-0.273289	-0.023090
H242	H	-0.864565	-0.251511	-0.057310
H243	H	-0.831504	-0.313242	0.050245
H244	H	-0.884496	-0.291458	0.016028
C245	C	-0.371810	-0.551886	0.031155
C246	C	-0.339051	-0.531668	0.027179
H247	H	-0.353407	-0.588493	0.032521
H248	H	-0.380777	-0.559951	0.062677
H249	H	-0.403462	-0.520926	0.000956
H250	H	-0.307400	-0.562626	0.057380
H251	H	-0.330077	-0.523605	-0.004347
H252	H	-0.304201	-0.322192	0.161160
H253	H	-0.569747	-0.610106	0.040228
C254	C	-0.901855	-0.433873	0.014740
C255	C	-0.848907	-0.470745	0.018715
H256	H	-0.920190	-0.450782	0.013362
H257	H	-0.902469	-0.432428	0.044938
H258	H	-0.918818	-0.393404	-0.016783
H259	H	-0.831943	-0.511213	0.050240
H260	H	-0.848291	-0.472196	-0.011486
C261	C	-0.770928	0.687098	-0.711739
C262	C	-0.735838	0.633639	-0.660905
H263	H	-0.752710	0.704132	-0.730136
H264	H	-0.783757	0.677206	-0.731127
H265	H	-0.800111	0.716216	-0.708429
H266	H	-0.706657	0.604519	-0.664215
H267	H	-0.723002	0.643529	-0.641513
C268	C	-0.692444	0.419915	-0.494979
C269	C	-0.735473	0.467677	-0.494942
H270	H	-0.674106	0.383298	-0.459729
H271	H	-0.705288	0.413312	-0.517650
H272	H	-0.668752	0.430741	-0.507576
H273	H	-0.759167	0.456853	-0.482349
H274	H	-0.722630	0.474280	-0.472263
H275	H	-0.161134	-0.465220	0.304234
H276	H	-0.304205	-0.141343	-0.019747
H277	H	-0.161136	-0.141377	0.161182
H278	H	-0.019237	-0.142213	-0.698946
C279	C	-0.108051	-0.473087	0.151020
C280	C	-0.153710	-0.472812	0.153704
H281	H	-0.090357	-0.491240	0.133295
H282	H	-0.118057	-0.432011	0.131855
H283	H	-0.084771	-0.496206	0.186094
H284	H	-0.176992	-0.449688	0.118630
H285	H	-0.143706	-0.513895	0.172868
H286	H	-0.743487	-0.516312	0.026628
H287	H	-0.019235	-0.142256	-0.159055
C288	C	0.065825	-0.490430	0.139038
C289	C	0.019978	-0.472875	0.153753
H290	H	0.066319	-0.508625	0.121346
H291	H	0.065654	-0.455205	0.115762
H292	H	0.096597	-0.519373	0.170030
H293	H	-0.010795	-0.443928	0.122761
H294	H	0.020144	-0.508104	0.177030
H295	H	-0.161137	-0.141349	-0.019737
C296	C	0.025856	-0.346727	-0.501464
C297	C	-0.018656	-0.301003	-0.548120
H298	H	0.027222	-0.383335	-0.483173
H299	H	0.057374	-0.354734	-0.510426
H300	H	0.023156	-0.333124	-0.479148
H301	H	-0.015953	-0.314605	-0.570438
H302	H	-0.050181	-0.292996	-0.539159
H303	H	-0.569753	0.389964	-0.430206
C304	C	-0.424325	-0.929387	0.061902
C305	C	-0.452903	-0.867325	0.018733
H306	H	-0.442730	-0.946229	0.060533
H307	H	-0.389840	-0.951389	0.060114
H308	H	-0.421030	-0.932632	0.094336
H309	H	-0.456194	-0.864081	-0.013701
H310	H	-0.487397	-0.845318	0.020517
H311	H	-0.490218	-0.769893	0.026639
H312	H	-0.444508	-0.142931	-0.698242
C313	C	-0.628877	-0.434834	0.040661
C314	C	-0.577178	-0.452223	0.040425
H315	H	-0.646574	-0.399444	0.041151
H316	H	-0.648057	-0.425635	0.009559
H317	H	-0.627059	-0.467630	0.071437
H318	H	-0.578996	-0.419430	0.009646
H319	H	-0.557994	-0.461420	0.071530
H320	H	-0.161141	-0.284407	0.304244
C321	C	-0.351553	-0.116177	0.182024
C322	C	-0.319279	-0.133722	0.153733
H323	H	-0.387448	-0.097975	0.164313
H324	H	-0.339593	-0.151406	0.217086
H325	H	-0.349511	-0.087240	0.183853
H326	H	-0.321318	-0.162662	0.151908
H327	H	-0.331242	-0.098489	0.118662
H328	H	-0.490220	-0.373215	0.026628
C329	C	-0.394320	-0.171725	-0.457098
C330	C	-0.411951	-0.154337	-0.422794
H331	H	-0.358424	-0.207109	-0.439396
H332	H	-0.416214	-0.180932	-0.467071
H333	H	-0.396357	-0.138926	-0.488090
H334	H	-0.409918	-0.187135	-0.391804
H335	H	-0.390051	-0.145133	-0.412814
C336	C	-0.253068	-0.291713	-0.132511
C337	C	-0.286564	-0.301382	-0.151425
H338	H	-0.217814	-0.328321	-0.114291
H339	H	-0.253121	-0.259241	-0.161696
H340	H	-0.265549	-0.281031	-0.108710
H341	H	-0.274085	-0.312060	-0.175228
H342	H	-0.286509	-0.333865	-0.122236
C343	C	-0.040643	-0.172038	-0.371097
C344	C	-0.040395	-0.154654	-0.422792
H345	H	-0.041160	-0.207411	-0.353409
H346	H	-0.009533	-0.181264	-0.351903
H347	H	-0.071410	-0.139230	-0.372921
H348	H	-0.009626	-0.187460	-0.420968
H349	H	-0.071508	-0.145431	-0.441991
C350	C	-0.503742	-0.289441	0.021355
C351	C	-0.452908	-0.305177	0.018716
H352	H	-0.522142	-0.252836	0.019992
H353	H	-0.523124	-0.282892	-0.007926
H354	H	-0.500432	-0.321922	0.053795
H355	H	-0.456217	-0.272698	-0.013726
H356	H	-0.433521	-0.311723	0.048000
C357	C	-0.623199	0.011464	-0.420118
C358	C	-0.577526	0.011161	-0.422787
H359	H	-0.640896	0.029634	-0.402405
H360	H	-0.646467	0.034574	-0.455190
H361	H	-0.613205	-0.029613	-0.400941
H362	H	-0.587520	0.052238	-0.441968
H363	H	-0.554253	-0.011948	-0.387710
H364	H	0.019760	-0.465234	0.304248
H365	H	-0.301733	-0.860548	0.019286
C366	C	-0.025387	-0.259019	0.151068
C367	C	0.019981	-0.307358	0.153751
H368	H	-0.024891	-0.223632	0.133368
H369	H	-0.056482	-0.249823	0.131879
H370	H	-0.025551	-0.270818	0.186141
H371	H	0.020143	-0.295561	0.118678
H372	H	0.051083	-0.316554	0.172940
C373	C	-0.040535	0.062722	-0.605958
C374	C	-0.040321	0.010819	-0.588337
H375	H	-0.040984	0.080879	-0.641838
H376	H	-0.071319	0.091691	-0.603963
H377	H	-0.009441	0.050792	-0.584027
H378	H	-0.071417	0.022750	-0.610265
H379	H	-0.009534	-0.018155	-0.590336
H380	H	-0.743175	-0.373219	0.026636
C381	C	-0.736747	0.201647	-0.707947
C382	C	-0.735825	0.156216	-0.661300
H383	H	-0.718414	0.184703	-0.726245
H384	H	-0.772667	0.234855	-0.730258
H385	H	-0.719777	0.216185	-0.698971
H386	H	-0.752799	0.141681	-0.670276
H387	H	-0.699898	0.122997	-0.638985
H388	H	-0.040120	0.003178	-0.430195
C389	C	-0.024530	-0.058587	-0.229539
C390	C	-0.027156	-0.074515	-0.264480
H391	H	-0.025901	-0.021976	-0.247874
H392	H	-0.053811	-0.051976	-0.216702
H393	H	0.007910	-0.091005	-0.200349
H394	H	-0.059598	-0.042098	-0.293668
H395	H	0.002127	-0.081122	-0.277325
H396	H	-0.346767	-0.770191	0.026621
H397	H	-0.026563	0.162985	-0.509727
H398	H	-0.019230	0.253339	-0.554762
C399	C	-0.523572	0.687439	-0.712116
C400	C	-0.505015	0.633957	-0.661240
H401	H	-0.558821	0.704346	-0.730410
H402	H	-0.523589	0.716629	-0.708879
H403	H	-0.500897	0.677609	-0.731565
H404	H	-0.527688	0.643788	-0.641790
H405	H	-0.505002	0.604761	-0.664475
C406	C	-0.014643	0.309716	-0.729073
C407	C	-0.018624	0.260763	-0.713013
H408	H	-0.013258	0.326664	-0.764321
H409	H	-0.044842	0.340521	-0.728247
H410	H	0.016877	0.295157	-0.705548
H411	H	-0.050146	0.275323	-0.736537
H412	H	0.011579	0.229952	-0.713844
C413	C	-0.367621	0.478036	-0.462102
C414	C	-0.339039	0.468377	-0.495603
H415	H	-0.349221	0.441423	-0.426850
H416	H	-0.370915	0.510502	-0.462146
H417	H	-0.402110	0.488726	-0.474585
H418	H	-0.304551	0.457692	-0.483122
H419	H	-0.335739	0.435902	-0.495556
C420	C	-0.270860	-0.433871	0.014729
C421	C	-0.286929	-0.470736	0.018698
H422	H	-0.235606	-0.450790	0.013365
H423	H	-0.294369	-0.393407	-0.016792
H424	H	-0.271701	-0.432423	0.044930
H425	H	-0.286093	-0.472181	-0.011505
H426	H	-0.263414	-0.511211	0.050223
C427	C	-0.543198	-0.022829	-0.606024
C428	C	-0.577510	0.011213	-0.588387
H429	H	-0.560887	-0.004610	-0.641932
H430	H	-0.512201	-0.023072	-0.603952
H431	H	-0.533244	-0.063892	-0.584152
H432	H	-0.587462	0.052275	-0.610257
H433	H	-0.608517	0.011462	-0.590463
C434	C	-0.288155	-0.293915	-0.229567
C435	C	-0.339032	-0.240436	-0.264504
H436	H	-0.269862	-0.310818	-0.247906
H437	H	-0.268710	-0.284088	-0.216723
H438	H	-0.291390	-0.323115	-0.200381
H439	H	-0.335797	-0.211235	-0.293688
H440	H	-0.358481	-0.250262	-0.277356
H441	H	-0.445174	0.679524	-0.698898
H442	H	-0.346713	-0.233351	-0.509753
H443	H	-0.301364	-0.286010	-0.554791
C444	C	-0.901879	0.309746	-0.730013
C445	C	-0.848895	0.260754	-0.713763
H446	H	-0.920096	0.326589	-0.765266
H447	H	-0.918912	0.295262	-0.706555
H448	H	-0.902562	0.340618	-0.729245
H449	H	-0.848211	0.229879	-0.714527
H450	H	-0.831858	0.275237	-0.737227
H451	H	-0.026547	0.163294	-0.653183
H452	H	-0.026568	-0.089866	-0.653596
H453	H	-0.489864	-0.090259	-0.653209
C454	C	-0.902207	0.310056	-0.581043
C455	C	-0.849258	0.261100	-0.548133
H456	H	-0.920542	0.327008	-0.562751
H457	H	-0.902821	0.340858	-0.612689
H458	H	-0.919168	0.295500	-0.590002
H459	H	-0.832295	0.275657	-0.539178
H460	H	-0.848641	0.230292	-0.516478
H461	H	-0.026564	-0.233284	-0.510448
H462	H	-0.026556	-0.233307	-0.256467
H463	H	-0.019226	-0.285667	-0.158742
C464	C	-0.393974	0.330389	-0.371069
C465	C	-0.411604	0.382312	-0.422765
H466	H	-0.358079	0.312200	-0.353370
H467	H	-0.415871	0.342301	-0.351885
H468	H	-0.396009	0.301446	-0.372893
H469	H	-0.409574	0.411256	-0.420940
H470	H	-0.389702	0.370401	-0.441953
C471	C	-0.771273	0.188996	-0.477279
C472	C	-0.736183	0.156550	-0.495658
H473	H	-0.753054	0.172149	-0.442025
H474	H	-0.784103	0.231094	-0.500013
H475	H	-0.800455	0.185740	-0.477327
H476	H	-0.707003	0.159809	-0.495614
H477	H	-0.723345	0.114442	-0.472919
H478	H	-0.445183	0.139782	-0.159066
H479	H	-0.490217	0.230142	-0.256784
C480	C	-0.523049	-0.059148	-0.229050
C481	C	-0.504671	-0.074892	-0.264139
H482	H	-0.558300	-0.022536	-0.247271
H483	H	-0.523004	-0.091618	-0.199870
H484	H	-0.500310	-0.052604	-0.216219
H485	H	-0.527408	-0.081440	-0.276967
H486	H	-0.504720	-0.042415	-0.293328
H487	H	-0.840896	0.535415	-0.554785
H488	H	-0.841216	0.678847	-0.698222
C489	C	-0.419293	-0.172693	-0.098116
C490	C	-0.452202	-0.135827	-0.151064
H491	H	-0.437585	-0.155777	-0.079785
H492	H	-0.410334	-0.213158	-0.081149
H493	H	-0.387646	-0.174138	-0.097507
H494	H	-0.483848	-0.134386	-0.151674
H495	H	-0.461169	-0.095351	-0.168036
C496	C	-0.270859	0.566195	-0.580970
C497	C	-0.286923	0.529320	-0.548066
H498	H	-0.235609	0.549284	-0.562675
H499	H	-0.271691	0.567647	-0.612617
H500	H	-0.294379	0.606662	-0.589926
H501	H	-0.263405	0.488854	-0.539114
H502	H	-0.286087	0.527861	-0.516410
H503	H	-0.346770	0.229846	-0.256454
H504	H	-0.301729	0.139473	-0.158731
