data_functionalizedCrystal
_audit_creation_method	'MofGen! by Chris Wilmer'
_symmetry_space_group_name_H-M	'P1'
_symmetry_Int_Tables_number	1
_symmetry_cell_setting	triclinic
loop_
_symmetry_equiv_pos_as_xyz
  x,y,z
_cell_length_a	25.639239
_cell_length_b	19.805407
_cell_length_c	19.805399
_cell_angle_alpha	90.016510
_cell_angle_beta	89.969866
_cell_angle_gamma	89.965164
loop_
_atom_site_label
_atom_site_type_symbol
_atom_site_fract_x
_atom_site_fract_y
_atom_site_fract_z
Zn1	Zn	-0.208209	-1.034660	-0.382707
Zn2	Zn	0.125124	-0.701327	-0.049374
Zn3	Zn	0.458457	-0.367993	0.283959
Zn4	Zn	-0.295646	-1.034556	-0.269517
Zn5	Zn	0.037688	-0.701223	0.063816
Zn6	Zn	0.371021	-0.367889	0.397150
Zn7	Zn	-0.208220	-0.921480	-0.269533
Zn8	Zn	0.125113	-0.588147	0.063801
Zn9	Zn	0.458447	-0.254813	0.397134
Zn10	Zn	-0.295610	-0.921414	-0.382664
Zn11	Zn	0.037724	-0.588081	-0.049331
Zn12	Zn	0.371057	-0.254747	0.284002
O13	O	-0.251921	-0.978027	-0.326105
O14	O	0.081412	-0.644694	0.007228
O15	O	0.414746	-0.311361	0.340561
O16	O	-0.219818	-1.129363	-0.367704
O17	O	0.113515	-0.796029	-0.034370
O18	O	0.446848	-0.462696	0.298963
O19	O	-0.284068	-1.019540	-0.174802
O20	O	0.049266	-0.686207	0.158531
O21	O	0.382599	-0.352873	0.491864
O22	O	-0.135053	-0.936565	-0.284570
O23	O	0.198280	-0.603231	0.048763
O24	O	0.531613	-0.269898	0.382096
O25	O	-0.284057	-1.129286	-0.284543
O26	O	0.049276	-0.795953	0.048790
O27	O	0.382609	-0.462620	0.382123
O28	O	-0.135046	-1.019718	-0.367719
O29	O	0.198288	-0.686384	-0.034386
O30	O	0.531621	-0.353051	0.298947
O31	O	-0.219837	-0.936464	-0.174814
O32	O	0.113497	-0.603130	0.158519
O33	O	0.446830	-0.269797	0.491853
O34	O	-0.219802	-0.826755	-0.284529
O35	O	0.113531	-0.493421	0.048805
O36	O	0.446865	-0.160088	0.382138
O37	O	-0.283996	-0.936452	-0.477387
O38	O	0.049337	-0.603119	-0.144053
O39	O	0.382670	-0.269785	0.189280
O40	O	-0.284007	-0.826706	-0.367646
O41	O	0.049327	-0.493373	-0.034313
O42	O	0.382660	-0.160039	0.299021
O43	O	-0.219784	-1.019654	-0.477418
O44	O	0.113550	-0.686320	-0.144085
O45	O	0.446883	-0.352987	0.189248
O46	O	-0.368806	-1.019476	-0.284502
O47	O	-0.035473	-0.686143	0.048832
O48	O	0.297861	-0.352809	0.382165
O49	O	-0.368780	-0.936351	-0.367630
O50	O	-0.035446	-0.603018	-0.034297
O51	O	0.297887	-0.269685	0.299036
C52	C	-0.251902	-0.802171	-0.326085
C53	C	0.081431	-0.468838	0.007249
C54	C	0.414765	-0.135505	0.340582
C55	C	-0.251906	-0.726939	-0.326092
C56	C	0.081427	-0.393606	0.007242
C57	C	0.414760	-0.060273	0.340575
C58	C	-0.218516	-0.691636	-0.369459
C59	C	0.114818	-0.358302	-0.036125
C60	C	0.448151	-0.024969	0.297208
C61	C	-0.218517	-0.620947	-0.369459
C62	C	0.114816	-0.287614	-0.036126
C63	C	0.448149	0.045719	0.297207
C64	C	-0.251913	-0.585564	-0.326097
C65	C	0.081421	-0.252230	0.007237
C66	C	0.414754	0.081103	0.340570
C67	C	-0.285305	-0.620872	-0.282725
C68	C	0.048029	-0.287539	0.050608
C69	C	0.381362	0.045794	0.383942
C70	C	-0.285300	-0.691560	-0.282721
C71	C	0.048033	-0.358226	0.050612
C72	C	0.381366	-0.024893	0.383945
C73	C	-0.285324	-0.335799	-0.282739
C74	C	0.048009	-0.002466	0.050594
C75	C	0.381343	0.330868	0.383928
C76	C	-0.285327	-0.265107	-0.282747
C77	C	0.048006	0.068226	0.050586
C78	C	0.381340	0.401560	0.383919
C79	C	-0.218541	-0.265187	-0.369477
C80	C	0.114792	0.068147	-0.036144
C81	C	0.448126	0.401480	0.297190
C82	C	-0.218536	-0.335874	-0.369473
C83	C	0.114797	-0.002541	-0.036140
C84	C	0.448130	0.330793	0.297193
C85	C	-0.251926	-0.371176	-0.326100
C86	C	0.081407	-0.037843	0.007234
C87	C	0.414740	0.295490	0.340567
C88	C	-0.251924	-0.447825	-0.326098
C89	C	0.081410	-0.114492	0.007235
C90	C	0.414743	0.218842	0.340568
C91	C	-0.251919	-0.508917	-0.326101
C92	C	0.081415	-0.175583	0.007233
C93	C	0.414748	0.157750	0.340566
C94	C	-0.387764	-0.977914	-0.326074
C95	C	-0.054430	-0.644580	0.007259
C96	C	0.278903	-0.311247	0.340592
C97	C	-0.445878	-0.977927	-0.326084
C98	C	-0.112544	-0.644593	0.007250
C99	C	0.220789	-0.311260	0.340583
C100	C	-0.806242	-1.021423	-0.282894
C101	C	-0.472909	-0.688090	0.050439
C102	C	-0.139575	-0.354757	0.383773
C103	C	-0.860846	-1.021450	-0.282903
C104	C	-0.527513	-0.688116	0.050430
C105	C	-0.194180	-0.354783	0.383764
O106	O	-0.889084	-1.058314	-0.246147
O107	O	-0.555751	-0.724981	0.087186
O108	O	-0.222417	-0.391647	0.420519
N109	N	-0.888160	-0.978146	-0.326150
N110	N	-0.554827	-0.644813	0.007183
N111	N	-0.221494	-0.311480	0.340516
C112	C	-0.860867	-0.934819	-0.369396
C113	C	-0.527534	-0.601485	-0.036063
C114	C	-0.194200	-0.268152	0.297271
O115	O	-0.889114	-0.897989	-0.406183
O116	O	-0.555780	-0.564655	-0.072849
O117	O	-0.222447	-0.231322	0.260484
C118	C	-0.806264	-0.934796	-0.369390
C119	C	-0.472930	-0.601463	-0.036057
C120	C	-0.139597	-0.268130	0.297277
C121	C	-0.778953	-0.978098	-0.326135
C122	C	-0.445619	-0.644764	0.007198
C123	C	-0.112286	-0.311431	0.340532
C124	C	-0.778931	-1.064722	-0.239643
C125	C	-0.445597	-0.731388	0.093690
C126	C	-0.112264	-0.398055	0.427024
C127	C	-0.724330	-1.064695	-0.239633
C128	C	-0.390997	-0.731361	0.093700
C129	C	-0.057664	-0.398028	0.427033
C130	C	-0.697041	-1.021369	-0.282874
C131	C	-0.363708	-0.688036	0.050459
C132	C	-0.030374	-0.354702	0.383792
C133	C	-0.724352	-0.978071	-0.326125
C134	C	-0.391019	-0.644737	0.007208
C135	C	-0.057685	-0.311404	0.340541
C136	C	-0.778972	-0.891473	-0.412639
C137	C	-0.445638	-0.558140	-0.079305
C138	C	-0.112305	-0.224806	0.254028
C139	C	-0.724365	-0.891455	-0.412629
C140	C	-0.391031	-0.558121	-0.079296
C141	C	-0.057698	-0.224788	0.254037
C142	C	-0.697053	-0.934756	-0.369374
C143	C	-0.363720	-0.601423	-0.036041
C144	C	-0.030387	-0.268089	0.297292
C145	C	-0.642462	-0.934718	-0.369357
C146	C	-0.309129	-0.601384	-0.036023
C147	C	0.024204	-0.268051	0.297310
N148	N	-0.615148	-0.978021	-0.326109
N149	N	-0.281815	-0.644688	0.007224
N150	N	0.051518	-0.311354	0.340557
C151	C	-0.642438	-1.021347	-0.282868
C152	C	-0.309104	-0.688013	0.050465
C153	C	0.024229	-0.354680	0.383798
C154	C	-0.975538	-0.934870	-0.369407
C155	C	-0.642204	-0.601536	-0.036073
C156	C	-0.308871	-0.268203	0.297260
C157	C	-1.030140	-0.934888	-0.369410
C158	C	-0.696807	-0.601555	-0.036076
C159	C	-0.363473	-0.268222	0.297257
C160	C	-1.030115	-1.021520	-0.282917
C161	C	-0.696782	-0.688187	0.050416
C162	C	-0.363449	-0.354853	0.383749
C163	C	-0.975512	-1.021498	-0.282911
C164	C	-0.642179	-0.688165	0.050422
C165	C	-0.308845	-0.354831	0.383756
C166	C	-0.948224	-0.978173	-0.326159
C167	C	-0.614890	-0.644840	0.007174
C168	C	-0.281557	-0.311506	0.340507
C169	C	-0.527772	-1.021286	-0.282851
C170	C	-0.194439	-0.687952	0.050483
C171	C	0.138894	-0.354619	0.383816
C172	C	-0.473167	-1.021252	-0.282843
C173	C	-0.139834	-0.687919	0.050491
C174	C	0.193500	-0.354586	0.383824
C175	C	-0.473196	-0.934623	-0.369337
C176	C	-0.139863	-0.601290	-0.036004
C177	C	0.193470	-0.267957	0.297329
C178	C	-0.527797	-0.934654	-0.369343
C179	C	-0.194464	-0.601320	-0.036010
C180	C	0.138870	-0.267987	0.297324
C181	C	-0.555084	-0.977990	-0.326097
C182	C	-0.221750	-0.644657	0.007236
C183	C	0.111583	-0.311324	0.340569
O184	O	-0.614190	-0.897874	-0.406095
O185	O	-0.280856	-0.564541	-0.072762
O186	O	0.052477	-0.231207	0.260571
O187	O	-0.614184	-1.058177	-0.246094
O188	O	-0.280851	-0.724843	0.087239
O189	O	0.052482	-0.391510	0.420572
C190	C	-0.115548	-0.978160	-0.326151
C191	C	0.217785	-0.644827	0.007182
C192	C	0.551119	-0.311493	0.340515
C193	C	-0.057434	-0.978217	-0.326171
C194	C	0.275899	-0.644883	0.007162
C195	C	0.609233	-0.311550	0.340496
C196	C	-0.251885	-0.978057	-0.502648
C197	C	0.081448	-0.644724	-0.169315
C198	C	0.414782	-0.311390	0.164019
C199	C	-0.251869	-0.978070	-0.577880
C200	C	0.081464	-0.644736	-0.244547
C201	C	0.414797	-0.311403	0.088786
C202	C	-0.251937	-0.154570	-0.326120
C203	C	0.081397	0.178763	0.007213
C204	C	0.414730	0.512097	0.340546
C205	C	-0.251933	-0.229802	-0.326111
C206	C	0.081400	0.103531	0.007222
C207	C	0.414733	0.436865	0.340555
C208	C	-0.218421	-0.934824	-0.613230
C209	C	0.114912	-0.601491	-0.279897
C210	C	0.448246	-0.268158	0.053437
C211	C	-0.218411	-0.934834	-0.683918
C212	C	0.114922	-0.601500	-0.350585
C213	C	0.448256	-0.268167	-0.017252
C214	C	-0.251847	-0.978092	-0.719256
C215	C	0.081487	-0.644759	-0.385923
C216	C	0.414820	-0.311426	-0.052589
C217	C	-0.285299	-1.021340	-0.683901
C218	C	0.048035	-0.688006	-0.350568
C219	C	0.381368	-0.354673	-0.017235
C220	C	-0.285311	-1.021327	-0.613214
C221	C	0.048022	-0.687993	-0.279881
C222	C	0.381355	-0.354660	0.053453
C223	C	-0.285250	-1.021393	-0.968975
C224	C	0.048083	-0.688060	-0.635641
C225	C	0.381417	-0.354727	-0.302308
C226	C	-0.285234	-1.021405	-1.039667
C227	C	0.048100	-0.688071	-0.706333
C228	C	0.381433	-0.354738	-0.373000
C229	C	-0.218350	-0.934900	-1.039679
C230	C	0.114984	-0.601567	-0.706346
C231	C	0.448317	-0.268234	-0.373012
C232	C	-0.218362	-0.934887	-0.968992
C233	C	0.114971	-0.601554	-0.635658
C234	C	0.448305	-0.268221	-0.302325
C235	C	-0.251816	-0.978132	-0.933643
C236	C	0.081518	-0.644798	-0.600310
C237	C	0.414851	-0.311465	-0.266977
C238	C	-0.251827	-0.978120	-0.856995
C239	C	0.081506	-0.644787	-0.523662
C240	C	0.414840	-0.311454	-0.190328
C241	C	-0.251833	-0.978108	-0.795903
C242	C	0.081500	-0.644774	-0.462570
C243	C	0.414833	-0.311441	-0.129236
C244	C	-0.251920	-0.978037	-0.150249
C245	C	0.081414	-0.644703	0.183084
C246	C	0.414747	-0.311370	0.516417
C247	C	-0.251788	-0.978155	-0.075018
C248	C	0.081546	-0.644822	0.258316
C249	C	0.414879	-0.311489	0.591649
H250	H	-0.312512	-0.364534	-0.247422
H251	H	0.020821	-0.031201	0.085911
H252	H	0.354154	0.302133	0.419245
Br253	Br	-1.067198	-0.876110	-0.428105
Br254	Br	-0.733865	-0.542776	-0.094772
Br255	Br	-0.400532	-0.209443	0.238561
H256	H	-0.312526	-1.056558	-0.712679
H257	H	0.020808	-0.723225	-0.379345
H258	H	0.354141	-0.389892	-0.046012
H259	H	-0.191191	-0.899602	-0.584463
H260	H	0.142143	-0.566268	-0.251130
H261	H	0.475476	-0.232935	0.082203
Br262	Br	-0.436150	-0.875830	-0.428022
Br263	Br	-0.102817	-0.542496	-0.094688
Br264	Br	0.230516	-0.209163	0.238645
H265	H	-0.191176	-0.899616	-0.712697
H266	H	0.142157	-0.566283	-0.379364
H267	H	0.475491	-0.232949	-0.046030
H268	H	-0.191328	-0.592206	-0.404774
H269	H	0.142005	-0.258873	-0.071441
H270	H	0.475338	0.074461	0.261892
H271	H	-0.191344	-0.364680	-0.404786
H272	H	0.141989	-0.031346	-0.071453
H273	H	0.475322	0.301987	0.261881
H274	H	-0.312493	-0.592058	-0.247415
H275	H	0.020840	-0.258724	0.085918
H276	H	0.354173	0.074609	0.419252
H277	H	-0.953322	-0.899584	-0.404622
H278	H	-0.619989	-0.566251	-0.071289
H279	H	-0.286655	-0.232917	0.262044
Br280	Br	-0.687274	-1.123474	-0.180937
Br281	Br	-0.353940	-0.790140	0.152397
Br282	Br	-0.020607	-0.456807	0.485730
H283	H	-0.801144	-1.100006	-0.204431
H284	H	-0.467811	-0.766673	0.128903
H285	H	-0.134477	-0.433340	0.462236
H286	H	-0.191133	-0.899664	-0.940224
H287	H	0.142200	-0.566330	-0.606890
H288	H	0.475533	-0.232997	-0.273557
H289	H	-0.312496	-1.056599	-0.940202
H290	H	0.020838	-0.723265	-0.606869
H291	H	0.354171	-0.389932	-0.273536
H292	H	-0.191323	-0.720440	-0.404772
H293	H	0.142011	-0.387106	-0.071438
H294	H	0.475344	-0.053773	0.261895
Br295	Br	-0.330614	-1.080118	-1.087625
Br296	Br	0.002719	-0.746784	-0.754292
Br297	Br	0.336053	-0.413451	-0.420958
H298	H	-0.191112	-0.899687	-1.068468
H299	H	0.142222	-0.566353	-0.735135
H300	H	0.475555	-0.233020	-0.401802
Br301	Br	-0.330617	-0.739473	-0.223863
Br302	Br	0.002716	-0.406140	0.109470
Br303	Br	0.336050	-0.072806	0.442804
H304	H	-0.312544	-1.056547	-0.584433
H305	H	0.020789	-0.723213	-0.251100
H306	H	0.354122	-0.389880	0.082234
H307	H	-0.191352	-0.236435	-0.404792
H308	H	0.141982	0.096898	-0.071458
H309	H	0.475315	0.430232	0.261875
H310	H	-0.312523	-0.236300	-0.247434
H311	H	0.020811	0.097034	0.085900
H312	H	0.354144	0.430367	0.419233
Br313	Br	-0.436105	-1.080021	-0.224134
Br314	Br	-0.102772	-0.746688	0.109199
Br315	Br	0.230561	-0.413354	0.442533
H316	H	-0.953279	-1.056758	-0.247690
H317	H	-0.619945	-0.723424	0.085644
H318	H	-0.286612	-0.390091	0.418977
Br319	Br	-1.067161	-1.080317	-0.224229
Br320	Br	-0.733828	-0.746984	0.109104
Br321	Br	-0.400495	-0.413650	0.442437
Br322	Br	-0.564796	-1.080100	-0.224160
Br323	Br	-0.231463	-0.746767	0.109174
Br324	Br	0.101871	-0.413433	0.442507
H325	H	-0.801199	-0.856209	-0.447859
H326	H	-0.467866	-0.522876	-0.114525
H327	H	-0.134532	-0.189542	0.218808
H328	H	-0.702149	-0.856175	-0.447849
H329	H	-0.368816	-0.522842	-0.114516
H330	H	-0.035482	-0.189508	0.218817
H331	H	-0.550035	-0.899396	-0.404567
H332	H	-0.216702	-0.566063	-0.071233
H333	H	0.116632	-0.232730	0.262100
