data_functionalizedCrystal
_audit_creation_method	'MofGen! by Chris Wilmer'
_symmetry_space_group_name_H-M	'P1'
_symmetry_Int_Tables_number	1
_symmetry_cell_setting	triclinic
loop_
_symmetry_equiv_pos_as_xyz
  x,y,z
_cell_length_a	13.033286
_cell_length_b	13.032318
_cell_length_c	12.759393
_cell_angle_alpha	97.214138
_cell_angle_beta	97.170403
_cell_angle_gamma	89.066708
loop_
_atom_site_label
_atom_site_type_symbol
_atom_site_fract_x
_atom_site_fract_y
_atom_site_fract_z
Zn1	Zn	1.520090	0.608971	-0.321735
Zn2	Zn	1.498099	0.780993	-0.126888
Zn3	Zn	1.348112	0.587198	-0.170854
Zn4	Zn	1.326235	0.759105	-0.327310
O5	O	1.423134	0.684067	-0.236697
O6	O	1.661073	0.650063	-0.275155
O7	O	1.478155	0.755333	0.014301
O8	O	1.389284	0.446150	-0.206936
O9	O	1.644916	0.776447	-0.132002
O10	O	1.515636	0.462148	-0.317787
O11	O	1.367960	0.612953	-0.018001
O12	O	1.201310	0.591729	-0.212342
O13	O	1.351998	0.739142	-0.473591
O14	O	1.185237	0.718029	-0.327289
O15	O	1.494423	0.628839	-0.469495
O16	O	1.456941	0.922025	-0.137408
O17	O	1.330674	0.905944	-0.284656
C18	C	1.155962	0.650142	-0.275191
C19	C	1.041661	0.635653	-0.291682
C20	C	1.389075	0.951309	-0.206885
C21	C	1.374599	1.065648	-0.194153
C22	C	0.982721	0.691629	-0.228116
C23	C	0.864585	0.676655	-0.245158
C24	C	1.430621	1.124451	-0.243392
C25	C	1.415660	1.242627	-0.230234
C26	C	1.691349	0.718125	-0.198052
C27	C	1.805646	0.732639	-0.181584
C28	C	1.423223	0.683978	-0.510730
C29	C	1.423262	0.683940	-0.627507
C30	C	1.457292	1.415777	-0.266663
C31	C	1.471690	1.301428	-0.279480
C32	C	1.497428	0.626495	-0.680238
C33	C	1.497452	0.626453	-0.789965
C34	C	1.349137	0.741309	-0.794218
C35	C	1.349110	0.741344	-0.684495
C36	C	1.549704	0.509766	-0.948168
C37	C	1.623886	0.452333	-1.000900
C38	C	1.726229	0.449295	-0.952603
C39	C	1.754409	0.503709	-0.851572
C40	C	1.680232	0.561151	-0.798844
C41	C	1.577877	0.564167	-0.847143
C42	C	1.296868	0.858034	-0.526288
C43	C	1.222694	0.915483	-0.473557
C44	C	1.120348	0.918530	-0.521851
C45	C	1.092169	0.864135	-0.622883
C46	C	1.166343	0.806687	-0.675614
C47	C	1.268688	0.803637	-0.627313
C48	C	1.423113	0.684089	0.036271
C49	C	1.423311	0.683862	0.153043
H50	H	1.019719	0.750640	-0.161082
H51	H	1.004663	0.576648	-0.358722
H52	H	1.059958	0.965320	-0.478910
H53	H	0.827591	0.617647	-0.312204
H54	H	1.143391	0.762395	-0.757881
H55	H	1.530728	1.264287	-0.331385
H56	H	0.842638	0.791659	-0.114549
H57	H	1.703177	0.605457	-0.716588
H58	H	1.008831	0.866620	-0.662208
H59	H	1.315556	1.102794	-0.142262
H60	H	1.489656	1.087307	-0.295294
H61	H	1.356613	1.279767	-0.178340
H62	H	1.557805	0.579750	-0.633842
H63	H	1.837751	0.501239	-0.812259
H64	H	1.786629	0.402531	-0.995545
H65	H	1.600932	0.408028	-1.083161
H66	H	1.466367	0.512224	-0.987498
H67	H	1.288767	0.788048	-0.840631
H68	H	1.245649	0.959785	-0.391296
H69	H	1.380205	0.855551	-0.486953
