data_functionalizedCrystal
_audit_creation_method	'MofGen! by Chris Wilmer'
_symmetry_space_group_name_H-M	'P1'
_symmetry_Int_Tables_number	1
_symmetry_cell_setting	triclinic
loop_
_symmetry_equiv_pos_as_xyz
  x,y,z
_cell_length_a	8.559649
_cell_length_b	13.596369
_cell_length_c	8.559649
_cell_angle_alpha	89.995606
_cell_angle_beta	110.221336
_cell_angle_gamma	90.005227
loop_
_atom_site_label
_atom_site_type_symbol
_atom_site_fract_x
_atom_site_fract_y
_atom_site_fract_z
O1	O	2.126883	0.081776	0.055032
O2	O	2.460216	0.415109	0.388366
O3	O	2.793549	0.748443	0.721699
O4	O	1.651398	0.081780	-0.028749
O5	O	1.984731	0.415113	0.304585
O6	O	2.318065	0.748446	0.637918
O7	O	1.931031	0.081777	0.250884
O8	O	2.264364	0.415110	0.584218
O9	O	2.597698	0.748443	0.917551
O10	O	1.847250	0.081779	-0.224601
O11	O	2.180583	0.415113	0.108733
O12	O	2.513916	0.748446	0.442066
O13	O	1.931008	-0.081806	0.250894
O14	O	2.264341	0.251527	0.584228
O15	O	2.597674	0.584860	0.917561
O16	O	1.651375	-0.081803	-0.028739
O17	O	1.984708	0.251530	0.304595
O18	O	2.318041	0.584864	0.637928
O19	O	2.126860	-0.081807	0.055043
O20	O	2.460193	0.251526	0.388376
O21	O	2.793526	0.584860	0.721709
Zn22	Zn	1.889113	-0.107777	0.013154
Zn23	Zn	2.222447	0.225556	0.346487
Zn24	Zn	2.555780	0.558889	0.679820
Zn25	Zn	1.889144	0.107750	0.013140
Zn26	Zn	2.222477	0.441084	0.346474
Zn27	Zn	2.555811	0.774417	0.679807
O28	O	1.847227	-0.081804	-0.224590
O29	O	2.180560	0.251530	0.108743
O30	O	2.513893	0.584863	0.442076
C31	C	1.591077	-0.000011	-0.035093
C32	C	1.924411	0.333322	0.298241
C33	C	2.257744	0.666655	0.631574
C34	C	1.411378	-0.000010	-0.053992
C35	C	1.744711	0.333324	0.279341
C36	C	2.078045	0.666657	0.612675
N37	N	1.889105	-0.254869	0.013165
N38	N	2.222438	0.078464	0.346499
N39	N	2.555771	0.411797	0.679832
C40	C	1.889142	-0.656160	0.013138
C41	C	2.222475	-0.322827	0.346472
C42	C	2.555808	0.010507	0.679805
C43	C	1.889126	-0.544509	0.013140
C44	C	2.222459	-0.211175	0.346473
C45	C	2.555793	0.122158	0.679806
C46	C	1.889124	-0.455518	0.013151
C47	C	2.222457	-0.122185	0.346484
C48	C	2.555790	0.211148	0.679817
C49	C	1.889107	-0.343860	0.013154
C50	C	2.222440	-0.010526	0.346488
C51	C	2.555773	0.322807	0.679821
C52	C	2.187180	-0.000014	0.061387
C53	C	2.520514	0.333319	0.394720
C54	C	2.853847	0.666653	0.728053
C55	C	2.366879	-0.000009	0.080286
C56	C	2.700213	0.333324	0.413619
C57	C	3.033546	0.666658	0.746953
C58	C	1.937369	-0.000013	0.311198
C59	C	2.270702	0.333320	0.644532
C60	C	2.604035	0.666654	0.977865
C61	C	1.956268	-0.000008	0.490898
C62	C	2.289601	0.333326	0.824231
C63	C	2.622934	0.666659	1.157564
N64	N	1.889167	0.254842	0.013143
N65	N	2.222501	0.588175	0.346477
N66	N	2.555834	0.921509	0.679810
C67	C	1.840889	-0.000012	-0.284904
C68	C	2.174222	0.333321	0.048429
C69	C	2.507556	0.666655	0.381762
C70	C	1.821990	-0.000011	-0.464604
C71	C	2.155323	0.333323	-0.131270
C72	C	2.488657	0.666656	0.202063
H73	H	1.311990	-0.000004	-0.183420
H74	H	1.645323	0.333330	0.149913
H75	H	1.978656	0.666663	0.483247
H76	H	1.692570	-0.000013	0.436018
H77	H	2.025904	0.333320	0.769351
H78	H	2.359237	0.666654	1.102685
H79	H	2.085696	-0.000017	0.590286
H80	H	2.419029	0.333317	0.923619
H81	H	2.752362	0.666650	1.256953
H82	H	1.466258	-0.000005	0.209705
H83	H	1.799591	0.333329	0.543039
H84	H	2.132924	0.666662	0.876372
