data_functionalizedCrystal
_audit_creation_method	'MofGen! by Chris Wilmer'
_symmetry_space_group_name_H-M	'P1'
_symmetry_Int_Tables_number	1
_symmetry_cell_setting	triclinic
loop_
_symmetry_equiv_pos_as_xyz
  x,y,z
_cell_length_a	12.784890
_cell_length_b	17.699083
_cell_length_c	16.776229
_cell_angle_alpha	90.007545
_cell_angle_beta	89.993656
_cell_angle_gamma	101.805214
loop_
_atom_site_label
_atom_site_type_symbol
_atom_site_fract_x
_atom_site_fract_y
_atom_site_fract_z
O1	O	1.410310	-0.004737	-0.066264
O2	O	1.100771	-0.037157	-0.066271
O3	O	1.264285	0.089806	-0.066260
O4	O	1.246795	-0.131701	-0.066275
O5	O	1.264264	0.089812	0.066316
O6	O	1.100749	-0.037152	0.066305
O7	O	1.410288	-0.004732	0.066313
Zn8	Zn	1.255515	-0.020941	0.087358
Zn9	Zn	1.255544	-0.020948	-0.087317
O10	O	1.246773	-0.131695	0.066302
C11	C	1.061155	-0.039263	0.000016
C12	C	0.943145	-0.045537	0.000013
N13	N	1.255503	-0.020935	0.206570
C14	C	1.263648	0.117965	0.000028
C15	C	1.261768	0.201862	0.000028
C16	C	0.763965	-0.124166	0.000007
C17	C	0.874845	-0.118277	0.000008
C18	C	0.900557	0.021317	0.000016
C19	C	0.789677	0.015427	0.000016
C20	C	0.721384	-0.057317	0.000013
C21	C	0.610502	-0.063206	0.000018
C22	C	0.636216	0.076387	0.000021
C23	C	0.747096	0.082277	0.000022
C24	C	1.449904	-0.002626	0.000024
C25	C	1.567914	0.003648	0.000021
C26	C	1.247411	-0.159854	0.000012
C27	C	1.249291	-0.243751	0.000006
C28	C	1.357748	0.256675	0.000032
C29	C	1.355975	0.335503	0.000025
C30	C	1.258221	0.359518	0.000020
C31	C	1.162234	0.304699	0.000014
C32	C	1.164008	0.225872	0.000015
C33	C	1.155077	0.622601	0.000007
C34	C	1.153310	0.701435	0.000008
C35	C	1.347044	0.732232	0.000017
C36	C	1.348818	0.653405	0.000018
C37	C	1.252831	0.598593	0.000008
C38	C	1.254755	0.513118	0.000014
C39	C	1.256296	0.444992	0.000019
N40	N	1.255564	-0.020948	-0.206528
C41	C	1.327930	0.035265	0.248292
C42	C	1.327936	0.035266	0.331744
C43	C	1.255520	-0.020937	0.373472
C44	C	1.183085	-0.077139	0.331745
C45	C	1.183075	-0.077136	0.248294
C46	C	1.183124	-0.077152	0.668292
C47	C	1.183142	-0.077152	0.751748
C48	C	1.327984	0.035251	0.751742
C49	C	1.327974	0.035254	0.668291
C50	C	1.255537	-0.020946	0.626570
C51	C	1.255530	-0.020946	0.536082
C52	C	1.255531	-0.020941	0.463959
H53	H	0.554899	-0.122438	0.000019
F54	F	1.049262	0.726990	0.000002
F55	F	1.461792	0.231124	0.000045
F56	F	0.691281	-0.201585	0.000016
H57	H	1.434131	0.380130	0.000029
F58	F	0.590891	0.147537	0.000033
F59	F	1.452861	0.627851	0.000022
F60	F	1.449203	0.790574	0.000025
F61	F	1.405012	0.095082	0.203889
H62	H	1.124145	-0.122913	0.634330
F63	F	0.920159	-0.189427	-0.000001
H64	H	0.956179	0.080542	0.000013
F65	F	1.106008	-0.136952	0.376156
H66	H	0.802714	0.141503	0.000022
F67	F	1.405052	0.095069	0.623883
H68	H	1.082641	0.324258	0.000005
F69	F	1.052919	0.564275	-0.000005
H70	H	1.386964	0.081014	0.785719
F71	F	1.106062	-0.136972	0.796158
F72	F	1.061853	0.167536	0.000009
F73	F	1.105986	-0.136950	0.203892
H74	H	1.386910	0.081028	0.365713
