data_functionalizedCrystal
_audit_creation_method	'MofGen! by Chris Wilmer'
_symmetry_space_group_name_H-M	'P1'
_symmetry_Int_Tables_number	1
_symmetry_cell_setting	triclinic
loop_
_symmetry_equiv_pos_as_xyz
  x,y,z
_cell_length_a	21.395362
_cell_length_b	25.639240
_cell_length_c	21.395355
_cell_angle_alpha	89.978599
_cell_angle_beta	90.043940
_cell_angle_gamma	89.940961
loop_
_atom_site_label
_atom_site_type_symbol
_atom_site_fract_x
_atom_site_fract_y
_atom_site_fract_z
Zn1	Zn	0.957805	0.207990	0.354573
Zn2	Zn	0.957685	0.295410	0.249790
Zn3	Zn	0.853020	0.208014	0.249774
Zn4	Zn	0.852967	0.295420	0.354495
O5	O	0.905369	0.251708	0.302158
O6	O	1.045467	0.219572	0.340713
O7	O	0.943773	0.283822	0.162110
O8	O	0.866993	0.134846	0.263702
O9	O	1.045379	0.283798	0.263729
O10	O	0.943978	0.134828	0.340697
O11	O	0.866876	0.219613	0.162098
O12	O	0.765335	0.219623	0.263626
O13	O	0.866902	0.283817	0.442183
O14	O	0.765296	0.283840	0.340564
O15	O	0.943926	0.219582	0.442241
O16	O	0.943721	0.368576	0.263654
O17	O	0.866785	0.368584	0.340580
C18	C	0.742582	0.251736	0.302085
C19	C	0.672940	0.251760	0.302069
C20	C	0.640223	0.285243	0.342071
C21	C	0.574788	0.285230	0.342099
C22	C	0.542072	0.251740	0.302114
C23	C	0.574797	0.218252	0.262110
C24	C	0.640231	0.218262	0.262087
C25	C	0.438348	0.247528	0.245709
C26	C	0.372915	0.247522	0.245730
C27	C	0.340251	0.251706	0.302183
C28	C	0.373028	0.255908	0.358616
C29	C	0.438462	0.255918	0.358594
C30	C	0.471120	0.251725	0.302134
C31	C	0.236582	0.285176	0.342218
C32	C	0.171145	0.285160	0.342247
C33	C	0.171156	0.218185	0.262252
C34	C	0.236591	0.218198	0.262229
C35	C	0.269300	0.251697	0.302211
C36	C	0.905251	0.387551	0.302124
C37	C	0.905258	0.445665	0.302130
C38	C	0.945483	0.806011	0.262147
C39	C	0.945502	0.860616	0.262153
O40	O	0.979619	0.888838	0.228139
N41	N	0.905420	0.887947	0.302172
C42	C	0.865321	0.860672	0.342192
O43	O	0.831230	0.888934	0.376233
C44	C	0.865305	0.806069	0.342189
C45	C	0.905385	0.778740	0.302163
C46	C	0.985560	0.778682	0.222125
C47	C	0.985540	0.724082	0.222118
C48	C	0.945442	0.696810	0.262134
C49	C	0.905365	0.724139	0.302156
C50	C	0.825210	0.778794	0.382212
C51	C	0.825198	0.724187	0.382205
C52	C	0.865278	0.696858	0.342179
C53	C	0.865247	0.642267	0.342165
N54	N	0.905329	0.614935	0.302146
C55	C	0.945427	0.642207	0.262130
C56	C	0.865357	0.975343	0.342197
C57	C	0.865369	1.029945	0.342198
C58	C	0.945551	1.029885	0.262159
C59	C	0.945536	0.975282	0.262156
C60	C	0.905439	0.948011	0.302178
C61	C	0.945381	0.527542	0.262119
C62	C	0.945355	0.472937	0.262114
C63	C	0.865176	0.473002	0.342155
C64	C	0.865199	0.527602	0.342157
C65	C	0.905306	0.554871	0.302138
O66	O	0.831149	0.614010	0.376164
O67	O	0.979517	0.613939	0.228101
C68	C	1.068793	0.251681	0.302231
C69	C	1.138434	0.251669	0.302263
C70	C	0.905421	0.251698	0.465581
C71	C	0.905443	0.251693	0.535223
C72	C	0.905481	1.115335	0.302196
C73	C	0.905469	1.057221	0.302184
C74	C	0.905354	0.251681	0.139371
C75	C	0.905453	0.251538	0.069730
C76	C	0.945548	0.218245	0.567967
C77	C	0.945548	0.218222	0.633402
C78	C	0.905448	0.251658	0.666091
C79	C	0.865336	0.285109	0.633339
C80	C	0.865333	0.285126	0.567905
C81	C	0.900460	0.298736	0.769752
C82	C	0.900467	0.298719	0.835185
C83	C	0.905452	0.251602	0.867912
C84	C	0.910444	0.204501	0.835198
C85	C	0.910441	0.204519	0.769764
C86	C	0.905446	0.251642	0.737044
C87	C	0.945558	0.218127	0.971609
C88	C	0.945553	0.218103	1.037045
C89	C	0.865345	0.284994	1.036981
C90	C	0.865347	0.285013	0.971546
C91	C	0.905457	0.251580	0.938863
H92	H	0.548144	0.312495	0.374675
H93	H	0.832726	1.052192	0.374785
C94	C	0.821235	0.321774	1.072935
N95	N	0.788010	0.349477	1.100019
C96	C	0.676221	0.181430	0.218077
N97	N	0.703330	0.153689	0.184926
C98	C	0.989628	0.945225	0.218126
N99	N	1.022842	0.922589	0.184962
H100	H	0.832672	0.312363	0.541245
H101	H	0.832700	0.953142	0.374786
C102	C	0.989673	0.181304	1.073064
N103	N	1.022906	0.153587	1.100193
H104	H	0.832692	0.312253	0.944885
C105	C	0.135172	0.181345	0.218269
N106	N	0.108066	0.153596	0.185140
H107	H	0.666851	0.312519	0.374628
H108	H	0.978215	0.190901	0.944997
C109	C	0.272564	0.322019	0.386206
N110	N	0.299664	0.349768	0.419339
H111	H	0.978203	1.052099	0.229578
H112	H	0.263230	0.190936	0.229652
C113	C	0.989445	0.442878	0.218077
N114	N	1.022653	0.420240	0.184909
H115	H	0.792547	0.701986	0.414798
H116	H	0.896406	0.337072	0.861816
C117	C	0.336867	0.242896	0.183653
N118	N	0.309717	0.239410	0.136895
H119	H	0.832564	0.549855	0.374752
C120	C	0.894988	0.350573	0.733759
N121	N	0.890870	0.389615	0.706650
C122	C	0.474272	0.242927	0.183602
N123	N	0.501329	0.239463	0.136824
C124	C	0.781119	0.808844	0.426247
N125	N	0.747909	0.831477	0.459417
C126	C	0.821073	0.442992	0.386172
N127	N	0.787859	0.420388	0.419331
H128	H	0.914504	0.166134	0.861843
H129	H	0.832685	0.312330	0.659959
H130	H	0.465147	0.259338	0.404544
C131	C	0.989498	0.557530	0.218091
N132	N	1.022723	0.580116	0.184926
C133	C	0.337103	0.260509	0.420720
N134	N	0.310041	0.263975	0.467495
H135	H	1.018215	0.800881	0.189539
C136	C	0.989663	0.181460	0.532020
N137	N	1.022887	0.153752	0.504944
C138	C	0.538809	0.181413	0.218126
N139	N	0.511702	0.153664	0.184998
C140	C	0.135156	0.321999	0.386249
N141	N	0.108049	0.349750	0.419389
H142	H	0.914504	0.166167	0.743130
C143	C	0.989672	0.181428	0.669428
N144	N	1.022908	0.153716	0.696561
H145	H	1.018178	0.701834	0.189527
