data_functionalizedCrystal
_audit_creation_method	'MofGen! by Chris Wilmer'
_symmetry_space_group_name_H-M	'P1'
_symmetry_Int_Tables_number	1
_symmetry_cell_setting	triclinic
loop_
_symmetry_equiv_pos_as_xyz
  x,y,z
_cell_length_a	30.700810
_cell_length_b	30.711328
_cell_length_c	30.700791
_cell_angle_alpha	59.998524
_cell_angle_beta	89.999202
_cell_angle_gamma	60.000280
loop_
_atom_site_label
_atom_site_type_symbol
_atom_site_fract_x
_atom_site_fract_y
_atom_site_fract_z
O1	O	-0.298812	0.311650	-0.683013
O2	O	-0.235470	0.222487	-0.530478
O3	O	-0.235471	0.311649	-0.619669
O4	O	-0.298812	0.222487	-0.593822
O5	O	-0.307917	0.384069	-0.619669
O6	O	-0.307916	0.294906	-0.530478
O7	O	-0.371258	0.384069	-0.683013
Zn8	Zn	-0.351089	0.350986	-0.606746
Zn9	Zn	-0.255639	0.255570	-0.606746
O10	O	-0.371258	0.294907	-0.593822
C11	C	-0.234803	0.469467	-0.625552
C12	C	-0.261682	0.523206	-0.621853
C13	C	-0.182382	0.443390	-0.625920
C14	C	-0.234803	0.390618	-0.625552
C15	C	-0.261682	0.360051	-0.621853
C16	C	-0.182382	0.364661	-0.625920
C17	C	-0.155927	0.390619	-0.625552
C18	C	-0.098471	0.360052	-0.621853
C19	C	-0.261138	0.443390	-0.625920
C20	C	-0.496429	0.535509	-1.110658
C21	C	-0.548850	0.588281	-1.136994
C22	C	-0.496430	0.535507	-1.031781
C23	C	-0.548851	0.588279	-1.058236
C24	C	-0.575305	0.614357	-1.110658
C25	C	-0.470094	0.509551	-1.058236
C26	C	-0.368663	0.393516	-1.158823
C27	C	-0.343661	0.364488	-1.183650
C28	C	-0.370612	0.389406	-1.235597
C29	C	-0.343509	0.357928	-1.262515
C30	C	-0.422566	0.443357	-1.262718
C31	C	-0.447561	0.472385	-1.237894
C32	C	-0.420607	0.447462	-1.185944
C33	C	-0.765514	0.790227	-1.238425
C34	C	-0.819379	0.840037	-1.263427
C35	C	-0.846403	0.865022	-1.236476
C36	C	-0.904808	0.919023	-1.263577
C37	C	-0.819555	0.840197	-1.184522
C38	C	-0.765690	0.790395	-1.159525
C39	C	-0.738673	0.765410	-1.186482
C40	C	-0.368667	0.393509	-0.841569
C41	C	-0.343669	0.364474	-0.787701
C42	C	-0.370622	0.389390	-0.760679
C43	C	-0.343520	0.357910	-0.702271
C44	C	-0.422573	0.443336	-0.787526
C45	C	-0.447569	0.472366	-0.841392
C46	C	-0.420610	0.447450	-0.868411
C47	C	-0.447717	0.478940	-1.159028
C48	C	-0.469324	0.504031	-1.137574
C49	C	-0.469326	0.504027	-0.973375
C50	C	-0.447720	0.478935	-0.926819
C51	C	-0.633710	0.668358	-1.137763
C52	C	-0.680265	0.711405	-1.159370
C53	C	-0.574970	0.071057	-0.567514
C54	C	-0.548516	0.018285	-0.567146
C55	C	-0.496094	0.071056	-0.567514
C56	C	-0.469759	0.018285	-0.567146
C57	C	-0.496094	-0.007792	-0.567514
C58	C	-0.548515	0.097014	-0.567146
C59	C	-0.765178	0.213052	-0.581795
C60	C	-0.819043	0.242082	-0.585832
C61	C	-0.846065	0.217165	-0.587859
C62	C	-0.904472	0.248644	-0.592247
C63	C	-0.819217	0.163215	-0.585844
C64	C	-0.765354	0.134185	-0.581799
C65	C	-0.738334	0.159107	-0.579775
C66	C	-0.447931	-0.183660	-0.581795
C67	C	-0.423105	-0.233471	-0.585832
C68	C	-0.371161	-0.258457	-0.587861
C69	C	-0.344241	-0.312458	-0.592247
C70	C	-0.344040	-0.233632	-0.585846
C71	C	-0.368861	-0.183831	-0.581799
C72	C	-0.420813	-0.158845	-0.579777
C73	C	-0.447928	0.213051	-0.581795
C74	C	-0.423103	0.242085	-0.585839
C75	C	-0.371157	0.217168	-0.587866
C76	C	-0.344239	0.248647	-0.592254
C77	C	-0.344039	0.163222	-0.585853
C78	C	-0.368866	0.134193	-0.581811
C79	C	-0.420810	0.159110	-0.579777
C80	C	-0.679930	0.127628	-0.575394
C81	C	-0.633375	0.102536	-0.571900
C82	C	-0.469178	0.102535	-0.571900
C83	C	-0.447723	0.127627	-0.575394
C84	C	-0.469179	-0.061793	-0.571900
C85	C	-0.447725	-0.104839	-0.575394
O86	O	0.076268	0.222489	-0.593822
O87	O	-0.076265	0.311651	-0.619669
O88	O	0.012925	0.222488	-0.530478
O89	O	-0.012922	0.311652	-0.683014
O90	O	0.012926	0.294908	-0.530478
O91	O	-0.076263	0.384070	-0.619669
O92	O	0.076269	0.294909	-0.593822
Zn93	Zn	0.000004	0.350988	-0.606746
Zn94	Zn	0.000001	0.255572	-0.606746
O95	O	-0.012920	0.384071	-0.683013
O96	O	-0.298818	0.669866	-0.593822
O97	O	-0.235472	0.543224	-0.619669
O98	O	-0.235473	0.543221	-0.530478
O99	O	-0.298816	0.669868	-0.683013
O100	O	-0.307918	0.543219	-0.530478
O101	O	-0.307916	0.543222	-0.619669
O102	O	-0.371262	0.669863	-0.593822
Zn103	Zn	-0.351091	0.606542	-0.606746
Zn104	Zn	-0.255643	0.606545	-0.606746
O105	O	-0.371260	0.669866	-0.683013
O106	O	-1.076604	1.063329	-1.299174
O107	O	-0.924068	0.936700	-1.235836
O108	O	-1.013250	0.936685	-1.235830
O109	O	-0.987422	1.063345	-1.299180
O110	O	-1.013249	0.936687	-1.308277
O111	O	-0.924067	0.936703	-1.308283
O112	O	-1.076603	1.063331	-1.371621
Zn113	Zn	-1.000335	1.000017	-1.351454
Zn114	Zn	-1.000336	1.000014	-1.256003
O115	O	-0.987420	1.063347	-1.371627
O116	O	-0.307912	0.294913	-1.371273
O117	O	-0.371251	0.384081	-1.307938
O118	O	-0.371247	0.294912	-1.307922
O119	O	-0.307916	0.384082	-1.371289
O120	O	-0.298798	0.222498	-1.235480
O121	O	-0.298802	0.311667	-1.235495
O122	O	-0.235462	0.222499	-1.298831
Zn123	Zn	-0.255629	0.255585	-1.255662
Zn124	Zn	-0.351084	0.350994	-1.351107
O125	O	-0.235466	0.311668	-1.298847
C126	C	-0.155921	0.137097	-0.371941
C127	C	-0.098464	0.083361	-0.345064
C128	C	-0.182375	0.163176	-0.345607
C129	C	-0.234800	0.215942	-0.450816
C130	C	-0.261680	0.246506	-0.508271
C131	C	-0.261134	0.241900	-0.424361
C132	C	-0.234797	0.215946	-0.371941
C133	C	-0.261675	0.246514	-0.345064
C134	C	-0.182377	0.163172	-0.424361
C135	C	0.018809	0.215933	-0.371935
C136	C	0.015111	0.246498	-0.345056
C137	C	0.019176	0.163161	-0.345601
C138	C	0.018808	0.215937	-0.450813
C139	C	0.015109	0.246506	-0.508270
C140	C	0.019175	0.163165	-0.424359
C141	C	0.018806	0.137086	-0.371937
C142	C	0.015106	0.083347	-0.345059
C143	C	0.019177	0.241892	-0.424357
C144	C	-0.234808	0.390611	-0.371937
C145	C	-0.261686	0.360043	-0.345059
C146	C	-0.182387	0.364653	-0.345601
C147	C	-0.234806	0.469462	-0.450813
C148	C	-0.261684	0.523202	-0.508270
C149	C	-0.182386	0.443384	-0.424357
C150	C	-0.155932	0.390611	-0.371935
C151	C	-0.098476	0.360044	-0.345055
C152	C	-0.261142	0.443384	-0.424359
C153	C	-0.039226	0.614013	-1.110659
C154	C	-0.039596	0.587936	-1.136994
C155	C	-0.039227	0.535164	-1.031781
C156	C	-0.039597	0.509206	-1.058235
C157	C	-0.039228	0.535164	-1.110657
C158	C	-0.039595	0.587936	-1.058237
C159	C	-0.024943	0.789882	-1.158829
C160	C	-0.020904	0.839693	-1.183656
C161	C	-0.018877	0.864679	-1.235604
C162	C	-0.014488	0.918680	-1.262523
C163	C	-0.020893	0.839854	-1.262724
C164	C	-0.024939	0.790053	-1.237898
C165	C	-0.026963	0.765067	-1.185948
C166	C	-0.024950	0.472741	-1.238421
C167	C	-0.020914	0.443887	-1.263421
C168	C	-0.018886	0.389932	-1.236470
C169	C	-0.014501	0.358637	-1.263569
C170	C	-0.020901	0.364835	-1.184516
C171	C	-0.024947	0.393694	-1.159519
C172	C	-0.026968	0.447649	-1.186478
C173	C	-0.024947	0.472739	-0.841570
C174	C	-0.020903	0.443880	-0.787702
C175	C	-0.018877	0.389925	-0.760679
C176	C	-0.014489	0.358630	-0.702271
C177	C	-0.020891	0.364829	-0.787525
C178	C	-0.024933	0.393688	-0.841391
C179	C	-0.026965	0.447647	-0.868411
C180	C	-0.031345	0.711061	-1.159032
C181	C	-0.034840	0.668014	-1.137576
C182	C	-0.034842	0.503873	-0.973375
C183	C	-0.031348	0.478933	-0.926820
C184	C	-0.034844	0.503874	-1.137761
C185	C	-0.031350	0.478934	-1.159367
O186	O	-0.012933	0.311642	-0.235481
O187	O	0.012927	0.222478	-0.298820
O188	O	-0.076268	0.311637	-0.298826
O189	O	0.076262	0.222483	-0.235475
O190	O	-0.076267	0.384059	-0.371272
O191	O	0.012928	0.294900	-0.371266
O192	O	-0.012932	0.384064	-0.307927
Zn193	Zn	-0.000002	0.350981	-0.351099
Zn194	Zn	-0.000003	0.255561	-0.255648
O195	O	0.076263	0.294905	-0.307920
C196	C	-0.574987	1.071094	-1.110648
C197	C	-0.548540	1.097066	-1.136979
C198	C	-0.496112	0.992249	-1.031771
C199	C	-0.469785	1.018342	-1.058221
C200	C	-0.496123	1.071119	-1.110641
C201	C	-0.548528	1.018317	-1.058228
C202	C	-0.765177	1.133470	-1.158826
C203	C	-0.819038	1.162314	-1.183655
C204	C	-0.846064	1.216274	-1.235600
C205	C	-0.904467	1.247558	-1.262521
C206	C	-0.819223	1.241386	-1.262716
C207	C	-0.765363	1.212538	-1.237890
C208	C	-0.738340	1.158578	-1.185942
C209	C	-0.447989	1.213164	-1.238389
C210	C	-0.423171	1.242208	-1.263386
C211	C	-0.371232	1.217305	-1.236433
C212	C	-0.344321	1.248795	-1.263527
C213	C	-0.344108	1.163349	-1.184480
C214	C	-0.368921	1.134301	-1.159488
C215	C	-0.420867	1.159217	-1.186449
C216	C	-0.447932	0.816347	-0.841568
C217	C	-0.423105	0.766535	-0.787701
C218	C	-0.371163	0.741559	-0.760677
C219	C	-0.344243	0.687552	-0.702270
C220	C	-0.344053	0.766399	-0.787519
C221	C	-0.368882	0.816211	-0.841383
C222	C	-0.420821	0.841178	-0.868406
C223	C	-0.679939	1.127303	-1.159024
C224	C	-0.633388	1.102372	-1.137567
C225	C	-0.469194	0.938242	-0.973366
C226	C	-0.447737	0.895190	-0.926812
C227	C	-0.469217	1.102613	-1.137740
C228	C	-0.447770	1.127718	-1.159343
H229	H	-0.161142	0.322191	-0.626505
H230	H	-0.161134	0.141348	-0.302535
C231	C	0.019977	0.299260	-0.453056
C232	C	-0.025697	0.359214	-0.461332
C233	C	-0.024899	0.416580	-0.490032
C234	C	0.021573	0.413991	-0.510456
C235	C	0.067250	0.354034	-0.502180
C236	C	0.066452	0.296669	-0.473480
H237	H	-0.060101	0.361133	-0.446212
H238	H	-0.058712	0.460964	-0.496158
H239	H	0.022164	0.456457	-0.531702
H240	H	0.101654	0.352116	-0.517300
H241	H	0.100265	0.252284	-0.467354
C242	C	-0.849275	0.867679	-1.154873
C243	C	-0.829769	0.894667	-1.135782
C244	C	-0.859490	0.922148	-1.106132
C245	C	-0.908716	0.922639	-1.095574
C246	C	-0.928225	0.895649	-1.114666
C247	C	-0.898504	0.868169	-1.144316
H248	H	-0.793326	0.894305	-1.143597
H249	H	-0.845048	0.942127	-1.091999
H250	H	-0.930717	0.942981	-1.073625
H251	H	-0.964667	0.896012	-1.106850
H252	H	-0.912946	0.848189	-1.158449
H253	H	-0.161137	0.141343	-0.445597
H254	H	0.019765	0.141345	-0.445602
C255	C	-0.452938	-0.260770	-0.588056
C256	C	-0.429860	-0.328755	-0.544883
C257	C	-0.459695	-0.356052	-0.547108
C258	C	-0.512608	-0.315364	-0.592506
C259	C	-0.535689	-0.247375	-0.635682
C260	C	-0.505854	-0.220077	-0.633457
H261	H	-0.390688	-0.358879	-0.511274
H262	H	-0.442609	-0.406383	-0.515146
H263	H	-0.534694	-0.335571	-0.594153
H264	H	-0.574861	-0.217251	-0.669291
H265	H	-0.522941	-0.169747	-0.665419
C266	C	-0.286523	0.305136	-0.758170
C267	C	-0.240526	0.305658	-0.777821
C268	C	-0.183379	0.246321	-0.748292
C269	C	-0.172229	0.186462	-0.699111
C270	C	-0.218228	0.185938	-0.679457
C271	C	-0.275375	0.245274	-0.708987
H272	H	-0.248778	0.349971	-0.814230
H273	H	-0.149327	0.246710	-0.762841
H274	H	-0.129925	0.142537	-0.677252
H275	H	-0.209975	0.141624	-0.643048
H276	H	-0.309426	0.244886	-0.694437
H277	H	0.019769	0.141337	-0.302529
H278	H	-0.743179	1.089533	-1.116529
H279	H	-0.304204	0.465205	-0.626497
C280	C	-0.153687	0.472864	-0.453042
C281	C	-0.133268	0.496312	-0.430023
C282	C	-0.104568	0.525787	-0.458704
C283	C	-0.096287	0.531815	-0.510404
C284	C	-0.116708	0.508367	-0.533426
C285	C	-0.145408	0.478891	-0.504745
H286	H	-0.139397	0.491850	-0.391749
H287	H	-0.089451	0.543146	-0.441661
H288	H	-0.075042	0.553635	-0.531635
H289	H	-0.110579	0.512828	-0.571699
H290	H	-0.160524	0.461533	-0.521787
H291	H	-0.426688	-0.003537	-0.566554
H292	H	-0.161154	0.322195	-0.302525
H293	H	-0.569754	-0.003544	-0.566543
H294	H	-0.304215	0.465212	-0.445595
H295	H	-0.040196	0.466746	-1.036995
H296	H	-0.346781	0.090268	-0.580170
C297	C	-0.577551	0.617772	-1.195180
C298	C	-0.554546	0.641226	-1.239070
C299	C	-0.583251	0.670719	-1.297253
C300	C	-0.634961	0.676758	-1.311546
C301	C	-0.657969	0.653304	-1.267654
C302	C	-0.629264	0.623811	-1.209471
H303	H	-0.516265	0.636756	-1.228491
H304	H	-0.566219	0.688082	-1.329744
H305	H	-0.656210	0.698591	-1.354616
H306	H	-0.696250	0.657774	-1.278234
H307	H	-0.646296	0.606448	-1.176980
H308	H	-0.040191	0.609765	-1.180067
H309	H	-0.570090	0.610099	-1.036994
C310	C	-0.453009	1.301558	-1.320526
C311	C	-0.429926	1.303330	-1.365457
C312	C	-0.459765	1.362682	-1.422597
C313	C	-0.512686	1.420262	-1.434806
C314	C	-0.535771	1.418492	-1.389874
C315	C	-0.505933	1.359140	-1.332734
H316	H	-0.390748	1.260704	-1.356420
H317	H	-0.442676	1.363992	-1.455859
H318	H	-0.534775	1.464198	-1.477104
H319	H	-0.574949	1.461118	-1.398911
H320	H	-0.523022	1.357830	-1.299472
H321	H	-0.346832	1.090370	-1.117191
H322	H	-0.743834	0.770187	-1.117225
C323	C	-0.505123	1.240564	-1.268047
C324	C	-0.551224	1.306135	-1.287142
C325	C	-0.608357	1.333533	-1.316797
C326	C	-0.619389	1.295360	-1.327358
C327	C	-0.573287	1.229785	-1.308263
C328	C	-0.516154	1.202387	-1.278607
H329	H	-0.543058	1.334396	-1.279325
H330	H	-0.642484	1.382075	-1.330933
H331	H	-0.661682	1.315641	-1.349311
H332	H	-0.581453	1.201524	-1.316080
H333	H	-0.482026	1.153845	-1.264472
C334	C	-0.411906	0.452189	-1.029542
C335	C	-0.382811	0.423503	-1.058631
C336	C	-0.324624	0.366146	-1.029937
C337	C	-0.295534	0.337475	-0.972156
C338	C	-0.324630	0.366160	-0.943064
C339	C	-0.382816	0.423518	-0.971757
H340	H	-0.404345	0.444728	-1.101407
H341	H	-0.303086	0.344911	-1.051473
H342	H	-0.252461	0.295015	-0.950915
H343	H	-0.303095	0.344936	-0.900288
H344	H	-0.404354	0.444753	-0.950221
H345	H	-0.346714	0.373214	-0.863564
C346	C	-0.286972	1.135948	-1.154831
C347	C	-0.275936	1.174116	-1.144265
C348	C	-0.218800	1.146717	-1.114615
C349	C	-0.172701	1.081149	-1.095530
C350	C	-0.183736	1.042978	-1.106095
C351	C	-0.240871	1.070377	-1.135745
H352	H	-0.310063	1.222656	-1.158394
H353	H	-0.210632	1.174974	-1.106795
H354	H	-0.130406	1.060867	-1.073581
H355	H	-0.149609	0.994438	-1.091967
H356	H	-0.249040	1.042120	-1.143566
H357	H	-0.489869	0.516290	-0.863247
C358	C	-0.339058	0.843530	-0.870910
C359	C	-0.281925	0.816058	-0.841188
C360	C	-0.252100	0.843376	-0.870715
C361	C	-0.279410	0.898167	-0.929963
C362	C	-0.336546	0.925642	-0.959688
C363	C	-0.366371	0.898324	-0.930161
H364	H	-0.261706	0.775496	-0.797327
H365	H	-0.209804	0.823037	-0.848710
H366	H	-0.257332	0.918390	-0.951820
H367	H	-0.356765	0.966205	-1.003550
H368	H	-0.408667	0.918663	-0.952166
H369	H	-0.040185	0.609761	-1.037000
H370	H	-0.346710	0.373219	-1.116524
H371	H	-0.019260	0.464316	-0.765846
H372	H	-0.841221	0.142930	-0.587490
C373	C	-0.286914	0.738928	-0.757798
C374	C	-0.275867	0.738425	-0.708564
C375	C	-0.218731	0.710956	-0.678846
C376	C	-0.172642	0.683991	-0.698363
C377	C	-0.183688	0.684494	-0.747600
C378	C	-0.240824	0.711963	-0.777318
H379	H	-0.309986	0.758386	-0.694114
H380	H	-0.210554	0.710584	-0.642398
H381	H	-0.130346	0.663658	-0.676364
H382	H	-0.149569	0.664532	-0.762050
H383	H	-0.249000	0.712335	-0.813766
C384	C	-0.027178	0.532092	-0.871292
C385	C	-0.024957	0.559695	-0.841765
C386	C	-0.027187	0.619046	-0.871489
C387	C	-0.031639	0.650793	-0.930741
C388	C	-0.033860	0.623190	-0.960271
C389	C	-0.031630	0.563839	-0.930547
H390	H	-0.021662	0.536194	-0.797901
H391	H	-0.025543	0.639479	-0.849629
H392	H	-0.033290	0.694728	-0.952744
H393	H	-0.037155	0.646691	-1.004136
H394	H	-0.033274	0.543405	-0.952408
C395	C	-0.153694	0.472880	-0.626725
C396	C	-0.101987	0.435493	-0.581062
C397	C	-0.073302	0.464984	-0.581868
C398	C	-0.096325	0.531861	-0.628339
C399	C	-0.148035	0.569251	-0.674006
C400	C	-0.176720	0.539760	-0.673199
H401	H	-0.084941	0.385984	-0.546658
H402	H	-0.035022	0.437305	-0.548062
H403	H	-0.075091	0.553692	-0.628936
H404	H	-0.165081	0.618761	-0.708409
H405	H	-0.215000	0.567439	-0.707005
C406	C	-0.027182	0.532094	-1.268076
C407	C	-0.072587	0.589788	-1.320948
C408	C	-0.074818	0.649139	-1.350601
C409	C	-0.031644	0.650796	-1.327381
C410	C	0.013764	0.593100	-1.274506
C411	C	0.015995	0.533749	-1.244853
H412	H	-0.104550	0.588563	-1.338139
H413	H	-0.108432	0.691849	-1.389742
H414	H	-0.033295	0.694731	-1.349332
H415	H	0.045727	0.594324	-1.257315
H416	H	0.049609	0.491038	-1.205712
H417	H	-0.569755	0.139477	-0.566551
H418	H	-0.026592	0.769544	-1.116530
H419	H	-0.026582	0.373256	-0.863248
H420	H	-0.301362	0.320561	-1.161563
H421	H	-0.019265	0.859902	-1.161573
C422	C	-0.018663	0.867338	-1.319863
C423	C	-0.061833	0.935370	-1.364692
C424	C	-0.059602	0.962851	-1.421833
C425	C	-0.014201	0.922301	-1.434144
C426	C	0.028972	0.854266	-1.389312
C427	C	0.026741	0.826784	-1.332172
H428	H	-0.095444	0.965391	-1.355581
H429	H	-0.091561	1.013216	-1.455020
H430	H	-0.012549	0.942645	-1.476442
H431	H	0.062583	0.824244	-1.398424
H432	H	0.058700	0.776419	-1.298985
C433	C	-0.452928	0.301421	-0.588049
C434	C	-0.472055	0.300894	-0.541526
C435	C	-0.501878	0.360227	-0.543730
C436	C	-0.512574	0.420087	-0.592457
C437	C	-0.493448	0.420616	-0.638983
C438	C	-0.463625	0.361283	-0.636779
H439	H	-0.464136	0.256580	-0.505453
H440	H	-0.516036	0.359835	-0.509288
H441	H	-0.534651	0.464009	-0.594089
H442	H	-0.501366	0.464930	-0.675056
H443	H	-0.449466	0.361675	-0.671221
C444	C	-0.452210	0.470764	-1.319857
C445	C	-0.428983	0.490703	-1.364685
C446	C	-0.458629	0.518113	-1.421826
C447	C	-0.511503	0.525584	-1.434140
C448	C	-0.534733	0.505644	-1.389311
C449	C	-0.505086	0.478234	-1.332169
H450	H	-0.389840	0.485174	-1.355571
H451	H	-0.441433	0.532874	-1.455012
H452	H	-0.533449	0.545874	-1.476439
H453	H	-0.573875	0.511173	-1.398425
H454	H	-0.522283	0.463473	-1.298984
H455	H	-0.841235	0.860244	-1.305726
C456	C	-0.452225	0.470752	-0.757808
C457	C	-0.505100	0.478223	-0.752969
C458	C	-0.534752	0.505640	-0.723254
C459	C	-0.511530	0.525587	-0.698378
C460	C	-0.458653	0.518117	-0.703217
C461	C	-0.429001	0.490699	-0.732932
H462	H	-0.522292	0.463457	-0.771384
H463	H	-0.573895	0.511170	-0.719672
H464	H	-0.533480	0.545883	-0.676381
H465	H	-0.441460	0.532883	-0.684801
H466	H	-0.389858	0.485170	-0.736513
H467	H	-0.026583	0.769846	-1.259983
C468	C	-0.018690	0.471487	-1.320564
C469	C	-0.065198	0.537117	-1.366569
C470	C	-0.062973	0.564718	-1.423712
C471	C	-0.014241	0.526687	-1.434849
C472	C	0.032270	0.461053	-1.388843
C473	C	0.030045	0.433453	-1.331700
H474	H	-0.101276	0.565273	-1.358326
H475	H	-0.097404	0.613305	-1.457769
H476	H	-0.012594	0.547118	-1.477150
H477	H	0.068348	0.432897	-1.397086
H478	H	0.064476	0.384866	-1.297643
C479	C	-0.286900	-0.261115	-0.588073
C480	C	-0.274589	-0.220565	-0.633475
C481	C	-0.217449	-0.248047	-0.635706
C482	C	-0.172621	-0.316079	-0.592536
C483	C	-0.184931	-0.356633	-0.547130
C484	C	-0.242070	-0.329151	-0.544899
H485	H	-0.307774	-0.170200	-0.665436
H486	H	-0.208337	-0.218025	-0.669319
H487	H	-0.130323	-0.336422	-0.594187
H488	H	-0.151745	-0.406998	-0.515170
H489	H	-0.251183	-0.359173	-0.511287
C490	C	-0.018667	0.305479	-0.757808
C491	C	0.030063	0.245709	-0.708578
C492	C	0.032285	0.186363	-0.678865
C493	C	-0.014221	0.186787	-0.698381
C494	C	-0.062954	0.246560	-0.747614
C495	C	-0.065177	0.305906	-0.777327
H496	H	0.064493	0.245393	-0.694128
H497	H	0.068361	0.142116	-0.642420
H498	H	-0.012576	0.142856	-0.676386
H499	H	-0.097384	0.246875	-0.762063
H500	H	-0.101252	0.350153	-0.813772
H501	H	-0.489860	0.516311	-1.259979
C502	C	-0.848563	1.134697	-1.153826
C503	C	-0.828901	1.069065	-1.134689
C504	C	-0.858425	1.041449	-1.104860
C505	C	-0.907611	1.079465	-1.094167
C506	C	-0.927276	1.145100	-1.113305
C507	C	-0.897752	1.172717	-1.143134
H508	H	-0.792488	1.040921	-1.142604
H509	H	-0.843868	0.992861	-1.090693
H510	H	-0.929467	1.059021	-1.072086
H511	H	-0.963689	1.173245	-1.105390
H512	H	-0.912309	1.221305	-1.157301
C513	C	-0.018676	0.305488	-1.154869
C514	C	0.026723	0.247793	-1.101993
C515	C	0.028950	0.188444	-1.072346
C516	C	-0.014222	0.186791	-1.095574
C517	C	-0.059625	0.244489	-1.148452
C518	C	-0.061852	0.303837	-1.178099
H519	H	0.058685	0.249014	-1.084796
H520	H	0.062561	0.145732	-1.033202
H521	H	-0.012573	0.142857	-1.073627
H522	H	-0.091587	0.243267	-1.165649
H523	H	-0.095463	0.346549	-1.217243
H524	H	-0.841230	1.285318	-1.305011
C525	C	-0.027163	0.366089	-1.102374
C526	C	-0.024933	0.306741	-1.072723
C527	C	-0.027147	0.279135	-1.015576
C528	C	-0.031590	0.310877	-0.988081
C529	C	-0.033820	0.370228	-1.017732
C530	C	-0.031607	0.397835	-1.074879
H531	H	-0.021643	0.283241	-1.093076
H532	H	-0.025496	0.235199	-0.993626
H533	H	-0.033229	0.290441	-0.945777
H534	H	-0.037110	0.393729	-0.997379
H535	H	-0.033257	0.441770	-1.096829
H536	H	-0.346776	-0.163625	-0.580155
H537	H	-0.490220	0.233339	-0.580131
H538	H	-0.743183	0.233349	-0.580145
H539	H	-0.426730	0.996551	-1.036963
H540	H	-0.569782	1.139531	-1.180052
H541	H	-0.445185	0.746317	-0.765849
C542	C	-0.848576	0.301427	-0.588056
C543	C	-0.828929	0.300923	-0.541548
C544	C	-0.858461	0.360269	-0.543774
C545	C	-0.907641	0.420120	-0.592508
C546	C	-0.927291	0.420626	-0.639020
C547	C	-0.897758	0.361279	-0.636794
H548	H	-0.792521	0.256616	-0.505469
H549	H	-0.843915	0.359894	-0.509342
H550	H	-0.929503	0.464052	-0.594155
H551	H	-0.963699	0.464933	-0.675099
H552	H	-0.912304	0.361654	-0.671225
H553	H	-0.569765	0.996485	-1.036993
C554	C	-0.505068	0.843818	-0.871291
C555	C	-0.534894	0.816505	-0.841768
C556	C	-0.592030	0.843981	-0.871492
C557	C	-0.619340	0.898769	-0.930741
C558	C	-0.589514	0.926086	-0.960269
C559	C	-0.532378	0.898610	-0.930544
H560	H	-0.514677	0.775945	-0.797905
H561	H	-0.614109	0.823759	-0.849634
H562	H	-0.661635	0.919108	-0.952745
H563	H	-0.609730	0.966646	-1.004131
H564	H	-0.510299	0.918832	-0.952402
H565	H	-0.743513	1.232985	-1.259971
H566	H	-0.743497	0.090258	-0.580155
C567	C	-0.505069	-0.156185	-0.579558
C568	C	-0.532378	-0.101401	-0.575112
C569	C	-0.589515	-0.073925	-0.572874
C570	C	-0.619344	-0.101232	-0.575083
C571	C	-0.592035	-0.156019	-0.579529
C572	C	-0.534898	-0.183496	-0.581767
H573	H	-0.510298	-0.081184	-0.573476
H574	H	-0.609731	-0.033368	-0.569583
H575	H	-0.661640	-0.080893	-0.573427
H576	H	-0.614116	-0.176237	-0.581165
H577	H	-0.514682	-0.224053	-0.585059
H578	H	-0.301740	0.142934	-0.587504
C579	C	-0.319313	0.299280	-0.453070
C580	C	-0.333594	0.359225	-0.461339
C581	C	-0.391768	0.416609	-0.490055
C582	C	-0.435660	0.414049	-0.510501
C583	C	-0.421380	0.354102	-0.502232
C584	C	-0.363207	0.296717	-0.473517
H585	H	-0.301102	0.361122	-0.446203
H586	H	-0.402338	0.460986	-0.496175
H587	H	-0.478723	0.456529	-0.531758
H588	H	-0.453873	0.352204	-0.517368
H589	H	-0.352636	0.252340	-0.467396
H590	H	-0.743519	0.769890	-1.260378
