data_functionalizedCrystal
_audit_creation_method	'MofGen! by Chris Wilmer'
_symmetry_space_group_name_H-M	'P1'
_symmetry_Int_Tables_number	1
_symmetry_cell_setting	triclinic
loop_
_symmetry_equiv_pos_as_xyz
  x,y,z
_cell_length_a	18.050591
_cell_length_b	18.050590
_cell_length_c	18.050582
_cell_angle_alpha	90.023337
_cell_angle_beta	90.020922
_cell_angle_gamma	90.014558
loop_
_atom_site_label
_atom_site_type_symbol
_atom_site_fract_x
_atom_site_fract_y
_atom_site_fract_z
Zn1	Zn	1.135342	-0.295786	0.420027
Zn2	Zn	1.635342	0.204214	0.920027
Zn3	Zn	1.135274	-0.419969	0.295836
Zn4	Zn	1.635274	0.080031	0.795836
Zn5	Zn	1.011162	-0.295789	0.295839
Zn6	Zn	1.511162	0.204211	0.795839
Zn7	Zn	1.011131	-0.419930	0.419971
Zn8	Zn	1.511131	0.080070	0.919971
O9	O	1.073227	-0.357868	0.357918
O10	O	1.573227	0.142132	0.857918
O11	O	1.239258	-0.312274	0.403576
O12	O	1.739258	0.187726	0.903576
O13	O	1.118795	-0.403514	0.191912
O14	O	1.618795	0.096486	0.691912
O15	O	1.027676	-0.191864	0.312337
O16	O	1.527676	0.308136	0.812337
O17	O	1.239208	-0.403511	0.312332
O18	O	1.739208	0.096489	0.812332
O19	O	1.118911	-0.191862	0.403578
O20	O	1.618911	0.308138	0.903578
O21	O	1.027610	-0.312279	0.191914
O22	O	1.527610	0.187721	0.691914
O23	O	0.907233	-0.312241	0.312283
O24	O	1.407233	0.187759	0.812283
O25	O	1.027623	-0.403444	0.523903
O26	O	1.527623	0.096556	1.023903
O27	O	0.907210	-0.403447	0.403482
O28	O	1.407210	0.096553	0.903482
O29	O	1.118881	-0.312236	0.523945
O30	O	1.618881	0.187764	1.023945
O31	O	1.118765	-0.523888	0.312278
O32	O	1.618765	-0.023888	0.812278
O33	O	1.027557	-0.523860	0.403480
O34	O	1.527557	-0.023860	0.903480
C35	C	0.880275	-0.357841	0.357877
C36	C	1.380275	0.142159	0.857877
C37	C	0.797729	-0.357847	0.357877
C38	C	1.297729	0.142153	0.857877
C39	C	1.073170	-0.550820	0.357889
C40	C	1.573170	-0.050820	0.857889
C41	C	1.073214	-0.633366	0.357901
C42	C	1.573214	-0.133366	0.857901
C43	C	0.598269	-0.308191	0.308397
C44	C	1.098269	0.191809	0.808397
C45	C	0.548861	-0.375927	0.290120
C46	C	1.048861	0.124073	0.790120
C47	C	0.646599	-0.357869	0.357911
C48	C	1.146599	0.142131	0.857911
C49	C	0.548925	-0.290157	0.376186
C50	C	1.048925	0.209843	0.876186
C51	C	0.500614	-0.357885	0.357942
C52	C	1.000614	0.142115	0.857942
C53	C	0.598278	-0.425641	0.339598
C54	C	1.098278	0.074359	0.839598
C55	C	0.598346	-0.339825	0.425696
C56	C	1.098346	0.160175	0.925696
C57	C	0.548961	-0.407607	0.407445
C58	C	1.048961	0.092393	0.907445
C59	C	0.730697	-0.357859	0.357891
C60	C	1.230697	0.142141	0.857891
C61	C	0.416517	-0.357903	0.357962
C62	C	0.916517	0.142097	0.857962
C63	C	1.122916	-0.832806	0.308375
C64	C	1.622916	-0.332806	0.808375
C65	C	1.141051	-0.882145	0.376157
C66	C	1.641051	-0.382145	0.876157
C67	C	1.073256	-0.784497	0.357930
C68	C	1.573256	-0.284497	0.857930
C69	C	1.055196	-0.882238	0.290179
C70	C	1.555196	-0.382238	0.790179
C71	C	1.073298	-0.930482	0.357953
C72	C	1.573298	-0.430482	0.857953
C73	C	1.091426	-0.832749	0.425748
C74	C	1.591426	-0.332749	0.925748
C75	C	1.005539	-0.832838	0.339725
C76	C	1.505539	-0.332838	0.839725
C77	C	1.023649	-0.882155	0.407554
C78	C	1.523649	-0.382155	0.907554
C79	C	1.073233	-0.700398	0.357916
C80	C	1.573233	-0.200398	0.857916
C81	C	1.073320	-1.014578	0.357975
C82	C	1.573320	-0.514578	0.857975
C83	C	1.266933	-0.357897	0.357960
C84	C	1.766933	0.142103	0.857960
C85	C	1.349479	-0.357909	0.357978
C86	C	1.849479	0.142091	0.857978
C87	C	1.073256	-0.357835	0.551624
C88	C	1.573256	0.142165	1.051624
C89	C	1.073269	-0.357821	0.634170
C90	C	1.573269	0.142179	1.134170
C91	C	1.073305	-0.164163	0.357964
C92	C	1.573305	0.335837	0.857964
C93	C	1.073338	-0.081617	0.357984
C94	C	1.573338	0.418383	0.857984
C95	C	1.073241	-0.357848	0.164966
C96	C	1.573241	0.142152	0.664966
C97	C	1.073372	-0.357652	0.082421
C98	C	1.573372	0.142348	0.582421
C99	C	1.023681	-0.407353	0.833598
C100	C	1.523681	0.092647	1.333598
C101	C	1.091439	-0.425511	0.882996
C102	C	1.591439	0.074489	1.382996
C103	C	1.073305	-0.357765	0.785300
C104	C	1.573305	0.142235	1.285300
C105	C	1.005584	-0.339586	0.882984
C106	C	1.505584	0.160414	1.382984
C107	C	1.073335	-0.357711	0.931285
C108	C	1.573335	0.142289	1.431285
C109	C	1.141099	-0.375958	0.833611
C110	C	1.641099	0.124042	1.333611
C111	C	1.055199	-0.290002	0.833594
C112	C	1.555199	0.209998	1.333594
C113	C	1.123004	-0.308134	0.882970
C114	C	1.623004	0.191866	1.382970
C115	C	1.073287	-0.357797	0.701202
C116	C	1.573287	0.142203	1.201202
C117	C	1.073360	-0.357679	1.015382
C118	C	1.573360	0.142321	1.515382
H119	H	0.527126	-0.391201	0.232809
H120	H	1.027126	0.108799	0.732809
N121	N	1.217001	-0.396383	0.805013
N122	N	1.717001	0.103617	1.305013
H123	H	1.216516	-0.396298	0.749061
H124	H	1.716516	0.103702	1.249061
H125	H	1.230756	-0.447369	0.823474
H126	H	1.730756	0.052631	1.323474
N127	N	1.216926	-0.910848	0.396570
N128	N	1.716926	-0.410848	0.896570
H129	H	1.213354	-0.941612	0.443158
H130	H	1.713354	-0.441612	0.943158
H131	H	1.251449	-0.867680	0.405318
H132	H	1.751449	-0.367680	0.905318
H133	H	1.039846	-0.232736	0.811878
H134	H	1.539846	0.267264	1.311878
H135	H	1.165031	-0.266177	0.904511
H136	H	1.665031	0.233823	1.404511
H137	H	0.619866	-0.482928	0.324091
H138	H	1.119866	0.017072	0.824091
N139	N	1.111755	-0.501384	0.911742
N140	N	1.611755	-0.001384	1.411742
H141	H	1.074231	-0.538829	0.893787
H142	H	1.574231	-0.038829	1.393787
H143	H	1.112101	-0.500612	0.967688
H144	H	1.612101	-0.000612	1.467688
H145	H	0.948301	-0.324232	0.904672
H146	H	1.448301	0.175768	1.404672
H147	H	0.981754	-0.449342	0.811921
H148	H	1.481754	0.050658	1.311921
N149	N	1.111769	-0.804086	0.501681
N150	N	1.611769	-0.304086	1.001681
H151	H	1.111649	-0.748135	0.501199
H152	H	1.611649	-0.248135	1.001199
H153	H	1.162757	-0.822511	0.515509
H154	H	1.662757	-0.322511	1.015509
H155	H	0.527446	-0.449673	0.449330
H156	H	1.027446	0.050327	0.949330
H157	H	0.527208	-0.232894	0.391604
H158	H	1.027208	0.267106	0.891604
N159	N	0.626957	-0.252603	0.252879
N160	N	1.126957	0.247397	0.752879
H161	H	0.608955	-0.266341	0.201699
H162	H	1.108955	0.233659	0.701699
H163	H	0.682903	-0.252682	0.253660
H164	H	1.182903	0.247318	0.753660
N165	N	0.627173	-0.319572	0.501586
N166	N	1.127173	0.180428	1.001586
H167	H	0.608455	-0.356562	0.539147
H168	H	1.108455	0.143438	1.039147
H169	H	0.609249	-0.268367	0.515271
H170	H	1.109249	0.231633	1.015271
N171	N	1.178555	-0.804097	0.252917
N172	N	1.678555	-0.304097	0.752917
H173	H	1.229710	-0.822032	0.266779
H174	H	1.729710	-0.322032	0.766779
H175	H	1.177747	-0.748151	0.252990
H176	H	1.677747	-0.248151	0.752990
H177	H	0.981672	-0.903687	0.449520
H178	H	1.481672	-0.403687	0.949520
H179	H	0.948271	-0.811161	0.324291
H180	H	1.448271	-0.311161	0.824291
H181	H	1.039904	-0.903976	0.232873
H182	H	1.539904	-0.403976	0.732873
