data_functionalizedCrystal
_audit_creation_method	'MofGen! by Chris Wilmer'
_symmetry_space_group_name_H-M	'P1'
_symmetry_Int_Tables_number	1
_symmetry_cell_setting	triclinic
loop_
_symmetry_equiv_pos_as_xyz
  x,y,z
_cell_length_a	29.839134
_cell_length_b	16.959454
_cell_length_c	16.959447
_cell_angle_alpha	89.973264
_cell_angle_beta	90.025176
_cell_angle_gamma	89.985063
loop_
_atom_site_label
_atom_site_type_symbol
_atom_site_fract_x
_atom_site_fract_y
_atom_site_fract_z
Zn1	Zn	0.686800	0.314774	0.447157
Zn2	Zn	1.186800	0.814774	0.947157
Zn3	Zn	0.686756	0.446967	0.314987
Zn4	Zn	1.186756	0.946967	0.814987
Zn5	Zn	0.611679	0.314794	0.314970
Zn6	Zn	1.111679	0.814794	0.814970
Zn7	Zn	0.611659	0.446903	0.447101
Zn8	Zn	1.111659	0.946903	0.947101
O9	O	0.649224	0.380859	0.381054
O10	O	1.149224	0.880859	0.881054
O11	O	0.749662	0.332328	0.429656
O12	O	1.249662	0.832328	0.929656
O13	O	0.676787	0.429469	0.204374
O14	O	1.176787	0.929469	0.704374
O15	O	0.621671	0.204181	0.332521
O16	O	1.121671	0.704181	0.832521
O17	O	0.749629	0.429449	0.332551
O18	O	1.249629	0.929449	0.832551
O19	O	0.676862	0.204166	0.429639
O20	O	1.176862	0.704166	0.929639
O21	O	0.621628	0.332362	0.204361
O22	O	1.121628	0.832362	0.704361
O23	O	0.548809	0.332300	0.332466
O24	O	1.048809	0.832300	0.832466
O25	O	0.621637	0.429341	0.557719
O26	O	1.121637	0.929341	1.057719
O27	O	0.548795	0.429360	0.429542
O28	O	1.048795	0.929360	0.929542
O29	O	0.676843	0.332266	0.557761
O30	O	1.176843	0.832266	1.057761
O31	O	0.676768	0.557569	0.332496
O32	O	1.176768	1.057569	0.832496
O33	O	0.621594	0.557522	0.429559
O34	O	1.121594	1.057522	0.929559
C35	C	0.532501	0.380826	0.380997
C36	C	1.032501	0.880826	0.880997
C37	C	0.482567	0.380831	0.380991
C38	C	0.982567	0.880831	0.880991
C39	C	0.649186	0.586226	0.381040
C40	C	1.149186	1.086226	0.881040
C41	C	0.649211	0.674082	0.381061
C42	C	1.149211	1.174082	0.881061
C43	C	0.649242	0.380794	0.587222
C44	C	1.149242	0.880794	1.087222
C45	C	0.649250	0.380766	0.675079
C46	C	1.149250	0.880766	1.175079
C47	C	0.172925	0.431473	0.431539
C48	C	0.672925	0.931473	0.931539
C49	C	-0.014748	0.431495	0.431574
C50	C	0.485252	0.931495	0.931574
O51	O	-0.039011	0.474516	0.474518
O52	O	0.460989	0.974516	0.974518
N53	N	-0.038218	0.380888	0.381113
N54	N	0.461782	0.880888	0.881113
C55	C	-0.014768	0.330269	0.330643
C56	C	0.485232	0.830269	0.830643
O57	O	-0.039037	0.287219	0.287730
O58	O	0.460963	0.787219	0.787730
C59	C	0.172905	0.330243	0.330613
C60	C	0.672905	0.830243	0.830613
C61	C	0.196373	0.380859	0.381071
C62	C	0.696373	0.880859	0.881071
C63	C	0.196393	0.482084	0.481994
C64	C	0.696393	0.982084	0.981994
C65	C	0.243309	0.482081	0.481982
C66	C	0.743309	0.982081	0.981982
C67	C	0.266756	0.431467	0.431514
C68	C	0.766756	0.931467	0.931514
C69	C	0.243288	0.380856	0.381059
C70	C	0.743288	0.880856	0.881059
C71	C	0.196354	0.279620	0.280147
C72	C	0.696354	0.779620	0.780147
C73	C	0.243275	0.279616	0.280146
C74	C	0.743275	0.779616	0.780146
C75	C	0.266743	0.330232	0.330604
C76	C	0.766743	0.830232	0.830604
C77	C	0.313651	0.330239	0.330579
C78	C	0.813651	0.830239	0.830579
N79	N	0.337121	0.380846	0.381040
N80	N	0.837121	0.880846	0.881040
C81	C	0.313674	0.431460	0.431508
C82	C	0.813674	0.931460	0.931508
C83	C	-0.113298	0.330287	0.330662
C84	C	0.386702	0.830287	0.830662
C85	C	-0.160216	0.330294	0.330668
C86	C	0.339784	0.830294	0.830668
C87	C	-0.160193	0.431520	0.431601
C88	C	0.339807	0.931520	0.931601
C89	C	-0.113274	0.431516	0.431589
C90	C	0.386726	0.931516	0.931589
C91	C	-0.089828	0.380894	0.381123
C92	C	0.410172	0.880894	0.881123
C93	C	0.412200	0.431450	0.431478
C94	C	0.912200	0.931450	0.931478
C95	C	0.459119	0.431445	0.431459
C96	C	0.959119	0.931445	0.931459
C97	C	0.459092	0.330216	0.330530
C98	C	0.959092	0.830216	0.830530
C99	C	0.412177	0.330224	0.330545
C100	C	0.912177	0.830224	0.830545
C101	C	0.388732	0.380844	0.381026
C102	C	0.888732	0.880844	0.881026
O103	O	0.337943	0.287234	0.287664
O104	O	0.837943	0.787234	0.787664
O105	O	0.337951	0.474491	0.474428
O106	O	0.837951	0.974491	0.974428
C107	C	0.126010	0.431476	0.431551
C108	C	0.626010	0.931476	0.931551
C109	C	0.102542	0.380865	0.381096
C110	C	0.602542	0.880865	0.881096
C111	C	0.125989	0.330251	0.330629
C112	C	0.625989	0.830251	0.830629
C113	C	0.055624	0.380872	0.381103
C114	C	0.555624	0.880872	0.881103
C115	C	0.032176	0.431486	0.431570
C116	C	0.532176	0.931486	0.931570
C117	C	0.055647	0.482093	0.482031
C118	C	0.555647	0.982093	0.982031
C119	C	0.102562	0.482090	0.482019
C120	C	0.602562	0.982090	0.982019
C121	C	0.102519	0.279644	0.280167
C122	C	0.602519	0.779644	0.780167
C123	C	0.055603	0.279652	0.280183
C124	C	0.555603	0.779652	0.780183
C125	C	0.032156	0.330266	0.330651
C126	C	0.532156	0.830266	0.830651
C127	C	0.766402	0.380894	0.381111
C128	C	1.266402	0.880894	0.881111
C129	C	0.816336	0.380908	0.381136
C130	C	1.316336	0.880908	0.881136
C131	C	0.649274	0.174691	0.381084
C132	C	1.149274	0.674691	0.881084
C133	C	0.649295	0.086835	0.381098
C134	C	1.149295	0.586835	0.881098
C135	C	0.620536	1.045563	0.431589
C136	C	1.120536	1.545563	0.931589
C137	C	0.678036	1.045552	0.330599
C138	C	1.178036	1.545552	0.830599
C139	C	0.678020	0.963006	0.330591
C140	C	1.178020	1.463006	0.830591
C141	C	0.649262	0.921735	0.381083
C142	C	1.149262	1.421735	0.881083
C143	C	0.620519	0.963010	0.431582
C144	C	1.120519	1.463010	0.931582
C145	C	0.706760	0.921726	0.280088
C146	C	1.206760	1.421726	0.780088
C147	C	0.706745	0.839175	0.280078
C148	C	1.206745	1.339175	0.780078
C149	C	0.677988	0.797902	0.330574
C150	C	1.177988	1.297902	0.830574
C151	C	0.649244	0.839182	0.381076
C152	C	1.149244	1.339182	0.881076
C153	C	0.620486	0.797910	0.431567
C154	C	1.120486	1.297910	0.931567
C155	C	0.591744	0.839189	0.482073
C156	C	1.091744	1.339189	0.982073
C157	C	0.591762	0.921737	0.482078
C158	C	1.091762	1.421737	0.982078
C159	C	0.677970	0.715354	0.330569
C160	C	1.177970	1.215354	0.830569
C161	C	0.620468	0.715357	0.431560
C162	C	1.120468	1.215357	0.931560
C163	C	0.649231	0.380868	0.175687
C164	C	1.149231	0.880868	0.675687
C165	C	0.649310	0.380673	0.087831
C166	C	1.149310	0.880673	0.587831
C167	C	0.620561	0.431225	1.046535
C168	C	1.120561	0.931225	1.546535
C169	C	0.678047	0.330141	1.046574
C170	C	1.178047	0.830141	1.546574
C171	C	0.678035	0.330157	0.964028
C172	C	1.178035	0.830157	1.464028
C173	C	0.649286	0.380709	0.922732
C174	C	1.149286	0.880709	1.422732
C175	C	0.620549	0.431245	0.963982
C176	C	1.120549	0.931245	1.463982
C177	C	0.706775	0.279629	0.922772
C178	C	1.206775	0.779629	1.422772
C179	C	0.706765	0.279644	0.840221
C180	C	1.206765	0.779644	1.340221
C181	C	0.678013	0.330193	0.798923
C182	C	1.178013	0.830193	1.298923
C183	C	0.649274	0.380729	0.840178
C184	C	1.149274	0.880729	1.340178
C185	C	0.620525	0.431282	0.798882
C186	C	1.120525	0.931282	1.298882
C187	C	0.591784	0.481815	0.840136
C188	C	1.091784	0.981815	1.340136
C189	C	0.591797	0.481794	0.922684
C190	C	1.091797	0.981794	1.422684
C191	C	0.678000	0.330214	0.716375
C192	C	1.178000	0.830214	1.216375
C193	C	0.620513	0.431301	0.716328
C194	C	1.120513	0.931301	1.216328
H195	H	0.478225	0.472665	0.472549
H196	H	0.978225	0.972665	0.972549
F197	F	0.589861	0.671439	0.485305
F198	F	1.089861	1.171439	0.985305
H199	H	0.478192	0.289010	0.289438
H200	H	0.978192	0.789010	0.789438
H201	H	0.730184	0.238477	0.956401
H202	H	1.230184	0.738477	1.456401
F203	F	0.737353	0.225861	0.796323
F204	F	1.237353	0.725861	1.296323
F205	F	0.589972	0.485001	1.090439
F206	F	1.089972	0.985001	1.590439
H207	H	0.568326	0.805576	0.523180
H208	H	1.068326	1.305576	1.023180
F209	F	-0.088350	0.276403	0.276945
F210	F	0.411650	0.776403	0.776945
H211	H	0.597098	0.472461	0.682711
H212	H	1.097098	0.972461	1.182711
F213	F	0.737366	0.965653	0.226358
F214	F	1.237366	1.465653	0.726358
H215	H	0.177255	0.238405	0.239056
H216	H	0.677255	0.738405	0.739056
F217	F	-0.088302	0.485387	0.485295
F218	F	0.411698	0.985387	0.985295
H219	H	0.568399	0.522938	0.956280
H220	H	1.068399	1.022938	1.456280
F221	F	0.708646	0.276348	1.090526
F222	F	1.208646	0.776348	1.590526
H223	H	0.701402	0.289073	0.682790
H224	H	1.201402	0.789073	1.182790
H225	H	0.036499	0.238435	0.239086
H226	H	0.536499	0.738435	0.739086
H227	H	0.262363	0.238388	0.239054
H228	H	0.762363	0.738388	0.739054
F229	F	0.737337	0.795251	0.226331
F230	F	1.237337	1.295251	0.726331
H231	H	0.393116	0.472667	0.472586
H232	H	0.893116	0.972667	0.972586
F233	F	0.708641	1.089478	0.276865
F234	F	1.208641	1.589478	0.776865
F235	F	0.171446	0.535959	0.535715
F236	F	0.671446	1.035959	1.035715
F237	F	0.268279	0.535951	0.535691
F238	F	0.768279	1.035951	1.035691
H239	H	0.701369	0.681749	0.289444
H240	H	1.201369	1.181749	0.789444
H241	H	-0.179292	0.472732	0.472693
H242	H	0.320708	0.972732	0.972693
F243	F	0.561190	0.535618	0.796176
F244	F	1.061190	1.035618	1.296176
F245	F	0.387200	0.276365	0.276830
F246	F	0.887200	0.776365	0.776830
F247	F	-0.185187	0.276431	0.276954
F248	F	0.314813	0.776431	0.776954
H249	H	0.121666	0.523307	0.523108
H250	H	0.621666	1.023307	1.023108
H251	H	0.036548	0.523308	0.523122
H252	H	0.536548	1.023308	1.023122
H253	H	0.121605	0.238427	0.239070
H254	H	0.621605	0.738427	0.739070
H255	H	0.597137	1.079176	0.472712
H256	H	1.097137	1.579176	0.972712
F257	F	0.561175	0.965673	0.535824
F258	F	1.061175	1.465673	1.035824
