data_functionalizedCrystal
_audit_creation_method	'MofGen! by Chris Wilmer'
_symmetry_space_group_name_H-M	'P1'
_symmetry_Int_Tables_number	1
_symmetry_cell_setting	triclinic
loop_
_symmetry_equiv_pos_as_xyz
  x,y,z
_cell_length_a	18.215407
_cell_length_b	14.908520
_cell_length_c	18.215399
_cell_angle_alpha	86.730636
_cell_angle_beta	90.019833
_cell_angle_gamma	93.321174
loop_
_atom_site_label
_atom_site_type_symbol
_atom_site_fract_x
_atom_site_fract_y
_atom_site_fract_z
Zn1	Zn	1.108178	-0.359158	0.433017
Zn2	Zn	1.100989	-0.510027	0.317051
Zn3	Zn	0.985109	-0.359188	0.309966
Zn4	Zn	0.977982	-0.509977	0.440073
O5	O	1.043064	-0.434588	0.375027
O6	O	1.210208	-0.379180	0.417646
O7	O	1.085592	-0.490052	0.213128
O8	O	1.007425	-0.232939	0.320371
O9	O	1.204927	-0.490023	0.332446
O10	O	1.097843	-0.232917	0.410776
O11	O	1.000455	-0.379230	0.207923
O12	O	0.881180	-0.379182	0.327213
O13	O	0.995278	-0.489937	0.542120
O14	O	0.875943	-0.489966	0.422802
O15	O	1.090932	-0.379131	0.536936
O16	O	1.078681	-0.636266	0.339288
O17	O	0.988308	-0.636229	0.429672
C18	C	0.851859	-0.434572	0.375005
C19	C	0.770059	-0.434587	0.375014
C20	C	0.579154	-0.492363	0.424733
C21	C	0.502295	-0.492366	0.424742
C22	C	0.507726	-0.376828	0.325338
C23	C	0.584584	-0.376822	0.325333
C24	C	0.620295	-0.434594	0.375029
C25	C	0.466579	-0.434604	0.375044
C26	C	0.383245	-0.434606	0.375053
C27	C	0.703635	-0.434591	0.375021
C28	C	1.031961	-0.668981	0.386030
C29	C	1.027278	-0.769256	0.390762
C30	C	1.112681	-0.957660	0.305613
C31	C	1.108284	-1.051877	0.310057
C32	C	1.014091	-1.051908	0.404097
C33	C	1.018488	-0.957691	0.399653
C34	C	1.067784	-0.910570	0.350409
C35	C	1.072177	-0.816352	0.345962
C36	C	0.977988	-0.816385	0.440005
C37	C	0.973591	-0.910602	0.444449
C38	C	1.235017	-0.434604	0.375049
C39	C	1.316815	-0.434611	0.375059
C40	C	1.043112	-0.434526	0.566977
C41	C	1.043133	-0.434499	0.648775
C42	C	1.054231	-0.199279	0.363996
C43	C	1.058990	-0.099004	0.359296
C44	C	1.043062	-0.434585	0.183820
C45	C	1.043196	-0.434357	0.102011
C46	C	1.092959	-0.376748	0.834268
C47	C	1.092969	-0.376722	0.911126
C48	C	0.993364	-0.492110	0.916513
C49	C	0.993351	-0.492131	0.839656
C50	C	1.043153	-0.434452	0.798536
C51	C	1.043176	-0.434404	0.952250
C52	C	1.043186	-0.434376	1.035582
C53	C	1.043142	-0.434478	0.715198
H54	H	1.112315	-0.777987	0.305863
O55	O	0.473111	-0.320761	0.276962
C56	C	0.490918	-0.340377	0.204507
H57	H	0.545081	-0.375047	0.204559
H58	H	0.496616	-0.275217	0.168533
H59	H	0.445459	-0.386728	0.181839
O60	O	0.613730	-0.548503	0.473081
C61	C	0.560931	-0.599506	0.516941
H62	H	0.507895	-0.562562	0.517804
H63	H	0.582701	-0.609213	0.575367
H64	H	0.549504	-0.667984	0.493121
O65	O	0.462304	-0.548357	0.473095
C66	C	0.420283	-0.497073	0.518281
H67	H	0.446810	-0.426025	0.519584
H68	H	0.417887	-0.529792	0.576409
H69	H	0.362172	-0.493934	0.495391
O70	O	0.624629	-0.320828	0.277016
C71	C	0.666626	-0.372116	0.231812
H72	H	0.674909	-0.440524	0.260889
H73	H	0.722410	-0.335351	0.220271
H74	H	0.636521	-0.381945	0.177723
H75	H	0.941427	-0.778034	0.476478
O76	O	1.152014	-1.097505	0.266572
C77	C	1.226424	-1.074384	0.281664
H78	H	1.231104	-1.005959	0.306739
H79	H	1.259616	-1.071142	0.228436
H80	H	1.248721	-1.127355	0.322019
O81	O	1.160519	-0.911979	0.257679
C82	C	1.143385	-0.935056	0.185404
H83	H	1.111904	-1.003498	0.187081
H84	H	1.196366	-0.938241	0.152600
H85	H	1.108030	-0.882092	0.158088
H86	H	0.973961	-1.090290	0.444194
O87	O	0.925804	-0.956479	0.492321
C88	C	0.965132	-1.010878	0.542475
H89	H	1.020266	-1.024949	0.517242
H90	H	0.932057	-1.077158	0.555432
H91	H	0.974875	-0.974517	0.595307
O92	O	0.945025	-0.548268	0.956384
C93	C	0.956854	-0.638189	0.941831
H94	H	0.985044	-0.640074	0.886120
H95	H	0.901823	-0.678642	0.941088
H96	H	0.993259	-0.668564	0.986516
O97	O	0.945068	-0.548233	0.804862
C98	C	0.984197	-0.606527	0.763156
H99	H	1.041476	-0.574715	0.750166
H100	H	0.953641	-0.618627	0.709669
H101	H	0.989116	-0.673378	0.795906
O102	O	1.141357	-0.320630	0.794433
C103	C	1.185330	-0.269710	0.842457
H104	H	1.155343	-0.266572	0.897090
H105	H	1.196546	-0.198635	0.816923
H106	H	1.239658	-0.302744	0.852189
H107	H	1.133525	-0.329733	0.940215
