data_functionalizedCrystal
_audit_creation_method	'MofGen! by Chris Wilmer'
_symmetry_space_group_name_H-M	'P1'
_symmetry_Int_Tables_number	1
_symmetry_cell_setting	triclinic
loop_
_symmetry_equiv_pos_as_xyz
  x,y,z
_cell_length_a	15.995350
_cell_length_b	15.944551
_cell_length_c	15.072220
_cell_angle_alpha	89.997918
_cell_angle_beta	89.991149
_cell_angle_gamma	83.495557
loop_
_atom_site_label
_atom_site_type_symbol
_atom_site_fract_x
_atom_site_fract_y
_atom_site_fract_z
O1	O	1.111002	0.108264	-0.073709
O2	O	1.611002	0.608264	0.426291
O3	O	0.867227	0.121634	-0.073728
O4	O	1.367227	0.621634	0.426272
O5	O	0.995772	-0.007326	-0.073710
O6	O	1.495772	0.492674	0.426290
O7	O	0.982458	0.237224	-0.073727
O8	O	1.482458	0.737224	0.426273
O9	O	0.995740	-0.007319	0.073855
O10	O	1.495740	0.492681	0.573855
O11	O	0.867196	0.121641	0.073837
O12	O	1.367196	0.621641	0.573837
O13	O	1.110970	0.108271	0.073856
O14	O	1.610970	0.608271	0.573856
Zn15	Zn	0.989078	0.114957	0.097276
Zn16	Zn	1.489078	0.614957	0.597276
Zn17	Zn	0.989120	0.114948	-0.097148
Zn18	Zn	1.489120	0.614948	0.402852
O19	O	0.982426	0.237232	0.073838
O20	O	1.482426	0.737232	0.573838
C21	C	0.836017	0.121085	0.000053
C22	C	1.336017	0.621085	0.500053
C23	C	0.743066	0.119428	0.000046
C24	C	1.243066	0.619428	0.500046
C25	C	0.405318	0.113477	0.000065
C26	C	0.905318	0.613477	0.500065
C27	C	0.452747	0.021634	0.000400
C28	C	0.952747	0.521634	0.500400
C29	C	0.549438	0.023291	0.000061
C30	C	1.049438	0.523291	0.500061
C31	C	0.572879	0.116429	0.000056
C32	C	1.072879	0.616429	0.500056
C33	C	0.531813	0.161725	-0.084211
C34	C	1.031813	0.661725	0.415789
C35	C	0.435177	0.159417	-0.084275
C36	C	0.935177	0.659417	0.415725
C37	C	0.434802	0.161323	0.083534
C38	C	0.934802	0.661323	0.583534
C39	C	0.531747	0.161301	0.084642
C40	C	1.031747	0.661301	0.584642
C41	C	0.667577	0.118102	0.000048
C42	C	1.167577	0.618102	0.500048
C43	C	0.310620	0.111806	0.000067
C44	C	0.810620	0.611806	0.500067
C45	C	0.995203	-0.038616	0.000073
C46	C	1.495203	0.461384	0.500073
C47	C	0.993546	-0.131862	0.000073
C48	C	1.493546	0.368138	0.500073
C49	C	0.909908	-0.346714	0.000054
C50	C	1.409908	0.153286	0.500054
C51	C	0.948731	-0.407730	0.072816
C52	C	1.448731	0.092270	0.572816
C53	C	0.990548	-0.302588	0.000066
C54	C	1.490548	0.197412	0.500066
C55	C	0.948781	-0.407721	-0.072672
C56	C	1.448781	0.092279	0.427328
C57	C	0.987647	-0.467501	0.000055
C58	C	1.487647	0.032499	0.500055
C59	C	1.029394	-0.362376	0.072888
C60	C	1.529394	0.137624	0.572888
C61	C	1.029433	-0.362360	-0.072665
C62	C	1.529433	0.137640	0.427335
C63	C	1.068315	-0.423358	0.000114
C64	C	1.568315	0.076642	0.500114
C65	C	0.992217	-0.207586	0.000073
C66	C	1.492217	0.292414	0.500073
C67	C	0.985984	-0.562502	0.000055
C68	C	1.485984	-0.062502	0.500055
C69	C	1.142181	0.108821	0.000074
C70	C	1.642181	0.608821	0.500074
C71	C	1.235131	0.110478	0.000075
C72	C	1.735131	0.610478	0.500075
C73	C	0.982995	0.268522	0.000053
C74	C	1.482995	0.768522	0.500053
C75	C	0.984652	0.361768	0.000047
C76	C	1.484652	0.861768	0.500047
N77	N	0.989055	0.114963	0.229965
N78	N	1.489055	0.614963	0.729965
N79	N	0.989149	0.114935	-0.229836
N80	N	1.489149	0.614935	0.270164
C81	C	0.989118	0.114945	0.589166
C82	C	1.489118	0.614945	1.089166
C83	C	0.920105	0.183717	0.551550
C84	C	1.420105	0.683717	1.051550
C85	C	0.920264	0.183968	0.448724
C86	C	1.420264	0.683968	0.948724
C87	C	0.989086	0.114954	0.410962
C88	C	1.489086	0.614954	0.910962
C89	C	1.076452	0.134096	0.448258
C90	C	1.576452	0.634096	0.948258
C91	C	1.076065	0.134585	0.551116
C92	C	1.576065	0.634585	1.051116
C93	C	0.971544	0.026826	0.551271
C94	C	1.471544	0.526826	1.051271
C95	C	0.969539	0.027414	0.448407
C96	C	1.469539	0.527414	0.948407
C97	C	0.989074	0.114958	0.310249
C98	C	1.489074	0.614958	0.810249
C99	C	0.989136	0.114943	0.689879
C100	C	1.489136	0.614943	1.189879
H101	H	0.433164	-0.014912	-0.059693
H102	H	0.933164	0.485088	0.440307
H103	H	0.914676	-0.427799	-0.134190
H104	H	1.414676	0.072201	0.365810
C105	C	1.075406	-0.335375	0.156084
C106	C	1.575406	0.164625	0.656084
H107	H	1.076148	-0.275882	0.155596
H108	H	1.576148	0.224118	0.655596
H109	H	1.131508	-0.362307	0.156302
H110	H	1.631508	0.137693	0.656302
H111	H	1.046933	-0.351265	0.207683
H112	H	1.546933	0.148735	0.707683
C113	C	1.158812	-0.468167	0.000175
C114	C	1.658812	0.031833	0.500175
H115	H	1.187307	-0.452654	0.051908
H116	H	1.687307	0.047346	0.551908
H117	H	1.187681	-0.451947	-0.051017
H118	H	1.687681	0.048053	0.448983
H119	H	1.157274	-0.527553	-0.000308
H120	H	1.657274	-0.027553	0.499692
C121	C	1.075485	-0.335162	-0.155760
C122	C	1.575485	0.164838	0.344240
H123	H	1.046762	-0.350506	-0.207411
H124	H	1.546762	0.149494	0.292589
H125	H	1.131442	-0.362460	-0.156279
H126	H	1.631442	0.137540	0.343721
H127	H	1.076642	-0.275729	-0.154864
H128	H	1.576642	0.224271	0.345136
C129	C	0.391610	0.250502	-0.089455
C130	C	0.891610	0.750502	0.410545
H131	H	0.332310	0.249710	-0.089523
H132	H	0.832310	0.749710	0.410477
H133	H	0.408213	0.276381	-0.142401
H134	H	0.908213	0.776381	0.357599
H135	H	0.407423	0.281603	-0.039623
H136	H	0.907423	0.781603	0.460377
H137	H	0.855323	0.172563	0.423509
H138	H	1.355323	0.672563	0.923509
H139	H	1.021871	-0.024352	0.575596
H140	H	1.521871	0.475648	1.075596
H141	H	0.931174	0.248741	0.577385
H142	H	1.431174	0.748741	1.077385
C143	C	0.587091	-0.025131	-0.081681
C144	C	1.087091	0.474869	0.418319
H145	H	0.543284	-0.045886	-0.114816
H146	H	1.043284	0.454114	0.385184
H147	H	0.626057	-0.071097	-0.062893
H148	H	1.126057	0.428903	0.437107
H149	H	0.615150	0.011727	-0.117780
H150	H	1.115150	0.511727	0.382220
H151	H	0.416880	0.126380	-0.147262
H152	H	0.916880	0.626380	0.352738
H153	H	0.434210	-0.015075	0.060831
H154	H	0.934210	0.484925	0.560831
H155	H	0.854955	0.172500	0.576307
H156	H	1.354955	0.672500	1.076307
H157	H	0.931487	0.249360	0.424107
H158	H	1.431487	0.749360	0.924107
C159	C	0.550904	0.254159	-0.088460
C160	C	1.050904	0.754159	0.411540
H161	H	0.584172	0.265974	-0.038763
H162	H	1.084172	0.765974	0.461237
H163	H	0.499619	0.290580	-0.087678
H164	H	0.999619	0.790580	0.412322
H165	H	0.580716	0.262942	-0.141558
H166	H	1.080716	0.762942	0.358442
C167	C	0.902644	-0.434897	0.155907
C168	C	1.402644	0.065103	0.655907
H169	H	0.939960	-0.472570	0.190167
H170	H	1.439960	0.027430	0.690167
H171	H	0.855589	-0.462354	0.138417
H172	H	1.355589	0.037646	0.638417
H173	H	0.883958	-0.386519	0.190409
H174	H	1.383958	0.113481	0.690409
C175	C	0.570149	0.119215	-0.168927
C176	C	1.070149	0.619215	0.331073
H177	H	0.611170	0.073870	-0.153124
H178	H	1.111170	0.573870	0.346876
H179	H	0.595893	0.159331	-0.203024
H180	H	1.095893	0.659331	0.296976
H181	H	0.527029	0.098200	-0.202891
H182	H	1.027029	0.598200	0.297109
C183	C	1.147492	0.068238	0.415214
C184	C	1.647492	0.568238	0.915214
H185	H	1.199752	0.081004	0.438553
H186	H	1.699752	0.581004	0.938553
H187	H	1.149492	0.069425	0.352241
H188	H	1.649492	0.569425	0.852241
H189	H	1.137063	0.013652	0.434478
H190	H	1.637063	0.513652	0.934478
C191	C	0.587827	-0.024808	0.081662
C192	C	1.087827	0.475192	0.581662
H193	H	0.544334	-0.045543	0.115315
H194	H	1.044334	0.454457	0.615315
H195	H	0.616112	0.012214	0.117307
H196	H	1.116112	0.512214	0.617307
H197	H	0.626709	-0.070783	0.062702
H198	H	1.126709	0.429217	0.562702
H199	H	1.091551	0.198850	0.575095
H200	H	1.591551	0.698850	1.075095
H201	H	0.842972	-0.313403	0.000122
H202	H	1.342972	0.186597	0.500122
H203	H	0.414251	0.131301	0.147406
H204	H	0.914251	0.631301	0.647406
C205	C	1.147519	0.069492	0.584735
C206	C	1.647519	0.569492	1.084735
H207	H	1.176659	0.042872	0.535527
H208	H	1.676659	0.542872	1.035527
H209	H	1.124495	0.028216	0.619766
H210	H	1.624495	0.528216	1.119766
H211	H	1.185496	0.097239	0.619639
H212	H	1.685496	0.597239	1.119639
C213	C	1.097873	0.219923	0.413452
C214	C	1.597873	0.719923	0.913452
H215	H	1.053694	0.244201	0.376202
H216	H	1.553694	0.744201	0.876202
H217	H	1.148832	0.212008	0.380581
H218	H	1.648832	0.712008	0.880581
H219	H	1.104291	0.256521	0.462109
H220	H	1.604291	0.756521	0.962109
C221	C	0.887331	0.001977	0.586338
C222	C	1.387331	0.501977	1.086338
H223	H	0.862100	0.045117	0.624422
H224	H	1.362100	0.545117	1.124422
H225	H	0.897109	-0.049506	0.618377
H226	H	1.397109	0.450494	1.118377
H227	H	0.850819	-0.004989	0.537843
H228	H	1.350819	0.495011	1.037843
H229	H	0.905272	0.012886	0.424031
H230	H	1.405272	0.512886	0.924031
C231	C	0.568620	0.116633	0.168860
C232	C	1.068620	0.616633	0.668860
H233	H	0.608918	0.070830	0.152551
H234	H	1.108918	0.570830	0.652551
H235	H	0.524718	0.096002	0.201955
H236	H	1.024718	0.596002	0.701955
H237	H	0.594995	0.155512	0.204024
H238	H	1.094995	0.655512	0.704024
H239	H	0.547115	0.229220	0.089727
H240	H	1.047115	0.729220	0.589727
C241	C	1.033036	-0.044964	0.413700
C242	C	1.533036	0.455036	0.913700
H243	H	1.072478	-0.022641	0.375754
H244	H	1.572478	0.477359	0.875754
H245	H	1.003980	-0.083959	0.381590
H246	H	1.503980	0.416041	0.881590
H247	H	1.061842	-0.072934	0.462355
H248	H	1.561842	0.427066	0.962355
H249	H	0.403044	0.229038	0.084100
H250	H	0.903044	0.729038	0.584100
