data_functionalizedCrystal
_audit_creation_method	'MofGen! by Chris Wilmer'
_symmetry_space_group_name_H-M	'P1'
_symmetry_Int_Tables_number	1
_symmetry_cell_setting	triclinic
loop_
_symmetry_equiv_pos_as_xyz
  x,y,z
_cell_length_a	18.101398
_cell_length_b	21.295417
_cell_length_c	18.101390
_cell_angle_alpha	90.036014
_cell_angle_beta	90.010099
_cell_angle_gamma	90.025259
loop_
_atom_site_label
_atom_site_type_symbol
_atom_site_fract_x
_atom_site_fract_y
_atom_site_fract_z
Zn1	Zn	1.132131	-0.250660	0.418535
Zn2	Zn	1.132029	-0.355940	0.294686
Zn3	Zn	1.008289	-0.250680	0.294727
Zn4	Zn	1.008243	-0.355887	0.418507
O5	O	1.070173	-0.303292	0.356614
O6	O	1.235750	-0.264639	0.402101
O7	O	1.115591	-0.342008	0.191059
O8	O	1.024778	-0.162588	0.311179
O9	O	1.235675	-0.341988	0.311110
O10	O	1.115765	-0.162573	0.402140
O11	O	1.024680	-0.264674	0.191089
O12	O	0.904650	-0.264623	0.311152
O13	O	1.024701	-0.341898	0.522143
O14	O	0.904617	-0.341918	0.402092
O15	O	1.115720	-0.264588	0.522164
O16	O	1.115547	-0.444022	0.311083
O17	O	1.024602	-0.443983	0.402053
C18	C	0.877762	-0.303267	0.356624
C19	C	0.795448	-0.303272	0.356646
C20	C	0.496357	-0.303309	0.356615
C21	C	0.527686	-0.352176	0.413550
C22	C	0.613305	-0.352023	0.413784
C23	C	0.644740	-0.303291	0.356630
C24	C	0.613684	-0.236986	0.377962
C25	C	0.528039	-0.237280	0.378367
C26	C	0.527905	-0.320162	0.278211
C27	C	0.613555	-0.321616	0.278630
C28	C	0.728599	-0.303277	0.356638
C29	C	0.412498	-0.303318	0.356610
C30	C	1.070079	-0.466843	0.356576
C31	C	1.070106	-0.536812	0.356585
C32	C	1.117455	-0.569613	0.403982
C33	C	1.117481	-0.635356	0.404000
C34	C	1.070166	-0.668294	0.356608
C35	C	1.022807	-0.635485	0.309208
C36	C	1.022777	-0.569743	0.309196
N37	N	1.064573	-0.771561	0.291797
N38	N	1.064605	-0.834012	0.291810
C39	C	1.070253	-0.866369	0.356642
N40	N	1.075880	-0.833915	0.421461
N41	N	1.075851	-0.771457	0.421447
C42	C	1.070193	-0.739579	0.356616
C43	C	1.117633	-0.970456	0.404063
C44	C	1.117654	-1.036200	0.404082
C45	C	1.022984	-1.036327	0.309283
C46	C	1.022959	-0.970585	0.309270
C47	C	1.070287	-0.937653	0.356659
C48	C	1.263335	-0.303317	0.356604
C49	C	1.345649	-0.303328	0.356600
C50	C	1.070217	-0.303234	0.549776
C51	C	1.070236	-0.303210	0.632090
C52	C	1.070288	-0.139102	0.356668
C53	C	1.070337	-0.069133	0.356690
C54	C	1.070172	-0.303304	0.164203
C55	C	1.070297	-0.303151	0.081890
C56	C	1.070276	-0.303171	0.931181
C57	C	1.127731	-0.254701	0.899869
C58	C	1.127552	-0.254521	0.814250
C59	C	1.070257	-0.303190	0.782798
C60	C	0.992239	-0.285162	0.813886
C61	C	0.992583	-0.284799	0.899531
C62	C	1.090150	-0.369794	0.899586
C63	C	1.091863	-0.369454	0.813935
C64	C	1.070241	-0.303202	0.698939
C65	C	1.070286	-0.303157	1.015041
H66	H	0.508077	-0.222986	0.435684
H67	H	1.156033	-0.662068	0.442605
H68	H	0.506176	-0.341166	0.471306
H69	H	0.984281	-0.662307	0.270623
H70	H	0.634954	-0.288609	0.233931
Cl71	Cl	0.496623	-0.265210	0.212715
Cl72	Cl	0.963247	-0.528505	0.249607
H73	H	0.975084	-0.237002	0.792454
Cl74	Cl	1.177127	-0.929053	0.463639
Cl75	Cl	1.177175	-1.077437	0.463682
Cl76	Cl	0.963498	-1.077729	0.249706
H77	H	0.634301	-0.401191	0.400413
Cl78	Cl	0.963431	-0.929346	0.249681
H79	H	1.185404	-0.265811	0.793232
H80	H	0.948269	-0.319378	0.793512
H81	H	1.155991	-0.542802	0.442571
Cl82	Cl	0.496040	-0.179161	0.317139
H83	H	0.633860	-0.370407	0.262542
Cl84	Cl	1.217345	-0.271911	0.931664
Cl85	Cl	1.107681	-0.178923	0.933128
Cl86	Cl	1.107239	-0.178320	0.782645
H87	H	0.975735	-0.236098	0.919528
Cl88	Cl	0.495855	-0.428338	0.393146
H89	H	0.633807	-0.340871	0.471876
Cl90	Cl	0.924233	-0.336921	0.931514
Cl91	Cl	1.176479	-0.395109	0.932926
Cl92	Cl	0.645124	-0.179245	0.315941
H93	H	1.149276	-0.383048	0.793615
H94	H	1.053058	-0.407509	0.792522
H95	H	0.635148	-0.222435	0.434656
Cl96	Cl	0.494526	-0.393527	0.248275
H97	H	1.048306	-0.405909	0.919840
