data_functionalizedCrystal
_audit_creation_method	'MofGen! by Chris Wilmer'
_symmetry_space_group_name_H-M	'P1'
_symmetry_Int_Tables_number	1
_symmetry_cell_setting	triclinic
loop_
_symmetry_equiv_pos_as_xyz
  x,y,z
_cell_length_a	10.686220
_cell_length_b	13.897447
_cell_length_c	10.686551
_cell_angle_alpha	94.405975
_cell_angle_beta	89.691918
_cell_angle_gamma	94.401196
loop_
_atom_site_label
_atom_site_type_symbol
_atom_site_fract_x
_atom_site_fract_y
_atom_site_fract_z
Zn1	Zn	1.972263	-0.235165	0.562384
Zn2	Zn	1.956015	-0.409754	0.352625
Zn3	Zn	1.746379	-0.259840	0.368702
Zn4	Zn	1.762446	-0.407799	0.578402
O5	O	1.859276	-0.328140	0.465528
O6	O	2.145651	-0.248816	0.521128
O7	O	1.914683	-0.401012	0.179212
O8	O	1.776418	-0.121579	0.394419
O9	O	2.133714	-0.377086	0.367018
O10	O	1.942375	-0.103451	0.536717
O11	O	1.760664	-0.290871	0.191024
O12	O	1.572967	-0.288976	0.409951
O13	O	1.803802	-0.373754	0.751823
O14	O	1.584772	-0.397681	0.564017
O15	O	1.957954	-0.246920	0.740055
O16	O	1.930262	-0.544482	0.382550
O17	O	1.788048	-0.543046	0.548428
C18	C	1.533353	-0.345794	0.490467
C19	C	1.393924	-0.353369	0.501166
C20	C	1.859171	-0.578761	0.465507
C21	C	1.859245	-0.685969	0.465531
C22	C	1.859308	-0.773034	0.465555
C23	C	1.859398	-0.882260	0.465581
C24	C	2.186471	-0.310416	0.440493
C25	C	2.325902	-0.302864	0.429824
C26	C	1.884483	-0.307367	0.792729
C27	C	1.895224	-0.298515	0.932162
C28	C	1.859417	-0.076536	0.465574
C29	C	1.859477	0.030683	0.465594
C30	C	1.834239	-0.348758	0.139595
C31	C	1.823740	-0.357325	0.000144
H32	H	1.754326	-0.414450	0.951676
N33	N	1.386667	-0.241358	0.342930
N34	N	1.503644	-0.235085	0.334068
H35	H	1.546568	-0.191646	0.272697
N36	N	1.333152	-0.414896	0.588043
N37	N	1.216175	-0.421179	0.596897
H38	H	1.173252	-0.464634	0.658251
N39	N	1.982322	-0.226861	0.992979
N40	N	1.991226	-0.219531	1.109959
H41	H	2.052738	-0.168927	1.152914
