data_functionalizedCrystal
_audit_creation_method	'MofGen! by Chris Wilmer'
_symmetry_space_group_name_H-M	'P1'
_symmetry_Int_Tables_number	1
_symmetry_cell_setting	triclinic
loop_
_symmetry_equiv_pos_as_xyz
  x,y,z
_cell_length_a	17.699083
_cell_length_b	10.654558
_cell_length_c	16.176319
_cell_angle_alpha	89.993130
_cell_angle_beta	89.998611
_cell_angle_gamma	83.885587
loop_
_atom_site_label
_atom_site_type_symbol
_atom_site_fract_x
_atom_site_fract_y
_atom_site_fract_z
O1	O	1.005091	0.158808	-0.068631
O2	O	1.505091	0.658808	0.431369
O3	O	0.784844	0.179470	-0.068658
O4	O	1.284844	0.679470	0.431342
O5	O	0.900029	-0.013688	-0.068638
O6	O	1.400029	0.486312	0.431362
O7	O	0.889907	0.351966	-0.068651
O8	O	1.389907	0.851966	0.431349
O9	O	0.900012	-0.013701	0.068855
O10	O	1.400012	0.486299	0.568855
O11	O	0.784828	0.179457	0.068835
O12	O	1.284828	0.679457	0.568835
O13	O	1.005075	0.158796	0.068862
O14	O	1.505075	0.658796	0.568862
Cu15	Cu	0.894950	0.169126	0.081403
Cu16	Cu	1.394950	0.669126	0.581403
Cu17	Cu	0.894969	0.169140	-0.081199
Cu18	Cu	1.394969	0.669140	0.418801
O19	O	0.889891	0.351954	0.068843
O20	O	1.389891	0.851954	0.568843
C21	C	0.756635	0.178723	0.000085
C22	C	1.256635	0.678723	0.500085
C23	C	0.672602	0.176502	0.000075
C24	C	1.172602	0.676502	0.500075
C25	C	0.624704	0.289882	0.000071
C26	C	1.124704	0.789882	0.500071
C27	C	0.545748	0.287787	0.000082
C28	C	1.045748	0.787787	0.500082
C29	C	0.514691	0.172312	0.000091
C30	C	1.014691	0.672312	0.500091
C31	C	0.562595	0.058924	0.000097
C32	C	1.062595	0.558924	0.500097
C33	C	0.641550	0.061019	0.000092
C34	C	1.141550	0.561019	0.500092
C35	C	0.244178	0.050470	0.000118
C36	C	0.744178	0.550470	0.500118
C37	C	0.165217	0.048383	0.000120
C38	C	0.665217	0.548383	0.500120
C39	C	0.148376	0.277237	0.000108
C40	C	0.648376	0.777237	0.500108
C41	C	0.227331	0.279333	0.000103
C42	C	0.727331	0.779333	0.500103
C43	C	0.275228	0.165946	0.000113
C44	C	0.775228	0.665946	0.500113
C45	C	0.360842	0.168218	0.000103
C46	C	0.860842	0.668218	0.500103
C47	C	0.429079	0.170038	0.000095
C48	C	0.929079	0.670038	0.500095
C49	C	0.899276	-0.060479	0.000108
C50	C	1.399276	0.439521	0.500108
C51	C	0.897049	-0.199883	0.000107
C52	C	1.397049	0.300117	0.500107
C53	C	0.895993	-0.265393	0.075051
C54	C	1.395993	0.234607	0.575051
C55	C	0.893906	-0.396379	0.075043
C56	C	1.393906	0.103621	0.575043
C57	C	0.893929	-0.396333	-0.074860
C58	C	1.393929	0.103667	0.425140
C59	C	0.896021	-0.265351	-0.074851
C60	C	1.396021	0.234649	0.425149
C61	C	0.935298	-0.585167	0.165082
C62	C	1.435298	-0.085167	0.665082
C63	C	0.934229	-0.650678	0.240030
C64	C	1.434229	-0.150678	0.740030
C65	C	0.890627	-0.598431	0.306200
C66	C	1.390627	-0.098431	0.806200
C67	C	0.848076	-0.480670	0.297424
C68	C	1.348076	0.019330	0.797424
C69	C	0.849138	-0.415164	0.222475
C70	C	1.349138	0.084836	0.722475
C71	C	0.892758	-0.467413	0.156308
C72	C	1.392758	0.032587	0.656308
C73	C	0.854623	-0.076559	-0.164884
C74	C	1.354623	0.423441	0.335116
C75	C	0.855680	-0.011049	-0.239834
C76	C	1.355680	0.488951	0.260166
C77	C	0.899277	-0.063293	-0.306011
C78	C	1.399277	0.436707	0.193989
C79	C	0.941817	-0.181055	-0.297244
C80	C	1.441817	0.318945	0.202756
C81	C	0.940760	-0.246565	-0.222294
C82	C	1.440760	0.253435	0.277706
C83	C	0.897164	-0.194312	-0.156117
C84	C	1.397164	0.305688	0.343883
C85	C	1.033285	0.159542	0.000117
C86	C	1.533285	0.659542	0.500117
C87	C	1.117317	0.161764	0.000122
C88	C	1.617317	0.661764	0.500122
C89	C	0.890643	0.398745	0.000094
C90	C	1.390643	0.898745	0.500094
C91	C	0.892871	0.538149	0.000090
C92	C	1.392871	1.038149	0.500090
N93	N	0.894942	0.169115	0.195768
N94	N	1.394942	0.669115	0.695768
N95	N	0.894983	0.169141	-0.195564
N96	N	1.394983	0.669141	0.304436
C97	C	0.945962	0.083619	0.239041
C98	C	1.445962	0.583619	0.739041
C99	C	0.945965	0.083618	0.325588
C100	C	1.445965	0.583618	0.825588
C101	C	0.894953	0.169119	0.368861
C102	C	1.394953	0.669119	0.868861
C103	C	0.843928	0.254618	0.325582
C104	C	1.343928	0.754618	0.825582
C105	C	0.843922	0.254613	0.239036
C106	C	1.343922	0.754613	0.739036
C107	C	0.843955	0.254642	0.674610
C108	C	1.343955	0.754642	1.174610
C109	C	0.843967	0.254643	0.761162
C110	C	1.343967	0.754643	1.261162
C111	C	0.945998	0.083647	0.761162
C112	C	1.445998	0.583647	1.261162
C113	C	0.945992	0.083641	0.674617
C114	C	1.445992	0.583641	1.174617
C115	C	0.894965	0.169136	0.631345
C116	C	1.394965	0.669136	1.131345
C117	C	0.894960	0.169135	0.537501
C118	C	1.394960	0.669135	1.037501
C119	C	0.894961	0.169127	0.462703
C120	C	1.394961	0.669127	0.962703
H121	H	0.506752	0.380113	0.000078
H122	H	1.006752	0.880113	0.500078
H123	H	0.802424	0.324271	0.796393
H124	H	1.302424	0.824271	1.296393
H125	H	0.649984	0.383915	0.000064
H126	H	1.149984	0.883915	0.500064
H127	H	0.975396	-0.342460	-0.215162
H128	H	1.475396	0.157540	0.284838
F129	F	1.000288	-0.007355	0.628566
F130	F	1.500288	0.492645	1.128566
H131	H	0.821084	0.084884	-0.246948
H132	H	1.321084	0.584884	0.253052
H133	H	0.893091	-0.449652	-0.135887
H134	H	1.393091	0.050348	0.364113
H135	H	0.109368	0.369563	0.000104
H136	H	0.609368	0.869563	0.500104
H137	H	0.139934	-0.045657	0.000128
H138	H	0.639934	0.454343	0.500128
H139	H	0.889757	-0.651780	0.367224
H140	H	1.389757	-0.151780	0.867224
F141	F	0.295144	-0.070208	0.000129
F142	F	0.795144	0.429792	0.500129
F143	F	0.529540	-0.063974	0.000111
F144	F	1.029540	0.436026	0.500111
F145	F	1.000261	-0.007379	0.192996
F146	F	1.500261	0.492621	0.692996
H147	H	0.968878	-0.746561	0.247169
H148	H	1.468878	-0.246561	0.747169
H149	H	0.977307	-0.223605	-0.351135
H150	H	1.477307	0.276395	0.148865
H151	H	0.970813	-0.627712	0.111209
H152	H	1.470813	-0.127712	0.611209
F153	F	0.900398	0.006433	-0.385781
F154	F	1.400398	0.506433	0.114219
H155	H	0.819125	-0.034004	-0.110998
H156	H	1.319125	0.465996	0.389002
F157	F	1.000265	-0.007377	0.371643
F158	F	1.500265	0.492623	0.871643
H159	H	0.680549	-0.031306	0.000095
H160	H	1.180549	0.468694	0.500095
H161	H	0.252612	0.373365	0.000092
H162	H	0.752612	0.873365	0.500092
H163	H	0.896823	-0.212091	0.136087
H164	H	1.396823	0.287909	0.636087
H165	H	0.987545	0.014029	0.796403
H166	H	1.487545	0.514029	1.296403
H167	H	0.814511	-0.319269	0.215338
H168	H	1.314511	0.180731	0.715338
F169	F	0.789651	0.345633	0.628564
F170	F	1.289651	0.845633	1.128564
F171	F	0.801657	-0.425083	0.367849
F172	F	1.301657	0.074917	0.867849
F173	F	0.789617	0.345606	0.192983
F174	F	1.289617	0.845606	0.692983
H175	H	0.802389	0.324231	0.360819
H176	H	1.302389	0.824231	0.860819
