data_functionalizedCrystal
_audit_creation_method	'MofGen! by Chris Wilmer'
_symmetry_space_group_name_H-M	'P1'
_symmetry_Int_Tables_number	1
_symmetry_cell_setting	triclinic
loop_
_symmetry_equiv_pos_as_xyz
  x,y,z
_cell_length_a	16.109301
_cell_length_b	23.532407
_cell_length_c	15.186229
_cell_angle_alpha	89.991614
_cell_angle_beta	89.999006
_cell_angle_gamma	83.155131
loop_
_atom_site_label
_atom_site_type_symbol
_atom_site_fract_x
_atom_site_fract_y
_atom_site_fract_z
O1	O	1.102555	0.073203	-0.073189
O2	O	0.860421	0.082312	-0.073203
O3	O	0.988790	-0.005147	-0.073180
O4	O	0.974187	0.160662	-0.073213
O5	O	0.988781	-0.005148	0.073278
O6	O	0.860413	0.082311	0.073254
O7	O	1.102546	0.073201	0.073268
Zn8	Zn	0.981478	0.077756	0.096514
Zn9	Zn	0.981489	0.077758	-0.096449
O10	O	0.974178	0.160661	0.073245
C11	C	0.829445	0.081943	0.000024
C12	C	0.737158	0.080836	0.000020
C13	C	0.427781	0.129116	0.000025
C14	C	0.514493	0.130161	0.000020
C15	C	0.535182	0.026393	0.000029
C16	C	0.448471	0.025349	0.000028
C17	C	0.394773	0.076712	0.000031
C18	C	0.568195	0.078801	0.000026
C19	C	0.662212	0.079934	0.000021
C20	C	0.300749	0.075580	0.000035
C21	C	0.988414	-0.026365	0.000051
C22	C	0.987296	-0.089586	0.000058
C23	C	1.056249	-0.488435	0.000014
C24	C	1.055210	-0.547839	0.000007
O25	O	1.119130	-0.584348	-0.000022
N26	N	0.978895	-0.570747	0.000003
C27	C	0.903614	-0.534247	-0.000003
O28	O	0.838607	-0.559187	-0.000007
C29	C	0.904653	-0.474844	-0.000002
C30	C	0.980973	-0.451940	0.000010
C31	C	1.132562	-0.465530	0.000025
C32	C	1.133601	-0.406130	0.000034
C33	C	1.058325	-0.369635	0.000030
C34	C	0.982011	-0.392540	0.000019
C35	C	0.829373	-0.438346	-0.000014
C36	C	0.830419	-0.378939	-0.000015
C37	C	0.906739	-0.356035	-0.000002
C38	C	0.907774	-0.296645	0.000024
N39	N	0.984089	-0.273737	0.000028
C40	C	1.059365	-0.310232	0.000031
C41	C	0.901437	-0.658998	-0.000005
C42	C	0.900396	-0.718399	0.000001
C43	C	1.051993	-0.731987	0.000009
C44	C	1.053032	-0.672585	0.000009
C45	C	0.977752	-0.636090	-0.000001
C46	C	1.061539	-0.185487	0.000049
C47	C	1.062571	-0.126082	0.000061
C48	C	0.910975	-0.112499	0.000049
C49	C	0.909943	-0.171899	0.000041
C50	C	0.985232	-0.208393	0.000039
O51	O	0.843888	-0.260101	0.000049
O52	O	1.124361	-0.285284	0.000024
C53	C	1.133523	0.073571	0.000039
C54	C	1.225809	0.074677	0.000038
C55	C	0.974554	0.181879	0.000012
C56	C	0.975672	0.245100	-0.000001
N57	N	0.981477	0.077755	0.228207
N58	N	0.981498	0.077755	-0.228142
C59	C	1.038337	0.039041	0.453940
C60	C	1.038340	0.039039	0.546130
C61	C	0.924631	0.116471	0.546118
C62	C	0.924625	0.116469	0.453930
C63	C	0.981483	0.077754	0.407844
C64	C	0.981491	0.077755	0.592221
C65	C	0.981494	0.077754	0.692177
C66	C	0.981480	0.077755	0.307881
H67	H	1.122847	-0.215194	0.000043
H68	H	1.084633	0.007516	0.416419
N69	N	0.412871	-0.031178	0.000039
H70	H	0.377354	-0.033925	0.054330
H71	H	0.377399	-0.033888	-0.054289
H72	H	0.840130	-0.629286	-0.000006
H73	H	1.124722	-0.107437	0.000074
H74	H	1.195748	-0.387488	0.000040
N75	N	1.213759	-0.504888	0.000030
H76	H	1.262253	-0.481355	0.000038
H77	H	1.216628	-0.529833	0.054326
H78	H	0.578914	-0.015425	0.000029
N79	N	0.863309	0.158225	0.595826
H80	H	0.871940	0.152354	0.661222
H81	H	0.872575	0.198628	0.579699
H82	H	1.115179	-0.653940	0.000018
H83	H	1.113286	-0.761713	0.000008
N84	N	0.827630	-0.196608	0.000040
H85	H	0.780101	-0.164472	0.000042
H86	H	0.823900	-0.220947	-0.054261
H87	H	0.769115	-0.349227	-0.000024
N88	N	0.818081	-0.743100	0.000011
H89	H	0.770556	-0.710962	0.000014
H90	H	0.814341	-0.767444	-0.054283
N91	N	0.863294	0.158222	0.404204
H92	H	0.827279	0.182749	0.447387
H93	H	0.894907	0.183404	0.365940
H94	H	0.541363	0.172834	0.000015
N95	N	0.369861	0.184512	0.000047
H96	H	0.403933	0.217868	0.000048
H97	H	0.333424	0.186351	-0.054240
N98	N	0.747056	-0.463040	-0.000017
H99	H	0.699535	-0.430899	-0.000020
H100	H	0.743318	-0.487384	-0.054310
N101	N	0.829788	-0.073131	0.000069
H102	H	0.842033	-0.032025	0.000079
H103	H	0.796500	-0.080532	-0.054224
H104	H	1.084635	0.007514	0.583659
