data_functionalizedCrystal
_audit_creation_method	'MofGen! by Chris Wilmer'
_symmetry_space_group_name_H-M	'P1'
_symmetry_Int_Tables_number	1
_symmetry_cell_setting	triclinic
loop_
_symmetry_equiv_pos_as_xyz
  x,y,z
_cell_length_a	16.992694
_cell_length_b	16.974813
_cell_length_c	8.140239
_cell_angle_alpha	86.342298
_cell_angle_beta	90.004134
_cell_angle_gamma	87.024634
loop_
_atom_site_label
_atom_site_type_symbol
_atom_site_fract_x
_atom_site_fract_y
_atom_site_fract_z
O1	O	1.040207	0.167647	-0.158692
O2	O	0.811924	0.165808	-0.158495
O3	O	0.932430	0.052027	-0.143335
O4	O	0.919701	0.281429	-0.173852
O5	O	0.932426	0.052026	0.129892
O6	O	0.811920	0.165807	0.114732
O7	O	1.040203	0.167646	0.114536
Zn8	Zn	0.926061	0.166727	0.158014
Zn9	Zn	0.926066	0.166728	-0.201974
O10	O	0.919697	0.281428	0.099376
C11	C	0.782712	0.163442	-0.021573
C12	C	0.695675	0.156382	-0.020653
C13	C	0.645361	0.224498	-0.029713
C14	C	0.563582	0.217860	-0.028807
C15	C	0.532118	0.143105	-0.018854
C16	C	0.582438	0.074985	-0.009788
C17	C	0.664216	0.081623	-0.010682
C18	C	0.288550	0.115591	-0.015150
C19	C	0.206766	0.108957	-0.014261
C20	C	0.187915	0.251833	-0.033277
C21	C	0.269695	0.258465	-0.034180
C22	C	0.320008	0.190344	-0.025106
N23	N	0.448526	0.136318	-0.017933
N24	N	0.403598	0.197132	-0.026015
C25	C	0.931944	0.022537	-0.002803
C26	C	0.930492	-0.065331	0.008874
C27	C	0.929813	-0.106607	-0.134575
C28	C	0.928444	-0.189168	-0.123599
C29	C	0.927759	-0.230453	0.030829
C30	C	0.928435	-0.189172	0.174289
C31	C	0.929798	-0.106611	0.163311
C32	C	0.923675	-0.477372	0.079634
C33	C	0.922313	-0.559938	0.090601
C34	C	0.922321	-0.559930	-0.207288
C35	C	0.923690	-0.477368	-0.218252
C36	C	0.924362	-0.436093	-0.074793
N37	N	0.926362	-0.314844	0.042053
N38	N	0.925753	-0.351703	-0.086018
C39	C	1.069415	0.170013	-0.022390
C40	C	1.156452	0.177073	-0.023321
C41	C	0.920183	0.310917	-0.041160
C42	C	0.921635	0.398786	-0.052848
N43	N	0.926063	0.166725	0.403697
N44	N	0.926070	0.166723	-0.447656
H45	H	0.556814	0.014118	-0.001660
H46	H	0.181152	0.048080	-0.006157
O47	O	0.300151	0.331131	-0.044080
C48	C	0.274426	0.372945	-0.191176
H49	H	0.217733	0.347796	-0.234986
H50	H	0.262990	0.438070	-0.168030
H51	H	0.321750	0.366784	-0.289455
O52	O	0.138960	0.317943	-0.042288
C53	C	0.091096	0.318391	-0.183868
H54	H	0.087025	0.255374	-0.222664
H55	H	0.029602	0.343958	-0.155433
H56	H	0.117954	0.356203	-0.287989
O57	O	0.337452	0.049446	-0.006069
C58	C	0.385343	0.049015	0.135467
H59	H	0.355356	0.087550	0.229256
H60	H	0.394613	-0.014093	0.191351
H61	H	0.444786	0.073239	0.100246
O62	O	0.514672	0.284002	-0.037331
C63	C	0.466798	0.284436	0.104102
H64	H	0.496799	0.245908	0.208144
H65	H	0.457531	0.347546	0.143184
H66	H	0.407352	0.260208	0.075346
H67	H	0.930376	-0.072999	-0.260327
H68	H	0.927895	-0.222772	-0.240410
H69	H	0.705182	0.026156	-0.003306
H70	H	0.927872	-0.222792	0.300027
O71	O	0.924315	-0.437386	-0.368396
C72	C	0.923443	-0.491523	-0.492658
H73	H	0.897659	-0.548671	-0.441405
H74	H	0.885792	-0.465051	-0.600355
H75	H	0.986168	-0.504624	-0.536698
H76	H	0.921773	-0.593544	-0.324084
H77	H	0.921751	-0.593550	0.216361
O78	O	0.924445	-0.437199	0.218861
C79	C	0.993115	-0.394125	0.222058
H80	H	1.015943	-0.383315	0.091303
H81	H	0.978812	-0.335017	0.277225
H82	H	1.040117	-0.429209	0.300229
O83	O	0.675791	0.297176	-0.039320
C84	C	0.613842	0.355871	-0.047160
H85	H	0.558316	0.330195	0.007992
H86	H	0.630880	0.407752	0.025260
H87	H	0.602236	0.377130	-0.181068
O88	O	0.930481	-0.066638	0.302821
C89	C	0.929559	-0.120776	0.441478
H90	H	0.953410	-0.181331	0.405884
H91	H	0.967984	-0.099532	0.542847
H92	H	0.866540	-0.125244	0.487826
