data_functionalizedCrystal
_audit_creation_method	'MofGen! by Chris Wilmer'
_symmetry_space_group_name_H-M	'P1'
_symmetry_Int_Tables_number	1
_symmetry_cell_setting	triclinic
loop_
_symmetry_equiv_pos_as_xyz
  x,y,z
_cell_length_a	12.996460
_cell_length_b	14.519709
_cell_length_c	14.519709
_cell_angle_alpha	83.680145
_cell_angle_beta	89.998766
_cell_angle_gamma	89.999398
loop_
_atom_site_label
_atom_site_type_symbol
_atom_site_fract_x
_atom_site_fract_y
_atom_site_fract_z
O1	O	0.085435	-1.223870	-0.120885
O2	O	0.418768	-0.890537	0.212448
O3	O	0.752102	-0.557204	0.545782
O4	O	0.085467	-0.955394	-0.135121
O5	O	0.418800	-0.622060	0.198212
O6	O	0.752133	-0.288727	0.531545
O7	O	0.085441	-1.096750	0.006235
O8	O	0.418774	-0.763417	0.339569
O9	O	0.752108	-0.430084	0.672902
O10	O	0.085461	-1.082514	-0.262242
O11	O	0.418794	-0.749180	0.071092
O12	O	0.752128	-0.415847	0.404425
O13	O	-0.085693	-1.096732	0.006227
O14	O	0.247640	-0.763399	0.339560
O15	O	0.580974	-0.430065	0.672894
O16	O	-0.085667	-0.955375	-0.135130
O17	O	0.247666	-0.622042	0.198204
O18	O	0.581000	-0.288709	0.531537
O19	O	-0.085699	-1.223852	-0.120893
O20	O	0.247635	-0.890519	0.212440
O21	O	0.580968	-0.557186	0.545774
Cu22	Cu	-0.101309	-1.089612	-0.128012
Cu23	Cu	0.232025	-0.756279	0.205321
Cu24	Cu	0.565358	-0.422945	0.538655
Cu25	Cu	0.101077	-1.089634	-0.128002
Cu26	Cu	0.434410	-0.756300	0.205331
Cu27	Cu	0.767744	-0.422967	0.538664
O28	O	-0.085673	-1.082496	-0.262250
O29	O	0.247661	-0.749162	0.071084
O30	O	0.580994	-0.415829	0.404417
C31	C	-0.000096	-0.921025	-0.134462
C32	C	0.333237	-0.587691	0.198871
C33	C	0.666571	-0.254358	0.532205
C34	C	-0.000084	-0.818643	-0.132474
C35	C	0.333249	-0.485310	0.200859
C36	C	0.666582	-0.151977	0.534193
N37	N	-0.243656	-1.089604	-0.128018
N38	N	0.089678	-0.756270	0.205315
N39	N	0.423011	-0.422937	0.538648
C40	C	-0.336762	-1.089608	-0.128021
C41	C	-0.003428	-0.756275	0.205313
C42	C	0.329905	-0.422941	0.538646
C43	C	-0.453567	-1.089616	-0.128015
C44	C	-0.120234	-0.756283	0.205319
C45	C	0.213100	-0.422950	0.538652
C46	C	-0.546665	-1.089628	-0.128004
C47	C	-0.213332	-0.756295	0.205329
C48	C	0.120001	-0.422961	0.538662
C49	C	-0.663478	-1.089638	-0.127999
C50	C	-0.330144	-0.756304	0.205334
C51	C	0.003189	-0.422971	0.538668
C52	C	-0.000126	-1.096078	0.040591
C53	C	0.333207	-0.762744	0.373924
C54	C	0.666541	-0.429411	0.707258
C55	C	-0.000126	-1.094090	0.142972
C56	C	0.333207	-0.760756	0.476306
C57	C	0.666540	-0.427423	0.809639
N58	N	0.243424	-1.089649	-0.127989
N59	N	0.576757	-0.756316	0.205344
N60	N	0.910091	-0.422983	0.538678
C61	C	-0.000134	-1.258221	-0.121553
C62	C	0.333200	-0.924888	0.211781
C63	C	0.666533	-0.591554	0.545114
C64	C	-0.000139	-1.360602	-0.123541
C65	C	0.333195	-1.027269	0.209793
C66	C	0.666528	-0.693936	0.543126
C67	C	-0.000132	-0.443748	-0.125154
C68	C	0.333202	-0.110414	0.208179
C69	C	0.666535	0.222919	0.541512
C70	C	-0.000118	-0.548056	-0.127187
C71	C	0.333215	-0.214722	0.206146
C72	C	0.666549	0.118611	0.539480
C73	C	-0.000107	-0.631192	-0.128814
C74	C	0.333226	-0.297859	0.204519
C75	C	0.666560	0.035474	0.537853
C76	C	-0.000095	-0.735507	-0.130847
C77	C	0.333238	-0.402173	0.202486
C78	C	0.666571	-0.068840	0.535820
C79	C	-0.000103	-1.083168	-0.296606
C80	C	0.333230	-0.749835	0.036728
C81	C	0.666563	-0.416501	0.370061
C82	C	-0.000096	-1.085156	-0.398987
C83	C	0.333237	-0.751823	-0.065653
C84	C	0.666570	-0.418490	0.267680
C85	C	-0.000099	-1.086770	0.517868
C86	C	0.333234	-0.753437	0.851201
C87	C	0.666568	-0.420103	1.184535
C88	C	-0.000107	-1.088803	0.413560
C89	C	0.333226	-0.755469	0.746893
C90	C	0.666560	-0.422136	1.080227
C91	C	-0.000114	-1.090430	0.330423
C92	C	0.333220	-0.757096	0.663757
C93	C	0.666553	-0.423763	0.997090
C94	C	-0.000120	-1.092463	0.226109
C95	C	0.333214	-0.759129	0.559442
C96	C	0.666547	-0.425796	0.892776
