data_functionalizedCrystal
_audit_creation_method	'MofGen! by Chris Wilmer'
_symmetry_space_group_name_H-M	'P1'
_symmetry_Int_Tables_number	1
_symmetry_cell_setting	triclinic
loop_
_symmetry_equiv_pos_as_xyz
  x,y,z
_cell_length_a	6.817900
_cell_length_b	10.943867
_cell_length_c	16.256277
_cell_angle_alpha	93.782185
_cell_angle_beta	103.500353
_cell_angle_gamma	108.843261
loop_
_atom_site_label
_atom_site_type_symbol
_atom_site_fract_x
_atom_site_fract_y
_atom_site_fract_z
V1	V	-4.054323	-0.179677	-0.263864
O2	O	-4.013161	0.007561	-0.258851
O3	O	-4.032727	-0.355236	-0.262050
O4	O	-4.005591	-0.177384	-0.378949
O5	O	-4.040484	-0.171523	-0.141143
V6	V	-4.534521	-0.157225	-0.249187
O7	O	-4.322876	-0.228925	-0.296060
O8	O	-4.716166	-0.107976	-0.216991
O9	O	-4.332911	0.018334	-0.251001
O10	O	-4.693081	-0.344462	-0.254200
O11	O	-4.665757	-0.165379	-0.371908
O12	O	-4.360047	-0.159518	-0.134102
C13	C	-3.884259	-0.398019	-0.257885
C14	C	-3.947886	-0.541544	-0.257169
C15	C	-4.176404	-0.632443	-0.261154
C16	C	-4.157857	-0.731826	-0.328622
C17	C	-4.079793	-0.697899	-0.188443
C18	C	-3.928532	-0.639050	-0.324704
C19	C	-3.850457	-0.605102	-0.184462
C20	C	-3.831763	-0.704446	-0.251944
C21	C	-3.849643	-0.171149	-0.407000
C22	C	-3.891260	-0.170436	-0.501082
C23	C	-4.182966	-0.175418	-0.732902
C24	C	-4.059485	-0.064613	-0.775998
C25	C	-3.967352	-0.169094	-0.673328
C26	C	-4.164927	-0.278550	-0.797861
C27	C	-4.040870	-0.167804	-0.839712
C28	C	-3.843279	-0.058211	-0.715177
C29	C	-3.948794	-0.272244	-0.737045
C30	C	-3.825149	-0.161409	-0.780110
C31	C	-3.925005	-0.169836	-0.577479
C32	C	-4.083196	-0.167052	-0.935558
C33	C	-4.144722	0.061110	-0.255164
C34	C	-4.060334	0.204634	-0.255885
C35	C	-4.179338	-0.165757	-0.106047
C36	C	-4.116958	-0.166463	-0.011964
H37	H	-4.333725	-0.181212	-0.712012
O38	O	-4.115460	0.040263	-0.796638
C39	C	-3.947548	0.156155	-0.752890
H40	H	-3.845339	0.133864	-0.693666
H41	H	-4.018639	0.230573	-0.732725
H42	H	-3.842891	0.197743	-0.796900
H43	H	-3.674105	-0.155446	-0.800823
O44	O	-4.349334	-0.594370	-0.265755
C45	C	-4.307624	-0.502918	-0.192895
H46	H	-4.179062	-0.515639	-0.138644
H47	H	-4.461629	-0.519416	-0.172155
H48	H	-4.248457	-0.399750	-0.208969
O49	O	-4.327424	-0.389658	-0.840764
C50	C	-4.250600	-0.459154	-0.894133
H51	H	-4.102484	-0.389108	-0.908731
H52	H	-4.381317	-0.506259	-0.956472
H53	H	-4.205880	-0.538290	-0.860354
O54	O	-3.680778	0.052950	-0.672357
C55	C	-3.643280	0.050928	-0.583498
H56	H	-3.794252	-0.017261	-0.569749
H57	H	-3.601335	0.153760	-0.548790
H58	H	-3.503936	0.014651	-0.560101
O59	O	-3.851373	-0.607921	-0.393422
C60	C	-3.670227	-0.645463	-0.388744
H61	H	-3.595577	-0.651887	-0.319426
H62	H	-3.546904	-0.569978	-0.413268
H63	H	-3.721718	-0.744876	-0.429755
H64	H	-3.901686	-0.360046	-0.719633
H65	H	-3.686495	-0.736050	-0.248062
H66	H	-3.719957	-0.550085	-0.123519
O67	O	-4.313866	-0.797373	-0.401270
C68	C	-4.495984	-0.760858	-0.405904
H69	H	-4.494660	-0.721962	-0.338897
H70	H	-4.648262	-0.849551	-0.434361
H71	H	-4.492297	-0.681535	-0.448200
O72	O	-4.157092	-0.729142	-0.119771
C73	C	-4.339540	-0.692797	-0.124922
H74	H	-4.334440	-0.612749	-0.166693
H75	H	-4.340174	-0.654923	-0.057988
H76	H	-4.491537	-0.781325	-0.154248
