data_functionalizedCrystal
_audit_creation_method	'MofGen! by Chris Wilmer'
_symmetry_space_group_name_H-M	'P1'
_symmetry_Int_Tables_number	1
_symmetry_cell_setting	triclinic
loop_
_symmetry_equiv_pos_as_xyz
  x,y,z
_cell_length_a	14.971482
_cell_length_b	8.559649
_cell_length_c	14.048226
_cell_angle_alpha	89.995035
_cell_angle_beta	89.994098
_cell_angle_gamma	76.695636
loop_
_atom_site_label
_atom_site_type_symbol
_atom_site_fract_x
_atom_site_fract_y
_atom_site_fract_z
O1	O	1.172524	0.208175	-0.079144
O2	O	0.910396	0.233114	-0.079148
O3	O	1.064554	-0.011914	-0.079144
O4	O	1.018366	0.453203	-0.079147
O5	O	1.064538	-0.011929	0.079177
O6	O	0.910380	0.233099	0.079173
O7	O	1.172509	0.208160	0.079178
Zn8	Zn	1.041442	0.220627	0.104312
Zn9	Zn	1.041462	0.220646	-0.104283
O10	O	1.018351	0.453188	0.079174
C11	C	0.877140	0.231992	0.000012
C12	C	0.778074	0.228653	0.000011
C13	C	0.731530	0.227073	0.086313
C14	C	0.638451	0.223910	0.086314
C15	C	0.591916	0.222339	0.000012
C16	C	0.638467	0.223915	-0.086297
C17	C	0.731546	0.227066	-0.086297
C18	C	0.444460	0.217350	-0.086291
C19	C	0.351374	0.214201	-0.086291
C20	C	0.351365	0.214194	0.086320
C21	C	0.444444	0.217345	0.086320
C22	C	0.490988	0.218924	0.000011
C23	C	1.068046	-0.071445	0.000014
C24	C	1.078465	-0.248805	0.000009
C25	C	1.205764	0.209282	0.000015
C26	C	1.304830	0.212621	0.000011
C27	C	1.014858	0.512719	0.000013
C28	C	1.004439	0.690079	0.000012
N29	N	1.041435	0.220613	0.246673
N30	N	1.041478	0.220648	-0.246643
C31	C	1.109712	0.112160	0.296493
C32	C	1.109718	0.112159	0.396150
C33	C	1.041450	0.220621	0.445987
C34	C	0.973166	0.329079	0.396160
C35	C	0.973157	0.329071	0.296504
C36	C	0.973191	0.329091	0.603874
C37	C	0.973201	0.329101	0.703537
C38	C	1.109752	0.112179	0.703520
C39	C	1.109743	0.112171	0.603865
C40	C	1.041460	0.220632	0.554045
H41	H	0.313488	0.212923	-0.156566
C42	C	0.898052	0.448376	0.241700
C43	C	0.822985	0.567738	0.296514
C44	C	0.747874	0.687041	0.241711
C45	C	0.747831	0.686981	0.132094
C46	C	0.822900	0.567614	0.077273
C47	C	0.898011	0.448311	0.132076
H48	H	0.823015	0.567786	0.377665
H49	H	0.692303	0.775404	0.282294
H50	H	0.692229	0.775296	0.091525
H51	H	0.822871	0.567566	-0.003878
H52	H	0.953582	0.359948	0.091493
C53	C	0.495663	0.219093	-0.181229
C54	C	0.502558	0.080050	-0.252435
C55	C	0.553761	0.081804	-0.347369
C56	C	0.598068	0.222600	-0.371098
C57	C	0.591174	0.361653	-0.299891
C58	C	0.539971	0.359899	-0.204956
H59	H	0.469759	-0.024185	-0.234871
H60	H	0.558865	-0.021133	-0.400081
H61	H	0.635971	0.223898	-0.441374
H62	H	0.623974	0.465888	-0.317454
H63	H	0.534868	0.462837	-0.152244
H64	H	0.917609	0.417420	0.744109
C65	C	1.184837	-0.007133	0.549039
C66	C	1.195843	-0.189072	0.562746
C67	C	1.270935	-0.308379	0.507920
C68	C	1.335021	-0.245746	0.439386
C69	C	1.324017	-0.063797	0.425676
C70	C	1.248925	0.055510	0.480503
H71	H	1.148401	-0.235445	0.613482
H72	H	1.279081	-0.443070	0.518069
H73	H	1.390609	-0.334064	0.398800
H74	H	1.371459	-0.017424	0.374941
H75	H	1.240779	0.190201	0.470354
C76	C	1.184810	-0.007152	0.241678
C77	C	1.259909	-0.126455	0.296484
C78	C	1.335007	-0.245776	0.241673
C79	C	1.335006	-0.245793	0.132055
C80	C	1.259903	-0.126486	0.077243
C81	C	1.184805	-0.007165	0.132054
H82	H	1.259913	-0.126447	0.377635
H83	H	1.390603	-0.334095	0.282249
H84	H	1.390598	-0.334121	0.091481
H85	H	1.259900	-0.126494	-0.003908
H86	H	1.129209	0.081154	0.091478
C87	C	0.587258	0.222166	0.181251
C88	C	0.580363	0.361220	0.252448
C89	C	0.529175	0.359468	0.347392
C90	C	0.484881	0.218663	0.371137
C91	C	0.491774	0.079599	0.299938
C92	C	0.542963	0.081350	0.204994
H93	H	0.613154	0.465462	0.234872
H94	H	0.524072	0.462413	0.400098
H95	H	0.446988	0.217366	0.441420
H96	H	0.458984	-0.024643	0.317514
H97	H	0.548066	-0.021595	0.152288
H98	H	0.769411	0.228365	0.156590
H99	H	0.933092	-0.226559	0.000014
H100	H	1.165350	0.023866	0.744089
C101	C	0.782749	0.228813	-0.181230
C102	C	0.866424	0.092354	-0.204965
C103	C	0.917627	0.094094	-0.299900
C104	C	0.885154	0.232293	-0.371101
C105	C	0.801475	0.368762	-0.347368
C106	C	0.750272	0.367022	-0.252433
H107	H	0.890466	-0.009958	-0.152256
H108	H	0.979573	-0.006931	-0.317468
H109	H	0.923058	0.233581	-0.441378
H110	H	0.777433	0.471075	-0.400077
H111	H	0.688326	0.468047	-0.234865
H112	H	0.482329	0.218634	0.156594
H113	H	0.600573	0.222624	-0.156566
H114	H	1.149817	-0.332176	0.000018
H115	H	0.313464	0.212908	0.156596
H116	H	1.165314	0.023847	0.436713
H117	H	0.917585	0.417406	0.563314
H118	H	0.917576	0.417385	0.436743
