data_functionalizedCrystal
_audit_creation_method	'MofGen! by Chris Wilmer'
_symmetry_space_group_name_H-M	'P1'
_symmetry_Int_Tables_number	1
_symmetry_cell_setting	triclinic
loop_
_symmetry_equiv_pos_as_xyz
  x,y,z
_cell_length_a	19.288864
_cell_length_b	14.853567
_cell_length_c	18.366186
_cell_angle_alpha	89.997562
_cell_angle_beta	89.977106
_cell_angle_gamma	83.385589
loop_
_atom_site_label
_atom_site_type_symbol
_atom_site_fract_x
_atom_site_fract_y
_atom_site_fract_z
O1	O	0.921732	0.112464	-0.060777
O2	O	0.719523	0.127635	-0.060727
O3	O	0.826029	-0.011211	-0.060755
O4	O	0.815226	0.251310	-0.060748
O5	O	0.826011	-0.011217	0.060344
O6	O	0.719505	0.127629	0.060373
O7	O	0.921714	0.112457	0.060322
Zn8	Zn	0.820607	0.120042	0.079575
Zn9	Zn	0.820631	0.120051	-0.079979
O10	O	0.815208	0.251304	0.060351
C11	C	0.693636	0.127144	-0.000171
C12	C	0.616527	0.125679	-0.000152
C13	C	0.572106	0.207147	-0.000161
C14	C	0.499654	0.205770	-0.000169
C15	C	0.471627	0.122920	-0.000182
C16	C	0.516058	0.041441	-0.000169
C17	C	0.588508	0.042820	-0.000154
C18	C	0.363152	0.057794	-0.042635
C19	C	0.290702	0.056418	-0.042655
C20	C	0.248167	0.118664	-0.000227
C21	C	0.278088	0.182300	0.042212
C22	C	0.350538	0.183679	0.042228
C23	C	0.393068	0.121416	-0.000199
C24	C	0.125185	0.198645	-0.000243
C25	C	0.052732	0.197265	-0.000247
C26	C	0.069138	0.032933	-0.000254
C27	C	0.141589	0.034316	-0.000244
C28	C	0.169608	0.117174	-0.000242
C29	C	0.825530	-0.044800	-0.000208
C30	C	0.824064	-0.144875	-0.000214
C31	C	0.754596	-0.557014	-0.000182
C32	C	0.881128	-0.579015	-0.000214
C33	C	0.882507	-0.484989	-0.000219
C34	C	0.819930	-0.426971	-0.000204
C35	C	0.755974	-0.462979	-0.000185
C36	C	0.946462	-0.448973	-0.000231
C37	C	0.947844	-0.354942	-0.000235
C38	C	0.885266	-0.296923	-0.000225
C39	C	0.821307	-0.332936	-0.000207
C40	C	0.758730	-0.274918	-0.000192
C41	C	0.694770	-0.310930	-0.000179
C42	C	0.693396	-0.404960	-0.000176
C43	C	0.886641	-0.202893	-0.000228
C44	C	0.760107	-0.180883	-0.000194
C45	C	0.947601	0.112949	-0.000236
C46	C	1.024710	0.114414	-0.000259
C47	C	0.815707	0.284893	-0.000198
C48	C	0.817174	0.384968	-0.000197
N49	N	0.820595	0.120035	0.188466
N50	N	0.820647	0.120050	-0.188870
C51	C	0.867772	0.058584	0.226553
C52	C	0.867776	0.058580	0.302781
C53	C	0.820611	0.120043	0.340918
C54	C	0.773426	0.181498	0.302822
C55	C	0.773418	0.181495	0.226595
C56	C	0.811590	0.202186	0.461682
C57	C	0.811602	0.202191	0.537907
C58	C	0.820631	0.120054	0.576026
C59	C	0.829661	0.037908	0.537910
C60	C	0.829653	0.037905	0.461684
C61	C	0.820614	0.120053	0.423573
C62	C	0.867814	0.058594	0.696769
C63	C	0.867814	0.058588	0.772998
C64	C	0.773467	0.181514	0.773037
C65	C	0.773464	0.181512	0.696809
C66	C	0.820641	0.120052	0.658679
H67	H	0.016564	0.263609	-0.000250
H68	H	0.641323	-0.434289	-0.000164
H69	H	0.938716	-0.173576	-0.000234
Br70	Br	0.931838	-0.024817	0.645019
Br71	Br	0.648799	-0.067753	-0.000139
Br72	Br	0.031109	-0.079508	-0.000261
Br73	Br	0.201879	-0.076255	-0.000233
Br74	Br	0.439356	0.316343	-0.000177
Br75	Br	0.610129	0.319597	-0.000157
Br76	Br	0.391145	0.270036	0.099822
H77	H	0.735051	0.231554	0.665796
H78	H	0.266346	0.004605	-0.077214
H79	H	0.147999	0.266113	-0.000231
H80	H	0.397779	0.007104	-0.077190
H81	H	0.493234	-0.026016	-0.000190
Br82	Br	0.667798	-0.605883	-0.000175
H83	H	0.243457	0.232986	0.076762
Br84	Br	1.034644	-0.306077	-0.000264
H85	H	0.709148	-0.133651	-0.000186
H86	H	0.906185	0.008539	0.195510
Br87	Br	0.931806	-0.024826	0.354481
H88	H	0.804254	0.269079	0.568935
Br89	Br	0.709448	0.264919	0.824788
Br90	Br	0.841901	-0.073572	0.409957
H91	H	0.804226	0.269076	0.430652
Br92	Br	0.709410	0.264907	0.354576
H93	H	0.643820	-0.263680	-0.000162
Br94	Br	1.031383	-0.527713	-0.000231
H95	H	0.837012	-0.028975	0.568945
Br96	Br	0.931838	-0.024824	0.824692
H97	H	0.932075	-0.626258	-0.000220
Br98	Br	0.709387	0.264898	0.174900
