data_functionalizedCrystal
_audit_creation_method	'MofGen! by Chris Wilmer'
_symmetry_space_group_name_H-M	'P1'
_symmetry_Int_Tables_number	1
_symmetry_cell_setting	triclinic
loop_
_symmetry_equiv_pos_as_xyz
  x,y,z
_cell_length_a	21.295418
_cell_length_b	12.759399
_cell_length_c	12.759393
_cell_angle_alpha	90.030906
_cell_angle_beta	89.958063
_cell_angle_gamma	89.969069
loop_
_atom_site_label
_atom_site_type_symbol
_atom_site_fract_x
_atom_site_fract_y
_atom_site_fract_z
Zn1	Zn	0.962412	0.417772	-0.594606
Zn2	Zn	0.962346	0.593487	-0.418925
Zn3	Zn	0.857138	0.417872	-0.418877
Zn4	Zn	0.857133	0.593458	-0.594498
O5	O	0.909757	0.505647	-0.506726
O6	O	1.050493	0.441051	-0.571367
O7	O	0.948365	0.570246	-0.271897
O8	O	0.871133	0.270837	-0.442213
O9	O	1.050444	0.570149	-0.442295
O10	O	0.948477	0.270764	-0.571320
O11	O	0.871069	0.441221	-0.271862
O12	O	0.769048	0.441193	-0.442108
O13	O	0.871124	0.570099	-0.741533
O14	O	0.769044	0.570195	-0.571136
O15	O	0.948472	0.441023	-0.741613
O16	O	0.948359	0.740505	-0.442190
O17	O	0.871060	0.740483	-0.571182
C18	C	0.746206	0.505702	-0.506605
C19	C	0.676237	0.505751	-0.506579
C20	C	0.909719	0.778615	-0.506702
C21	C	0.909760	0.895391	-0.506727
C22	C	0.909804	0.505546	-0.780760
C23	C	0.909824	0.505503	-0.897537
C24	C	0.643385	0.573012	-0.573663
C25	C	0.577643	0.572986	-0.573710
C26	C	0.544755	0.505711	-0.506654
C27	C	0.577615	0.438437	-0.439565
C28	C	0.643356	0.438457	-0.439527
N29	N	0.441479	0.497514	-0.414762
N30	N	0.379028	0.497501	-0.414801
C31	C	0.346680	0.505644	-0.506766
N32	N	0.379143	0.513821	-0.598692
N33	N	0.441601	0.513840	-0.598652
C34	C	0.473470	0.505681	-0.506688
C35	C	0.242543	0.572880	-0.573907
C36	C	0.176799	0.572846	-0.573956
C37	C	0.176773	0.438303	-0.439801
C38	C	0.242515	0.438331	-0.439762
C39	C	0.275396	0.505625	-0.506813
C40	C	1.073948	0.505592	-0.506848
C41	C	1.143916	0.505569	-0.506900
C42	C	0.909813	0.231614	-0.506773
C43	C	0.909837	0.114837	-0.506793
C44	C	0.950056	0.950229	-0.439637
C45	C	0.950096	1.059953	-0.439673
C46	C	0.869539	1.059991	-0.573891
C47	C	0.869503	0.950269	-0.573860
C48	C	0.950103	0.438283	-0.952442
C49	C	0.950113	0.438237	-1.062166
C50	C	0.869566	0.572642	-1.062070
C51	C	0.869552	0.572681	-0.952348
C52	C	0.909747	0.505672	-0.233759
C53	C	0.909848	0.505419	-0.116983
H54	H	0.670153	0.627807	-0.628263
H55	H	0.982910	1.104598	-0.385043
C56	C	0.825256	1.120355	-0.647728
H57	H	0.801257	1.071978	-0.687688
H58	H	0.797854	1.163242	-0.607497
H59	H	0.849342	1.163074	-0.693570
C60	C	0.994394	0.364385	-0.892148
H61	H	0.988623	0.374040	-0.818937
H62	H	0.985199	0.293791	-0.910134
H63	H	1.036690	0.379748	-0.910166
C64	C	0.994422	0.364300	-1.122557
H65	H	1.018406	0.324305	-1.074195
H66	H	0.970360	0.318511	-1.165346
H67	H	1.021847	0.404475	-1.165376
C68	C	0.679496	0.364473	-0.365726
H69	H	0.650496	0.324404	-0.325791
H70	H	0.705190	0.318756	-0.405977
H71	H	0.705091	0.404626	-0.319859
C72	C	0.994342	0.889867	-0.365805
H73	H	1.018351	0.938246	-0.325861
H74	H	0.970265	0.847144	-0.319964
H75	H	1.021745	0.846984	-0.406049
H76	H	0.836689	0.905617	-0.628498
C77	C	0.825274	0.646542	-1.122361
H78	H	0.801280	0.686576	-1.073944
H79	H	0.849350	0.692296	-1.165176
H80	H	0.797858	0.606340	-1.165147
C81	C	0.541497	0.646914	-0.647567
H82	H	0.570496	0.686978	-0.687509
H83	H	0.515917	0.606715	-0.693406
H84	H	0.515788	0.692657	-0.607359
C85	C	0.541442	0.364436	-0.365805
H86	H	0.497583	0.374064	-0.375428
H87	H	0.552255	0.293867	-0.381298
H88	H	0.552164	0.379736	-0.295178
C89	C	0.825248	0.646634	-0.891948
H90	H	0.801273	0.686650	-0.940305
H91	H	0.797825	0.606472	-0.849125
H92	H	0.849321	0.692420	-0.849162
H93	H	0.269316	0.627669	-0.628509
C94	C	0.140661	0.646852	-0.647738
H95	H	0.169662	0.686940	-0.687651
H96	H	0.115059	0.606727	-0.693609
H97	H	0.114974	0.692566	-0.607459
H98	H	0.149996	0.383521	-0.385208
H99	H	0.269264	0.383565	-0.385129
