data_functionalizedCrystal
_audit_creation_method	'MofGen! by Chris Wilmer'
_symmetry_space_group_name_H-M	'P1'
_symmetry_Int_Tables_number	1
_symmetry_cell_setting	triclinic
loop_
_symmetry_equiv_pos_as_xyz
  x,y,z
_cell_length_a	25.639242
_cell_length_b	25.639240
_cell_length_c	18.050582
_cell_angle_alpha	89.968180
_cell_angle_beta	89.976321
_cell_angle_gamma	90.028283
loop_
_atom_site_label
_atom_site_type_symbol
_atom_site_fract_x
_atom_site_fract_y
_atom_site_fract_z
Zn1	Zn	0.799254	-0.208246	-0.420038
Zn2	Zn	0.799185	-0.295674	-0.295828
Zn3	Zn	0.711828	-0.208248	-0.295843
Zn4	Zn	0.711785	-0.295646	-0.419958
O5	O	0.755513	-0.251953	-0.357917
O6	O	0.872410	-0.219855	-0.403589
O7	O	0.787586	-0.284089	-0.191906
O8	O	0.723473	-0.135082	-0.312358
O9	O	0.872359	-0.284088	-0.312332
O10	O	0.787705	-0.135081	-0.403604
O11	O	0.723405	-0.219857	-0.191917
O12	O	0.638657	-0.219830	-0.312280
O13	O	0.723399	-0.284040	-0.523893
O14	O	0.638625	-0.284041	-0.403466
O15	O	0.787662	-0.219828	-0.523952
O16	O	0.787543	-0.368836	-0.312254
O17	O	0.723331	-0.368815	-0.403452
C18	C	0.619671	-0.251933	-0.357867
C19	C	0.561556	-0.251937	-0.357863
C20	C	0.201186	-0.285444	-0.405353
C21	C	0.146581	-0.285447	-0.405364
O22	O	0.118338	-0.313911	-0.445699
N23	N	0.119274	-0.251968	-0.357965
C24	C	0.146574	-0.218479	-0.310557
O25	O	0.118333	-0.190003	-0.270242
C26	C	0.201177	-0.218474	-0.310550
C27	C	0.228482	-0.251959	-0.357946
C28	C	0.228490	-0.318926	-0.452746
C29	C	0.283091	-0.318924	-0.452733
C30	C	0.310387	-0.285439	-0.405327
C31	C	0.283082	-0.251957	-0.357933
C32	C	0.228476	-0.184983	-0.263145
C33	C	0.283083	-0.184980	-0.263142
C34	C	0.310387	-0.218466	-0.310539
C35	C	0.364979	-0.218469	-0.310514
N36	N	0.392286	-0.251949	-0.357913
C37	C	0.364990	-0.285433	-0.405319
C38	C	0.031903	-0.218493	-0.310577
C39	C	-0.022699	-0.218500	-0.310580
C40	C	-0.022688	-0.285468	-0.405389
C41	C	0.031915	-0.285462	-0.405381
C42	C	0.059211	-0.251972	-0.357976
C43	C	0.479655	-0.285426	-0.405288
C44	C	0.534260	-0.285421	-0.405269
C45	C	0.534244	-0.218452	-0.310464
C46	C	0.479644	-0.218458	-0.310480
C47	C	0.452351	-0.251947	-0.357898
O48	O	0.393257	-0.190019	-0.270202
O49	O	0.393238	-0.313901	-0.445634
C50	C	0.755439	-0.387796	-0.357859
C51	C	0.755455	-0.445910	-0.357859
C52	C	0.788975	-0.806234	-0.405514
C53	C	0.788990	-0.860838	-0.405529
O54	O	0.817402	-0.889042	-0.445988
N55	N	0.755586	-0.888193	-0.357989
C56	C	0.722159	-0.860939	-0.310435
O57	O	0.693747	-0.889220	-0.270000
C58	C	0.722142	-0.806336	-0.310425
C59	C	0.755553	-0.778985	-0.357963
C60	C	0.822383	-0.778883	-0.453049
C61	C	0.822368	-0.724282	-0.453033
C62	C	0.788945	-0.697033	-0.405482
C63	C	0.755538	-0.724384	-0.357947
C64	C	0.688713	-0.779084	-0.262875
C65	C	0.688698	-0.724477	-0.262869
C66	C	0.722109	-0.697126	-0.310407
C67	C	0.722100	-0.642535	-0.310379
N68	N	0.755505	-0.615181	-0.357920
C69	C	0.788928	-0.642430	-0.405471
C70	C	0.722198	-0.975610	-0.310463
C71	C	0.722218	-1.030212	-0.310469
C72	C	0.789049	-1.030108	-0.405564
C73	C	0.789031	-0.975504	-0.405553
C74	C	0.755603	-0.948256	-0.358003
C75	C	0.788894	-0.527765	-0.405433
C76	C	0.788878	-0.473159	-0.405410
C77	C	0.722046	-0.473269	-0.310318
C78	C	0.722064	-0.527870	-0.310338
C79	C	0.755490	-0.555116	-0.357901
O80	O	0.693702	-0.614296	-0.269943
O81	O	0.817330	-0.614142	-0.445906
C82	C	0.891886	-0.251975	-0.357968
C83	C	0.950000	-0.251984	-0.357990
C84	C	0.755534	-0.251930	-0.551623
C85	C	0.755542	-0.251920	-0.634168
C86	C	0.755601	-0.115580	-0.357992
C87	C	0.755639	-0.057466	-0.358023
C88	C	0.720623	-0.286791	-0.833587
C89	C	0.768323	-0.299575	-0.882986
C90	C	0.755568	-0.251881	-0.785299
C91	C	0.707894	-0.239082	-0.882982
C92	C	0.755589	-0.251843	-0.931284
C93	C	0.803293	-0.264690	-0.833610
C94	C	0.742833	-0.204174	-0.833602
C95	C	0.790566	-0.216940	-0.882979
C96	C	0.755555	-0.251903	-0.701201
C97	C	0.755607	-0.251820	-1.015381
C98	C	0.755523	-0.251939	-0.164965
C99	C	0.755615	-0.251801	-0.082419
H100	H	0.305317	-0.346190	-0.491330
Br101	Br	0.676690	-0.436277	-0.245786
H102	H	0.457439	-0.312694	-0.443903
H103	H	-0.044926	-0.191239	-0.271977
H104	H	0.206272	-0.346194	-0.491354
Br105	Br	0.643366	-0.816190	-0.198356
Br106	Br	0.068966	-0.330908	-0.469708
H107	H	0.843631	-0.275545	-0.812014
Br108	Br	-0.059743	-0.330907	-0.469733
H109	H	0.054123	-0.191221	-0.271969
Br110	Br	0.191434	-0.139533	-0.198821
H111	H	0.691098	-0.316353	-0.811901
H112	H	0.816262	-1.052304	-0.444284
Br113	Br	0.676882	-1.067325	-0.245938
Br114	Br	0.571299	-0.173011	-0.246129
H115	H	0.305304	-0.157705	-0.224543
Br116	Br	0.676830	-0.938636	-0.245920
Br117	Br	0.786300	-0.366791	-0.919141
Br118	Br	0.442586	-0.173024	-0.246141
H119	H	0.849572	-0.702016	-0.491745
Br120	Br	0.724836	-0.136975	-0.797417
Br121	Br	0.676729	-0.564990	-0.245809
H122	H	0.816087	-0.450892	-0.444121
Br123	Br	0.839890	-0.167706	-0.918902
H124	H	0.667568	-0.228272	-0.904670
H125	H	0.661476	-0.702294	-0.224149
Br126	Br	0.867745	-0.815854	-0.517596
Br127	Br	0.571313	-0.330871	-0.469594
H128	H	0.816109	-0.549942	-0.444168
H129	H	0.816237	-0.953238	-0.444263
