data_functionalizedCrystal
_audit_creation_method	'MofGen! by Chris Wilmer'
_symmetry_space_group_name_H-M	'P1'
_symmetry_Int_Tables_number	1
_symmetry_cell_setting	triclinic
loop_
_symmetry_equiv_pos_as_xyz
  x,y,z
_cell_length_a	10.489716
_cell_length_b	10.489741
_cell_length_c	9.730223
_cell_angle_alpha	89.995878
_cell_angle_beta	89.997085
_cell_angle_gamma	84.534155
loop_
_atom_site_label
_atom_site_type_symbol
_atom_site_fract_x
_atom_site_fract_y
_atom_site_fract_z
O1	O	1.694070	0.179818	-0.114278
O2	O	2.194070	0.679818	0.385722
O3	O	1.322870	0.196744	-0.114283
O4	O	1.822870	0.696744	0.385717
O5	O	1.516916	0.002683	-0.114272
O6	O	2.016916	0.502683	0.385728
O7	O	1.500023	0.373880	-0.114289
O8	O	2.000023	0.873880	0.385711
O9	O	1.516904	0.002677	0.114308
O10	O	2.016904	0.502677	0.614308
O11	O	1.322857	0.196739	0.114297
O12	O	1.822857	0.696739	0.614297
O13	O	1.694057	0.179813	0.114302
O14	O	2.194057	0.679813	0.614302
Zn15	Zn	1.508455	0.188275	0.150591
Zn16	Zn	2.008455	0.688275	0.650591
Zn17	Zn	1.508472	0.188282	-0.150573
Zn18	Zn	2.008472	0.688282	0.349427
O19	O	1.500011	0.373874	0.114291
O20	O	2.000011	0.873874	0.614291
C21	C	1.275332	0.195470	0.000006
C22	C	1.775332	0.695470	0.500006
C23	C	1.133701	0.191665	0.000004
C24	C	1.633701	0.691665	0.500004
C25	C	1.036027	0.310669	-0.000004
C26	C	1.536027	0.810669	0.499996
C27	C	0.958674	0.247782	0.112707
C28	C	1.458674	0.747782	0.612707
C29	C	0.958693	0.247759	-0.112655
C30	C	1.458693	0.747759	0.387345
C31	C	1.058214	0.128828	0.112808
C32	C	1.558214	0.628828	0.612808
C33	C	1.058238	0.128822	-0.112655
C34	C	1.558238	0.628822	0.387345
C35	C	0.980935	0.065848	0.000084
C36	C	1.480935	0.565848	0.500084
C37	C	1.515634	-0.044852	0.000017
C38	C	2.015634	0.455148	0.500017
C39	C	1.511817	-0.186481	0.000014
C40	C	2.011817	0.313519	0.500014
C41	C	1.388351	-0.254610	0.000003
C42	C	1.888351	0.245390	0.500003
C43	C	1.446669	-0.346740	0.112705
C44	C	1.946669	0.153260	0.612705
C45	C	1.446711	-0.346710	-0.112657
C46	C	1.946711	0.153290	0.387343
C47	C	1.570186	-0.276746	0.112810
C48	C	2.070186	0.223254	0.612810
C49	C	1.570210	-0.276705	-0.112653
C50	C	2.070210	0.223295	0.387347
C51	C	1.628618	-0.368808	0.000077
C52	C	2.128618	0.131192	0.500077
C53	C	1.741596	0.181087	0.000009
C54	C	2.241596	0.681087	0.500009
C55	C	1.883227	0.184892	0.000002
C56	C	2.383227	0.684892	0.500002
C57	C	1.501293	0.421409	-0.000001
C58	C	2.001293	0.921409	0.499999
C59	C	1.505110	0.563038	-0.000008
C60	C	2.005110	1.063038	0.499992
N61	N	1.508453	0.188269	0.356128
N62	N	2.008453	0.688269	0.856128
N63	N	1.508484	0.188278	-0.356109
N64	N	2.008484	0.688278	0.143891
C65	C	1.594407	0.102376	0.428058
C66	C	2.094407	0.602376	0.928058
C67	C	1.594419	0.102376	0.571941
C68	C	2.094419	0.602376	1.071941
C69	C	1.422521	0.274175	0.571950
C70	C	1.922521	0.774175	1.071950
C71	C	1.422503	0.274168	0.428070
C72	C	1.922503	0.774168	0.928070
H73	H	0.915187	0.298017	0.207989
H74	H	1.415187	0.798017	0.707989
F75	F	1.761420	-0.433424	0.000156
F76	F	2.261420	0.066576	0.500156
F77	F	1.638407	-0.236461	0.237488
F78	F	2.138407	0.263539	0.737488
F79	F	1.685900	0.010954	0.648491
F80	F	2.185900	0.510954	1.148491
F81	F	1.378406	-0.387201	-0.237190
F82	F	1.878406	0.112799	0.262810
F83	F	1.114819	0.063201	0.237482
F84	F	1.614819	0.563201	0.737482
F85	F	1.331011	0.365587	0.351510
F86	F	1.831011	0.865587	0.851510
F87	F	1.255667	-0.189702	0.000142
F88	F	1.755667	0.310298	0.500142
F89	F	1.115116	0.063223	-0.237202
F90	F	1.615116	0.563223	0.262798
F91	F	1.068283	0.445967	0.000128
F92	F	1.568283	0.945967	0.500128
H93	H	1.622412	-0.245663	-0.207939
H94	H	2.122412	0.254337	0.292061
H95	H	1.394422	-0.377749	0.207986
H96	H	1.894422	0.122251	0.707986
H97	H	0.956505	-0.037744	0.000153
H98	H	1.456505	0.462256	0.500153
F99	F	0.901865	0.313454	-0.237187
F100	F	1.401865	0.813454	0.262813
H101	H	1.664390	0.032430	0.369487
H102	H	2.164390	0.532430	0.869487
H103	H	1.352545	0.344114	0.630540
H104	H	1.852545	0.844114	1.130540
