data_functionalizedCrystal
_audit_creation_method	'MofGen! by Chris Wilmer'
_symmetry_space_group_name_H-M	'P1'
_symmetry_Int_Tables_number	1
_symmetry_cell_setting	triclinic
loop_
_symmetry_equiv_pos_as_xyz
  x,y,z
_cell_length_a	12.759401
_cell_length_b	16.959454
_cell_length_c	12.759393
_cell_angle_alpha	89.971316
_cell_angle_beta	90.019802
_cell_angle_gamma	89.977979
loop_
_atom_site_label
_atom_site_type_symbol
_atom_site_fract_x
_atom_site_fract_y
_atom_site_fract_z
Zn1	Zn	1.606206	0.314663	0.594001
Zn2	Zn	1.606072	0.446862	0.418327
Zn3	Zn	1.430505	0.314699	0.418340
Zn4	Zn	1.430472	0.446801	0.593968
O5	O	1.518314	0.380756	0.506159
O6	O	1.753209	0.332209	0.570707
O7	O	1.582741	0.429371	0.271308
O8	O	1.453882	0.204083	0.441661
O9	O	1.753111	0.429335	0.441639
O10	O	1.582969	0.204057	0.570719
O11	O	1.453752	0.332271	0.271317
O12	O	1.283480	0.332212	0.441629
O13	O	1.453825	0.429232	0.740993
O14	O	1.283455	0.429267	0.570662
O15	O	1.582937	0.332150	0.741018
O16	O	1.582708	0.557465	0.441607
O17	O	1.453695	0.557420	0.570649
C18	C	1.245346	0.380738	0.506144
C19	C	1.128570	0.380749	0.506162
C20	C	0.964023	0.330285	0.573478
C21	C	1.073747	0.330269	0.573471
C22	C	1.073663	0.431253	0.438863
C23	C	0.963941	0.431272	0.438876
C24	C	1.518212	0.586122	0.506146
C25	C	1.518265	0.673979	0.506175
C26	C	1.451190	1.045461	0.573359
C27	C	1.585642	1.045448	0.439096
C28	C	1.585611	0.962902	0.439084
C29	C	1.518367	0.921632	0.506210
C30	C	1.451155	0.962908	0.573347
C31	C	1.652814	0.921620	0.371940
C32	C	1.652785	0.839069	0.371925
C33	C	1.585546	0.797797	0.439057
C34	C	1.518331	0.839078	0.506198
C35	C	1.451088	0.797808	0.573324
C36	C	1.383878	0.839088	0.640471
C37	C	1.383915	0.921636	0.640479
C38	C	1.585508	0.715249	0.439049
C39	C	1.451052	0.715255	0.573313
C40	C	1.792347	0.380775	0.506175
C41	C	1.909124	0.380783	0.506182
C42	C	1.518392	0.380680	0.780193
C43	C	1.518426	0.380648	0.896969
C44	C	1.518428	1.174588	0.506201
C45	C	1.518434	1.086731	0.506233
C46	C	1.518296	0.380775	0.233192
C47	C	1.518466	0.380584	0.116416
C48	C	1.585659	0.330089	0.951846
C49	C	1.585677	0.330055	1.061570
C50	C	1.451225	0.431145	1.061531
C51	C	1.451203	0.431174	0.951809
H52	H	1.118441	0.289149	0.628272
H53	H	0.919241	0.472398	0.384075
C54	C	1.659429	0.669845	0.365198
H55	H	1.699483	0.706247	0.325224
H56	H	1.619250	0.637682	0.319386
H57	H	1.705179	0.637604	0.405429
C58	C	1.377296	0.486726	1.121859
H59	H	1.386945	0.479475	1.195065
H60	H	1.306708	0.475160	1.103872
H61	H	1.392642	0.539843	1.103866
C62	C	1.377244	0.486789	0.891436
H63	H	1.386852	0.479563	0.818236
H64	H	1.392583	0.539896	0.909405
H65	H	1.306661	0.475203	0.909410
H66	H	1.118309	0.472357	0.384063
H67	H	1.396298	0.681658	0.627979
C68	C	1.377265	1.090859	0.647219
H69	H	1.337220	1.054455	0.687198
H70	H	1.331523	1.123109	0.607002
H71	H	1.417455	1.123014	0.693042
H72	H	0.919393	0.289174	0.628283
C73	C	1.659591	0.274509	0.891520
H74	H	1.649958	0.281771	0.818313
H75	H	1.644254	0.221395	0.909510
H76	H	1.730182	0.286083	0.909512
H77	H	1.329123	0.805476	0.695121
H78	H	1.329196	0.955253	0.695146
H79	H	1.707553	0.955228	0.317282
C80	C	1.659609	1.090842	0.365269
H81	H	1.650009	1.145917	0.374897
H82	H	1.644276	1.077356	0.294661
H83	H	1.730187	1.077270	0.380722
C84	C	1.726720	0.793669	0.298078
H85	H	1.766778	0.830072	0.258109
H86	H	1.686549	0.761503	0.252262
H87	H	1.772467	0.761430	0.338316
H88	H	1.640423	0.288884	1.106246
