data_functionalizedCrystal
_audit_creation_method	'MofGen! by Chris Wilmer'
_symmetry_space_group_name_H-M	'P1'
_symmetry_Int_Tables_number	1
_symmetry_cell_setting	triclinic
loop_
_symmetry_equiv_pos_as_xyz
  x,y,z
_cell_length_a	17.038272
_cell_length_b	23.532407
_cell_length_c	15.500227
_cell_angle_alpha	92.805592
_cell_angle_beta	86.956295
_cell_angle_gamma	86.980117
loop_
_atom_site_label
_atom_site_type_symbol
_atom_site_fract_x
_atom_site_fract_y
_atom_site_fract_z
O1	O	1.040103	0.121159	-0.071851
O2	O	1.540103	0.621159	0.428149
O3	O	0.812488	0.119196	-0.071876
O4	O	1.312488	0.619196	0.428124
O5	O	0.933158	0.037607	-0.071847
O6	O	1.433158	0.537607	0.428153
O7	O	0.919432	0.202748	-0.071880
O8	O	1.419432	0.702748	0.428120
O9	O	0.925836	0.042537	0.072040
O10	O	1.425836	0.542537	0.572040
O11	O	0.805165	0.124126	0.072011
O12	O	1.305165	0.624126	0.572011
O13	O	1.032780	0.126090	0.072036
O14	O	1.532780	0.626090	0.572036
Cu15	Cu	0.918304	0.125558	0.085162
Cu16	Cu	1.418304	0.625558	0.585162
Cu17	Cu	0.926964	0.119727	-0.085001
Cu18	Cu	1.426964	0.619727	0.414999
O19	O	0.912110	0.207678	0.072007
O20	O	1.412110	0.707678	0.572007
C21	C	0.779712	0.119875	0.000065
C22	C	1.279712	0.619875	0.500065
C23	C	0.692959	0.114548	0.000056
C24	C	1.192959	0.614548	0.500056
C25	C	0.642483	0.163453	0.000046
C26	C	1.142483	0.663453	0.500046
C27	C	0.560969	0.158445	0.000059
C28	C	1.060969	0.658445	0.500059
C29	C	0.529932	0.104532	0.000075
C30	C	1.029932	0.604532	0.500075
C31	C	0.580414	0.055624	0.000087
C32	C	1.080414	0.555624	0.500087
C33	C	0.661927	0.060632	0.000080
C34	C	1.161927	0.560632	0.500080
C35	C	0.284304	0.086837	0.000102
C36	C	0.784304	0.586837	0.500102
C37	C	0.202786	0.081832	0.000106
C38	C	0.702786	0.581832	0.500106
C39	C	0.183345	0.184654	0.000080
C40	C	0.683345	0.684654	0.500080
C41	C	0.264860	0.189658	0.000068
C42	C	0.764860	0.689658	0.500068
C43	C	0.315335	0.140750	0.000084
C44	C	0.815335	0.640750	0.500084
C45	C	0.446612	0.099412	0.000086
C46	C	0.946612	0.599412	0.500086
C47	C	0.398653	0.145871	0.000080
C48	C	0.898653	0.645871	0.500080
C49	C	0.929147	0.018838	0.000099
C50	C	1.429147	0.518838	0.500099
C51	C	0.928096	-0.044434	0.000105
C52	C	1.428096	0.455566	0.500105
C53	C	0.992917	-0.440131	0.000065
C54	C	1.492917	0.059869	0.500065
C55	C	0.991941	-0.499583	0.000058
C56	C	1.491941	0.000417	0.500058
O57	O	1.052030	-0.533169	0.000033
O58	O	1.552030	-0.033169	0.500033
N59	N	0.920202	-0.525981	0.000051
N60	N	1.420202	-0.025981	0.500051
C61	C	0.849435	-0.492924	0.000042
C62	C	1.349435	0.007076	0.500042
O63	O	0.788325	-0.520836	0.000034
O64	O	1.288325	-0.020836	0.500034
C65	C	0.850412	-0.433473	0.000042
C66	C	1.350412	0.066527	0.500042
C67	C	0.922155	-0.407078	0.000058
C68	C	1.422155	0.092922	0.500058
C69	C	1.064654	-0.413736	0.000080
C70	C	1.564654	0.086264	0.500080
C71	C	1.065630	-0.354288	0.000089
C72	C	1.565630	0.145712	0.500089
C73	C	0.994868	-0.321235	0.000082
C74	C	1.494868	0.178765	0.500082
C75	C	0.923131	-0.347631	0.000067
C76	C	1.423131	0.152369	0.500067
C77	C	0.779646	-0.400418	0.000027
C78	C	1.279646	0.099582	0.500027
C79	C	0.780629	-0.340963	0.000026
C80	C	1.280629	0.159037	0.500026
C81	C	0.852372	-0.314569	0.000043
C82	C	1.352372	0.185431	0.500043
C83	C	0.853344	-0.255130	0.000068
C84	C	1.353344	0.244870	0.500068
N85	N	0.925083	-0.228732	0.000075
N86	N	1.425083	0.271268	0.500075
C87	C	0.995845	-0.261785	0.000082
C88	C	1.495845	0.238215	0.500082
C89	C	0.847388	-0.617774	0.000039
C90	C	1.347388	-0.117774	0.500039
C91	C	0.846410	-0.677223	0.000045
C92	C	1.346410	-0.177223	0.500045
C93	C	0.988916	-0.683878	0.000060
C94	C	1.488916	-0.183878	0.500060
C95	C	0.989894	-0.624428	0.000061
C96	C	1.489894	-0.124428	0.500061
C97	C	0.919127	-0.591376	0.000047
C98	C	1.419127	-0.091376	0.500047
C99	C	0.997889	-0.136940	0.000100
C100	C	1.497889	0.363060	0.500100
C101	C	0.998858	-0.077487	0.000112
C102	C	1.498858	0.422513	0.500112
C103	C	0.856352	-0.070837	0.000093
C104	C	1.356352	0.429163	0.500093
C105	C	0.855382	-0.130285	0.000085
C106	C	1.355382	0.369715	0.500085
C107	C	0.926157	-0.163336	0.000086
C108	C	1.426157	0.336664	0.500086
O109	O	0.793287	-0.221508	0.000090
O110	O	1.293287	0.278492	0.500090
O111	O	1.056945	-0.233865	0.000078
O112	O	1.556945	0.266135	0.500078
C113	C	1.065556	0.125410	0.000094
C114	C	1.565556	0.625410	0.500094
C115	C	1.152310	0.130737	0.000097
C116	C	1.652310	0.630737	0.500097
C117	C	0.916121	0.226447	0.000059
C118	C	1.416121	0.726447	0.500059
C119	C	0.917172	0.289719	0.000047
C120	C	1.417172	0.789719	0.500047
N121	N	0.912219	0.129659	0.204845
N122	N	1.412219	0.629659	0.704845
N123	N	0.933055	0.115622	-0.204685
N124	N	1.433055	0.615622	0.295315
C125	C	0.963369	0.095101	0.250134
C126	C	1.463369	0.595101	0.750134
C127	C	0.958774	0.098208	0.340706
C128	C	1.458774	0.598208	0.840706
C129	C	0.903033	0.135876	0.385987
C130	C	1.403033	0.635876	0.885987
C131	C	0.851877	0.170435	0.340691
C132	C	1.351877	0.670435	0.840691
C133	C	0.856469	0.167324	0.250121
C134	C	1.356469	0.667324	0.750121
C135	C	0.886491	0.147071	0.659450
C136	C	1.386491	0.647071	1.159450
C137	C	0.881905	0.150180	0.750026
C138	C	1.381905	0.650180	1.250026
C139	C	0.988801	0.077952	0.750034
C140	C	1.488801	0.577952	1.250034
C141	C	0.993391	0.074848	0.659462
C142	C	1.493391	0.574848	1.159462
C143	C	0.942233	0.109404	0.614175
C144	C	1.442233	0.609404	1.114175
C145	C	0.898336	0.139054	0.478566
C146	C	1.398336	0.639054	0.978566
C147	C	0.946927	0.106223	0.521598
C148	C	1.446927	0.606223	1.021598
H149	H	0.421332	0.055516	0.000123
H150	H	0.921332	0.555516	0.500123
C151	C	0.676619	0.222756	0.000026
C152	C	1.176619	0.722756	0.500026
H153	H	0.732395	0.218736	0.000015
H154	H	1.232395	0.718736	0.500015
H155	H	0.656720	0.244779	0.050198
H156	H	1.156720	0.744779	0.550198
H157	H	0.661811	0.241336	-0.050161
H158	H	1.161811	0.741336	0.449839
H159	H	1.038780	0.044176	0.622596
H160	H	1.538780	0.544176	1.122596
H161	H	0.423926	0.189767	0.000072
H162	H	0.923926	0.689767	0.500072
H163	H	0.814816	0.195464	0.213248
H164	H	1.314816	0.695464	0.713248
H165	H	0.325391	0.047013	0.000116
H166	H	0.825391	0.547013	0.500116
C167	C	0.702784	-0.304610	0.000014
C168	C	1.202784	0.195390	0.500014
H169	H	0.659921	-0.328848	0.000011
H170	H	1.159921	0.171152	0.500011
H171	H	0.702755	-0.282992	-0.050159
H172	H	1.202755	0.217008	0.449841
H173	H	0.697645	-0.279568	0.050201
H174	H	1.197645	0.220432	0.550201
C175	C	1.024684	0.053666	0.200333
C176	C	1.524684	0.553666	0.700333
H177	H	1.054483	0.033526	0.240280
H178	H	1.554483	0.533526	0.740280
H179	H	1.058849	0.074519	0.164987
H180	H	1.558849	0.574519	0.664987
H181	H	0.998541	0.027378	0.165017
H182	H	1.498541	0.527378	0.665017
H183	H	0.844838	0.175209	0.622584
H184	H	1.344838	0.675209	1.122584
C185	C	0.298994	0.248962	0.000063
C186	C	0.798994	0.748962	0.500063
H187	H	0.257256	0.277372	0.000069
H188	H	0.757256	0.777372	0.500069
H189	H	0.332936	0.251337	-0.050113
H190	H	0.832936	0.751337	0.449887
H191	H	0.327838	0.254769	0.050246
H192	H	0.827838	0.754769	0.550246
C193	C	0.769539	-0.581421	0.000040
C194	C	1.269539	-0.081421	0.500040
H195	H	0.726679	-0.605661	0.000044
H196	H	1.226679	-0.105661	0.500044
H197	H	0.769502	-0.559804	-0.050134
H198	H	1.269502	-0.059804	0.449866
H199	H	0.764404	-0.556379	0.050226
H200	H	1.264404	-0.056379	0.550226
C201	C	0.127826	0.238449	0.000067
C202	C	0.627826	0.738449	0.500067
H203	H	0.157985	0.271274	0.000050
H204	H	0.657985	0.771274	0.500050
H205	H	0.093075	0.240354	0.050243
H206	H	0.593075	0.740354	0.550243
H207	H	0.098173	0.236912	-0.050116
H208	H	0.598173	0.736912	0.449884
C209	C	0.546277	-0.003679	0.000103
C210	C	1.046277	0.496321	0.500103
H211	H	0.490502	0.000341	0.000096
H212	H	0.990502	0.500341	0.500096
H213	H	0.561082	-0.022264	0.050282
H214	H	1.061082	0.477736	0.550282
H215	H	0.566179	-0.025700	-0.050077
H216	H	1.066179	0.474300	0.449923
H217	H	1.046535	-0.710801	0.000062
H218	H	1.546535	-0.210801	0.500062
H219	H	0.177520	0.037928	0.000118
H220	H	0.677520	0.537928	0.500118
H221	H	0.703024	0.020809	0.000087
H222	H	1.203024	0.520809	0.500087
C223	C	0.790564	0.211869	0.390498
C224	C	1.290564	0.711869	0.890498
H225	H	0.795160	0.208777	0.450925
H226	H	1.295160	0.708777	0.950925
H227	H	0.739206	0.202629	0.375668
H228	H	1.239206	0.702629	0.875668
H229	H	0.799514	0.249770	0.375636
H230	H	1.299514	0.749770	0.875636
H231	H	1.057282	-0.055999	0.000128
H232	H	1.557282	0.444001	0.500128
H233	H	1.055521	-0.163843	0.000098
H234	H	1.555521	0.336157	0.500098
H235	H	1.000424	0.070069	0.377580
H236	H	1.500424	0.570069	0.877580
C237	C	0.778518	-0.034475	0.000079
C238	C	1.278518	0.465525	0.500079
H239	H	0.735648	-0.058706	0.000074
H240	H	1.235648	0.441294	0.500074
H241	H	0.778501	-0.012859	-0.050097
H242	H	1.278501	0.487141	0.449903
H243	H	0.773382	-0.009430	0.050262
H244	H	1.273382	0.490570	0.550262
H245	H	0.836511	0.180855	0.786890
H246	H	1.336511	0.680855	1.286890
H247	H	1.124051	-0.332803	0.000098
H248	H	1.624051	0.167197	0.500098
H249	H	1.122281	-0.440642	0.000083
H250	H	1.622281	0.059358	0.500083
H251	H	1.048313	-0.602941	0.000073
H252	H	1.548313	-0.102941	0.500073
H253	H	0.787989	-0.698708	0.000047
H254	H	1.287989	-0.198708	0.500047
C255	C	1.045062	0.039938	0.799852
C256	C	1.545062	0.539938	1.299852
H257	H	1.034342	0.047180	0.860277
H258	H	1.534342	0.547180	1.360277
H259	H	1.097926	0.048157	0.784999
H260	H	1.597926	0.548157	1.284999
H261	H	1.037616	0.001018	0.785022
H262	H	1.537616	0.501018	1.285022
H263	H	0.519874	0.198268	0.000051
H264	H	1.019874	0.698268	0.500051
C265	C	0.700727	-0.429439	0.000002
C266	C	1.200727	0.070561	0.500002
H267	H	0.658732	-0.401233	-0.000014
H268	H	1.158732	0.098767	0.499986
H269	H	0.694816	-0.450780	0.050173
H270	H	1.194816	0.049220	0.550173
H271	H	0.699940	-0.454203	-0.050186
H272	H	1.199940	0.045797	0.449814
H273	H	0.796962	-0.151776	0.000096
H274	H	1.296962	0.348224	0.500096
C275	C	1.008240	0.064790	0.471796
C276	C	1.508240	0.564790	0.971796
H277	H	1.038047	0.044650	0.511736
H278	H	1.538047	0.544650	1.011736
H279	H	1.042397	0.085648	0.436449
H280	H	1.542397	0.585648	0.936449
H281	H	0.982097	0.038503	0.436480
H282	H	1.482097	0.538503	0.936480
H283	H	0.852952	0.169725	0.515441
H284	H	1.352952	0.669725	1.015441
