data_functionalizedCrystal
_audit_creation_method	'MofGen! by Chris Wilmer'
_symmetry_space_group_name_H-M	'P1'
_symmetry_Int_Tables_number	1
_symmetry_cell_setting	triclinic
loop_
_symmetry_equiv_pos_as_xyz
  x,y,z
_cell_length_a	13.339070
_cell_length_b	15.944551
_cell_length_c	11.804365
_cell_angle_alpha	101.830656
_cell_angle_beta	74.875130
_cell_angle_gamma	99.564016
loop_
_atom_site_label
_atom_site_type_symbol
_atom_site_fract_x
_atom_site_fract_y
_atom_site_fract_z
O1	O	1.362759	0.408901	-0.099080
O2	O	1.068226	0.353629	-0.099072
O3	O	1.223533	0.260866	-0.099066
O4	O	1.207452	0.501664	-0.099087
O5	O	1.182647	0.285253	0.098989
O6	O	1.027340	0.378016	0.098982
O7	O	1.321872	0.433288	0.098974
Cu8	Cu	1.170873	0.407879	0.117062
Cu9	Cu	1.219226	0.379038	-0.117160
O10	O	1.166565	0.526051	0.098968
C11	C	1.010093	0.356486	-0.000044
C12	C	0.897788	0.328657	-0.000040
C13	C	0.533018	0.545045	-0.000078
C14	C	0.638534	0.571194	-0.000085
C15	C	0.703352	0.510562	-0.000073
C16	C	0.662645	0.423776	-0.000055
C17	C	0.557121	0.397622	-0.000058
C18	C	0.727455	0.363140	-0.000053
C19	C	0.686748	0.276354	-0.000035
C20	C	0.581234	0.250205	-0.000037
C21	C	0.516415	0.310837	-0.000048
C22	C	0.832980	0.389293	-0.000051
C23	C	0.857083	0.241871	-0.000031
C24	C	0.751567	0.215721	-0.000024
C25	C	1.202422	0.241610	-0.000038
C26	C	1.200420	0.147897	-0.000038
C27	C	1.099370	-0.090508	-0.000051
C28	C	1.126136	-0.128567	0.097600
C29	C	1.196800	-0.023674	-0.000047
C30	C	1.166470	-0.152588	-0.097666
C31	C	1.193297	-0.189405	-0.000060
C32	C	1.223576	-0.060489	0.097685
C33	C	1.263915	-0.084518	-0.097668
C34	C	1.290747	-0.122540	0.000007
C35	C	1.198815	0.071799	-0.000038
C36	C	1.191288	-0.284874	-0.000061
C37	C	1.380006	0.430430	-0.000057
C38	C	1.492312	0.458259	-0.000068
C39	C	1.187677	0.545307	-0.000062
C40	C	1.189681	0.639019	-0.000071
N41	N	1.136871	0.428165	0.281801
N42	N	1.253235	0.358748	-0.281899
C43	C	1.334885	0.310017	0.655758
C44	C	1.360606	0.294667	0.531097
C45	C	1.304674	0.328040	0.468767
C46	C	1.223018	0.376766	0.531110
C47	C	1.197300	0.392123	0.655783
C48	C	1.167089	0.410146	0.468792
C49	C	1.085432	0.458872	0.531135
C50	C	1.059718	0.474226	0.655795
C51	C	1.115650	0.440854	0.718126
C52	C	1.192807	0.394789	0.344119
C53	C	1.055221	0.476895	0.344144
C54	C	1.029500	0.492245	0.468805
H55	H	0.789268	0.531858	-0.000082
H56	H	1.009678	0.504072	0.293396
O57	O	1.439617	0.247002	0.470604
C58	C	1.489513	0.119503	0.330538
C59	C	1.400062	0.173581	0.398826
H60	H	1.457562	0.060122	0.272508
H61	H	1.552372	0.159994	0.271884
H62	H	1.524822	0.098330	0.396743
H63	H	1.364669	0.194766	0.332707
H64	H	1.337270	0.133057	0.457498
O65	O	0.469985	0.603834	-0.000251
C66	C	0.358094	0.647243	-0.102917
C67	C	0.429433	0.580585	-0.102853
H68	H	0.325305	0.628480	-0.185874
H69	H	0.290914	0.648876	-0.020092
H70	H	0.405314	0.713763	-0.102866
H71	H	0.382301	0.514031	-0.102946
H72	H	0.496615	0.579027	-0.185670
O73	O	1.090496	0.455814	0.839225
C74	C	0.978137	0.522935	1.018140
C75	C	1.006496	0.506045	0.880997
H76	H	0.910235	0.563564	1.051955
H77	H	0.954465	0.458818	1.052054
H78	H	1.048779	0.558979	1.051943
H79	H	0.935897	0.470029	0.847093
H80	H	1.030208	0.570190	0.847164
O81	O	1.137600	-0.200270	-0.196066
C82	C	1.104398	-0.342558	-0.306906
C83	C	1.137094	-0.288670	-0.195413
H84	H	1.104000	-0.414039	-0.306428
H85	H	1.022761	-0.329812	-0.306775
H86	H	1.162307	-0.323706	-0.390109
H87	H	1.079258	-0.307490	-0.112152
H88	H	1.218755	-0.301421	-0.195650
H89	H	0.671672	0.641854	-0.000109
H90	H	0.866112	0.459956	-0.000061
H91	H	0.430494	0.289550	-0.000042
H92	H	0.548096	0.179536	-0.000035
O93	O	0.711862	0.131446	-0.000067
C94	C	0.559966	0.025841	0.000014
C95	C	0.604801	0.121304	0.000035
H96	H	0.473396	0.017614	0.000122
H97	H	0.603696	-0.015608	-0.082886
H98	H	0.569605	0.004852	0.082885
H99	H	0.595171	0.142373	-0.082779
H100	H	0.561064	0.162697	0.082990
H101	H	1.259292	0.355116	0.293371
O102	O	1.056502	-0.151881	0.196004
C103	C	0.876930	-0.162395	0.307311
C104	C	0.955681	-0.135980	0.195813
H105	H	0.795403	-0.149532	0.307207
H106	H	0.876555	-0.234021	0.306815
H107	H	0.900555	-0.123128	0.390510
H108	H	0.932112	-0.175186	0.112556
H109	H	0.956043	-0.064341	0.196415
O110	O	1.252281	-0.012933	0.196250
C111	C	1.286429	0.129294	0.306796
C112	C	1.253890	0.075541	0.195137
H113	H	1.287761	0.200837	0.305921
H114	H	1.228009	0.110911	0.389956
H115	H	1.367685	0.115923	0.307133
H116	H	1.172656	0.088884	0.194685
H117	H	1.312378	0.093934	0.112028
O118	O	1.389186	0.277460	0.716179
C119	C	1.440519	0.149944	0.754413
C120	C	1.379001	0.186706	0.685887
H121	H	1.432287	0.076564	0.729966
H122	H	1.526631	0.176718	0.729868
H123	H	1.408118	0.169339	0.854214
H124	H	1.411311	0.167325	0.586070
H125	H	1.292896	0.159935	0.710531
H126	H	0.909859	0.192498	-0.000026
O127	O	1.002855	-0.073363	-0.000097
C128	C	0.862839	-0.102476	-0.102014
C129	C	0.972133	-0.121987	-0.102102
H130	H	0.837976	-0.141765	-0.184489
H131	H	0.804219	-0.120396	-0.018713
H132	H	0.865445	-0.030766	-0.102807
H133	H	0.969629	-0.193689	-0.101351
H134	H	1.030708	-0.104008	-0.185397
O135	O	0.980346	0.521552	0.716172
C136	C	0.846641	0.601418	0.703037
C137	C	0.936486	0.547819	0.634515
H138	H	0.811169	0.622686	0.637047
H139	H	0.783999	0.560566	0.761390
H140	H	0.878294	0.660738	0.761415
H141	H	0.904929	0.488494	0.576072
H142	H	0.999111	0.588732	0.576237
H143	H	1.325620	0.315540	0.367263
H144	H	1.371679	-0.136831	0.000060
H145	H	1.322133	-0.064960	-0.180231
O146	O	0.950056	0.539456	0.529319
C147	C	0.766292	0.552316	0.567463
C148	C	0.856162	0.498760	0.498877
H149	H	0.690361	0.519444	0.542857
H150	H	0.757433	0.557536	0.667283
H151	H	0.784574	0.619661	0.542963
H152	H	0.837946	0.431388	0.523277
H153	H	0.864999	0.493612	0.399074
