data_functionalizedCrystal
_audit_creation_method	'MofGen! by Chris Wilmer'
_symmetry_space_group_name_H-M	'P1'
_symmetry_Int_Tables_number	1
_symmetry_cell_setting	triclinic
loop_
_symmetry_equiv_pos_as_xyz
  x,y,z
_cell_length_a	10.654550
_cell_length_b	10.489716
_cell_length_c	9.130313
_cell_angle_alpha	90.002761
_cell_angle_beta	89.996220
_cell_angle_gamma	84.507019
loop_
_atom_site_label
_atom_site_type_symbol
_atom_site_fract_x
_atom_site_fract_y
_atom_site_fract_z
O1	O	1.667902	0.179158	-0.121906
O2	O	1.302430	0.196228	-0.121881
O3	O	1.493499	0.002089	-0.121899
O4	O	1.476834	0.373297	-0.121887
O5	O	1.493496	0.002094	0.121700
O6	O	1.302428	0.196233	0.121718
O7	O	1.667900	0.179163	0.121693
Cu8	Cu	1.485164	0.187699	0.143948
Cu9	Cu	1.485167	0.187692	-0.144136
O10	O	1.476832	0.373302	0.121712
C11	C	1.255631	0.194977	-0.000078
C12	C	1.116186	0.191227	-0.000069
C13	C	1.492245	-0.045440	-0.000104
C14	C	1.488499	-0.187069	-0.000117
C15	C	1.036744	0.305533	-0.000087
C16	C	0.905722	0.302002	-0.000113
C17	C	0.933597	0.069849	-0.000109
C18	C	1.064616	0.073382	-0.000073
C19	C	1.088314	0.423378	-0.000084
C20	C	1.008871	0.537694	-0.000103
C21	C	0.877848	0.534163	-0.000129
C22	C	0.826270	0.416316	-0.000135
C23	C	1.605668	-0.284800	-0.000112
C24	C	1.543755	-0.362133	-0.120211
C25	C	1.543725	-0.362092	0.119959
C26	C	1.426635	-0.262537	-0.120315
C27	C	1.426623	-0.262490	0.119962
C28	C	1.364623	-0.339775	-0.000166
C29	C	1.714700	0.180414	-0.000112
C30	C	1.854144	0.184164	-0.000131
C31	C	1.478085	0.420831	-0.000087
C32	C	1.481831	0.562460	-0.000083
N33	N	1.485171	0.187702	0.346571
N34	N	1.485169	0.187679	-0.346758
C35	C	1.569798	0.101767	0.423215
C36	C	1.569795	0.101752	0.576552
C37	C	1.400533	0.273618	0.576587
C38	C	1.400532	0.273626	0.423253
C39	C	1.654437	0.015843	0.346533
C40	C	1.739072	-0.070098	0.423177
C41	C	1.739069	-0.070113	0.576513
C42	C	1.654431	0.015813	0.653206
H43	H	1.194997	0.426267	-0.000070
H44	H	1.807973	-0.140098	0.638916
C45	C	1.830851	-0.163299	0.339653
C46	C	1.812743	-0.144897	0.188964
C47	C	1.897256	-0.230745	0.111981
H48	H	1.816485	-0.248600	0.364624
H49	H	1.914837	-0.148696	0.364665
H50	H	1.728777	-0.159510	0.163963
H51	H	1.827119	-0.059613	0.163950
H52	H	1.981242	-0.216142	0.136992
H53	H	1.882883	-0.316041	0.136964
H54	H	1.884989	-0.218263	0.009731
C55	C	1.150820	-0.050759	-0.000367
C56	C	1.127419	-0.121636	-0.125723
C57	C	1.206819	-0.235993	-0.126050
H58	H	1.135131	-0.099184	0.084474
H59	H	1.236252	-0.031824	-0.000421
H60	H	1.042006	-0.140573	-0.125656
H61	H	1.143116	-0.073249	-0.210584
H62	H	1.292251	-0.217059	-0.126104
H63	H	1.191123	-0.284408	-0.041204
H64	H	1.190961	-0.284092	-0.211109
H65	H	0.813168	0.627243	-0.000130
C66	C	1.308511	0.366964	0.659585
C67	C	1.234372	0.442203	0.559642
C68	C	1.149576	0.528199	0.636043
H69	H	1.354013	0.420610	0.719409
H70	H	1.255758	0.320606	0.719367
H71	H	1.287117	0.488558	0.499885
H72	H	1.188842	0.388593	0.499814
H73	H	1.096824	0.481841	0.695825
H74	H	1.195089	0.581835	0.695865
H75	H	1.099255	0.579251	0.568244
H76	H	1.707585	-0.260172	-0.000240
H77	H	1.050875	0.633640	-0.000086
H78	H	0.719581	0.413451	-0.000133
H79	H	1.593211	-0.405586	0.221491
H80	H	1.377201	-0.219211	-0.221962
H81	H	0.891590	-0.026096	-0.000138
H82	H	1.331619	0.343601	0.360849
H83	H	1.593217	-0.405654	-0.221755
H84	H	1.377203	-0.218946	0.221510
H85	H	1.262629	-0.364156	-0.000224
H86	H	1.654450	0.015850	0.221678
H87	H	1.654426	0.015784	0.778064
