data_functionalizedCrystal
_audit_creation_method	'MofGen! by Chris Wilmer'
_symmetry_space_group_name_H-M	'P1'
_symmetry_Int_Tables_number	1
_symmetry_cell_setting	triclinic
loop_
_symmetry_equiv_pos_as_xyz
  x,y,z
_cell_length_a	23.532355
_cell_length_b	23.532407
_cell_length_c	9.730217
_cell_angle_alpha	89.992119
_cell_angle_beta	90.004418
_cell_angle_gamma	82.838088
loop_
_atom_site_label
_atom_site_type_symbol
_atom_site_fract_x
_atom_site_fract_y
_atom_site_fract_z
O1	O	0.755276	0.068993	-0.114117
O2	O	0.589409	0.079027	-0.114163
O3	O	0.677344	-0.008922	-0.114113
O4	O	0.667341	0.156943	-0.114166
O5	O	0.677342	-0.008923	0.114467
O6	O	0.589406	0.079027	0.114418
O7	O	0.755274	0.068992	0.114463
Zn8	Zn	0.672339	0.074009	0.150732
Zn9	Zn	0.672343	0.074010	-0.150432
O10	O	0.667338	0.156942	0.114414
C11	C	0.568191	0.078776	0.000122
C12	C	0.504972	0.078022	0.000106
C13	C	0.112957	0.073283	0.124764
C14	C	0.053557	0.072566	0.124769
O15	O	0.022838	0.072175	0.230735
N16	N	0.023850	0.072211	0.000171
C17	C	0.053547	0.072567	-0.124441
O18	O	0.022824	0.072198	-0.230421
C19	C	0.112946	0.073280	-0.124445
C20	C	0.142649	0.073641	0.000161
C21	C	0.142660	0.073644	0.249360
C22	C	0.202055	0.074362	0.249354
C23	C	0.231747	0.074720	0.124752
C24	C	0.202044	0.074360	0.000155
C25	C	0.142641	0.073633	-0.249056
C26	C	0.202044	0.074346	-0.249049
C27	C	0.231747	0.074707	-0.124443
C28	C	0.291131	0.075436	-0.124453
N29	N	0.320838	0.075792	0.000145
C30	C	0.291146	0.075434	0.124747
C31	C	-0.071195	0.071068	-0.124423
C32	C	-0.130593	0.070359	-0.124421
C33	C	-0.130578	0.070357	0.124791
C34	C	-0.071179	0.071070	0.124786
C35	C	-0.041488	0.071423	0.000175
C36	C	0.415880	0.076943	0.124725
C37	C	0.475280	0.077664	0.124708
C38	C	0.475260	0.077663	-0.124502
C39	C	0.415865	0.076945	-0.124486
C40	C	0.386177	0.076583	0.000139
O41	O	0.321889	0.075825	-0.230365
O42	O	0.321877	0.075795	0.230710
C43	C	0.677088	-0.030139	0.000180
C44	C	0.676322	-0.093356	0.000191
C45	C	0.723557	-0.492468	0.000128
C46	C	0.722845	-0.551868	0.000118
O47	O	0.766632	-0.588620	0.000079
N48	N	0.670568	-0.574484	0.000104
C49	C	0.618998	-0.537697	0.000088
O50	O	0.574467	-0.562388	0.000074
C51	C	0.619710	-0.478298	0.000088
C52	C	0.671991	-0.455685	0.000116
C53	C	0.775834	-0.469854	0.000154
C54	C	0.776545	-0.410458	0.000167
C55	C	0.724979	-0.373676	0.000155
C56	C	0.672703	-0.396289	0.000129
C57	C	0.568141	-0.441512	0.000062
C58	C	0.568858	-0.382110	0.000062
C59	C	0.621139	-0.359497	0.000089
C60	C	0.621848	-0.300110	0.000129
N61	N	0.674126	-0.277494	0.000143
C62	C	0.725691	-0.314277	0.000156
C63	C	0.617507	-0.662439	0.000083
C64	C	0.616794	-0.721837	0.000093
C65	C	0.720642	-0.736004	0.000120
C66	C	0.721354	-0.676605	0.000121
C67	C	0.669784	-0.639823	0.000097
C68	C	0.727181	-0.189540	0.000184
C69	C	0.727888	-0.130138	0.000203
C70	C	0.624041	-0.115977	0.000168
C71	C	0.623334	-0.175373	0.000157
C72	C	0.674909	-0.212154	0.000160
O73	O	0.578084	-0.263323	0.000163
O74	O	0.770216	-0.289577	0.000151
C75	C	0.776492	0.069244	0.000176
C76	C	0.839710	0.069998	0.000183
C77	C	0.667594	0.178158	0.000117
C78	C	0.668360	0.241375	0.000098
N79	N	0.672341	0.074008	0.356269
N80	N	0.672346	0.074007	-0.355968
C81	C	0.750239	-0.003849	0.356303
C82	C	0.789192	-0.042776	0.428260
C83	C	0.789198	-0.042777	0.572140
C84	C	0.750246	-0.003847	0.644066
C85	C	0.711293	0.035080	0.572109
C86	C	0.711292	0.035078	0.428226
C87	C	0.633393	0.112934	0.572075
C88	C	0.633389	0.112938	0.428195
C89	C	0.594440	0.151864	0.644001
C90	C	0.555489	0.190794	0.572044
C91	C	0.555485	0.190794	0.428155
C92	C	0.594436	0.151865	0.356238
H93	H	-0.046999	0.071365	0.226252
N94	N	0.831191	-0.084777	0.350686
H95	H	0.825275	-0.078875	0.248619
H96	H	0.871558	-0.078418	0.375819
H97	H	0.770463	-0.111731	0.000229
H98	H	0.523774	0.222486	0.630615
N99	N	0.383831	0.076557	-0.258887
H100	H	0.364012	0.040947	-0.264429
H101	H	0.354391	0.111590	-0.264384
N102	N	0.234063	0.074729	-0.383462
H103	H	0.253886	0.110335	-0.389041
H104	H	0.263498	0.039693	-0.388928
N105	N	-0.162628	0.069978	-0.258816
H106	H	-0.134800	0.070314	-0.337745
H107	H	-0.182450	0.034370	-0.264236
H108	H	0.820915	-0.074476	0.630728
H109	H	0.750243	-0.003848	0.239149
H110	H	0.594438	0.151863	0.239083
N111	N	0.507316	0.078047	0.259113
H112	H	0.549451	0.078557	0.240212
H113	H	0.492113	0.113231	0.313515
N114	N	0.750245	-0.003847	0.799250
H115	H	0.742184	-0.042500	0.833918
H116	H	0.788897	0.004262	0.833801
H117	H	0.594444	0.151859	0.761155
H118	H	0.499446	0.077957	-0.225950
N119	N	0.513467	0.232775	0.350547
H120	H	0.488793	0.257433	0.417949
H121	H	0.535118	0.257845	0.290842
H122	H	0.391714	0.076654	0.226207
N123	N	0.782807	-0.229206	0.000188
H124	H	0.816027	-0.205859	0.000209
H125	H	0.784774	-0.254166	0.084924
H126	H	0.226235	0.074653	0.350822
N127	N	0.777741	-0.652217	0.000141
H128	H	0.780352	-0.627894	0.084878
H129	H	0.810263	-0.684568	0.000102
N130	N	0.110614	0.073236	-0.383453
H131	H	0.116132	0.108665	-0.437955
H132	H	0.125793	0.038023	-0.437782
N133	N	0.110642	0.073256	0.383765
H134	H	0.138532	0.073204	0.462679
H135	H	0.081442	0.108468	0.389594
H136	H	0.574222	-0.740243	0.000094
H137	H	-0.047024	0.071361	-0.225903
H138	H	-0.154764	0.070064	0.226249
N139	N	0.561882	-0.622768	0.000070
H140	H	0.528661	-0.646114	0.000063
H141	H	0.559913	-0.597820	0.084809
N142	N	0.511752	-0.465892	0.000050
H143	H	0.479199	-0.433569	0.000039
H144	H	0.509190	-0.490222	-0.084688
N145	N	0.832934	-0.386073	0.000192
H146	H	0.865488	-0.418394	0.000195
H147	H	0.835495	-0.361732	-0.084544
H148	H	0.817827	-0.499797	0.000159
N149	N	0.776261	-0.775682	0.000134
H150	H	0.767872	-0.816741	0.000125
H151	H	0.799060	-0.768390	-0.084597
H152	H	0.526863	-0.352164	0.000040
H153	H	0.580762	-0.193785	0.000173
H154	H	0.582057	-0.086018	0.000163
