data_functionalizedCrystal
_audit_creation_method	'MofGen! by Chris Wilmer'
_symmetry_space_group_name_H-M	'P1'
_symmetry_Int_Tables_number	1
_symmetry_cell_setting	triclinic
loop_
_symmetry_equiv_pos_as_xyz
  x,y,z
_cell_length_a	19.188930
_cell_length_b	23.532407
_cell_length_c	17.666332
_cell_angle_alpha	89.988854
_cell_angle_beta	89.976766
_cell_angle_gamma	82.996728
loop_
_atom_site_label
_atom_site_type_symbol
_atom_site_fract_x
_atom_site_fract_y
_atom_site_fract_z
O1	O	0.925923	0.071102	-0.063199
O2	O	0.722581	0.080673	-0.063148
O3	O	0.830384	-0.007031	-0.063161
O4	O	0.818120	0.158806	-0.063186
O5	O	0.830365	-0.007036	0.062735
O6	O	0.722562	0.080669	0.062748
O7	O	0.925904	0.071097	0.062697
Cu8	Cu	0.824231	0.075883	0.074218
Cu9	Cu	0.824253	0.075888	-0.074669
O10	O	0.818101	0.158802	0.062711
C11	C	0.696561	0.080361	-0.000193
C12	C	0.619060	0.079431	-0.000173
C13	C	0.573972	0.130893	-0.000193
C14	C	0.501151	0.130019	-0.000201
C15	C	0.473421	0.077680	-0.000205
C16	C	0.518519	0.026211	-0.000181
C17	C	0.591339	0.027086	-0.000165
N18	N	0.365575	0.037674	-0.043078
N19	N	0.296399	0.036846	-0.043094
C20	C	0.254021	0.075038	-0.000251
N21	N	0.283431	0.114099	0.042600
N22	N	0.352613	0.114929	0.042614
C23	C	0.394462	0.076724	-0.000222
C24	C	0.129971	0.125556	-0.000278
C25	C	0.057149	0.124680	-0.000282
C26	C	0.074520	0.020870	-0.000269
C27	C	0.147340	0.021748	-0.000258
C28	C	0.175061	0.074092	-0.000266
C29	C	0.830062	-0.028250	-0.000211
C30	C	0.829123	-0.091469	-0.000205
C31	C	0.887029	-0.490449	-0.000261
C32	C	0.886157	-0.549851	-0.000267
O33	O	0.939837	-0.586482	-0.000308
N34	N	0.822068	-0.572613	-0.000250
C35	C	0.758848	-0.535970	-0.000236
O36	O	0.704255	-0.560786	-0.000223
C37	C	0.759721	-0.476569	-0.000235
C38	C	0.823814	-0.453810	-0.000244
C39	C	0.951117	-0.467690	-0.000271
C40	C	0.951989	-0.408292	-0.000264
C41	C	0.888773	-0.371653	-0.000247
C42	C	0.824685	-0.394412	-0.000237
C43	C	0.696501	-0.439927	-0.000226
C44	C	0.697379	-0.380523	-0.000227
C45	C	0.761472	-0.357764	-0.000236
C46	C	0.762342	-0.298376	-0.000214
N47	N	0.826430	-0.275614	-0.000230
C48	C	0.889646	-0.312252	-0.000247
C49	C	0.757019	-0.660717	-0.000237
C50	C	0.756146	-0.720116	-0.000232
C51	C	0.883455	-0.733993	-0.000264
C52	C	0.884328	-0.674592	-0.000264
C53	C	0.821108	-0.637954	-0.000254
C54	C	0.891472	-0.187512	-0.000232
C55	C	0.892339	-0.128108	-0.000222
C56	C	0.765029	-0.114236	-0.000193
C57	C	0.764163	-0.173634	-0.000199
C58	C	0.827390	-0.210272	-0.000221
O59	O	0.708690	-0.261710	-0.000176
O60	O	0.944230	-0.287428	-0.000270
C61	C	0.951923	0.071410	-0.000259
C62	C	1.029425	0.072340	-0.000284
C63	C	0.818423	0.180021	-0.000241
C64	C	0.819362	0.243240	-0.000252
N65	N	0.824221	0.075878	0.178938
N66	N	0.824270	0.075888	-0.179389
C67	C	0.871971	0.037062	0.218542
C68	C	0.871975	0.037059	0.297789
C69	C	0.824236	0.075883	0.337430
C70	C	0.776476	0.114702	0.297816
C71	C	0.776469	0.114700	0.218570
N72	N	0.814998	0.126298	0.461842
N73	N	0.815010	0.126298	0.537123
C74	C	0.824254	0.075891	0.576194
N75	N	0.833500	0.025481	0.537141
N76	N	0.833493	0.025482	0.461853
C77	C	0.824238	0.075889	0.423359
C78	C	0.872011	0.037068	0.701727
C79	C	0.872010	0.037064	0.780976
C80	C	0.776515	0.114713	0.781002
C81	C	0.776512	0.114711	0.701754
C82	C	0.824264	0.075889	0.662122
H83	H	0.464433	0.171927	-0.000215
H84	H	0.051943	-0.021745	-0.000319
O85	O	0.634259	-0.462054	-0.000092
C86	C	0.629923	-0.496022	0.065096
H87	H	0.666295	-0.482074	0.110672
H88	H	0.573607	-0.490555	0.086983
H89	H	0.646359	-0.542904	0.050347
H90	H	0.737642	0.146321	0.813277
H91	H	0.910852	0.005450	0.186275
H92	H	0.910860	0.005449	0.330041
O93	O	0.693947	-0.742315	-0.000183
C94	C	0.706722	-0.802601	-0.000213
H95	H	0.761302	-0.816689	0.023609
H96	H	0.665728	-0.820748	0.036343
H97	H	0.703466	-0.819116	-0.060614
H98	H	0.737605	0.146312	0.330096
H99	H	0.944533	-0.109581	-0.000227
H100	H	0.020438	0.166588	-0.000293
O101	O	0.730058	0.152466	0.180213
C102	C	0.687907	0.186722	0.232189
H103	H	0.716528	0.187309	0.288665
H104	H	0.676935	0.232226	0.209285
H105	H	0.636172	0.168334	0.240647
H106	H	0.596537	0.173516	-0.000201
H107	H	0.705535	-0.630888	-0.000222
H108	H	0.495937	-0.016404	-0.000195
O109	O	0.952845	-0.223153	-0.000149
C110	C	0.956151	-0.257929	0.065061
H111	H	0.900751	-0.260815	0.086808
H112	H	0.982491	-0.302632	0.050389
H113	H	0.987884	-0.238464	0.110715
O114	O	0.191043	-0.028295	-0.000281
C115	C	0.150957	-0.074680	-0.000267
H116	H	0.096516	-0.060088	-0.024114
H117	H	0.178090	-0.110726	-0.036809
H118	H	0.145850	-0.090735	0.060133
H119	H	0.628050	-0.014822	-0.000150
O120	O	1.014311	-0.386283	-0.000312
C121	C	1.069911	-0.431368	-0.000311
H122	H	1.050622	-0.471669	-0.024141
H123	H	1.114690	-0.419061	-0.036874
H124	H	1.089382	-0.439831	0.060083
H125	H	0.910892	0.005455	0.669457
O126	O	0.635901	-0.345014	-0.000183
C127	C	0.579151	-0.377845	-0.000196
H128	H	0.597188	-0.422226	0.023633
H129	H	0.534874	-0.355837	0.036363
H130	H	0.559500	-0.382020	-0.060593
O131	O	0.918466	-0.000665	0.819333
C132	C	0.960598	-0.034936	0.767354
H133	H	0.961215	-0.011588	0.710858
H134	H	1.016417	-0.043730	0.790224
H135	H	0.938232	-0.077202	0.758951
H136	H	0.152543	0.168178	-0.000274
H137	H	1.002598	-0.497516	-0.000287
H138	H	0.737632	0.146322	0.669507
H139	H	0.936518	-0.656067	-0.000272
O140	O	0.944801	-0.769671	-0.000323
C141	C	0.930280	-0.826978	-0.000307
H142	H	0.875455	-0.829115	-0.024123
H143	H	0.970598	-0.853982	-0.036876
H144	H	0.933044	-0.844177	0.060089
H145	H	0.711973	-0.192165	-0.000171
H146	H	0.713561	-0.084394	-0.000177
