data_functionalizedCrystal
_audit_creation_method	'MofGen! by Chris Wilmer'
_symmetry_space_group_name_H-M	'P1'
_symmetry_Int_Tables_number	1
_symmetry_cell_setting	triclinic
loop_
_symmetry_equiv_pos_as_xyz
  x,y,z
_cell_length_a	16.109301
_cell_length_b	10.540539
_cell_length_c	14.586319
_cell_angle_alpha	89.998343
_cell_angle_beta	89.999213
_cell_angle_gamma	83.993486
loop_
_atom_site_label
_atom_site_type_symbol
_atom_site_fract_x
_atom_site_fract_y
_atom_site_fract_z
O1	O	1.104129	0.163159	-0.076178
O2	O	0.862191	0.183464	-0.076192
O3	O	0.988679	-0.011474	-0.076184
O4	O	0.977640	0.358096	-0.076186
O5	O	0.988670	-0.011477	0.076297
O6	O	0.862182	0.183461	0.076289
O7	O	1.104120	0.163156	0.076303
Cu8	Cu	0.983150	0.173308	0.090219
Cu9	Cu	0.983160	0.173312	-0.090108
O10	O	0.977631	0.358094	0.076294
C11	C	0.831206	0.182640	0.000047
C12	C	0.738896	0.180174	0.000041
C13	C	0.987847	-0.058767	0.000055
C14	C	0.985370	-0.199679	0.000050
C15	C	0.517296	0.290112	0.000051
C16	C	0.430561	0.287785	0.000057
C17	C	0.449021	0.056499	0.000055
C18	C	0.535754	0.058827	0.000055
C19	C	0.569889	0.175637	0.000049
C20	C	0.396421	0.170982	0.000054
C21	C	0.302380	0.168459	0.000060
C22	C	0.663936	0.178162	0.000044
C23	C	0.890460	-0.381753	-0.000298
C24	C	0.892971	-0.235171	0.000046
C25	C	1.029832	-0.261973	0.087127
C26	C	1.026678	-0.408472	0.087200
C27	C	1.028567	-0.409014	-0.086199
C28	C	1.029419	-0.262044	-0.087350
C29	C	1.135104	0.163980	0.000062
C30	C	1.227414	0.166446	0.000062
C31	C	0.978463	0.405386	0.000054
C32	C	0.980940	0.546299	0.000053
N33	N	0.983149	0.173305	0.217050
N34	N	0.983168	0.173305	-0.216939
C35	C	1.039177	0.087015	0.452060
C36	C	1.039179	0.087012	0.548042
C37	C	0.927134	0.259598	0.548044
C38	C	0.927129	0.259594	0.452064
C39	C	0.983154	0.173304	0.404075
C40	C	0.983163	0.173305	0.596036
C41	C	0.983165	0.173303	0.700103
C42	C	0.983151	0.173305	0.300001
H43	H	0.545085	0.385227	0.000052
C44	C	1.117599	-0.473078	-0.087122
C45	C	1.159366	-0.432504	-0.164216
C46	C	1.241382	-0.491485	-0.165082
H47	H	1.116861	-0.563015	-0.089404
H48	H	1.145647	-0.450650	-0.033131
H49	H	1.131326	-0.454940	-0.218194
H50	H	1.160128	-0.342575	-0.161950
H51	H	1.269430	-0.469058	-0.111091
H52	H	1.240636	-0.581420	-0.167362
H53	H	1.269734	-0.463955	-0.217385
C54	C	0.373418	0.412034	0.000241
C55	C	0.323101	0.417473	0.078702
C56	C	0.270458	0.531923	0.078909
H57	H	0.339122	0.416054	-0.052869
H58	H	0.406143	0.481968	0.000286
H59	H	0.290379	0.347558	0.078648
H60	H	0.357375	0.413475	0.131825
H61	H	0.303183	0.601857	0.078954
H62	H	0.236168	0.535933	0.025795
H63	H	0.236317	0.535634	0.132147
H64	H	1.084796	0.016747	0.587109
H65	H	0.881520	0.329855	0.587126
H66	H	0.421218	-0.038605	0.000066
H67	H	0.857734	-0.192914	0.062566
H68	H	0.998939	-0.218934	0.151923
H69	H	1.084795	0.016751	0.412990
C70	C	0.592723	-0.065606	0.000006
C71	C	0.544268	-0.168402	-0.000021
C72	C	0.596719	-0.283041	-0.000075
H73	H	0.626958	-0.069686	0.053165
H74	H	0.626931	-0.069568	-0.053189
H75	H	0.510075	-0.164441	0.053168
H76	H	0.510035	-0.164364	-0.053177
H77	H	0.630926	-0.287004	-0.053269
H78	H	0.630951	-0.287108	0.053085
H79	H	0.563850	-0.352802	-0.000102
C80	C	0.846244	-0.177920	-0.083207
C81	C	0.815498	-0.275304	-0.134277
C82	C	0.772433	-0.222617	-0.210967
H83	H	0.883065	-0.135062	-0.120147
H84	H	0.801054	-0.118991	-0.063641
H85	H	0.860682	-0.334211	-0.153843
H86	H	0.778666	-0.318170	-0.097363
H87	H	0.727242	-0.163688	-0.191402
H88	H	0.809259	-0.179760	-0.247900
H89	H	0.751560	-0.288682	-0.245623
C90	C	1.120342	-0.233649	0.091598
C91	C	1.158024	-0.290611	0.169996
C92	C	1.241403	-0.264560	0.174137
H93	H	1.122571	-0.144027	0.094258
H94	H	1.149117	-0.266986	0.038567
H95	H	1.129256	-0.257268	0.223013
H96	H	1.155817	-0.380234	0.167353
H97	H	1.270179	-0.297897	0.121106
H98	H	1.243624	-0.174937	0.176794
H99	H	1.266983	-0.303214	0.227324
H100	H	0.853964	-0.409832	-0.062742
H101	H	0.854105	-0.411444	0.061793
H102	H	1.093130	-0.457388	0.091154
C103	C	0.866265	0.353429	0.400124
C104	C	0.817221	0.429029	0.462691
C105	C	0.761153	0.515485	0.414878
H106	H	0.831308	0.307895	0.362685
H107	H	0.896463	0.406349	0.362696
H108	H	0.787025	0.376115	0.500104
H109	H	0.852155	0.474591	0.500132
H110	H	0.791350	0.568405	0.377449
H111	H	0.726201	0.469940	0.377440
H112	H	0.727875	0.566798	0.457322
C113	C	0.982788	-0.445196	0.174011
C114	C	0.959360	-0.335530	0.225905
C115	C	0.918915	-0.369301	0.305876
H116	H	1.019522	-0.502730	0.208933
H117	H	0.934497	-0.484946	0.158132
H118	H	1.007645	-0.295799	0.241786
H119	H	0.922617	-0.277983	0.191011
H120	H	0.870624	-0.409050	0.289996
H121	H	0.955654	-0.426835	0.340790
H122	H	0.903007	-0.294897	0.341091
H123	H	0.998666	-0.440139	-0.152197
H124	H	0.996887	-0.220721	-0.151767
H125	H	1.096785	-0.238783	-0.092605
