data_functionalizedCrystal
_audit_creation_method	'MofGen! by Chris Wilmer'
_symmetry_space_group_name_H-M	'P1'
_symmetry_Int_Tables_number	1
_symmetry_cell_setting	triclinic
loop_
_symmetry_equiv_pos_as_xyz
  x,y,z
_cell_length_a	23.532407
_cell_length_b	23.532409
_cell_length_c	22.010155
_cell_angle_alpha	90.007292
_cell_angle_beta	89.994271
_cell_angle_gamma	82.849153
loop_
_atom_site_label
_atom_site_type_symbol
_atom_site_fract_x
_atom_site_fract_y
_atom_site_fract_z
O1	O	0.755264	0.069127	-0.050483
O2	O	1.088598	0.402461	0.282850
O3	O	1.421931	0.735794	0.616184
O4	O	0.589401	0.079130	-0.050492
O5	O	0.922734	0.412464	0.282841
O6	O	1.256068	0.745797	0.616175
O7	O	0.677334	-0.008803	-0.050488
O8	O	1.010667	0.324531	0.282845
O9	O	1.344000	0.657864	0.616179
O10	O	0.667332	0.157060	-0.050487
O11	O	1.000665	0.490394	0.282846
O12	O	1.333998	0.823727	0.616180
O13	O	0.677318	-0.008790	0.050562
O14	O	1.010651	0.324544	0.383896
O15	O	1.343984	0.657877	0.717229
O16	O	0.589385	0.079144	0.050558
O17	O	0.922718	0.412477	0.383892
O18	O	1.256052	0.745810	0.717225
O19	O	0.755248	0.069140	0.050567
O20	O	1.088582	0.402474	0.383901
O21	O	1.421915	0.735807	0.717234
Cu22	Cu	0.672315	0.074143	0.059790
Cu23	Cu	1.005648	0.407477	0.393123
Cu24	Cu	1.338982	0.740810	0.726456
Cu25	Cu	0.672334	0.074128	-0.059714
Cu26	Cu	1.005667	0.407461	0.273619
Cu27	Cu	1.339001	0.740794	0.606952
O28	O	0.667316	0.157074	0.050563
O29	O	1.000649	0.490407	0.383897
O30	O	1.333982	0.823740	0.717230
C31	C	0.568177	0.078882	0.000032
C32	C	0.901510	0.412216	0.333365
C33	C	1.234844	0.745549	0.666699
C34	C	0.504960	0.078116	0.000028
C35	C	0.838293	0.411450	0.333362
C36	C	1.171627	0.744783	0.666695
C37	C	0.238792	0.022921	0.000045
C38	C	0.572125	0.356254	0.333378
C39	C	0.905459	0.689588	0.666711
C40	C	0.298192	0.023632	0.000044
C41	C	0.631526	0.356966	0.333378
C42	C	0.964859	0.690299	0.666711
O43	O	0.334936	-0.020153	0.000065
O44	O	0.668270	0.313180	0.333399
O45	O	1.001603	0.646513	0.666732
N46	N	0.320819	0.075909	0.000041
N47	N	0.654152	0.409242	0.333374
N48	N	0.987485	0.742575	0.666707
C49	C	0.284042	0.127477	0.000043
C50	C	0.617375	0.460810	0.333376
C51	C	0.950708	0.794144	0.666710
O52	O	0.308742	0.172007	0.000040
O53	O	0.642075	0.505341	0.333374
O54	O	0.975408	0.838674	0.666707
C55	C	0.224643	0.126765	0.000048
C56	C	0.557976	0.460098	0.333381
C57	C	0.891309	0.793431	0.666714
C58	C	0.202020	0.074485	0.000045
C59	C	0.535353	0.407818	0.333379
C60	C	0.868686	0.741152	0.666712
C61	C	0.216168	-0.029354	0.000043
C62	C	0.549502	0.303979	0.333376
C63	C	0.882835	0.637312	0.666710
C64	C	0.156772	-0.030066	0.000042
C65	C	0.490105	0.303268	0.333375
C66	C	0.823439	0.636601	0.666709
C67	C	0.120000	0.021499	0.000043
C68	C	0.453333	0.354832	0.333376
C69	C	0.786666	0.688165	0.666709
C70	C	0.142623	0.073774	0.000044
C71	C	0.475957	0.407107	0.333378
C72	C	0.809290	0.740441	0.666711
C73	C	0.187867	0.178332	0.000054
C74	C	0.521200	0.511666	0.333388
C75	C	0.854533	0.844999	0.666721
C76	C	0.128464	0.177616	0.000059
C77	C	0.461797	0.510949	0.333393
C78	C	0.795131	0.844282	0.666726
C79	C	0.105841	0.125336	0.000057
C80	C	0.439174	0.458670	0.333390
C81	C	0.772508	0.792003	0.666724
C82	C	0.046455	0.124627	0.000044
C83	C	0.379788	0.457960	0.333377
C84	C	0.713121	0.791294	0.666711
N85	N	0.023828	0.072351	0.000048
N86	N	0.357161	0.405684	0.333381
N87	N	0.690495	0.739017	0.666714
C88	C	0.060601	0.020787	0.000047
C89	C	0.393934	0.354120	0.333380
C90	C	0.727267	0.687453	0.666714
C91	C	0.408784	0.128968	0.000035
C92	C	0.742118	0.462302	0.333368
C93	C	1.075451	0.795635	0.666701
C94	C	0.468182	0.129681	0.000026
C95	C	0.801515	0.463014	0.333359
C96	C	1.134849	0.796348	0.666692
C97	C	0.482329	0.025836	0.000028
C98	C	0.815662	0.359169	0.333362
C99	C	1.148995	0.692503	0.666695
C100	C	0.422930	0.025124	0.000033
C101	C	0.756263	0.358457	0.333366
C102	C	1.089596	0.691791	0.666699
C103	C	0.386158	0.076692	0.000039
C104	C	0.719491	0.410025	0.333372
C105	C	1.052824	0.743359	0.666705
C106	C	-0.064136	0.019297	0.000045
C107	C	0.269197	0.352630	0.333378
C108	C	0.602530	0.685964	0.666711
C109	C	-0.123538	0.018590	0.000041
C110	C	0.209795	0.351924	0.333374
C111	C	0.543128	0.685257	0.666708
C112	C	-0.137680	0.122435	0.000042
C113	C	0.195654	0.455768	0.333375
C114	C	0.528987	0.789101	0.666708
C115	C	-0.078283	0.123142	0.000042
C116	C	0.255051	0.456475	0.333375
C117	C	0.588384	0.789808	0.666709
C118	C	-0.041512	0.071568	0.000046
C119	C	0.291821	0.404901	0.333379
C120	C	0.625155	0.738235	0.666712
O121	O	0.009676	0.168390	0.000026
O122	O	0.343009	0.501723	0.333359
O123	O	0.676343	0.835057	0.666692
O124	O	0.035892	-0.023736	0.000058
O125	O	0.369226	0.309597	0.333391
O126	O	0.702559	0.642930	0.666724
C127	C	0.677071	-0.030012	0.000036
C128	C	1.010404	0.303321	0.333369
C129	C	1.343737	0.636654	0.666702
C130	C	0.676304	-0.093229	0.000031
C131	C	1.009638	0.240104	0.333365
C132	C	1.342971	0.573437	0.666698
C133	C	0.673054	-0.366481	-0.055054
C134	C	1.006387	-0.033148	0.278279
C135	C	1.339721	0.300185	0.611612
C136	C	0.673766	-0.307081	-0.055054
C137	C	1.007099	0.026252	0.278279
C138	C	1.340432	0.359585	0.611612
O139	O	0.674161	-0.276363	-0.101898
O140	O	1.007494	0.056971	0.231435
O141	O	1.340828	0.390304	0.564769
N142	N	0.674109	-0.277372	0.000029
N143	N	1.007443	0.055961	0.333363
N144	N	1.340776	0.389295	0.666696
C145	C	0.673747	-0.307067	0.055116
C146	C	1.007080	0.026267	0.388450
C147	C	1.340414	0.359600	0.721783
O148	O	0.674105	-0.276342	0.101969
O149	O	1.007438	0.056991	0.435302
O150	O	1.340772	0.390324	0.768636
C151	C	0.673039	-0.366466	0.055116
C152	C	1.006373	-0.033133	0.388449
C153	C	1.339706	0.300200	0.721782
C154	C	0.672690	-0.396172	0.000029
C155	C	1.006023	-0.062838	0.333362
C156	C	1.339357	0.270495	0.666695
C157	C	0.672705	-0.396187	-0.110137
C158	C	1.006039	-0.062854	0.223197
C159	C	1.339372	0.270480	0.556530
C160	C	0.671993	-0.455583	-0.110136
C161	C	1.005326	-0.122250	0.223197
C162	C	1.338659	0.211084	0.556530
C163	C	0.671629	-0.485273	-0.055054
C164	C	1.004962	-0.151940	0.278280
C165	C	1.338295	0.181393	0.611613
C166	C	0.671977	-0.455568	0.000029
C167	C	1.005311	-0.122234	0.333362
C168	C	1.338644	0.211099	0.666696
C169	C	0.672681	-0.396161	0.110202
C170	C	1.006014	-0.062827	0.443536
C171	C	1.339348	0.270506	0.776869
C172	C	0.671974	-0.455564	0.110197
C173	C	1.005307	-0.122231	0.443530
C174	C	1.338641	0.211102	0.776864
C175	C	0.671625	-0.485270	0.055110
C176	C	1.004958	-0.151936	0.388443
C177	C	1.338291	0.181397	0.721777
C178	C	0.670901	-0.544654	0.055112
C179	C	1.004234	-0.211321	0.388446
C180	C	1.337567	0.122013	0.721779
N181	N	0.670557	-0.574363	0.000029
N182	N	1.003890	-0.241030	0.333362
N183	N	1.337224	0.092303	0.666695
C184	C	0.670921	-0.544673	-0.055054
C185	C	1.004254	-0.211340	0.278279
C186	C	1.337588	0.121994	0.611613
C187	C	0.675234	-0.182323	0.055113
C188	C	1.008567	0.151010	0.388447
C189	C	1.341900	0.484343	0.721780
C190	C	0.675937	-0.122924	0.055115
C191	C	1.009271	0.210409	0.388448
C192	C	1.342604	0.543742	0.721781
C193	C	0.675957	-0.122943	-0.055056
C194	C	1.009290	0.210390	0.278277
C195	C	1.342624	0.543724	0.611610
C196	C	0.675249	-0.182343	-0.055057
C197	C	1.008583	0.150991	0.278276
C198	C	1.341916	0.484324	0.611610
C199	C	0.674890	-0.212033	0.000030
C200	C	1.008224	0.121301	0.333363
C201	C	1.341557	0.454634	0.666697
C202	C	0.669424	-0.669409	-0.055049
C203	C	1.002757	-0.336075	0.278284
C204	C	1.336091	-0.002742	0.611617
C205	C	0.668709	-0.728810	-0.055044
C206	C	1.002042	-0.395476	0.278289
C207	C	1.335376	-0.062143	0.611623
C208	C	0.668692	-0.728786	0.055126
C209	C	1.002025	-0.395453	0.388460
C210	C	1.335359	-0.062119	0.721793
C211	C	0.669404	-0.669390	0.055122
C212	C	1.002737	-0.336057	0.388455
C213	C	1.336071	-0.002723	0.721788
C214	C	0.669772	-0.639703	0.000029
C215	C	1.003105	-0.306370	0.333362
C216	C	1.336439	0.026964	0.666695
O217	O	0.670507	-0.575411	0.101932
O218	O	1.003841	-0.242077	0.435265
O219	O	1.337174	0.091256	0.768599
O220	O	0.670570	-0.575406	-0.101899
O221	O	1.003904	-0.242072	0.231434
O222	O	1.337237	0.091261	0.564768
C223	C	0.776472	0.069389	0.000042
C224	C	1.109806	0.402722	0.333375
C225	C	1.443139	0.736055	0.666709
C226	C	0.839689	0.070154	0.000042
C227	C	1.173023	0.403488	0.333375
C228	C	1.506356	0.736821	0.666708
C229	C	0.667578	0.178283	0.000038
C230	C	1.000912	0.511616	0.333372
C231	C	1.334245	0.844950	0.666705
C232	C	0.668345	0.241500	0.000039
C233	C	1.001678	0.574833	0.333372
C234	C	1.335011	0.908167	0.666706
N235	N	0.672306	0.074154	0.143842
N236	N	1.005639	0.407487	0.477175
N237	N	1.338973	0.740820	0.810509
N238	N	0.672348	0.074112	-0.143767
N239	N	1.005681	0.407446	0.189567
N240	N	1.339014	0.740779	0.522900
C241	C	0.711273	0.035196	0.563623
C242	C	1.044606	0.368530	0.896957
C243	C	1.377939	0.701863	1.230290
C244	C	0.711275	0.035192	0.627231
C245	C	1.044609	0.368526	0.960564
C246	C	1.377942	0.701859	1.293897
O247	O	0.744383	0.002077	0.660124
O248	O	1.077717	0.335410	0.993457
O249	O	1.411050	0.668743	1.326790
N250	N	0.672334	0.074116	0.659049
N251	N	1.005667	0.407449	0.992382
N252	N	1.339000	0.740782	1.325716
C253	C	0.633383	0.113042	0.627257
C254	C	0.966716	0.446375	0.960590
C255	C	1.300050	0.779708	1.293923
O256	O	0.600260	0.146148	0.660161
O257	O	0.933593	0.479482	0.993495
O258	O	1.266927	0.812815	1.326828
C259	C	0.633378	0.113042	0.563650
C260	C	0.966711	0.446376	0.896983
C261	C	1.300045	0.779709	1.230317
C262	C	0.672326	0.074120	0.531835
C263	C	1.005659	0.407454	0.865168
C264	C	1.338993	0.740787	1.198502
C265	C	0.750217	-0.003723	0.531808
C266	C	1.083551	0.329610	0.865141
C267	C	1.416884	0.662944	1.198475
C268	C	0.750215	-0.003718	0.468205
C269	C	1.083549	0.329615	0.801538
C270	C	1.416882	0.662948	1.134872
C271	C	0.711269	0.035206	0.436417
C272	C	1.044602	0.368539	0.769750
C273	C	1.377935	0.701873	1.103083
C274	C	0.672324	0.074125	0.468232
C275	C	1.005657	0.407458	0.801565
C276	C	1.338991	0.740792	1.134899
C277	C	0.594425	0.151965	0.531859
C278	C	0.927758	0.485298	0.865192
C279	C	1.261092	0.818632	1.198525
C280	C	0.594423	0.151962	0.468248
C281	C	0.927756	0.485296	0.801581
C282	C	1.261090	0.818629	1.134915
C283	C	0.633371	0.113040	0.436433
C284	C	0.966705	0.446374	0.769766
C285	C	1.300038	0.779707	1.103100
C286	C	0.633375	0.113054	0.372841
C287	C	0.966709	0.446387	0.706174
C288	C	1.300042	0.779721	1.039507
N289	N	0.672317	0.074131	0.341022
N290	N	1.005650	0.407464	0.674356
N291	N	1.338984	0.740797	1.007689
C292	C	0.711264	0.035207	0.372810
C293	C	1.044597	0.368540	0.706144
C294	C	1.377930	0.701873	1.039477
C295	C	0.633396	0.113036	0.760834
C296	C	0.966729	0.446370	1.094168
C297	C	1.300062	0.779703	1.427501
C298	C	0.633403	0.113039	0.824440
C299	C	0.966736	0.446372	1.157773
C300	C	1.300069	0.779705	1.491106
C301	C	0.711295	0.035189	0.824410
C302	C	1.044628	0.368522	1.157743
C303	C	1.377961	0.701855	1.491076
C304	C	0.711290	0.035189	0.760803
C305	C	1.044623	0.368523	1.094136
C306	C	1.377956	0.701856	1.427470
C307	C	0.672337	0.074113	0.729016
C308	C	1.005671	0.407446	1.062349
C309	C	1.339004	0.740780	1.395683
C310	C	0.711257	0.035220	0.239239
C311	C	1.044590	0.368553	0.572572
C312	C	1.377923	0.701887	0.905906
C313	C	0.711253	0.035230	0.175630
C314	C	1.044586	0.368563	0.508963
C315	C	1.377919	0.701896	0.842297
C316	C	0.633359	0.113078	0.175666
C317	C	0.966692	0.446411	0.508999
C318	C	1.300026	0.779744	0.842333
C319	C	0.633365	0.113070	0.239269
C320	C	0.966698	0.446403	0.572602
C321	C	1.300031	0.779737	0.905936
C322	C	0.672316	0.074136	0.271054
C323	C	1.005649	0.407470	0.604387
C324	C	1.338982	0.740803	0.937721
O325	O	0.600283	0.146151	0.339907
O326	O	0.933616	0.479484	0.673241
O327	O	1.266949	0.812818	1.006574
O328	O	0.744376	0.002101	0.339898
O329	O	1.077710	0.335434	0.673231
O330	O	1.411043	0.668767	1.006565
H331	H	-0.167630	0.164417	0.000039
H332	H	0.165703	0.497750	0.333373
H333	H	0.499036	0.831083	0.666706
C334	C	0.674828	-0.214976	0.115717
C335	C	1.008161	0.118358	0.449050
C336	C	1.341494	0.451691	0.782384
N337	N	0.674521	-0.239566	0.161364
N338	N	1.007854	0.093767	0.494697
N339	N	1.341188	0.427100	0.828031
C340	C	0.668289	-0.761457	0.115715
C341	C	1.001623	-0.428123	0.449048
C342	C	1.334956	-0.094790	0.782381
N343	N	0.667989	-0.786066	0.161350
N344	N	1.001323	-0.452733	0.494684
N345	N	1.334656	-0.119399	0.828017
H346	H	0.601694	0.144739	0.850339
H347	H	0.935027	0.478072	1.183672
H348	H	1.268360	0.811405	1.517006
H349	H	0.671682	-0.479735	0.155056
H350	H	1.005015	-0.146402	0.488390
H351	H	1.338348	0.186932	0.821723
H352	H	0.676211	-0.098742	0.099972
H353	H	1.009544	0.234592	0.433305
H354	H	1.342877	0.567925	0.766639
H355	H	0.743004	0.003496	0.734903
H356	H	1.076338	0.336829	1.068236
H357	H	1.409671	0.670162	1.401570
C358	C	0.674878	-0.215015	-0.115656
C359	C	1.008212	0.118318	0.217677
C360	C	1.341545	0.451652	0.551010
N361	N	0.674603	-0.239621	-0.161303
N362	N	1.007937	0.093712	0.172031
N363	N	1.341270	0.427045	0.505364
H364	H	0.601677	0.144737	0.734956
H365	H	0.935010	0.478071	1.068290
H366	H	1.268344	0.811404	1.401623
C367	C	0.676363	-0.090273	-0.115649
C368	C	1.009696	0.243060	0.217684
C369	C	1.343030	0.576394	0.551018
N370	N	0.676670	-0.065664	-0.161285
N371	N	1.010003	0.267669	0.172049
N372	N	1.343336	0.601002	0.505382
H373	H	0.742971	0.003535	0.149728
H374	H	1.076304	0.336868	0.483062
H375	H	1.409638	0.670201	0.816395
C376	C	0.673103	-0.363537	-0.170738
C377	C	1.006437	-0.030203	0.162595
C378	C	1.339770	0.303130	0.495929
N379	N	0.673398	-0.338948	-0.216387
N380	N	1.006731	-0.005614	0.116947
N381	N	1.340065	0.327719	0.450280
H382	H	0.562710	0.183659	0.557754
H383	H	0.896043	0.516992	0.891087
H384	H	1.229376	0.850325	1.224420
H385	H	0.672972	-0.371985	0.155060
H386	H	1.006305	-0.038652	0.488394
H387	H	1.339638	0.294681	0.821727
C388	C	0.131895	-0.087578	0.000054
C389	C	0.465228	0.245756	0.333387
C390	C	0.798562	0.579089	0.666721
N391	N	0.113162	-0.130899	0.000069
N392	N	0.446495	0.202434	0.333402
N393	N	0.779829	0.535768	0.666736
C394	C	0.754106	-0.007608	0.274193
C395	C	1.087440	0.325726	0.607527
C396	C	1.420773	0.659059	0.940860
N397	N	0.786383	-0.039863	0.300520
N398	N	1.119716	0.293471	0.633854
N399	N	1.453050	0.626804	0.967187
C400	C	0.793056	-0.046542	0.433217
C401	C	1.126389	0.286791	0.766550
C402	C	1.459722	0.620125	1.099883
N403	N	0.825323	-0.078802	0.406867
N404	N	1.158656	0.254532	0.740201
N405	N	1.491990	0.587865	1.073534
C406	C	0.551577	0.194788	0.433286
C407	C	0.884910	0.528122	0.766620
C408	C	1.218244	0.861455	1.099953
N409	N	0.519308	0.227048	0.406954
N410	N	0.852642	0.560381	0.740288
N411	N	1.185975	0.893715	1.073621
C412	C	0.088018	0.234346	0.000064
C413	C	0.421351	0.567680	0.333397
C414	C	0.754685	0.901013	0.666731
N415	N	0.057555	0.277075	0.000065
N416	N	0.390888	0.610409	0.333398
N417	N	0.724222	0.943742	0.666732
H418	H	0.601655	0.144769	0.265173
H419	H	0.934988	0.478103	0.598507
H420	H	1.268322	0.811436	0.931840
C421	C	-0.053397	0.180651	0.000038
C422	C	0.279937	0.513985	0.333371
C423	C	0.613270	0.847318	0.666705
N424	N	-0.034657	0.223969	0.000040
N425	N	0.298677	0.557302	0.333374
N426	N	0.632010	0.890636	0.666707
H427	H	0.601651	0.144771	0.149774
H428	H	0.934984	0.478104	0.483107
H429	H	1.268317	0.811437	0.816441
H430	H	0.743006	0.003494	0.850303
H431	H	1.076340	0.336827	1.183636
H432	H	1.409673	0.670160	1.516970
H433	H	0.668422	-0.752993	-0.099905
H434	H	1.001756	-0.419660	0.233429
H435	H	1.335089	-0.086326	0.566762
C436	C	0.669785	-0.636713	0.115720
C437	C	1.003119	-0.303379	0.449053
C438	C	1.336452	0.029954	0.782386
N439	N	0.670079	-0.612105	0.161364
N440	N	1.003412	-0.278771	0.494697
N441	N	1.336745	0.054562	0.828030
H442	H	0.669724	-0.645245	-0.099911
H443	H	1.003057	-0.311911	0.233422
H444	H	1.336391	0.021422	0.566756
C445	C	0.793061	-0.046551	0.566765
C446	C	1.126395	0.286783	0.900098
C447	C	1.459728	0.620116	1.233432
N448	N	0.825335	-0.078810	0.593090
N449	N	1.158669	0.254523	0.926424
N450	N	1.492002	0.587856	1.259757
H451	H	0.671712	-0.479764	-0.154994
H452	H	1.005046	-0.146431	0.178339
H453	H	1.338379	0.186902	0.511673
H454	H	-0.141954	-0.023984	0.000038
H455	H	0.191379	0.309349	0.333371
H456	H	0.524712	0.642683	0.666704
C457	C	-0.023697	-0.037437	0.000044
C458	C	0.309637	0.295897	0.333377
C459	C	0.642970	0.629230	0.666710
N460	N	0.006762	-0.080169	0.000038
N461	N	0.340096	0.253165	0.333372
N462	N	0.673429	0.586498	0.666705
H463	H	0.246103	-0.071347	0.000044
H464	H	0.579437	0.261987	0.333378
H465	H	0.912770	0.595320	0.666711
H466	H	0.404514	-0.017447	0.000031
H467	H	0.737848	0.315887	0.333365
H468	H	1.071181	0.649220	0.666698
H469	H	0.512280	-0.016150	0.000028
H470	H	0.845613	0.317183	0.333361
H471	H	1.178947	0.650516	0.666694
H472	H	0.378847	0.170964	0.000035
H473	H	0.712180	0.504297	0.333368
H474	H	1.045514	0.837630	0.666702
C475	C	0.212738	0.235845	0.000067
C476	C	0.546071	0.569178	0.333400
C477	C	0.879405	0.902512	0.666734
N478	N	0.231470	0.279167	0.000081
N479	N	0.564803	0.612500	0.333414
N480	N	0.898136	0.945834	0.666747
C481	C	0.493060	0.187192	0.000023
C482	C	0.826394	0.520526	0.333357
C483	C	1.159727	0.853859	0.666690
N484	N	0.511796	0.230512	0.000026
N485	N	0.845129	0.563846	0.333360
N486	N	1.178463	0.897179	0.666693
