data_functionalizedCrystal
_audit_creation_method	'MofGen! by Chris Wilmer'
_symmetry_space_group_name_H-M	'P1'
_symmetry_Int_Tables_number	1
_symmetry_cell_setting	triclinic
loop_
_symmetry_equiv_pos_as_xyz
  x,y,z
_cell_length_a	8.597366
_cell_length_b	11.804365
_cell_length_c	8.559649
_cell_angle_alpha	100.144259
_cell_angle_beta	102.375364
_cell_angle_gamma	94.555479
loop_
_atom_site_label
_atom_site_type_symbol
_atom_site_fract_x
_atom_site_fract_y
_atom_site_fract_z
O1	O	2.015057	-0.107729	-0.272516
O2	O	1.572232	-0.062292	-0.276233
O3	O	1.832657	-0.089015	-0.043686
O4	O	1.754631	-0.081007	-0.505062
O5	O	1.764105	-0.280037	-0.104842
O6	O	1.503680	-0.253314	-0.337389
O7	O	1.946504	-0.298751	-0.333672
Cu8	Cu	1.718832	-0.293474	-0.341114
Cu9	Cu	1.799904	-0.067569	-0.268790
O10	O	1.686079	-0.272028	-0.566218
C11	C	1.481789	-0.152040	-0.303005
C12	C	1.314433	-0.134868	-0.291645
N13	N	1.661823	-0.452365	-0.391983
C14	C	1.993832	-0.860382	-0.095725
C15	C	2.036959	-0.740145	-0.057237
C16	C	1.943178	-0.668194	-0.140920
C17	C	1.806264	-0.716491	-0.263098
C18	C	1.763140	-0.836740	-0.301600
C19	C	1.712486	-0.644553	-0.346794
C20	C	1.575571	-0.692850	-0.468973
C21	C	1.532453	-0.813087	-0.507467
C22	C	1.626234	-0.885038	-0.423784
C23	C	1.755610	-0.524304	-0.308292
C24	C	1.524917	-0.500663	-0.514167
C25	C	1.481790	-0.620899	-0.552655
C26	C	2.036948	-0.209001	-0.306899
C27	C	2.204306	-0.226165	-0.318256
C28	C	1.804295	-0.185130	-0.015023
C29	C	1.821898	-0.186930	0.161496
N30	N	1.856927	0.091320	-0.217910
C31	C	1.714442	-0.175910	-0.594880
C32	C	1.696842	-0.174103	-0.771397
H33	H	1.867086	-0.484992	-0.208815
C34	C	2.187591	-0.687024	0.077093
H35	H	2.199866	-0.605111	0.088009
H36	H	2.176569	-0.706305	0.177662
H37	H	2.279300	-0.716875	0.048448
H38	H	1.280691	-0.043561	-0.260158
H39	H	1.238057	-0.317479	-0.349734
H40	H	1.420980	-0.852411	-0.606964
C41	C	2.096975	-0.939526	-0.003693
H42	H	2.051676	-1.018053	-0.044119
H43	H	2.202853	-0.929944	-0.019642
H44	H	2.100008	-0.919418	0.109472
C45	C	1.421746	-0.421534	-0.606229
H46	H	1.334044	-0.467520	-0.684524
H47	H	1.382354	-0.368870	-0.530939
H48	H	1.485203	-0.379405	-0.660048
H49	H	1.576311	-0.161740	0.151016
H50	H	1.942432	-0.199307	0.239087
C51	C	1.990607	-0.535937	-0.098572
H52	H	2.085569	-0.517476	-0.013812
H53	H	2.009172	-0.509625	-0.192430
H54	H	1.906339	-0.499110	-0.063307
H55	H	1.591117	-0.982945	-0.455116
C56	C	1.331202	-0.674036	-0.687056
H57	H	1.318964	-0.755952	-0.698002
H58	H	1.239453	-0.644210	-0.658496
H59	H	1.342304	-0.654742	-0.787603
