data_functionalizedCrystal
_audit_creation_method	'MofGen! by Chris Wilmer'
_symmetry_space_group_name_H-M	'P1'
_symmetry_Int_Tables_number	1
_symmetry_cell_setting	triclinic
loop_
_symmetry_equiv_pos_as_xyz
  x,y,z
_cell_length_a	23.532409
_cell_length_b	19.188930
_cell_length_c	17.666332
_cell_angle_alpha	89.976766
_cell_angle_beta	89.996569
_cell_angle_gamma	82.997171
loop_
_atom_site_label
_atom_site_type_symbol
_atom_site_fract_x
_atom_site_fract_y
_atom_site_fract_z
O1	O	0.071102	0.925923	-0.063187
O2	O	0.404435	1.259257	0.270147
O3	O	0.737769	1.592590	0.603480
O4	O	0.080673	0.722582	-0.063134
O5	O	0.414007	1.055915	0.270199
O6	O	0.747340	1.389248	0.603533
O7	O	-0.007031	0.830383	-0.063163
O8	O	0.326302	1.163717	0.270171
O9	O	0.659636	1.497050	0.603504
O10	O	0.158806	0.818121	-0.063158
O11	O	0.492140	1.151455	0.270176
O12	O	0.825473	1.484788	0.603509
O13	O	-0.007036	0.830365	0.062734
O14	O	0.326298	1.163698	0.396067
O15	O	0.659631	1.497031	0.729401
O16	O	0.080669	0.722563	0.062763
O17	O	0.414002	1.055896	0.396096
O18	O	0.747335	1.389229	0.729429
O19	O	0.071097	0.925905	0.062710
O20	O	0.404431	1.259238	0.396044
O21	O	0.737764	1.592571	0.729377
Cu22	Cu	0.075883	0.824232	0.074232
Cu23	Cu	0.409216	1.157565	0.407565
Cu24	Cu	0.742549	1.490899	0.740899
Cu25	Cu	0.075888	0.824254	-0.074656
Cu26	Cu	0.409221	1.157588	0.258678
Cu27	Cu	0.742555	1.490921	0.592011
O28	O	0.158802	0.818103	0.062739
O29	O	0.492135	1.151436	0.396072
O30	O	0.825468	1.484769	0.729406
C31	C	0.080361	0.696562	-0.000179
C32	C	0.413694	1.029896	0.333154
C33	C	0.747028	1.363229	0.666488
C34	C	0.079431	0.619061	-0.000159
C35	C	0.412764	0.952394	0.333174
C36	C	0.746097	1.285727	0.666508
C37	C	-0.028250	0.830062	-0.000216
C38	C	0.305083	1.163395	0.333117
C39	C	0.638417	1.496728	0.666451
C40	C	-0.091469	0.829122	-0.000221
C41	C	0.241864	1.162455	0.333112
C42	C	0.575198	1.495789	0.666445
C43	C	0.130893	0.573973	-0.000169
C44	C	0.464226	0.907306	0.333164
C45	C	0.797559	1.240640	0.666497
C46	C	0.130019	0.501152	-0.000178
C47	C	0.463352	0.834485	0.333156
C48	C	0.796685	1.167819	0.666489
C49	C	0.077679	0.473422	-0.000191
C50	C	0.411013	0.806755	0.333142
C51	C	0.744346	1.140089	0.666476
C52	C	0.026211	0.518519	-0.000176
C53	C	0.359544	0.851853	0.333157
C54	C	0.692877	1.185186	0.666490
C55	C	0.027086	0.591339	-0.000160
C56	C	0.360420	0.924672	0.333173
C57	C	0.693753	1.258006	0.666506
N58	N	0.037674	0.365575	-0.043071
N59	N	0.371008	0.698909	0.290263
N60	N	0.704341	1.032242	0.623596
N61	N	0.036846	0.296399	-0.043088
N62	N	0.370179	0.629733	0.290246
N63	N	0.703513	0.963066	0.623579
C64	C	0.075038	0.254022	-0.000237
C65	C	0.408371	0.587355	0.333096
C66	C	0.741705	0.920688	0.666429
N67	N	0.114099	0.283432	0.042621
N68	N	0.447432	0.616765	0.375954
N69	N	0.780765	0.950098	0.709287
N70	N	0.114928	0.352614	0.042634
N71	N	0.448262	0.685947	0.375968
N72	N	0.781595	1.019280	0.709301
C73	C	0.076724	0.394462	-0.000208
C74	C	0.410058	0.727796	0.333126
C75	C	0.743391	1.061129	0.666459
C76	C	0.125556	0.129973	-0.000256
C77	C	0.458889	0.463306	0.333078
C78	C	0.792223	0.796639	0.666411
C79	C	0.124680	0.057151	-0.000259
C80	C	0.458013	0.390484	0.333074
C81	C	0.791346	0.723817	0.666407
C82	C	0.020870	0.074520	-0.000266
C83	C	0.354204	0.407853	0.333068
C84	C	0.687537	0.741186	0.666401
C85	C	0.021748	0.147340	-0.000254
C86	C	0.355081	0.480673	0.333079
C87	C	0.688415	0.814007	0.666412
C88	C	0.074092	0.175062	-0.000253
C89	C	0.407426	0.508395	0.333080
C90	C	0.740759	0.841729	0.666414
C91	C	-0.364720	0.825137	-0.068850
C92	C	-0.031387	1.158470	0.264483
C93	C	0.301947	1.491804	0.597817
C94	C	-0.305318	0.826009	-0.068850
C95	C	0.028015	1.159343	0.264483
C96	C	0.361349	1.492676	0.597816
O97	O	-0.274590	0.826494	-0.127212
O98	O	0.058743	1.159827	0.206121
O99	O	0.392077	1.493160	0.539454
N100	N	-0.275617	0.826431	-0.000223
N101	N	0.057716	1.159764	0.333110
N102	N	0.391049	1.493098	0.666444
C103	C	-0.305323	0.825987	0.068409
C104	C	0.028011	1.159321	0.401742
C105	C	0.361344	1.492654	0.735076
O106	O	-0.274606	0.826427	0.126782
O107	O	0.058728	1.159760	0.460115
O108	O	0.392061	1.493093	0.793449
C109	C	-0.364724	0.825120	0.068409
C110	C	-0.031391	1.158453	0.401742
C111	C	0.301942	1.491786	0.735075
C112	C	-0.394421	0.824691	-0.000223
C113	C	-0.061088	1.158024	0.333110
C114	C	0.272246	1.491358	0.666444
C115	C	-0.394417	0.824709	-0.137476
C116	C	-0.061083	1.158042	0.195857
C117	C	0.272250	1.491376	0.529190
C118	C	-0.453815	0.823835	-0.137476
C119	C	-0.120481	1.157169	0.195858
C120	C	0.212852	1.490502	0.529191
C121	C	-0.483516	0.823390	-0.068849
C122	C	-0.150182	1.156723	0.264485
C123	C	0.183151	1.490056	0.597818
C124	C	-0.453819	0.823817	-0.000222
C125	C	-0.120485	1.157151	0.333111
C126	C	0.212848	1.490484	0.666444
C127	C	-0.394429	0.824681	0.137040
C128	C	-0.061096	1.158014	0.470373
C129	C	0.272238	1.491348	0.803707
C130	C	-0.453835	0.823814	0.137034
C131	C	-0.120501	1.157147	0.470367
C132	C	0.212832	1.490481	0.803700
C133	C	-0.483531	0.823385	0.068402
C134	C	-0.150198	1.156719	0.401735
C135	C	0.183135	1.490052	0.735069
C136	C	-0.542918	0.822498	0.068405
C137	C	-0.209584	1.155831	0.401738
C138	C	0.123749	1.489165	0.735072
N139	N	-0.572618	0.822076	-0.000222
N140	N	-0.239285	1.155410	0.333111
N141	N	0.094049	1.488743	0.666444
C142	C	-0.542917	0.822522	-0.068849
C143	C	-0.209584	1.155855	0.264484
C144	C	0.123750	1.489189	0.597818
C145	C	-0.180576	0.827810	0.068405
C146	C	0.152758	1.161143	0.401738
C147	C	0.486091	1.494477	0.735071
C148	C	-0.121175	0.828672	0.068406
C149	C	0.212159	1.162006	0.401739
C150	C	0.545492	1.495339	0.735073
C151	C	-0.121174	0.828696	-0.068854
C152	C	0.212159	1.162029	0.264479
C153	C	0.545493	1.495363	0.597813
C154	C	-0.180576	0.827829	-0.068854
C155	C	0.152758	1.161162	0.264479
C156	C	0.486091	1.494495	0.597812
C157	C	-0.210276	0.827389	-0.000223
C158	C	0.123057	1.160722	0.333111
C159	C	0.456390	1.494055	0.666444
C160	C	-0.667657	0.820687	-0.068843
C161	C	-0.334323	1.154020	0.264491
C162	C	-0.000990	1.487353	0.597824
C163	C	-0.727059	0.819810	-0.068836
C164	C	-0.393726	1.153143	0.264498
C165	C	-0.060393	1.486477	0.597831
C166	C	-0.727055	0.819790	0.068424
C167	C	-0.393722	1.153124	0.401757
C168	C	-0.060389	1.486457	0.735090
C169	C	-0.667657	0.820663	0.068417
C170	C	-0.334324	1.153997	0.401751
C171	C	-0.000991	1.487330	0.735084
C172	C	-0.637960	0.821114	-0.000222
C173	C	-0.304626	1.154447	0.333111
C174	C	0.028707	1.487780	0.666445
O175	O	-0.573683	0.822016	0.126737
O176	O	-0.240350	1.155349	0.460071
O177	O	0.092983	1.488683	0.793404
O178	O	-0.573642	0.822092	-0.127212
O179	O	-0.240309	1.155425	0.206121
O180	O	0.093024	1.488759	0.539454
C181	C	0.180021	0.818425	-0.000209
C182	C	0.513354	1.151758	0.333124
C183	C	0.846687	1.485091	0.666457
C184	C	0.243240	0.819364	-0.000209
C185	C	0.576573	1.152697	0.333124
C186	C	0.909906	1.486031	0.666458
C187	C	0.071410	0.951924	-0.000246
C188	C	0.404743	1.285257	0.333087
C189	C	0.738076	1.618591	0.666420
C190	C	0.072340	1.029426	-0.000271
C191	C	0.405673	1.362759	0.333062
C192	C	0.739007	1.696092	0.666395
N193	N	0.075878	0.824221	0.178951
N194	N	0.409212	1.157555	0.512285
N195	N	0.742545	1.490888	0.845618
N196	N	0.075888	0.824270	-0.179375
N197	N	0.409221	1.157604	0.153958
N198	N	0.742554	1.490937	0.487292
C199	C	0.037062	0.871971	0.218548
C200	C	0.370395	1.205305	0.551882
C201	C	0.703729	1.538638	0.885215
C202	C	0.037059	0.871975	0.297796
C203	C	0.370392	1.205309	0.631129
C204	C	0.703726	1.538642	0.964463
C205	C	0.075883	0.824236	0.337444
C206	C	0.409216	1.157570	0.670777
C207	C	0.742549	1.490903	1.004110
C208	C	0.114702	0.776477	0.297837
C209	C	0.448036	1.109811	0.631170
C210	C	0.781369	1.443144	0.964504
C211	C	0.114700	0.776470	0.218591
C212	C	0.448033	1.109803	0.551924
C213	C	0.781367	1.443137	0.885258
N214	N	0.126298	0.815000	0.461865
N215	N	0.459631	1.148333	0.795198
N216	N	0.792964	1.481666	1.128532
N217	N	0.126298	0.815011	0.537146
N218	N	0.459631	1.148344	0.870479
N219	N	0.792965	1.481677	1.203812
C220	C	0.075891	0.824255	0.576208
C221	C	0.409224	1.157588	0.909541
C222	C	0.742557	1.490921	1.242874
N223	N	0.025481	0.833501	0.537145
N224	N	0.358815	1.166834	0.870478
N225	N	0.692148	1.500167	1.203812
N226	N	0.025482	0.833493	0.461858
N227	N	0.358815	1.166826	0.795191
N228	N	0.692148	1.500160	1.128524
C229	C	0.075889	0.824239	0.423373
C230	C	0.409222	1.157572	0.756706
C231	C	0.742556	1.490905	1.090039
C232	C	0.037068	0.872012	0.701734
C233	C	0.370401	1.205345	1.035067
C234	C	0.703735	1.538678	1.368400
C235	C	0.037064	0.872011	0.780983
C236	C	0.370398	1.205344	1.114316
C237	C	0.703731	1.538677	1.447650
C238	C	0.114712	0.776516	0.781022
C239	C	0.448046	1.109849	1.114356
C240	C	0.781379	1.443183	1.447689
C241	C	0.114711	0.776513	0.701775
C242	C	0.448044	1.109847	1.035108
C243	C	0.781378	1.443180	1.368442
C244	C	0.075889	0.824265	0.662135
C245	C	0.409223	1.157598	0.995469
C246	C	0.742556	1.490932	1.328802
H247	H	0.173515	0.596539	-0.000170
H248	H	0.506849	0.929872	0.333164
H249	H	0.840182	1.263206	0.666497
H250	H	0.005452	0.910892	0.813223
H251	H	0.338786	1.244226	1.146557
H252	H	0.672119	1.577559	1.479890
H253	H	0.171926	0.464434	-0.000184
H254	H	0.505260	0.797768	0.333149
H255	H	0.838593	1.131101	0.666483
Cl256	Cl	-0.083823	0.829242	-0.155129
Cl257	Cl	0.249510	1.162576	0.178205
Cl258	Cl	0.582844	1.495909	0.511538
H259	H	0.146312	0.737606	0.330122
H260	H	0.479645	1.070939	0.663455
H261	H	0.812979	1.404273	0.996789
H262	H	-0.751248	0.819424	0.124298
H263	H	-0.417915	1.152758	0.457631
H264	H	-0.084582	1.486091	0.790965
Cl265	Cl	0.191359	0.164826	-0.000246
Cl266	Cl	0.524692	0.498160	0.333087
Cl267	Cl	0.858025	0.831493	0.666420
H268	H	-0.204754	0.827446	0.124296
H269	H	0.128580	1.160779	0.457630
H270	H	0.461913	1.494112	0.790963
Cl271	Cl	-0.357110	0.825212	0.223326
Cl272	Cl	-0.023777	1.158545	0.556659
Cl273	Cl	0.309557	1.491879	0.889993
H274	H	-0.020158	0.184052	-0.000250
H275	H	0.313175	0.517385	0.333083
H276	H	0.646509	0.850718	0.666417
H277	H	0.166588	0.020440	-0.000263
H278	H	0.499921	0.353773	0.333070
H279	H	0.833255	0.687107	0.666403
Cl280	Cl	-0.011744	0.931997	0.168716
Cl281	Cl	0.321589	1.265330	0.502050
Cl282	Cl	0.654922	1.598663	0.835383
Cl283	Cl	-0.357089	0.825269	-0.223762
Cl284	Cl	-0.023756	1.158602	0.109571
Cl285	Cl	0.309578	1.491936	0.442904
H286	H	-0.478014	0.823456	0.192923
H287	H	-0.144681	1.156790	0.526257
H288	H	0.188653	1.490123	0.859590
Cl289	Cl	0.163515	0.716496	0.830860
Cl290	Cl	0.496848	1.049829	1.164193
Cl291	Cl	0.830182	1.383162	1.497526
H292	H	0.005449	0.910860	0.330042
H293	H	0.338782	1.244194	0.663375
H294	H	0.672115	1.577527	0.996708
H295	H	-0.096999	0.829008	0.124293
H296	H	0.236334	1.162342	0.457626
H297	H	0.569667	1.495675	0.790960
H298	H	-0.643484	0.821054	-0.124735
H299	H	-0.310151	1.154387	0.208598
H300	H	0.023183	1.487721	0.541932
Cl301	Cl	-0.491140	0.823305	-0.223761
Cl302	Cl	-0.157806	1.156638	0.109573
Cl303	Cl	0.175527	1.489972	0.442906
H304	H	-0.204751	0.827478	-0.124740
H305	H	0.128583	1.160811	0.208593
H306	H	0.461916	1.494145	0.541926
Cl307	Cl	-0.630323	0.821201	0.154698
Cl308	Cl	-0.296990	1.154535	0.488031
Cl309	Cl	0.036343	1.487868	0.821365
H310	H	-0.751236	0.819458	-0.124727
H311	H	-0.417902	1.152792	0.208607
H312	H	-0.084569	1.486125	0.541940
H313	H	-0.021745	0.051943	-0.000323
H314	H	0.311588	0.385276	0.333010
H315	H	0.644921	0.718609	0.666343
H316	H	0.146310	0.737585	0.186350
H317	H	0.479643	1.070919	0.519684
H318	H	0.812976	1.404252	0.853017
H319	H	-0.016404	0.495937	-0.000198
H320	H	0.316929	0.829270	0.333136
H321	H	0.650262	1.162604	0.666469
Cl322	Cl	-0.037614	0.648024	-0.000148
Cl323	Cl	0.295719	0.981357	0.333185
Cl324	Cl	0.629052	1.314691	0.666518
Cl325	Cl	-0.011739	0.932038	0.651900
Cl326	Cl	0.321594	1.265371	0.985233
Cl327	Cl	0.654928	1.598705	1.318567
Cl328	Cl	0.163514	0.716486	0.651991
Cl329	Cl	0.496848	1.049819	0.985324
Cl330	Cl	0.830181	1.383152	1.318658
