data_functionalizedCrystal
_audit_creation_method	'MofGen! by Chris Wilmer'
_symmetry_space_group_name_H-M	'P1'
_symmetry_Int_Tables_number	1
_symmetry_cell_setting	triclinic
loop_
_symmetry_equiv_pos_as_xyz
  x,y,z
_cell_length_a	21.295417
_cell_length_b	11.169417
_cell_length_c	11.169409
_cell_angle_alpha	90.019513
_cell_angle_beta	90.041399
_cell_angle_gamma	90.031756
loop_
_atom_site_label
_atom_site_type_symbol
_atom_site_fract_x
_atom_site_fract_y
_atom_site_fract_z
Zn1	Zn	-0.250537	1.834794	0.678457
Zn2	Zn	0.082796	2.168127	1.011791
Zn3	Zn	0.416129	2.501461	1.345124
Zn4	Zn	-0.355825	1.834613	0.477742
Zn5	Zn	-0.022492	2.167946	0.811076
Zn6	Zn	0.310841	2.501280	1.144409
Zn7	Zn	-0.250576	1.634080	0.477793
Zn8	Zn	0.082757	1.967413	0.811126
Zn9	Zn	0.416090	2.300747	1.144459
Zn10	Zn	-0.355775	1.634017	0.678388
Zn11	Zn	-0.022442	1.967350	1.011722
Zn12	Zn	0.310892	2.300684	1.345055
O13	O	-0.303178	1.734376	0.578095
O14	O	0.030155	2.067709	0.911428
O15	O	0.363488	2.401043	1.244762
O16	O	-0.264509	2.002720	0.651840
O17	O	0.068825	2.336053	0.985173
O18	O	0.402158	2.669386	1.318506
O19	O	-0.341901	1.807962	0.309799
O20	O	-0.008568	2.141296	0.643132
O21	O	0.324765	2.474629	0.976466
O22	O	-0.162482	1.660807	0.504461
O23	O	0.170852	1.994141	0.837794
O24	O	0.504185	2.327474	1.171128
O25	O	-0.341864	2.002587	0.504375
O26	O	-0.008530	2.335920	0.837709
O27	O	0.324803	2.669253	1.171042
O28	O	-0.162453	1.808271	0.651888
O29	O	0.170880	2.141605	0.985222
O30	O	0.504214	2.474938	1.318555
O31	O	-0.264575	1.660632	0.309836
O32	O	0.068758	1.993965	0.643169
O33	O	0.402091	2.327298	0.976503
O34	O	-0.264526	1.466122	0.504394
O35	O	0.068807	1.799455	0.837728
O36	O	0.402140	2.132789	1.171061
O37	O	-0.341777	1.660700	0.846347
O38	O	-0.008444	1.994033	1.179681
O39	O	0.324889	2.327367	1.513014
O40	O	-0.341815	1.466076	0.651771
O41	O	-0.008482	1.799409	0.985104
O42	O	0.324851	2.132742	1.318438
O43	O	-0.264460	1.808210	0.846398
O44	O	0.068874	2.141543	1.179731
O45	O	0.402207	2.474877	1.513065
O46	O	-0.443908	1.807901	0.504309
O47	O	-0.110575	2.141234	0.837642
O48	O	0.222759	2.474568	1.170975
O49	O	-0.443871	1.660524	0.651722
O50	O	-0.110538	1.993857	0.985056
O51	O	0.222796	2.327191	1.318389
C52	C	-0.303170	1.422551	0.578081
C53	C	0.030163	1.755885	0.911415
C54	C	0.363497	2.089218	1.244748
C55	C	-0.303182	1.289151	0.578104
C56	C	0.030152	1.622485	0.911437
C57	C	0.363485	1.955818	1.244771
C58	C	-0.466730	1.734219	0.578029
C59	C	-0.133397	2.067552	0.911362
C60	C	0.199937	2.400885	1.244695
C61	C	-0.536698	1.734261	0.578040
C62	C	-0.203365	2.067594	0.911374
C63	C	0.129968	2.400928	1.244707
C64	C	-0.569563	1.811069	0.501361
C65	C	-0.236230	2.144402	0.834694
C66	C	0.097103	2.477735	1.168027
C67	C	-0.635306	1.811125	0.501388
C68	C	-0.301972	2.144458	0.834721
C69	C	0.031361	2.477791	1.168054
C70	C	-0.668181	1.734352	0.578082
C71	C	-0.334847	2.067686	0.911415
C72	C	-0.001514	2.401019	1.244748
C73	C	-0.635308	1.657539	0.654776
C74	C	-0.301974	1.990873	0.988110
C75	C	0.031359	2.324206	1.321443
C76	C	-0.569566	1.657494	0.654756
C77	C	-0.236233	1.990827	0.988089
C78	C	0.097100	2.324161	1.321422
N79	N	-0.771447	1.629362	0.587227
N80	N	-0.438114	1.962695	0.920560
N81	N	-0.104780	2.296029	1.253893
N82	N	-0.833898	1.629409	0.587239
N83	N	-0.500565	1.962742	0.920573
N84	N	-0.167232	2.296075	1.253906
C85	C	-0.866255	1.734487	0.578151
C86	C	-0.532922	2.067820	0.911484
C87	C	-0.199589	2.401153	1.244817
N88	N	-0.833802	1.839518	0.569025
N89	N	-0.500468	2.172852	0.902359
N90	N	-0.167135	2.506185	1.235692
N91	N	-0.771345	1.839470	0.569006
N92	N	-0.438011	2.172804	0.902340
N93	N	-0.104678	2.506137	1.235673
C94	C	-0.739466	1.734394	0.578113
C95	C	-0.406133	2.067727	0.911447
C96	C	-0.072799	2.401060	1.244780
C97	C	-0.970406	1.811362	0.501496
C98	C	-0.637073	2.144695	0.834829
C99	C	-0.303739	2.478028	1.168163
C100	C	-1.036150	1.811420	0.501531
C101	C	-0.702816	2.144753	0.834865
C102	C	-0.369483	2.478086	1.168198
C103	C	-1.036150	1.657824	0.654914
C104	C	-0.702817	1.991157	0.988247
C105	C	-0.369484	2.324490	1.321580
C106	C	-0.970408	1.657776	0.654885
C107	C	-0.637075	1.991110	0.988218
C108	C	-0.303741	2.324443	1.321551
C109	C	-0.937540	1.734543	0.578169
C110	C	-0.604206	2.067877	0.911503
C111	C	-0.270873	2.401210	1.244836
C112	C	-0.138988	1.734567	0.578188
C113	C	0.194345	2.067900	0.911521
C114	C	0.527679	2.401233	1.244855
C115	C	-0.069020	1.734648	0.578228
C116	C	0.264313	2.067981	0.911561
C117	C	0.597647	2.401315	1.244894
C118	C	-0.303109	1.734468	0.891138
C119	C	0.030225	2.067801	1.224471
C120	C	0.363558	2.401135	1.557804
C121	C	-0.303079	1.734507	1.024538
C122	C	0.030255	2.067841	1.357871
C123	C	0.363588	2.401174	1.691204
C124	C	-0.303187	2.047418	0.578110
C125	C	0.030146	2.380752	0.911443
C126	C	0.363479	2.714085	1.244776
C127	C	-0.303191	2.180818	0.578116
C128	C	0.030142	2.514152	0.911449
C129	C	0.363475	2.847485	1.244782
C130	C	-0.303203	1.734353	0.266270
C131	C	0.030131	2.067687	0.599604
C132	C	0.363464	2.401020	0.932937
C133	C	-0.303055	1.734547	0.132871
C134	C	0.030278	2.067880	0.466204
C135	C	0.363612	2.401213	0.799538
H136	H	-0.542804	1.873580	0.438898
H137	H	-0.209471	2.206913	0.772231
H138	H	0.123863	2.540246	1.105564
C139	C	-0.533414	1.573011	0.739128
C140	C	-0.200080	1.906344	1.072462
C141	C	0.133253	2.239678	1.405795
N142	N	-0.506183	1.509382	0.802684
N143	N	-0.172849	1.842715	1.136017
N144	N	0.160484	2.176048	1.469350
H145	H	-0.943644	1.873874	0.439033
H146	H	-0.610310	2.207207	0.772367
H147	H	-0.276977	2.540541	1.105700
C148	C	-0.671465	1.895616	0.417024
C149	C	-0.338131	2.228949	0.750358
C150	C	-0.004798	2.562283	1.083691
N151	N	-0.698698	1.959252	0.353479
N152	N	-0.365364	2.292585	0.686812
N153	N	-0.032031	2.625919	1.020145
C154	C	-0.671471	1.573085	0.739136
C155	C	-0.338138	1.906418	1.072469
C156	C	-0.004805	2.239752	1.405802
N157	N	-0.698710	1.509473	0.802679
N158	N	-0.365376	1.842806	1.136012
N159	N	-0.032043	2.176139	1.469346
C160	C	-1.072309	1.573375	0.739281
C161	C	-0.738976	1.906708	1.072614
C162	C	-0.405642	2.240041	1.405948
N163	N	-1.099547	1.509767	0.802830
N164	N	-0.766213	1.843101	1.136164
N165	N	-0.432880	2.176434	1.469497
C166	C	-1.072301	1.895918	0.417172
C167	C	-0.738968	2.229251	0.750505
C168	C	-0.405634	2.562584	1.083839
N169	N	-1.099531	1.959561	0.353628
N170	N	-0.766198	2.292894	0.686962
N171	N	-0.432864	2.626227	1.020295
C172	C	-0.934255	1.573305	0.739264
C173	C	-0.600921	1.906638	1.072597
C174	C	-0.267588	2.239972	1.405931
N175	N	-0.907025	1.509691	0.802836
N176	N	-0.573691	1.843025	1.136170
N177	N	-0.240358	2.176358	1.469503
