data_functionalizedCrystal
_audit_creation_method	'MofGen! by Chris Wilmer'
_symmetry_space_group_name_H-M	'P1'
_symmetry_Int_Tables_number	1
_symmetry_cell_setting	triclinic
loop_
_symmetry_equiv_pos_as_xyz
  x,y,z
_cell_length_a	16.625548
_cell_length_b	17.077402
_cell_length_c	17.077396
_cell_angle_alpha	89.970216
_cell_angle_beta	90.019578
_cell_angle_gamma	89.976049
loop_
_atom_site_label
_atom_site_type_symbol
_atom_site_fract_x
_atom_site_fract_y
_atom_site_fract_z
Zn1	Zn	1.232670	0.312486	0.443837
Zn2	Zn	1.566004	0.645819	0.777171
Zn3	Zn	1.899337	0.979152	1.110504
Zn4	Zn	1.232575	0.443761	0.312568
Zn5	Zn	1.565908	0.777094	0.645902
Zn6	Zn	1.899241	1.110427	0.979235
Zn7	Zn	1.097834	0.312515	0.312585
Zn8	Zn	1.431168	0.645849	0.645918
Zn9	Zn	1.764501	0.979182	0.979252
Zn10	Zn	1.097802	0.443716	0.443792
Zn11	Zn	1.431135	0.777049	0.777125
Zn12	Zn	1.764468	1.110383	1.110458
O13	O	1.165220	0.378119	0.378196
O14	O	1.498554	0.711453	0.711529
O15	O	1.831887	1.044786	1.044862
O16	O	1.345490	0.329906	0.426436
O17	O	1.678823	0.663239	0.759770
O18	O	2.012157	0.996573	1.093103
O19	O	1.214675	0.426382	0.202723
O20	O	1.548008	0.759715	0.536057
O21	O	1.881342	1.093048	0.869390
O22	O	1.115774	0.202664	0.330022
O23	O	1.449108	0.535998	0.663355
O24	O	1.782441	0.869331	0.996689
O25	O	1.345420	0.426353	0.329993
O26	O	1.678753	0.759686	0.663327
O27	O	2.012087	1.093020	0.996660
O28	O	1.214838	0.202643	0.426452
O29	O	1.548171	0.535976	0.759786
O30	O	1.881504	0.869309	1.093119
O31	O	1.115682	0.329956	0.202736
O32	O	1.449015	0.663290	0.536069
O33	O	1.782348	0.996623	0.869402
O34	O	0.984998	0.329913	0.329978
O35	O	1.318331	0.663246	0.663311
O36	O	1.651664	0.996580	0.996644
O37	O	1.115718	0.426277	0.553645
O38	O	1.449052	0.759610	0.886978
O39	O	1.782385	1.092944	1.220311
O40	O	0.984973	0.426306	0.426375
O41	O	1.318307	0.759639	0.759708
O42	O	1.651640	1.092972	1.093041
O43	O	1.214806	0.329863	0.553678
O44	O	1.548139	0.663196	0.887012
O45	O	1.881472	0.996529	1.220345
O46	O	1.214643	0.553602	0.329949
O47	O	1.547976	0.886935	0.663283
O48	O	1.881310	1.220268	0.996616
O49	O	1.115626	0.553569	0.426358
O50	O	1.448959	0.886902	0.759692
O51	O	1.782292	1.220236	1.093025
C52	C	1.165142	0.582067	0.378164
C53	C	1.498476	0.915401	0.711498
C54	C	1.831809	1.248734	1.044831
C55	C	1.165183	0.669317	0.378177
C56	C	1.498516	1.002650	0.711510
C57	C	1.831850	1.335984	1.044844
C58	C	0.955729	0.378108	0.378174
C59	C	1.289063	0.711442	0.711507
C60	C	1.622396	1.044775	1.044840
C61	C	0.866108	0.378122	0.378183
C62	C	1.199442	0.711456	0.711516
C63	C	1.532775	1.044789	1.044849
C64	C	1.165269	0.378062	0.582940
C65	C	1.498602	0.711395	0.916273
C66	C	1.831936	1.044728	1.249607
C67	C	1.165290	0.378037	0.670190
C68	C	1.498623	0.711370	1.003523
C69	C	1.831956	1.044704	1.336856
C70	C	0.537933	0.378127	0.378216
C71	C	0.871266	0.711461	0.711550
C72	C	1.204599	1.044794	1.044883
C73	C	0.629241	0.378124	0.378205
C74	C	0.962574	0.711457	0.711538
C75	C	1.295908	1.044791	1.044871
C76	C	0.702018	0.378125	0.378199
C77	C	1.035351	0.711459	0.711532
C78	C	1.368684	1.044792	1.044866
C79	C	0.793332	0.378121	0.378188
C80	C	1.126665	0.711454	0.711522
C81	C	1.459999	1.044788	1.044855
C82	C	1.375529	0.378131	0.378218
C83	C	1.708862	0.711465	0.711551
C84	C	2.042196	1.044798	1.044885
C85	C	1.465150	0.378136	0.378228
C86	C	1.798484	0.711470	0.711561
C87	C	2.131817	1.044803	1.044894
C88	C	1.165320	0.173375	0.378244
C89	C	1.498654	0.506708	0.711577
C90	C	1.831987	0.840042	1.044911
C91	C	1.165363	0.086125	0.378265
C92	C	1.498696	0.419459	0.711598
C93	C	1.832030	0.752792	1.044932
C94	C	1.216794	0.710298	0.328031
C95	C	1.550127	1.043632	0.661364
C96	C	1.883461	1.376965	0.994697
C97	C	1.216833	0.792279	0.328051
C98	C	1.550167	1.125612	0.661384
C99	C	1.883500	1.458945	0.994717
C100	C	1.165257	0.833276	0.378214
C101	C	1.498590	1.166610	0.711547
C102	C	1.831924	1.499943	1.044880
C103	C	1.113644	0.792290	0.428366
C104	C	1.446977	1.125623	0.761699
C105	C	1.780310	1.458956	1.095032
C106	C	1.113609	0.710311	0.428349
C107	C	1.446942	1.043644	0.761682
C108	C	1.780276	1.376977	1.095016
C109	C	1.113719	0.963160	0.428395
C110	C	1.447052	1.296493	0.761729
C111	C	1.780385	1.629826	1.095062
C112	C	1.113752	1.045144	0.428411
C113	C	1.447085	1.378477	0.761745
C114	C	1.780419	1.711811	1.095078
C115	C	1.216943	1.045128	0.328097
C116	C	1.550276	1.378461	0.661430
C117	C	1.883609	1.711794	0.994764
C118	C	1.216908	0.963149	0.328080
C119	C	1.550241	1.296482	0.661414
C120	C	1.883575	1.629815	0.994747
C121	C	1.165293	0.922167	0.378232
C122	C	1.498627	1.255501	0.711565
C123	C	1.831960	1.588834	1.044898
C124	C	1.165218	0.378120	0.174248
C125	C	1.498551	0.711454	0.507581
C126	C	1.831885	1.044787	0.840914
C127	C	1.165353	0.377924	0.086998
C128	C	1.498687	0.711257	0.420332
C129	C	1.832020	1.044591	0.753665
C130	C	1.216887	0.327830	0.711199
C131	C	1.550220	0.661163	1.044532
C132	C	1.883553	0.994497	1.377865
C133	C	1.216896	0.327804	0.793179
C134	C	1.550230	0.661137	1.126512
C135	C	1.883563	0.994470	1.459846
C136	C	1.165313	0.377989	0.834149
C137	C	1.498646	0.711323	1.167483
C138	C	1.831979	1.044656	1.500816
C139	C	1.113710	0.428199	0.793135
C140	C	1.447044	0.761532	1.126468
C141	C	1.780377	1.094865	1.459801
C142	C	1.113697	0.428220	0.711156
C143	C	1.447030	0.761553	1.044489
C144	C	1.780364	1.094887	1.377822
C145	C	1.113743	0.428151	0.964005
C146	C	1.447076	0.761485	1.297338
C147	C	1.780409	1.094818	1.630671
C148	C	1.113757	0.428131	1.045989
C149	C	1.447090	0.761464	1.379323
C150	C	1.780423	1.094798	1.712656
C151	C	1.216942	0.327735	1.046028
C152	C	1.550275	0.661068	1.379362
C153	C	1.883609	0.994402	1.712695
C154	C	1.216929	0.327757	0.964049
C155	C	1.550262	0.661090	1.297383
C156	C	1.883595	0.994423	1.630716
C157	C	1.165327	0.377967	0.923040
C158	C	1.498660	0.711300	1.256374
C159	C	1.831994	1.044634	1.589707
H160	H	1.258790	0.676923	0.287179
H161	H	1.592123	1.010257	0.620512
H162	H	1.925456	1.343590	0.953845
Br163	Br	1.286961	0.259699	0.848831
Br164	Br	1.620294	0.593032	1.182165
Br165	Br	1.953628	0.926366	1.515498
H166	H	1.071583	0.676944	0.469184
H167	H	1.404917	1.010278	0.802518
H168	H	1.738250	1.343611	1.135851
Br169	Br	1.286943	0.259654	0.908447
Br170	Br	1.620276	0.592987	1.241780
Br171	Br	1.953609	0.926321	1.575113
H172	H	1.258956	0.286850	1.079422
H173	H	1.592290	0.620184	1.412755
H174	H	1.925623	0.953517	1.746088
H175	H	1.071674	0.469096	0.677767
H176	H	1.405007	0.802429	1.011101
H177	H	1.738340	1.135763	1.344434
H178	H	1.071711	0.469026	0.930618
H179	H	1.405044	0.802359	1.263951
H180	H	1.738377	1.135692	1.597284
Br181	Br	1.286885	0.847893	0.259997
Br182	Br	1.620218	1.181227	0.593330
Br183	Br	1.953552	1.514560	0.926663
H184	H	1.258894	0.286965	0.677847
H185	H	1.592228	0.620299	1.011180
H186	H	1.925561	0.953632	1.344513
Br187	Br	1.286903	0.907509	0.260000
Br188	Br	1.620237	1.240842	0.593333
Br189	Br	1.953570	1.574175	0.926666
H190	H	1.071707	0.469058	0.826499
H191	H	1.405040	0.802391	1.159832
H192	H	1.738374	1.135724	1.493166
Br193	Br	1.286980	1.100744	0.260024
Br194	Br	1.620314	1.434077	0.593357
Br195	Br	1.953647	1.767410	0.926691
Br196	Br	1.043743	1.100784	0.496479
Br197	Br	1.377076	1.434117	0.829812
Br198	Br	1.710410	1.767451	1.163145
H199	H	1.071751	0.468995	1.079345
H200	H	1.405084	0.802328	1.412679
H201	H	1.738418	1.135661	1.746012
Br202	Br	1.043673	0.907542	0.496462
Br203	Br	1.377006	1.240876	0.829795
Br204	Br	1.710339	1.574209	1.163128
H205	H	1.071653	0.825676	0.469213
H206	H	1.404986	1.159010	0.802546
H207	H	1.738320	1.492343	1.135879
