data_functionalizedCrystal
_audit_creation_method	'MofGen! by Chris Wilmer'
_symmetry_space_group_name_H-M	'P1'
_symmetry_Int_Tables_number	1
_symmetry_cell_setting	triclinic
loop_
_symmetry_equiv_pos_as_xyz
  x,y,z
_cell_length_a	19.288864
_cell_length_b	23.532357
_cell_length_c	17.766277
_cell_angle_alpha	89.988084
_cell_angle_beta	89.976791
_cell_angle_gamma	82.982267
loop_
_atom_site_label
_atom_site_type_symbol
_atom_site_fract_x
_atom_site_fract_y
_atom_site_fract_z
O1	O	0.921118	0.071047	-0.062845
O2	O	0.718826	0.080631	-0.062794
O3	O	0.826091	-0.007082	-0.062805
O4	O	0.813854	0.158760	-0.062833
O5	O	0.826072	-0.007086	0.062383
O6	O	0.718807	0.080627	0.062394
O7	O	0.921100	0.071043	0.062344
Cu8	Cu	0.819952	0.075834	0.073800
Cu9	Cu	0.819974	0.075839	-0.074250
O10	O	0.813835	0.158756	0.062355
C11	C	0.692941	0.080320	-0.000193
C12	C	0.615841	0.079395	-0.000174
C13	C	0.825775	-0.028301	-0.000209
C14	C	0.824855	-0.091522	-0.000202
C15	C	0.570975	0.130861	-0.000194
C16	C	0.498530	0.129991	-0.000202
C17	C	0.470956	0.077652	-0.000205
C18	C	0.515832	0.026180	-0.000180
C19	C	0.588274	0.027051	-0.000165
C20	C	0.362836	0.036510	-0.044082
C21	C	0.290395	0.035641	-0.044103
C22	C	0.247519	0.074963	-0.000250
C23	C	0.277092	0.115164	0.043613
C24	C	0.349535	0.116036	0.043629
C25	C	0.392405	0.076702	-0.000222
C26	C	0.124100	0.125490	-0.000278
C27	C	0.051655	0.124618	-0.000282
C28	C	0.068958	0.020805	-0.000268
C29	C	0.141401	0.021678	-0.000256
C30	C	0.168968	0.074022	-0.000265
C31	C	0.819088	-0.483543	-0.068481
C32	C	0.818213	-0.542944	-0.068485
O33	O	0.817746	-0.573659	-0.126521
N34	N	0.817769	-0.572659	-0.000246
C35	C	0.818193	-0.542968	0.068002
O36	O	0.817734	-0.573697	0.126045
C37	C	0.819063	-0.483567	0.068006
C38	C	0.819514	-0.453857	-0.000238
C39	C	0.819538	-0.453832	-0.136719
C40	C	0.820414	-0.394435	-0.136715
C41	C	0.820840	-0.364749	-0.068472
C42	C	0.820390	-0.394460	-0.000234
C43	C	0.819482	-0.453877	0.136253
C44	C	0.820351	-0.394472	0.136250
C45	C	0.820802	-0.364762	0.068006
C46	C	0.821692	-0.305376	0.068013
N47	N	0.822136	-0.275662	-0.000226
C48	C	0.821710	-0.305348	-0.068469
C49	C	0.816365	-0.667713	0.067990
C50	C	0.815501	-0.727113	0.067988
C51	C	0.815520	-0.727085	-0.068500
C52	C	0.816389	-0.667685	-0.068497
C53	C	0.816809	-0.637999	-0.000249
C54	C	0.823550	-0.180610	-0.068455
C55	C	0.824429	-0.121208	-0.068444
C56	C	0.824406	-0.121241	0.068043
C57	C	0.823531	-0.180638	0.068033
C58	C	0.823101	-0.210321	-0.000222
O59	O	0.822157	-0.274623	0.126019
O60	O	0.822159	-0.274611	-0.126502
C61	C	0.946985	0.071353	-0.000259
C62	C	1.024085	0.072279	-0.000283
C63	C	0.814151	0.179975	-0.000243
C64	C	0.815071	0.243196	-0.000255
N65	N	0.819941	0.075830	0.177930
N66	N	0.819990	0.075839	-0.178380
C67	C	0.867453	0.037010	0.217312
C68	C	0.867457	0.037007	0.296114
C69	C	0.819956	0.075835	0.335531
C70	C	0.772435	0.114658	0.296139
C71	C	0.772428	0.114656	0.217339
C72	C	0.810486	0.127727	0.460361
C73	C	0.810498	0.127730	0.539160
C74	C	0.819975	0.075842	0.578577
C75	C	0.829454	0.023948	0.539185
C76	C	0.829446	0.023946	0.460385
C77	C	0.819958	0.075841	0.420976
C78	C	0.867493	0.037015	0.703405
C79	C	0.867493	0.037012	0.782208
C80	C	0.772474	0.114667	0.782232
C81	C	0.772471	0.114666	0.703430
C82	C	0.819985	0.075840	0.664021
H83	H	0.461993	0.171902	-0.000217
O84	O	0.486094	-0.030272	-0.000177
H85	H	0.504180	-0.054998	-0.051189
O86	O	0.636673	-0.028461	-0.000146
H87	H	0.605332	-0.065003	-0.000151
O88	O	0.918709	-0.004864	0.338599
H89	H	0.910729	0.001660	0.400015
O90	O	0.819072	-0.485837	-0.210336
H91	H	0.866021	-0.518102	-0.213627
H92	H	0.802757	0.169983	0.428275
H93	H	0.837163	-0.018308	0.428315
O94	O	0.800289	0.183697	0.581646
H95	H	0.793688	0.219778	0.541001
O96	O	0.721204	0.156541	0.338646
H97	H	0.729196	0.150026	0.400058
H98	H	0.733786	0.146279	0.671363
O99	O	0.381430	0.159390	0.090940
H100	H	0.439006	0.153390	0.083578
O101	O	0.824913	-0.089166	-0.142056
H102	H	0.825600	-0.042874	-0.130594
O103	O	0.815039	-0.759116	-0.142102
H104	H	0.767857	-0.742503	-0.174803
O105	O	0.839670	-0.032024	0.581685
H106	H	0.838073	-0.023308	0.643097
H107	H	0.177933	-0.020231	-0.000244
O108	O	0.823080	-0.212621	-0.142070
H109	H	0.823542	-0.181974	-0.189513
H110	H	0.733795	0.146279	0.814325
H111	H	0.146546	0.168111	-0.000275
O112	O	0.721184	0.156527	0.174850
H113	H	0.729716	0.200909	0.189947
O114	O	0.258499	-0.007722	-0.091400
H115	H	0.300483	-0.034929	-0.121875
H116	H	0.015124	0.166530	-0.000294
H117	H	0.593414	0.173483	-0.000203
H118	H	0.906140	0.005394	0.185228
O119	O	0.820882	-0.362395	-0.210324
H120	H	0.868061	-0.378996	-0.243068
O121	O	0.230861	0.157579	0.090922
H122	H	0.175520	0.150216	0.083553
H123	H	0.815144	-0.751300	0.123559
O124	O	0.918727	-0.004865	0.660890
H125	H	0.951759	-0.031868	0.701518
H126	H	0.816709	-0.643547	0.123569
O127	O	0.039221	-0.035645	-0.000267
H128	H	0.057241	-0.060365	0.050769
O129	O	0.409079	-0.005902	-0.091388
H130	H	0.376346	-0.033994	-0.121901
H131	H	0.816755	-0.643498	-0.124067
O132	O	0.818988	-0.485913	0.209859
H133	H	0.819420	-0.455281	0.257305
O134	O	0.918747	-0.004855	0.824691
H135	H	0.951789	-0.031845	0.784045
H136	H	0.820682	-0.370304	0.191827
H137	H	0.824756	-0.097060	0.123604
O138	O	0.823047	-0.212689	0.141636
H139	H	0.823487	-0.182064	0.189089
