data_functionalizedCrystal
_audit_creation_method	'MofGen! by Chris Wilmer'
_symmetry_space_group_name_H-M	'P1'
_symmetry_Int_Tables_number	1
_symmetry_cell_setting	triclinic
loop_
_symmetry_equiv_pos_as_xyz
  x,y,z
_cell_length_a	13.635800
_cell_length_b	9.514072
_cell_length_c	9.514088
_cell_angle_alpha	96.214556
_cell_angle_beta	61.156455
_cell_angle_gamma	118.843421
loop_
_atom_site_label
_atom_site_type_symbol
_atom_site_fract_x
_atom_site_fract_y
_atom_site_fract_z
V1	V	-2.151881	-0.225059	0.502017
O2	O	-2.099169	0.007885	0.491166
O3	O	-2.168847	-0.443436	0.499829
O4	O	-2.168852	-0.222882	0.720396
O5	O	-2.099164	-0.214195	0.269072
V6	V	-2.383026	-0.197044	0.474004
O7	O	-2.305799	-0.286511	0.563467
O8	O	-2.454206	-0.135592	0.412554
O9	O	-2.254456	0.021333	0.476192
O10	O	-2.494435	-0.429988	0.484855
O11	O	-2.494440	-0.207908	0.706949
O12	O	-2.254450	-0.199220	0.255625
C13	C	-2.100030	-0.496631	0.492231
C14	C	-2.154820	-0.675166	0.491898
V15	V	-1.651881	-0.225059	0.502017
O16	O	-1.599169	0.007885	0.491166
O17	O	-1.668847	-0.443436	0.499829
O18	O	-1.668852	-0.222882	0.720396
O19	O	-1.599164	-0.214195	0.269072
V20	V	-1.883026	-0.197044	0.474004
O21	O	-1.805799	-0.286511	0.563467
O22	O	-1.954206	-0.135592	0.412554
O23	O	-1.754456	0.021333	0.476192
O24	O	-1.994435	-0.429988	0.484855
O25	O	-1.994440	-0.207908	0.706949
O26	O	-1.754450	-0.199220	0.255625
C27	C	-2.100036	-0.215291	0.773584
C28	C	-2.154826	-0.214957	0.952118
C29	C	-2.154944	0.074520	0.483786
C30	C	-2.089776	0.253053	0.484130
C31	C	-2.154938	-0.206816	0.202429
C32	C	-2.089765	-0.207143	0.023893
C33	C	-1.600030	-0.496631	0.492231
C34	C	-1.654820	-0.675166	0.491898
C35	C	-1.600036	-0.215291	0.773584
C36	C	-1.654826	-0.214957	0.952118
C37	C	-1.654944	0.074520	0.483786
C38	C	-1.589776	0.253053	0.484130
C39	C	-1.654938	-0.206816	0.202429
C40	C	-1.589765	-0.207143	0.023893
H41	H	-1.992144	-0.671806	0.477655
C42	C	-1.784923	-0.223294	1.052054
C43	C	-1.779563	-0.089325	0.993859
C44	C	-1.899388	-0.096966	1.085863
H45	H	-1.805816	-0.221851	1.162786
H46	H	-1.848950	-0.320795	1.043184
H47	H	-1.715556	0.008151	1.002745
H48	H	-1.758691	-0.090741	0.883139
H49	H	-1.963415	-0.194468	1.076992
H50	H	-1.920271	-0.095527	1.196590
H51	H	-1.895770	-0.006080	1.046381
H52	H	-1.752451	-0.750312	0.498349
C53	C	-2.284901	-0.775505	0.500254
C54	C	-2.270196	-0.849964	0.361665
C55	C	-2.389997	-0.942423	0.369313
H56	H	-2.318466	-0.706706	0.505082
H57	H	-2.342576	-0.856543	0.594622
H58	H	-2.212542	-0.768936	0.267322
H59	H	-2.236652	-0.918790	0.356810
H60	H	-2.447672	-1.023461	0.463681
H61	H	-2.423552	-0.873611	0.374144
H62	H	-2.380038	-0.992965	0.275291
H63	H	-1.992152	-0.200723	0.948761
H64	H	-2.252452	-0.221395	1.027262
C65	C	-1.459517	-0.646529	0.475256
C66	C	-1.374822	-0.527345	0.336000
C67	C	-1.254818	-0.434786	0.327781
H68	H	-1.425888	-0.715296	0.470260
H69	H	-1.469194	-0.595794	0.569138
H70	H	-1.365143	-0.578078	0.242142
H71	H	-1.408410	-0.458541	0.340964
H72	H	-1.264494	-0.384051	0.421663
H73	H	-1.221201	-0.503566	0.322791
H74	H	-1.197342	-0.353900	0.233306
H75	H	-1.492152	-0.200723	0.948761
