data_functionalizedCrystal
_audit_creation_method	'MofGen! by Chris Wilmer'
_symmetry_space_group_name_H-M	'P1'
_symmetry_Int_Tables_number	1
_symmetry_cell_setting	triclinic
loop_
_symmetry_equiv_pos_as_xyz
  x,y,z
_cell_length_a	17.699103
_cell_length_b	17.699083
_cell_length_c	16.176319
_cell_angle_alpha	90.001389
_cell_angle_beta	89.988235
_cell_angle_gamma	96.712962
loop_
_atom_site_label
_atom_site_type_symbol
_atom_site_fract_x
_atom_site_fract_y
_atom_site_fract_z
O1	O	0.095712	-1.004086	-0.068640
O2	O	0.108165	-0.783708	-0.068668
O3	O	-0.008250	-0.900115	-0.068637
O4	O	0.212127	-0.887678	-0.068670
O5	O	-0.008257	-0.900099	0.068856
O6	O	0.108157	-0.783692	0.068825
O7	O	0.095705	-1.004070	0.068853
Cu8	Cu	0.101930	-0.893879	0.081394
Cu9	Cu	0.101939	-0.893898	-0.081208
O10	O	0.212119	-0.887662	0.068823
C11	C	0.107715	-0.755503	0.000075
C12	C	0.106376	-0.671485	0.000065
C13	C	-0.036450	-0.899659	0.000112
C14	C	-0.120468	-0.898315	0.000118
C15	C	0.096155	-1.032275	0.000108
C16	C	0.097493	-1.116293	0.000113
C17	C	-0.636175	-0.890099	-0.074884
C18	C	-0.557232	-0.891361	-0.074877
C19	C	-0.517777	-0.891982	0.000076
C20	C	-0.557271	-0.891349	0.075026
C21	C	-0.636214	-0.890092	0.075017
C22	C	-0.238905	-0.896418	0.075061
C23	C	-0.159956	-0.897673	0.075063
C24	C	-0.159923	-0.897688	-0.074833
C25	C	-0.238865	-0.896431	-0.074842
C26	C	-0.278353	-0.895802	0.000108
C27	C	-0.363952	-0.894434	0.000099
C28	C	-0.432178	-0.893344	0.000086
C29	C	0.240320	-0.888119	0.000072
C30	C	0.324337	-0.889463	0.000060
N31	N	0.101924	-0.893872	0.195759
C32	C	0.174709	-0.622869	0.000055
C33	C	0.173447	-0.543925	0.000066
C34	C	0.103851	-0.513600	0.000081
C35	C	0.035513	-0.562222	0.000094
C36	C	0.036776	-0.641164	0.000089
C37	C	0.030418	-0.243859	0.000115
C38	C	0.029160	-0.164910	0.000117
C39	C	0.167088	-0.146620	0.000092
C40	C	0.168351	-0.225562	0.000087
C41	C	0.100014	-0.274177	0.000104
C42	C	0.101383	-0.359777	0.000094
C43	C	0.102480	-0.428002	0.000085
N44	N	0.101940	-0.893912	-0.195573
C45	C	0.050396	-0.945432	0.239037
C46	C	0.050396	-0.945436	0.325584
C47	C	0.101926	-0.893882	0.368851
C48	C	0.153456	-0.842316	0.325567
C49	C	0.153453	-0.842309	0.239022
C50	C	0.153470	-0.842342	0.674596
C51	C	0.153471	-0.842354	0.761147
C52	C	0.050413	-0.945469	0.761157
C53	C	0.050410	-0.945462	0.674612
C54	C	0.101936	-0.893894	0.631336
C55	C	0.101936	-0.893889	0.537491
C56	C	0.101931	-0.893890	0.462694
H57	H	-0.668292	-0.889586	-0.135920
Cl58	Cl	-0.049132	-0.702282	0.000105
Cl59	Cl	0.262206	-0.660984	0.000031
H60	H	0.225023	-0.250248	0.000071
H61	H	-0.525084	-0.891881	-0.135904
Cl62	Cl	-0.110278	-0.898491	-0.169057
H63	H	-0.021153	-0.537525	0.000118
Cl64	Cl	0.218248	-0.777518	0.620197
H65	H	-0.027517	-0.140223	0.000131
H66	H	0.222732	-0.107027	0.000083
Cl67	Cl	-0.014386	-1.010250	0.184652
H68	H	0.195411	-0.800336	0.360801
H69	H	0.008455	-0.987456	0.796402
Cl70	Cl	-0.014383	-1.010255	0.379992
H71	H	0.008451	-0.987444	0.639386
H72	H	0.195435	-0.800370	0.796374
H73	H	0.195410	-0.800323	0.203786
H74	H	-0.270985	-0.895922	-0.135876
Cl75	Cl	-0.110358	-0.898454	0.169297
H76	H	-0.668364	-0.889573	0.136045
H77	H	-0.271046	-0.895907	0.136089
H78	H	-0.525142	-0.891859	0.136053
H79	H	0.229090	-0.504345	0.000057
Cl80	Cl	-0.055493	-0.304965	0.000135
