data_functionalizedCrystal
_audit_creation_method	'MofGen! by Chris Wilmer'
_symmetry_space_group_name_H-M	'P1'
_symmetry_Int_Tables_number	1
_symmetry_cell_setting	triclinic
loop_
_symmetry_equiv_pos_as_xyz
  x,y,z
_cell_length_a	12.759401
_cell_length_b	12.759400
_cell_length_c	12.759393
_cell_angle_alpha	89.968436
_cell_angle_beta	89.981433
_cell_angle_gamma	90.013728
loop_
_atom_site_label
_atom_site_type_symbol
_atom_site_fract_x
_atom_site_fract_y
_atom_site_fract_z
Zn1	Zn	1.606255	-0.418231	-0.593983
Zn2	Zn	1.606150	-0.593950	-0.418303
Zn3	Zn	1.430557	-0.418283	-0.418323
Zn4	Zn	1.430546	-0.593866	-0.593945
O5	O	1.518377	-0.506082	-0.506138
O6	O	1.753262	-0.441554	-0.570687
O7	O	1.582818	-0.570704	-0.271285
O8	O	1.453913	-0.271255	-0.441648
O9	O	1.753185	-0.570654	-0.441616
O10	O	1.582998	-0.271217	-0.570706
O11	O	1.453811	-0.441642	-0.271299
O12	O	1.283535	-0.441560	-0.441611
O13	O	1.453894	-0.570511	-0.740971
O14	O	1.283527	-0.570561	-0.570640
O15	O	1.582987	-0.441473	-0.740999
O16	O	1.582807	-0.740960	-0.441579
O17	O	1.453791	-0.740898	-0.570621
C18	C	1.245410	-0.506058	-0.506124
C19	C	1.128633	-0.506072	-0.506143
C20	C	1.073805	-0.438977	-0.573454
C21	C	0.964081	-0.438997	-0.573461
C22	C	0.964023	-0.573217	-0.438841
C23	C	1.073745	-0.573191	-0.438830
C24	C	1.128692	-0.371858	-0.640766
C25	C	1.073864	-0.304758	-0.708084
C26	C	0.964140	-0.304778	-0.708091
C27	C	0.909244	-0.371899	-0.640780
C28	C	1.518315	-0.779050	-0.506117
C29	C	1.518384	-0.895826	-0.506142
C30	C	1.585637	-0.950686	-0.439024
C31	C	1.585702	-1.060410	-0.439056
C32	C	1.451252	-1.060405	-0.573328
C33	C	1.451193	-0.950683	-0.573301
C34	C	1.652828	-0.895829	-0.371866
C35	C	1.720086	-0.950688	-0.304741
C36	C	1.720150	-1.060412	-0.304774
C37	C	1.652957	-1.115277	-0.371931
C38	C	1.792410	-0.506108	-0.506154
C39	C	1.909187	-0.506119	-0.506160
C40	C	1.518451	-0.505976	-0.780172
C41	C	1.518482	-0.505931	-0.896949
C42	C	1.518468	-0.232049	-0.506183
C43	C	1.518507	-0.115272	-0.506203
C44	C	1.585710	-0.438735	-0.951827
C45	C	1.585735	-0.438697	-1.061551
C46	C	1.451301	-0.573061	-1.061509
C47	C	1.451272	-0.573093	-0.951787
C48	C	1.663328	-0.361164	-0.951853
C49	C	1.663353	-0.361126	-1.061577
C50	C	1.518364	-0.506112	-0.233171
C51	C	1.518537	-0.505861	-0.116395
H52	H	0.919319	-0.627865	-0.384042
H53	H	1.118388	-0.627826	-0.384019
N54	N	1.247036	-0.371856	-0.640743
H55	H	1.273450	-0.443955	-0.659919
H56	H	1.273427	-0.319118	-0.693584
N57	N	1.792695	-1.119585	-0.232389
H58	H	1.835249	-1.068181	-0.189844
H59	H	1.749979	-1.165185	-0.183747
H60	H	0.819900	-0.371887	-0.640768
H61	H	1.653024	-1.204622	-0.371960
H62	H	1.396525	-0.627807	-0.907109
N63	N	1.765686	-0.399782	-0.906759
H64	H	1.761928	-0.398394	-0.827703
H65	H	1.778979	-0.473857	-0.931238
H66	H	1.634239	-0.283816	-1.095625
N67	N	1.652768	-0.777485	-0.371826
H68	H	1.672032	-0.750977	-0.443904
H69	H	1.580674	-0.751216	-0.352404
H70	H	1.774798	-0.906012	-0.250070
H71	H	1.396545	-1.105085	-0.628004
H72	H	1.396431	-0.906016	-0.627955
N73	N	1.771130	-0.389993	-1.101035
H74	H	1.819206	-0.402909	-1.039501
H75	H	1.766357	-0.455599	-1.145026
H76	H	1.118567	-0.250105	-0.762880
H77	H	0.919501	-0.250135	-0.762897
H78	H	1.396579	-0.627739	-1.106171
H79	H	1.641559	-0.279799	-0.922097
