data_functionalizedCrystal
_audit_creation_method	'MofGen! by Chris Wilmer'
_symmetry_space_group_name_H-M	'P1'
_symmetry_Int_Tables_number	1
_symmetry_cell_setting	triclinic
loop_
_symmetry_equiv_pos_as_xyz
  x,y,z
_cell_length_a	17.077404
_cell_length_b	18.050589
_cell_length_c	17.077396
_cell_angle_alpha	90.025276
_cell_angle_beta	89.982756
_cell_angle_gamma	89.965077
loop_
_atom_site_label
_atom_site_type_symbol
_atom_site_fract_x
_atom_site_fract_y
_atom_site_fract_z
Zn1	Zn	1.199973	0.295649	-0.443865
Zn2	Zn	1.533306	0.628982	-0.110531
Zn3	Zn	1.866639	0.962316	0.222802
Zn4	Zn	1.199858	0.419848	-0.312608
Zn5	Zn	1.533191	0.753181	0.020725
Zn6	Zn	1.866525	1.086515	0.354059
Zn7	Zn	1.068710	0.295677	-0.312613
Zn8	Zn	1.402043	0.629010	0.020721
Zn9	Zn	1.735376	0.962343	0.354054
Zn10	Zn	1.068645	0.419802	-0.443832
Zn11	Zn	1.401979	0.753135	-0.110498
Zn12	Zn	1.735312	1.086469	0.222835
O13	O	1.134296	0.357744	-0.378229
O14	O	1.467630	0.691077	-0.044896
O15	O	1.800963	1.024411	0.288437
O16	O	1.309804	0.312132	-0.426465
O17	O	1.643138	0.645465	-0.093132
O18	O	1.976471	0.978798	0.240202
O19	O	1.182440	0.403407	-0.202762
O20	O	1.515773	0.736741	0.130572
O21	O	1.849106	1.070074	0.463905
O22	O	1.086197	0.191748	-0.330039
O23	O	1.419530	0.525082	0.003294
O24	O	1.752864	0.858415	0.336627
O25	O	1.309720	0.403380	-0.330031
O26	O	1.643053	0.736714	0.003302
O27	O	1.976387	1.070047	0.336635
O28	O	1.182635	0.191728	-0.426470
O29	O	1.515969	0.525061	-0.093136
O30	O	1.849302	0.858395	0.240197
O31	O	1.086086	0.312179	-0.202765
O32	O	1.419419	0.645513	0.130568
O33	O	1.752752	0.978846	0.463902
O34	O	0.958854	0.312135	-0.330007
O35	O	1.292188	0.645468	0.003326
O36	O	1.625521	0.978801	0.336659
O37	O	1.086087	0.403302	-0.553683
O38	O	1.419421	0.736635	-0.220350
O39	O	1.752754	1.069969	0.112984
O40	O	0.958807	0.403329	-0.426413
O41	O	1.292140	0.736662	-0.093080
O42	O	1.625474	1.069996	0.240253
O43	O	1.182573	0.312087	-0.553707
O44	O	1.515906	0.645421	-0.220374
O45	O	1.849240	0.978754	0.112959
O46	O	1.182377	0.523766	-0.329999
O47	O	1.515711	0.857100	0.003334
O48	O	1.849044	1.190433	0.336667
O49	O	1.085976	0.523733	-0.426409
O50	O	1.419309	0.857066	-0.093075
O51	O	1.752643	1.190399	0.240258
C52	C	0.930349	0.357730	-0.378208
C53	C	1.263682	0.691064	-0.044874
C54	C	1.597015	1.024397	0.288459
C55	C	0.843099	0.357743	-0.378217
C56	C	1.176432	0.691076	-0.044884
C57	C	1.509765	1.024409	0.288450
C58	C	0.802105	0.405299	-0.428335
C59	C	1.135438	0.738632	-0.095002
C60	C	1.468771	1.071966	0.238332
C61	C	0.720124	0.405301	-0.428348
C62	C	1.053457	0.738634	-0.095014
C63	C	1.386791	1.071967	0.238319
C64	C	0.679139	0.357749	-0.378237
C65	C	1.012473	0.691082	-0.044904
C66	C	1.345806	1.024416	0.288429
C67	C	0.720139	0.310187	-0.328117
C68	C	1.053473	0.643521	0.005216
C69	C	1.386806	0.976854	0.338549
C70	C	0.802118	0.310182	-0.328109
C71	C	1.135452	0.643516	0.005224
C72	C	1.468785	0.976849	0.338557
C73	C	0.549269	0.310202	-0.328136
C74	C	0.882603	0.643535	0.005197
C75	C	1.215936	0.976869	0.338531
C76	C	0.467285	0.310207	-0.328143
C77	C	0.800618	0.643541	0.005190
C78	C	1.133951	0.976874	0.338524
C79	C	0.467275	0.405320	-0.428374
C80	C	0.800608	0.738653	-0.095041
C81	C	1.133942	1.071987	0.238292
C82	C	0.549254	0.405315	-0.428366
C83	C	0.882587	0.738649	-0.095033
C84	C	1.215921	1.071982	0.238300
C85	C	0.590248	0.357754	-0.378245
C86	C	0.923582	0.691088	-0.044912
C87	C	1.256915	1.024421	0.288422
C88	C	1.134179	0.550696	-0.378217
C89	C	1.467512	0.884029	-0.044884
C90	C	1.800845	1.217363	0.288450
C91	C	1.134200	0.633242	-0.378238
C92	C	1.467533	0.966575	-0.044905
C93	C	1.800867	1.299909	0.288429
C94	C	1.081805	0.832701	-0.430648
C95	C	1.415138	1.166034	-0.097314
C96	C	1.748471	1.499368	0.236019
C97	C	1.062667	0.882144	-0.359019
C98	C	1.396000	1.215477	-0.025685
C99	C	1.729333	1.548810	0.307648
C100	C	1.134259	0.784372	-0.378249
C101	C	1.467592	1.117706	-0.044915
C102	C	1.800926	1.451039	0.288418
C103	C	1.153418	0.882011	-0.449886
C104	C	1.486752	1.215345	-0.116553
C105	C	1.820085	1.548678	0.216780
C106	C	1.134315	0.930357	-0.378265
C107	C	1.467648	1.263691	-0.044932
C108	C	1.800981	1.597024	0.288401
C109	C	1.115083	0.832728	-0.306582
C110	C	1.448417	1.166061	0.026752
C111	C	1.781750	1.499394	0.360085
C112	C	1.205868	0.832591	-0.397498
C113	C	1.539202	1.165924	-0.064164
C114	C	1.872535	1.499257	0.269169
C115	C	1.186757	0.882011	-0.325819
C116	C	1.520091	1.215344	0.007514
C117	C	1.853424	1.548678	0.340847
C118	C	1.134225	0.700274	-0.378240
C119	C	1.467558	1.033607	-0.044907
C120	C	1.800892	1.366941	0.288427
C121	C	1.134349	1.014454	-0.378266
C122	C	1.467682	1.347787	-0.044933
C123	C	1.801015	1.681120	0.288401
C124	C	1.339041	0.357758	-0.378251
C125	C	1.672374	0.691091	-0.044918
C126	C	2.005707	1.024425	0.288415
C127	C	1.426290	0.357764	-0.378261
C128	C	1.759624	0.691097	-0.044928
C129	C	2.092957	1.024431	0.288406
C130	C	1.134336	0.357686	-0.582974
C131	C	1.467669	0.691020	-0.249640
C132	C	1.801003	1.024353	0.083693
C133	C	1.134353	0.357662	-0.670223
C134	C	1.467686	0.690995	-0.336890
C135	C	1.801019	1.024329	-0.003557
C136	C	1.134406	1.164038	-0.378260
C137	C	1.467739	1.497372	-0.044926
C138	C	1.801073	1.830705	0.288407
C139	C	1.134376	1.081493	-0.378275
C140	C	1.467709	1.414826	-0.044942
C141	C	1.801043	1.748159	0.288392
C142	C	1.084196	0.310154	-0.711215
C143	C	1.417530	0.643487	-0.377881
C144	C	1.750863	0.976820	-0.044548
C145	C	1.084209	0.310137	-0.793195
C146	C	1.417543	0.643470	-0.459862
C147	C	1.750876	0.976804	-0.126529
C148	C	1.134383	0.357625	-0.834183
C149	C	1.467716	0.690958	-0.500850
C150	C	1.801050	1.024292	-0.167516
C151	C	1.184541	0.405138	-0.793186
C152	C	1.517875	0.738472	-0.459853
C153	C	1.851208	1.071805	-0.126519
C154	C	1.184524	0.405158	-0.711207
C155	C	1.517857	0.738492	-0.377873
C156	C	1.851191	1.071825	-0.044540
C157	C	1.184575	0.405092	-0.964056
C158	C	1.517909	0.738425	-0.630723
C159	C	1.851242	1.071759	-0.297389
C160	C	1.184594	0.405071	-1.046041
C161	C	1.517927	0.738404	-0.712707
C162	C	1.851261	1.071738	-0.379374
C163	C	1.084261	0.310070	-1.046044
C164	C	1.417594	0.643404	-0.712711
C165	C	1.750927	0.976737	-0.379378
C166	C	1.084243	0.310090	-0.964065
C167	C	1.417577	0.643424	-0.630732
C168	C	1.750910	0.976757	-0.297399
C169	C	1.134403	0.357603	-0.923074
C170	C	1.467736	0.690936	-0.589741
C171	C	1.801070	1.024270	-0.256407
C172	C	1.134302	0.357748	-0.174281
C173	C	1.467636	0.691081	0.159052
C174	C	1.800969	1.024414	0.492385
C175	C	1.134438	0.357563	-0.087032
C176	C	1.467771	0.690896	0.246301
C177	C	1.801104	1.024230	0.579635
H178	H	0.433894	0.444044	-0.469188
H179	H	0.767227	0.777377	-0.135854
H180	H	1.100560	1.110711	0.197479
H181	H	0.835469	0.444024	-0.469138
H182	H	1.168802	0.777357	-0.135805
H183	H	1.502135	1.110690	0.197529
H184	H	1.231140	0.903526	-0.281463
H185	H	1.564474	1.236859	0.051870
H186	H	1.897807	1.570193	0.385203
O187	O	1.030153	0.258826	-1.090249
O188	O	1.363486	0.592160	-0.756916
O189	O	1.696819	0.925493	-0.423582
H190	H	1.038584	0.266795	-1.154140
H191	H	1.371918	0.600129	-0.820807
H192	H	1.705251	0.933462	-0.487473
O193	O	0.593488	0.258905	-0.274078
O194	O	0.926822	0.592238	0.059255
O195	O	1.260155	0.925571	0.392589
H196	H	0.630807	0.292098	-0.234085
H197	H	0.964140	0.625431	0.099248
H198	H	1.297473	0.958765	0.432582
H199	H	1.002136	0.903926	-0.342753
H200	H	1.335469	1.237259	-0.009419
H201	H	1.668802	1.570593	0.323914
H202	H	1.169601	0.903660	-0.510463
H203	H	1.502935	1.236993	-0.177130
H204	H	1.836268	1.570326	0.156204
H205	H	0.433917	0.271478	-0.287348
H206	H	0.767250	0.604811	0.045985
H207	H	1.100584	0.938144	0.379318
O208	O	1.238655	0.456358	-0.837397
O209	O	1.571988	0.789691	-0.504063
O210	O	1.905321	1.123025	-0.170730
H211	H	1.225139	0.514647	-0.821657
H212	H	1.558472	0.847981	-0.488323
H213	H	1.891805	1.181314	-0.154990
O214	O	1.238706	0.456296	-1.090247
O215	O	1.572039	0.789629	-0.756914
O216	O	1.905372	1.122962	-0.423581
H217	H	1.230295	0.448291	-1.154139
H218	H	1.563628	0.781624	-0.820805
H219	H	1.896962	1.114958	-0.487472
O220	O	1.093554	0.804183	-0.226315
O221	O	1.426887	1.137517	0.107018
O222	O	1.760220	1.470850	0.440352
H223	H	1.039705	0.770014	-0.230544
H224	H	1.373038	1.103347	0.102790
H225	H	1.706372	1.436681	0.436123
O226	O	0.593460	0.456604	-0.482412
O227	O	0.926794	0.789937	-0.149079
O228	O	1.260127	1.123270	0.184254
H229	H	0.630849	0.423406	-0.522398
H230	H	0.964182	0.756739	-0.189065
H231	H	1.297515	1.090072	0.144268
H232	H	1.225372	0.443839	-0.677833
H233	H	1.558706	0.777172	-0.344499
H234	H	1.892039	1.110506	-0.011166
H235	H	0.686750	0.444027	-0.469158
H236	H	1.020084	0.777360	-0.135825
H237	H	1.353417	1.110693	0.197509
O238	O	0.675927	0.258918	-0.274056
O239	O	1.009260	0.592251	0.059277
O240	O	1.342593	0.925584	0.392610
H241	H	0.638597	0.221182	-0.309249
H242	H	0.971930	0.554515	0.024084
H243	H	1.305263	0.887849	0.357418
H244	H	0.835495	0.271453	-0.287302
H245	H	1.168828	0.604786	0.046031
H246	H	1.502161	0.938120	0.379365
H247	H	1.037388	0.811049	-0.474897
H248	H	1.370721	1.144382	-0.141564
H249	H	1.704055	1.477716	0.191770
O250	O	1.030139	0.258860	-0.919857
O251	O	1.363472	0.592194	-0.586524
O252	O	1.696805	0.925527	-0.253191
H253	H	0.968521	0.271584	-0.935573
H254	H	1.301854	0.604917	-0.602240
H255	H	1.635188	0.938250	-0.268906
H256	H	1.225428	0.443775	-0.930683
H257	H	1.558761	0.777109	-0.597350
H258	H	1.892094	1.110442	-0.264017
O259	O	1.286048	0.803821	-0.419147
O260	O	1.619381	1.137154	-0.085814
O261	O	1.952715	1.470488	0.247520
H262	H	1.285513	0.742337	-0.418425
H263	H	1.618846	1.075670	-0.085091
H264	H	1.952180	1.409003	0.248242
O265	O	1.030084	0.258931	-0.667007
O266	O	1.363417	0.592264	-0.333674
O267	O	1.696750	0.925598	-0.000341
H268	H	0.995206	0.225897	-0.709288
H269	H	1.328539	0.559230	-0.375954
H270	H	1.661872	0.892564	-0.042621
H271	H	1.043364	0.271454	-0.826567
H272	H	1.376697	0.604787	-0.493234
H273	H	1.710031	0.938120	-0.159900
