data_functionalizedCrystal
_audit_creation_method	'MofGen! by Chris Wilmer'
_symmetry_space_group_name_H-M	'P1'
_symmetry_Int_Tables_number	1
_symmetry_cell_setting	triclinic
loop_
_symmetry_equiv_pos_as_xyz
  x,y,z
_cell_length_a	15.297979
_cell_length_b	12.594510
_cell_length_c	12.594516
_cell_angle_alpha	89.966810
_cell_angle_beta	99.679194
_cell_angle_gamma	80.290333
loop_
_atom_site_label
_atom_site_type_symbol
_atom_site_fract_x
_atom_site_fract_y
_atom_site_fract_z
Zn1	Zn	1.379390	-0.884011	-0.142297
Zn2	Zn	1.879390	-0.384011	0.357703
Zn3	Zn	1.379292	-0.706017	-0.320346
Zn4	Zn	1.879292	-0.206017	0.179654
Zn5	Zn	1.228506	-0.675178	-0.173138
Zn6	Zn	1.728506	-0.175178	0.326862
Zn7	Zn	1.228485	-0.853100	-0.351014
Zn8	Zn	1.728485	-0.353100	0.148986
O9	O	1.303919	-0.779577	-0.246699
O10	O	1.803919	-0.279577	0.253301
O11	O	1.505636	-0.886242	-0.140175
O12	O	2.005636	-0.386242	0.359825
O13	O	1.359258	-0.552973	-0.300891
O14	O	1.859258	-0.052973	0.199109
O15	O	1.248571	-0.702911	-0.020091
O16	O	1.748571	-0.202911	0.479909
O17	O	1.505564	-0.755470	-0.270987
O18	O	2.005564	-0.255470	0.229013
O19	O	1.359425	-0.856340	0.002568
O20	O	1.859425	-0.356340	0.502568
O21	O	1.248477	-0.530317	-0.192738
O22	O	1.748477	-0.030317	0.307262
O23	O	1.102245	-0.672938	-0.222474
O24	O	1.602245	-0.172938	0.277526
O25	O	1.248535	-1.006153	-0.323254
O26	O	1.748535	-0.506153	0.176746
O27	O	1.102229	-0.803656	-0.353159
O28	O	1.602229	-0.303656	0.146841
O29	O	1.359404	-1.028863	-0.169912
O30	O	1.859404	-0.528863	0.330088
O31	O	1.359238	-0.725497	-0.473370
O32	O	1.859238	-0.225497	0.026630
O33	O	1.248440	-0.833559	-0.495901
O34	O	1.748440	-0.333559	0.004099
C35	C	1.069500	-0.731597	-0.294492
C36	C	1.569500	-0.231597	0.205508
C37	C	0.969214	-0.711096	-0.314963
C38	C	1.469214	-0.211096	0.185037
C39	C	0.922062	-0.633270	-0.392580
C40	C	1.422062	-0.133270	0.107420
C41	C	0.827839	-0.614014	-0.411817
C42	C	1.327839	-0.114014	0.088183
C43	C	0.780759	-0.672576	-0.353433
C44	C	1.280759	-0.172576	0.146567
C45	C	0.827911	-0.750398	-0.275809
C46	C	1.327911	-0.250398	0.224191
C47	C	0.922144	-0.769662	-0.256576
C48	C	1.422144	-0.269662	0.243424
C49	C	0.780841	-0.808968	-0.217429
C50	C	1.280841	-0.308968	0.282571
C51	C	0.827994	-0.886791	-0.139805
C52	C	1.327994	-0.386791	0.360195
C53	C	0.922217	-0.906051	-0.120575
C54	C	1.422217	-0.406051	0.379425
C55	C	0.969296	-0.847489	-0.178960
C56	C	1.469296	-0.347489	0.321040
C57	C	0.686609	-0.789704	-0.236661
C58	C	1.186609	-0.289704	0.263339
C59	C	0.686691	-0.926097	-0.100657
C60	C	1.186691	-0.426097	0.399343
C61	C	0.780914	-0.945353	-0.081421
C62	C	1.280914	-0.445353	0.418579
C63	C	1.303978	-1.057210	-0.246564
C64	C	1.803978	-0.557210	0.253436
C65	C	1.304004	-1.175521	-0.246506
C66	C	1.804004	-0.675521	0.253494
C67	C	1.364323	-1.257130	-0.163094
C68	C	1.864323	-0.757130	0.336906
C69	C	1.282034	-1.311089	-0.153825
C70	C	1.782034	-0.811089	0.346175
C71	C	1.386341	-1.332371	-0.255690
C72	C	1.886341	-0.832371	0.244310
C73	C	1.221671	-1.227912	-0.237196
C74	C	1.721671	-0.727912	0.262804
C75	C	1.326032	-1.249200	-0.339095
C76	C	1.826032	-0.749200	0.160905
C77	C	1.243687	-1.303115	-0.329875
C78	C	1.743687	-0.803115	0.170125
C79	C	1.539253	-0.827744	-0.198720
C80	C	2.039253	-0.327744	0.301280
C81	C	1.639538	-0.848271	-0.178274
C82	C	2.139538	-0.348271	0.321726
C83	C	1.303851	-0.779548	-0.523254
C84	C	1.803851	-0.279548	-0.023254
C85	C	1.303904	-0.779588	-0.641548
C86	C	1.803904	-0.279588	-0.141548
C87	C	1.303911	-0.503034	-0.246746
C88	C	1.803911	-0.003034	0.253254
C89	C	1.304061	-0.384760	-0.246468
C90	C	1.804061	0.115240	0.253532
C91	C	1.243691	-0.838337	-0.793848
C92	C	1.743691	-0.338337	-0.293848
C93	C	1.325945	-0.881276	-0.706157
C94	C	1.825945	-0.381276	-0.206157
C95	C	1.221658	-0.736699	-0.727666
C96	C	1.721658	-0.236699	-0.227666
C97	C	1.386350	-0.822656	-0.764603
C98	C	1.886350	-0.322656	-0.264603
C99	C	1.282007	-0.678022	-0.786130
C100	C	1.782007	-0.178022	-0.286130
C101	C	1.364318	-0.720936	-0.698459
C102	C	1.864318	-0.220936	-0.198459
C103	C	1.304011	-0.779634	0.030941
C104	C	1.804011	-0.279634	0.530941
C105	C	1.304051	-0.779658	0.149255
C106	C	1.804051	-0.279658	0.649255
H107	H	0.648226	-0.726341	-0.299864
H108	H	1.148226	-0.226341	0.200136
H109	H	1.152044	-1.182712	-0.229319
H110	H	1.652044	-0.682712	0.270681
H111	H	0.648359	-0.973784	-0.053117
H112	H	1.148359	-0.473784	0.446883
H113	H	1.046021	-0.863160	-0.163298
H114	H	1.546021	-0.363160	0.336702
H115	H	0.960606	-0.969429	-0.057379
H116	H	1.460606	-0.469429	0.442621
H117	H	1.192771	-0.888049	-0.835311
H118	H	1.692771	-0.388049	-0.335311
H119	H	0.704038	-0.656893	-0.369100
H120	H	1.204038	-0.156893	0.130900
H121	H	0.819319	-1.008717	-0.018219
H122	H	1.319319	-0.508717	0.481781
H123	H	1.415359	-0.671295	-0.657165
H124	H	1.915359	-0.171295	-0.157165
H125	H	1.415244	-1.236515	-0.092538
H126	H	1.915244	-0.736515	0.407462
H127	H	1.263421	-1.338420	-0.075510
H128	H	1.763421	-0.838420	0.424490
H129	H	1.192642	-1.323505	-0.400410
H130	H	1.692642	-0.823505	0.099590
H131	H	1.344670	-1.221853	-0.417383
H132	H	1.844670	-0.721853	0.082617
H133	H	1.455948	-1.377701	-0.263475
H134	H	1.955948	-0.877701	0.236525
H135	H	1.344534	-0.967199	-0.671177
H136	H	1.844534	-0.467199	-0.171177
H137	H	1.455987	-0.859059	-0.781254
H138	H	1.955987	-0.359059	-0.281254
H139	H	1.263394	-0.592118	-0.821139
H140	H	1.763394	-0.092118	-0.321139
H141	H	0.789454	-0.550651	-0.475019
H142	H	1.289454	-0.050651	0.024981
H143	H	0.960403	-0.585602	-0.440113
H144	H	1.460403	-0.085602	0.059887
H145	H	1.152041	-0.700396	-0.710878
H146	H	1.652041	-0.200396	-0.210878
