data_functionalizedCrystal
_audit_creation_method	'MofGen! by Chris Wilmer'
_symmetry_space_group_name_H-M	'P1'
_symmetry_Int_Tables_number	1
_symmetry_cell_setting	triclinic
loop_
_symmetry_equiv_pos_as_xyz
  x,y,z
_cell_length_a	11.792241
_cell_length_b	11.792241
_cell_length_c	10.268362
_cell_angle_alpha	90.001054
_cell_angle_beta	89.994782
_cell_angle_gamma	95.806584
loop_
_atom_site_label
_atom_site_type_symbol
_atom_site_fract_x
_atom_site_fract_y
_atom_site_fract_z
O1	O	0.155568	-1.506910	-0.108174
O2	O	0.171601	-1.176569	-0.108205
O3	O	-0.001586	-1.349756	-0.108180
O4	O	0.328755	-1.333723	-0.108199
O5	O	-0.001592	-1.349738	0.108421
O6	O	0.171595	-1.176551	0.108396
O7	O	0.155562	-1.506892	0.108426
Cu8	Cu	0.163578	-1.341720	0.128188
Cu9	Cu	0.163585	-1.341741	-0.127967
O10	O	0.328749	-1.333705	0.108401
C11	C	0.170591	-1.134269	0.000092
C12	C	0.167576	-1.008255	0.000080
C13	C	-0.043880	-1.348740	0.000120
C14	C	-0.169894	-1.345726	0.000119
C15	C	-0.400606	-1.340183	0.000096
C16	C	-0.272221	-1.343262	0.000108
C17	C	0.156572	-1.549192	0.000127
C18	C	0.159587	-1.675206	0.000130
C19	C	0.371043	-1.334721	0.000099
C20	C	0.497057	-1.337736	0.000092
N21	N	0.163572	-1.341714	0.308354
C22	C	0.162034	-0.777543	0.000118
C23	C	0.165113	-0.905928	0.000097
C24	C	0.163586	-1.341728	0.574025
C25	C	0.163581	-1.341716	0.426187
N26	N	0.163586	-1.341745	0.691867
