data_functionalizedCrystal
_audit_creation_method	'MofGen! by Chris Wilmer'
_symmetry_space_group_name_H-M	'P1'
_symmetry_Int_Tables_number	1
_symmetry_cell_setting	triclinic
loop_
_symmetry_equiv_pos_as_xyz
  x,y,z
_cell_length_a	19.188925
_cell_length_b	19.188930
_cell_length_c	17.766277
_cell_angle_alpha	89.988508
_cell_angle_beta	89.989688
_cell_angle_gamma	83.143665
loop_
_atom_site_label
_atom_site_type_symbol
_atom_site_fract_x
_atom_site_fract_y
_atom_site_fract_z
O1	O	0.926152	0.087151	-0.062619
O2	O	0.722840	0.098889	-0.062618
O3	O	0.830363	-0.008636	-0.062604
O4	O	0.818629	0.194675	-0.062633
O5	O	0.830344	-0.008642	0.062585
O6	O	0.722821	0.098883	0.062571
O7	O	0.926133	0.087145	0.062570
Cu8	Cu	0.824476	0.093014	0.074001
Cu9	Cu	0.824498	0.093020	-0.074049
O10	O	0.818610	0.194670	0.062555
C11	C	0.829974	-0.034650	-0.000007
C12	C	0.828833	-0.112154	-0.000001
C13	C	0.696820	0.098507	-0.000023
C14	C	0.619315	0.097367	-0.000022
C15	C	0.057545	0.152831	-0.000032
C16	C	0.130368	0.153908	-0.000036
C17	C	0.175302	0.090816	-0.000026
C18	C	0.147408	0.026642	-0.000030
C19	C	0.074586	0.025568	-0.000034
N20	N	0.295973	0.045138	0.042596
N21	N	0.365150	0.046163	0.042601
C22	C	0.394712	0.094050	-0.000017
N23	N	0.352481	0.140883	-0.042631
N24	N	0.283297	0.139860	-0.042632
C25	C	0.254267	0.091974	-0.000023
C26	C	0.501561	0.159386	-0.000023
C27	C	0.574385	0.160460	-0.000032
C28	C	0.591425	0.033193	-0.000018
C29	C	0.518601	0.032121	-0.000017
C30	C	0.473673	0.095220	-0.000016
C31	C	0.891924	-0.157079	0.000003
C32	C	0.890852	-0.229903	-0.000010
C33	C	0.826686	-0.257799	-0.000010
C34	C	0.763587	-0.212864	-0.000017
C35	C	0.764660	-0.140041	-0.000013
N36	N	0.777632	-0.365804	0.042594
N37	N	0.776617	-0.434983	0.042592
C38	C	0.823448	-0.477207	-0.000025
N39	N	0.871344	-0.447641	-0.042630
N40	N	0.872361	-0.378456	-0.042624
C41	C	0.825515	-0.336761	-0.000015
C42	C	0.885381	-0.601097	-0.000036
C43	C	0.884307	-0.673922	-0.000053
C44	C	0.757040	-0.656880	-0.000053
C45	C	0.758116	-0.584057	-0.000044
C46	C	0.822289	-0.556170	-0.000032
C47	C	0.952154	0.087527	-0.000027
C48	C	1.029658	0.088666	-0.000033
C49	C	0.819000	0.220684	-0.000043
C50	C	0.820140	0.298188	-0.000054
N51	N	0.824465	0.093009	0.178131
N52	N	0.824514	0.093020	-0.178179
C53	C	0.872091	0.045420	0.217524
C54	C	0.872096	0.045417	0.296326
C55	C	0.824480	0.093014	0.335732
C56	C	0.776844	0.140607	0.296329
C57	C	0.776837	0.140604	0.217529
C58	C	0.815137	0.156630	0.460561
C59	C	0.815150	0.156634	0.539359
C60	C	0.824498	0.093023	0.578778
C61	C	0.833850	0.029405	0.539388
C62	C	0.833842	0.029402	0.460588
C63	C	0.824482	0.093022	0.421177
C64	C	0.872132	0.045426	0.703617
C65	C	0.872131	0.045422	0.782420
C66	C	0.776883	0.140618	0.782422
C67	C	0.776881	0.140616	0.703620
C68	C	0.824509	0.093021	0.664222
H69	H	0.020968	0.204211	-0.000035
H70	H	0.910912	0.006666	0.814495
N71	N	0.453099	0.227439	-0.000038
H72	H	0.402734	0.217023	-0.000035
H73	H	0.462100	0.255413	0.046366
H74	H	0.937635	-0.578390	-0.000029
N75	N	0.923475	-0.005906	0.338825
H76	H	0.916253	0.001321	0.394723
H77	H	0.915572	-0.055422	0.325072
H78	H	0.597088	0.212713	-0.000037
N79	N	0.160457	0.223117	-0.000037
H80	H	0.120945	0.262925	-0.000038
H81	H	0.190291	0.226323	0.046375
H82	H	0.738074	0.179360	0.328417
H83	H	0.942230	-0.266488	-0.000010
H84	H	0.807539	0.208436	0.571425
H85	H	0.183999	-0.024728	-0.000024
N86	N	0.725521	0.191952	0.824915
H87	H	0.695347	0.222099	0.787998
H88	H	0.694745	0.165290	0.857620
N89	N	0.725510	0.191949	0.661133
H90	H	0.733397	0.241485	0.674831
H91	H	0.732752	0.184666	0.605248
N92	N	0.694378	-0.242945	-0.000022
H93	H	0.703271	-0.295895	-0.000022
H94	H	0.666770	-0.226505	0.046386
H95	H	0.495896	-0.020129	-0.000013
H96	H	0.944179	-0.134379	0.000010
N97	N	0.690069	-0.535594	-0.000032
H98	H	0.687683	-0.504989	-0.046437
H99	H	0.649294	-0.564361	-0.000004
N100	N	0.044504	-0.043641	-0.000034
H101	H	0.084017	-0.083449	-0.000030
H102	H	0.014654	-0.046863	0.046376
N103	N	0.639879	-0.034859	-0.000015
H104	H	0.690244	-0.024443	-0.000016
H105	H	0.630864	-0.062839	0.046395
H106	H	0.713282	-0.103462	-0.000015
H107	H	0.738053	0.179357	0.185454
H108	H	0.807512	0.208434	0.428472
N109	N	0.952359	-0.722381	-0.000052
H110	H	0.993171	-0.693661	-0.000041
H111	H	0.954672	-0.752978	0.046354
H112	H	0.910871	0.006664	0.185449
H113	H	0.704794	-0.679592	-0.000057
H114	H	0.841455	-0.022398	0.428520
H115	H	0.841462	-0.022394	0.571481
N116	N	0.923497	-0.005907	0.661117
H117	H	0.953666	-0.036059	0.698033
H118	H	0.896862	-0.036707	0.628435
