data_functionalizedCrystal
_audit_creation_method	'MofGen! by Chris Wilmer'
_symmetry_space_group_name_H-M	'P1'
_symmetry_Int_Tables_number	1
_symmetry_cell_setting	triclinic
loop_
_symmetry_equiv_pos_as_xyz
  x,y,z
_cell_length_a	16.956995
_cell_length_b	27.731996
_cell_length_c	15.455313
_cell_angle_alpha	92.636264
_cell_angle_beta	87.515363
_cell_angle_gamma	79.337929
loop_
_atom_site_label
_atom_site_type_symbol
_atom_site_fract_x
_atom_site_fract_y
_atom_site_fract_z
O1	O	1.061310	0.017787	-0.072194
O2	O	1.561310	0.517787	0.427806
O3	O	0.828938	0.034765	-0.072186
O4	O	1.328938	0.534765	0.427814
O5	O	0.952362	-0.044379	-0.072171
O6	O	1.452362	0.455621	0.427829
O7	O	0.937887	0.096930	-0.072208
O8	O	1.437887	0.596930	0.427792
O9	O	0.945304	-0.039870	0.072090
O10	O	1.445304	0.460130	0.572090
O11	O	0.821881	0.039273	0.072076
O12	O	1.321881	0.539273	0.572076
O13	O	1.054253	0.022295	0.072067
O14	O	1.554253	0.522295	0.572067
Cu15	Cu	0.937422	0.031196	0.085244
Cu16	Cu	1.437422	0.531196	0.585244
Cu17	Cu	0.945769	0.025864	-0.085362
Cu18	Cu	1.445769	0.525864	0.414638
O19	O	0.930829	0.101438	0.072053
O20	O	1.430829	0.601438	0.572053
C21	C	0.795691	0.037888	-0.000054
C22	C	1.295691	0.537888	0.499946
C23	C	0.707137	0.040473	-0.000050
C24	C	1.207137	0.540473	0.499950
C25	C	0.207595	0.059806	-0.000087
C26	C	0.707595	0.559806	0.499913
C27	C	0.290800	0.057374	-0.000086
C28	C	0.790800	0.557374	0.499914
C29	C	0.342464	0.011722	-0.000067
C30	C	0.842464	0.511722	0.499933
C31	C	0.310919	-0.031501	-0.000059
C32	C	0.810919	0.468499	0.499941
C33	C	0.227715	-0.029068	-0.000066
C34	C	0.727715	0.470932	0.499934
C35	C	0.592388	-0.000318	-0.000049
C36	C	1.092388	0.499682	0.499951
C37	C	0.675597	-0.002747	-0.000039
C38	C	1.175597	0.497253	0.499961
C39	C	0.655472	0.086129	-0.000067
C40	C	1.155472	0.586129	0.499933
C41	C	0.572267	0.088557	-0.000070
C42	C	1.072267	0.588557	0.499930
C43	C	0.540730	0.045334	-0.000066
C44	C	1.040730	0.545334	0.499934
N45	N	0.427514	0.009235	-0.000063
N46	N	0.927514	0.509235	0.499937
N47	N	0.455682	0.047821	-0.000076
N48	N	0.955682	0.547821	0.499924
C49	C	0.948536	-0.060121	-0.000038
C50	C	1.448536	0.439879	0.499962
C51	C	0.947640	-0.113745	-0.000029
C52	C	1.447640	0.386255	0.499971
C53	C	0.945853	-0.448721	-0.078708
C54	C	1.445853	0.051279	0.421292
C55	C	0.942452	-0.650259	-0.078723
C56	C	1.442452	-0.150259	0.421277
O57	O	0.945250	-0.678403	-0.145601
O58	O	1.445250	-0.178403	0.354399
N59	N	0.938183	-0.673004	-0.000087
N60	N	1.438183	-0.173004	0.499913
C61	C	0.934758	-0.645360	0.078559
C62	C	1.434758	-0.145360	0.578559
O63	O	0.931040	-0.669329	0.145443
O64	O	1.431040	-0.169329	0.645443
C65	C	0.938153	-0.443822	0.078573
C66	C	1.438153	0.056178	0.578573
C67	C	0.942431	-0.421081	-0.000068
C68	C	1.442431	0.078919	0.499932
C69	C	0.950130	-0.425980	-0.157343
C70	C	1.450130	0.074020	0.342657
C71	C	0.950984	-0.375599	-0.157338
C72	C	1.450984	0.124401	0.342662
C73	C	0.947562	-0.347959	-0.078699
C74	C	1.447562	0.152041	0.421301
C75	C	0.943285	-0.370700	-0.000064
C76	C	1.443285	0.129300	0.499936
C77	C	0.934722	-0.416179	0.157217
C78	C	1.434722	0.083821	0.657217
C79	C	0.935569	-0.365791	0.157214
C80	C	1.435569	0.134209	0.657214
C81	C	0.939847	-0.343050	0.078573
C82	C	1.439847	0.156950	0.578573
C83	C	0.940718	-0.292679	0.078580
C84	C	1.440718	0.207321	0.578580
N85	N	0.944987	-0.269935	-0.000056
N86	N	1.444987	0.230065	0.499944
C87	C	0.948409	-0.297574	-0.078695
C88	C	1.448409	0.202426	0.421305
C89	C	0.932977	-0.751171	0.078546
C90	C	1.432977	-0.251171	0.578546
C91	C	0.932130	-0.801555	0.078542
C92	C	1.432130	-0.301555	0.578542
C93	C	0.939823	-0.806451	-0.078740
C94	C	1.439823	-0.306451	0.421260
C95	C	0.940676	-0.756066	-0.078735
C96	C	1.440676	-0.256066	0.421265
C97	C	0.937247	-0.728426	-0.000090
C98	C	1.437247	-0.228426	0.499910
C99	C	0.950204	-0.191771	-0.078680
C100	C	1.450204	0.308229	0.421320
C101	C	0.951062	-0.141385	-0.078668
C102	C	1.451062	0.358615	0.421332
C103	C	0.943365	-0.136494	0.078613
C104	C	1.443365	0.363506	0.578613
C105	C	0.942511	-0.186875	0.078602
C106	C	1.442511	0.313125	0.578602
C107	C	0.945929	-0.214512	-0.000051
C108	C	1.445929	0.285488	0.499949
O109	O	0.937913	-0.264505	0.145423
O110	O	1.437913	0.235495	0.645423
O111	O	0.952109	-0.273594	-0.145570
O112	O	1.452109	0.226406	0.354430
C113	C	0.944999	-0.499102	-0.078712
C114	C	1.444999	0.000898	0.421288
C115	C	0.940722	-0.521843	-0.000078
C116	C	1.440722	-0.021843	0.499922
C117	C	0.937300	-0.494204	0.078562
C118	C	1.437300	0.005796	0.578562
C119	C	0.939874	-0.572228	-0.000081
C120	C	1.439874	-0.072228	0.499919
C121	C	0.943297	-0.599867	-0.078720
C122	C	1.443297	-0.099867	0.421280
C123	C	0.947566	-0.577123	-0.157356
C124	C	1.447566	-0.077123	0.342644
C125	C	0.948421	-0.526742	-0.157352
C126	C	1.448421	-0.026742	0.342648
C127	C	0.933030	-0.516948	0.157198
C128	C	1.433030	-0.016948	0.657198
C129	C	0.932177	-0.567330	0.157187
C130	C	1.432177	-0.067330	0.657187
C131	C	0.935599	-0.594969	0.078548
C132	C	1.435599	-0.094969	0.578548
C133	C	1.087501	0.019171	-0.000066
C134	C	1.587501	0.519171	0.499934
C135	C	1.176054	0.016587	-0.000076
C136	C	1.676054	0.516587	0.499924
C137	C	0.934656	0.117181	-0.000083
C138	C	1.434656	0.617181	0.499917
C139	C	0.935552	0.170805	-0.000097
C140	C	1.435552	0.670805	0.499903
N141	N	0.931558	0.034945	0.205239
N142	N	1.431558	0.534945	0.705239
N143	N	0.951640	0.022111	-0.205357
N144	N	1.451640	0.522111	0.294643
C145	C	0.984010	0.001333	0.250639
C146	C	1.484010	0.501333	0.750639
C147	C	0.979582	0.004173	0.341446
C148	C	1.479582	0.504173	0.841446
C149	C	0.922705	0.040627	0.386852
C150	C	1.422705	0.540627	0.886852
C151	C	0.870247	0.074241	0.341445
C152	C	1.370247	0.574241	0.841445
C153	C	0.874672	0.071399	0.250639
C154	C	1.374672	0.571399	0.750639
C155	C	0.903606	0.052882	0.658431
C156	C	1.403606	0.552882	1.158431
C157	C	0.899187	0.055723	0.749243
C158	C	1.399187	0.555723	1.249243
C159	C	1.008522	-0.014346	0.749238
C160	C	1.508522	0.485654	1.249238
C161	C	1.012945	-0.017183	0.658430
C162	C	1.512945	0.482817	1.158430
C163	C	0.960484	0.016429	0.613032
C164	C	1.460484	0.516429	1.113032
N165	N	0.918179	0.043532	0.479671
N166	N	1.418179	0.543532	0.979671
N167	N	0.965007	0.013522	0.520214
N168	N	1.465007	0.513522	1.020214
H169	H	0.566721	-0.035513	-0.000043
H170	H	1.066721	0.464487	0.499957
C171	C	0.762610	0.143209	0.332322
C172	C	1.262610	0.643209	0.832322
C173	C	0.807720	0.114310	0.391352
C174	C	1.307720	0.614310	0.891352
H175	H	0.724005	0.167944	0.363133
H176	H	1.224005	0.667944	0.863133
H177	H	0.797319	0.158184	0.296890
H178	H	1.297319	0.658184	0.796890
H179	H	0.735902	0.123099	0.296920
H180	H	1.235902	0.623099	0.796920
H181	H	0.834432	0.134420	0.426750
H182	H	1.334432	0.634420	0.926750
H183	H	0.773005	0.099334	0.426799
H184	H	1.273005	0.599334	0.926799
C185	C	0.533140	0.162737	-0.074264
C186	C	1.033140	0.662737	0.425736
C187	C	0.515483	0.138740	-0.000096
C188	C	1.015483	0.638740	0.499904
H189	H	0.498081	0.193718	-0.074279
H190	H	0.998081	0.693718	0.425721
H191	H	0.587202	0.167472	-0.074255
H192	H	1.087202	0.667472	0.425745
H193	H	0.526100	0.143299	-0.124560
H194	H	1.026100	0.643299	0.375440
H195	H	0.522530	0.158177	0.050200
H196	H	1.022530	0.658177	0.550200
H197	H	0.461409	0.134008	-0.000097
H198	H	0.961409	0.634008	0.499903
C199	C	1.088119	-0.065359	0.332320
C200	C	1.588119	0.434641	0.832320
C201	C	1.037253	-0.032768	0.391350
C202	C	1.537253	0.467232	0.891350
H203	H	1.123728	-0.088162	0.363130
H204	H	1.623728	0.411838	0.863130
H205	H	1.056865	-0.082555	0.296927
H206	H	1.556865	0.417445	0.796927
H207	H	1.118271	-0.047463	0.296879
H208	H	1.618271	0.452537	0.796879
H209	H	1.007096	-0.050664	0.426787
H210	H	1.507096	0.449336	0.926787
H211	H	1.068510	-0.015571	0.426758
H212	H	1.568510	0.484429	0.926758
H213	H	0.950356	-0.599636	-0.221388
H214	H	1.450356	-0.099636	0.278612
H215	H	0.681160	0.121318	-0.000072
H216	H	1.181160	0.621318	0.499928
C217	C	0.447399	-0.074692	-0.000025
C218	C	0.947399	0.425308	0.499975
C219	C	0.367707	-0.081683	-0.000036
C220	C	0.867707	0.418317	0.499964
H221	H	0.482454	-0.105673	-0.000002
H222	H	0.982454	0.394327	0.499998
H223	H	0.459368	-0.058411	-0.050334
H224	H	0.959368	0.441589	0.449666
H225	H	0.454423	-0.055257	0.050281
H226	H	0.954423	0.444743	0.550281
H227	H	0.360681	-0.101115	-0.050344
H228	H	0.860681	0.398885	0.449656
H229	H	0.355734	-0.097972	0.050279
H230	H	0.855734	0.402028	0.550279
C231	C	1.120566	-0.086163	0.667550
C232	C	1.620566	0.413837	1.167550
C233	C	1.075462	-0.057258	0.608523
C234	C	1.575462	0.442742	1.108523
H235	H	1.159159	-0.110904	0.636737
H236	H	1.659159	0.389096	1.136737
H237	H	1.147281	-0.066061	0.702947
H238	H	1.647281	0.433939	1.202947
H239	H	1.085845	-0.101134	0.702988
H240	H	1.585845	0.398866	1.202988
H241	H	1.110183	-0.042284	0.573089
H242	H	1.610183	0.457716	1.073089
H243	H	1.048746	-0.077363	0.573112
H244	H	1.548746	0.422637	1.073112
C245	C	0.795098	0.122430	0.667570
C246	C	1.295098	0.622430	1.167570
C247	C	0.845948	0.089832	0.608536
C248	C	1.345948	0.589832	1.108536
H249	H	0.759505	0.145244	0.636763
H250	H	1.259505	0.645244	1.136763
H251	H	0.764935	0.104544	0.703004
H252	H	1.264935	0.604544	1.203004
H253	H	0.826371	0.139617	0.702970
H254	H	1.326371	0.639617	1.202970
H255	H	0.814675	0.072643	0.573141
H256	H	1.314675	0.572643	1.073141
H257	H	0.876114	0.107720	0.573087
H258	H	1.376114	0.607720	1.073087
C259	C	0.856696	-0.804700	0.212596
C260	C	1.356696	-0.304700	0.712596
C261	C	0.927431	-0.826546	0.164990
C262	C	1.427431	-0.326546	0.664990
H263	H	0.853789	-0.820129	0.265965
H264	H	1.353789	-0.320129	0.765965
H265	H	0.856720	-0.770742	0.223837
H266	H	1.356720	-0.270742	0.723837
H267	H	0.811605	-0.808423	0.180274
H268	H	1.311605	-0.308423	0.680274
H269	H	0.972522	-0.822821	0.197309
H270	H	1.472522	-0.322821	0.697309
H271	H	0.927414	-0.860513	0.153751
H272	H	1.427414	-0.360513	0.653751
H273	H	0.165534	0.096981	-0.000096
H274	H	0.665534	0.596981	0.499904
H275	H	0.944158	-0.737554	-0.142772
H276	H	1.444158	-0.237554	0.357228
C277	C	1.025036	-0.095717	-0.169936
C278	C	1.525036	0.404283	0.330064
C279	C	0.955719	-0.116371	-0.165104
C280	C	1.455719	0.383629	0.334896
H281	H	1.027898	-0.080273	-0.223294
H282	H	1.527898	0.419727	0.276706
H283	H	1.023128	-0.072056	-0.123094
H284	H	1.523128	0.427944	0.376906
H285	H	1.071093	-0.120819	-0.166711
H286	H	1.571093	0.379181	0.333289
H287	H	0.909661	-0.091269	-0.168322
H288	H	1.409661	0.408731	0.331678
H289	H	0.957620	-0.140035	-0.211959
H290	H	1.457620	0.359965	0.288041
C291	C	0.149459	-0.080211	-0.074221
C292	C	0.649459	0.419789	0.425779
C293	C	0.193044	-0.076577	-0.000055
C294	C	0.693044	0.423423	0.499945
H295	H	0.128060	-0.109544	-0.074217
H296	H	0.628060	0.390456	0.425783
H297	H	0.106788	-0.052678	-0.074226
H298	H	0.606788	0.447322	0.425774
H299	H	0.183977	-0.080886	-0.124518
H300	H	0.683977	0.419114	0.375482
H301	H	0.158524	-0.075899	0.050243
H302	H	0.658524	0.424101	0.550243
H303	H	0.235720	-0.104118	-0.000041
H304	H	0.735720	0.395882	0.499959
H305	H	0.717662	-0.039924	-0.000028
H306	H	1.217662	0.460076	0.499972
H307	H	0.942610	-0.828964	-0.142771
H308	H	1.442610	-0.328964	0.357229
H309	H	0.932765	-0.343288	0.221258
H310	H	1.432765	0.156712	0.721258
C311	C	0.924643	-0.557415	0.312657
C312	C	1.424643	-0.057415	0.812657
C313	C	0.927472	-0.592322	0.243638
C314	C	1.427472	-0.092322	0.743638
H315	H	0.921728	-0.572844	0.366025
H316	H	1.421728	-0.072844	0.866025
H317	H	0.971677	-0.543419	0.309389
H318	H	1.471677	-0.043419	0.809389
H319	H	0.878597	-0.532314	0.309371
H320	H	1.378597	-0.032314	0.809371
H321	H	0.973522	-0.617422	0.246921
H322	H	1.473522	-0.117422	0.746921
H323	H	0.880433	-0.606326	0.246908
H324	H	1.380433	-0.106326	0.746908
C325	C	0.860923	-0.449273	0.248474
C326	C	1.360923	0.050727	0.748474
C327	C	0.929273	-0.486574	0.243648
C328	C	1.429273	0.013426	0.743648
H329	H	0.858606	-0.430526	0.301852
H330	H	1.358606	0.069474	0.801852
H331	H	0.863593	-0.428514	0.201657
H332	H	1.363593	0.071486	0.701657
H333	H	0.814213	-0.463485	0.245201
H334	H	1.314213	0.036515	0.745201
H335	H	0.975983	-0.472362	0.246914
H336	H	1.475983	0.027638	0.746914
H337	H	0.926609	-0.507336	0.290478
H338	H	1.426609	-0.007336	0.790478
H339	H	0.316476	0.092568	-0.000103
H340	H	0.816476	0.592568	0.499897
C341	C	0.957877	-0.191533	-0.234146
C342	C	1.457877	0.308467	0.265854
C343	C	0.953948	-0.222143	-0.165136
C344	C	1.453948	0.277857	0.334864
H345	H	0.960191	-0.210284	-0.287519
H346	H	1.460191	0.289716	0.212481
H347	H	0.911516	-0.166228	-0.230857
H348	H	1.411516	0.333772	0.269143
H349	H	1.004598	-0.177332	-0.230871
H350	H	1.504598	0.322668	0.269129
H351	H	0.907223	-0.236340	-0.168408
H352	H	1.407223	0.263660	0.331592
H353	H	1.000314	-0.247456	-0.168427
H354	H	1.500314	0.252544	0.331573
H355	H	0.951904	-0.508231	-0.221390
H356	H	1.451904	-0.008231	0.278610
H357	H	0.939035	-0.205393	0.142638
H358	H	1.439035	0.294607	0.642638
C359	C	0.958489	-0.385512	-0.312800
C360	C	1.458489	0.114488	0.187200
C361	C	0.955673	-0.350604	-0.243784
C362	C	1.455673	0.149396	0.256216
H363	H	0.961376	-0.370082	-0.366170
H364	H	1.461376	0.129918	0.133830
H365	H	1.004538	-0.410607	-0.309531
H366	H	1.504538	0.089393	0.190469
H367	H	0.911455	-0.399515	-0.309510
H368	H	1.411455	0.100485	0.190490
H369	H	1.002710	-0.336604	-0.247070
H370	H	1.502710	0.163396	0.252930
H371	H	0.909620	-0.325501	-0.247054
H372	H	1.409620	0.174499	0.252946
H373	H	0.930188	-0.728671	0.142591
H374	H	1.430188	-0.228671	0.642591
H375	H	0.931240	-0.434686	0.221256
H376	H	1.431240	0.065314	0.721256
H377	H	0.831958	0.098769	0.213675
H378	H	1.331958	0.598769	0.713675
H379	H	0.940582	-0.113981	0.142639
H380	H	1.440582	0.386019	0.642639
C381	C	0.885038	-0.477299	-0.248618
C382	C	1.385038	0.022701	0.251382
C383	C	0.953895	-0.456356	-0.243794
C384	C	1.453895	0.043644	0.256206
H385	H	0.887367	-0.496047	-0.301997
H386	H	1.387367	0.003953	0.198003
H387	H	0.882378	-0.498059	-0.201801
H388	H	1.382378	0.001941	0.298199
H389	H	0.838672	-0.451991	-0.245342
H390	H	1.338672	0.048009	0.254658
H391	H	1.000261	-0.481664	-0.247063
H392	H	1.500261	0.018336	0.252937
H393	H	0.956564	-0.435594	-0.290624
H394	H	1.456564	0.064406	0.209376
H395	H	1.030329	-0.028350	0.213676
H396	H	1.530329	0.471650	0.713676
H397	H	1.051233	-0.041712	0.786210
H398	H	1.551233	0.458288	1.286210
H399	H	0.852868	0.085410	0.786208
H400	H	1.352868	0.585410	1.286208
