data_functionalizedCrystal
_audit_creation_method	'MofGen! by Chris Wilmer'
_symmetry_space_group_name_H-M	'P1'
_symmetry_Int_Tables_number	1
_symmetry_cell_setting	triclinic
loop_
_symmetry_equiv_pos_as_xyz
  x,y,z
_cell_length_a	27.732048
_cell_length_b	15.944551
_cell_length_c	15.021413
_cell_angle_alpha	89.996935
_cell_angle_beta	89.998251
_cell_angle_gamma	96.929303
loop_
_atom_site_label
_atom_site_type_symbol
_atom_site_fract_x
_atom_site_fract_y
_atom_site_fract_z
O1	O	0.641363	-0.099933	-0.073919
O2	O	0.500635	-0.115130	-0.073947
O3	O	0.574842	0.014793	-0.073924
O4	O	0.567156	-0.229857	-0.073942
O5	O	0.574830	0.014775	0.074140
O6	O	0.500623	-0.115149	0.074118
O7	O	0.641351	-0.099952	0.074145
Zn8	Zn	0.570985	-0.107553	0.097640
Zn9	Zn	0.571001	-0.107529	-0.097441
O10	O	0.567144	-0.229875	0.074122
C11	C	0.482621	-0.114820	0.000082
C12	C	0.428962	-0.113860	0.000072
C13	C	0.574517	0.046074	0.000108
C14	C	0.573560	0.139307	0.000108
N15	N	0.570978	-0.107569	0.230777
C16	C	0.090453	-0.184589	0.000106
C17	C	-0.111222	-0.181025	0.000114
O18	O	-0.142198	-0.245701	0.000148
N19	N	-0.130679	-0.103986	0.000118
C20	C	-0.099715	-0.027832	0.000125
O21	O	-0.120892	0.037776	0.000138
C22	C	0.101959	-0.031397	0.000124
C23	C	0.121414	-0.108441	0.000111
C24	C	0.109908	-0.261627	0.000094
C25	C	0.160324	-0.262517	0.000087
C26	C	0.191285	-0.186369	0.000092
C27	C	0.171830	-0.109331	0.000104
C28	C	0.132923	0.044756	0.000138
C29	C	0.183345	0.043858	0.000139
C30	C	0.202799	-0.033186	0.000126
C31	C	0.253206	-0.034073	0.000102
N32	N	0.272664	-0.111113	0.000098
C33	C	0.241703	-0.187260	0.000093
C34	C	-0.205597	-0.025966	0.000125
C35	C	-0.256015	-0.025074	0.000123
C36	C	-0.267519	-0.178268	0.000113
C37	C	-0.217100	-0.179158	0.000108
C38	C	-0.186139	-0.103005	0.000121
C39	C	0.347580	-0.189124	0.000078
C40	C	0.398001	-0.190007	0.000067
C41	C	0.409500	-0.036815	0.000082
C42	C	0.359084	-0.035931	0.000088
C43	C	0.328125	-0.112092	0.000089
O44	O	0.284210	0.030569	0.000078
O45	O	0.262890	-0.252859	0.000100
C46	C	0.040037	-0.183699	0.000112
C47	C	0.020582	-0.106661	0.000124
C48	C	0.051543	-0.030513	0.000129
C49	C	-0.029836	-0.105769	0.000123
C50	C	-0.060797	-0.181917	0.000118
C51	C	-0.041339	-0.258956	0.000114
C52	C	0.009076	-0.259846	0.000107
C53	C	0.032086	0.046526	0.000133
C54	C	-0.018331	0.047410	0.000139
C55	C	-0.049291	-0.028738	0.000134
C56	C	0.659365	-0.100262	0.000114
C57	C	0.713024	-0.101222	0.000118
C58	C	0.567469	-0.261156	0.000088
C59	C	0.568426	-0.354389	0.000082
C60	C	0.525277	0.353533	0.000087
C61	C	0.547692	0.414834	0.073096
C62	C	0.571830	0.310011	0.000101
C63	C	0.547715	0.414836	-0.072884
C64	C	0.570155	0.474902	0.000090
C65	C	0.594258	0.370084	0.073170
C66	C	0.594274	0.370079	-0.072875
C67	C	0.616723	0.431364	0.000152
C68	C	0.572793	0.215021	0.000108
C69	C	0.569195	0.569890	0.000090
N70	N	0.571012	-0.107506	-0.230579
C71	C	0.536660	-0.167618	0.470450
C72	C	0.580337	-0.183354	0.529792
C73	C	0.570990	-0.107548	0.412384
C74	C	0.527325	-0.091831	0.529784
C75	C	0.570998	-0.107530	0.587808
C76	C	0.614690	-0.123321	0.470419
C77	C	0.561649	-0.031766	0.470407
C78	C	0.605358	-0.047469	0.529721
C79	C	0.570985	-0.107561	0.311327
C80	C	0.571009	-0.107516	0.688863
H81	H	0.413838	-0.252749	0.000056
H82	H	0.486636	0.319720	0.000152
C83	C	-0.104722	-0.346808	-0.075998
C84	C	-0.075379	-0.342659	0.000110
H85	H	-0.125740	-0.398477	-0.075993
H86	H	-0.084815	-0.343978	-0.127624
H87	H	-0.123518	-0.300787	-0.075985
H88	H	-0.056581	-0.388676	0.000093
H89	H	-0.095289	-0.345497	0.051749
C90	C	0.622717	0.079374	0.615948
C91	C	0.644594	0.021126	0.564639
H92	H	0.646941	0.121721	0.637500
H93	H	0.606189	0.051089	0.664804
H94	H	0.600190	0.104825	0.580329
H95	H	0.667119	-0.004330	0.600260
H96	H	0.661131	0.049415	0.515776
H97	H	0.507656	-0.218457	0.444426
H98	H	0.553727	0.032292	0.444301
H99	H	0.655398	0.465028	0.000201
H100	H	0.490394	-0.078546	0.555863
H101	H	0.588245	-0.247433	0.555876
H102	H	-0.292736	-0.240270	0.000110
H103	H	-0.201264	-0.241894	0.000103
C104	C	-0.068349	0.137281	0.076270
C105	C	-0.039713	0.132104	0.000151
H106	H	-0.081551	0.189564	0.076277
H107	H	-0.048918	0.133741	0.127889
H108	H	-0.094006	0.092057	0.076257
H109	H	-0.014055	0.177325	0.000166
H110	H	-0.059146	0.135653	-0.051481
C111	C	0.552887	0.497562	-0.206873
C112	C	0.521134	0.441619	-0.156207
H113	H	0.536473	0.514097	-0.258307
H114	H	0.580049	0.470457	-0.224416
H115	H	0.563668	0.546079	-0.172260
H116	H	0.510356	0.393099	-0.190818
H117	H	0.493963	0.468723	-0.138666
C118	C	0.341287	-0.340639	0.000050
C119	C	0.313555	-0.272841	0.000068
H120	H	0.320280	-0.392321	0.000033
H121	H	0.361188	-0.337808	0.051680
H122	H	0.361195	-0.337775	-0.051587
H123	H	0.293649	-0.275702	0.051708
H124	H	0.293645	-0.275674	-0.051568
H125	H	0.176158	-0.325254	0.000076
H126	H	-0.271850	0.037663	0.000120
C127	C	0.664074	-0.141347	0.342161
C128	C	0.664543	-0.141434	0.435373
H129	H	0.694846	-0.152556	0.320526
H130	H	0.657411	-0.087691	0.321322
H131	H	0.639651	-0.183747	0.321421
H132	H	0.688964	-0.099029	0.456113
H133	H	0.671212	-0.195097	0.456221
C134	C	0.309054	0.053958	-0.076012
C135	C	0.337696	0.048755	0.000094
H136	H	0.295855	0.106242	-0.076003
H137	H	0.283401	0.008740	-0.076003
H138	H	0.328486	0.050433	-0.127646
H139	H	0.318263	0.052273	0.051727
H140	H	0.363352	0.093985	0.000093
C141	C	0.149380	0.196085	0.000181
C142	C	0.111548	0.129447	0.000165
H143	H	0.136184	0.248372	0.000206
H144	H	0.168802	0.192561	-0.051454
H145	H	0.168806	0.192520	0.051813
H146	H	0.092124	0.133008	-0.051471
H147	H	0.092118	0.132972	0.051805
C148	C	0.589331	0.286110	-0.205968
C149	C	0.620839	0.343250	-0.156190
H150	H	0.605729	0.269542	-0.257404
H151	H	0.561827	0.312292	-0.223496
H152	H	0.579073	0.237740	-0.170764
H153	H	0.631093	0.391624	-0.191391
H154	H	0.648351	0.317069	-0.138663
C155	C	0.520884	0.529401	0.155915
C156	C	0.521108	0.441631	0.156408
H157	H	0.504472	0.545941	0.207349
H158	H	0.504663	0.545471	0.104076
H159	H	0.553368	0.556317	0.155999
H160	H	0.488624	0.414716	0.156317
H161	H	0.537327	0.425553	0.208260
H162	H	0.613926	0.350343	0.134961
H163	H	-0.180392	0.036051	0.000135
C164	C	0.103615	-0.413134	0.000068
C165	C	0.075881	-0.345339	0.000080
H166	H	0.082609	-0.464817	0.000048
H167	H	0.123514	-0.410301	0.051701
H168	H	0.123525	-0.410269	-0.051566
H169	H	0.055973	-0.348201	0.051717
H170	H	0.055973	-0.348173	-0.051559
H171	H	0.434718	0.025183	0.000082
H172	H	0.208551	0.105873	0.000150
H173	H	0.024911	-0.322584	0.000098
H174	H	0.057290	0.108537	0.000140
