data_functionalizedCrystal
_audit_creation_method	'MofGen! by Chris Wilmer'
_symmetry_space_group_name_H-M	'P1'
_symmetry_Int_Tables_number	1
_symmetry_cell_setting	triclinic
loop_
_symmetry_equiv_pos_as_xyz
  x,y,z
_cell_length_a	12.827893
_cell_length_b	29.839131
_cell_length_c	12.827885
_cell_angle_alpha	89.955525
_cell_angle_beta	89.980538
_cell_angle_gamma	90.035199
loop_
_atom_site_label
_atom_site_type_symbol
_atom_site_fract_x
_atom_site_fract_y
_atom_site_fract_z
Zn1	Zn	1.597528	-0.178832	-0.590742
Zn2	Zn	1.597361	-0.253969	-0.415957
Zn3	Zn	1.422768	-0.178854	-0.416016
Zn4	Zn	1.422694	-0.253936	-0.590657
O5	O	1.510087	-0.216398	-0.503343
O6	O	1.743741	-0.188804	-0.567567
O7	O	1.574162	-0.244028	-0.269729
O8	O	1.446052	-0.115984	-0.439253
O9	O	1.743619	-0.244007	-0.439154
O10	O	1.574446	-0.115968	-0.567624
O11	O	1.445890	-0.188841	-0.269772
O12	O	1.276522	-0.188809	-0.439171
O13	O	1.445924	-0.243950	-0.736905
O14	O	1.276468	-0.243971	-0.567480
O15	O	1.574374	-0.188771	-0.736967
O16	O	1.574089	-0.316832	-0.439072
O17	O	1.445762	-0.316807	-0.567423
C18	C	1.238578	-0.216389	-0.503323
C19	C	1.122424	-0.216396	-0.503339
C20	C	0.950595	-0.189072	-0.439979
C21	C	1.070645	-0.189064	-0.439961
C22	C	1.509928	-0.333120	-0.503255
C23	C	1.509956	-0.383055	-0.503252
C24	C	1.576928	-0.692655	-0.570281
C25	C	1.577042	-0.880328	-0.570344
O26	O	1.633828	-0.904556	-0.627269
N27	N	1.510265	-0.903840	-0.503459
C28	C	1.443450	-0.880430	-0.436559
O29	O	1.386648	-0.904735	-0.379678
C30	C	1.443333	-0.692758	-0.436502
C31	C	1.510121	-0.669249	-0.503384
C32	C	1.643710	-0.669145	-0.637158
C33	C	1.643685	-0.622230	-0.637138
C34	C	1.576878	-0.598824	-0.570240
C35	C	1.510096	-0.622333	-0.503363
C36	C	1.376513	-0.669350	-0.369608
C37	C	1.376488	-0.622429	-0.369601
C38	C	1.443276	-0.598919	-0.436483
C39	C	1.443264	-0.552012	-0.436445
N40	N	1.510040	-0.528500	-0.503330
C41	C	1.576848	-0.551906	-0.570228
C42	C	1.443519	-0.978961	-0.436592
C43	C	1.443549	-1.025879	-0.436604
C44	C	1.577139	-1.025773	-0.570391
C45	C	1.577113	-0.978854	-0.570372
C46	C	1.510295	-0.955449	-0.503476
C47	C	1.576791	-0.453380	-0.570179
C48	C	1.576763	-0.406461	-0.570150
C49	C	1.443169	-0.406571	-0.436367
C50	C	1.443201	-0.453486	-0.436392
C51	C	1.510015	-0.476890	-0.503307
O52	O	1.386499	-0.527755	-0.379559
O53	O	1.633625	-0.527593	-0.627116
C54	C	1.576953	-0.739570	-0.570301
C55	C	1.510171	-0.763080	-0.503424
C56	C	1.443364	-0.739674	-0.436527
C57	C	1.510202	-0.809997	-0.503437
C58	C	1.577009	-0.833403	-0.570334
C59	C	1.643785	-0.809892	-0.637219
C60	C	1.643760	-0.762976	-0.637199
C61	C	1.376587	-0.763186	-0.369642
C62	C	1.376619	-0.810101	-0.369667
C63	C	1.443426	-0.833507	-0.436565
C64	C	1.782658	-0.216407	-0.503364
C65	C	1.898811	-0.216410	-0.503372
C66	C	1.510160	-0.216354	-0.775913
C67	C	1.510190	-0.216336	-0.892067
C68	C	1.510276	-0.099219	-0.503454
C69	C	1.510356	-0.049285	-0.503502
C70	C	1.446737	-0.189023	-0.943873
C71	C	1.446768	-0.189003	-1.063923
C72	C	1.510076	-0.216408	-0.231833
C73	C	1.510248	-0.216300	-0.115681
H74	H	0.943353	-0.239808	-0.557637
H75	H	1.564536	-0.239706	-0.936591
H76	H	1.564579	-0.239684	-1.071136
C77	C	1.708810	-0.411076	-0.702403
C78	C	1.650175	-0.380620	-0.643678
H79	H	1.754124	-0.395123	-0.747800
H80	H	1.748817	-0.429378	-0.656916
H81	H	1.663252	-0.429377	-0.742336
H82	H	1.695733	-0.362321	-0.603739
H83	H	1.610165	-0.362310	-0.689171
C84	C	1.591277	-0.506072	-0.710802
C85	C	1.650233	-0.479102	-0.643728
H86	H	1.636621	-0.521950	-0.756207
H87	H	1.551522	-0.526790	-0.670978
H88	H	1.545716	-0.487765	-0.750722
H89	H	1.695789	-0.497410	-0.603803
H90	H	1.690006	-0.458382	-0.683556
C91	C	1.775725	-0.626852	-0.769383
C92	C	1.717093	-0.596392	-0.710666
H93	H	1.821040	-0.610903	-0.814784
H94	H	1.815730	-0.645153	-0.723891
H95	H	1.730165	-0.645155	-0.809311
H96	H	1.762653	-0.578092	-0.670732
H97	H	1.677085	-0.578084	-0.756164
H98	H	1.077898	-0.239804	-0.557613
H99	H	0.906053	-0.165670	-0.385723
H100	H	1.631497	-0.959716	-0.624834
C101	C	1.193457	-0.182792	-0.299519
C102	C	1.130758	-0.157466	-0.366690
H103	H	1.230573	-0.163283	-0.254288
H104	H	1.150833	-0.202326	-0.259427
H105	H	1.241498	-0.199938	-0.339291
H106	H	1.082711	-0.140323	-0.326918
H107	H	1.173385	-0.137924	-0.406786
H108	H	1.698113	-0.688197	-0.691640
H109	H	1.631537	-1.044838	-0.624860
C110	C	1.387542	-0.163597	-0.776483
C111	C	1.373369	-0.157471	-0.883778
H112	H	1.342250	-0.144115	-0.739387
H113	H	1.372207	-0.193788	-0.758625
H114	H	1.457782	-0.157035	-0.758670
H115	H	1.303131	-0.164037	-0.901592
H116	H	1.388697	-0.127274	-0.901643
H117	H	1.322127	-0.688483	-0.315145
H118	H	1.389175	-1.045016	-0.382132
C119	C	1.302899	-0.926267	-0.421907
C120	C	1.370069	-0.953239	-0.363046
H121	H	1.257553	-0.910392	-0.376498
H122	H	1.342656	-0.905547	-0.461722
H123	H	1.262920	-0.944572	-0.467407
H124	H	1.410054	-0.934933	-0.317550
H125	H	1.330308	-0.973962	-0.323213
C126	C	1.244430	-0.627250	-0.237370
C127	C	1.303038	-0.596703	-0.296064
H128	H	1.199092	-0.611367	-0.191968
H129	H	1.204451	-0.645545	-0.282877
H130	H	1.290003	-0.645549	-0.197445
H131	H	1.257465	-0.578405	-0.335995
H132	H	1.343021	-0.578400	-0.250551
C133	C	1.311147	-0.448876	-0.304151
C134	C	1.369789	-0.479330	-0.362874
H135	H	1.265816	-0.464829	-0.258775
H136	H	1.356692	-0.430580	-0.264208
H137	H	1.271149	-0.430568	-0.349650
H138	H	1.409793	-0.497636	-0.317375
H139	H	1.324239	-0.497633	-0.402821
H140	H	1.392448	-0.165617	-1.108475
H141	H	1.698145	-0.743838	-0.691660
C142	C	1.383815	-0.334691	-0.376963
C143	C	1.369732	-0.380836	-0.362841
H144	H	1.338468	-0.318805	-0.331578
H145	H	1.454024	-0.326986	-0.361719
H146	H	1.368487	-0.326988	-0.447168
H147	H	1.385068	-0.388540	-0.292637
H148	H	1.299508	-0.388545	-0.378077
C149	C	1.703123	-0.881770	-0.696643
C150	C	1.717217	-0.835626	-0.710759
H151	H	1.748447	-0.897658	-0.742050
H152	H	1.718465	-0.889478	-0.626454
H153	H	1.632898	-0.889471	-0.711872
H154	H	1.787441	-0.827925	-0.695523
H155	H	1.701882	-0.827915	-0.780964
H156	H	1.322233	-0.829238	-0.315194
C157	C	1.244560	-0.768012	-0.237395
C158	C	1.303156	-0.737462	-0.296093
H159	H	1.199233	-0.752132	-0.191978
H160	H	1.204570	-0.786305	-0.282899
H161	H	1.290142	-0.786314	-0.197486
H162	H	1.257574	-0.719162	-0.336008
H163	H	1.343149	-0.719162	-0.250583
