data_functionalizedCrystal
_audit_creation_method	'MofGen! by Chris Wilmer'
_symmetry_space_group_name_H-M	'P1'
_symmetry_Int_Tables_number	1
_symmetry_cell_setting	triclinic
loop_
_symmetry_equiv_pos_as_xyz
  x,y,z
_cell_length_a	14.971486
_cell_length_b	14.519709
_cell_length_c	14.048226
_cell_angle_alpha	89.992623
_cell_angle_beta	89.998499
_cell_angle_gamma	83.647137
loop_
_atom_site_label
_atom_site_type_symbol
_atom_site_fract_x
_atom_site_fract_y
_atom_site_fract_z
O1	O	1.187015	0.120184	-0.079053
O2	O	0.926623	0.134576	-0.079079
O3	O	1.063722	-0.006863	-0.079057
O4	O	1.049915	0.261622	-0.079076
O5	O	1.063706	-0.006871	0.079264
O6	O	0.926606	0.134568	0.079242
O7	O	1.186998	0.120175	0.079268
Zn8	Zn	1.056799	0.127370	0.104392
Zn9	Zn	1.056821	0.127381	-0.104203
O10	O	1.049898	0.261614	0.079246
C11	C	0.893289	0.133928	0.000078
C12	C	0.793991	0.131999	0.000068
C13	C	0.736812	0.215091	0.000064
C14	C	0.643512	0.213273	0.000078
C15	C	0.607392	0.128363	0.000090
C16	C	0.664578	0.045265	0.000097
C17	C	0.757876	0.047084	0.000090
C18	C	0.470113	0.041480	0.000111
C19	C	0.376808	0.039661	0.000116
C20	C	0.355749	0.207669	0.000099
C21	C	0.449047	0.209488	0.000092
C22	C	0.506227	0.126390	0.000097
C23	C	1.063071	-0.041226	0.000104
C24	C	1.061142	-0.143606	0.000104
C25	C	1.054043	-0.518498	0.000079
C26	C	1.056015	-0.414191	0.000086
C27	C	1.057593	-0.331055	0.000092
C28	C	1.059564	-0.226742	0.000098
C29	C	1.220331	0.120823	0.000109
C30	C	1.319630	0.122752	0.000112
C31	C	1.050550	0.295978	0.000083
C32	C	1.052478	0.398358	0.000076
N33	N	1.056791	0.127362	0.246753
N34	N	1.056837	0.127382	-0.246564
C35	C	1.117518	0.064759	0.296581
C36	C	1.117524	0.064758	0.396238
C37	C	1.056807	0.127366	0.446066
C38	C	0.996073	0.189972	0.396231
C39	C	0.996064	0.189968	0.296575
C40	C	0.996099	0.189979	0.603945
C41	C	0.996110	0.189985	0.703608
C42	C	1.117560	0.064770	0.703608
C43	C	1.117550	0.064765	0.603952
C44	C	1.056817	0.127373	0.554124
H45	H	0.309188	0.275331	0.000099
H46	H	0.596960	0.280934	0.000074
O47	O	0.484249	0.291907	0.000191
C48	C	0.537582	0.297997	0.082187
H49	H	0.560692	0.225336	0.109542
H50	H	0.598739	0.334810	0.063721
H51	H	0.496443	0.338767	0.139598
H52	H	0.946666	0.240966	0.744173
O53	O	1.176314	0.003724	0.555553
C54	C	1.128148	-0.053248	0.498101
H55	H	1.058306	-0.016465	0.483075
H56	H	1.165438	-0.068074	0.428060
H57	H	1.121753	-0.121274	0.536710
H58	H	0.766213	0.284234	0.000054
O59	O	1.176411	0.003795	0.248246
C60	C	1.161723	-0.087508	0.272668
H61	H	1.090107	-0.088053	0.300058
H62	H	1.171938	-0.133804	0.207157
H63	H	1.211243	-0.114496	0.330533
O64	O	0.341821	-0.042874	0.000007
C65	C	0.371002	-0.093532	-0.081993
H66	H	0.435753	-0.068338	-0.109336
H67	H	0.383817	-0.170317	-0.063537
H68	H	0.317032	-0.082905	-0.139410
O69	O	0.937109	0.250694	0.248022
C70	C	0.950134	0.237280	0.149379
H71	H	0.983449	0.164015	0.135778
H72	H	0.882412	0.247421	0.111513
H73	H	0.995070	0.289556	0.121081
H74	H	1.166972	0.013782	0.436808
O75	O	1.176466	0.003982	0.752153
C76	C	1.163469	0.017419	0.850797
H77	H	1.092413	0.051763	0.864412
H78	H	1.173319	-0.052406	0.888679
H79	H	1.214165	0.063764	0.879065
H80	H	0.946641	0.240958	0.563379
O81	O	0.937055	0.250662	0.444738
C82	C	0.881794	0.201178	0.502385
H83	H	0.917308	0.129074	0.517321
H84	H	0.867713	0.239650	0.572459
H85	H	0.815675	0.194797	0.463993
O86	O	0.629642	-0.037298	0.000148
C87	C	0.700120	-0.110247	0.000126
H88	H	0.763539	-0.084327	0.030098
H89	H	0.680530	-0.169528	0.046093
H90	H	0.713281	-0.135875	-0.075828
H91	H	0.516667	-0.026188	0.000117
O92	O	0.813514	-0.033570	-0.000037
C93	C	0.868095	-0.037552	-0.082047
H94	H	0.872924	0.035656	-0.109392
H95	H	0.938161	-0.071824	-0.063606
H96	H	0.837335	-0.079706	-0.139458
