data_functionalizedCrystal
_audit_creation_method	'MofGen! by Chris Wilmer'
_symmetry_space_group_name_H-M	'P1'
_symmetry_Int_Tables_number	1
_symmetry_cell_setting	triclinic
loop_
_symmetry_equiv_pos_as_xyz
  x,y,z
_cell_length_a	14.519709
_cell_length_b	19.188930
_cell_length_c	13.596369
_cell_angle_alpha	89.988893
_cell_angle_beta	90.000291
_cell_angle_gamma	83.412464
loop_
_atom_site_label
_atom_site_type_symbol
_atom_site_fract_x
_atom_site_fract_y
_atom_site_fract_z
O1	O	1.223300	0.091524	-0.081675
O2	O	1.723300	0.591524	0.418325
O3	O	0.954756	0.102302	-0.081706
O4	O	1.454756	0.602302	0.418294
O5	O	1.096778	-0.004715	-0.081670
O6	O	1.596778	0.495285	0.418330
O7	O	1.081278	0.198542	-0.081711
O8	O	1.581278	0.698542	0.418289
O9	O	1.096763	-0.004720	0.081912
O10	O	1.596763	0.495280	0.581912
O11	O	0.954742	0.102297	0.081877
O12	O	1.454742	0.602297	0.581877
O13	O	1.223286	0.091519	0.081908
O14	O	1.723286	0.591519	0.581908
Zn15	Zn	1.089012	0.096907	0.107865
Zn16	Zn	1.589012	0.596907	0.607865
Zn17	Zn	1.089030	0.096914	-0.107663
Zn18	Zn	1.589030	0.596914	0.392337
O19	O	1.081264	0.198536	0.081872
O20	O	1.581264	0.698536	0.581872
C21	C	0.920392	0.101797	0.000081
C22	C	1.420392	0.601797	0.500081
C23	C	0.818020	0.100292	0.000070
C24	C	1.318020	0.600292	0.500070
C25	C	0.443159	0.094751	0.000116
C26	C	0.943159	0.594751	0.500116
C27	C	0.547457	0.096290	0.000103
C28	C	1.047457	0.596290	0.500103
C29	C	0.630586	0.097521	0.000092
C30	C	1.130586	0.597521	0.500092
C31	C	0.734891	0.099060	0.000081
C32	C	1.234891	0.599060	0.500081
C33	C	1.096269	-0.030730	0.000124
C34	C	1.596269	0.469270	0.500124
C35	C	1.094762	-0.108240	0.000132
C36	C	1.594762	0.391760	0.500132
C37	C	1.178095	-0.152867	0.000146
C38	C	1.678095	0.347133	0.500146
C39	C	1.176680	-0.225696	0.000131
C40	C	1.676680	0.274304	0.500131
C41	C	1.091926	-0.253895	0.000120
C42	C	1.591926	0.246105	0.500120
C43	C	1.008582	-0.209257	0.000100
C44	C	1.508582	0.290743	0.500100
C45	C	1.009999	-0.136430	0.000106
C46	C	1.509999	0.363570	0.500106
N47	N	1.027137	-0.362132	0.055783
N48	N	1.527137	0.137868	0.555783
N49	N	1.025796	-0.431316	0.055779
N50	N	1.525796	0.068684	0.555779
C51	C	1.087649	-0.473318	0.000100
C52	C	1.587649	0.026682	0.500100
N53	N	1.150908	-0.443526	-0.055564
N54	N	1.650908	0.056474	0.444436
N55	N	1.152252	-0.374336	-0.055556
N56	N	1.652252	0.125664	0.444444
C57	C	1.090379	-0.332863	0.000113
C58	C	1.590379	0.167137	0.500113
C59	C	1.169454	-0.596916	0.000095
C60	C	1.669454	-0.096916	0.500095
C61	C	1.168035	-0.669745	0.000073
C62	C	1.668035	-0.169745	0.500073
C63	C	0.999934	-0.653305	0.000053
C64	C	1.499934	-0.153305	0.500053
C65	C	1.001355	-0.580477	0.000065
C66	C	1.501355	-0.080477	0.500065
C67	C	1.086118	-0.552287	0.000091
C68	C	1.586118	-0.052287	0.500091
C69	C	1.257649	0.092024	0.000118
C70	C	1.757649	0.592024	0.500118
C71	C	1.360021	0.093529	0.000123
C72	C	1.860021	0.593529	0.500123
C73	C	1.081773	0.224551	0.000076
C74	C	1.581773	0.724551	0.500076
C75	C	1.083280	0.302061	0.000061
C76	C	1.583280	0.802061	0.500061
N77	N	1.089006	0.096901	0.254956
N78	N	1.589006	0.596901	0.754956
N79	N	1.089043	0.096914	-0.254755
N80	N	1.589043	0.596914	0.245245
C81	C	1.089029	0.096915	0.656247
C82	C	1.589029	0.596915	1.156247
C83	C	1.089020	0.096914	0.544596
C84	C	1.589020	0.596914	1.044596
C85	C	1.089018	0.096909	0.455605
C86	C	1.589018	0.596909	0.955605
C87	C	1.089008	0.096906	0.343947
C88	C	1.589008	0.596906	0.843947
H89	H	1.247116	-0.129920	0.000164
H90	H	1.747116	0.370080	0.500164
H91	H	0.930926	-0.676263	0.000039
H92	H	1.430926	-0.176263	0.500039
O93	O	0.928960	-0.093175	0.000141
O94	O	1.428960	0.406825	0.500141
C95	C	0.853847	-0.133676	0.000097
C96	C	1.353847	0.366324	0.500097
H97	H	0.877470	-0.188006	0.031062
H98	H	1.377470	0.311994	0.531062
H99	H	0.827862	-0.138877	-0.078387
H100	H	1.327862	0.361123	0.421613
C101	C	0.745974	-0.030771	0.026210
C102	C	1.245974	0.469229	0.526210
C103	C	0.774986	-0.097498	0.064249
C104	C	1.274986	0.402502	0.564249
H105	H	0.697326	-0.008454	0.065778
H106	H	1.197326	0.491546	0.565778
H107	H	0.796578	-0.003484	0.026236
H108	H	1.296578	0.496516	0.526236
H109	H	0.724326	-0.035114	-0.039193
H110	H	1.224326	0.464886	0.460807
H111	H	0.796644	-0.093153	0.129646
H112	H	1.296644	0.406847	0.629646
H113	H	0.724383	-0.124784	0.064236
H114	H	1.224383	0.375216	0.564236
H115	H	1.238472	-0.573962	0.000112
H116	H	1.738472	-0.073962	0.500112
O117	O	1.257574	-0.269127	0.000282
O118	O	1.757574	0.230873	0.500282
C119	C	1.261773	-0.311743	0.085016
C120	C	1.761773	0.188257	0.585016
H121	H	1.188581	-0.315519	0.113241
H122	H	1.688581	0.184481	0.613241
H123	H	1.303784	-0.287741	0.144353
H124	H	1.803784	0.212259	0.644353
C125	C	1.398375	-0.380982	0.024628
C126	C	1.898375	0.119018	0.524628
C127	C	1.308479	-0.385624	0.059289
C128	C	1.808479	0.114376	0.559289
H129	H	1.427190	-0.426554	0.008760
H130	H	1.927190	0.073446	0.508760
H131	H	1.395549	-0.352269	-0.032458
H132	H	1.895549	0.147731	0.467542
H133	H	1.433373	-0.360977	0.074081
H134	H	1.933373	0.139023	0.574081
H135	H	1.273480	-0.405620	0.009832
H136	H	1.773480	0.094380	0.509832
H137	H	1.311300	-0.414342	0.116366
H138	H	1.811300	0.085658	0.616366
O139	O	1.249075	-0.712999	0.000130
O140	O	1.749075	-0.212999	0.500130
C141	C	1.324186	-0.672497	0.000131
C142	C	1.824186	-0.172497	0.500131
H143	H	1.300552	-0.618180	0.031103
H144	H	1.800552	-0.118180	0.531103
H145	H	1.350194	-0.667263	-0.078340
H146	H	1.850194	-0.167263	0.421660
C147	C	1.432055	-0.775411	0.026257
C148	C	1.932055	-0.275411	0.526257
C149	C	1.403029	-0.708699	0.064305
C150	C	1.903029	-0.208699	0.564305
H151	H	1.480691	-0.797743	0.065838
H152	H	1.980691	-0.297743	0.565838
H153	H	1.381452	-0.802699	0.026252
H154	H	1.881452	-0.302699	0.526252
H155	H	1.453723	-0.771040	-0.039136
H156	H	1.953723	-0.271040	0.460864
H157	H	1.381351	-0.713071	0.129691
H158	H	1.881351	-0.213071	0.629691
H159	H	1.453630	-0.681412	0.064322
H160	H	1.953630	-0.181412	0.564322
H161	H	0.933496	-0.544140	0.000058
H162	H	1.433496	-0.044140	0.500058
H163	H	0.939574	-0.232221	0.000089
H164	H	1.439574	0.267779	0.500089
