data_functionalizedCrystal
_audit_creation_method	'MofGen! by Chris Wilmer'
_symmetry_space_group_name_H-M	'P1'
_symmetry_Int_Tables_number	1
_symmetry_cell_setting	triclinic
loop_
_symmetry_equiv_pos_as_xyz
  x,y,z
_cell_length_a	16.992694
_cell_length_b	16.992695
_cell_length_c	16.053802
_cell_angle_alpha	92.741074
_cell_angle_beta	87.249047
_cell_angle_gamma	90.668223
loop_
_atom_site_label
_atom_site_type_symbol
_atom_site_fract_x
_atom_site_fract_y
_atom_site_fract_z
O1	O	1.053959	0.163815	-0.069325
O2	O	1.553959	0.663815	0.430675
O3	O	0.825560	0.161983	-0.069350
O4	O	1.325560	0.661983	0.430650
O5	O	0.938844	0.048699	-0.069331
O6	O	1.438844	0.548699	0.430669
O7	O	0.940676	0.277099	-0.069344
O8	O	1.440676	0.777099	0.430656
O9	O	0.932607	0.054907	0.069527
O10	O	1.432607	0.554907	0.569527
O11	O	0.819323	0.168191	0.069508
O12	O	1.319323	0.668191	0.569508
O13	O	1.047722	0.170023	0.069533
O14	O	1.547722	0.670023	0.569533
Zn15	Zn	0.932532	0.170093	0.091567
Zn16	Zn	1.432532	0.670093	0.591567
Zn17	Zn	0.940750	0.161913	-0.091384
Zn18	Zn	1.440750	0.661913	0.408616
O19	O	0.934438	0.283307	0.069514
O20	O	1.434438	0.783307	0.569514
C21	C	0.793082	0.162731	0.000076
C22	C	1.293082	0.662731	0.500076
C23	C	0.705597	0.155702	0.000067
C24	C	1.205597	0.655702	0.500067
C25	C	0.659607	0.223520	0.000064
C26	C	1.159607	0.723520	0.500064
C27	C	0.577405	0.216911	0.000076
C28	C	1.077405	0.716911	0.500076
C29	C	0.541197	0.142484	0.000085
C30	C	1.041197	0.642484	0.500085
C31	C	0.587193	0.074661	0.000091
C32	C	1.087193	0.574661	0.500091
C33	C	0.669393	0.081270	0.000085
C34	C	1.169393	0.581270	0.500085
C35	C	0.295881	0.115090	0.000109
C36	C	0.795881	0.615090	0.500109
C37	C	0.213676	0.108486	0.000112
C38	C	0.713676	0.608486	0.500112
C39	C	0.203893	0.250737	0.000099
C40	C	0.703893	0.750737	0.500099
C41	C	0.286095	0.257339	0.000088
C42	C	0.786095	0.757339	0.500088
C43	C	0.332084	0.189517	0.000098
C44	C	0.832084	0.689517	0.500098
N45	N	0.457174	0.135727	0.000094
N46	N	0.957174	0.635727	0.500094
N47	N	0.416105	0.196275	0.000094
N48	N	0.916105	0.696275	0.500094
C49	C	0.933370	0.022443	0.000098
C50	C	1.433370	0.522443	0.500098
C51	C	0.926341	-0.065042	0.000097
C52	C	1.426341	0.434958	0.500097
C53	C	0.994158	-0.111032	0.000105
C54	C	1.494158	0.388968	0.500105
C55	C	0.987550	-0.193233	0.000096
C56	C	1.487550	0.306767	0.500096
C57	C	0.913123	-0.229442	0.000086
C58	C	1.413123	0.270558	0.500086
C59	C	0.845300	-0.183446	0.000075
C60	C	1.345300	0.316554	0.500075
C61	C	0.851910	-0.101246	0.000078
C62	C	1.351910	0.398754	0.500078
C63	C	0.885729	-0.474757	0.000071
C64	C	1.385729	0.025243	0.500071
C65	C	0.879124	-0.556962	0.000071
C66	C	1.379124	-0.056962	0.500071
C67	C	1.021375	-0.566745	0.000091
C68	C	1.521375	-0.066745	0.500091
C69	C	1.027978	-0.484543	0.000099
C70	C	1.527978	0.015457	0.500099
C71	C	0.960155	-0.438554	0.000083
C72	C	1.460155	0.061446	0.500083
N73	N	0.906366	-0.313465	0.000079
N74	N	1.406366	0.186535	0.500079
N75	N	0.966913	-0.354533	0.000084
N76	N	1.466913	0.145467	0.500084
C77	C	1.080201	0.169275	0.000105
C78	C	1.580201	0.669275	0.500105
C79	C	1.167685	0.176304	0.000109
C80	C	1.667685	0.676304	0.500109
C81	C	0.939913	0.309563	0.000084
C82	C	1.439913	0.809563	0.500084
C83	C	0.946942	0.397047	0.000079
C84	C	1.446942	0.897047	0.500079
N85	N	0.926930	0.175675	0.216427
N86	N	1.426930	0.675675	0.716427
N87	N	0.946358	0.156325	-0.216243
N88	N	1.446358	0.656325	0.283757
C89	C	0.975152	0.127492	0.260129
C90	C	1.475152	0.627492	0.760129
C91	C	0.971241	0.131404	0.347535
C92	C	1.471241	0.631404	0.847535
C93	C	0.919110	0.183504	0.391237
C94	C	1.419110	0.683504	0.891237
C95	C	0.870883	0.231689	0.347529
C96	C	1.370883	0.731689	0.847529
C97	C	0.874791	0.227772	0.260125
C98	C	1.374791	0.727772	0.760125
C99	C	0.902039	0.200593	0.652644
C100	C	1.402039	0.700593	1.152644
C101	C	0.898136	0.204508	0.740055
C102	C	1.398136	0.704508	1.240055
C103	C	0.998493	0.104222	0.740054
C104	C	1.498493	0.604222	1.240054
C105	C	1.002400	0.100313	0.652648
C106	C	1.502400	0.600313	1.152648
C107	C	0.954169	0.148494	0.608948
C108	C	1.454169	0.648494	1.108948
N109	N	0.915113	0.187507	0.480580
N110	N	1.415113	0.687507	0.980580
N111	N	0.958163	0.144487	0.519606
N112	N	1.458163	0.644487	1.019606
H113	H	0.689081	0.284126	0.000056
H114	H	1.189081	0.784126	0.500056
O115	O	0.820171	0.282315	0.389850
O116	O	1.320171	0.782315	0.889850
C117	C	0.778459	0.324014	0.332531
C118	C	1.278459	0.824014	0.832531
H119	H	0.778338	0.288892	0.270232
H120	H	1.278338	0.788892	0.770232
H121	H	0.715216	0.333175	0.357791
H122	H	1.215216	0.833175	0.857791
H123	H	0.808091	0.383695	0.323222
H124	H	1.308091	0.883695	0.823222
H125	H	0.333316	0.059864	0.000118
H126	H	0.833316	0.559864	0.500118
H127	H	0.539963	0.272136	0.000072
H128	H	1.039963	0.772136	0.500072
H129	H	0.557705	0.014061	0.000110
H130	H	1.057705	0.514061	0.500110
H131	H	0.796685	-0.063801	0.000071
H132	H	1.296685	0.436199	0.500071
O133	O	0.714097	0.015421	0.000232
O134	O	1.214097	0.515421	0.500232
C135	C	0.758732	0.018214	0.072135
C136	C	1.258732	0.518214	0.572135
H137	H	0.728933	0.058831	0.122398
H138	H	1.228933	0.558831	0.622398
H139	H	0.762912	-0.043537	0.096279
H140	H	1.262912	0.456463	0.596279
H141	H	0.820443	0.041603	0.055871
H142	H	1.320443	0.541603	0.555871
O143	O	1.045219	0.057333	0.782545
O144	O	1.545219	0.557333	1.282545
C145	C	0.997757	0.008384	0.833132
C146	C	1.497757	0.508384	1.333132
H147	H	0.936772	0.001952	0.806799
H148	H	1.436772	0.501952	1.306799
H149	H	1.025907	-0.052111	0.834132
H150	H	1.525907	0.447889	1.334132
H151	H	0.992212	0.035728	0.899370
H152	H	1.492212	0.535728	1.399370
H153	H	0.830503	-0.437322	0.000059
H154	H	1.330503	0.062678	0.500059
H155	H	1.054765	-0.081557	0.000119
H156	H	1.554765	0.418443	0.500119
O157	O	0.847560	0.255100	0.782638
O158	O	1.347560	0.755100	1.282638
C159	C	0.854446	0.248212	0.869154
C160	C	1.354446	0.748212	1.369154
H161	H	0.914657	0.223287	0.881081
H162	H	1.414657	0.723287	1.381081
H163	H	0.847935	0.308761	0.902364
H164	H	1.347935	0.808761	1.402364
H165	H	0.806314	0.207021	0.893976
H166	H	1.306314	0.707021	1.393976
O167	O	0.806831	-0.592164	0.000204
O168	O	1.306831	-0.092164	0.500204
C169	C	0.795524	-0.636220	0.072110
C170	C	1.295524	-0.136220	0.572110
H171	H	0.835615	-0.611978	0.122382
H172	H	1.335615	-0.111978	0.622382
H173	H	0.731458	-0.631747	0.096237
H174	H	1.231458	-0.131747	0.596237
H175	H	0.810356	-0.700558	0.055856
H176	H	1.310356	-0.200558	0.555856
O177	O	0.773060	-0.218741	0.000101
O178	O	1.273060	0.281259	0.500101
C179	C	0.781767	-0.301155	0.000082
C180	C	1.281767	0.198845	0.500082
H181	H	0.840808	-0.315414	0.026378
H182	H	1.340808	0.184586	0.526378
H183	H	0.732021	-0.327469	0.040392
H184	H	1.232021	0.172531	0.540392
H185	H	0.779512	-0.327226	-0.066535
H186	H	1.279512	0.172774	0.433465
O187	O	1.018058	0.084491	0.389890
O188	O	1.518058	0.584491	0.889890
C189	C	1.001338	0.004797	0.368561
C190	C	1.501338	0.504797	0.868561
H191	H	0.973832	0.000128	0.305107
H192	H	1.473832	0.500128	0.805107
H193	H	1.058222	-0.030351	0.365561
H194	H	1.558222	0.469649	0.865561
H195	H	0.958441	-0.019831	0.417766
H196	H	1.458441	0.480169	0.917766
O197	O	1.053506	-0.237789	0.000147
O198	O	1.553506	0.262211	0.500147
C199	C	1.120614	-0.188205	0.000144
C200	C	1.620614	0.311795	0.500144
H201	H	1.103290	-0.127003	0.026431
H202	H	1.603290	0.372997	0.526431
H203	H	1.166633	-0.213577	0.040468
H204	H	1.666633	0.286423	0.540468
H205	H	1.146186	-0.183940	-0.066468
H206	H	1.646186	0.316060	0.433532
O207	O	0.321137	0.329701	0.000121
O208	O	0.821137	0.829701	0.500121
C209	C	0.262918	0.388143	0.000100
C210	C	0.762918	0.888143	0.500100
H211	H	0.204580	0.363758	0.026394
H212	H	0.704580	0.863758	0.526394
H213	H	0.281442	0.441598	0.040409
H214	H	0.781442	0.941598	0.540409
H215	H	0.255654	0.406330	-0.066518
H216	H	0.755654	0.906330	0.433482
O217	O	1.100215	-0.449245	0.000137
O218	O	1.600215	0.050755	0.500137
C219	C	1.091507	-0.366832	0.000115
C220	C	1.591507	0.133168	0.500115
H221	H	1.030105	-0.350227	0.026401
H222	H	1.530105	0.149773	0.526401
H223	H	1.137633	-0.336916	0.040431
H224	H	1.637633	0.163084	0.540431
H225	H	1.099741	-0.346713	-0.066502
H226	H	1.599741	0.153287	0.433498
O227	O	0.855163	0.247479	0.610330
O228	O	1.355163	0.747479	1.110330
C229	C	0.808305	0.294290	0.667649
C230	C	1.308305	0.794290	1.167649
H231	H	0.837854	0.300011	0.729947
H232	H	1.337854	0.800011	1.229947
H233	H	0.801359	0.355266	0.642388
H234	H	1.301359	0.855266	1.142388
H235	H	0.747812	0.265448	0.676962
H236	H	1.247812	0.765448	1.176962
O237	O	1.053056	0.049631	0.610327
O238	O	1.553056	0.549631	1.110327
C239	C	1.094795	0.007955	0.667644
C240	C	1.594795	0.507955	1.167644
H241	H	1.059681	0.007815	0.729954
H242	H	1.559681	0.507815	1.229954
H243	H	1.103997	-0.055283	0.642398
H244	H	1.603997	0.444717	1.142398
H245	H	1.154456	0.037631	0.676926
H246	H	1.654456	0.537631	1.176926
O247	O	0.828064	0.274614	0.217578
O248	O	1.328064	0.774614	0.717578
C249	C	0.875521	0.323593	0.167019
C250	C	1.375521	0.823593	0.667019
H251	H	0.935741	0.295551	0.153922
H252	H	1.435741	0.795551	0.653922
H253	H	0.846191	0.331211	0.105558
H254	H	1.346191	0.831211	0.605558
H255	H	0.883004	0.383621	0.200691
H256	H	1.383004	0.883621	0.700691
O257	O	1.087175	-0.611537	0.000061
O258	O	1.587175	-0.111537	0.500061
C259	C	1.065386	-0.691852	0.000077
C260	C	1.565386	-0.191852	0.500077
H261	H	1.004538	-0.700049	-0.026217
H262	H	1.504538	-0.200049	0.473783
H263	H	1.110108	-0.728015	-0.040235
H264	H	1.610108	-0.228015	0.459765
H265	H	1.063892	-0.712438	0.066694
H266	H	1.563892	-0.212438	0.566694
H267	H	0.166440	0.305954	0.000092
H268	H	0.666440	0.805954	0.500092
H269	H	1.017605	0.085070	0.224552
H270	H	1.517605	0.585070	0.724552
O271	O	0.178626	0.036124	0.000157
O272	O	0.678626	0.536124	0.500157
C273	C	0.236844	-0.022323	0.000143
C274	C	0.736844	0.477677	0.500143
H275	H	0.292827	0.004410	0.026432
H276	H	0.792827	0.504410	0.526432
H277	H	0.214704	-0.072172	0.040460
H278	H	0.714704	0.427828	0.540460
H279	H	0.250077	-0.046468	-0.066473
H280	H	0.750077	0.453532	0.433527
