data_functionalizedCrystal
_audit_creation_method	'MofGen! by Chris Wilmer'
_symmetry_space_group_name_H-M	'P1'
_symmetry_Int_Tables_number	1
_symmetry_cell_setting	triclinic
loop_
_symmetry_equiv_pos_as_xyz
  x,y,z
_cell_length_a	17.038272
_cell_length_b	11.026607
_cell_length_c	10.065875
_cell_angle_alpha	79.268236
_cell_angle_beta	80.614233
_cell_angle_gamma	80.151214
loop_
_atom_site_label
_atom_site_type_symbol
_atom_site_fract_x
_atom_site_fract_y
_atom_site_fract_z
O1	O	1.084103	-0.250511	-0.113431
O2	O	0.855875	-0.246263	-0.113445
O3	O	0.951073	-0.069782	-0.113434
O4	O	0.988905	-0.426992	-0.113442
O5	O	0.932940	-0.103579	0.113552
O6	O	0.837742	-0.280060	0.113541
O7	O	1.065970	-0.284309	0.113556
Zn8	Zn	0.948977	-0.287550	0.149588
Zn9	Zn	0.972868	-0.243021	-0.149477
O10	O	0.970772	-0.460790	0.113545
C11	C	0.817136	-0.259300	0.000046
C12	C	0.728720	-0.247777	0.000040
C13	C	1.104709	-0.271272	0.000061
C14	C	1.193126	-0.282793	0.000058
C15	C	0.935028	-0.040749	0.000057
C16	C	0.914223	0.096114	0.000051
C17	C	1.228334	-0.177009	0.000056
C18	C	1.311411	-0.187843	0.000061
C19	C	1.359278	-0.304461	0.000058
C20	C	1.324065	-0.410253	0.000064
C21	C	1.240989	-0.399420	0.000069
C22	C	1.610430	-0.342736	0.000052
C23	C	1.693512	-0.353561	0.000042
C24	C	1.680852	-0.131150	0.000041
C25	C	1.597776	-0.120325	0.000038
C26	C	1.562569	-0.226119	0.000052
C27	C	1.444197	-0.315537	0.000058
C28	C	1.477651	-0.215043	0.000061
C29	C	0.986817	-0.489822	0.000051
C30	C	1.007623	-0.626684	0.000048
N31	N	0.932678	-0.317940	0.353691
C32	C	0.971669	0.163989	0.000052
C33	C	0.950168	0.305444	0.000046
N34	N	0.989172	-0.212622	-0.353581
C35	C	0.967191	-0.253586	0.421474
C36	C	0.954654	-0.276985	0.578640
H37	H	1.340072	-0.101702	0.000064
H38	H	1.438675	-0.120091	0.000048
C39	C	0.880981	-0.414679	0.431268
C40	C	0.913822	-0.531818	0.396580
C41	C	0.866213	-0.620961	0.467998
H42	H	0.879401	-0.417741	0.526588
H43	H	0.827986	-0.392633	0.407900
H44	H	0.966803	-0.553858	0.419958
H45	H	0.915401	-0.528796	0.301272
H46	H	0.813219	-0.598915	0.444630
H47	H	0.864636	-0.624012	0.563315
H48	H	0.888485	-0.700447	0.444464
H49	H	1.558807	-0.025362	0.000040
C50	C	1.019103	-0.157126	0.343932
C51	C	1.097130	-0.190025	0.378634
C52	C	1.144979	-0.101188	0.307263
H53	H	1.020764	-0.154133	0.248605
H54	H	0.996974	-0.077537	0.367328
H55	H	1.119254	-0.269593	0.355229
H56	H	1.095494	-0.193010	0.473949
H57	H	1.122850	-0.021599	0.330659
H58	H	1.146634	-0.098201	0.211939
H59	H	1.197923	-0.123491	0.330808
H60	H	0.849125	0.142728	0.000038
H61	H	1.189366	-0.082045	0.000050
C62	C	1.041000	-0.116114	0.568684
C63	C	1.119087	-0.148807	0.603147
C64	C	1.166817	-0.059912	0.531504
H65	H	1.042568	-0.113232	0.473396
H66	H	1.018844	-0.036512	0.592019
H67	H	1.141238	-0.228388	0.579803
H68	H	1.117545	-0.151681	0.698423
H69	H	1.144661	0.019690	0.554840
H70	H	1.168378	-0.057036	0.436220
H71	H	1.219802	-0.082075	0.554887
C72	C	1.719057	-0.016212	-0.000244
C73	C	1.704372	0.070889	-0.117037
C74	C	1.739562	0.176781	-0.117351
H75	H	1.696555	0.019624	0.078821
H76	H	1.775400	-0.039301	-0.000320
H77	H	1.648041	0.093978	-0.116948
H78	H	1.726876	0.035092	-0.196121
H79	H	1.795905	0.153692	-0.117428
H80	H	1.717058	0.212606	-0.038281
H81	H	1.729610	0.235887	-0.196600
H82	H	1.732483	-0.448533	0.000060
H83	H	0.885065	0.352053	0.000033
C84	C	1.202826	-0.514272	-0.000216
C85	C	1.236158	-0.566591	-0.117015
C86	C	1.201015	-0.672388	-0.117327
H87	H	1.212702	-0.573653	0.078845
H88	H	1.146495	-0.491158	-0.000283
H89	H	1.292476	-0.589709	-0.116935
H90	H	1.226283	-0.507244	-0.196095
H91	H	1.144684	-0.649274	-0.117395
H92	H	1.210894	-0.731760	-0.038262
H93	H	1.223621	-0.707893	-0.196580
H94	H	1.483180	-0.410487	0.000052
C95	C	1.572369	-0.457730	-0.000013
C96	C	1.632077	-0.562167	-0.000057
C97	C	1.597044	-0.668123	-0.000135
H98	H	1.533915	-0.470089	0.079125
H99	H	1.546566	-0.446409	-0.079196
H100	H	1.657867	-0.573487	0.079118
H101	H	1.670535	-0.549850	-0.079189
H102	H	1.571241	-0.656802	-0.079318
H103	H	1.558590	-0.680469	0.079004
H104	H	1.637551	-0.738994	-0.000178
H105	H	1.363045	-0.505208	0.000071
H106	H	0.915819	-0.349404	0.636956
C107	C	1.058493	0.101985	0.000266
C108	C	1.086815	0.120178	0.117027
C109	C	1.166799	0.063098	0.117258
H110	H	1.061517	0.015153	0.000336
H111	H	1.090519	0.137780	-0.078849
H112	H	1.054799	0.084379	0.196122
H113	H	1.083812	0.206998	0.116982
H114	H	1.198825	0.098893	0.038143
H115	H	1.169815	-0.023731	0.117324
H116	H	1.186028	0.075444	0.196472
H117	H	1.072735	0.326726	-0.000051
