data_functionalizedCrystal
_audit_creation_method	'MofGen! by Chris Wilmer'
_symmetry_space_group_name_H-M	'P1'
_symmetry_Int_Tables_number	1
_symmetry_cell_setting	triclinic
loop_
_symmetry_equiv_pos_as_xyz
  x,y,z
_cell_length_a	16.959455
_cell_length_b	16.959453
_cell_length_c	21.395355
_cell_angle_alpha	90.017325
_cell_angle_beta	90.029472
_cell_angle_gamma	90.017008
loop_
_atom_site_label
_atom_site_type_symbol
_atom_site_fract_x
_atom_site_fract_y
_atom_site_fract_z
Zn1	Zn	1.208455	-0.314836	0.354349
Zn2	Zn	1.708455	0.185164	0.854349
Zn3	Zn	1.208357	-0.446997	0.249574
Zn4	Zn	1.708357	0.053003	0.749574
Zn5	Zn	1.076263	-0.314829	0.249577
Zn6	Zn	1.576263	0.185171	0.749577
Zn7	Zn	1.076249	-0.446969	0.354305
Zn8	Zn	1.576249	0.053031	0.854305
O9	O	1.142331	-0.380908	0.301951
O10	O	1.642331	0.119092	0.801951
O11	O	1.319053	-0.332382	0.340467
O12	O	1.819053	0.167618	0.840467
O13	O	1.190799	-0.429473	0.161896
O14	O	1.690799	0.070527	0.661896
O15	O	1.093845	-0.204219	0.263495
O16	O	1.593845	0.295781	0.763495
O17	O	1.318981	-0.429479	0.263489
O18	O	1.818981	0.070521	0.763489
O19	O	1.190967	-0.204224	0.340470
O20	O	1.690967	0.295776	0.840470
O21	O	1.093750	-0.332370	0.161898
O22	O	1.593750	0.167630	0.661898
O23	O	0.965650	-0.332344	0.263452
O24	O	1.465650	0.167656	0.763452
O25	O	1.093821	-0.429433	0.441989
O26	O	1.593821	0.070567	0.941989
O27	O	0.965640	-0.429427	0.340395
O28	O	1.465640	0.070573	0.840395
O29	O	1.190953	-0.332355	0.442021
O30	O	1.690953	0.167645	0.942021
O31	O	1.190785	-0.557604	0.263447
O32	O	1.690785	-0.057604	0.763447
O33	O	1.093726	-0.557584	0.340392
O34	O	1.593726	-0.057584	0.840392
C35	C	0.936965	-0.380882	0.301919
C36	C	1.436965	0.119118	0.801919
C37	C	0.849108	-0.380890	0.301921
C38	C	1.349108	0.119110	0.801921
C39	C	0.477584	-0.431417	0.261848
C40	C	0.977584	0.068583	0.761848
C41	C	0.477681	-0.330465	0.342130
C42	C	0.977681	0.169535	0.842130
C43	C	0.560227	-0.330452	0.342115
C44	C	1.060227	0.169548	0.842115
C45	C	0.601455	-0.380923	0.301966
C46	C	1.101455	0.119077	0.801966
C47	C	0.560138	-0.431407	0.261833
C48	C	1.060138	0.068593	0.761833
C49	C	0.601550	-0.279974	0.382252
C50	C	1.101550	0.220026	0.882252
C51	C	0.684101	-0.279960	0.382239
C52	C	1.184101	0.220040	0.882239
C53	C	0.725331	-0.330427	0.342087
C54	C	1.225331	0.169573	0.842087
C55	C	0.684009	-0.380913	0.301951
C56	C	1.184009	0.119087	0.801951
C57	C	0.725237	-0.431384	0.261803
C58	C	1.225237	0.068616	0.761803
C59	C	0.683916	-0.481866	0.221663
C60	C	1.183916	0.018134	0.721663
C61	C	0.601368	-0.481875	0.221681
C62	C	1.101368	0.018125	0.721681
C63	C	0.807880	-0.330419	0.342069
C64	C	1.307880	0.169581	0.842069
C65	C	0.807791	-0.431374	0.261787
C66	C	1.307791	0.068626	0.761787
C67	C	1.142265	-0.586274	0.301928
C68	C	1.642265	-0.086274	0.801928
C69	C	1.142309	-0.674131	0.301939
C70	C	1.642309	-0.174131	0.801939
C71	C	1.192967	-1.045550	0.342108
C72	C	1.692967	-0.545550	0.842108
C73	C	1.091916	-1.045662	0.261887
C74	C	1.591916	-0.545662	0.761887
C75	C	1.091887	-0.963116	0.261873
C76	C	1.591887	-0.463116	0.761873
C77	C	1.142397	-0.921784	0.301977
C78	C	1.642397	-0.421784	0.801977
C79	C	1.192937	-0.962997	0.342096
C80	C	1.692937	-0.462997	0.842096
C81	C	1.041342	-0.921897	0.221759
C82	C	1.541342	-0.421897	0.721759
C83	C	1.041310	-0.839346	0.221744
C84	C	1.541310	-0.339346	0.721744
C85	C	1.091825	-0.798012	0.261845
C86	C	1.591825	-0.298012	0.761845
C87	C	1.142368	-0.839230	0.301965
C88	C	1.642368	-0.339230	0.801965
C89	C	1.192879	-0.797897	0.342070
C90	C	1.692879	-0.297897	0.842070
C91	C	1.243426	-0.839114	0.382187
C92	C	1.743426	-0.339114	0.882187
C93	C	1.243453	-0.921663	0.382198
C94	C	1.743453	-0.421663	0.882198
C95	C	1.091798	-0.715463	0.261835
C96	C	1.591798	-0.215463	0.761835
C97	C	1.192849	-0.715344	0.342058
C98	C	1.692849	-0.215344	0.842058
C99	C	1.348499	-0.380934	0.301983
C100	C	1.848499	0.119066	0.801983
C101	C	1.436356	-0.380946	0.301997
C102	C	1.936356	0.119054	0.801997
C103	C	1.142396	-0.380892	0.465374
C104	C	1.642396	0.119108	0.965374
C105	C	1.142424	-0.380885	0.535016
C106	C	1.642424	0.119115	1.035016
C107	C	1.142419	-0.174740	0.301988
C108	C	1.642419	0.325260	0.801988
C109	C	1.142456	-0.086883	0.302003
C110	C	1.642456	0.413117	0.802003
C111	C	1.142311	-0.380867	0.139163
C112	C	1.642311	0.119133	0.639163
C113	C	1.142436	-0.380651	0.069522
C114	C	1.642436	0.119349	0.569522
C115	C	1.192999	-0.330334	0.567747
C116	C	1.692999	0.169666	1.067747
C117	C	1.192998	-0.330300	0.633182
C118	C	1.692998	0.169700	1.133182
C119	C	1.142431	-0.380831	0.665884
C120	C	1.642431	0.119169	1.165884
C121	C	1.091846	-0.431385	0.633145
C122	C	1.591846	0.068615	1.133145
C123	C	1.091843	-0.431412	0.567711
C124	C	1.591843	0.068588	1.067711
C125	C	1.136166	-0.452002	0.769550
C126	C	1.636166	0.047998	1.269550
C127	C	1.136175	-0.451976	0.834983
C128	C	1.636175	0.048024	1.334983
C129	C	1.142435	-0.380748	0.867705
C130	C	1.642435	0.119252	1.367705
C131	C	1.148704	-0.309542	0.834985
C132	C	1.648704	0.190458	1.334985
C133	C	1.148701	-0.309569	0.769551
C134	C	1.648701	0.190431	1.269551
C135	C	1.142428	-0.380807	0.736836
C136	C	1.642428	0.119193	1.236836
C137	C	1.193011	-0.330156	0.971388
C138	C	1.693011	0.169844	1.471388
C139	C	1.193005	-0.330121	1.036825
C140	C	1.693005	0.169879	1.536825
C141	C	1.091858	-0.431213	1.036787
C142	C	1.591858	0.068787	1.536787
C143	C	1.091860	-0.431241	0.971351
C144	C	1.591860	0.068759	1.471351
C145	C	1.142441	-0.380714	0.938656
C146	C	1.642441	0.119286	1.438656
H147	H	0.841353	-0.472472	0.229091
H148	H	1.341353	0.027528	0.729091
H149	H	1.234180	-0.289132	0.659837
H150	H	1.734180	0.210868	1.159837
H151	H	1.050789	-1.079320	0.229238
H152	H	1.550789	-0.579320	0.729238
H153	H	1.233984	-0.681696	0.374714
H154	H	1.733984	-0.181696	0.874714
Cl155	Cl	1.306988	-0.973482	0.432629
Cl156	Cl	1.806988	-0.473482	0.932629
Cl157	Cl	0.549717	-0.216540	0.432729
Cl158	Cl	1.049717	0.283460	0.932729
H159	H	1.000217	-0.955556	0.189110
H160	H	1.500217	-0.455556	0.689110
H161	H	0.717738	-0.238854	0.414922
H162	H	1.217738	0.261146	0.914922
H163	H	0.717495	-0.522964	0.188978
H164	H	1.217495	-0.022964	0.688978
H165	H	0.841519	-0.289319	0.374751
H166	H	1.341519	0.210681	0.874751
Cl167	Cl	1.256582	-0.266810	0.526647
Cl168	Cl	1.756582	0.233190	1.026647
H169	H	1.050656	-0.472576	0.541062
H170	H	1.550656	0.027424	1.041062
Cl171	Cl	1.128319	-0.541558	0.728421
Cl172	Cl	1.628319	-0.041558	1.228421
Cl173	Cl	1.156578	-0.219991	0.876113
Cl174	Cl	1.656578	0.280009	1.376113
H175	H	0.567717	-0.522974	0.189001
H176	H	1.067717	-0.022974	0.689001
H177	H	1.284548	-0.805452	0.414843
H178	H	1.784548	-0.305452	0.914843
H179	H	1.234123	-1.079113	0.374769
H180	H	1.734123	-0.579113	0.874769
H181	H	0.443937	-0.472516	0.229166
H182	H	0.943937	0.027484	0.729166
Cl183	Cl	0.977765	-0.787538	0.171313
Cl184	Cl	1.477765	-0.287538	0.671313
Cl185	Cl	0.425850	-0.267027	0.392606
Cl186	Cl	0.925850	0.232973	0.892606
Cl187	Cl	1.256602	-0.266577	1.077973
Cl188	Cl	1.756602	0.233423	1.577973
H189	H	1.050640	-0.681908	0.229175
H190	H	1.550640	-0.181908	0.729175
H191	H	1.050672	-0.472525	0.659775
H192	H	1.550672	0.027475	1.159775
H193	H	1.050677	-0.472348	1.063412
H194	H	1.550677	0.027652	1.563412
H195	H	1.153803	-0.251591	0.742914
H196	H	1.653803	0.248409	1.242914
H197	H	1.234193	-0.289009	0.944766
H198	H	1.734193	0.210991	1.444766
Cl199	Cl	1.028280	-0.494797	0.930202
Cl200	Cl	1.528280	0.005203	1.430202
H201	H	1.131076	-0.509956	0.861618
H202	H	1.631076	-0.009956	1.361618
