data_functionalizedCrystal
_audit_creation_method	'MofGen! by Chris Wilmer'
_symmetry_space_group_name_H-M	'P1'
_symmetry_Int_Tables_number	1
_symmetry_cell_setting	triclinic
loop_
_symmetry_equiv_pos_as_xyz
  x,y,z
_cell_length_a	11.169417
_cell_length_b	19.077068
_cell_length_c	11.169409
_cell_angle_alpha	87.740848
_cell_angle_beta	90.020564
_cell_angle_gamma	92.327792
loop_
_atom_site_label
_atom_site_type_symbol
_atom_site_fract_x
_atom_site_fract_y
_atom_site_fract_z
Zn1	Zn	1.815639	-0.280127	0.697665
Zn2	Zn	2.148972	0.053207	1.030998
Zn3	Zn	2.482305	0.386540	1.364332
Zn4	Zn	1.807401	-0.397847	0.505018
Zn5	Zn	2.140734	-0.064513	0.838351
Zn6	Zn	2.474068	0.268820	1.171685
Zn7	Zn	1.614919	-0.280170	0.497002
Zn8	Zn	1.948252	0.053164	0.830336
Zn9	Zn	2.281586	0.386497	1.163669
Zn10	Zn	1.606812	-0.397789	0.705659
Zn11	Zn	1.940145	-0.064456	1.038992
Zn12	Zn	2.273478	0.268877	1.372326
O13	O	1.711193	-0.338983	0.601336
O14	O	2.044526	-0.005650	0.934669
O15	O	2.377859	0.327684	1.268003
O16	O	1.982495	-0.295749	0.672119
O17	O	2.315828	0.037585	1.005453
O18	O	2.649162	0.370918	1.338786
O19	O	1.781813	-0.382278	0.336008
O20	O	2.115147	-0.048945	0.669341
O21	O	2.448480	0.284388	1.002674
O22	O	1.648385	-0.181673	0.516921
O23	O	1.981718	0.151660	0.850254
O24	O	2.315052	0.484993	1.183587
O25	O	1.976443	-0.382237	0.530582
O26	O	2.309776	-0.048904	0.863915
O27	O	2.643110	0.284430	1.197249
O28	O	1.795853	-0.181642	0.664347
O29	O	2.129186	0.151691	0.997680
O30	O	2.462520	0.485025	1.331013
O31	O	1.640398	-0.295821	0.330119
O32	O	1.973731	0.037512	0.663452
O33	O	2.307064	0.370845	0.996785
O34	O	1.445894	-0.295766	0.524672
O35	O	1.779228	0.037567	0.858005
O36	O	2.112561	0.370901	1.191339
O37	O	1.634567	-0.382139	0.872546
O38	O	1.967901	-0.048806	1.205879
O39	O	2.301234	0.284527	1.539212
O40	O	1.439938	-0.382181	0.677971
O41	O	1.773271	-0.048848	1.011304
O42	O	2.106604	0.284486	1.344638
O43	O	1.787992	-0.295693	0.866673
O44	O	2.121325	0.037640	1.200006
O45	O	2.454658	0.370974	1.533339
O46	O	1.773952	-0.496330	0.538333
O47	O	2.107285	-0.162996	0.871667
O48	O	2.440619	0.170337	1.205000
O49	O	1.626580	-0.496288	0.685743
O50	O	1.959913	-0.162954	1.019077
O51	O	2.293247	0.170379	1.352410
C52	C	1.399369	-0.338972	0.601320
C53	C	1.732702	-0.005639	0.934653
C54	C	2.066035	0.327694	1.267987
C55	C	1.265968	-0.338985	0.601343
C56	C	1.599301	-0.005651	0.934676
C57	C	1.932634	0.327682	1.268009
C58	C	1.698525	-0.521846	0.613802
C59	C	2.031858	-0.188513	0.947135
C60	C	2.365192	0.144821	1.280469
C61	C	1.693216	-0.600076	0.619175
C62	C	2.026549	-0.266742	0.952508
C63	C	2.359882	0.066591	1.285842
C64	C	1.767510	-0.636827	0.545014
C65	C	2.100843	-0.303493	0.878348
C66	C	2.434176	0.029840	1.211681
C67	C	1.762523	-0.710332	0.550075
C68	C	2.095856	-0.376998	0.883408
C69	C	2.429190	-0.043665	1.216742
C70	C	1.683235	-0.747084	0.629291
C71	C	2.016569	-0.413751	0.962624
C72	C	2.349902	-0.080418	1.295958
C73	C	1.608938	-0.710328	0.703460
C74	C	1.942272	-0.376995	1.036793
C75	C	2.275605	-0.043662	1.370126
C76	C	1.613932	-0.636825	0.698404
C77	C	1.947265	-0.303491	1.031738
C78	C	2.280598	0.029842	1.365071
C79	C	1.660072	-0.966917	0.652640
C80	C	1.993405	-0.633583	0.985973
C81	C	2.326739	-0.300250	1.319306
C82	C	1.655081	-1.040426	0.657687
C83	C	1.988415	-0.707092	0.991020
C84	C	2.321748	-0.373759	1.324354
C85	C	1.808668	-1.040424	0.504303
C86	C	2.142002	-0.707090	0.837636
C87	C	2.475335	-0.373757	1.170970
C88	C	1.813650	-0.966919	0.499250
C89	C	2.146983	-0.633585	0.832583
C90	C	2.480316	-0.300252	1.165916
C91	C	1.739357	-0.930169	0.573423
C92	C	2.072691	-0.596836	0.906756
C93	C	2.406024	-0.263502	1.240089
N94	N	1.678134	-0.822218	0.634463
N95	N	2.011467	-0.488885	0.967796
N96	N	2.344800	-0.155551	1.301130
N97	N	1.744466	-0.855037	0.568256
N98	N	2.077799	-0.521703	0.901589
N99	N	2.411133	-0.188370	1.234922
C100	C	2.024234	-0.338994	0.601353
C101	C	2.357567	-0.005661	0.934686
C102	C	2.690901	0.327672	1.268020
C103	C	2.157634	-0.338999	0.601360
C104	C	2.490967	-0.005666	0.934694
C105	C	2.824300	0.327668	1.268027
C106	C	1.711294	-0.338905	0.914373
C107	C	2.044627	-0.005572	1.247707
C108	C	2.377961	0.327762	1.581040
C109	C	1.711337	-0.338872	1.047771
C110	C	2.044671	-0.005539	1.381105
C111	C	2.378004	0.327795	1.714438
C112	C	1.723942	-0.155406	0.588848
C113	C	2.057276	0.177927	0.922181
C114	C	2.390609	0.511261	1.255515
C115	C	1.729375	-0.077176	0.583526
C116	C	2.062709	0.256157	0.916860
C117	C	2.396042	0.589490	1.250193
C118	C	1.711164	-0.339010	0.289513
C119	C	2.044497	-0.005677	0.622847
C120	C	2.377831	0.327657	0.956180
C121	C	1.711367	-0.338845	0.156103
C122	C	2.044700	-0.005512	0.489436
C123	C	2.378033	0.327822	0.822769
H124	H	1.832069	-0.606907	0.480503
H125	H	2.165402	-0.273574	0.813836
H126	H	2.498735	0.059759	1.147170
Cl127	Cl	1.913347	-0.920721	0.399676
Cl128	Cl	2.246680	-0.587387	0.733010
Cl129	Cl	2.580013	-0.254054	1.066343
Cl130	Cl	1.520533	-0.590623	0.791643
Cl131	Cl	1.853867	-0.257290	1.124976
Cl132	Cl	2.187200	0.076044	1.458310
H133	H	1.823020	-0.740251	0.489685
H134	H	2.156353	-0.406918	0.823018
H135	H	2.489687	-0.073584	1.156351
Cl136	Cl	1.566672	-0.920727	0.745884
Cl137	Cl	1.900006	-0.587393	1.079218
Cl138	Cl	2.233339	-0.254060	1.412551
H139	H	1.869155	-1.070353	0.443917
H140	H	2.202488	-0.737020	0.777251
H141	H	2.535821	-0.403687	1.110584
Cl142	Cl	1.555383	-1.086628	0.757265
Cl143	Cl	1.888716	-0.753295	1.090598
Cl144	Cl	2.222049	-0.419962	1.423931
H145	H	1.544386	-0.740258	0.767964
H146	H	1.877719	-0.406925	1.101298
H147	H	2.211052	-0.073591	1.434631
