data_functionalizedCrystal
_audit_creation_method	'MofGen! by Chris Wilmer'
_symmetry_space_group_name_H-M	'P1'
_symmetry_Int_Tables_number	1
_symmetry_cell_setting	triclinic
loop_
_symmetry_equiv_pos_as_xyz
  x,y,z
_cell_length_a	19.288864
_cell_length_b	15.944551
_cell_length_c	18.366186
_cell_angle_alpha	89.992809
_cell_angle_beta	89.977106
_cell_angle_gamma	83.317492
loop_
_atom_site_label
_atom_site_type_symbol
_atom_site_fract_x
_atom_site_fract_y
_atom_site_fract_z
O1	O	0.921629	0.104784	-0.060785
O2	O	0.719405	0.118919	-0.060735
O3	O	0.826039	-0.010445	-0.060755
O4	O	0.814995	0.234147	-0.060765
O5	O	0.826021	-0.010451	0.060345
O6	O	0.719387	0.118912	0.060364
O7	O	0.921611	0.104777	0.060315
Zn8	Zn	0.820496	0.111844	0.079567
Zn9	Zn	0.820520	0.111852	-0.079987
O10	O	0.814977	0.234141	0.060334
C11	C	0.693519	0.118461	-0.000179
C12	C	0.616411	0.117095	-0.000160
C13	C	0.571915	0.193000	-0.000175
C14	C	0.499465	0.191717	-0.000183
C15	C	0.471514	0.114526	-0.000191
C16	C	0.516020	0.038611	-0.000172
C17	C	0.588469	0.039896	-0.000156
C18	C	0.363098	0.053847	-0.042639
C19	C	0.290650	0.052565	-0.042659
C20	C	0.248058	0.110560	-0.000234
C21	C	0.277920	0.169850	0.042200
C22	C	0.350369	0.171135	0.042216
C23	C	0.392956	0.113124	-0.000207
C24	C	0.125002	0.185079	-0.000257
C25	C	0.052550	0.183793	-0.000260
C26	C	0.069107	0.030684	-0.000257
C27	C	0.141557	0.031972	-0.000246
C28	C	0.169500	0.109172	-0.000249
C29	C	0.825572	-0.041740	-0.000205
C30	C	0.824197	-0.134981	-0.000204
C31	C	0.754815	-0.349571	-0.000197
C32	C	0.787025	-0.410715	0.059504
C33	C	0.821710	-0.305697	-0.000209
C34	C	0.787058	-0.410692	-0.059890
C35	C	0.819303	-0.470601	-0.000217
C36	C	0.853939	-0.365614	0.059542
C37	C	0.853963	-0.365585	-0.059906
C38	C	0.886222	-0.426712	-0.000190
C39	C	0.823095	-0.210700	-0.000204
C40	C	0.817924	-0.565597	-0.000217
C41	C	0.947497	0.105235	-0.000243
C42	C	1.024605	0.106600	-0.000267
C43	C	0.815444	0.265436	-0.000217
C44	C	0.816819	0.358677	-0.000223
N45	N	0.820485	0.111838	0.188458
N46	N	0.820537	0.111852	-0.188878
C47	C	0.867718	0.054583	0.226549
C48	C	0.867722	0.054580	0.302777
C49	C	0.820500	0.111844	0.340910
C50	C	0.773258	0.169103	0.302810
C51	C	0.773251	0.169100	0.226583
C52	C	0.811404	0.188378	0.461669
C53	C	0.811416	0.188383	0.537894
C54	C	0.820520	0.111855	0.576018
C55	C	0.829626	0.035320	0.537908
C56	C	0.829618	0.035316	0.461681
C57	C	0.820503	0.111854	0.423565
C58	C	0.867760	0.054592	0.696765
C59	C	0.867760	0.054587	0.772994
C60	C	0.773299	0.169118	0.773025
C61	C	0.773296	0.169115	0.696797
C62	C	0.820531	0.111853	0.658671
H63	H	0.493258	-0.024239	-0.000188
H64	H	0.594661	0.255862	-0.000179
H65	H	0.906221	0.007959	0.804009
H66	H	0.837031	-0.027002	0.430655
O67	O	0.753198	-0.434674	0.119657
C68	C	0.656981	-0.502193	0.166483
C69	C	0.695237	-0.475130	0.098304
H70	H	0.610104	-0.534891	0.149244
H71	H	0.694079	-0.547597	0.200217
H72	H	0.638413	-0.444064	0.200469
H73	H	0.713809	-0.533208	0.064262
H74	H	0.658114	-0.429696	0.064625
H75	H	0.016321	0.245606	-0.000268
H76	H	0.882201	-0.345735	0.110070
H77	H	0.882240	-0.345560	-0.110395
H78	H	0.734787	0.215724	0.195568
O79	O	0.838346	-0.039012	0.574959
C80	C	0.789421	-0.129850	0.661080
C81	C	0.779445	-0.045655	0.619152
H82	H	0.741815	-0.135240	0.696831
H83	H	0.795887	-0.184578	0.620776
H84	H	0.837980	-0.132037	0.696711
H85	H	0.730885	-0.043385	0.583520
H86	H	0.773020	0.009034	0.659495
H87	H	0.699288	-0.316049	-0.000124
O88	O	0.952531	-0.466496	-0.000041
C89	C	1.062675	-0.488602	0.063011
C90	C	0.987595	-0.443508	0.062936
H91	H	1.091051	-0.470020	0.113915
H92	H	1.061190	-0.559869	0.062575
H93	H	1.091384	-0.469256	0.012560
H94	H	0.958842	-0.462785	0.113379
H95	H	0.989131	-0.372250	0.063334
O96	O	0.041849	-0.044227	-0.000298
C97	C	-0.062424	-0.114063	-0.000277
C98	C	-0.031644	-0.029165	-0.000249
H99	H	-0.121847	-0.101915	-0.000221
H100	H	-0.044120	-0.151568	-0.050965
H101	H	-0.044084	-0.151564	0.050394
H102	H	-0.049970	0.008404	-0.050886
H103	H	-0.049945	0.008276	0.050473
H104	H	0.906186	0.007955	0.333797
H105	H	0.758763	-0.430658	-0.110366
H106	H	0.804006	0.250702	0.568917
O107	O	0.184686	-0.041840	-0.000272
C108	C	0.193460	-0.193835	-0.000226
C109	C	0.144537	-0.110302	-0.000217
H110	H	0.161020	-0.249208	-0.000166
H111	H	0.227808	-0.197116	-0.050911
H112	H	0.227778	-0.197017	0.050449
H113	H	0.110175	-0.107064	-0.050857
H114	H	0.110237	-0.107055	0.050502
O115	O	0.802590	0.262799	0.424752
C116	C	0.784514	0.414617	0.432783
C117	C	0.794500	0.330401	0.474681
H118	H	0.777956	0.469294	0.473132
H119	H	0.832145	0.420117	0.397094
H120	H	0.735994	0.416778	0.397097
H121	H	0.842994	0.328182	0.510407
H122	H	0.746833	0.324935	0.510323
H123	H	0.906219	0.007963	0.665722
H124	H	0.734808	0.215728	0.333861
H125	H	0.906177	0.007955	0.195510
O126	O	0.727360	0.224778	0.809945
C127	C	0.633698	0.338408	0.801931
C128	C	0.685679	0.275407	0.760024
H129	H	0.599995	0.379370	0.761588
H130	H	0.598955	0.302294	0.837621
H131	H	0.663701	0.380241	0.837617
H132	H	0.655732	0.233558	0.724298
H133	H	0.720421	0.311573	0.724380
O134	O	0.456330	0.265532	-0.000236
C135	C	0.447548	0.417528	-0.000217
C136	C	0.496474	0.333997	-0.000171
H137	H	0.479985	0.472904	-0.000149
H138	H	0.413262	0.420802	-0.050919
H139	H	0.413168	0.420711	0.050441
H140	H	0.530898	0.330758	-0.050794
H141	H	0.530713	0.330758	0.050565
H142	H	0.243242	0.217075	0.076747
O143	O	0.727354	0.224626	0.659756
C144	C	0.632526	0.242805	0.573701
C145	C	0.684507	0.179845	0.615618
H146	H	0.597880	0.206624	0.537994
H147	H	0.598724	0.283727	0.614012
H148	H	0.662529	0.284685	0.538026
H149	H	0.654560	0.137910	0.651293
H150	H	0.718309	0.138982	0.575267
H151	H	0.624699	-0.021917	-0.000145
H152	H	0.147754	0.247939	-0.000249
O153	O	0.379355	0.228639	0.083550
C154	C	0.395641	0.282528	0.204146
C155	C	0.362790	0.217351	0.157419
H156	H	0.382249	0.273436	0.263876
H157	H	0.454746	0.273485	0.196933
H158	H	0.374208	0.348964	0.186209
H159	H	0.384168	0.150888	0.175326
H160	H	0.303688	0.226468	0.164636
O161	O	0.261761	-0.005107	-0.083894
C162	C	0.282033	-0.121282	-0.168082
C163	C	0.314840	-0.056024	-0.121404
H164	H	0.324930	-0.162453	-0.198433
H165	H	0.252518	-0.162640	-0.131404
H166	H	0.244350	-0.087018	-0.209005
H167	H	0.352553	-0.090218	-0.080475
H168	H	0.344311	-0.014669	-0.158127
O169	O	0.404536	-0.002376	-0.083898
C170	C	0.488662	-0.022213	-0.181221
C171	C	0.441780	0.041547	-0.134540
H172	H	0.518775	0.013273	-0.222186
H173	H	0.527008	-0.062305	-0.144544
H174	H	0.454867	-0.064821	-0.211523
H175	H	0.475519	0.084209	-0.104231
H176	H	0.403431	0.081578	-0.171254
