data_functionalizedCrystal
_audit_creation_method	'MofGen! by Chris Wilmer'
_symmetry_space_group_name_H-M	'P1'
_symmetry_Int_Tables_number	1
_symmetry_cell_setting	triclinic
loop_
_symmetry_equiv_pos_as_xyz
  x,y,z
_cell_length_a	12.759401
_cell_length_b	16.120484
_cell_length_c	12.759393
_cell_angle_alpha	92.863726
_cell_angle_beta	89.982824
_cell_angle_gamma	92.925560
loop_
_atom_site_label
_atom_site_type_symbol
_atom_site_fract_x
_atom_site_fract_y
_atom_site_fract_z
Zn1	Zn	1.584957	-0.331861	-0.615146
Zn2	Zn	2.084957	0.168139	-0.115146
Zn3	Zn	1.575913	-0.471296	-0.448359
Zn4	Zn	2.075913	0.028704	0.051641
Zn5	Zn	1.409260	-0.331902	-0.439488
Zn6	Zn	1.909260	0.168098	0.060512
Zn7	Zn	1.400309	-0.471234	-0.623997
Zn8	Zn	1.900309	0.028766	-0.123997
O9	O	1.492610	-0.401573	-0.531747
O10	O	1.992610	0.098427	-0.031747
O11	O	1.730778	-0.350366	-0.593030
O12	O	2.230778	0.149634	-0.093030
O13	O	1.553767	-0.452849	-0.300164
O14	O	2.053767	0.047151	0.199836
O15	O	1.440099	-0.215231	-0.455373
O16	O	1.940099	0.284769	0.044627
O17	O	1.724133	-0.452809	-0.470492
O18	O	2.224133	0.047191	0.029508
O19	O	1.569182	-0.215201	-0.584428
O20	O	2.069182	0.284799	-0.084428
O21	O	1.431328	-0.350436	-0.293647
O22	O	1.931328	0.149564	0.206353
O23	O	1.261053	-0.350376	-0.463955
O24	O	1.761053	0.149624	0.036045
O25	O	1.424842	-0.452703	-0.769841
O26	O	1.924842	0.047297	-0.269841
O27	O	1.254476	-0.452743	-0.599513
O28	O	1.754476	0.047257	-0.099513
O29	O	1.560502	-0.350306	-0.763339
O30	O	2.060502	0.149694	-0.263339
O31	O	1.545087	-0.587953	-0.479074
O32	O	2.045087	-0.087953	0.020926
O33	O	1.416071	-0.587908	-0.608114
O34	O	1.916071	-0.087908	-0.108114
C35	C	1.219643	-0.401558	-0.531732
C36	C	1.719643	0.098442	-0.031732
C37	C	1.102866	-0.401572	-0.531752
C38	C	1.602866	0.098428	-0.031752
C39	C	1.478655	-0.618181	-0.545540
C40	C	1.978655	-0.118181	-0.045540
C41	C	1.472781	-0.710846	-0.551476
C42	C	1.972781	-0.210846	-0.051476
C43	C	1.044601	-0.454959	-0.602231
C44	C	1.544601	0.045041	-0.102231
C45	C	0.934877	-0.454970	-0.602243
C46	C	1.434877	0.045030	-0.102243
C47	C	0.941691	-0.348203	-0.461288
C48	C	1.441691	0.151797	0.038712
C49	C	1.051414	-0.348189	-0.461282
C50	C	1.551414	0.151811	0.038718
C51	C	1.096053	-0.508342	-0.672701
C52	C	1.596053	-0.008342	-0.172701
C53	C	1.037788	-0.561735	-0.743185
C54	C	1.537788	-0.061735	-0.243185
C55	C	0.928064	-0.561746	-0.743197
C56	C	1.428064	-0.061746	-0.243197
C57	C	0.876604	-0.508363	-0.672725
C58	C	1.376604	-0.008363	-0.172725
C59	C	1.462063	-0.880507	-0.562334
C60	C	1.962063	-0.380507	-0.062334
C61	C	1.523345	-0.921799	-0.501178
C62	C	2.023345	-0.421799	-0.001178
C63	C	1.517381	-1.016204	-0.507220
C64	C	2.017381	-0.516204	-0.007220
C65	C	1.468025	-0.786093	-0.556294
C66	C	1.968025	-0.286093	-0.056294
C67	C	1.766642	-0.401589	-0.531763
C68	C	2.266642	0.098411	-0.031763
C69	C	1.883418	-0.401596	-0.531770
C70	C	2.383418	0.098404	-0.031770
C71	C	1.492682	-0.401493	-0.805776
C72	C	1.992682	0.098507	-0.305776
C73	C	1.492713	-0.401458	-0.922550
C74	C	1.992713	0.098542	-0.422550
C75	C	1.506648	-0.184120	-0.517924
C76	C	2.006648	0.315880	-0.017924
C77	C	1.512630	-0.091455	-0.512033
C78	C	2.012630	0.408545	-0.012033
C79	C	1.422099	-0.454752	-0.980798
C80	C	1.922099	0.045248	-0.480798
C81	C	1.422139	-0.454721	-1.090520
C82	C	1.922139	0.045279	-0.590520
C83	C	1.563411	-0.348098	-1.083737
C84	C	2.063411	0.151902	-0.583737
C85	C	1.563375	-0.348133	-0.974017
C86	C	2.063375	0.151867	-0.474017
C87	C	1.351436	-0.508077	-0.929332
C88	C	1.851436	-0.008077	-0.429332
C89	C	1.280816	-0.561374	-0.987580
C90	C	1.780816	-0.061374	-0.487580
C91	C	1.280856	-0.561344	-1.097302
C92	C	1.780856	-0.061344	-0.597302
C93	C	1.351517	-0.508017	-1.148776
C94	C	1.851517	-0.008017	-0.648776
C95	C	1.492602	-0.401594	-0.258781
C96	C	1.992602	0.098406	0.241219
C97	C	1.492790	-0.401393	-0.141992
C98	C	1.992790	0.098607	0.358008
H99	H	1.185396	-0.508341	-0.672698
H100	H	1.685396	-0.008341	-0.172698
H101	H	1.580288	-0.886250	-0.444283
H102	H	2.080288	-0.386250	0.055717
H103	H	1.620874	-0.304735	-0.926590
H104	H	2.120874	0.195265	-0.426590
O105	O	0.886194	-0.290651	-0.385254
O106	O	1.386194	0.209349	0.114746
H107	H	0.800107	-0.299643	-0.397085
H108	H	1.300107	0.200357	0.102915
O109	O	0.758256	-0.508380	-0.672723
O110	O	1.258256	-0.008380	-0.172723
H111	H	0.726383	-0.554478	-0.733565
H112	H	1.226383	-0.054478	-0.233565
H113	H	1.405123	-0.916054	-0.619223
H114	H	1.905123	-0.416054	-0.119223
O115	O	1.114268	-0.290615	-0.385259
O116	O	1.614268	0.209385	0.114741
H117	H	1.060058	-0.253508	-0.336244
H118	H	1.560058	0.246492	0.163756
O119	O	1.204690	-0.618821	-1.160133
O120	O	1.704690	-0.118821	-0.660133
H121	H	1.155545	-0.655900	-1.105907
H122	H	1.655545	-0.155900	-0.605907
O123	O	1.093291	-0.619302	-0.819196
O124	O	1.593291	-0.119302	-0.319196
H125	H	1.034339	-0.656420	-0.868216
H126	H	1.534339	-0.156420	-0.368216
O127	O	0.865209	-0.619417	-0.819108
O128	O	1.365209	-0.119417	-0.319108
H129	H	0.919423	-0.656569	-0.868061
H130	H	1.419423	-0.156569	-0.368061
H131	H	1.351394	-0.508107	-0.839991
H132	H	1.851394	-0.008107	-0.339991
O133	O	1.204603	-0.618889	-0.932072
O134	O	1.704603	-0.118889	-0.432072
H135	H	1.216428	-0.609952	-0.845989
H136	H	1.716428	-0.109952	-0.345989
H137	H	1.351551	-0.508002	-1.238120
H138	H	1.851551	-0.008002	-0.738120
H139	H	1.620939	-0.304680	-1.125656
H140	H	2.120939	0.195320	-0.625656
