data_functionalizedCrystal
_audit_creation_method	'MofGen! by Chris Wilmer'
_symmetry_space_group_name_H-M	'P1'
_symmetry_Int_Tables_number	1
_symmetry_cell_setting	triclinic
loop_
_symmetry_equiv_pos_as_xyz
  x,y,z
_cell_length_a	9.065218
_cell_length_b	22.010155
_cell_length_c	9.065218
_cell_angle_alpha	90.006172
_cell_angle_beta	94.984115
_cell_angle_gamma	90.008655
loop_
_atom_site_label
_atom_site_type_symbol
_atom_site_fract_x
_atom_site_fract_y
_atom_site_fract_z
O1	O	1.960412	0.050524	-0.216337
O2	O	1.531127	0.050525	-0.234083
O3	O	1.754643	0.050523	-0.010567
O4	O	1.736896	0.050526	-0.439852
O5	O	1.754602	-0.050527	-0.010601
O6	O	1.531087	-0.050526	-0.234116
O7	O	1.960371	-0.050526	-0.216370
Cu8	Cu	1.745725	-0.059753	-0.225246
Cu9	Cu	1.745773	0.059751	-0.225207
O10	O	1.736856	-0.050525	-0.439886
C11	C	1.476120	-0.000000	-0.232394
C12	C	1.312277	-0.000000	-0.227294
N13	N	1.745702	-0.143805	-0.225273
C14	C	1.844752	-0.563585	-0.126248
C15	C	1.844759	-0.627193	-0.126238
O16	O	1.928916	-0.660085	-0.042062
N17	N	1.745772	-0.659012	-0.225176
C18	C	1.646762	-0.627221	-0.324120
O19	O	1.562566	-0.660126	-0.408272
C20	C	1.646749	-0.563614	-0.324121
C21	C	1.745753	-0.531798	-0.225187
C22	C	1.943746	-0.531769	-0.027321
C23	C	1.943741	-0.468166	-0.027334
C24	C	1.844742	-0.436379	-0.126273
C25	C	1.745747	-0.468195	-0.225200
C26	C	1.547733	-0.531824	-0.423057
C27	C	1.547728	-0.468213	-0.423049
C28	C	1.646732	-0.436397	-0.324115
C29	C	1.646743	-0.372805	-0.324151
N30	N	1.745730	-0.340985	-0.225214
C31	C	1.844729	-0.372772	-0.126275
C32	C	1.646794	-0.760799	-0.324107
C33	C	1.646813	-0.824404	-0.324113
C34	C	1.844809	-0.824372	-0.126230
C35	C	1.844796	-0.760765	-0.126231
C36	C	1.745781	-0.728979	-0.225169
C37	C	1.844711	-0.239201	-0.126309
C38	C	1.844702	-0.175592	-0.126334
C39	C	1.646702	-0.175630	-0.324212
C40	C	1.646716	-0.239233	-0.324192
C41	C	1.745726	-0.271017	-0.225229
O42	O	1.562625	-0.339872	-0.408281
O43	O	1.928898	-0.339859	-0.042123
C44	C	2.015378	0.000000	-0.218059
C45	C	2.179221	0.000004	-0.223158
C46	C	1.752917	-0.000001	0.044403
C47	C	1.747817	0.000002	0.208245
N48	N	1.745808	0.143803	-0.225168
C49	C	1.738582	0.000001	-0.494855
C50	C	1.743681	0.000002	-0.658698
H51	H	1.925333	-0.265072	-0.045722
O52	O	1.550346	-0.270119	-0.420144
C53	C	1.403973	-0.254567	-0.394136
H54	H	1.401693	-0.237067	-0.275993
H55	H	1.330144	-0.296402	-0.410047
H56	H	1.361719	-0.217658	-0.475333
O57	O	1.940929	-0.144781	-0.030080
C58	C	2.028327	-0.186482	0.057224
H59	H	1.967809	-0.231826	0.059736
H60	H	2.049268	-0.168096	0.174750
H61	H	2.138574	-0.193243	0.007784
O62	O	2.039956	-0.437358	0.068925
C63	C	2.127346	-0.479065	0.156220
H64	H	2.066825	-0.524409	0.158711
H65	H	2.148279	-0.460687	0.273753
H66	H	2.237597	-0.485823	0.106787
H67	H	1.467094	-0.442336	-0.503615
H68	H	2.024363	-0.557644	0.053254
O69	O	1.941013	-0.729956	-0.029979
C70	C	2.028417	-0.771659	0.057310
H71	H	1.967904	-0.817005	0.059810
H72	H	2.049358	-0.753280	0.174842
H73	H	2.138663	-0.778416	0.007866
O74	O	1.550737	-0.144678	-0.420376
C75	C	1.630957	-0.107893	-0.512539
H76	H	1.745640	-0.098358	-0.455394
H77	H	1.569683	-0.063168	-0.535003
H78	H	1.642413	-0.132406	-0.621745
H79	H	1.925417	-0.850264	-0.045666
H80	H	1.566211	-0.850304	-0.404690
H81	H	1.566169	-0.734922	-0.404686
H82	H	1.467115	-0.557720	-0.503617
