data_functionalizedCrystal
_audit_creation_method	'MofGen! by Chris Wilmer'
_symmetry_space_group_name_H-M	'P1'
_symmetry_Int_Tables_number	1
_symmetry_cell_setting	triclinic
loop_
_symmetry_equiv_pos_as_xyz
  x,y,z
_cell_length_a	28.938199
_cell_length_b	28.937346
_cell_length_c	28.934044
_cell_angle_alpha	60.005004
_cell_angle_beta	60.009897
_cell_angle_gamma	59.994060
loop_
_atom_site_label
_atom_site_type_symbol
_atom_site_fract_x
_atom_site_fract_y
_atom_site_fract_z
O1	O	0.064043	-0.675186	0.564597
O2	O	0.024124	-0.525682	0.454913
O3	O	0.118795	-0.620275	0.454833
O4	O	-0.030629	-0.580593	0.564678
O5	O	0.150204	-0.588870	0.486157
O6	O	0.055533	-0.494276	0.486238
O7	O	0.095452	-0.643780	0.595921
Cu8	Cu	0.078360	-0.566161	0.543940
Cu9	Cu	0.041215	-0.603301	0.506895
O10	O	0.000780	-0.549187	0.596002
N11	N	0.104487	-0.540042	0.569998
N12	N	0.015094	-0.629425	0.480837
C13	C	0.165467	-0.323909	0.630915
C14	C	0.165587	-0.479117	0.786068
C15	C	0.165481	-0.479095	0.630906
C16	C	0.320696	-0.479083	0.630835
C17	C	0.182557	-0.375118	0.647971
C18	C	0.182626	-0.462038	0.734858
C19	C	0.269485	-0.462018	0.647928
C20	C	0.182566	-0.462025	0.647966
C21	C	0.143714	-0.258726	0.609206
C22	C	0.143738	-0.500820	0.609192
C23	C	0.204309	-0.440300	0.669680
C24	C	0.415481	-0.462740	0.580919
C25	C	0.474732	-0.482485	0.561145
C26	C	0.474757	-0.578356	0.597704
C27	C	0.415508	-0.558609	0.617479
C28	C	0.157989	-0.229089	0.550957
C29	C	0.138212	-0.169834	0.531225
C30	C	0.089890	-0.169857	0.627992
C31	C	0.109667	-0.229112	0.647725
C32	C	0.085482	-0.486515	0.623535
C33	C	0.065722	-0.506265	0.603789
C34	C	0.162467	-0.554625	0.555370
C35	C	0.182230	-0.534875	0.575110
C36	C	0.085661	-0.486557	0.880902
C37	C	0.065952	-0.506323	0.940155
C38	C	0.162734	-0.554693	0.940102
C39	C	0.182441	-0.534928	0.880847
C40	C	0.143904	-0.500859	0.851249
C41	C	0.385871	-0.500801	0.609083
C42	C	-0.110907	-0.668480	0.441278
C43	C	-0.024049	-0.668588	0.441475
C44	C	-0.045729	-0.690282	0.419668
C45	C	-0.062146	-0.785032	0.469507
C46	C	-0.042446	-0.844287	0.489286
C47	C	0.053426	-0.844399	0.452899
C48	C	0.033725	-0.785144	0.433120
C49	C	-0.140617	-0.682751	0.499509
C50	C	-0.199867	-0.662928	0.519152
C51	C	-0.199694	-0.614571	0.422330
C52	C	-0.140443	-0.634393	0.402687
C53	C	-0.038320	-0.610337	0.427144
C54	C	-0.018610	-0.590621	0.446974
C55	C	0.029642	-0.687402	0.495454
C56	C	0.009933	-0.707121	0.475630
C57	C	-0.038148	-0.610347	0.324832
C58	C	-0.018301	-0.590634	0.265579
C59	C	0.030035	-0.687421	0.265643
C60	C	0.010190	-0.707133	0.324897
C61	C	-0.023903	-0.668595	0.354491
C62	C	-0.024062	-0.755463	0.441426
N63	N	0.503527	-0.540005	0.569810
O64	O	0.684453	-0.545211	0.434650
O65	O	0.684643	-0.655237	0.584005
O66	O	0.684567	-0.654986	0.489282
O67	O	0.684529	-0.545462	0.529373
O68	O	0.590438	-0.623674	0.520735
O69	O	0.590513	-0.623924	0.615457
O70	O	0.590323	-0.513899	0.466102
Cu71	Cu	0.581823	-0.566053	0.543652
Cu72	Cu	0.693143	-0.603083	0.506456
O73	O	0.590399	-0.514149	0.560825
N74	N	0.771439	-0.629131	0.480292
N75	N	0.104456	-0.141061	0.570015
O76	O	-0.030629	0.039964	0.564688
O77	O	0.118732	0.039984	0.454661
O78	O	0.023980	0.039958	0.454946
O79	O	0.064123	0.039990	0.564403
O80	O	0.055392	-0.054179	0.486321
O81	O	0.150144	-0.054153	0.486036
O82	O	0.000784	-0.054173	0.596063
Cu83	Cu	0.078332	-0.062759	0.543914
Cu84	Cu	0.041183	0.048570	0.506810
O85	O	0.095535	-0.054147	0.595778
N86	N	0.015053	0.126872	0.480710
N87	N	0.104760	-0.540096	0.968910
O88	O	0.099447	-0.675167	1.149923
O89	O	-0.010552	-0.525757	1.149951
O90	O	-0.010297	-0.620493	1.149918
O91	O	0.099192	-0.580431	1.149956
O92	O	0.021064	-0.589100	1.055785
O93	O	0.020809	-0.494365	1.055818
O94	O	0.130808	-0.643774	1.055790
Cu95	Cu	0.078672	-0.566203	1.047209
Cu96	Cu	0.041584	-0.603328	1.158532
O97	O	0.130553	-0.549038	1.055823
N98	N	0.015495	-0.629442	1.236831
C99	C	0.036087	-0.491140	0.455465
C100	C	0.153325	-0.608283	0.455364
C101	C	0.083488	-0.678322	0.595370
C102	C	-0.033750	-0.561180	0.595470
C103	C	0.637601	-0.654732	0.618548
C104	C	0.637509	-0.654422	0.501245
C105	C	0.637362	-0.514403	0.431560
C106	C	0.637458	-0.514713	0.548862
C107	C	0.153215	-0.006966	0.455158
C108	C	0.035916	-0.007114	0.455550
C109	C	-0.033739	-0.007106	0.595527
C110	C	0.083600	-0.007076	0.595174
C111	C	-0.010020	-0.491238	1.102888
C112	C	-0.009698	-0.608550	1.102828
C113	C	0.130276	-0.678293	1.102853
C114	C	0.129961	-0.560974	1.102892
H115	H	0.018524	-0.494668	0.964293
O116	O	0.048168	-0.453442	0.656658
C117	C	0.078102	-0.439064	0.670997
H118	H	0.122382	-0.471706	0.667444
H119	H	0.054732	-0.438425	0.716268
H120	H	0.081397	-0.395437	0.640875
H121	H	0.164813	-0.721202	1.102837
H122	H	0.027560	-0.448192	0.421017
O123	O	0.204233	-0.006577	0.413774
C124	C	0.196480	0.042284	0.366241
H125	H	0.151292	0.058351	0.367018
H126	H	0.227452	0.031527	0.325928
H127	H	0.204425	0.076486	0.367339
O128	O	-0.084870	-0.007136	0.636808
C129	C	-0.084836	-0.007111	0.685507
H130	H	-0.039427	-0.024924	0.684824
H131	H	-0.109982	-0.034443	0.724911
H132	H	-0.105070	0.038054	0.686167
H133	H	0.092195	-0.007066	0.629560
O134	O	-0.051168	-0.440024	1.102922
C135	C	-0.030791	-0.404800	1.102924
H136	H	0.005545	-0.432020	1.120746
H137	H	-0.066359	-0.377683	1.130260
H138	H	-0.015082	-0.376214	1.057768
H139	H	0.164358	-0.552401	1.102897
O140	O	0.048146	-0.453485	0.852241
C141	C	-0.007486	-0.445088	0.891122
H142	H	-0.007347	-0.480819	0.933349
H143	H	-0.035637	-0.444774	0.874021
H144	H	-0.024462	-0.402880	0.897435
O145	O	0.200246	-0.587800	0.968766
C146	C	0.255880	-0.596173	0.929887
H147	H	0.255743	-0.589539	0.887655
H148	H	0.284029	-0.641115	0.946984
H149	H	0.272853	-0.564638	0.923585
O150	O	0.204563	-0.618454	0.414280
C151	C	0.239731	-0.674075	0.434734
H152	H	0.224372	-0.689064	0.482944
H153	H	0.285084	-0.674792	0.417400
H154	H	0.238174	-0.703345	0.420396
O155	O	0.239017	-0.548889	0.852018
C156	C	0.253317	-0.578700	0.817730
H157	H	0.219921	-0.598756	0.835598
H158	H	0.296340	-0.613227	0.817035
H159	H	0.255255	-0.548225	0.772831
H160	H	-0.224058	-0.674545	0.566571
O161	O	0.503587	-0.445592	0.533792
C162	C	0.562237	-0.475417	0.518124
H163	H	0.570349	-0.521589	0.546692
H164	H	0.584768	-0.455805	0.522779
H165	H	0.579021	-0.472973	0.472234
O166	O	0.025586	-0.007165	0.414600
C167	C	-0.030051	-0.007170	0.435229
H168	H	-0.044926	-0.024974	0.483440
H169	H	-0.030867	-0.034526	0.418021
H170	H	-0.059348	0.037984	0.420906
O171	O	-0.050647	-0.618839	1.102741
C172	C	-0.030030	-0.674478	1.102725
H173	H	0.018180	-0.689385	1.084935
H174	H	-0.047236	-0.675274	1.075352
H175	H	-0.044362	-0.703765	1.147872
H176	H	0.637300	-0.479859	0.388668
H177	H	-0.076669	-0.552723	0.629962
O178	O	0.637425	-0.695420	0.491021
C179	C	0.588655	-0.675945	0.477724
H180	H	0.554573	-0.640815	0.496016
H181	H	0.572327	-0.712415	0.496611
H182	H	0.599629	-0.658858	0.429795
H183	H	0.637450	-0.480310	0.557440
H184	H	0.018285	-0.494604	0.615454
H185	H	0.193817	-0.582360	0.527624
H186	H	0.391402	-0.589605	0.640414
O187	O	0.238833	-0.548737	0.561077
C188	C	0.263392	-0.528440	0.501728
H189	H	0.235279	-0.522638	0.481011
H190	H	0.306980	-0.560182	0.487849
H191	H	0.267775	-0.486087	0.488330
O192	O	0.503484	-0.634512	0.605823
C193	C	0.488997	-0.652605	0.579212
H194	H	0.445964	-0.622559	0.574188
H195	H	0.486991	-0.697186	0.606179
H196	H	0.522322	-0.652701	0.535754
O197	O	0.386753	-0.406561	0.572667
C198	C	0.401188	-0.375987	0.514164
H199	H	0.444202	-0.401875	0.490821
H200	H	0.403210	-0.334215	0.506335
H201	H	0.367825	-0.367148	0.498030
O202	O	0.191035	-0.257767	0.513463
C203	C	0.199400	-0.218900	0.457817
H204	H	0.163667	-0.176667	0.457943
H205	H	0.199691	-0.236017	0.429692
H206	H	0.241604	-0.212588	0.440821
H207	H	0.149834	-0.145702	0.483792
O208	O	0.637688	-0.695888	0.669744
C209	C	0.637686	-0.675502	0.704970
H210	H	0.655465	-0.639147	0.677756
H211	H	0.665056	-0.711063	0.732060
H212	H	0.592536	-0.659813	0.733580
H213	H	0.062174	-0.145744	0.659359
H214	H	0.098041	-0.253238	0.695156
H215	H	-0.029909	-0.543201	0.241439
H216	H	-0.065911	-0.578960	0.348925
O217	O	0.093741	-0.729596	0.636398
C218	C	0.149369	-0.764698	0.615866
H219	H	0.164297	-0.749274	0.567656
H220	H	0.150139	-0.810068	0.633155
H221	H	0.178652	-0.763138	0.630185
O222	O	-0.079375	-0.873102	0.516660
C223	C	-0.077112	-0.907345	0.571762
H224	H	-0.034639	-0.916223	0.573087
H225	H	-0.082093	-0.949014	0.583808
H226	H	-0.112772	-0.884489	0.602947
O227	O	0.063078	-0.724914	0.236963
C228	C	0.033134	-0.759108	0.251365
H229	H	-0.001411	-0.759638	0.294345
H230	H	0.063507	-0.804067	0.253446
H231	H	0.013095	-0.741271	0.217949
O232	O	0.023929	-0.763705	0.353769
C233	C	-0.025888	-0.777957	0.387945
H234	H	-0.063107	-0.738877	0.396763
H235	H	-0.020667	-0.812311	0.429645
H236	H	-0.034173	-0.794207	0.365062
H237	H	-0.030233	-0.543188	0.435308
O238	O	-0.071346	-0.572830	0.393995
C239	C	-0.079706	-0.517188	0.385593
H240	H	-0.073151	-0.517301	0.421365
H241	H	-0.124615	-0.489013	0.385196
H242	H	-0.048113	-0.500258	0.343425
H243	H	0.057315	-0.718782	0.523258
H244	H	0.021552	-0.754553	0.487300
O245	O	0.070786	-0.756482	0.405784
C246	C	0.111057	-0.770996	0.356962
H247	H	0.113833	-0.814006	0.362301
H248	H	0.154166	-0.773072	0.350573
H249	H	0.097738	-0.737646	0.318534
O250	O	0.109543	-0.873260	0.444936
C251	C	0.117504	-0.907541	0.497869
H252	H	0.079960	-0.889646	0.531995
H253	H	0.158009	-0.908261	0.496296
H254	H	0.120981	-0.952436	0.508120
O255	O	-0.118291	-0.756289	0.477583
C256	C	-0.147679	-0.795098	0.506614
H257	H	-0.117271	-0.837362	0.499829
H258	H	-0.183348	-0.777953	0.489733
H259	H	-0.166184	-0.801362	0.553754
H260	H	-0.116569	-0.710512	0.530934
H261	H	-0.223743	-0.586821	0.390905
H262	H	-0.116252	-0.622767	0.355267
