data_functionalizedCrystal
_audit_creation_method	'MofGen! by Chris Wilmer'
_symmetry_space_group_name_H-M	'P1'
_symmetry_Int_Tables_number	1
_symmetry_cell_setting	triclinic
loop_
_symmetry_equiv_pos_as_xyz
  x,y,z
_cell_length_a	16.120530
_cell_length_b	10.686285
_cell_length_c	10.685314
_cell_angle_alpha	89.696502
_cell_angle_beta	91.675659
_cell_angle_gamma	97.480717
loop_
_atom_site_label
_atom_site_type_symbol
_atom_site_fract_x
_atom_site_fract_y
_atom_site_fract_z
Zn1	Zn	1.269519	0.658092	-0.760424
Zn2	Zn	1.602852	0.991426	-0.427090
Zn3	Zn	1.936185	1.324759	-0.093757
Zn4	Zn	1.290724	0.853577	-0.536090
Zn5	Zn	1.624057	1.186910	-0.202757
Zn6	Zn	1.957391	1.520244	0.130577
Zn7	Zn	1.139829	0.631421	-0.541541
Zn8	Zn	1.473162	0.964755	-0.208208
Zn9	Zn	1.806496	1.298088	0.125125
Zn10	Zn	1.141472	0.857274	-0.735302
Zn11	Zn	1.474805	1.190607	-0.401968
Zn12	Zn	1.808139	1.523941	-0.068635
O13	O	1.210386	0.750091	-0.643339
O14	O	1.543719	1.083424	-0.310006
O15	O	1.877053	1.416758	0.023328
O16	O	1.389070	0.693638	-0.738897
O17	O	1.722403	1.026972	-0.405564
O18	O	2.055736	1.360305	-0.072231
O19	O	1.278895	0.811398	-0.361839
O20	O	1.612228	1.144732	-0.028506
O21	O	1.945561	1.478065	0.304827
O22	O	1.147471	0.458628	-0.583372
O23	O	1.480804	0.791961	-0.250038
O24	O	1.814137	1.125295	0.083295
O25	O	1.404649	0.837260	-0.574080
O26	O	1.737983	1.170593	-0.240747
O27	O	2.071316	1.503927	0.092586
O28	O	1.242753	0.478223	-0.744183
O29	O	1.576086	0.811556	-0.410850
O30	O	1.909419	1.144890	-0.077517
O31	O	1.168033	0.648182	-0.365844
O32	O	1.501366	0.981515	-0.032511
O33	O	1.834699	1.314848	0.300822
O34	O	1.023309	0.651767	-0.559012
O35	O	1.356642	0.985100	-0.225679
O36	O	1.689976	1.318433	0.107655
O37	O	1.150271	0.843561	-0.913608
O38	O	1.483604	1.176895	-0.580275
O39	O	1.816937	1.510228	-0.246941
O40	O	1.024516	0.817700	-0.701367
O41	O	1.357849	1.151033	-0.368034
O42	O	1.691183	1.484366	-0.034700
O43	O	1.244346	0.697223	-0.932065
O44	O	1.577679	1.030557	-0.598732
O45	O	1.911013	1.363890	-0.265398
O46	O	1.280488	1.030399	-0.549721
O47	O	1.613821	1.363732	-0.216387
O48	O	1.947154	1.697065	0.116946
O49	O	1.170833	1.033115	-0.696081
O50	O	1.504166	1.366448	-0.362748
O51	O	1.837499	1.699781	-0.029414
C52	C	0.993644	0.732241	-0.628056
C53	C	1.326977	1.065574	-0.294722
C54	C	1.660310	1.398908	0.038611
C55	C	0.900921	0.724637	-0.621545
C56	C	1.234254	1.057971	-0.288211
C57	C	1.567587	1.391304	0.045122
C58	C	1.228161	1.077481	-0.619612
C59	C	1.561494	1.410815	-0.286279
C60	C	1.894828	1.744148	0.047055
C61	C	1.235840	1.217549	-0.609509
C62	C	1.569173	1.550883	-0.276175
C63	C	1.902506	1.884216	0.057158
C64	C	1.195126	0.773780	-0.969474
C65	C	1.528459	1.107113	-0.636140
C66	C	1.861793	1.440446	-0.302807
C67	C	1.188623	0.783874	-1.108453
C68	C	1.521957	1.117208	-0.775120
C69	C	1.855290	1.450541	-0.441786
C70	C	0.731153	0.710726	-0.609670
C71	C	1.064486	1.044059	-0.276337
C72	C	1.397819	1.377393	0.056996
C73	C	0.690461	0.789556	-0.677093
C74	C	1.023794	1.122889	-0.343759
C75	C	1.357127	1.456222	-0.010426
C76	C	0.595996	0.781815	-0.670486
C77	C	0.929329	1.115149	-0.337152
C78	C	1.262662	1.448482	-0.003819
C79	C	0.825626	0.718465	-0.616276
C80	C	1.158959	1.051798	-0.282942
C81	C	1.492293	1.385131	0.050391
C82	C	1.427975	0.768012	-0.658683
C83	C	1.761308	1.101345	-0.325350
C84	C	2.094641	1.434679	0.007984
C85	C	1.520698	0.775649	-0.665222
C86	C	1.854031	1.108982	-0.331888
C87	C	2.187365	1.442315	0.001445
C88	C	1.192563	0.421426	-0.667188
C89	C	1.525896	0.754760	-0.333855
C90	C	1.859230	1.088093	-0.000521
C91	C	1.184968	0.281369	-0.677351
C92	C	1.518301	0.614702	-0.344017
C93	C	1.851635	0.948036	-0.010684
C94	C	1.225630	0.726408	-0.318483
C95	C	1.558963	1.059741	0.014850
C96	C	1.892296	1.393074	0.348183
C97	C	1.232275	0.715971	-0.179542
C98	C	1.565608	1.049305	0.153791
C99	C	1.898941	1.382638	0.487125
H100	H	0.726568	0.862856	-0.739778
H101	H	1.059902	1.196189	-0.406445
H102	H	1.393235	1.529522	-0.073112
H103	H	1.285265	1.270072	-0.543682
H104	H	1.618598	1.603405	-0.210349
H105	H	1.951931	1.936739	0.122984
H106	H	1.146272	0.849734	-1.153919
H107	H	1.479606	1.183067	-0.820586
H108	H	1.812939	1.516401	-0.487253
H109	H	1.274613	0.650101	-1.134082
H110	H	1.607946	0.983435	-0.800748
H111	H	1.941279	1.316768	-0.467415
H112	H	0.695047	0.637431	-0.546991
H113	H	1.028380	0.970765	-0.213657
H114	H	1.361714	1.304098	0.119676
C115	C	1.118200	1.210432	-0.766271
C116	C	1.451534	1.543765	-0.432937
C117	C	1.784867	1.877098	-0.099604
H118	H	1.121632	1.122440	-0.761638
H119	H	1.454966	1.455774	-0.428305
H120	H	1.788299	1.789107	-0.094972
H121	H	1.064187	1.226071	-0.742417
H122	H	1.397521	1.559404	-0.409084
H123	H	1.730854	1.892738	-0.075750
H124	H	1.127603	1.239003	-0.849628
H125	H	1.460936	1.572337	-0.516295
H126	H	1.794269	1.905670	-0.182961
