data_functionalizedCrystal
_audit_creation_method	'MofGen! by Chris Wilmer'
_symmetry_space_group_name_H-M	'P1'
_symmetry_Int_Tables_number	1
_symmetry_cell_setting	triclinic
loop_
_symmetry_equiv_pos_as_xyz
  x,y,z
_cell_length_a	21.395364
_cell_length_b	19.120786
_cell_length_c	19.120904
_cell_angle_alpha	90.133503
_cell_angle_beta	87.577865
_cell_angle_gamma	92.480057
loop_
_atom_site_label
_atom_site_type_symbol
_atom_site_fract_x
_atom_site_fract_y
_atom_site_fract_z
Zn1	Zn	0.931946	-0.295776	0.384484
Zn2	Zn	1.265280	0.037557	0.717818
Zn3	Zn	1.598613	0.370891	1.051151
Zn4	Zn	0.932254	-0.408020	0.262244
Zn5	Zn	1.265587	-0.074687	0.595577
Zn6	Zn	1.598920	0.258647	0.928910
Zn7	Zn	0.831825	-0.290824	0.267262
Zn8	Zn	1.165159	0.042510	0.600595
Zn9	Zn	1.498492	0.375843	0.933928
Zn10	Zn	0.822871	-0.413014	0.379439
Zn11	Zn	1.156204	-0.079681	0.712772
Zn12	Zn	1.489538	0.253652	1.046105
O13	O	0.879724	-0.351908	0.323357
O14	O	1.213057	-0.018575	0.656690
O15	O	1.546391	0.314758	0.990024
O16	O	1.019665	-0.310648	0.368281
O17	O	1.352999	0.022686	0.701614
O18	O	1.686332	0.356019	1.034947
O19	O	0.922807	-0.388311	0.164805
O20	O	1.256141	-0.054978	0.498138
O21	O	1.589474	0.278356	0.831471
O22	O	0.848725	-0.193369	0.287023
O23	O	1.182059	0.139964	0.620357
O24	O	1.515392	0.473298	0.953690
O25	O	1.019891	-0.393113	0.278471
O26	O	1.353224	-0.059780	0.611804
O27	O	1.686558	0.273554	0.945137
O28	O	0.922284	-0.197007	0.373146
O29	O	1.255617	0.136326	0.706480
O30	O	1.588951	0.469659	1.039813
O31	O	0.849023	-0.302208	0.168491
O32	O	1.182357	0.031126	0.501825
O33	O	1.515690	0.364459	0.835158
O34	O	0.742959	-0.307050	0.282131
O35	O	1.076293	0.026283	0.615464
O36	O	1.409626	0.359616	0.948797
O37	O	0.833464	-0.401625	0.478213
O38	O	1.166797	-0.068292	0.811546
O39	O	1.500131	0.265042	1.144879
O40	O	0.736381	-0.396823	0.364547
O41	O	1.069714	-0.063490	0.697880
O42	O	1.403047	0.269844	1.031213
O43	O	0.913601	-0.315490	0.481920
O44	O	1.246935	0.017843	0.815253
O45	O	1.580268	0.351176	1.148586
O46	O	0.914125	-0.506794	0.273578
O47	O	1.247458	-0.173461	0.606912
O48	O	1.580792	0.159873	0.940245
O49	O	0.833762	-0.510463	0.359681
O50	O	1.167095	-0.177130	0.693014
O51	O	1.500429	0.156203	1.026348
C52	C	0.716936	-0.351942	0.323336
C53	C	1.050269	-0.018608	0.656669
C54	C	1.383603	0.314725	0.990003
C55	C	0.647293	-0.351974	0.323343
C56	C	0.980627	-0.018640	0.656676
C57	C	1.313960	0.314693	0.990010
C58	C	0.614479	-0.309110	0.370173
C59	C	0.947813	0.024223	0.703506
C60	C	1.281146	0.357556	1.036840
C61	C	0.549045	-0.309092	0.370176
C62	C	0.882378	0.024242	0.703510
C63	C	1.215711	0.357575	1.036843
C64	C	0.516425	-0.351949	0.323357
C65	C	0.849759	-0.018616	0.656690
C66	C	1.183092	0.314717	0.990023
C67	C	0.549247	-0.394815	0.276518
C68	C	0.882580	-0.061482	0.609851
C69	C	1.215914	0.271851	0.943184
C70	C	0.614681	-0.394827	0.276511
C71	C	0.948014	-0.061494	0.609844
C72	C	1.281348	0.271839	0.943177
C73	C	0.410630	-0.414850	0.315025
C74	C	0.743964	-0.081516	0.648359
C75	C	1.077297	0.251817	0.981692
C76	C	0.345197	-0.414839	0.315037
C77	C	0.678531	-0.081506	0.648370
C78	C	1.011864	0.251828	0.981704
C79	C	0.314605	-0.351911	0.323374
C80	C	0.647939	-0.018578	0.656707
C81	C	0.981272	0.314755	0.990041
C82	C	0.349454	-0.288993	0.331714
C83	C	0.682787	0.044340	0.665047
C84	C	1.016121	0.377673	0.998381
C85	C	0.414888	-0.289005	0.331707
C86	C	0.748221	0.044328	0.665040
C87	C	1.081555	0.377661	0.998374
C88	C	0.445473	-0.351941	0.323359
C89	C	0.778806	-0.018607	0.656692
C90	C	1.112140	0.314726	0.990025
C91	C	0.210840	-0.309024	0.370210
C92	C	0.544173	0.024309	0.703544
C93	C	0.877506	0.357642	1.036877
C94	C	0.145404	-0.309004	0.370209
C95	C	0.478737	0.024329	0.703542
C96	C	0.812071	0.357662	1.036876
C97	C	0.145607	-0.394734	0.276554
C98	C	0.478941	-0.061401	0.609887
C99	C	0.812274	0.271932	0.943220
C100	C	0.211042	-0.394748	0.276552
C101	C	0.544376	-0.061415	0.609885
C102	C	0.877709	0.271919	0.943218
C103	C	0.243654	-0.351894	0.323384
C104	C	0.576988	-0.018561	0.656717
C105	C	0.910321	0.314773	0.990050
C106	C	0.873021	-0.534069	0.315553
C107	C	1.206355	-0.200735	0.648886
C108	C	1.539688	0.132598	0.982220
C109	C	0.870210	-0.611998	0.312238
C110	C	1.203544	-0.278665	0.645571
C111	C	1.536877	0.054668	0.978904
C112	C	0.907157	-0.650445	0.355556
C113	C	1.240490	-0.317112	0.688889
C114	C	1.573823	0.016221	1.022223
C115	C	0.904513	-0.723669	0.352442
C116	C	1.237846	-0.390336	0.685776
C117	C	1.571179	-0.057002	1.019109
C118	C	0.864926	-0.758444	0.306006
C119	C	1.198259	-0.425110	0.639339
C120	C	1.531592	-0.091777	0.972673
C121	C	0.827975	-0.719992	0.262686
C122	C	1.161309	-0.386658	0.596019
C123	C	1.494642	-0.053325	0.929352
C124	C	0.830616	-0.646770	0.265803
C125	C	1.163950	-0.313436	0.599137
C126	C	1.497283	0.019897	0.932470
C127	C	0.855034	-0.979435	0.294350
C128	C	1.188368	-0.646102	0.627683
C129	C	1.521701	-0.312768	0.961017
C130	C	0.852398	-1.052662	0.291234
C131	C	1.185731	-0.719329	0.624567
C132	C	1.519064	-0.385995	0.957901
C133	C	0.928934	-1.056334	0.380992
C134	C	1.262268	-0.723001	0.714325
C135	C	1.595601	-0.389668	1.047659
C136	C	0.931575	-0.983111	0.384103
C137	C	1.264908	-0.649777	0.717436
C138	C	1.598241	-0.316444	1.050769
C139	C	0.894622	-0.944665	0.340785
C140	C	1.227955	-0.611332	0.674118
C141	C	1.561289	-0.277998	1.007452
C142	C	0.862224	-0.833290	0.302820
C143	C	1.195557	-0.499956	0.636154
C144	C	1.528890	-0.166623	0.969487
C145	C	0.897321	-0.869821	0.343975
C146	C	1.230654	-0.536487	0.677308
C147	C	1.563988	-0.203154	1.010641
C148	C	1.043148	-0.351876	0.323379
C149	C	1.376481	-0.018542	0.656712
C150	C	1.709814	0.314791	0.990045
C151	C	1.112789	-0.351862	0.323388
C152	C	1.446122	-0.018528	0.656721
C153	C	1.779456	0.314805	0.990055
C154	C	0.872500	-0.359667	0.506215
C155	C	1.205833	-0.026334	0.839548
C156	C	1.539166	0.307000	1.172882
C157	C	0.869421	-0.362973	0.584138
C158	C	1.202754	-0.029640	0.917471
C159	C	1.536088	0.303693	1.250805
C160	C	0.886469	-0.169038	0.331207
C161	C	1.219803	0.164296	0.664541
C162	C	1.553136	0.497629	0.997874
C163	C	0.889344	-0.091109	0.334553
C164	C	1.222677	0.242224	0.667886
C165	C	1.556010	0.575558	1.001219
C166	C	0.886958	-0.344129	0.141213
C167	C	1.220292	-0.010796	0.474546
C168	C	1.553625	0.322537	0.807880
C169	C	0.890165	-0.340626	0.063299
C170	C	1.223499	-0.007292	0.396632
C171	C	1.556832	0.326041	0.729965
C172	C	0.909696	-0.319683	0.622678
C173	C	1.243029	0.013650	0.956011
C174	C	1.576362	0.346983	1.289344
C175	C	0.906795	-0.322787	0.695895
C176	C	1.240129	0.010546	1.029228
C177	C	1.573462	0.343880	1.362561
C178	C	0.863623	-0.369185	0.730571
C179	C	1.196956	-0.035852	1.063904
C180	C	1.530290	0.297481	1.397238
C181	C	0.823344	-0.412477	0.692026
C182	C	1.156677	-0.079144	1.025359
C183	C	1.490011	0.254189	1.358693
C184	C	0.826242	-0.409369	0.618810
C185	C	1.159575	-0.076036	0.952144
C186	C	1.492908	0.257297	1.285477
C187	C	0.852784	-0.380810	0.951538
C188	C	1.186117	-0.047476	1.284872
C189	C	1.519451	0.285857	1.618205
C190	C	0.849891	-0.383916	1.024759
C191	C	1.183224	-0.050582	1.358092
C192	C	1.516557	0.282751	1.691426
C193	C	0.933342	-0.294224	1.028623
C194	C	1.266675	0.039109	1.361956
C195	C	1.600008	0.372442	1.695289
C196	C	0.936238	-0.291123	0.955405
C197	C	1.269571	0.042210	1.288739
C198	C	1.602905	0.375543	1.622072
C199	C	0.895957	-0.334413	0.916867
C200	C	1.229290	-0.001079	1.250201
C201	C	1.562623	0.332254	1.583534
C202	C	0.860659	-0.372361	0.805410
C203	C	1.193992	-0.039027	1.138744
C204	C	1.527326	0.294306	1.472077
C205	C	0.898918	-0.331233	0.842029
C206	C	1.232252	0.002100	1.175362
C207	C	1.565585	0.335433	1.508696
H208	H	0.443259	-0.237775	0.338495
H209	H	0.776592	0.095558	0.671829
H210	H	1.109926	0.428891	1.005162
Br211	Br	0.307945	-0.203585	0.343031
Br212	Br	0.641279	0.129748	0.676364
Br213	Br	0.974612	0.463081	1.009697
Br214	Br	0.968294	-0.256716	0.575624
Br215	Br	1.301628	0.076617	0.908957
Br216	Br	1.634961	0.409950	1.242291
H217	H	0.237394	-0.274126	0.408340
H218	H	0.570728	0.059208	0.741673
H219	H	0.904061	0.392541	1.075006
Br220	Br	0.804876	-0.927268	0.235570
Br221	Br	1.138209	-0.593935	0.568904
Br222	Br	1.471542	-0.260601	0.902237
Br223	Br	0.297909	-0.500228	0.303734
Br224	Br	0.631242	-0.166895	0.637067
Br225	Br	0.964575	0.166439	0.970400
Br226	Br	0.504502	-0.250914	0.433734
Br227	Br	0.837835	0.082420	0.767067
Br228	Br	1.171169	0.415753	1.100400
H229	H	0.934603	-0.754969	0.387711
H230	H	1.267937	-0.421636	0.721045
H231	H	1.601270	-0.088303	1.054378
H232	H	0.795740	-0.748311	0.224879
H233	H	1.129073	-0.414978	0.558212
H234	H	1.462407	-0.081644	0.891546
Br235	Br	0.985303	-0.935921	0.447125
Br236	Br	1.318636	-0.602588	0.780459
Br237	Br	1.651969	-0.269255	1.113792
H238	H	0.939395	-0.622137	0.393366
H239	H	1.272729	-0.288803	0.726700
H240	H	1.606062	0.044530	1.060033
Br241	Br	0.771577	-0.468119	0.566506
Br242	Br	1.104911	-0.134785	0.899839
Br243	Br	1.438244	0.198548	1.233172
H244	H	0.820158	-1.080974	0.253419
H245	H	1.153491	-0.747640	0.586753
H246	H	1.486825	-0.414307	0.920086
Br247	Br	0.988005	-0.235476	1.080928
Br248	Br	1.321338	0.097857	1.414261
Br249	Br	1.654672	0.431190	1.747595
Br250	Br	0.961485	-0.264066	0.748195
Br251	Br	1.294818	0.069267	1.081528
Br252	Br	1.628151	0.402601	1.414861
Br253	Br	0.791294	-0.446887	1.071820
Br254	Br	1.124627	-0.113553	1.405153
Br255	Br	1.457960	0.219780	1.738486
H256	H	0.435532	-0.466096	0.308235
H257	H	0.768866	-0.132763	0.641569
H258	H	1.102199	0.200570	0.974902
H259	H	0.959018	-1.087645	0.416260
H260	H	1.292352	-0.754311	0.749593
H261	H	1.625685	-0.420978	1.082926
H262	H	0.522684	-0.429710	0.238396
H263	H	0.856018	-0.096376	0.571730
H264	H	1.189351	0.236957	0.905063
H265	H	0.800530	-0.615467	0.230530
H266	H	1.133863	-0.282133	0.563863
H267	H	1.467197	0.051200	0.897196
Br268	Br	0.951039	-0.822625	0.406999
Br269	Br	1.284373	-0.489292	0.740332
Br270	Br	1.617706	-0.155959	1.073666
Br271	Br	0.802071	-0.435330	0.852477
Br272	Br	1.135404	-0.101996	1.185810
Br273	Br	1.468737	0.231337	1.519143
H274	H	0.788190	-0.450253	0.720265
H275	H	1.121523	-0.116920	1.053599
H276	H	1.454857	0.216413	1.386932
Br277	Br	0.658736	-0.250952	0.433730
Br278	Br	0.992069	0.082382	0.767064
Br279	Br	1.325403	0.415715	1.100397
Br280	Br	0.994833	-0.228154	0.908350
Br281	Br	1.328167	0.105179	1.241683
Br282	Br	1.661500	0.438512	1.575016
H283	H	0.118688	-0.274096	0.408343
H284	H	0.452022	0.059238	0.741676
H285	H	0.785355	0.392571	1.075009
H286	H	0.641398	-0.429733	0.238375
H287	H	0.974731	-0.096400	0.571708
H288	H	1.308064	0.236934	0.905042
H289	H	0.829994	-0.861612	0.265010
H290	H	1.163327	-0.528278	0.598343
H291	H	1.496660	-0.194945	0.931676
H292	H	0.119049	-0.429630	0.238432
H293	H	0.452383	-0.096296	0.571765
H294	H	0.785716	0.237037	0.905099
H295	H	0.819993	-0.416069	0.920169
H296	H	1.153326	-0.082736	1.253502
H297	H	1.486660	0.250597	1.586835
H298	H	0.237759	-0.429655	0.238420
H299	H	0.571093	-0.096322	0.571753
H300	H	0.904426	0.237012	0.905087
H301	H	0.934067	-0.293453	0.813793
H302	H	1.267400	0.039880	1.147126
H303	H	1.600733	0.373213	1.480459
