data_functionalizedCrystal
_audit_creation_method	'MofGen! by Chris Wilmer'
_symmetry_space_group_name_H-M	'P1'
_symmetry_Int_Tables_number	1
_symmetry_cell_setting	triclinic
loop_
_symmetry_equiv_pos_as_xyz
  x,y,z
_cell_length_a	14.628931
_cell_length_b	19.902436
_cell_length_c	19.902436
_cell_angle_alpha	90.002400
_cell_angle_beta	120.006691
_cell_angle_gamma	59.996772
loop_
_atom_site_label
_atom_site_type_symbol
_atom_site_fract_x
_atom_site_fract_y
_atom_site_fract_z
Zr1	Zr	1.000493	0.647319	0.088130
O2	O	1.191236	0.540026	0.195432
O3	O	0.809776	0.680210	0.055236
O4	O	1.000508	0.680209	0.195420
O5	O	1.000484	0.540027	-0.055332
O6	O	1.000490	0.790788	0.195411
O7	O	1.000504	0.540027	0.055248
O8	O	0.659305	0.790789	-0.055353
O9	O	1.341668	0.540026	0.195432
O10	O	0.888198	0.776761	0.041200
O11	O	0.888196	0.694238	-0.041317
O12	O	1.112758	0.694237	0.123732
O13	O	1.112756	0.611713	0.041214
Zr14	Zr	1.000432	0.823680	-0.088246
Zr15	Zr	1.000465	0.823679	0.088116
Zr16	Zr	1.000460	0.647319	-0.088232
Zr17	Zr	1.240415	0.647318	0.088130
Zr18	Zr	0.760510	0.823680	-0.088247
O19	O	1.191150	0.790789	-0.055352
O20	O	1.191196	0.790788	0.195412
O21	O	1.191190	0.540027	-0.055332
O22	O	0.809689	0.930973	-0.195549
O23	O	0.809736	0.930972	0.055216
O24	O	0.809729	0.680211	-0.195528
O25	O	1.000441	0.930971	0.055216
O26	O	1.000418	0.790789	-0.195537
O27	O	1.000435	0.680211	-0.195528
O28	O	1.000421	0.930972	-0.055364
O29	O	1.341646	0.680209	0.195421
O30	O	0.659279	0.790790	-0.195537
O31	O	0.659257	0.930973	-0.195549
O32	O	0.659283	0.930972	-0.055365
O33	O	1.341642	0.540026	0.055248
O34	O	1.341620	0.680209	0.055237
O35	O	0.888167	0.776762	-0.123848
O36	O	0.888169	0.859285	-0.041331
O37	O	1.112729	0.776761	0.041201
O38	O	1.112727	0.694237	-0.041317
C39	C	0.700357	0.735500	-0.000059
C40	C	0.598504	0.735500	-0.000059
C41	C	0.631874	0.677605	0.057841
C42	C	0.526605	0.677604	0.057842
C43	C	1.000498	0.514899	-0.000040
C44	C	1.000510	0.440030	-0.000034
C45	C	1.000446	0.168028	-0.000066
C46	C	1.142103	0.144460	0.051747
C47	C	1.142192	0.222298	0.052034
C48	C	1.000479	0.302971	-0.000050
C49	C	0.930141	0.300559	0.037912
C50	C	0.931047	0.222332	0.038295
C51	C	0.928114	0.223320	-0.089865
C52	C	0.930776	0.300241	-0.089727
C53	C	1.000490	0.379238	-0.000042
C54	C	1.000431	0.091762	-0.000072
C55	C	1.300568	0.735499	-0.000058
C56	C	1.402422	0.735499	-0.000058
C57	C	1.000503	0.735498	0.220544
C58	C	1.000517	0.735498	0.295414
C59	C	1.000427	0.956099	-0.000076
C60	C	1.000415	1.030969	-0.000082
C61	C	1.000503	0.735494	0.432479
C62	C	1.142151	0.683439	0.513055
C63	C	1.142212	0.683159	0.590948
C64	C	1.000490	0.735489	0.567429
C65	C	0.929747	0.697798	0.513149
C66	C	0.930678	0.697407	0.435596
C67	C	0.928572	0.825268	0.434747
C68	C	0.931214	0.825130	0.513618
C69	C	1.000476	0.735487	0.643695
C70	C	1.000513	0.735493	0.356212
C71	C	1.000439	0.735496	0.779346
C72	C	1.000476	0.735485	0.704494
C73	C	0.700321	0.956100	-0.000077
C74	C	0.598456	1.030969	-0.000083
C75	C	0.700316	0.735501	-0.220661
C76	C	0.598449	0.735501	-0.295531
C77	C	0.700281	0.956101	-0.220679
C78	C	0.598402	1.030971	-0.295555
C79	C	1.300645	0.514898	0.220562
C80	C	1.402524	0.440028	0.295439
C81	C	1.300604	0.514899	-0.000040
C82	C	1.402469	0.440029	-0.000034
C83	C	1.300609	0.735498	0.220544
C84	C	1.402476	0.735497	0.295415
C85	C	0.550634	1.023052	0.043002
C86	C	0.454934	1.093394	0.043013
C87	C	0.407052	1.171651	-0.000067
C88	C	0.454883	1.179567	-0.043153
C89	C	0.550588	1.109226	-0.043158
C90	C	0.550596	0.778578	-0.373779
C91	C	0.454895	0.778575	-0.444134
C92	C	0.407041	0.735500	-0.436240
C93	C	0.454903	0.692418	-0.357984
C94	C	0.550610	0.692416	-0.287631
C95	C	0.550559	1.109214	-0.287645
C96	C	0.454846	1.179569	-0.357992
C97	C	0.406971	1.171679	-0.436250
C98	C	0.454823	1.093427	-0.444159
C99	C	0.550541	1.023074	-0.373812
C100	C	1.450378	0.361784	0.287528
C101	C	1.546120	0.291429	0.357876
C102	C	1.594001	0.299319	0.436133
C103	C	1.546143	0.377571	0.444042
C104	C	1.450408	0.447925	0.373695
C105	C	1.450301	0.447946	-0.043111
C106	C	1.546027	0.377605	-0.043102
C107	C	1.593913	0.299347	-0.000020
C108	C	1.546077	0.291432	0.043063
C109	C	1.450359	0.361772	0.043058
C110	C	1.450300	0.778581	0.287494
C111	C	1.546002	0.778597	0.357836
C112	C	1.593885	0.735524	0.436098
C113	C	1.546053	0.692439	0.444017
C114	C	1.450346	0.692428	0.373676
H115	H	1.197660	0.221020	0.026769
H116	H	1.585139	0.383986	0.507768
H117	H	0.415895	1.243279	-0.351538
Br118	Br	0.389958	0.837049	-0.550328
Br119	Br	1.385469	0.554110	0.384446
Br120	Br	0.389882	1.285780	-0.101617
H121	H	1.411399	0.355344	0.223813
Br122	Br	0.615513	0.837049	-0.384515
Br123	Br	0.277153	0.735510	-0.531730
Br124	Br	0.756004	0.758028	0.480076
H125	H	1.197438	0.104548	0.117589
Br126	Br	1.234293	0.572779	0.655862
H127	H	1.197194	0.617609	0.513714
H128	H	0.589559	0.657340	-0.223920
Br129	Br	0.389944	0.633962	-0.347285
H130	H	0.978296	0.632379	0.550505
H131	H	1.411419	0.657341	0.380136
H132	H	0.589481	0.959367	-0.380264
H133	H	1.584937	0.813680	0.351372
Br134	Br	0.615471	1.119986	-0.101642
H135	H	0.589525	1.115654	-0.223930
H136	H	1.671853	0.242078	-0.000023
Br137	Br	0.277067	1.267168	-0.531714
Br138	Br	1.385338	0.554144	-0.101584
H139	H	0.374017	0.785064	-0.049633
Br140	Br	0.389836	1.082733	-0.550372
Br141	Br	0.420994	0.818122	-0.082677
Br142	Br	1.234772	0.079176	0.009527
H143	H	0.738377	0.628043	0.107412
H144	H	1.585070	0.227720	0.351420
H145	H	0.555000	0.628037	0.107410
H146	H	1.671953	0.242026	0.493408
H147	H	1.584959	0.384066	-0.078189
H148	H	0.982061	0.299864	-0.118087
H149	H	1.197729	0.220523	0.118275
Br150	Br	1.385336	0.837045	0.181291
H151	H	1.585081	0.227705	0.078139
Br152	Br	1.011583	0.303143	0.147002
Br153	Br	1.385450	0.351013	0.101522
H154	H	0.981048	0.185789	0.104375
H155	H	0.827115	0.241680	0.002997
H156	H	0.974210	0.856786	0.431875
Br157	Br	0.756469	0.395249	-0.021960
H158	H	1.671817	0.735538	0.493368
H159	H	1.585055	0.657369	0.507747
Br160	Br	1.013488	0.587317	0.435751
Br161	Br	0.758432	0.395996	-0.159484
Br162	Br	0.754179	0.256535	-0.154509
Br163	Br	1.003636	0.162794	-0.142727
H164	H	0.416001	1.086933	0.078098
Br165	Br	1.234700	0.725243	0.656815
Br166	Br	1.235338	0.725300	0.516085
H167	H	0.826735	0.732886	0.378529
H168	H	0.982799	0.853291	0.551063
H169	H	0.827851	0.867157	0.495086
H170	H	0.589619	0.959337	0.078093
H171	H	0.824223	0.864228	0.377956
Br172	Br	0.277165	1.267106	-0.000051
