data_functionalizedCrystal
_audit_creation_method	'MofGen! by Chris Wilmer'
_symmetry_space_group_name_H-M	'P1'
_symmetry_Int_Tables_number	1
_symmetry_cell_setting	triclinic
loop_
_symmetry_equiv_pos_as_xyz
  x,y,z
_cell_length_a	27.731994
_cell_length_b	10.654550
_cell_length_c	9.130313
_cell_angle_alpha	89.999890
_cell_angle_beta	90.005878
_cell_angle_gamma	83.552718
loop_
_atom_site_label
_atom_site_type_symbol
_atom_site_fract_x
_atom_site_fract_y
_atom_site_fract_z
O1	O	0.641870	0.149086	-0.121587
O2	O	0.501215	0.171876	-0.121635
O3	O	0.574776	-0.022395	-0.121605
O4	O	0.568309	0.343358	-0.121618
O5	O	0.574776	-0.022390	0.121994
O6	O	0.501214	0.171882	0.121963
O7	O	0.641869	0.149092	0.122011
Cu8	Cu	0.571541	0.160487	0.144230
Cu9	Cu	0.571543	0.160481	-0.143854
O10	O	0.568308	0.343363	0.121981
C11	C	0.483204	0.171411	0.000158
C12	C	0.429539	0.170002	0.000139
C13	C	0.574301	-0.069171	0.000193
C14	C	0.572880	-0.208553	0.000187
C15	C	0.616192	-0.289882	0.000206
C16	C	0.614854	-0.420846	0.000196
C17	C	0.526889	-0.389140	0.000153
C18	C	0.528227	-0.258179	0.000153
C19	C	0.666978	-0.308188	0.000237
C20	C	0.665640	-0.439152	0.000227
C21	C	0.096765	0.161132	0.132982
C22	C	-0.104927	0.155776	0.132999
O23	O	-0.131004	0.155032	0.245928
N24	N	-0.130145	0.155108	0.000213
C25	C	-0.104937	0.155771	-0.132586
O26	O	-0.131015	0.155067	-0.245528
C27	C	0.096754	0.161118	-0.132601
C28	C	0.121969	0.161798	0.000193
C29	C	0.121980	0.161811	0.265765
C30	C	0.172400	0.163157	0.265760
C31	C	0.197604	0.163823	0.132971
C32	C	0.172388	0.163144	0.000187
C33	C	0.121961	0.161771	-0.265399
C34	C	0.172387	0.163105	-0.265391
C35	C	0.197602	0.163785	-0.132597
C36	C	0.248012	0.165156	-0.132607
N37	N	0.273231	0.165824	0.000178
C38	C	0.248026	0.165158	0.132967
C39	C	-0.210828	0.152966	-0.132569
C40	C	-0.261251	0.151632	-0.132565
C41	C	-0.261237	0.151635	0.133020
C42	C	-0.210813	0.152978	0.133015
C43	C	-0.185610	0.153634	0.000217
C44	C	0.353911	0.167985	0.132946
C45	C	0.404335	0.169336	0.132928
C46	C	0.404316	0.169326	-0.132656
C47	C	0.353897	0.167982	-0.132640
C48	C	0.328696	0.167307	0.000173
O49	O	0.274122	0.165887	-0.245477
O50	O	0.274114	0.165834	0.245892
C51	C	0.046345	0.159786	0.132987
C52	C	0.021130	0.159107	0.000204
C53	C	0.046334	0.159773	-0.132585
C54	C	-0.029293	0.157772	0.000207
C55	C	-0.054497	0.157106	0.132996
C56	C	-0.029278	0.157774	0.265782
C57	C	0.021141	0.159120	0.265776
C58	C	0.021116	0.159105	-0.265371
C59	C	-0.029304	0.157761	-0.265354
C60	C	-0.054508	0.157095	-0.132565
C61	C	0.659880	0.149557	0.000215
C62	C	0.713545	0.150966	0.000224
C63	C	0.568783	0.390139	0.000180
C64	C	0.570204	0.529521	0.000176
N65	N	0.571544	0.160490	0.346853
N66	N	0.571544	0.160467	-0.346477
C67	C	0.604126	0.074496	0.423518
C68	C	0.604124	0.074481	0.576855
C69	C	0.538959	0.246466	0.576847
C70	C	0.538958	0.246474	0.423513
C71	C	0.641750	-0.024796	0.423524
C72	C	0.641749	-0.024811	0.576861
H73	H	0.492958	-0.191965	0.000117
H74	H	0.630006	-0.115534	0.624406
C75	C	0.691914	0.002221	0.633106
N76	N	0.729693	0.022619	0.675469
H77	H	0.684776	-0.481724	0.102177
H78	H	0.041667	0.159674	0.373911
C79	C	0.432069	0.170079	0.279018
N80	N	0.452957	0.170634	0.389051
C81	C	0.326196	0.167255	0.279047
N82	N	0.305321	0.166716	0.389090
H83	H	0.686843	-0.279677	-0.101694
H84	H	-0.281766	0.151095	0.241142
C85	C	0.200131	0.163887	0.411846
N86	N	0.221015	0.164429	0.521885
H87	H	0.680989	-0.485450	-0.104947
C88	C	0.094263	0.161095	0.411857
N89	N	0.073389	0.160571	0.521903
H90	H	-0.049831	0.157217	-0.373499
H91	H	-0.190287	0.153534	0.241148
H92	H	-0.049809	0.157238	0.373904
H93	H	-0.190312	0.153500	-0.240715
H94	H	0.683150	-0.273247	0.105424
C95	C	0.689159	0.014502	0.359282
N96	N	0.724868	0.044102	0.310895
H97	H	0.633498	-0.120977	0.381904
C98	C	-0.288982	0.150894	-0.278649
N99	N	-0.309868	0.150327	-0.388685
C100	C	0.503115	0.341042	0.661188
N101	N	0.476116	0.412278	0.724712
H102	H	0.101439	0.161215	-0.373535
C103	C	0.326159	0.167247	-0.278719
N104	N	0.305270	0.166683	-0.388749
H105	H	0.192905	0.163640	-0.373534
H106	H	0.490533	-0.429561	0.000123
H107	H	0.424847	0.169874	-0.240769
H108	H	0.041632	0.159644	-0.373506
C109	C	0.503153	0.341170	0.339187
N110	N	0.476198	0.412537	0.275672
