data_functionalizedCrystal
_audit_creation_method	'MofGen! by Chris Wilmer'
_symmetry_space_group_name_H-M	'P1'
_symmetry_Int_Tables_number	1
_symmetry_cell_setting	triclinic
loop_
_symmetry_equiv_pos_as_xyz
  x,y,z
_cell_length_a	15.944551
_cell_length_b	11.792241
_cell_length_c	10.868271
_cell_angle_alpha	89.999850
_cell_angle_beta	90.000173
_cell_angle_gamma	83.846077
loop_
_atom_site_label
_atom_site_type_symbol
_atom_site_fract_x
_atom_site_fract_y
_atom_site_fract_z
O1	O	1.115184	0.146380	-0.102180
O2	O	1.615184	0.646380	0.397820
O3	O	0.870716	0.164428	-0.102209
O4	O	1.370716	0.664428	0.397791
O5	O	0.998883	-0.009815	-0.102201
O6	O	1.498883	0.490185	0.397799
O7	O	0.987018	0.320623	-0.102188
O8	O	1.487018	0.820623	0.397812
O9	O	0.998872	-0.009822	0.102443
O10	O	1.498872	0.490178	0.602443
O11	O	0.870706	0.164421	0.102436
O12	O	1.370706	0.664421	0.602436
O13	O	1.115174	0.146374	0.102465
O14	O	1.615174	0.646374	0.602465
Zn15	Zn	0.992938	0.155396	0.134942
Zn16	Zn	1.492938	0.655396	0.634942
Zn17	Zn	0.992952	0.155405	-0.134686
Zn18	Zn	1.492952	0.655405	0.365314
O19	O	0.987007	0.320617	0.102457
O20	O	1.487007	0.820617	0.602457
C21	C	0.839414	0.163675	0.000109
C22	C	1.339414	0.663675	0.500109
C23	C	0.746157	0.161429	0.000098
C24	C	1.246157	0.661429	0.500098
C25	C	0.998132	-0.052104	0.000116
C26	C	1.498132	0.447896	0.500116
C27	C	0.995901	-0.178099	0.000103
C28	C	1.495901	0.321901	0.500103
N29	N	0.992935	0.155389	0.318956
N30	N	1.492935	0.655389	0.818956
C31	C	0.530789	0.048056	0.000117
C32	C	1.030789	0.548056	0.500117
C33	C	0.470012	0.100706	-0.100782
C34	C	0.970012	0.600706	0.399218
C35	C	0.575413	0.157365	0.000112
C36	C	1.075413	0.657365	0.500112
C37	C	0.470024	0.100725	0.100982
C38	C	0.970024	0.600725	0.600982
C39	C	0.410483	0.153432	0.000131
C40	C	0.910483	0.653432	0.500131
C41	C	0.515864	0.210045	-0.100870
C42	C	1.015864	0.710045	0.399130
C43	C	0.515882	0.210049	0.100984
C44	C	1.015882	0.710049	0.600984
C45	C	0.455123	0.262778	0.000061
C46	C	0.955123	0.762778	0.500061
C47	C	0.670426	0.159628	0.000100
C48	C	1.170426	0.659628	0.500100
C49	C	0.315471	0.151178	0.000135
C50	C	0.815471	0.651178	0.500135
C51	C	1.146476	0.147126	0.000143
C52	C	1.646476	0.647126	0.500143
C53	C	1.239733	0.149372	0.000147
C54	C	1.739733	0.649372	0.500147
C55	C	0.987758	0.362905	0.000136
C56	C	1.487758	0.862905	0.500136
C57	C	0.989989	0.488900	0.000142
C58	C	1.489989	0.988900	0.500142
C59	C	0.994091	0.719579	0.000111
C60	C	1.494091	1.219579	0.500111
C61	C	0.991811	0.591212	0.000128
C62	C	1.491811	1.091212	0.500128
N63	N	0.992962	0.155403	-0.318700
N64	N	1.492962	0.655403	0.181300
C65	C	0.992948	0.155403	0.569962
C66	C	1.492948	0.655403	1.069962
C67	C	0.992938	0.155399	0.430284
C68	C	1.492938	0.655399	0.930284
H69	H	0.449697	0.054475	-0.186088
H70	H	0.949697	0.554475	0.313912
H71	H	0.449724	0.054469	0.186281
H72	H	0.949724	0.554469	0.686281
H73	H	0.422374	0.353590	0.000009
H74	H	0.922374	0.853590	0.500009
N75	N	0.542835	0.271256	0.213965
N76	N	1.042835	0.771256	0.713965
H77	H	0.514187	0.351907	0.214758
H78	H	1.014187	0.851907	0.714758
H79	H	0.526351	0.229819	0.290097
H80	H	1.026351	0.729819	0.790097
N81	N	0.542606	0.271239	-0.213996
N82	N	1.042606	0.771239	0.286004
H83	H	0.571627	0.339541	-0.188410
H84	H	1.071627	0.839541	0.311590
H85	H	0.582776	0.217627	-0.264133
H86	H	1.082776	0.717627	0.235867
N87	N	0.574360	-0.072129	0.000001
N88	N	1.074360	0.427871	0.500001
H89	H	0.557796	-0.113272	-0.076290
H90	H	1.057796	0.386728	0.423710
H91	H	0.637480	-0.069687	0.000829
H92	H	1.137480	0.430313	0.500829
