data_functionalizedCrystal
_audit_creation_method	'MofGen! by Chris Wilmer'
_symmetry_space_group_name_H-M	'P1'
_symmetry_Int_Tables_number	1
_symmetry_cell_setting	triclinic
loop_
_symmetry_equiv_pos_as_xyz
  x,y,z
_cell_length_a	14.519710
_cell_length_b	14.519731
_cell_length_c	13.596369
_cell_angle_alpha	89.993029
_cell_angle_beta	90.004381
_cell_angle_gamma	96.315501
loop_
_atom_site_label
_atom_site_type_symbol
_atom_site_fract_x
_atom_site_fract_y
_atom_site_fract_z
O1	O	1.223878	-0.120892	0.081772
O2	O	1.557211	0.212442	0.415105
O3	O	1.890544	0.545775	0.748439
O4	O	0.955402	-0.135128	0.081779
O5	O	1.288735	0.198205	0.415112
O6	O	1.622069	0.531539	0.748446
O7	O	1.096748	0.006227	0.081766
O8	O	1.430081	0.339561	0.415100
O9	O	1.763414	0.672894	0.748433
O10	O	1.082532	-0.262247	0.081785
O11	O	1.415865	0.071086	0.415118
O12	O	1.749198	0.404420	0.748451
O13	O	1.096734	0.006235	-0.081816
O14	O	1.430067	0.339568	0.251517
O15	O	1.763400	0.672902	0.584850
O16	O	0.955388	-0.135120	-0.081804
O17	O	1.288721	0.198213	0.251530
O18	O	1.622054	0.531546	0.584863
O19	O	1.223864	-0.120884	-0.081811
O20	O	1.557197	0.212449	0.251523
O21	O	1.890530	0.545783	0.584856
Zn22	Zn	1.089623	-0.128001	-0.107780
Zn23	Zn	1.422957	0.205332	0.225554
Zn24	Zn	1.756290	0.538666	0.558887
Zn25	Zn	1.089642	-0.128011	0.107748
Zn26	Zn	1.422975	0.205322	0.441081
Zn27	Zn	1.756309	0.538656	0.774415
O28	O	1.082518	-0.262239	-0.081798
O29	O	1.415851	0.071094	0.251535
O30	O	1.749184	0.404427	0.584869
C31	C	0.921035	-0.134461	-0.000012
C32	C	1.254368	0.198873	0.333322
C33	C	1.587702	0.532206	0.666655
C34	C	0.818654	-0.132473	-0.000009
C35	C	1.151987	0.200861	0.333324
C36	C	1.485320	0.534194	0.666657
N37	N	1.089617	-0.127994	-0.254871
N38	N	1.422951	0.205340	0.078462
N39	N	1.756284	0.538673	0.411795
C40	C	1.096075	0.040591	-0.000025
C41	C	1.429408	0.373924	0.333308
C42	C	1.762741	0.707257	0.666642
C43	C	1.094079	0.142971	-0.000026
C44	C	1.427412	0.476304	0.333308
C45	C	1.760745	0.809637	0.666641
C46	C	1.258230	-0.121551	-0.000018
C47	C	1.591564	0.211782	0.333315
C48	C	1.924897	0.545115	0.666649
C49	C	1.360612	-0.123539	-0.000014
C50	C	1.693945	0.209794	0.333319
C51	C	2.027279	0.543127	0.666653
C52	C	1.735508	-0.130859	-0.000013
C53	C	2.068842	0.202474	0.333320
C54	C	2.402175	0.535808	0.666654
C55	C	1.631200	-0.128826	-0.000013
C56	C	1.964533	0.204507	0.333321
C57	C	2.297867	0.537840	0.666654
C58	C	1.548063	-0.127199	-0.000012
C59	C	1.881397	0.206134	0.333321
C60	C	2.214730	0.539467	0.666654
C61	C	1.443749	-0.125166	-0.000014
C62	C	1.777082	0.208167	0.333319
C63	C	2.110415	0.541500	0.666652
C64	C	1.083191	-0.296603	-0.000004
C65	C	1.416524	0.036731	0.333329
C66	C	1.749858	0.370064	0.666662
C67	C	1.085187	-0.398983	0.000003
C68	C	1.418520	-0.065649	0.333336
C69	C	1.751854	0.267684	0.666669
C70	C	1.092457	0.226115	-0.000023
C71	C	1.425790	0.559448	0.333310
C72	C	1.759123	0.892782	0.666643
C73	C	1.090430	0.330424	-0.000016
C74	C	1.423763	0.663757	0.333318
C75	C	1.757097	0.997090	0.666651
C76	C	1.088822	0.413563	-0.000009
C77	C	1.422155	0.746896	0.333324
C78	C	1.755488	1.080229	0.666657
C79	C	1.086795	0.517878	-0.000004
C80	C	1.420129	0.851211	0.333330
C81	C	1.753462	1.184545	0.666663
C82	C	1.089641	-0.128012	-0.656162
C83	C	1.422974	0.205321	-0.322829
C84	C	1.756307	0.538655	0.010504
C85	C	1.089632	-0.128010	-0.544511
C86	C	1.422965	0.205323	-0.211178
C87	C	1.756298	0.538657	0.122156
C88	C	1.089630	-0.128004	-0.455520
C89	C	1.422963	0.205330	-0.122187
C90	C	1.756296	0.538663	0.211146
C91	C	1.089619	-0.128000	-0.343862
C92	C	1.422953	0.205333	-0.010529
C93	C	1.756286	0.538666	0.322805
N94	N	1.089655	-0.128011	0.254840
N95	N	1.422989	0.205322	0.588173
N96	N	1.756322	0.538656	0.921506
