data_functionalizedCrystal
_audit_creation_method	'MofGen! by Chris Wilmer'
_symmetry_space_group_name_H-M	'P1'
_symmetry_Int_Tables_number	1
_symmetry_cell_setting	triclinic
loop_
_symmetry_equiv_pos_as_xyz
  x,y,z
_cell_length_a	12.759395
_cell_length_b	25.639240
_cell_length_c	25.639234
_cell_angle_alpha	90.032088
_cell_angle_beta	90.017120
_cell_angle_gamma	90.032603
loop_
_atom_site_label
_atom_site_type_symbol
_atom_site_fract_x
_atom_site_fract_y
_atom_site_fract_z
Zn1	Zn	1.606113	-0.208185	0.295546
Zn2	Zn	1.605955	-0.295613	0.208099
Zn3	Zn	1.430418	-0.208193	0.208128
Zn4	Zn	1.430348	-0.295591	0.295508
O5	O	1.518208	-0.251895	0.251820
O6	O	1.753113	-0.219788	0.283949
O7	O	1.582633	-0.284029	0.134938
O8	O	1.453820	-0.135027	0.219753
O9	O	1.752997	-0.284021	0.219703
O10	O	1.582902	-0.135021	0.283978
O11	O	1.453667	-0.219802	0.134959
O12	O	1.283388	-0.219781	0.219716
O13	O	1.453700	-0.283983	0.368678
O14	O	1.283336	-0.283992	0.283913
O15	O	1.582834	-0.219767	0.368706
O16	O	1.582565	-0.368775	0.219666
O17	O	1.453547	-0.368759	0.283884
C18	C	1.245241	-0.251885	0.251814
C19	C	1.128464	-0.251893	0.251823
C20	C	1.128566	-0.185115	0.318831
C21	C	1.073755	-0.151733	0.352340
C22	C	0.964034	-0.151742	0.352346
C23	C	0.909120	-0.185136	0.318840
C24	C	0.963930	-0.218519	0.285331
C25	C	1.073654	-0.218507	0.285330
C26	C	0.963829	-0.285293	0.218322
C27	C	1.073550	-0.285288	0.218317
C28	C	0.908915	-0.318688	0.184815
C29	C	0.963725	-0.352074	0.151309
C30	C	1.073453	-0.352063	0.151304
C31	C	1.128361	-0.318670	0.184809
C32	C	1.518060	-0.387738	0.251779
C33	C	1.518093	-0.445852	0.251779
C34	C	1.585455	-0.806173	0.285322
C35	C	1.585486	-0.860778	0.285333
O36	O	1.642583	-0.888979	0.313811
N37	N	1.518354	-0.888134	0.251871
C38	C	1.451180	-0.860884	0.218399
O39	O	1.394081	-0.889167	0.189938
C40	C	1.451144	-0.806281	0.218392
C41	C	1.518288	-0.778927	0.251852
C42	C	1.652592	-0.778819	0.318781
C43	C	1.652562	-0.724219	0.318770
C44	C	1.585395	-0.696972	0.285300
C45	C	1.518258	-0.724326	0.251841
C46	C	1.383965	-0.779031	0.184923
C47	C	1.383935	-0.724424	0.184919
C48	C	1.451078	-0.697070	0.218379
C49	C	1.451061	-0.642479	0.218359
N50	N	1.518193	-0.615122	0.251822
C51	C	1.585360	-0.642369	0.285292
C52	C	1.451258	-0.975555	0.218418
C53	C	1.451298	-1.030157	0.218423
C54	C	1.585603	-1.030047	0.285358
C55	C	1.585568	-0.975444	0.285350
C56	C	1.518390	-0.948198	0.251881
C57	C	1.585293	-0.527704	0.285265
C58	C	1.585260	-0.473099	0.285249
C59	C	1.450951	-0.473214	0.218317
C60	C	1.450987	-0.527814	0.218330
C61	C	1.518162	-0.555058	0.251809
O62	O	1.393990	-0.614243	0.189898
O63	O	1.642439	-0.614079	0.313753
C64	C	1.792242	-0.251906	0.251827
C65	C	1.909019	-0.251911	0.251830
C66	C	1.518277	-0.251872	0.388193
C67	C	1.518306	-0.251861	0.446307
C68	C	1.518386	-0.115522	0.251873
C69	C	1.518462	-0.057408	0.251895
C70	C	1.518201	-0.251881	0.115978
C71	C	1.518375	-0.251744	0.057864
C72	C	1.451183	-0.218356	0.806687
C73	C	1.451188	-0.218347	0.861291
O74	O	1.394065	-0.189917	0.889542
N75	N	1.518341	-0.251779	0.888590
C76	C	1.585484	-0.285228	0.861281
O77	O	1.642603	-0.313664	0.889514
C78	C	1.585473	-0.285239	0.806678
C79	C	1.518323	-0.251801	0.779382
C80	C	1.384038	-0.184921	0.779391
C81	C	1.384034	-0.184930	0.724791
C82	C	1.451175	-0.218374	0.697486
C83	C	1.518319	-0.251810	0.724782
C84	C	1.652610	-0.318690	0.779370
C85	C	1.652592	-0.318699	0.724763
C86	C	1.585443	-0.285260	0.697467
C87	C	1.585456	-0.285263	0.642876
N88	N	1.518304	-0.251830	0.615578
C89	C	1.451163	-0.218386	0.642883
C90	C	1.585503	-0.285201	0.975952
C91	C	1.585521	-0.285187	1.030554
C92	C	1.451223	-0.218307	1.030561
C93	C	1.451211	-0.218318	0.975957
C94	C	1.518350	-0.251768	0.948653
C95	C	1.451160	-0.218407	0.528218
C96	C	1.451165	-0.218417	0.473612
C97	C	1.585459	-0.285299	0.473610
C98	C	1.585458	-0.285287	0.528211
C99	C	1.518300	-0.251839	0.555513
O100	O	1.642547	-0.313680	0.614590
O101	O	1.394044	-0.189959	0.614643
H102	H	1.639940	-0.450829	0.312497
H103	H	1.118478	-0.124543	0.379619
O104	O	0.910336	-0.384565	0.118839
C105	C	0.846837	-0.418371	0.148540
H106	H	0.879930	-0.421659	0.189711
H107	H	0.763698	-0.402210	0.150376
C108	C	0.804432	-0.468648	0.072320
C109	C	0.845083	-0.472690	0.122887
H110	H	0.803345	-0.502155	0.056496
H111	H	0.847209	-0.445872	0.052309
H112	H	0.735153	-0.455179	0.073858
H113	H	0.914364	-0.486153	0.121348
H114	H	0.802317	-0.495470	0.142897
O115	O	1.318645	-0.152506	0.698304
C116	C	1.213928	-0.163923	0.711649
H117	H	1.208583	-0.205691	0.726639
H118	H	1.186515	-0.135889	0.743358
C119	C	1.150357	-0.106541	0.644735
C120	C	1.143791	-0.157843	0.663141
H121	H	1.107091	-0.102789	0.614814
H122	H	1.220907	-0.098848	0.635745
H123	H	1.127514	-0.083186	0.671163
H124	H	1.166646	-0.181197	0.636716
H125	H	1.073243	-0.165540	0.672126
H126	H	1.640126	-0.312527	0.451369
O127	O	1.650639	-0.554083	0.317804
C128	C	1.709860	-0.518222	0.347340
H129	H	1.713497	-0.479316	0.325912
H130	H	1.671332	-0.512396	0.387029
C131	C	1.817218	-0.587257	0.381253
C132	C	1.821691	-0.539474	0.354933
H133	H	1.886199	-0.600367	0.385940
H134	H	1.777317	-0.611418	0.361356
H135	H	1.785106	-0.582396	0.414325
H136	H	1.853790	-0.544337	0.321860
H137	H	1.861600	-0.515314	0.374825
H138	H	1.707233	-0.701950	0.346018
H139	H	1.396484	-0.191185	0.451390
O140	O	1.385623	-0.554367	0.185880
C141	C	1.280894	-0.541046	0.197250
H142	H	1.275536	-0.526003	0.239012
H143	H	1.253449	-0.509385	0.169198
C144	C	1.217385	-0.608061	0.139856
C145	C	1.210804	-0.589589	0.191151
H146	H	1.174148	-0.638003	0.136092
H147	H	1.287943	-0.617035	0.132194
H148	H	1.194516	-0.581673	0.116485
H149	H	1.233685	-0.615974	0.214520
H150	H	1.140248	-0.580620	0.198817
O151	O	1.126530	-0.384542	0.118737
C152	C	1.054529	-0.414005	0.089158
H153	H	0.976330	-0.415852	0.110574
H154	H	1.042847	-0.394800	0.049489
C155	C	1.193339	-0.467370	0.055204
C156	C	1.097296	-0.469641	0.081509
H157	H	1.219720	-0.501688	0.050483
H158	H	1.241849	-0.447519	0.075130
H159	H	1.183591	-0.451364	0.022150
H160	H	1.107048	-0.485641	0.114565
H161	H	1.048789	-0.489496	0.061588
H162	H	1.707288	-0.800998	0.346039
H163	H	1.640241	-0.953175	0.312597
O164	O	1.234943	-0.318744	0.184851
C165	C	1.271578	-0.368873	0.198159
H166	H	1.208351	-0.390530	0.220910
H167	H	1.291005	-0.391465	0.161096
C168	C	1.448422	-0.337258	0.204088
C169	C	1.370768	-0.363856	0.232035
H170	H	1.509610	-0.334164	0.224982
H171	H	1.423742	-0.303485	0.195119
H172	H	1.464598	-0.356088	0.173202
H173	H	1.354584	-0.345022	0.262916
H174	H	1.395448	-0.397625	0.241009
H175	H	1.396475	-0.191170	0.550441
O176	O	1.650695	-1.056543	0.317931
C177	C	1.590850	-1.088138	0.351667
H178	H	1.508093	-1.071712	0.354856
H179	H	1.587268	-1.129532	0.335503
C180	C	1.743753	-1.109096	0.402126
C181	C	1.642112	-1.088918	0.406047
H182	H	1.775375	-1.109580	0.435670
H183	H	1.784073	-1.087811	0.379397
H184	H	1.740754	-1.143590	0.388655
H185	H	1.645113	-1.054423	0.419512
H186	H	1.601793	-1.110197	0.428780
O187	O	1.717664	-0.351248	0.698216
C188	C	1.657801	-0.385011	0.666601
H189	H	1.575050	-0.388231	0.683044
H190	H	1.654203	-0.368853	0.625224
C191	C	1.810687	-0.435412	0.645555
C192	C	1.709054	-0.439371	0.665753
H193	H	1.842304	-0.468943	0.645029
H194	H	1.851020	-0.412664	0.666853
H195	H	1.807675	-0.421945	0.611076
H196	H	1.712068	-0.452831	0.700234
H197	H	1.668723	-0.462122	0.644461
O198	O	1.318696	-0.152505	0.805932
C199	C	1.250810	-0.182255	0.837509
H200	H	1.244269	-0.223441	0.821047
H201	H	1.283283	-0.184040	0.878898
C202	C	1.149658	-0.106121	0.858548
C203	C	1.141618	-0.156705	0.838327
H204	H	1.082305	-0.090360	0.859055
H205	H	1.195396	-0.086077	0.837276
H206	H	1.176724	-0.107616	0.893037
H207	H	1.114566	-0.155210	0.803836
H208	H	1.095872	-0.176748	0.859594
H209	H	1.217907	-0.185102	0.318827
H210	H	1.396634	-1.052424	0.191170
H211	H	1.396557	-0.953374	0.191159
O212	O	1.318637	-0.805514	0.152404
C213	C	1.259369	-0.769745	0.122860
H214	H	1.255704	-0.730810	0.144272
H215	H	1.297875	-0.763950	0.083164
C216	C	1.152064	-0.838919	0.088986
C217	C	1.147555	-0.791100	0.115287
H218	H	1.083093	-0.852092	0.084313
H219	H	1.191996	-0.863018	0.108889
H220	H	1.184157	-0.834083	0.055910
H221	H	1.115475	-0.795938	0.148365
H222	H	1.107615	-0.767003	0.095389
H223	H	0.919407	-0.124556	0.379628
H224	H	1.329227	-0.702244	0.157664
H225	H	1.396268	-0.451021	0.191064
H226	H	1.396533	-0.191089	0.953737
O227	O	1.385874	-0.185898	1.057111
C228	C	1.318009	-0.215665	1.088684
H229	H	1.311478	-0.256846	1.072208
H230	H	1.350496	-0.217461	1.130069
C231	C	1.216836	-0.139548	1.109757
C232	C	1.208807	-0.190126	1.089519
H233	H	1.149476	-0.123793	1.110275
H234	H	1.262559	-0.119492	1.088488
H235	H	1.243912	-0.141052	1.144244
H236	H	1.181744	-0.188621	1.055031
H237	H	1.163076	-0.210180	1.110782
O238	O	1.650836	-0.317708	0.949511
C239	C	1.710083	-0.347220	0.985320
H240	H	1.713746	-0.325793	1.024249
H241	H	1.671560	-0.386926	0.991111
C242	C	1.817394	-0.381082	0.916212
C243	C	1.821899	-0.354762	0.964024
H244	H	1.886366	-0.385737	0.903075
H245	H	1.777475	-0.361201	0.892086
H246	H	1.785287	-0.414168	0.921044
H247	H	1.853994	-0.321675	0.959190
H248	H	1.861826	-0.374638	0.988148
O249	O	1.717868	-0.351225	0.805795
C250	C	1.777128	-0.380735	0.769976
H251	H	1.734078	-0.382540	0.731049
H252	H	1.856950	-0.361598	0.764184
C253	C	1.845063	-0.434166	0.839066
C254	C	1.792183	-0.436387	0.791257
H255	H	1.854354	-0.468494	0.852194
H256	H	1.805142	-0.414284	0.863199
H257	H	1.911575	-0.418217	0.834233
H258	H	1.725667	-0.452330	0.796092
H259	H	1.832094	-0.456273	0.767125
H260	H	0.819779	-0.185137	0.318844
H261	H	1.640212	-0.312410	1.052774
H262	H	0.819574	-0.318691	0.184821
H263	H	1.640148	-0.312510	0.550436
