data_functionalizedCrystal
_audit_creation_method	'MofGen! by Chris Wilmer'
_symmetry_space_group_name_H-M	'P1'
_symmetry_Int_Tables_number	1
_symmetry_cell_setting	triclinic
loop_
_symmetry_equiv_pos_as_xyz
  x,y,z
_cell_length_a	15.944551
_cell_length_b	23.532407
_cell_length_c	14.421503
_cell_angle_alpha	89.999621
_cell_angle_beta	89.996859
_cell_angle_gamma	83.173708
loop_
_atom_site_label
_atom_site_type_symbol
_atom_site_fract_x
_atom_site_fract_y
_atom_site_fract_z
O1	O	1.113910	0.073442	-0.077025
O2	O	0.869284	0.082498	-0.077049
O3	O	0.998974	-0.004933	-0.077019
O4	O	0.984221	0.160873	-0.077055
O5	O	0.998953	-0.004920	0.077204
O6	O	0.869263	0.082511	0.077174
O7	O	1.113889	0.073455	0.077199
Cu8	Cu	0.991574	0.077984	0.091268
Cu9	Cu	0.991599	0.077969	-0.091119
O10	O	0.984199	0.160886	0.077169
C11	C	0.837983	0.082128	0.000060
C12	C	0.744746	0.081001	0.000051
C13	C	0.530369	0.024113	0.000081
C14	C	0.469137	0.050524	-0.075964
C15	C	0.574038	0.078962	0.000063
C16	C	0.469138	0.050550	0.076088
C17	C	0.409142	0.076989	0.000078
C18	C	0.514034	0.105388	-0.076046
C19	C	0.514041	0.105406	0.076075
C20	C	0.452826	0.131856	0.000010
C21	C	0.669030	0.080097	0.000053
C22	C	0.314150	0.075858	0.000081
C23	C	0.998588	-0.026144	0.000095
C24	C	0.997458	-0.089366	0.000102
C25	C	1.067121	-0.488199	0.000058
C26	C	1.066072	-0.547603	0.000051
O27	O	1.130650	-0.584098	0.000023
N28	N	0.988971	-0.570528	0.000044
C29	C	0.912915	-0.534045	0.000035
O30	O	0.847239	-0.558999	0.000027
C31	C	0.913965	-0.474642	0.000035
C32	C	0.991071	-0.451721	0.000052
C33	C	1.144220	-0.465277	0.000073
C34	C	1.145269	-0.405877	0.000082
C35	C	1.069219	-0.369399	0.000076
C36	C	0.992120	-0.392320	0.000060
C37	C	0.837910	-0.438160	0.000019
C38	C	0.838967	-0.378754	0.000019
C39	C	0.916072	-0.355832	0.000035
C40	C	0.917118	-0.296442	0.000063
N41	N	0.994219	-0.273517	0.000070
C42	C	1.070269	-0.309995	0.000076
C43	C	0.910716	-0.658796	0.000032
C44	C	0.909664	-0.718198	0.000038
C45	C	1.062821	-0.731752	0.000053
C46	C	1.063872	-0.672349	0.000053
C47	C	0.987816	-0.635871	0.000039
C48	C	1.072466	-0.185250	0.000096
C49	C	1.073508	-0.125844	0.000108
C50	C	0.920352	-0.112295	0.000089
C51	C	0.919309	-0.171696	0.000081
C52	C	0.995373	-0.208173	0.000081
O53	O	0.852574	-0.259913	0.000087
O54	O	1.135935	-0.285033	0.000072
C55	C	1.145190	0.073824	0.000088
C56	C	1.238427	0.074951	0.000090
C57	C	0.984586	0.182097	0.000053
C58	C	0.985715	0.245318	0.000040
N59	N	0.991562	0.077994	0.219550
N60	N	0.991618	0.077954	-0.219400
C61	C	0.931583	0.118404	0.469190
C62	C	1.007390	0.129461	0.530997
C63	C	0.991583	0.077981	0.408711
C64	C	0.915795	0.066938	0.530998
C65	C	0.991596	0.077969	0.591433
C66	C	1.067428	0.089063	0.469158
C67	C	0.975783	0.026517	0.469153
C68	C	1.051645	0.037552	0.530932
C69	C	0.991574	0.077989	0.303450
C70	C	0.991613	0.077960	0.696691
H71	H	0.564086	-0.021407	-0.000003
H72	H	1.131539	0.098450	0.442108
N73	N	0.538853	0.134454	-0.156803
N74	N	0.484452	0.154316	-0.214313
H75	H	0.501982	0.174842	-0.271349
N76	N	0.410753	0.189020	-0.000060
N77	N	0.422193	0.222130	-0.065415
H78	H	0.392478	0.262502	-0.065469
N79	N	0.842682	-0.075017	0.000069
N80	N	0.826211	-0.040357	-0.064945
H81	H	0.771357	-0.014026	-0.064967
H82	H	1.102445	0.003360	0.557872
H83	H	1.136300	-0.107185	0.000124
N84	N	0.830911	-0.741618	0.000042
N85	N	0.813227	-0.773254	0.065045
H86	H	0.757605	-0.789794	0.065045
H87	H	0.880895	0.152617	0.442080
H88	H	0.533968	0.128591	0.140359
N89	N	0.835398	0.055214	0.565091
N90	N	0.822740	0.052914	0.650474
H91	H	0.765959	0.044637	0.674553
N92	N	0.444178	0.021412	-0.156608
N93	N	0.472380	-0.029773	-0.170150
H94	H	0.454759	-0.050336	-0.227103
N95	N	0.958968	-0.028057	0.435056
N96	N	0.890975	-0.046709	0.454835
H97	H	0.879090	-0.085253	0.430753
H98	H	0.777032	-0.349056	0.000006
N99	N	0.444175	0.021436	0.156731
N100	N	0.472379	-0.029750	0.170269
H101	H	0.454752	-0.050316	0.227219
N102	N	0.840543	-0.195104	0.000093
N103	N	0.772647	-0.162524	0.000102
H104	H	0.717016	-0.179052	0.000107
N105	N	1.221902	-0.502542	0.000078
N106	N	1.238427	-0.537205	-0.064924
H107	H	1.293294	-0.563522	-0.064915
N108	N	1.024166	0.184054	0.565066
N109	N	0.975422	0.227967	0.545283
H110	H	0.987265	0.266526	0.569340
N111	N	1.150170	-0.222496	0.000093
N112	N	1.218998	-0.202013	0.000107
H113	H	1.273877	-0.228317	0.000110
H114	H	1.208056	-0.387220	0.000092
H115	H	1.126658	-0.653691	0.000066
H116	H	1.124746	-0.761464	0.000054
H117	H	0.775123	-0.456812	0.000000
N118	N	0.833013	-0.621545	0.000021
N119	N	0.764184	-0.642027	0.000013
H120	H	0.709306	-0.615722	0.000003
