data_functionalizedCrystal
_audit_creation_method	'MofGen! by Chris Wilmer'
_symmetry_space_group_name_H-M	'P1'
_symmetry_Int_Tables_number	1
_symmetry_cell_setting	triclinic
loop_
_symmetry_equiv_pos_as_xyz
  x,y,z
_cell_length_a	15.995343
_cell_length_b	10.654554
_cell_length_c	9.730223
_cell_angle_alpha	89.998612
_cell_angle_beta	89.998500
_cell_angle_gamma	96.011986
loop_
_atom_site_label
_atom_site_type_symbol
_atom_site_fract_x
_atom_site_fract_y
_atom_site_fract_z
O1	O	1.111930	-0.161818	0.114156
O2	O	0.868270	-0.181817	0.114190
O3	O	0.995700	0.010995	0.114158
O4	O	0.984500	-0.354630	0.114188
O5	O	0.995692	0.010984	-0.114422
O6	O	0.868262	-0.181828	-0.114390
O7	O	1.111921	-0.161828	-0.114424
Zn8	Zn	0.990090	-0.171830	-0.150699
Zn9	Zn	0.990101	-0.171816	0.150465
O10	O	0.984491	-0.354640	-0.114392
C11	C	0.837066	-0.180997	-0.000096
C12	C	0.744101	-0.178524	-0.000084
C13	C	0.573888	-0.174034	-0.000103
C14	C	0.549733	-0.034853	-0.000113
C15	C	0.453040	-0.032235	-0.000640
C16	C	0.406303	-0.169612	-0.000119
C17	C	0.435797	-0.239600	-0.130385
C18	C	0.532599	-0.241251	-0.130486
C19	C	0.532531	-0.243276	0.129462
C20	C	0.436006	-0.238138	0.131165
C21	C	0.311590	-0.167120	-0.000134
C22	C	0.668601	-0.176530	-0.000098
C23	C	0.994873	0.057777	-0.000132
C24	C	0.992410	0.197187	-0.000134
C25	C	1.143125	-0.162648	-0.000135
C26	C	1.236090	-0.165122	-0.000138
C27	C	0.985319	-0.401422	-0.000099
C28	C	0.987782	-0.540833	-0.000088
C29	C	0.912750	0.378705	-0.000093
C30	C	0.915063	0.247714	-0.000110
C31	C	1.067448	0.277660	-0.000125
C32	C	1.065133	0.408648	-0.000098
C33	C	0.824772	0.361415	-0.000090
C34	C	0.827085	0.230424	-0.000108
N35	N	0.990089	-0.171839	-0.356235
C36	C	1.041311	-0.248042	-0.428175
C37	C	1.041324	-0.248018	-0.572058
C38	C	0.938885	-0.095585	-0.572048
C39	C	0.938877	-0.095603	-0.428168
C40	C	1.100451	-0.336052	-0.428182
C41	C	1.100464	-0.336028	-0.572065
N42	N	0.990109	-0.171797	0.356001
H43	H	0.559102	-0.193356	-0.228239
O44	O	0.883636	-0.013394	-0.350586
H45	H	0.923390	0.054061	-0.285038
O46	O	1.073152	-0.467561	-0.623824
H47	H	1.015565	-0.466144	-0.687207
O48	O	0.587705	0.035452	-0.123675
H49	H	0.563520	-0.012829	-0.218946
O50	O	0.552702	-0.376440	-0.137849
H51	H	0.493303	-0.440349	-0.141333
O52	O	0.394378	-0.373516	-0.136348
H53	H	0.352230	-0.391651	-0.046314
H54	H	1.163526	-0.295724	-0.616679
O55	O	0.408837	-0.175991	-0.259306
H56	H	0.374439	-0.094546	-0.230933
O57	O	0.569628	-0.185102	0.260301
H58	H	0.617964	-0.106178	0.234437
O59	O	0.883644	-0.013370	-0.649631
H60	H	0.892249	-0.026164	-0.761767
H61	H	0.433705	0.022552	0.092720
H62	H	0.403632	-0.338376	0.139443
O63	O	0.411029	-0.170650	0.258834
H64	H	0.378065	-0.088177	0.228910
H65	H	1.166487	-0.304330	-0.389128
H66	H	0.577430	0.019099	0.093286
O67	O	1.150874	0.223170	-0.000129
H68	H	1.186968	0.255512	-0.093286
O69	O	0.551888	-0.378973	0.131163
H70	H	0.590771	-0.397073	0.040230
O71	O	0.779201	0.399704	0.126625
H72	H	0.758735	0.314568	0.188650
O73	O	1.146059	0.495439	-0.000092
H74	H	1.200232	0.438300	-0.000120
H75	H	0.796746	0.396697	-0.098768
H76	H	0.800504	0.184415	0.098585
H77	H	0.793936	0.188253	-0.095773
O78	O	1.065547	-0.461770	-0.369064
H79	H	1.047051	-0.528409	-0.454080
H80	H	0.434282	0.022286	-0.094574
