data_functionalizedCrystal
_audit_creation_method	'MofGen! by Chris Wilmer'
_symmetry_space_group_name_H-M	'P1'
_symmetry_Int_Tables_number	1
_symmetry_cell_setting	triclinic
loop_
_symmetry_equiv_pos_as_xyz
  x,y,z
_cell_length_a	20.919309
_cell_length_b	20.919309
_cell_length_c	18.760492
_cell_angle_alpha	62.583143
_cell_angle_beta	89.996879
_cell_angle_gamma	60.091942
loop_
_atom_site_label
_atom_site_type_symbol
_atom_site_fract_x
_atom_site_fract_y
_atom_site_fract_z
Zr1	Zr	0.565517	0.745013	-0.085944
O2	O	0.462394	0.870566	-0.189867
O3	O	0.600615	0.614156	-0.058222
O4	O	0.595595	0.747358	-0.200965
O5	O	0.467409	0.737364	0.070178
O6	O	0.696703	0.755240	-0.205013
O7	O	0.467413	0.737364	-0.047125
O8	O	0.705682	0.516967	0.050326
O9	O	0.458430	0.975637	-0.185162
O10	O	0.686829	0.675826	-0.044423
O11	O	0.611370	0.669944	0.046140
O12	O	0.605461	0.826771	-0.121921
O13	O	0.530002	0.820888	-0.031357
Zr14	Zr	0.726766	0.757584	0.094684
Zr15	Zr	0.726773	0.757585	-0.092401
Zr16	Zr	0.565510	0.745012	0.101141
Zr17	Zr	0.559196	0.912589	-0.078439
Zr18	Zr	0.733088	0.590008	0.087179
O19	O	0.691668	0.888441	0.066962
O20	O	0.691678	0.888441	-0.199048
O21	O	0.462384	0.870565	0.076143
O22	O	0.829889	0.632031	0.198607
O23	O	0.829899	0.632032	-0.067403
O24	O	0.600605	0.614156	0.207788
O25	O	0.824874	0.765233	-0.061438
O26	O	0.696688	0.755239	0.209704
O27	O	0.595580	0.747357	0.213753
O28	O	0.824870	0.765233	0.055865
O29	O	0.586607	0.985630	-0.190294
O30	O	0.705677	0.516967	0.199034
O31	O	0.833853	0.526960	0.193901
O32	O	0.833859	0.526960	0.045194
O33	O	0.458425	0.975637	-0.036454
O34	O	0.586601	0.985630	-0.041587
O35	O	0.686823	0.675826	0.130660
O36	O	0.762282	0.681709	0.040097
O37	O	0.680913	0.832653	-0.037400
O38	O	0.605454	0.826771	0.053163
C39	C	0.654049	0.541686	-0.005017
C40	C	0.656733	0.470545	-0.008203
C41	C	0.618591	0.434065	0.037556
C42	C	0.621078	0.367256	0.034521
C43	C	0.661712	0.336923	-0.014269
C44	C	0.699855	0.373410	-0.060034
C45	C	0.697363	0.440222	-0.057003
C46	C	0.671202	0.135351	-0.025791
C47	C	0.673693	0.068532	-0.028816
C48	C	0.594914	0.062384	0.065738
C49	C	0.592430	0.129194	0.068769
C50	C	0.630569	0.165678	0.023001
C51	C	0.664257	0.268632	-0.017371
C52	C	0.628019	0.233972	0.026098
C53	C	0.444436	0.735573	0.012446
C54	C	0.375979	0.730236	0.015188
C55	C	0.301344	0.806518	-0.023976
C56	C	0.237024	0.801498	-0.021404
C57	C	0.247340	0.720195	0.020337
C58	C	0.321983	0.643907	0.059501
C59	C	0.386301	0.648928	0.056924
C60	C	0.055266	0.701094	0.030139
C61	C	-0.009060	0.696079	0.032716
C62	C	-0.094015	0.853670	-0.048191
C63	C	-0.029692	0.858684	-0.050760
C64	C	0.044945	0.782396	-0.011600
C65	C	0.181596	0.715062	0.022969
C66	C	0.110687	0.787530	-0.014238
C67	C	0.847848	0.767024	-0.003707
C68	C	0.916305	0.772361	-0.006448
C69	C	0.646150	0.751299	-0.229644
C70	C	0.646153	0.751299	-0.309067
C71	C	0.638234	0.960911	0.013757
C72	C	0.635550	1.032052	0.016943
C73	C	0.688607	0.672503	-0.604427
C74	C	0.603657	0.830092	-0.685331
C75	C	0.603662	0.830094	-0.610711
C76	C	0.646139	0.751299	-0.532944
C77	C	0.688612	0.672502	-0.529798
C78	C	0.561184	0.908888	-0.613850
C79	C	0.561187	0.908893	-0.539227
C80	C	0.603669	0.830098	-0.461459
C81	C	0.646144	0.751298	-0.458316
C82	C	0.688621	0.672503	-0.380549
C83	C	0.731101	0.593703	-0.377405
C84	C	0.731094	0.593707	-0.452030
C85	C	0.603676	0.830094	-0.386833
C86	C	0.688626	0.672502	-0.305921
C87	C	0.646133	0.751298	0.238384
C88	C	0.646130	0.751298	0.317806
C89	C	0.855755	0.557411	-0.013094
C90	C	0.926896	0.491608	-0.019021
C91	C	0.654040	0.541685	0.228997
C92	C	0.656721	0.470544	0.305233
C93	C	0.855746	0.557411	0.220920
C94	C	0.926884	0.491607	0.294416
C95	C	0.436537	0.945186	-0.212181
C96	C	0.365399	1.010990	-0.285676
C97	C	0.436528	0.945186	0.021834
C98	C	0.365387	1.010989	0.027761
C99	C	0.638243	0.960912	-0.220257
C100	C	0.635562	1.032052	-0.296493
C101	C	0.920919	0.457635	-0.065931
C102	C	0.987757	0.395814	-0.071517
C103	C	1.060571	0.367963	-0.030187
C104	C	1.066546	0.401942	0.016725
C105	C	0.999709	0.463766	0.022305
C106	C	0.697366	0.440207	0.385161
C107	C	0.699881	0.373371	0.456801
C108	C	0.661757	0.336871	0.448511
C109	C	0.621107	0.367215	0.368575
C110	C	0.618588	0.434053	0.296937
C111	C	0.999687	0.463776	0.281657
C112	C	1.066534	0.401956	0.350706
C113	C	1.060578	0.367964	0.432514
C114	C	0.987767	0.395801	0.445272
C115	C	0.920921	0.457624	0.376223
C116	C	0.292596	1.038829	-0.272916
C117	C	0.225748	1.100669	-0.341965
C118	C	0.231704	1.134665	-0.423773
C119	C	0.304515	1.106824	-0.436531
C120	C	0.371361	1.044989	-0.367483
C121	C	0.371364	1.044969	0.074663
C122	C	0.304525	1.106808	0.080229
C123	C	0.231711	1.134662	0.038897
C124	C	0.225736	1.100680	-0.008011
C125	C	0.292574	1.038846	-0.013582
C126	C	0.673695	1.068532	-0.288176
C127	C	0.671191	1.135369	-0.359802
C128	C	0.630549	1.165729	-0.439744
C129	C	0.592415	1.129242	-0.448060
C130	C	0.594924	1.062403	-0.376435
H131	H	0.594932	0.258675	0.065819
O132	O	0.627841	1.237830	-0.516989
H133	H	0.653463	1.214106	-0.558534
H134	H	0.732985	0.348674	0.521882
H135	H	0.706790	1.043824	-0.223090
H136	H	0.663814	0.282448	0.506850
O137	O	0.449875	1.014989	-0.381273
H138	H	0.480578	1.030261	-0.350150
O139	O	0.579936	0.327902	0.083858
H140	H	0.535908	0.337392	0.040001
O141	O	0.553789	1.023060	-0.385405
H142	H	0.491138	1.074462	-0.416703
O143	O	0.981305	0.359164	-0.122108
H144	H	0.919443	0.388909	-0.149893
O145	O	0.286124	1.002189	-0.064163
H146	H	0.224262	1.031944	-0.091956
O147	O	0.548579	1.161976	-0.534278
H148	H	0.502263	1.232317	-0.565416
O149	O	0.842390	0.487670	-0.110520
H150	H	0.808424	0.558977	-0.156467
O151	O	0.712325	1.174712	-0.350818
H152	H	0.669787	1.245350	-0.377744
H153	H	0.430647	1.022295	0.108327
H154	H	0.697343	0.243928	-0.057095
H155	H	0.309356	1.134512	-0.503147
H156	H	0.569084	0.894251	-0.389396
H157	H	0.309405	1.134467	0.118430
O158	O	0.099591	0.875203	-0.059309
H159	H	0.126867	0.881286	-0.014130
H160	H	1.125841	0.379256	0.050373
O161	O	0.159624	1.201329	0.044935
H162	H	0.176021	1.220259	0.084511
O163	O	-0.174516	0.935946	-0.090441
H164	H	-0.205863	0.937431	-0.042889
H165	H	1.125814	0.379298	0.340303
O166	O	0.712344	0.174689	-0.075146
H167	H	0.669811	0.245330	-0.120749
H168	H	0.166442	1.123368	-0.041662
O169	O	0.743676	0.340705	-0.112668
H170	H	0.739006	0.288114	-0.107085
H171	H	0.723196	0.608346	-0.601871
H172	H	0.585503	0.458756	0.077288
O173	O	0.557839	0.915077	-0.769200
H174	H	0.579122	0.956106	-0.775943
O175	O	0.002069	0.608382	0.077728
H176	H	-0.025196	0.602317	0.129166
O177	O	1.132659	0.301274	-0.036201
H178	H	1.116262	0.282327	-0.075759
O179	O	0.135761	0.618817	0.072375
H180	H	0.132126	0.561441	0.101838
H181	H	0.559347	0.153880	0.108505
O182	O	0.515383	0.993872	-0.697721
H183	H	0.522531	0.980633	-0.749083
H184	H	1.004586	0.491419	0.060509
H185	H	0.563861	0.032673	0.102998
H186	H	0.706784	0.043838	-0.068549
O187	O	0.738485	0.479572	0.394114
H188	H	0.767159	0.447246	0.461734
H189	H	0.728421	0.469925	-0.094266
O190	O	0.515372	0.993880	-0.542618
H191	H	0.536655	1.034909	-0.578008
O192	O	0.290216	0.894209	-0.069000
H193	H	0.227509	0.946409	-0.095808
O194	O	0.580014	0.327821	0.359635
H195	H	0.588615	0.276234	0.422880
O196	O	0.156523	0.883773	-0.063642
H197	H	0.160155	0.941150	-0.093091
H198	H	-0.038101	0.924889	-0.084767
H199	H	0.166469	1.123327	-0.331561
H200	H	0.982929	0.368115	0.511889
O201	O	0.574874	0.466657	0.210718
H202	H	0.548840	0.429996	0.216993
H203	H	1.004552	0.491444	0.215050
H204	H	0.861645	0.480275	0.386624
H205	H	0.189988	0.648865	0.056959
H206	H	1.115014	0.317624	0.488731
H207	H	0.330378	0.577709	0.093483
O208	O	0.286164	1.002168	-0.184684
H209	H	0.252826	1.055844	-0.173328
O210	O	0.466805	0.566654	0.099166
H211	H	0.463175	0.509275	0.128631
O212	O	0.734438	0.587515	-0.222043
H213	H	0.763968	0.532726	-0.232398
O214	O	0.159598	1.201368	-0.498239
H215	H	0.126599	1.173067	-0.497977
O216	O	0.776940	0.508734	-0.293515
H217	H	0.737341	0.501707	-0.255886
H218	H	0.765679	0.529552	-0.449479
