data_functionalizedCrystal
_audit_creation_method	'MofGen! by Chris Wilmer'
_symmetry_space_group_name_H-M	'P1'
_symmetry_Int_Tables_number	1
_symmetry_cell_setting	triclinic
loop_
_symmetry_equiv_pos_as_xyz
  x,y,z
_cell_length_a	8.559649
_cell_length_b	7.681481
_cell_length_c	8.559649
_cell_angle_alpha	85.069100
_cell_angle_beta	69.778664
_cell_angle_gamma	94.913240
loop_
_atom_site_label
_atom_site_type_symbol
_atom_site_fract_x
_atom_site_fract_y
_atom_site_fract_z
O1	O	2.109661	-0.146402	-0.037797
O2	O	1.634175	-0.146408	0.045985
O3	O	1.913809	-0.146402	-0.233649
O4	O	1.830027	-0.146407	0.241837
O5	O	1.948236	0.146456	-0.268136
O6	O	1.668602	0.146450	0.011497
O7	O	2.144088	0.146457	-0.072285
Zn8	Zn	1.911811	0.192951	-0.035869
Zn9	Zn	1.866452	-0.192902	0.009570
O10	O	1.864454	0.146451	0.207349
C11	C	1.591080	0.000020	0.035090
C12	C	1.411380	0.000017	0.053990
N13	N	1.942779	0.456286	-0.066883
N14	N	1.835499	-0.456237	0.040569
C15	C	2.187183	0.000025	-0.061390
C16	C	2.366881	0.000016	-0.080288
C17	C	1.937371	0.000024	-0.311201
C18	C	1.956269	0.000014	-0.490899
C19	C	1.840891	0.000021	0.284902
C20	C	1.821992	0.000019	0.464601
H21	H	1.466259	0.000009	-0.209706
H22	H	1.725988	0.468564	0.150245
H23	H	1.311991	0.000006	0.183419
O24	O	2.110754	0.000333	-0.609432
C25	C	2.215675	0.151978	-0.608916
H26	H	2.135446	0.257988	-0.552961
H27	H	2.301321	0.202899	-0.742992
H28	H	2.295101	0.117675	-0.530382
O29	O	2.073375	0.545803	-0.197925
C30	C	2.061211	0.500925	-0.349961
H31	H	1.983011	0.367034	-0.326395
H32	H	2.192153	0.494785	-0.444183
H33	H	1.998635	0.604661	-0.402248
H34	H	1.692573	0.000023	-0.436021
