data_functionalizedCrystal
_audit_creation_method	'MofGen! by Chris Wilmer'
_symmetry_space_group_name_H-M	'P1'
_symmetry_Int_Tables_number	1
_symmetry_cell_setting	triclinic
loop_
_symmetry_equiv_pos_as_xyz
  x,y,z
_cell_length_a	12.759401
_cell_length_b	16.625546
_cell_length_c	12.759401
_cell_angle_alpha	90.012072
_cell_angle_beta	90.002448
_cell_angle_gamma	90.022629
loop_
_atom_site_label
_atom_site_type_symbol
_atom_site_fract_x
_atom_site_fract_y
_atom_site_fract_z
Zn1	Zn	1.606032	-0.321143	0.593947
Zn2	Zn	2.106032	0.178857	1.093947
Zn3	Zn	1.605952	-0.455943	0.418253
Zn4	Zn	2.105952	0.044057	0.918253
Zn5	Zn	1.430383	-0.321128	0.418287
Zn6	Zn	1.930383	0.178872	0.918287
Zn7	Zn	1.430299	-0.455937	0.593894
Zn8	Zn	1.930299	0.044063	1.093894
O9	O	1.518167	-0.388538	0.506095
O10	O	2.018167	0.111462	1.006095
O11	O	1.753043	-0.339032	0.570649
O12	O	2.253043	0.160968	1.070649
O13	O	1.582664	-0.438055	0.271237
O14	O	2.082664	0.061945	0.771237
O15	O	1.453752	-0.208298	0.441624
O16	O	1.953752	0.291702	0.941624
O17	O	1.752984	-0.438069	0.441567
O18	O	2.252984	0.061931	0.941567
O19	O	1.582801	-0.208308	0.570681
O20	O	2.082801	0.291692	1.070681
O21	O	1.453675	-0.339008	0.271261
O22	O	1.953675	0.160992	0.771261
O23	O	1.283351	-0.339002	0.441573
O24	O	1.783351	0.160998	0.941573
O25	O	1.453609	-0.438060	0.740922
O26	O	1.953609	0.061940	1.240922
O27	O	1.283289	-0.438046	0.570592
O28	O	1.783289	0.061954	1.070592
O29	O	1.582719	-0.339027	0.740961
O30	O	2.082719	0.160973	1.240961
O31	O	1.582582	-0.568774	0.441516
O32	O	2.082582	-0.068774	0.941516
O33	O	1.453531	-0.568770	0.570559
O34	O	1.953531	-0.068770	1.070559
C35	C	1.245199	-0.388523	0.506081
C36	C	1.745199	0.111477	1.006081
C37	C	1.128423	-0.388536	0.506100
C38	C	1.628423	0.111464	1.006100
C39	C	1.518067	-0.598028	0.506051
C40	C	2.018067	-0.098028	1.006051
C41	C	1.518121	-0.687650	0.506068
C42	C	2.018121	-0.187650	1.006068
C43	C	1.073556	-0.440190	0.573169
C44	C	1.573556	0.059810	1.073169
C45	C	0.963832	-0.440201	0.573180
C46	C	1.463832	0.059799	1.073180
C47	C	0.963851	-0.336899	0.439045
C48	C	1.463851	0.163101	0.939045
C49	C	1.073573	-0.336886	0.439040
C50	C	1.573573	0.163114	0.939040
C51	C	1.128405	-0.491840	0.640229
C52	C	1.628405	0.008160	1.140229
C53	C	1.073539	-0.543500	0.707302
C54	C	1.573539	-0.043500	1.207302
C55	C	0.963814	-0.543510	0.707314
C56	C	1.463814	-0.043510	1.207314
C57	C	0.908957	-0.491861	0.640252
C58	C	1.408957	0.008139	1.140252
C59	C	1.518304	-1.015825	0.506177
C60	C	2.018304	-0.515825	1.006177
C61	C	1.518250	-0.924517	0.506150
C62	C	2.018250	-0.424517	1.006150
C63	C	1.518212	-0.851740	0.506122
C64	C	2.018212	-0.351740	1.006122
C65	C	1.518159	-0.760426	0.506095
C66	C	2.018159	-0.260426	1.006095
C67	C	1.792200	-0.388553	0.506110
C68	C	2.292200	0.111447	1.006110
C69	C	1.908977	-0.388560	0.506117
C70	C	2.408977	0.111440	1.006117
C71	C	1.518163	-0.388545	0.780129
C72	C	2.018163	0.111455	1.280129
C73	C	1.518162	-0.388548	0.896905
C74	C	2.018162	0.111452	1.396905
C75	C	1.518295	-0.178229	0.506162
C76	C	2.018295	0.321771	1.006162
C77	C	1.518350	-0.088608	0.506191
C78	C	2.018350	0.411392	1.006191
C79	C	1.450943	-0.440115	1.061474
C80	C	1.950943	0.059885	1.561474
C81	C	1.450941	-0.440110	0.951750
C82	C	1.950941	0.059890	1.451750
C83	C	1.585383	-0.336981	0.951791
C84	C	2.085383	0.163019	1.451791
C85	C	1.585379	-0.336983	1.061513
C86	C	2.085379	0.163017	1.561513
C87	C	1.383725	-0.491686	1.116312
C88	C	1.883725	0.008314	1.616312
C89	C	1.316503	-0.543252	1.061434
C90	C	1.816503	-0.043252	1.561434
C91	C	1.316500	-0.543247	0.951710
C92	C	1.816500	-0.043247	1.451710
C93	C	1.383720	-0.491677	0.896864
C94	C	1.883720	0.008323	1.396864
C95	C	1.518161	-0.388551	1.233128
C96	C	2.018161	0.111449	1.733128
C97	C	1.518161	-0.388554	1.116351
C98	C	2.018161	0.111446	1.616351
H99	H	1.217748	-0.491839	0.640225
H100	H	1.717748	0.008161	1.140225
H101	H	1.640108	-0.294994	1.106195
H102	H	2.140108	0.205006	1.606195
C103	C	1.133876	-0.600312	0.781060
C104	C	1.633876	-0.100312	1.281060
H105	H	1.207081	-0.592915	0.771441
H106	H	1.707081	-0.092915	1.271441
H107	H	1.115912	-0.588606	0.851683
H108	H	1.615912	-0.088606	1.351683
H109	H	1.115869	-0.654470	0.765544
H110	H	1.615869	-0.154470	1.265544
C111	C	0.903463	-0.600325	0.781098
C112	C	1.403463	-0.100325	1.281098
H113	H	0.951848	-0.631084	0.821029
H114	H	1.451848	-0.131084	1.321029
H115	H	0.860679	-0.569542	0.826951
H116	H	1.360679	-0.069542	1.326951
H117	H	0.860643	-0.635415	0.740825
H118	H	1.360643	-0.135415	1.240825
C119	C	1.242564	-0.599967	0.891347
C120	C	1.742564	-0.099967	1.391347
H121	H	1.202540	-0.630684	0.939725
H122	H	1.702540	-0.130684	1.439725
H123	H	1.196801	-0.569127	0.848549
H124	H	1.696801	-0.069127	1.348549
H125	H	1.282746	-0.635100	0.848540
H126	H	1.782746	-0.135100	1.348540
H127	H	0.819613	-0.491867	0.640275
H128	H	1.319613	0.008133	1.140275
H129	H	1.640110	-0.294996	0.907126
H130	H	2.140110	0.205004	1.407126
H131	H	0.919178	-0.294850	0.384446
H132	H	1.419178	0.205150	0.884446
H133	H	1.118247	-0.294818	0.384434
H134	H	1.618247	0.205182	0.884434
H135	H	1.261767	-0.585233	1.106097
H136	H	1.761767	-0.085233	1.606097
C137	C	1.383705	-0.491663	0.776170
C138	C	1.883705	0.008337	1.276170
H139	H	1.334045	-0.529757	0.751339
H140	H	1.834045	-0.029757	1.251339
H141	H	1.365569	-0.439627	0.751373
H142	H	1.865569	0.060373	1.251373
H143	H	1.451497	-0.505614	0.751339
H144	H	1.951497	-0.005614	1.251339
H145	H	1.383721	-0.491698	1.205655
H146	H	1.883721	0.008302	1.705655
