data_functionalizedCrystal
_audit_creation_method	'MofGen! by Chris Wilmer'
_symmetry_space_group_name_H-M	'P1'
_symmetry_Int_Tables_number	1
_symmetry_cell_setting	triclinic
loop_
_symmetry_equiv_pos_as_xyz
  x,y,z
_cell_length_a	21.295419
_cell_length_b	29.839131
_cell_length_c	21.295411
_cell_angle_alpha	90.020364
_cell_angle_beta	90.024539
_cell_angle_gamma	90.056221
loop_
_atom_site_label
_atom_site_type_symbol
_atom_site_fract_x
_atom_site_fract_y
_atom_site_fract_z
Zn1	Zn	0.962308	-0.178727	0.355917
Zn2	Zn	0.962190	-0.253843	0.250644
Zn3	Zn	0.857031	-0.178747	0.250662
Zn4	Zn	0.856980	-0.253850	0.355876
O5	O	0.909627	-0.216292	0.303275
O6	O	1.050382	-0.188680	0.341962
O7	O	0.948213	-0.243886	0.162557
O8	O	0.871067	-0.115877	0.264648
O9	O	1.050295	-0.243867	0.264619
O10	O	0.948413	-0.115863	0.341979
O11	O	0.870953	-0.188714	0.162570
O12	O	0.768935	-0.188721	0.264609
O13	O	0.870980	-0.243880	0.443971
O14	O	0.768898	-0.243899	0.341910
O15	O	0.948364	-0.188687	0.444001
O16	O	0.948163	-0.316711	0.264579
O17	O	0.870866	-0.316716	0.341893
C18	C	0.746076	-0.216313	0.303257
C19	C	0.676108	-0.216333	0.303264
C20	C	0.643308	-0.187644	0.343599
C21	C	0.577566	-0.187632	0.343602
C22	C	0.544625	-0.216317	0.303276
C23	C	0.577432	-0.245008	0.262933
C24	C	0.643173	-0.245016	0.262928
N25	N	0.441339	-0.255624	0.298357
N26	N	0.378888	-0.255616	0.298367
C27	C	0.346550	-0.216294	0.303290
N28	N	0.379024	-0.176981	0.308216
N29	N	0.441481	-0.176990	0.308210
C30	C	0.473340	-0.216311	0.303277
C31	C	0.242466	-0.187590	0.343629
C32	C	0.176722	-0.187577	0.343627
C33	C	0.176590	-0.244957	0.262962
C34	C	0.242332	-0.244965	0.262961
C35	C	0.275266	-0.216282	0.303298
C36	C	0.909514	-0.333014	0.303244
C37	C	0.909523	-0.382949	0.303251
C38	C	0.949949	-0.692577	0.263077
C39	C	0.950027	-0.880250	0.263101
O40	O	0.984309	-0.904501	0.228919
N41	N	0.909758	-0.903734	0.303322
C42	C	0.869469	-0.880297	0.343543
O43	O	0.835225	-0.904578	0.377759
C44	C	0.869395	-0.692625	0.343521
C45	C	0.909663	-0.669143	0.303293
C46	C	0.990214	-0.669095	0.222852
C47	C	0.990191	-0.622179	0.222844
C48	C	0.949905	-0.598746	0.263060
C49	C	0.909640	-0.622227	0.303285
C50	C	0.829111	-0.669188	0.383745
C51	C	0.829097	-0.622267	0.383737
C52	C	0.869364	-0.598786	0.343509
C53	C	0.869331	-0.551878	0.343493
N54	N	0.909600	-0.528394	0.303272
C55	C	0.949887	-0.551828	0.263056
C56	C	0.869510	-0.978827	0.343551
C57	C	0.869528	-1.025745	0.343556
C58	C	0.950086	-1.025695	0.263114
C59	C	0.950065	-0.978776	0.263107
C60	C	0.909779	-0.955343	0.303330
C61	C	0.949837	-0.453302	0.263041
C62	C	0.949809	-0.406382	0.263035
C63	C	0.869253	-0.406437	0.343478
C64	C	0.869279	-0.453352	0.343483
C65	C	0.909575	-0.476784	0.303262
O66	O	0.835072	-0.527598	0.377662
O67	O	0.984137	-0.527539	0.228855
C68	C	0.949971	-0.739492	0.263085
C69	C	0.909707	-0.762974	0.303309
C70	C	0.869420	-0.739540	0.343526
C71	C	0.909725	-0.809892	0.303314
C72	C	0.950011	-0.833325	0.263098
C73	C	0.990280	-0.809841	0.222876
C74	C	0.990258	-0.762926	0.222868
C75	C	0.829151	-0.763024	0.383747
C76	C	0.829176	-0.809940	0.383751
C77	C	0.869463	-0.833373	0.343535
C78	C	1.073818	-0.216270	0.303293
C79	C	1.143786	-0.216261	0.303301
C80	C	0.909680	-0.216282	0.467465
C81	C	0.909702	-0.216278	0.537433
C82	C	0.909759	-0.099113	0.303320
C83	C	0.909815	-0.049179	0.303339
C84	C	0.909612	-0.216269	0.139723
C85	C	0.909711	-0.216146	0.069755
C86	C	0.949994	-0.187538	0.570316
C87	C	0.949993	-0.187519	0.636059
C88	C	0.909707	-0.216247	0.668916
C89	C	0.869407	-0.244989	0.636025
C90	C	0.869405	-0.245005	0.570283
N91	N	0.904840	-0.255549	0.772132
N92	N	0.904846	-0.255533	0.834584
C93	C	0.909711	-0.216202	0.866991
N94	N	0.914582	-0.176886	0.834587
N95	N	0.914579	-0.176903	0.772129
C96	C	0.909705	-0.216233	0.740201
C97	C	0.950004	-0.187438	0.971159
C98	C	0.949999	-0.187418	1.036903
C99	C	0.869416	-0.244893	1.036868
C100	C	0.869418	-0.244909	0.971125
C101	C	0.909715	-0.216182	0.938275
H102	H	0.669878	-0.268379	0.230081
N103	N	0.991149	-0.158086	0.937598
N104	N	0.969028	-0.129471	0.900906
H105	H	0.998085	-0.108740	0.877204
N106	N	0.991143	-0.158155	0.669660
N107	N	0.987017	-0.116702	0.662323
H108	H	1.016078	-0.095963	0.686053
N109	N	0.991160	-0.158194	0.536772
N110	N	1.027134	-0.132535	0.566145
H111	H	1.056209	-0.111810	0.542454
N112	N	0.991190	-0.954786	0.222015
N113	N	0.969053	-0.928638	0.181878
H114	H	0.998098	-0.911696	0.152855
N115	N	0.676946	-0.158335	0.384787
N116	N	0.713660	-0.129686	0.362708
H117	H	0.737417	-0.108984	0.391795
N118	N	0.276113	-0.158282	0.384814
N119	N	0.312833	-0.129637	0.362732
H120	H	0.336596	-0.108937	0.391817
H121	H	0.836604	-0.268379	0.662781
N122	N	0.275830	-0.274275	0.221757
N123	N	0.246414	-0.299883	0.185752
H124	H	0.270071	-0.320583	0.156647
H125	H	0.836591	-0.268408	0.543510
H126	H	0.982652	-0.472374	0.230291
N127	N	1.031329	-0.598204	0.181748
N128	N	1.067294	-0.619140	0.145848
H129	H	1.096351	-0.602211	0.116823
H130	H	0.796346	-0.743948	0.416497
H131	H	0.982889	-1.044782	0.230368
N132	N	0.990944	-0.382404	0.221933
N133	N	1.026910	-0.403336	0.186030
H134	H	1.055961	-0.386403	0.157002
N135	N	0.991158	-0.158053	1.070485
N136	N	1.027130	-0.132407	1.041144
H137	H	1.056200	-0.111667	1.064861
N138	N	0.828262	-0.274232	1.070432
N139	N	0.828265	-0.274212	1.129128
H140	H	0.799197	-0.294932	1.152837
H141	H	0.836732	-1.044860	0.376308
N142	N	0.143226	-0.158260	0.384825
N143	N	0.172642	-0.132651	0.420829
H144	H	0.148986	-0.111944	0.449924
N145	N	0.828135	-0.477343	0.384559
N146	N	0.770048	-0.472162	0.380325
H147	H	0.740991	-0.489103	0.409338
N148	N	0.544063	-0.158332	0.384820
N149	N	0.573476	-0.132730	0.420838
H150	H	0.549816	-0.112040	0.449954
N151	N	0.543778	-0.274303	0.221741
N152	N	0.485081	-0.274292	0.221751
H153	H	0.461311	-0.294981	0.192656
H154	H	0.836612	-0.268315	0.944351
N155	N	0.142951	-0.274250	0.221758
N156	N	0.106277	-0.258394	0.181686
H157	H	0.082518	-0.279082	0.152580
N158	N	1.031376	-0.693020	0.181767
N159	N	1.067321	-0.672039	0.145861
H160	H	1.096393	-0.688933	0.116839
N161	N	0.828353	-0.954902	0.384645
N162	N	0.792405	-0.975881	0.420550
H163	H	0.763335	-0.958985	0.449573
H164	H	0.796318	-0.688299	0.416500
H165	H	0.836451	-0.387350	0.376220
N166	N	0.787944	-0.598339	0.424833
N167	N	0.752000	-0.619314	0.460746
H168	H	0.722935	-0.602416	0.489770
N169	N	1.031384	-0.738946	0.181766
N170	N	1.027234	-0.744217	0.123678
H171	H	1.056281	-0.727285	0.094646
N172	N	1.031423	-0.833784	0.181787
N173	N	1.009301	-0.859999	0.141661
H174	H	1.038358	-0.876910	0.112644
N175	N	0.788032	-0.833916	0.424846
N176	N	0.752067	-0.812982	0.460749
H177	H	0.723012	-0.829913	0.489774
