data_functionalizedCrystal
_audit_creation_method	'MofGen! by Chris Wilmer'
_symmetry_space_group_name_H-M	'P1'
_symmetry_Int_Tables_number	1
_symmetry_cell_setting	triclinic
loop_
_symmetry_equiv_pos_as_xyz
  x,y,z
_cell_length_a	27.732048
_cell_length_b	27.732048
_cell_length_c	7.088929
_cell_angle_alpha	96.157200
_cell_angle_beta	83.823277
_cell_angle_gamma	82.642655
loop_
_atom_site_label
_atom_site_type_symbol
_atom_site_fract_x
_atom_site_fract_y
_atom_site_fract_z
O1	O	0.062516	0.635935	-0.158766
O2	O	0.071264	0.495139	-0.158827
O3	O	-0.003508	0.569911	-0.158758
O4	O	0.137288	0.561163	-0.158835
O5	O	-0.013523	0.579904	0.159226
O6	O	0.061249	0.505132	0.159158
O7	O	0.052501	0.645927	0.159218
Cu8	Cu	0.055961	0.576442	0.188222
Cu9	Cu	0.067804	0.564625	-0.187831
O10	O	0.127273	0.571156	0.159150
C11	C	0.066073	0.482129	0.000158
C12	C	0.065521	0.428473	0.000137
C13	C	-0.026523	0.574724	0.000239
C14	C	-0.080178	0.574172	0.000255
C15	C	0.106223	0.089660	0.000197
C16	C	0.104171	-0.111999	0.000215
O17	O	0.141390	-0.143253	0.000278
N18	N	0.059835	-0.131122	0.000236
C19	C	0.016009	-0.099827	0.000265
O20	O	-0.021749	-0.120719	0.000303
C21	C	0.018060	0.101832	0.000260
C22	C	0.062400	0.120951	0.000220
C23	C	0.150558	0.108780	0.000159
C24	C	0.151071	0.159191	0.000144
C25	C	0.107248	0.190483	0.000167
C26	C	0.062912	0.171363	0.000205
C27	C	-0.025766	0.133127	0.000303
C28	C	-0.025249	0.183544	0.000306
C29	C	0.019090	0.202664	0.000266
C30	C	0.019602	0.253066	0.000213
N31	N	0.063938	0.272189	0.000193
C32	C	0.107761	0.240897	0.000170
C33	C	0.014935	-0.205701	0.000263
C34	C	0.014422	-0.256115	0.000261
C35	C	0.102584	-0.268284	0.000215
C36	C	0.103097	-0.217869	0.000204
C37	C	0.059271	-0.186578	0.000243
C38	C	0.108834	0.346765	0.000136
C39	C	0.109344	0.397182	0.000114
C40	C	0.021181	0.409346	0.000169
C41	C	0.020672	0.358934	0.000182
C42	C	0.064502	0.327645	0.000172
O43	O	-0.017597	0.284348	0.000172
O44	O	0.145512	0.261800	0.000174
C45	C	0.105710	0.039248	0.000212
C46	C	0.061374	0.020128	0.000250
C47	C	0.017551	0.051420	0.000273
C48	C	0.060861	-0.030286	0.000248
C49	C	0.104684	-0.061578	0.000225
C50	C	0.149020	-0.042455	0.000204
C51	C	0.149533	0.007957	0.000189
C52	C	-0.026785	0.032297	0.000294
C53	C	-0.027294	-0.018116	0.000307
C54	C	0.016529	-0.049407	0.000284
C55	C	-0.418990	0.614873	0.000174
C56	C	-0.620649	0.612821	0.000147
O57	O	-0.651903	0.650040	0.000079
N58	N	-0.639772	0.568485	0.000129
C59	C	-0.608477	0.524659	0.000106
O60	O	-0.629369	0.486901	0.000071
C61	C	-0.406819	0.526711	0.000120
C62	C	-0.387699	0.571050	0.000157
C63	C	-0.399870	0.659208	0.000209
C64	C	-0.349459	0.659721	0.000226
C65	C	-0.318168	0.615898	0.000209
C66	C	-0.337288	0.571563	0.000174
C67	C	-0.375524	0.482885	0.000083
C68	C	-0.325107	0.483401	0.000082
C69	C	-0.305987	0.527741	0.000119
C70	C	-0.255585	0.528253	0.000174
N71	N	-0.236462	0.572589	0.000191
C72	C	-0.267753	0.616411	0.000209
C73	C	-0.714351	0.523585	0.000103
C74	C	-0.764765	0.523072	0.000103
C75	C	-0.776934	0.611234	0.000139
C76	C	-0.726519	0.611747	0.000153
C77	C	-0.695228	0.567921	0.000120
C78	C	-0.161885	0.617485	0.000247
C79	C	-0.111469	0.617994	0.000272
C80	C	-0.099305	0.529832	0.000225
C81	C	-0.149717	0.529323	0.000210
C82	C	-0.181006	0.573153	0.000214
O83	O	-0.224303	0.491054	0.000220
O84	O	-0.246850	0.654163	0.000201
C85	C	-0.469402	0.614360	0.000157
C86	C	-0.488522	0.570024	0.000122
C87	C	-0.457231	0.526202	0.000105
C88	C	-0.538936	0.569511	0.000122
C89	C	-0.570228	0.613334	0.000139
C90	C	-0.551105	0.657670	0.000157
C91	C	-0.500693	0.658183	0.000174
C92	C	-0.476354	0.481866	0.000088
C93	C	-0.526766	0.481357	0.000072
C94	C	-0.558057	0.525180	0.000090
C95	C	0.150288	0.566343	0.000148
C96	C	0.203943	0.566895	0.000120
C97	C	0.057692	0.658938	0.000229
C98	C	0.058245	0.712593	0.000238
N99	N	0.047630	0.584757	0.452718
N100	N	0.076131	0.556313	-0.452327
H101	H	0.145452	0.412745	0.000080
H102	H	-0.688877	0.487894	0.000076
Br103	Br	-0.044550	-0.163240	0.000316
Br104	Br	-0.323517	0.719897	0.000222
Br105	Br	-0.001595	0.633902	0.588848
Br106	Br	-0.085525	0.678173	0.000324
Br107	Br	0.168319	0.304309	0.000126
H108	H	0.105666	0.526834	0.466000
Br109	Br	-0.056829	0.470361	0.000202
H110	H	0.139202	-0.202306	0.000182
Br111	Br	-0.045754	-0.282059	0.000258
H112	H	-0.425343	0.694896	0.000216
H113	H	-0.802420	0.646916	0.000155
Br114	Br	-0.700577	0.671924	0.000207
Br115	Br	-0.401458	0.422706	0.000026
H116	H	-0.165286	0.493220	0.000233
Br117	Br	-0.474753	0.718360	0.000212
Br118	Br	0.211249	0.185131	0.000099
H119	H	0.138267	-0.293771	0.000197
Br120	Br	0.210041	0.066321	0.000128
Br121	Br	-0.790708	0.462896	0.000098
Br122	Br	-0.552707	0.421177	0.000038
H123	H	0.184702	-0.067941	0.000178
Br124	Br	-0.085943	0.107191	0.000315
Br125	Br	-0.282642	0.423919	0.000028
H126	H	0.185638	0.023519	0.000159
H127	H	-0.576591	0.693352	0.000179
Br128	Br	-0.087473	-0.044057	0.000329
H129	H	-0.450881	0.446179	0.000069
H130	H	-0.015432	0.343366	0.000187
Br131	Br	-0.084732	0.226009	0.000369
H132	H	-0.014498	0.434833	0.000181
H133	H	-0.062472	0.057770	0.000317
H134	H	-0.187356	0.653176	0.000243
