data_functionalizedCrystal
_audit_creation_method	'MofGen! by Chris Wilmer'
_symmetry_space_group_name_H-M	'P1'
_symmetry_Int_Tables_number	1
_symmetry_cell_setting	triclinic
loop_
_symmetry_equiv_pos_as_xyz
  x,y,z
_cell_length_a	18.627243
_cell_length_b	18.627245
_cell_length_c	18.627297
_cell_angle_alpha	90.002039
_cell_angle_beta	59.997824
_cell_angle_gamma	119.999685
loop_
_atom_site_label
_atom_site_type_symbol
_atom_site_fract_x
_atom_site_fract_y
_atom_site_fract_z
O1	O	0.633240	-0.492484	-0.021356
O2	O	0.486232	-0.388088	0.021256
O3	O	0.633235	-0.388087	-0.125751
O4	O	0.486237	-0.492485	0.125650
O5	O	0.513833	-0.507489	-0.125750
O6	O	0.366830	-0.507489	0.021256
O7	O	0.513838	-0.611886	-0.021356
Cu8	Cu	0.429432	-0.570590	-0.000050
Cu9	Cu	0.570639	-0.429384	-0.000050
O10	O	0.366835	-0.611886	0.125650
C11	C	0.356044	-0.256979	0.030935
C12	C	0.406443	-0.162282	0.024836
C13	C	0.269040	-0.300580	0.031539
C14	C	0.356039	-0.386983	0.030943
C15	C	0.406432	-0.431286	0.024852
C16	C	0.269035	-0.430386	0.031548
C17	C	0.226044	-0.386979	0.030935
C18	C	0.137446	-0.431279	0.024835
C19	C	0.398838	-0.300583	0.031548
O20	O	-0.104350	-0.611881	-0.021369
O21	O	0.104442	-0.507482	0.021239
O22	O	0.104453	-0.507489	-0.125766
O23	O	-0.104360	-0.611875	0.125635
O24	O	0.104457	-0.388084	-0.125773
O25	O	0.104446	-0.388078	0.021231
O26	O	-0.104345	-0.492477	-0.021377
Cu27	Cu	0.000051	-0.429375	-0.000073
Cu28	Cu	0.000046	-0.570584	-0.000065
O29	O	-0.104356	-0.492470	0.125628
C30	C	0.644032	-0.386986	-0.387050
C31	C	0.593636	-0.431285	-0.431350
C32	C	0.731038	-0.300587	-0.430453
C33	C	0.644032	-0.386986	-0.257049
C34	C	0.593635	-0.431287	-0.162352
C35	C	0.731037	-0.300588	-0.300650
C36	C	0.774032	-0.256986	-0.387049
C37	C	0.862632	-0.162290	-0.431348
C38	C	0.601235	-0.430390	-0.300651
C39	C	0.774046	-0.612982	-0.031065
C40	C	0.862649	-0.568681	-0.024971
C41	C	0.731054	-0.699380	-0.031674
C42	C	0.644041	-0.612985	-0.031058
C43	C	0.593641	-0.568686	-0.024957
C44	C	0.601246	-0.699383	-0.031667
C45	C	0.644046	-0.742983	-0.031064
C46	C	0.593651	-0.837679	-0.024969
C47	C	0.731049	-0.569580	-0.031668
O48	O	0.513853	0.125721	-0.021375
O49	O	0.366846	-0.125678	0.021232
O50	O	0.513856	0.021315	-0.125772
O51	O	0.366843	-0.021272	0.125629
O52	O	0.633253	0.021311	-0.125765
O53	O	0.486243	-0.125682	0.021240
O54	O	0.633250	0.125717	-0.021368
Cu55	Cu	0.570648	0.000017	-0.000063
Cu56	Cu	0.429448	0.000022	-0.000072
O57	O	0.486240	-0.021275	0.125637
O58	O	1.104430	0.125707	-0.492538
O59	O	0.895633	-0.125690	-0.388147
O60	O	0.895628	0.021307	-0.388137
O61	O	1.104435	-0.021290	-0.492548
O62	O	0.895631	0.021311	-0.507540
O63	O	0.895636	-0.125686	-0.507550
O64	O	1.104433	0.125711	-0.611941
Cu65	Cu	1.000035	0.000013	-0.570648
Cu66	Cu	1.000031	0.000008	-0.429440
O67	O	1.104438	-0.021286	-0.611951
O68	O	0.486231	-0.492490	-0.611948
O69	O	0.633235	-0.388087	-0.507553
O70	O	0.486230	-0.388090	-0.507544
O71	O	0.633237	-0.492487	-0.611956
O72	O	0.366830	-0.507490	-0.388142
O73	O	0.513836	-0.507487	-0.388151
O74	O	0.366832	-0.611890	-0.492545
Cu75	Cu	0.429431	-0.570591	-0.429446
Cu76	Cu	0.570636	-0.429386	-0.570653
O77	O	0.513837	-0.611887	-0.492554
C78	C	0.226037	-0.742989	0.386948
C79	C	0.137437	-0.837686	0.431246
C80	C	0.269030	-0.699389	0.430353
C81	C	0.356038	-0.612988	0.256949
C82	C	0.406435	-0.568687	0.162252
C83	C	0.398834	-0.569585	0.300552
C84	C	0.356036	-0.612990	0.386950
C85	C	0.406432	-0.568691	0.431252
C86	C	0.269032	-0.699387	0.300549
C87	C	0.356073	-0.256995	-0.387073
C88	C	0.406473	-0.162299	-0.431376
C89	C	0.398871	-0.300599	-0.430474
C90	C	0.226065	-0.386990	-0.257069
C91	C	0.137460	-0.431286	-0.162372
C92	C	0.269060	-0.430398	-0.300668
C93	C	0.356070	-0.386997	-0.387067
C94	C	0.406468	-0.431300	-0.431364
C95	C	0.269063	-0.300593	-0.300674
C96	C	-0.355975	-0.612964	0.386929
C97	C	-0.406373	-0.568662	0.431227
C98	C	-0.398774	-0.699362	0.430336
C99	C	-0.225968	-0.612970	0.256931
C100	C	-0.137363	-0.568673	0.162234
C101	C	-0.268966	-0.699367	0.300535
C102	C	-0.355976	-0.742966	0.386934
C103	C	-0.406376	-0.837662	0.431237
C104	C	-0.268964	-0.569563	0.300530
C105	C	0.774043	0.030962	-0.387056
C106	C	0.862639	0.024856	-0.431349
C107	C	0.731051	0.031564	-0.430463
C108	C	0.644049	0.030986	-0.257064
C109	C	0.593654	0.024905	-0.162369
C110	C	0.601253	0.031588	-0.300669
C111	C	0.644048	0.030966	-0.387064
C112	C	0.593653	0.024863	-0.431366
C113	C	0.731051	0.031584	-0.300660
O114	O	0.633303	0.125701	-0.611972
O115	O	0.486281	-0.125700	-0.507577
O116	O	0.633272	0.021288	-0.507558
O117	O	0.486311	-0.021287	-0.611991
O118	O	0.513861	0.021292	-0.388162
O119	O	0.366869	-0.125696	-0.388181
O120	O	0.513891	0.125706	-0.492576
Cu121	Cu	0.429477	0.000005	-0.429476
Cu122	Cu	0.570695	0.000001	-0.570676
O123	O	0.366900	-0.021282	-0.492594
C124	C	0.356047	-0.030927	0.386929
C125	C	0.406443	-0.024826	0.431231
C126	C	0.269046	-0.031525	0.430327
C127	C	0.356047	-0.030947	0.256928
C128	C	0.406442	-0.024866	0.162234
C129	C	0.269045	-0.031545	0.300525
C130	C	0.226053	-0.030923	0.386920
C131	C	0.137458	-0.024816	0.431213
C132	C	0.398842	-0.031549	0.300533
H133	H	0.233059	-0.265571	0.032519
C134	C	0.290808	-0.531146	-0.041904
C135	C	0.220453	-0.526217	0.032868
H136	H	0.260815	-0.590307	-0.041085
H137	H	0.310436	-0.495059	-0.093155
H138	H	0.348880	-0.511429	-0.042170
H139	H	0.162383	-0.545929	0.033131
H140	H	0.200810	-0.562318	0.084132
C141	C	-0.470959	-0.770842	0.579386
C142	C	-0.493301	-0.746597	0.526163
H143	H	-0.529316	-0.799992	0.638542
H144	H	-0.451530	-0.809209	0.559693
H145	H	-0.416886	-0.719762	0.576030
H146	H	-0.547369	-0.797677	0.529514
H147	H	-0.512744	-0.708228	0.545862
C148	C	0.290846	0.041998	0.531033
C149	C	0.220474	-0.032794	0.526144
H150	H	0.260857	0.041226	0.590180
H151	H	0.348899	0.042253	0.511343
H152	H	0.310493	0.093240	0.494899
H153	H	0.200832	-0.084036	0.562273
H154	H	0.162402	-0.033056	0.545845
H155	H	0.767019	-0.265586	-0.501443
H156	H	0.767042	0.032539	-0.501453
C157	C	0.427007	-0.531078	-0.248922
C158	C	0.506684	-0.526202	-0.253346
H159	H	0.368630	-0.590222	-0.219708
H160	H	0.411909	-0.494943	-0.217334
H161	H	0.446445	-0.511389	-0.306729
H162	H	0.487250	-0.545885	-0.195539
H163	H	0.521783	-0.562350	-0.284934
H164	H	0.531229	-0.734388	-0.032637
H165	H	-0.233028	-0.498597	0.265502
H166	H	0.767042	-0.734382	-0.032654
H167	H	0.233084	-0.265580	-0.265673
C168	C	0.709238	-0.248882	-0.178135
C169	C	0.779609	-0.253301	-0.253402
H170	H	0.739222	-0.219684	-0.148968
H171	H	0.689600	-0.217280	-0.194612
H172	H	0.651173	-0.306687	-0.139772
H173	H	0.837671	-0.195495	-0.291767
H174	H	0.799262	-0.284901	-0.236926
C175	C	0.120678	-0.579422	-0.229168
C176	C	0.220495	-0.526227	-0.253421
H177	H	0.090706	-0.638581	-0.200010
H178	H	0.082597	-0.559710	-0.190805
H179	H	0.121039	-0.576063	-0.280247
H180	H	0.220133	-0.529582	-0.202342
H181	H	0.258585	-0.545946	-0.291786
C182	C	0.529141	0.108500	-0.229195
C183	C	0.506752	0.032926	-0.253432
H184	H	0.470804	0.109329	-0.200043
H185	H	0.548566	0.108217	-0.190830
H186	H	0.583228	0.159209	-0.280279
H187	H	0.452670	-0.017784	-0.202347
H188	H	0.487313	0.033201	-0.291798
C189	C	0.709243	-0.041863	-0.178109
C190	C	0.779620	0.032897	-0.253401
H191	H	0.739229	-0.041057	-0.148938
H192	H	0.651190	-0.042108	-0.139767
H193	H	0.689596	-0.093126	-0.194564
H194	H	0.799261	0.084160	-0.236944
H195	H	0.837691	0.033151	-0.291750
C196	C	-0.120578	-0.700000	0.229073
C197	C	-0.220389	-0.746634	0.253307
H198	H	-0.090595	-0.729186	0.199930
H199	H	-0.082499	-0.642214	0.190701
H200	H	-0.120954	-0.696986	0.280157
H201	H	-0.220012	-0.749642	0.202222
H202	H	-0.258478	-0.804435	0.291681
C203	C	0.290827	0.041899	0.177986
C204	C	0.220468	-0.032866	0.253271
H205	H	0.260836	0.041079	0.148816
H206	H	0.310457	0.093152	0.194444
H207	H	0.348898	0.042160	0.139634
H208	H	0.162399	-0.033124	0.291626
H209	H	0.200823	-0.084133	0.236814
C210	C	0.573054	0.041903	0.248846
C211	C	0.493353	-0.032874	0.253275
H212	H	0.631397	0.041083	0.219673
H213	H	0.588215	0.093149	0.217216
H214	H	0.553606	0.042181	0.306650
H215	H	0.512799	-0.033148	0.195470
H216	H	0.478192	-0.084132	0.284904
C217	C	0.709237	-0.468835	0.041786
C218	C	0.779612	-0.473750	-0.032982
H219	H	0.739218	-0.409677	0.040975
H220	H	0.651175	-0.488559	0.042044
H221	H	0.689605	-0.504927	0.093045
H222	H	0.799239	-0.437663	-0.084242
H223	H	0.837692	-0.454015	-0.033249
C224	C	0.470952	-0.229092	0.108449
C225	C	0.493340	-0.253344	0.032882
H226	H	0.529289	-0.199938	0.109276
H227	H	0.451530	-0.190726	0.108156
H228	H	0.416864	-0.280169	0.159166
H229	H	0.547424	-0.202265	-0.017835
H230	H	0.512776	-0.291711	0.033167
C231	C	0.470991	-0.420552	0.229061
C232	C	0.493349	-0.473756	0.253315
H233	H	0.529340	-0.361394	0.199909
H234	H	0.451572	-0.440255	0.190691
H235	H	0.416909	-0.423913	0.280138
H236	H	0.547427	-0.470400	0.202237
H237	H	0.512782	-0.454047	0.291686
H238	H	0.233032	-0.734393	0.501347
H239	H	0.468895	-0.265589	-0.501459
C240	C	0.120660	-0.770883	0.299886
C241	C	0.220481	-0.746624	0.253271
H242	H	0.090700	-0.800034	0.270689
H243	H	0.082575	-0.809252	0.357675
H244	H	0.121013	-0.719809	0.302895
H245	H	0.220128	-0.797699	0.250267
H246	H	0.258577	-0.708253	0.195466
