data_functionalizedCrystal
_audit_creation_method	'MofGen! by Chris Wilmer'
_symmetry_space_group_name_H-M	'P1'
_symmetry_Int_Tables_number	1
_symmetry_cell_setting	triclinic
loop_
_symmetry_equiv_pos_as_xyz
  x,y,z
_cell_length_a	12.759399
_cell_length_b	19.077105
_cell_length_c	19.076919
_cell_angle_alpha	90.076224
_cell_angle_beta	87.725577
_cell_angle_gamma	92.288418
loop_
_atom_site_label
_atom_site_type_symbol
_atom_site_fract_x
_atom_site_fract_y
_atom_site_fract_z
Zn1	Zn	-0.508276	-1.058325	0.440434
Zn2	Zn	-0.677203	-1.062983	0.322932
Zn3	Zn	-0.494201	-0.945542	0.318226
Zn4	Zn	-0.676569	-0.940805	0.435685
O5	O	-0.589062	-1.001914	0.379319
O6	O	-0.536839	-1.157276	0.428803
O7	O	-0.647302	-1.051336	0.223976
O8	O	-0.349050	-0.960535	0.334456
O9	O	-0.660949	-1.160698	0.342476
O10	O	-0.359391	-1.043397	0.424241
O11	O	-0.512852	-0.965052	0.220519
O12	O	-0.512237	-0.846581	0.329851
O13	O	-0.659869	-0.952463	0.534646
O14	O	-0.646222	-0.843101	0.416147
O15	O	-0.536225	-1.038804	0.538135
O16	O	-0.824136	-1.046743	0.337871
O17	O	-0.823671	-0.956979	0.420709
C18	C	-0.577635	-0.819344	0.371973
C19	C	-0.572772	-0.741240	0.368847
C20	C	-0.862026	-1.001871	0.379301
C21	C	-0.978806	-1.001917	0.379320
C22	C	-0.599547	-0.994585	0.562600
C23	C	-0.604014	-0.991463	0.640703
C24	C	-1.033882	-1.048706	0.336239
C25	C	-1.143610	-1.048750	0.336264
C26	C	-1.143177	-0.955209	0.422453
C27	C	-1.033451	-0.955169	0.422431
C28	C	-1.297227	-1.132698	0.314590
C29	C	-1.352305	-1.179482	0.271497
C30	C	-1.313482	-1.193053	0.203371
C31	C	-1.219581	-1.159831	0.178322
C32	C	-1.164508	-1.113042	0.221411
C33	C	-1.203331	-1.099484	0.289547
C34	C	-0.879832	-0.871220	0.444098
C35	C	-0.824756	-0.824428	0.487184
C36	C	-0.863577	-0.810849	0.555311
C37	C	-0.957481	-0.844059	0.580357
C38	C	-1.012557	-0.890852	0.537271
C39	C	-0.973728	-0.904431	0.469145
C40	C	-0.315035	-1.001975	0.379353
C41	C	-0.198260	-1.002001	0.379367
C42	C	-0.600535	-1.185196	0.386694
C43	C	-0.605424	-1.263300	0.389837
C44	C	-0.640344	-0.702755	0.412238
C45	C	-0.635761	-0.629367	0.409304
C46	C	-0.563611	-0.594465	0.362976
C47	C	-0.496033	-0.632955	0.319583
C48	C	-0.500611	-0.706341	0.322521
C49	C	-0.542424	-0.375176	0.349382
C50	C	-0.537853	-0.301784	0.346446
C51	C	-0.677580	-0.298202	0.436168
C52	C	-0.682156	-0.371590	0.439099
C53	C	-0.614574	-0.410073	0.395709
N54	N	-0.558928	-0.519451	0.359974
N55	N	-0.619253	-0.485085	0.398715
C56	C	-0.578545	-1.009254	0.196753
C57	C	-0.573790	-1.012513	0.118656
C58	C	-0.541741	-1.034947	0.679214
C59	C	-0.545935	-1.032004	0.752599
C60	C	-0.612408	-0.985580	0.787473
C61	C	-0.674683	-0.942091	0.748957
C62	C	-0.670483	-0.945031	0.675573
C63	C	-0.631866	-0.971964	1.006755
C64	C	-0.636063	-0.969029	1.080145
C65	C	-0.507313	-1.058941	1.083782
C66	C	-0.503124	-1.061880	1.010396
C67	C	-0.565395	-1.018388	0.971886
N68	N	-0.616698	-0.982572	0.862486
N69	N	-0.561098	-1.021393	0.896875
H70	H	-0.989393	-1.086771	0.301136
H71	H	-0.740910	-0.400002	0.476823
O72	O	-0.485411	-1.074318	0.789903
C73	C	-0.425828	-1.115914	0.743385
H74	H	-0.466022	-1.120430	0.691167
H75	H	-0.419307	-1.170432	0.766822
H76	H	-0.343976	-1.090517	0.734552
H77	H	-0.487615	-1.072752	0.650825
O78	O	-1.334972	-1.119648	0.380791
C79	C	-1.342440	-1.182692	0.419480
H80	H	-1.348108	-1.229082	0.381905
H81	H	-1.415457	-1.183016	0.455928
H82	H	-1.269796	-1.186957	0.451891
H83	H	-0.448997	-1.099685	0.982007
H84	H	-0.728803	-0.904289	0.777358
O85	O	-0.743320	-0.260927	0.478350
C86	C	-0.807957	-0.307469	0.519886
H87	H	-0.813153	-0.360923	0.493190
H88	H	-0.889850	-0.285958	0.526448
H89	H	-0.773138	-0.313159	0.573606
H90	H	-0.456614	-1.094348	1.115144
H91	H	-1.187984	-1.170879	0.122844
H92	H	-0.699099	-0.731167	0.449961
O93	O	-0.692195	-0.929650	0.969312
C94	C	-0.627103	-0.885993	0.925032
H95	H	-0.545356	-0.880786	0.946990
H96	H	-0.661664	-0.831940	0.922010
H97	H	-0.621653	-0.909950	0.870293
O98	O	-0.425853	-0.599163	0.274562
C99	C	-0.367211	-0.648870	0.236882
H100	H	-0.368548	-0.700037	0.267763
H101	H	-0.282672	-0.627971	0.228631
H102	H	-0.402993	-0.658797	0.183782
O103	O	-1.367089	-1.238542	0.161613
C104	C	-1.458304	-1.264936	0.198321
H105	H	-1.447203	-1.260219	0.257163
H106	H	-1.473206	-1.322416	0.184026
H107	H	-1.528262	-1.233517	0.183457
H108	H	-0.848209	-0.882278	0.388625
H109	H	-1.428760	-1.206531	0.291899
H110	H	-0.721182	-0.909615	0.644218
H111	H	-0.445582	-0.737674	0.287192
H112	H	-0.479088	-0.273369	0.308725
H113	H	-0.690195	-0.931223	1.108537
H114	H	-1.187682	-0.917148	0.457552
O115	O	-1.073290	-1.080855	0.196988
C116	C	-1.050847	-1.102846	0.127607
H117	H	-1.092624	-1.155758	0.118174
H118	H	-0.962545	-1.108042	0.119176
H119	H	-1.079223	-1.062523	0.089367
O120	O	-1.103727	-0.923086	0.561723
C121	C	-1.126199	-0.901059	0.631090
H122	H	-1.050548	-0.881500	0.655775
H123	H	-1.162535	-0.947031	0.662928
H124	H	-1.183684	-0.856836	0.630657
O125	O	-0.701519	-0.592092	0.451472
C126	C	-0.766173	-0.638634	0.492997
H127	H	-0.771346	-0.692092	0.466306
H128	H	-0.848072	-0.617128	0.499535
H129	H	-0.731386	-0.644316	0.546728
O130	O	-0.476880	-0.412521	0.307131
C131	C	-0.494531	-0.397357	0.236352
H132	H	-0.576992	-0.377326	0.231898
H133	H	-0.486410	-0.446998	0.203576
H134	H	-0.434466	-0.355488	0.216349
O135	O	-0.995061	-0.830945	0.646585
C136	C	-0.920826	-0.850087	0.695174
H137	H	-0.867378	-0.890514	0.670347
H138	H	-0.963342	-0.873556	0.743875
H139	H	-0.871731	-0.801671	0.710590
O140	O	-0.810208	-0.765321	0.597163
C141	C	-0.874550	-0.709451	0.616268
H142	H	-0.937496	-0.704320	0.576021
H143	H	-0.824656	-0.658605	0.618040
H144	H	-0.913525	-0.720249	0.670191
H145	H	-0.748290	-0.797391	0.466787
