data_functionalizedCrystal
_audit_creation_method	'MofGen! by Chris Wilmer'
_symmetry_space_group_name_H-M	'P1'
_symmetry_Int_Tables_number	1
_symmetry_cell_setting	triclinic
loop_
_symmetry_equiv_pos_as_xyz
  x,y,z
_cell_length_a	16.625545
_cell_length_b	10.685969
_cell_length_c	10.686551
_cell_angle_alpha	89.648066
_cell_angle_beta	94.407339
_cell_angle_gamma	94.340372
loop_
_atom_site_label
_atom_site_type_symbol
_atom_site_fract_x
_atom_site_fract_y
_atom_site_fract_z
Zn1	Zn	-0.389945	-1.972100	0.561976
Zn2	Zn	-0.534292	-1.955829	0.352215
Zn3	Zn	-0.388424	-1.746227	0.368339
Zn4	Zn	-0.513679	-1.762272	0.578032
O5	O	-0.456585	-1.859107	0.465140
O6	O	-0.418356	-2.145474	0.520684
O7	O	-0.522932	-1.914500	0.178810
O8	O	-0.275797	-1.776284	0.394054
O9	O	-0.524406	-2.133520	0.366573
O10	O	-0.276914	-1.942232	0.536319
O11	O	-0.415764	-1.760507	0.190657
O12	O	-0.395777	-1.572823	0.409622
O13	O	-0.489276	-1.803631	0.751445
O14	O	-0.487801	-1.584611	0.563683
O15	O	-0.398368	-1.957790	0.739649
O16	O	-0.644387	-1.930059	0.382141
O17	O	-0.629243	-1.787853	0.548048
C18	C	-0.439388	-1.533204	0.490145
C19	C	-0.432049	-1.393783	0.500872
C20	C	-0.666071	-1.858968	0.465111
C21	C	-0.755693	-1.859026	0.465132
C22	C	-0.828477	-1.859077	0.465153
C23	C	-0.919788	-1.859152	0.465175
C24	C	-0.992567	-1.859218	0.465186
C25	C	-1.083884	-1.859292	0.465207
C26	C	-0.246282	-1.859283	0.465194
C27	C	-0.156663	-1.859358	0.465217
C28	C	-0.441692	-1.884315	0.792336
C29	C	-0.435346	-1.895057	0.931768
C30	C	-0.473843	-1.186282	0.440025
C31	C	-0.481179	-1.325702	0.429285
C32	C	-0.471365	-1.834069	0.139212
C33	C	-0.477497	-1.823570	-0.000237
H34	H	-0.384373	-1.345410	0.570374
N35	N	-0.531734	-1.731602	0.935604
H36	H	-0.574237	-1.778400	0.877317
H37	H	-0.498287	-1.669379	0.885781
H38	H	-0.528864	-1.374082	0.359789
H39	H	-0.394404	-1.964489	0.980229
