data_functionalizedCrystal
_audit_creation_method	'MofGen! by Chris Wilmer'
_symmetry_space_group_name_H-M	'P1'
_symmetry_Int_Tables_number	1
_symmetry_cell_setting	triclinic
loop_
_symmetry_equiv_pos_as_xyz
  x,y,z
_cell_length_a	19.288867
_cell_length_b	23.532357
_cell_length_c	18.366186
_cell_angle_alpha	89.988209
_cell_angle_beta	89.992441
_cell_angle_gamma	82.982680
loop_
_atom_site_label
_atom_site_type_symbol
_atom_site_fract_x
_atom_site_fract_y
_atom_site_fract_z
O1	O	0.921117	0.071052	-0.060533
O2	O	0.718825	0.080635	-0.060541
O3	O	0.826089	-0.007077	-0.060522
O4	O	0.813853	0.158765	-0.060552
O5	O	0.826071	-0.007081	0.060578
O6	O	0.718807	0.080631	0.060558
O7	O	0.921099	0.071048	0.060566
Zn8	Zn	0.819950	0.075839	0.079789
Zn9	Zn	0.819974	0.075844	-0.079764
O10	O	0.813835	0.158761	0.060547
C11	C	0.692941	0.080325	0.000008
C12	C	0.615840	0.079398	0.000005
C13	C	0.060307	0.072729	-0.065996
C14	C	0.132751	0.073596	-0.065999
C15	C	0.168969	0.074030	0.000012
C16	C	0.132738	0.073582	0.066031
C17	C	0.060295	0.072710	0.066032
C18	C	0.278174	0.108767	0.050578
C19	C	0.350614	0.109643	0.050575
C20	C	0.392405	0.076719	0.000011
C21	C	0.361746	0.042925	-0.050560
C22	C	0.289304	0.042053	-0.050559
C23	C	0.247520	0.074976	0.000018
C24	C	0.507181	0.078102	-0.066006
C25	C	0.579628	0.078966	-0.066006
C26	C	0.579612	0.078957	0.066025
C27	C	0.507167	0.078088	0.066023
C28	C	0.470956	0.077664	0.000006
C29	C	0.825774	-0.028297	0.000030
C30	C	0.824854	-0.091517	0.000037
C31	C	0.819087	-0.483538	-0.066014
C32	C	0.818212	-0.542939	-0.066018
O33	O	0.817745	-0.573655	-0.122158
N34	N	0.817768	-0.572654	-0.000008
C35	C	0.818193	-0.542963	0.066011
O36	O	0.817734	-0.573692	0.122158
C37	C	0.819062	-0.483562	0.066015
C38	C	0.819513	-0.453852	-0.000000
C39	C	0.819537	-0.453827	-0.132023
C40	C	0.820413	-0.394430	-0.132019
C41	C	0.820839	-0.364744	-0.066005
C42	C	0.820389	-0.394455	0.000004
C43	C	0.819481	-0.453872	0.132033
C44	C	0.820351	-0.394467	0.132030
C45	C	0.820801	-0.364757	0.066016
C46	C	0.821691	-0.305371	0.066023
N47	N	0.822135	-0.275657	0.000012
C48	C	0.821709	-0.305343	-0.066002
C49	C	0.816365	-0.667708	0.065999
C50	C	0.815500	-0.727109	0.065996
C51	C	0.815518	-0.727081	-0.066033
C52	C	0.816388	-0.667680	-0.066030
C53	C	0.816808	-0.637994	-0.000011
C54	C	0.823549	-0.180605	-0.065987
C55	C	0.824428	-0.121203	-0.065977
C56	C	0.824406	-0.121236	0.066052
C57	C	0.823531	-0.180633	0.066042
C58	C	0.823100	-0.210316	0.000017
O59	O	0.822156	-0.274618	0.122134
O60	O	0.822158	-0.274606	-0.122139
C61	C	0.946984	0.071359	0.000016
C62	C	1.024084	0.072285	0.000014
C63	C	0.814150	0.179980	-0.000006
C64	C	0.815070	0.243200	-0.000018
N65	N	0.819939	0.075835	0.188681
N66	N	0.819991	0.075844	-0.188655
C67	C	0.867451	0.037015	0.226790
C68	C	0.867455	0.037012	0.303017
C69	C	0.819954	0.075839	0.341133
C70	C	0.772433	0.114662	0.303015
C71	C	0.772426	0.114660	0.226789
C72	C	0.810485	0.127732	0.461884
C73	C	0.810497	0.127735	0.538109
C74	C	0.819974	0.075846	0.576241
C75	C	0.829453	0.023953	0.538139
C76	C	0.829445	0.023950	0.461912
C77	C	0.819957	0.075846	0.423788
C78	C	0.867493	0.037020	0.697005
C79	C	0.867493	0.037017	0.773234
C80	C	0.772474	0.114672	0.773230
C81	C	0.772472	0.114671	0.697003
C82	C	0.819985	0.075845	0.658894
H83	H	0.609099	0.079308	0.119773
H84	H	0.837161	-0.018303	0.430892
N85	N	0.723911	0.154331	0.341935
N86	N	0.681492	0.188991	0.307896
H87	H	0.647219	0.217007	0.335381
N88	N	0.723885	0.154318	0.187869
N89	N	0.681471	0.188980	0.221905
H90	H	0.647188	0.216990	0.194417
N91	N	0.023278	0.072269	0.133456
N92	N	-0.041403	0.071497	0.133447
H93	H	-0.067550	0.071189	0.181066
H94	H	0.820777	-0.370245	-0.185775
N95	N	0.820766	-0.364143	0.199468
N96	N	0.771689	-0.365406	0.243660
H97	H	0.771982	-0.343990	0.291287
H98	H	0.733796	0.146284	0.804264
N99	N	0.235478	0.142399	0.102226
N100	N	0.170799	0.141614	0.102222
H101	H	0.140645	0.165363	0.138699
N102	N	0.815039	-0.757462	0.133422
N103	N	0.814254	-0.810497	0.133419
H104	H	0.813924	-0.831933	0.181041
N105	N	0.819097	-0.484136	-0.199467
N106	N	0.819497	-0.457590	-0.258393
H107	H	0.819190	-0.478991	-0.306030
N108	N	0.023329	0.072298	-0.133436
N109	N	0.055686	0.072696	-0.192370
H110	H	0.029570	0.072391	-0.240001
N111	N	0.823106	-0.210911	-0.133436
N112	N	0.823508	-0.184367	-0.192363
H113	H	0.823198	-0.205770	-0.239999
N114	N	0.815064	-0.757412	-0.133465
N115	N	0.766196	-0.745397	-0.177665
H116	H	0.765874	-0.766821	-0.225285
N117	N	0.915966	-0.002650	0.658023
N118	N	0.894106	-0.037922	0.615504
H119	H	0.928322	-0.065941	0.587955
N120	N	0.816829	-0.637332	-0.133462
N121	N	0.768344	-0.598810	-0.148197
H122	H	0.768653	-0.577380	-0.195824
H123	H	0.816709	-0.643542	0.119762
H124	H	0.162231	0.073934	0.119777
N125	N	0.819027	-0.484203	0.199473
N126	N	0.819405	-0.457678	0.258402
H127	H	0.819085	-0.479098	0.306037
N128	N	0.800820	0.180733	0.577040
N129	N	0.847127	0.193428	0.619561
H130	H	0.840292	0.230859	0.647058
H131	H	0.823170	-0.204826	0.119797
N132	N	0.258000	0.007524	-0.102208
N133	N	0.274940	-0.045465	-0.103245
H134	H	0.252833	-0.069854	-0.139721
H135	H	0.802756	0.169988	0.430843
N136	N	0.824848	-0.090898	0.133474
N137	N	0.825628	-0.037862	0.133460
H138	H	0.825936	-0.016433	0.181077
N139	N	0.916045	-0.002599	0.187876
N140	N	0.958503	-0.037226	0.221917
H141	H	0.992845	-0.065187	0.194433
N142	N	0.915983	-0.002646	0.341960
N143	N	0.915418	-0.055289	0.333475
H144	H	0.949690	-0.083298	0.360978
N145	N	0.169766	0.074043	-0.133428
N146	N	0.168378	0.033815	-0.177630
H147	H	0.194519	0.034130	-0.225252
N148	N	0.404435	0.009293	-0.102209
N149	N	0.469116	0.010071	-0.102200
H150	H	0.499268	-0.013681	-0.138675
H151	H	0.837170	-0.018300	0.569184
H152	H	0.477697	0.077755	-0.119762
N153	N	0.616621	0.079413	-0.133445
N154	N	0.584278	0.079032	-0.192379
H155	H	0.610405	0.079347	-0.240010
H156	H	0.906181	0.005402	0.804263
N157	N	0.723944	0.154338	0.658084
N158	N	0.724520	0.206979	0.666584
H159	H	0.690243	0.234996	0.639099
N160	N	0.470174	0.077649	0.133461
N161	N	0.471576	0.117881	0.177653
H162	H	0.445451	0.117570	0.225285
N163	N	0.381915	0.144178	0.102219
N164	N	0.344596	0.173574	0.147360
H165	H	0.366699	0.197969	0.183832
H166	H	0.824796	-0.097016	-0.119736
