data_functionalizedCrystal
_audit_creation_method	'MofGen! by Chris Wilmer'
_symmetry_space_group_name_H-M	'P1'
_symmetry_Int_Tables_number	1
_symmetry_cell_setting	triclinic
loop_
_symmetry_equiv_pos_as_xyz
  x,y,z
_cell_length_a	10.489741
_cell_length_b	14.044220
_cell_length_c	13.101039
_cell_angle_alpha	86.332523
_cell_angle_beta	86.605995
_cell_angle_gamma	91.135974
loop_
_atom_site_label
_atom_site_type_symbol
_atom_site_fract_x
_atom_site_fract_y
_atom_site_fract_z
O1	O	1.714058	-0.128645	-0.085266
O2	O	1.344136	-0.141208	-0.085258
O3	O	1.523544	0.003095	-0.085252
O4	O	1.534651	-0.272948	-0.085272
O5	O	1.510674	-0.007275	0.085178
O6	O	1.331266	-0.151579	0.085171
O7	O	1.701188	-0.139016	0.085163
Zn8	Zn	1.514183	-0.146944	0.112227
Zn9	Zn	1.531141	-0.133280	-0.112321
O10	O	1.521780	-0.283319	0.085157
C11	C	1.512248	0.033258	-0.000036
C12	C	1.497748	0.138582	-0.000035
C13	C	1.290073	-0.145445	-0.000042
C14	C	1.148155	-0.142606	-0.000039
C15	C	1.755251	-0.134779	-0.000055
C16	C	1.897169	-0.137617	-0.000065
C17	C	1.974622	-0.229434	-0.000061
C18	C	2.068695	-0.180947	-0.084085
C19	C	2.055969	-0.191150	0.083945
C20	C	1.989378	-0.089089	-0.084158
C21	C	1.976639	-0.099309	0.083947
C22	C	2.070679	-0.050755	-0.000097
C23	C	1.533077	-0.313481	-0.000060
C24	C	1.547577	-0.418805	-0.000069
N25	N	1.502620	-0.156269	0.265475
C26	C	1.471240	0.331425	-0.000049
C27	C	1.574079	0.388357	-0.000054
C28	C	1.559330	0.495662	-0.000062
C29	C	1.485988	0.224111	-0.000041
N30	N	1.542714	-0.123947	-0.265569
C31	C	1.486888	-0.168964	0.474517
C32	C	1.558441	-0.111255	0.525395
C33	C	1.549688	-0.118319	0.641713
C34	C	1.495640	-0.161902	0.358188
H35	H	2.109020	-0.215476	-0.155125
O36	O	1.639402	-0.045906	0.473310
C37	C	1.704243	0.006343	0.543524
H38	H	1.646112	0.003163	0.620042
H39	H	1.801798	-0.025709	0.554880
C40	C	1.793210	0.114918	0.407539
C41	C	1.721808	0.111018	0.501517
H42	H	1.804051	0.179485	0.381627
H43	H	1.749530	0.079714	0.360233
H44	H	1.874498	0.088202	0.417015
H45	H	1.640516	0.137722	0.492038
H46	H	1.765475	0.146228	0.548821
O47	O	1.924591	-0.319488	-0.000347
C48	C	1.971684	-0.362148	-0.089103
H49	H	2.003570	-0.304170	-0.150714
H50	H	2.056407	-0.408201	-0.069929
C51	C	1.826441	-0.496068	-0.053059
C52	C	1.865594	-0.424857	-0.128734
H53	H	1.761003	-0.534753	-0.077504
H54	H	1.794716	-0.467329	0.006740
H55	H	1.897054	-0.534434	-0.037088
H56	H	1.794986	-0.386485	-0.144695
H57	H	1.897305	-0.453591	-0.188537
O58	O	1.954258	-0.037770	-0.169083
C59	C	1.879972	-0.096270	-0.227248
H60	H	1.902014	-0.174334	-0.208207
H61	H	1.774307	-0.084160	-0.208244
C62	C	1.884716	0.024800	-0.365567
C63	C	1.911797	-0.071080	-0.342186
H64	H	1.904341	0.040340	-0.436466
H65	H	1.934760	0.064214	-0.326379
H66	H	1.796662	0.034880	-0.349722
H67	H	1.999852	-0.081156	-0.358019
H68	H	1.861768	-0.110495	-0.381380
O69	O	1.406083	-0.234212	0.526918
C70	C	1.415216	-0.226817	0.633072
H71	H	1.511515	-0.192833	0.647581
H72	H	1.335182	-0.180642	0.663537
C73	C	1.284946	-0.368764	0.670453
C74	C	1.403227	-0.327031	0.688275
H75	H	1.277545	-0.430579	0.704507
H76	H	1.278788	-0.373744	0.598936
H77	H	1.218264	-0.330275	0.695841
H78	H	1.469905	-0.365514	0.662876
H79	H	1.409396	-0.322059	0.759789
O80	O	2.091070	-0.242792	0.168667
C81	C	2.041984	-0.336952	0.168320
H82	H	1.955951	-0.337892	0.119121
H83	H	2.118824	-0.384621	0.135523
C84	C	2.106452	-0.372988	0.339133
C85	C	2.000778	-0.374142	0.278713
H86	H	2.081039	-0.395931	0.407228
H87	H	2.139527	-0.309552	0.339366
H88	H	2.170475	-0.412711	0.311790
H89	H	1.936763	-0.334409	0.306049
H90	H	1.967691	-0.437572	0.278487
O91	O	1.352906	0.369256	-0.000090
C92	C	1.260175	0.295192	-0.000053
H93	H	1.305882	0.229634	-0.032318
H94	H	1.220067	0.276510	0.081715
C95	C	1.095177	0.408602	-0.027252
C96	C	1.151313	0.328085	-0.066889
H97	H	1.028023	0.428892	-0.068476
H98	H	1.157650	0.458501	-0.027274
H99	H	1.061764	0.393023	0.040887
H100	H	1.184739	0.343668	-0.135021
H101	H	1.088843	0.278189	-0.066881
O102	O	1.928533	-0.058303	0.168807
C103	C	1.962087	-0.112322	0.257232
H104	H	1.982682	-0.188506	0.237095
H105	H	2.050883	-0.078955	0.287898
C106	C	1.825673	-0.019924	0.364333
C107	C	1.850958	-0.113496	0.339602
H108	H	1.757127	-0.020645	0.415145
H109	H	1.803070	0.016473	0.304760
H110	H	1.899678	0.007872	0.389883
H111	H	1.776959	-0.141286	0.314042
H112	H	1.873546	-0.149897	0.399173
O113	O	1.692234	0.350211	-0.000001
C114	C	1.680854	0.250012	-0.000018
H115	H	1.581397	0.225614	0.032243
H116	H	1.696298	0.227378	-0.081779
C117	C	1.904065	0.234055	0.027205
C118	C	1.781914	0.204089	0.066837
H119	H	1.966407	0.205726	0.068440
H120	H	1.911734	0.301561	0.027212
H121	H	1.916918	0.215192	-0.040928
H122	H	1.769057	0.222962	0.134964
H123	H	1.774245	0.136584	0.066842
H124	H	2.112434	0.024808	-0.000132
