data_functionalizedCrystal
_audit_creation_method	'MofGen! by Chris Wilmer'
_symmetry_space_group_name_H-M	'P1'
_symmetry_Int_Tables_number	1
_symmetry_cell_setting	triclinic
loop_
_symmetry_equiv_pos_as_xyz
  x,y,z
_cell_length_a	17.000371
_cell_length_b	17.000383
_cell_length_c	9.016244
_cell_angle_alpha	89.998310
_cell_angle_beta	89.992397
_cell_angle_gamma	75.599775
loop_
_atom_site_label
_atom_site_type_symbol
_atom_site_fract_x
_atom_site_fract_y
_atom_site_fract_z
O1	O	1.054090	0.028818	-0.123345
O2	O	1.554090	0.528818	0.376655
O3	O	0.820325	0.057848	-0.123346
O4	O	1.320325	0.557848	0.376654
O5	O	0.951721	-0.073549	-0.123340
O6	O	1.451721	0.426451	0.376660
O7	O	0.922694	0.160215	-0.123352
O8	O	1.422694	0.660215	0.376648
O9	O	0.951703	-0.073545	0.123341
O10	O	1.451703	0.426455	0.623341
O11	O	0.820307	0.057852	0.123335
O12	O	1.320307	0.557852	0.623335
O13	O	1.054071	0.028822	0.123335
O14	O	1.554071	0.528822	0.623335
Cu15	Cu	0.937188	0.043337	0.145859
Cu16	Cu	1.437188	0.543337	0.645859
Cu17	Cu	0.937209	0.043333	-0.145870
Cu18	Cu	1.437209	0.543333	0.354130
O19	O	0.922676	0.160219	0.123329
O20	O	1.422676	0.660219	0.623329
C21	C	0.790554	0.059409	-0.000006
C22	C	1.290554	0.559409	0.499994
C23	C	0.701870	0.064046	-0.000006
C24	C	1.201870	0.564046	0.499994
C25	C	0.674838	-0.007305	0.000000
C26	C	1.174838	0.492695	0.500000
C27	C	0.591510	-0.002944	-0.000011
C28	C	1.091510	0.497056	0.499989
C29	C	0.535216	0.072769	-0.000017
C30	C	1.035216	0.572769	0.499983
C31	C	0.562253	0.144125	-0.000028
C32	C	1.062253	0.644125	0.499972
C33	C	0.645580	0.139763	-0.000028
C34	C	1.145580	0.639763	0.499972
C35	C	0.282890	0.089619	-0.000028
C36	C	0.782890	0.589619	0.499972
C37	C	0.199559	0.093975	-0.000024
C38	C	0.699559	0.593975	0.499976
C39	C	0.228822	-0.053094	-0.000010
C40	C	0.728822	0.446906	0.499990
C41	C	0.312149	-0.057450	-0.000000
C42	C	0.812149	0.442550	0.500000
C43	C	0.339179	0.013906	-0.000019
C44	C	0.839179	0.513906	0.499981
C45	C	0.450040	0.077229	-0.000024
C46	C	0.950040	0.577229	0.499976
C47	C	0.424353	0.009446	-0.000023
C48	C	0.924353	0.509446	0.499977
C49	C	0.953271	-0.103310	-0.000001
C50	C	1.453271	0.396690	0.499999
C51	C	0.957907	-0.191992	-0.000006
C52	C	1.457907	0.308008	0.499994
C53	C	0.987840	-0.694304	-0.000012
C54	C	1.487840	-0.194304	0.499988
C55	C	0.983478	-0.610976	-0.000003
C56	C	1.483478	-0.110976	0.499997
C57	C	0.907765	-0.554682	-0.000010
C58	C	1.407765	-0.054682	0.499990
C59	C	0.836409	-0.581720	-0.000011
C60	C	1.336409	-0.081720	0.499989
C61	C	0.840772	-0.665047	-0.000010
C62	C	1.340772	-0.165047	0.499990
C63	C	0.890914	-0.302357	-0.000006
C64	C	1.390914	0.197643	0.499994
C65	C	0.886556	-0.219026	-0.000012
C66	C	1.386556	0.280974	0.499988
C67	C	1.033626	-0.248287	-0.000001
C68	C	1.533626	0.251713	0.499999
C69	C	1.037982	-0.331614	-0.000008
C70	C	1.537982	0.168386	0.499992
C71	C	0.966626	-0.358645	-0.000001
C72	C	1.466626	0.141355	0.499999
C73	C	0.903305	-0.469507	-0.000006
C74	C	1.403305	0.030493	0.499994
C75	C	0.971088	-0.443819	0.000005
C76	C	1.471088	0.056181	0.500005
C77	C	1.083843	0.027261	-0.000008
C78	C	1.583843	0.527261	0.499992
C79	C	1.172526	0.022624	-0.000018
C80	C	1.672526	0.522624	0.499982
C81	C	0.921126	0.189980	-0.000013
C82	C	1.421126	0.689980	0.499987
C83	C	0.916490	0.278663	-0.000018
C84	C	1.416490	0.778663	0.499982
N85	N	0.937179	0.043340	0.351045
N86	N	1.437179	0.543340	0.851045
N87	N	0.937225	0.043323	-0.351056
N88	N	1.437225	0.543323	0.148944
C89	C	0.866708	0.113426	0.586074
C90	C	1.366708	0.613426	1.086074
C91	C	0.866833	0.113658	0.414183
C92	C	1.366833	0.613658	0.914183
C93	C	1.019363	0.055729	0.413383
C94	C	1.519363	0.555729	0.913383
C95	C	1.018970	0.056217	0.585327
C96	C	1.518970	0.556217	1.085327
C97	C	0.926313	-0.039413	0.585593
C98	C	1.426313	0.460587	1.085593
C99	C	0.924349	-0.038716	0.413639
C100	C	1.424349	0.461284	0.913639
H101	H	0.470191	-0.052199	-0.000026
H102	H	0.970191	0.447801	0.499974
H103	H	0.824898	-0.173191	-0.000013
H104	H	1.324898	0.326809	0.499987
N105	N	1.052744	-0.504537	0.000009
N106	N	1.552744	-0.004537	0.500009
H107	H	1.084141	-0.496437	-0.091436
H108	H	1.584141	0.003563	0.408564
H109	H	1.084064	-0.496406	0.091513
H110	H	1.584064	0.003594	0.591513
N111	N	0.988556	-0.110456	0.356735
N112	N	1.488556	0.389544	0.856735
H113	H	0.978753	-0.162261	0.398780
H114	H	1.478753	0.337739	0.898780
H115	H	0.985944	-0.112030	0.244900
H116	H	1.485944	0.387970	0.744900
H117	H	0.832811	-0.324355	-0.000018
H118	H	1.332811	0.175645	0.499982
H119	H	0.357980	-0.119103	0.000011
H120	H	0.857980	0.380897	0.500011
H121	H	0.977806	-0.091512	0.626247
H122	H	1.477806	0.408488	1.126247
N123	N	0.821651	-0.408778	0.000011
N124	N	1.321651	0.091222	0.500011
H125	H	0.816574	-0.373547	-0.091424
H126	H	1.316574	0.126453	0.408576
H127	H	0.777148	-0.438591	0.000067
H128	H	1.277148	0.061409	0.500067
N129	N	0.138833	0.175638	-0.000072
N130	N	0.638833	0.675638	0.499928
H131	H	0.146945	0.207009	-0.091539
H132	H	0.646945	0.707009	0.408461
H133	H	0.081977	0.167491	-0.000019
H134	H	0.581977	0.667491	0.499981
H135	H	0.774762	-0.535879	-0.000008
H136	H	1.274762	-0.035879	0.499992
N137	N	0.874988	0.194472	0.643206
N138	N	1.374988	0.694472	1.143206
H139	H	0.924216	0.185974	0.709645
H140	H	1.424216	0.685974	1.209645
H141	H	0.881463	0.230098	0.556727
H142	H	1.381463	0.730098	1.056727
H143	H	1.029478	0.116377	0.625413
H144	H	1.529478	0.616377	1.125413
N145	N	0.763816	-0.694209	-0.000003
N146	N	1.263816	-0.194209	0.499997
H147	H	0.715190	-0.645904	-0.000008
H148	H	1.215190	-0.145904	0.499992
H149	H	0.762429	-0.728148	-0.091445
H150	H	1.262429	-0.228148	0.408555
N151	N	0.849063	-0.057104	0.643078
N152	N	1.349063	0.442896	1.143078
H153	H	0.862625	-0.109921	0.700029
H154	H	1.362625	0.390079	1.200029
H155	H	0.820393	-0.011617	0.710723
H156	H	1.320393	0.488383	1.210723
H157	H	0.516411	0.205772	-0.000043
H158	H	1.016411	0.705772	0.499957
H159	H	0.304887	0.147722	-0.000053
H160	H	0.804887	0.647722	0.499947
H161	H	0.667587	0.197865	-0.000026
H162	H	1.167587	0.697865	0.499974
H163	H	0.805556	0.107138	0.372040
H164	H	1.305556	0.607138	0.872040
N165	N	0.785258	0.105053	0.640902
N166	N	1.285258	0.605053	1.140902
H167	H	0.793276	0.055738	0.707032
H168	H	1.293276	0.555738	1.207032
H169	H	0.757748	0.155192	0.698859
H170	H	1.257748	0.655192	1.198859
H171	H	0.873189	0.175178	0.373034
H172	H	1.373189	0.675178	0.873034
H173	H	1.072772	0.006858	0.626912
H174	H	1.572772	0.506858	1.126912
N175	N	1.090209	-0.010426	0.359222
N176	N	1.590209	0.489574	0.859222
H177	H	1.069662	-0.049154	0.293595
H178	H	1.569662	0.450846	0.793595
H179	H	1.128522	0.014625	0.300895
H180	H	1.628522	0.514625	0.800895
N181	N	1.033818	0.134460	0.356322
N182	N	1.533818	0.634460	0.856322
H183	H	0.987246	0.162203	0.290108
H184	H	1.487246	0.662203	0.790108
H185	H	1.037778	0.171017	0.442832
H186	H	1.537778	0.671017	0.942832
H187	H	0.404196	0.138875	-0.000027
H188	H	0.904196	0.638875	0.499973
H189	H	0.863924	-0.048254	0.372897
H190	H	1.363924	0.451746	0.872897
H191	H	0.569505	-0.061045	-0.000007
H192	H	1.069505	0.438955	0.499993
N193	N	0.735548	-0.088971	0.000020
N194	N	1.235548	0.411029	0.500020
H195	H	0.727449	-0.120361	-0.091424
H196	H	1.227449	0.379639	0.408576
H197	H	0.792411	-0.080845	0.000080
H198	H	1.292411	0.419155	0.500080
N199	N	0.199668	-0.130053	0.000016
N200	N	0.699668	0.369947	0.500016
H201	H	0.138340	-0.115805	0.000017
H202	H	0.638340	0.384195	0.500017
H203	H	0.220628	-0.162930	-0.091428
H204	H	0.720628	0.337070	0.408572
H205	H	1.049495	-0.740134	-0.000018
H206	H	1.549495	-0.240134	0.499982
H207	H	1.041580	-0.588971	0.000003
H208	H	1.541580	-0.088971	0.500003
H209	H	1.091720	-0.226269	-0.000018
H210	H	1.591720	0.273731	0.499982
N211	N	1.119644	-0.392330	0.000011
N212	N	1.619644	0.107670	0.500011
H213	H	1.164184	-0.362560	0.000022
H214	H	1.664184	0.137440	0.500022
H215	H	1.124642	-0.427535	0.091464
H216	H	1.624642	0.072465	0.591464
