data_functionalizedCrystal
_audit_creation_method	'MofGen! by Chris Wilmer'
_symmetry_space_group_name_H-M	'P1'
_symmetry_Int_Tables_number	1
_symmetry_cell_setting	triclinic
loop_
_symmetry_equiv_pos_as_xyz
  x,y,z
_cell_length_a	8.634740
_cell_length_b	10.654550
_cell_length_c	9.130313
_cell_angle_alpha	90.004369
_cell_angle_beta	89.996881
_cell_angle_gamma	87.472381
loop_
_atom_site_label
_atom_site_type_symbol
_atom_site_fract_x
_atom_site_fract_y
_atom_site_fract_z
O1	O	2.050443	-0.409975	-0.121807
O2	O	1.601124	-0.375597	-0.121808
O3	O	1.836114	-0.211223	-0.121798
O4	O	1.815453	-0.574348	-0.121816
O5	O	1.836098	-0.211216	0.121801
O6	O	1.601107	-0.375589	0.121791
O7	O	2.050427	-0.409967	0.121792
Cu8	Cu	1.825766	-0.392778	0.144034
Cu9	Cu	1.825785	-0.392787	-0.144050
O10	O	1.815437	-0.574341	0.121782
C11	C	1.543582	-0.367805	-0.000008
C12	C	1.372150	-0.344585	-0.000009
N13	N	1.825764	-0.392772	0.346657
C14	C	1.834589	-0.164249	0.000001
C15	C	1.830050	-0.024289	-0.000002
C16	C	2.107969	-0.417759	-0.000010
C17	C	2.279400	-0.440980	-0.000020
C18	C	1.816962	-0.621315	-0.000019
C19	C	1.821501	-0.761276	-0.000027
C20	C	1.968409	0.039436	-0.000002
C21	C	1.964135	0.170944	-0.000020
C22	C	1.683131	0.174991	-0.000031
C23	C	1.687407	0.043486	-0.000024
N24	N	1.825799	-0.392784	-0.346672
C25	C	1.929853	-0.320027	0.423313
C26	C	1.929868	-0.320029	0.576650
C27	C	1.721699	-0.465531	0.576661
C28	C	1.721678	-0.465521	0.423327
H29	H	1.320401	-0.244285	-0.000046
O30	O	1.620540	-0.536023	0.651306
C31	C	1.524566	-0.457110	0.740007
H32	H	1.585019	-0.366185	0.762979
H33	H	1.410355	-0.434700	0.680941
C34	C	1.418098	-0.635682	0.857439
C35	C	1.492353	-0.524011	0.885665
H36	H	1.398220	-0.676950	0.947286
H37	H	1.482753	-0.688848	0.797677
H38	H	1.322931	-0.616992	0.808215
H39	H	1.587526	-0.542704	0.934872
H40	H	1.427713	-0.470849	0.945439
O41	O	2.031132	-0.249339	0.650886
C42	C	2.122960	-0.185105	0.550328
H43	H	2.125235	-0.236870	0.441021
H44	H	2.071840	-0.085600	0.534040
C45	C	2.286457	-0.115850	0.744399
C46	C	2.289261	-0.179435	0.610148
H47	H	2.389037	-0.112346	0.781300
H48	H	2.224587	-0.159121	0.812148
H49	H	2.243849	-0.032936	0.730807
H50	H	2.331849	-0.262352	0.623746
H51	H	2.351142	-0.136177	0.542403
O52	O	2.030703	-0.249221	0.348706
C53	C	1.947124	-0.161572	0.260116
H54	H	1.826870	-0.197027	0.237124
H55	H	1.935578	-0.067397	0.319286
C56	C	2.181564	-0.101603	0.142710
C57	C	2.033871	-0.145155	0.114461
H58	H	2.235075	-0.091471	0.052866
H59	H	2.237875	-0.160651	0.202399
H60	H	2.171921	-0.023128	0.192022
H61	H	2.043515	-0.223635	0.065166
H62	H	1.977564	-0.086120	0.054760
H63	H	1.636908	-0.524758	0.360909
H64	H	1.331143	-0.541272	-0.000011
H65	H	2.084558	-0.015742	0.000013
H66	H	2.076801	0.222822	-0.000023
H67	H	1.566996	0.230189	-0.000046
H68	H	1.574732	-0.008400	-0.000028
