data_functionalizedCrystal
_audit_creation_method	'MofGen! by Chris Wilmer'
_symmetry_space_group_name_H-M	'P1'
_symmetry_Int_Tables_number	1
_symmetry_cell_setting	triclinic
loop_
_symmetry_equiv_pos_as_xyz
  x,y,z
_cell_length_a	8.497374
_cell_length_b	19.077105
_cell_length_c	19.077068
_cell_angle_alpha	89.884684
_cell_angle_beta	92.284024
_cell_angle_gamma	92.300019
loop_
_atom_site_label
_atom_site_type_symbol
_atom_site_fract_x
_atom_site_fract_y
_atom_site_fract_z
Zn1	Zn	1.016648	1.062860	0.323110
Zn2	Zn	0.762970	1.058079	0.440586
Zn3	Zn	0.741875	0.945387	0.318369
Zn4	Zn	1.015701	0.940595	0.435851
O5	O	0.884299	1.001730	0.379479
O6	O	0.992222	1.160556	0.342659
O7	O	0.539410	1.043135	0.424372
O8	O	0.769893	0.964977	0.220667
O9	O	0.805846	1.157044	0.428968
O10	O	0.971767	1.051283	0.224150
O11	O	0.523911	0.960341	0.334579
O12	O	0.768974	0.846421	0.329988
O13	O	1.236588	0.956809	0.420898
O14	O	0.970152	0.842901	0.416301
O15	O	1.237285	1.046636	0.338067
O16	O	0.804927	1.038488	0.538289
O17	O	0.990607	0.952173	0.534810
C18	C	0.867172	0.819165	0.372117
C19	C	0.859884	0.741062	0.368984
C20	C	0.961050	0.702552	0.412519
C21	C	0.954209	0.629166	0.409566
C22	C	0.846193	0.594292	0.363082
C23	C	0.745023	0.632808	0.319542
C24	C	0.751873	0.706192	0.322492
C25	C	0.814499	0.375011	0.349430
C26	C	0.807654	0.301621	0.346485
C27	C	1.016843	0.297985	0.436509
C28	C	1.023677	0.371371	0.439457
C29	C	0.922512	0.409880	0.395915
N30	N	0.839195	0.519280	0.360064
N31	N	0.929519	0.484891	0.398930
C32	C	0.899989	0.994311	0.562047
C33	C	0.906761	0.991201	0.640152
C34	C	1.295778	1.001725	0.379480
C35	C	1.474423	1.001726	0.379487
C36	C	0.901493	1.185009	0.386870
C37	C	0.908820	1.263111	0.390020
C38	C	0.868583	1.009198	0.196199
C39	C	0.861886	1.012380	0.118097
C40	C	0.813355	1.034715	0.678636
C41	C	0.819734	1.031794	0.752025
C42	C	0.919510	0.985356	0.786928
C43	C	1.012926	0.941841	0.748439
C44	C	1.006555	0.944765	0.675052
C45	C	0.948930	0.971789	1.006221
C46	C	0.955291	0.968866	1.079613
C47	C	0.762100	1.058821	1.083193
C48	C	0.755730	1.061739	1.009804
C49	C	0.849152	1.018226	0.971322
N50	N	0.926029	0.982368	0.861943
N51	N	0.842641	1.021218	0.896309
H52	H	0.657081	0.604407	0.281691
O53	O	0.702534	0.267810	0.301362
C54	C	0.548208	0.285086	0.317322
H55	H	0.552093	0.337277	0.346462
H56	H	0.494193	0.242317	0.351756
C57	C	0.442573	0.227128	0.213089
C58	C	0.447345	0.291233	0.248873
H59	H	0.380353	0.230917	0.170867
H60	H	0.546544	0.215486	0.202337
H61	H	0.397565	0.191494	0.241791
H62	H	0.492370	0.326864	0.220174
H63	H	0.343378	0.302881	0.259619
O64	O	1.065763	0.736453	0.457750
C65	C	0.983646	0.777069	0.504769
H66	H	0.857680	0.754774	0.508135
H67	H	0.981617	0.833568	0.485276
C68	C	1.221559	0.802615	0.573781
C69	C	1.066849	0.775228	0.577920
H70	H	1.272885	0.801482	0.618904
H71	H	1.276886	0.775253	0.542103
H72	H	1.219847	0.849695	0.557534
H73	H	1.068564	0.728146	0.594159
H74	H	1.011525	0.802581	0.609603
O75	O	1.052530	0.591863	0.451935
C76	C	1.149347	0.638380	0.493590
H77	H	1.089809	0.690591	0.498070
H78	H	1.267796	0.647231	0.468268
C79	C	1.248651	0.542582	0.561743
C80	C	1.175519	0.606706	0.567250
H81	H	1.264802	0.523043	0.607179
H82	H	1.183428	0.511242	0.533678
H83	H	1.347350	0.549967	0.540639
H84	H	1.076814	0.599319	0.588346
H85	H	1.240726	0.638044	0.595321
O86	O	0.716447	0.412450	0.307068
C87	C	0.806496	0.456757	0.263463
H88	H	0.928332	0.434823	0.258319
H89	H	0.818913	0.511492	0.287428
C90	C	0.573868	0.487788	0.196724
C91	C	0.723504	0.460844	0.190402
H92	H	0.522672	0.490312	0.151658
H93	H	0.513198	0.457940	0.226103
H94	H	0.584236	0.533398	0.216698
H95	H	0.713133	0.415232	0.170437
H96	H	0.784170	0.490685	0.161018
H97	H	0.732099	1.072527	0.650222
H98	H	0.743672	1.067227	0.783355
O99	O	1.052085	0.923773	1.113629
C100	C	1.037691	0.930533	1.186654
H101	H	0.919015	0.953192	1.197603
H102	H	1.136637	0.967090	1.208942
C103	C	1.194379	0.830097	1.208079
C104	C	1.048613	0.857922	1.221527
H105	H	1.201123	0.785309	1.229591
H106	H	1.204083	0.825544	1.158881
H107	H	1.276818	0.860568	1.226653
H108	H	0.966178	0.827456	1.202946
H109	H	1.038896	0.862469	1.270723
H110	H	1.111631	0.399760	0.477312
H111	H	1.024995	0.936358	0.974894
O112	O	0.658786	1.106918	0.976013
C113	C	0.577685	1.144688	1.025717
H114	H	0.647066	1.145009	1.078114
H115	H	0.456089	1.118695	1.032527
C116	C	0.474413	1.220234	0.935674
C117	C	0.559635	1.220633	1.000029
H118	H	0.463271	1.267080	0.919828
H119	H	0.529047	1.194786	0.902187
H120	H	0.373092	1.198569	0.941359
H121	H	0.660960	1.242289	0.994342
H122	H	0.505017	1.246087	1.033515
H123	H	1.094174	0.904033	0.776864
H124	H	1.099208	0.266623	0.471957
H125	H	0.669500	0.737547	0.287037
H126	H	1.082618	0.909333	0.643719
H127	H	0.686043	1.094248	1.114533
