data_functionalizedCrystal
_audit_creation_method	'MofGen! by Chris Wilmer'
_symmetry_space_group_name_H-M	'P1'
_symmetry_Int_Tables_number	1
_symmetry_cell_setting	triclinic
loop_
_symmetry_equiv_pos_as_xyz
  x,y,z
_cell_length_a	19.188930
_cell_length_b	9.065218
_cell_length_c	18.266242
_cell_angle_alpha	90.004434
_cell_angle_beta	90.022918
_cell_angle_gamma	84.080333
loop_
_atom_site_label
_atom_site_type_symbol
_atom_site_fract_x
_atom_site_fract_y
_atom_site_fract_z
O1	O	-0.927580	-0.184179	-0.061114
O2	O	-0.724462	-0.208972	-0.061063
O3	O	-0.830219	0.018213	-0.061088
O4	O	-0.821822	-0.411363	-0.061089
O5	O	-0.830201	0.018224	0.060674
O6	O	-0.724443	-0.208960	0.060699
O7	O	-0.927562	-0.184167	0.060648
Zn8	Zn	-0.826000	-0.196562	0.080006
Zn9	Zn	-0.826024	-0.196577	-0.080421
O10	O	-0.821804	-0.411352	0.060673
C11	C	-0.829403	0.073177	-0.000208
C12	C	-0.826990	0.236936	-0.000211
C13	C	-0.698435	-0.208163	-0.000176
C14	C	-0.620912	-0.205753	-0.000157
C15	C	-0.953588	-0.184976	-0.000241
C16	C	-1.031112	-0.187386	-0.000265
C17	C	-0.577024	-0.339058	-0.000168
C18	C	-0.504182	-0.336793	-0.000176
C19	C	-0.475232	-0.201217	-0.000187
C20	C	-0.519130	-0.067895	-0.000172
C21	C	-0.591970	-0.070163	-0.000156
N22	N	-0.366453	-0.097590	-0.041658
N23	N	-0.297258	-0.095444	-0.041674
C24	C	-0.255771	-0.194375	-0.000232
N25	N	-0.286091	-0.295555	0.041217
N26	N	-0.355293	-0.297705	0.041230
C27	C	-0.396251	-0.198742	-0.000204
C28	C	-0.132899	-0.325234	-0.000252
C29	C	-0.060056	-0.322964	-0.000255
C30	C	-0.075006	-0.054061	-0.000258
C31	C	-0.147847	-0.056335	-0.000247
C32	C	-0.176789	-0.191925	-0.000247
C33	C	-0.822620	-0.466316	-0.000209
C34	C	-0.825033	-0.630075	-0.000211
N35	N	-0.825988	-0.196551	0.189493
N36	N	-0.826041	-0.196577	-0.189908
C37	C	-0.872834	-0.096002	0.227791
C38	C	-0.872838	-0.095995	0.304436
C39	C	-0.826004	-0.196562	0.342780
C40	C	-0.779150	-0.297118	0.304473
C41	C	-0.779142	-0.297112	0.227829
N42	N	-0.817943	-0.327155	0.463113
N43	N	-0.817955	-0.327156	0.535921
C44	C	-0.826024	-0.196584	0.573702
N45	N	-0.834095	-0.066006	0.535924
N46	N	-0.834087	-0.066006	0.463110
C47	C	-0.826007	-0.196579	0.425887
C48	C	-0.872877	-0.096019	0.695107
C49	C	-0.872876	-0.096011	0.771753
C50	C	-0.779191	-0.297146	0.771789
C51	C	-0.779188	-0.297142	0.695144
C52	C	-0.826034	-0.196580	0.656808
H53	H	-0.600583	-0.449466	-0.000170
O54	O	-0.461511	-0.466253	-0.000063
C55	C	-0.370526	-0.619713	0.062963
C56	C	-0.418818	-0.473064	0.062937
H57	H	-0.335986	-0.625254	0.113885
H58	H	-0.403690	-0.717066	0.063014
H59	H	-0.336115	-0.625341	0.011973
H60	H	-0.453238	-0.467291	0.113918
H61	H	-0.385612	-0.375780	0.062848
O62	O	-0.918355	0.001869	0.808876
C63	C	-0.957640	0.258595	0.832350
C64	C	-0.906103	0.147910	0.790250
H65	H	-0.947742	0.376692	0.817318
H66	H	-1.013688	0.239769	0.817236
H67	H	-0.949609	0.241252	0.893712
H68	H	-0.914070	0.165187	0.728879
H69	H	-0.850073	0.166764	0.805425
H70	H	-0.183582	0.052216	-0.000241
H71	H	-0.741045	-0.379024	0.663960
H72	H	-0.627705	0.038393	-0.000147
H73	H	-0.156464	-0.435639	-0.000241
O74	O	-0.918260	0.002089	0.190696
C75	C	-0.957453	0.259022	0.167638
C76	C	-0.905961	0.147966	0.209609
H77	H	-0.947537	0.376987	0.182926
H78	H	-0.949499	0.242186	0.106240
H79	H	-1.013486	0.240095	0.182716
H80	H	-0.849908	0.166825	0.194593
H81	H	-0.913976	0.164829	0.270997
H82	H	-0.024323	-0.431521	-0.000260
H83	H	-0.740994	-0.378992	0.196646
O84	O	-0.733587	-0.394864	0.341603
C85	C	-0.640688	-0.594405	0.333551
C86	C	-0.692244	-0.483770	0.291411
H87	H	-0.607259	-0.666335	0.292990
H88	H	-0.605369	-0.530967	0.369437
H89	H	-0.671308	-0.667887	0.369432
H90	H	-0.661681	-0.410259	0.255491
H91	H	-0.727564	-0.547299	0.255572
O92	O	-0.733598	-0.394693	0.808993
C93	C	-0.612752	-0.481831	0.832465
C94	C	-0.664312	-0.371256	0.790295
H95	H	-0.556724	-0.462942	0.817350
H96	H	-0.620740	-0.464567	0.893832
H97	H	-0.622628	-0.599929	0.817392
H98	H	-0.654467	-0.253114	0.805306
H99	H	-0.656312	-0.388650	0.728937
H100	H	-0.495555	0.042493	-0.000190
H101	H	-0.910987	-0.014114	0.335623
O102	O	-0.918301	0.001646	0.657757
C103	C	-0.931960	0.203115	0.571181
C104	C	-0.880428	0.092627	0.613434
H105	H	-0.901360	0.276722	0.535348
H106	H	-0.967193	0.139555	0.535254
H107	H	-0.965485	0.274934	0.611709
H108	H	-0.846857	0.020779	0.572960
H109	H	-0.845243	0.156277	0.649373
H110	H	-0.051436	0.056328	-0.000312
