data_functionalizedCrystal
_audit_creation_method	'MofGen! by Chris Wilmer'
_symmetry_space_group_name_H-M	'P1'
_symmetry_Int_Tables_number	1
_symmetry_cell_setting	triclinic
loop_
_symmetry_equiv_pos_as_xyz
  x,y,z
_cell_length_a	33.359448
_cell_length_b	33.359897
_cell_length_c	33.359672
_cell_angle_alpha	120.000882
_cell_angle_beta	90.000864
_cell_angle_gamma	119.999756
loop_
_atom_site_label
_atom_site_type_symbol
_atom_site_fract_x
_atom_site_fract_y
_atom_site_fract_z
O1	O	0.341637	-0.286940	-0.011918
O2	O	0.283351	-0.204849	0.011874
O3	O	0.283343	-0.286936	-0.070210
O4	O	0.341644	-0.204854	0.070167
O5	O	0.216670	-0.353604	-0.070210
O6	O	0.216678	-0.271517	0.011875
O7	O	0.274963	-0.353609	-0.011917
Cu8	Cu	0.239733	-0.318650	-0.000021
Cu9	Cu	0.318582	-0.239808	-0.000022
O10	O	0.274971	-0.271522	0.070168
C11	C	0.146295	-0.117534	0.028825
C12	C	0.170529	-0.068953	0.029163
C13	C	0.073702	-0.117540	0.028821
C14	C	0.098046	-0.068959	0.029160
C15	C	0.146290	-0.044949	0.028822
C16	C	0.098051	-0.141434	0.029163
C17	C	0.146112	-0.196172	0.022937
C18	C	0.168965	-0.222893	0.019221
C19	C	0.216768	-0.199952	0.017357
C20	C	0.241547	-0.228924	0.013326
C21	C	0.241726	-0.150286	0.019213
C22	C	0.218876	-0.123565	0.022931
C23	C	0.171068	-0.146510	0.024791
C24	C	0.219040	0.027616	0.022931
C25	C	0.242044	0.073471	0.019213
C26	C	0.217237	0.096465	0.017345
C27	C	0.242176	0.146182	0.013310
C28	C	0.169426	0.073613	0.019201
C29	C	0.146424	0.027762	0.022922
C30	C	0.171231	0.004763	0.024785
C31	C	-0.004751	-0.196186	0.022930
C32	C	-0.054328	-0.222917	0.019205
C33	C	-0.079194	-0.199982	0.017337
C34	C	-0.132947	-0.228961	0.013302
C35	C	-0.054492	-0.150320	0.019191
C36	C	-0.004917	-0.123588	0.022915
C37	C	0.019951	-0.146523	0.024784
O38	O	-0.208970	-0.204888	0.070148
O39	O	-0.232758	-0.286975	-0.070229
O40	O	-0.150675	-0.204885	0.011855
O41	O	-0.291053	-0.286977	-0.011936
O42	O	-0.150668	-0.271551	0.011858
O43	O	-0.232751	-0.353641	-0.070227
O44	O	-0.208963	-0.271554	0.070151
Cu45	Cu	-0.220857	-0.318684	-0.000037
Cu46	Cu	-0.220865	-0.239844	-0.000041
O47	O	-0.291046	-0.353643	-0.011933
C48	C	0.073702	-0.513520	-0.367173
C49	C	0.098049	-0.489514	-0.391409
C50	C	0.146294	-0.440933	-0.294583
C51	C	0.170531	-0.417038	-0.318929
C52	C	0.146294	-0.440934	-0.367173
C53	C	0.098049	-0.489514	-0.318930
C54	C	-0.004756	-0.586081	-0.366985
C55	C	-0.054332	-0.631935	-0.389835
C56	C	-0.079196	-0.654933	-0.437638
C57	C	-0.132950	-0.704649	-0.462415
C58	C	-0.054489	-0.632084	-0.462599
C59	C	-0.004915	-0.586234	-0.439751
C60	C	0.019950	-0.563232	-0.391944
C61	C	0.146105	-0.435232	-0.439925
C62	C	0.168956	-0.408665	-0.462932
C63	C	0.216761	-0.358999	-0.438127
C64	C	0.241538	-0.330190	-0.463069
C65	C	0.241723	-0.335896	-0.390316
C66	C	0.218874	-0.362463	-0.367312
C67	C	0.171065	-0.412129	-0.392116
C68	C	0.146106	-0.435231	-0.216128
C69	C	0.168956	-0.408659	-0.166551
C70	C	0.216760	-0.358993	-0.141687
C71	C	0.241538	-0.330184	-0.087935
C72	C	0.241719	-0.335890	-0.166392
C73	C	0.218872	-0.362458	-0.215967
C74	C	0.171066	-0.412128	-0.240833
C75	C	0.484580	-0.440961	-0.028889
C76	C	0.460231	-0.489543	-0.029228
C77	C	0.411993	-0.440955	-0.028886
C78	C	0.387755	-0.489537	-0.029225
C79	C	0.411988	-0.513547	-0.028888
C80	C	0.460236	-0.417061	-0.029226
C81	C	0.563037	-0.362321	-0.022999
C82	C	0.612611	-0.335600	-0.019282
C83	C	0.637472	-0.358542	-0.017418
C84	C	0.691224	-0.329570	-0.013386
C85	C	0.612763	-0.408210	-0.019276
C86	C	0.563191	-0.434931	-0.022995
C87	C	0.538330	-0.411985	-0.024854
C88	C	0.412172	-0.586114	-0.023000
C89	C	0.389320	-0.631971	-0.019283
C90	C	0.341518	-0.654966	-0.017416
C91	C	0.316739	-0.704684	-0.013383
C92	C	0.316560	-0.632113	-0.019271
C93	C	0.339409	-0.586260	-0.022991
C94	C	0.387216	-0.563261	-0.024853
C95	C	0.412187	-0.362308	-0.022992
C96	C	0.389342	-0.335576	-0.019266
C97	C	0.341540	-0.358511	-0.017400
C98	C	0.316767	-0.329532	-0.013364
C99	C	0.316579	-0.408175	-0.019255
C100	C	0.339422	-0.434907	-0.022979
C101	C	0.387226	-0.411971	-0.024848
O102	O	0.274935	0.279039	-0.011933
O103	O	0.216647	0.162454	0.011856
O104	O	0.216644	0.162449	-0.070227
O105	O	0.274939	0.279044	0.070151
O106	O	0.283318	0.162454	-0.070224
O107	O	0.283322	0.162459	0.011860
O108	O	0.341610	0.279044	-0.011930
Cu109	Cu	0.318554	0.220752	-0.000035
Cu110	Cu	0.239703	0.220746	-0.000039
O111	O	0.341613	0.279050	0.070154
O112	O	0.341642	-0.204856	-0.495831
O113	O	0.283341	-0.286938	-0.437541
O114	O	0.283349	-0.204851	-0.437536
O115	O	0.341635	-0.286943	-0.495836
O116	O	0.216676	-0.271519	-0.504209
O117	O	0.216668	-0.353606	-0.504214
O118	O	0.274969	-0.271524	-0.562504
Cu119	Cu	0.239731	-0.318652	-0.539447
Cu120	Cu	0.318580	-0.239810	-0.460598
O121	O	0.274961	-0.353611	-0.562509
C122	C	-0.249679	-0.513547	-0.367181
C123	C	-0.250023	-0.489542	-0.318939
C124	C	-0.249687	-0.440964	-0.367184
C125	C	-0.250031	-0.417069	-0.318943
C126	C	-0.249691	-0.440964	-0.294595
C127	C	-0.250019	-0.489542	-0.391418
C128	C	-0.243776	-0.586103	-0.439929
C129	C	-0.240052	-0.631955	-0.462933
C130	C	-0.238185	-0.654951	-0.438128
C131	C	-0.234145	-0.704664	-0.463066
C132	C	-0.240047	-0.632104	-0.390318
C133	C	-0.243774	-0.586256	-0.367317
C134	C	-0.245636	-0.563256	-0.392122
C135	C	-0.243804	-0.435262	-0.216140
C136	C	-0.240092	-0.408697	-0.166567
C137	C	-0.238233	-0.359033	-0.141706
C138	C	-0.234205	-0.330225	-0.087954
C139	C	-0.240091	-0.335931	-0.166413
C140	C	-0.243806	-0.362497	-0.215985
C141	C	-0.245660	-0.412160	-0.240846
C142	C	-0.243792	-0.435260	-0.439936
C143	C	-0.240069	-0.408690	-0.462941
C144	C	-0.238211	-0.359026	-0.438139
C145	C	-0.234178	-0.330217	-0.463081
C146	C	-0.240070	-0.335925	-0.390332
C147	C	-0.243791	-0.362491	-0.367325
C148	C	-0.245652	-0.412159	-0.392129
C149	C	0.412018	-0.117527	0.367130
C150	C	0.460263	-0.068946	0.391366
C151	C	0.412018	-0.117526	0.294540
C152	C	0.460264	-0.068946	0.318887
C153	C	0.484611	-0.044940	0.367131
C154	C	0.387781	-0.141422	0.318886
C155	C	0.339262	-0.196168	0.366939
C156	C	0.316254	-0.222892	0.389788
C157	C	0.341058	-0.199954	0.437591
C158	C	0.316115	-0.228929	0.462367
C159	C	0.388871	-0.150288	0.462553
C160	C	0.411877	-0.123564	0.439706
C161	C	0.387072	-0.146506	0.391899
C162	C	0.563068	0.027621	0.439884
C163	C	0.612644	0.073475	0.462892
C164	C	0.637508	0.096473	0.438088
C165	C	0.691262	0.146189	0.463031
C166	C	0.612801	0.073624	0.390277
C167	C	0.563227	0.027774	0.367272
C168	C	0.538363	0.004772	0.392076
C169	C	0.339262	-0.196167	0.216084
C170	C	0.316257	-0.222895	0.166508
C171	C	0.341062	-0.199957	0.141645
C172	C	0.316119	-0.228931	0.087892
C173	C	0.388873	-0.150295	0.166350
C174	C	0.411880	-0.123567	0.215925
C175	C	0.387073	-0.146505	0.240790
O176	O	-0.291058	-0.837506	-0.562509
O177	O	-0.150679	-0.720924	-0.504217
O178	O	-0.232756	-0.720916	-0.504213
O179	O	-0.208980	-0.837514	-0.562513
O180	O	-0.232754	-0.720914	-0.437540
O181	O	-0.150676	-0.720922	-0.437544
O182	O	-0.291056	-0.837504	-0.495837
Cu183	Cu	-0.220866	-0.779213	-0.460603
Cu184	Cu	-0.220869	-0.779215	-0.539451
O185	O	-0.208978	-0.837512	-0.495841
C186	C	-0.192009	-0.044965	0.367113
C187	C	-0.191666	-0.068970	0.391350
C188	C	-0.192006	-0.117553	0.294524
C189	C	-0.191663	-0.141447	0.318871
C190	C	-0.192002	-0.117550	0.367114
C191	C	-0.191670	-0.068973	0.318869
C192	C	-0.197907	0.027593	0.366923
C193	C	-0.201628	0.073447	0.389772
C194	C	-0.203493	0.096445	0.437575
C195	C	-0.207531	0.146161	0.462351
C196	C	-0.201632	0.073598	0.462537
C197	C	-0.197909	0.027749	0.439690
C198	C	-0.196048	0.004746	0.391883
C199	C	-0.197888	-0.123249	0.439868
C200	C	-0.201602	-0.149815	0.462876
C201	C	-0.203464	-0.199480	0.438072
C202	C	-0.207493	-0.228288	0.463015
C203	C	-0.201607	-0.222585	0.390261
C204	C	-0.197891	-0.196019	0.367255
C205	C	-0.196033	-0.146354	0.392059
C206	C	-0.197900	-0.123258	0.216067
C207	C	-0.201625	-0.149831	0.166490
C208	C	-0.203487	-0.199496	0.141627
C209	C	-0.207521	-0.228307	0.087874
C210	C	-0.201628	-0.222598	0.166333
C211	C	-0.197906	-0.196029	0.215908
C212	C	-0.196042	-0.146360	0.240773
C213	C	0.146266	-0.117583	-0.367179
C214	C	0.098020	-0.141486	-0.391416
C215	C	0.146266	-0.044988	-0.294593
C216	C	0.098021	-0.069001	-0.318941
C217	C	0.073673	-0.117589	-0.367183
C218	C	0.170503	-0.068995	-0.318937
C219	C	0.219022	-0.123278	-0.366986
C220	C	0.242030	-0.149845	-0.389833
C221	C	0.217225	-0.199518	-0.437634
C222	C	0.242168	-0.228328	-0.462408
C223	C	0.169411	-0.222628	-0.462596
C224	C	0.146406	-0.196061	-0.439752
C225	C	0.171211	-0.146388	-0.391946
C226	C	-0.004785	-0.196244	-0.439934
C227	C	-0.054362	-0.222974	-0.462942
C228	C	-0.079226	-0.200035	-0.438140
C229	C	-0.132981	-0.229016	-0.463082
C230	C	-0.054518	-0.150362	-0.390330
C231	C	-0.004944	-0.123632	-0.367325
C232	C	0.019920	-0.146575	-0.392127
C233	C	0.219024	0.027589	-0.216138
C234	C	0.242030	0.073447	-0.166563
C235	C	0.217225	0.096445	-0.141701
C236	C	0.242169	0.146170	-0.087950
C237	C	0.169414	0.073589	-0.166407
C238	C	0.146405	0.027731	-0.215981
C239	C	0.171212	0.004733	-0.240844
O240	O	-0.208929	-0.271549	-0.562514
O241	O	-0.232728	-0.353637	-0.504226
O242	O	-0.150640	-0.271546	-0.504210
O243	O	-0.291016	-0.353639	-0.562530
O244	O	-0.150651	-0.204881	-0.437542
O245	O	-0.232739	-0.286972	-0.437558
O246	O	-0.208940	-0.204883	-0.495846
Cu247	Cu	-0.220840	-0.239841	-0.460615
Cu248	Cu	-0.220827	-0.318680	-0.539458
O249	O	-0.291027	-0.286974	-0.495862
C250	C	0.484584	0.559086	0.367109
C251	C	0.460237	0.582984	0.391343
C252	C	0.411991	0.486487	0.294520
C253	C	0.387754	0.510495	0.318864
C254	C	0.411992	0.559082	0.367105
C255	C	0.460236	0.510499	0.318868
C256	C	0.563041	0.564792	0.366924
C257	C	0.612617	0.591364	0.389775
C258	C	0.637482	0.641037	0.437576
C259	C	0.691236	0.669852	0.462353
C260	C	0.612775	0.664142	0.462534
C261	C	0.563201	0.637570	0.439686
C262	C	0.538336	0.587897	0.391881
C263	C	0.412182	0.637731	0.439853
C264	C	0.389331	0.664456	0.462857
C265	C	0.341527	0.641512	0.438051
C266	C	0.316749	0.670488	0.462990
C267	C	0.316564	0.591839	0.390242
C268	C	0.339412	0.565114	0.367240
C269	C	0.387221	0.588063	0.392046
C270	C	0.412177	0.413915	0.216069
C271	C	0.389328	0.368056	0.166493
C272	C	0.341523	0.345053	0.141628
C273	C	0.316745	0.295328	0.087877
C274	C	0.316564	0.367904	0.166330
C275	C	0.339412	0.413762	0.215903
C276	C	0.387218	0.436766	0.240771
H277	H	-0.074743	-0.131645	0.017669
H278	H	0.107178	-0.475674	-0.460127
Br279	Br	0.028616	-0.555222	-0.473620
Br280	Br	-0.237573	-0.440052	-0.133040
H281	H	0.543110	0.009175	0.328346
H282	H	-0.203147	-0.263043	0.146084
Br283	Br	0.305592	-0.227294	0.249831
Br284	Br	-0.087889	-0.290382	-0.527823
Br285	Br	0.529654	-0.502340	-0.025526
H286	H	0.149214	0.092315	-0.146160
H287	H	0.210169	-0.377941	-0.299378
H288	H	0.632754	0.092075	0.501821
Br289	Br	0.065437	-0.035520	-0.286365
Br290	Br	-0.195391	-0.227386	0.249435
Br291	Br	-0.237572	-0.268527	-0.132669
H292	H	0.015496	-0.214862	0.024455
H293	H	0.348140	-0.180513	0.299341
H294	H	-0.245296	-0.567381	-0.460131
H295	H	0.107497	0.009159	0.024435
Br296	Br	0.306917	-0.118480	-0.355959
Br297	Br	0.476753	-0.056148	0.473587
Br298	Br	0.321690	-0.523020	-0.030130
Br299	Br	0.135760	0.104827	0.016670
H300	H	0.451097	-0.567393	-0.024520
Br301	Br	0.065454	-0.206619	-0.457496
Br302	Br	-0.195380	-0.003622	0.302042
Br303	Br	0.646549	0.104842	0.356616
H304	H	-0.191114	-0.180538	0.299323
Br305	Br	0.646524	0.731560	0.527413
H306	H	0.277325	-0.263327	0.369462
Br307	Br	0.423191	-0.662984	-0.016770
Br308	Br	-0.190774	-0.035496	0.286285
Br309	Br	-0.246312	-0.331137	-0.302442
Br310	Br	0.529668	0.668919	0.473556
H311	H	0.277635	-0.650839	-0.017747
Br312	Br	-0.246335	-0.331153	-0.249519
H313	H	-0.191119	-0.048875	0.430990
H314	H	0.148630	-0.427477	-0.146442
Br315	Br	0.492818	-0.351901	-0.030129
Br316	Br	0.492813	0.648142	0.457410
Br317	Br	-0.195359	-0.227363	0.302377
H318	H	-0.245318	-0.475703	-0.236381
H319	H	0.479809	-0.048857	0.299339
Br320	Br	-0.250907	-0.523014	-0.457477
Br321	Br	0.305540	0.444777	0.249428
Br322	Br	0.306916	0.104464	-0.133037
Br323	Br	0.236569	-0.035505	-0.286353
H324	H	-0.203133	-0.131014	0.146381
H325	H	0.239227	0.008867	-0.236381
Br326	Br	-0.237516	-0.663319	-0.356654
Br327	Br	0.252690	-0.055863	-0.302108
H328	H	0.632728	0.572548	0.369451
Br329	Br	0.135747	-0.290046	-0.527475
H330	H	-0.238556	-0.427505	-0.501867
H331	H	0.239199	-0.083124	0.024446
Br332	Br	-0.195367	-0.055847	0.249813
H333	H	0.277654	-0.426848	-0.017731
H334	H	0.451103	0.432640	0.236314
H335	H	-0.245310	-0.475704	-0.460137
Br336	Br	0.065457	-0.035491	0.030042
H337	H	0.107477	-0.214878	-0.460078
H338	H	0.015458	-0.214926	-0.460134
H339	H	0.015488	-0.567357	-0.328059
H340	H	-0.074436	-0.263352	0.017696
Br341	Br	-0.204150	0.104453	0.355898
H342	H	-0.238553	-0.295480	-0.370135
Br343	Br	0.476768	-0.056171	0.249453
Br344	Br	0.081232	-0.227313	0.025464
Br345	Br	-0.195364	-0.055844	0.473533
Br346	Br	0.305595	-0.227303	0.302059
H347	H	0.409072	-0.131619	0.146101
Br348	Br	-0.237529	-0.662961	-0.527813
H349	H	0.479805	-0.048850	0.431008
Br350	Br	0.252709	-0.003594	0.025462
H351	H	0.280646	-0.295443	-0.146142
Br352	Br	0.251372	-0.290292	0.132982
H353	H	-0.203152	0.092331	0.501464
Br354	Br	-0.195380	-0.003256	0.473564
Br355	Br	0.529324	-0.003593	0.473549
H356	H	-0.203112	-0.130996	0.501804
H357	H	0.542796	-0.343636	-0.024516
H358	H	0.210169	-0.048857	0.029714
H359	H	-0.074770	-0.131687	-0.370138
Br360	Br	-0.250947	-0.351917	-0.286365
Br361	Br	-0.088238	-0.663301	-0.527480
H362	H	0.479778	-0.509636	-0.029775
H363	H	0.148627	-0.427483	-0.501860
Br364	Br	-0.204130	-0.289991	0.356599
H365	H	0.632725	-0.295161	-0.017768
Br366	Br	0.028608	-0.056189	0.025431
H367	H	0.280651	-0.295452	-0.370122
Br368	Br	0.028589	-0.056223	-0.302445
H369	H	0.319088	-0.567652	-0.024498
Br370	Br	0.423220	-0.268176	-0.016747
H371	H	0.107473	0.009118	-0.236094
Br372	Br	0.321681	0.476993	0.286290
H373	H	0.319096	-0.475343	-0.024487
Br374	Br	0.422535	-0.119157	0.527434
Br375	Br	0.065471	-0.206596	0.030062
Br376	Br	0.492815	0.477013	0.286289
Br377	Br	-0.250957	-0.523043	-0.286367
H378	H	0.409653	0.349453	0.146385
H379	H	0.239200	-0.343652	-0.328385
Br380	Br	0.529295	0.497375	0.302048
Br381	Br	0.477065	0.668876	0.473521
H382	H	0.280973	0.092073	0.017704
H383	H	0.239197	-0.343642	-0.236079
Br384	Br	0.423208	0.731863	0.527739
H385	H	0.107181	-0.475676	-0.236373
Br386	Br	0.251680	0.560698	0.356578
H387	H	0.319087	0.524671	0.328314
Br388	Br	0.251683	0.336686	0.132582
H389	H	0.148641	-0.263329	0.017713
H390	H	0.280653	-0.131608	0.017696
H391	H	0.078500	-0.509609	-0.431049
Br392	Br	0.646507	-0.439347	-0.016749
Br393	Br	0.065473	-0.523002	-0.286352
H394	H	-0.074443	-0.650534	-0.369509
Br395	Br	-0.246313	-0.555258	-0.302441
Br396	Br	0.477063	-0.331182	-0.025532
