data_functionalizedCrystal
_audit_creation_method	'MofGen! by Chris Wilmer'
_symmetry_space_group_name_H-M	'P1'
_symmetry_Int_Tables_number	1
_symmetry_cell_setting	triclinic
loop_
_symmetry_equiv_pos_as_xyz
  x,y,z
_cell_length_a	10.654550
_cell_length_b	17.666332
_cell_length_c	19.188930
_cell_angle_alpha	89.989658
_cell_angle_beta	96.185159
_cell_angle_gamma	90.012773
loop_
_atom_site_label
_atom_site_type_symbol
_atom_site_fract_x
_atom_site_fract_y
_atom_site_fract_z
O1	O	1.665775	0.063020	-0.098062
O2	O	1.300099	0.063009	-0.107405
O3	O	1.493489	0.063000	-0.001147
O4	O	1.472384	0.063029	-0.204320
O5	O	1.493455	-0.062897	-0.001143
O6	O	1.300065	-0.062888	-0.107401
O7	O	1.665741	-0.062877	-0.098058
Cu8	Cu	1.482900	-0.074378	-0.102730
Cu9	Cu	1.482940	0.074510	-0.102733
O10	O	1.472350	-0.062868	-0.204316
C11	C	1.253298	0.000059	-0.106717
C12	C	1.113898	0.000054	-0.104664
C13	C	1.033089	0.000074	-0.167227
C14	C	0.902109	0.000087	-0.165295
C15	C	0.932761	0.000063	-0.038231
C16	C	1.063738	0.000044	-0.040164
C17	C	1.083249	0.000083	-0.231728
C18	C	1.002438	0.000104	-0.294296
C19	C	0.871458	0.000117	-0.292363
C20	C	0.821289	0.000109	-0.227863
N21	N	1.482881	-0.179097	-0.102726
C22	C	1.558798	-0.218692	-0.145468
C23	C	1.558818	-0.297939	-0.145466
C24	C	1.482898	-0.337589	-0.102731
C25	C	1.406976	-0.297985	-0.059980
C26	C	1.406967	-0.218739	-0.059978
N27	N	1.372916	-0.462033	-0.100291
N28	N	1.372927	-0.537313	-0.100297
C29	C	1.482920	-0.576353	-0.102733
N30	N	1.592903	-0.537269	-0.105177
N31	N	1.592890	-0.461982	-0.105174
C32	C	1.482899	-0.423518	-0.102728
C33	C	1.558866	-0.701877	-0.145475
C34	C	1.558889	-0.781126	-0.145468
C35	C	1.407035	-0.781171	-0.059986
C36	C	1.407024	-0.701923	-0.059989
C37	C	1.482937	-0.662281	-0.102737
C38	C	1.712541	0.000075	-0.098746
C39	C	1.851941	0.000085	-0.100798
C40	C	1.492789	0.000049	0.024871
C41	C	1.490737	0.000043	0.102389
N42	N	1.482969	0.179229	-0.102731
C43	C	1.473051	0.000084	-0.230334
C44	C	1.475102	0.000096	-0.307852
C45	C	1.604213	0.000043	0.146570
C46	C	1.602285	0.000055	0.219407
C47	C	1.486876	0.000052	0.248058
C48	C	1.373386	0.000056	0.203867
C49	C	1.375316	0.000052	0.131032
N50	N	1.398648	-0.042796	0.356641
N51	N	1.396821	-0.042793	0.425832
C52	C	1.481052	0.000067	0.467505
N53	N	1.567197	0.042915	0.437375
N54	N	1.569027	0.042909	0.368178
C55	C	1.484770	0.000057	0.327034
C56	C	1.592445	0.000081	0.590665
C57	C	1.590513	0.000098	0.663502
C58	C	1.361610	0.000091	0.647960
C59	C	1.363545	0.000082	0.575125
C60	C	1.478966	0.000073	0.546481
H61	H	0.891902	0.000069	0.014283
H62	H	1.129536	0.000030	0.010780
H63	H	1.620718	-0.813363	-0.180272
H64	H	1.686428	0.000077	0.567342
O65	O	1.632665	-0.180302	-0.187006
C66	C	1.699655	-0.232250	-0.224743
H67	H	1.707145	-0.288745	-0.195880
H68	H	1.647618	-0.240672	-0.279280
C69	C	1.823807	-0.131913	-0.266734
C70	C	1.833015	-0.201300	-0.231281
H71	H	1.906068	-0.112821	-0.270770
H72	H	1.778672	-0.096914	-0.241312
H73	H	1.780438	-0.138941	-0.312178
H74	H	1.876370	-0.194269	-0.185835
H75	H	1.878161	-0.236297	-0.256695
O76	O	1.632690	-0.663281	-0.186893
C77	C	1.718623	-0.617448	-0.144761
H78	H	1.679827	-0.605593	-0.092756
H79	H	1.813078	-0.647974	-0.134557
C80	C	1.784954	-0.556723	-0.246645
C81	C	1.737299	-0.542157	-0.182774
H82	H	1.796480	-0.510282	-0.270094
H83	H	1.727063	-0.587604	-0.275031
H84	H	1.863661	-0.582163	-0.238133
H85	H	1.658586	-0.516726	-0.191287
H86	H	1.795177	-0.511271	-0.154390
H87	H	1.279418	0.000055	0.227199
H88	H	1.620639	-0.330183	-0.180274
O89	O	1.333148	-0.663574	-0.018456
C90	C	1.266165	-0.715560	0.019279
H91	H	1.258682	-0.772044	-0.009587
H92	H	1.318203	-0.723990	0.073816
C93	C	1.142000	-0.615282	0.061274
C94	C	1.132801	-0.684655	0.025818
H95	H	1.059737	-0.596217	0.065311
H96	H	1.187131	-0.580257	0.035854
H97	H	1.185370	-0.622316	0.106718
H98	H	1.089446	-0.677618	-0.019628
H99	H	1.087659	-0.719678	0.051230
O100	O	1.253198	0.000039	0.532302
C101	C	1.150918	0.000058	0.573206
H102	H	1.183087	-0.023771	0.627409
H103	H	1.115537	0.060456	0.578549
C104	C	1.004023	-0.020053	0.470878
C105	C	1.043531	-0.049327	0.537448
H106	H	0.937778	-0.050513	0.448820
H107	H	1.072930	-0.020063	0.443319
H108	H	0.974547	0.030278	0.475340
H109	H	1.073020	-0.099653	0.532985
H110	H	0.974626	-0.049327	0.565005
O111	O	1.333095	-0.180390	-0.018440
C112	C	1.266116	-0.232375	0.019298
H113	H	1.258634	-0.288861	-0.009565
H114	H	1.318156	-0.240802	0.073834
C115	C	1.141949	-0.132096	0.061290
C116	C	1.132750	-0.201472	0.025837
H117	H	1.059685	-0.113033	0.065327
H118	H	1.187077	-0.097072	0.035867
H119	H	1.185321	-0.139128	0.106733
H120	H	1.089394	-0.194437	-0.019608
H121	H	1.087612	-0.236494	0.051252
H122	H	1.267641	0.000093	0.671287
O123	O	1.712636	0.000019	0.262235
C124	C	1.814921	0.000032	0.221335
H125	H	1.782742	-0.023803	0.167141
H126	H	1.850344	0.060430	0.215970
C127	C	1.961792	-0.020068	0.323676
C128	C	1.922272	-0.049349	0.257115
H129	H	2.028015	-0.050525	0.345747
H130	H	1.892882	-0.020074	0.351231
H131	H	1.991303	0.030263	0.319195
H132	H	1.892748	-0.099675	0.261598
H133	H	1.991180	-0.049352	0.229561
H134	H	1.043295	0.000104	-0.346810
H135	H	1.189898	0.000076	-0.233309
H136	H	1.282908	0.000052	0.095058
H137	H	0.805665	0.000126	-0.343309
H138	H	1.698197	0.000038	0.123254
H139	H	0.714635	0.000107	-0.226294
H140	H	1.345162	-0.330273	-0.025183
H141	H	1.345220	-0.813453	-0.025189
H142	H	1.682922	0.000102	0.699475
