data_functionalizedCrystal
_audit_creation_method	'MofGen! by Chris Wilmer'
_symmetry_space_group_name_H-M	'P1'
_symmetry_Int_Tables_number	1
_symmetry_cell_setting	triclinic
loop_
_symmetry_equiv_pos_as_xyz
  x,y,z
_cell_length_a	21.295418
_cell_length_b	12.759400
_cell_length_c	21.295412
_cell_angle_alpha	90.023580
_cell_angle_beta	89.964379
_cell_angle_gamma	89.969501
loop_
_atom_site_label
_atom_site_type_symbol
_atom_site_fract_x
_atom_site_fract_y
_atom_site_fract_z
Zn1	Zn	0.962375	0.417844	-0.356267
Zn2	Zn	0.962321	0.593538	-0.251006
Zn3	Zn	0.857113	0.417922	-0.250977
Zn4	Zn	0.857096	0.593530	-0.356203
O5	O	0.909726	0.505708	-0.303613
O6	O	1.050457	0.441120	-0.342343
O7	O	0.948349	0.570278	-0.162913
O8	O	0.871105	0.270891	-0.264958
O9	O	1.050417	0.570202	-0.265009
O10	O	0.948441	0.270833	-0.342314
O11	O	0.871053	0.441254	-0.162891
O12	O	0.769021	0.441246	-0.264896
O13	O	0.871077	0.570188	-0.444301
O14	O	0.769009	0.570264	-0.342205
O15	O	0.948425	0.441112	-0.444348
O16	O	0.948333	0.740558	-0.264946
O17	O	0.871025	0.740552	-0.342234
C18	C	0.746174	0.505764	-0.303541
C19	C	0.676206	0.505812	-0.303525
C20	C	0.909689	0.778676	-0.303600
C21	C	0.909730	0.895452	-0.303615
C22	C	0.909755	0.505640	-0.467803
C23	C	0.909767	0.505612	-0.537772
C24	C	0.643350	0.573081	-0.343719
C25	C	0.577607	0.573055	-0.343748
C26	C	0.544724	0.505772	-0.303570
C27	C	0.577588	0.438490	-0.263372
C28	C	0.643329	0.438510	-0.263350
N29	N	0.441454	0.497564	-0.248512
N30	N	0.379003	0.497551	-0.248535
C31	C	0.346649	0.505705	-0.303637
N32	N	0.379106	0.513893	-0.358715
N33	N	0.441563	0.513912	-0.358691
C34	C	0.473438	0.505742	-0.303590
C35	C	0.242507	0.572949	-0.343865
C36	C	0.176763	0.572916	-0.343895
C37	C	0.176746	0.438356	-0.263514
C38	C	0.242488	0.438384	-0.263490
C39	C	0.275365	0.505686	-0.303665
C40	C	1.073916	0.505654	-0.303686
C41	C	1.143884	0.505630	-0.303717
C42	C	0.909781	0.231675	-0.303640
C43	C	0.909804	0.114898	-0.303652
C44	C	0.950029	0.950283	-0.263416
C45	C	0.950068	1.060007	-0.263436
C46	C	0.869503	1.060060	-0.343855
C47	C	0.869468	0.950338	-0.343838
C48	C	0.990291	0.895397	-0.223193
C49	C	1.030593	0.950227	-0.182991
C50	C	1.030632	1.059951	-0.183010
C51	C	0.990369	1.114845	-0.223232
C52	C	0.950102	0.438235	-1.037255
C53	C	0.950097	0.438261	-0.971513
C54	C	0.909822	0.505473	-0.938611
C55	C	0.869560	0.572683	-0.971458
C56	C	0.869571	0.572663	-1.037199
N57	N	0.854702	0.513582	-0.835365
N58	N	0.854694	0.513595	-0.772913
C59	C	0.909789	0.505538	-0.740536
N60	N	0.964894	0.497448	-0.772970
N61	N	0.964901	0.497430	-0.835428
C62	C	0.909806	0.505502	-0.867326
C63	C	0.950046	0.438365	-0.636412
C64	C	0.950042	0.438398	-0.570669
C65	C	0.869500	0.572815	-0.570615
C66	C	0.869509	0.572787	-0.636357
C67	C	0.909781	0.505557	-0.669252
C68	C	0.909733	0.505700	-0.140062
C69	C	0.909843	0.505433	-0.070094
H70	H	0.670114	0.627882	-0.376434
H71	H	0.836723	0.627503	-0.663095
H72	H	1.063452	1.104591	-0.150280
C73	C	0.825213	1.120441	-0.388090
H74	H	0.831002	1.193640	-0.382338
H75	H	0.834391	1.102399	-0.430395
H76	H	0.782916	1.102543	-0.378816
H77	H	0.836654	0.905695	-0.376573
C78	C	0.541458	0.646993	-0.388000
H79	H	0.570454	0.687061	-0.411932
H80	H	0.515874	0.606799	-0.415465
H81	H	0.515751	0.692730	-0.363909
C82	C	0.541419	0.364480	-0.219178
H83	H	0.497560	0.374109	-0.224944
H84	H	0.552231	0.293913	-0.228460
H85	H	0.552147	0.379772	-0.176861
C86	C	0.990415	1.235539	-0.223256
H87	H	1.020181	1.260335	-0.193553
H88	H	1.001282	1.260292	-0.263896
H89	H	0.949806	1.260448	-0.212319
H90	H	0.670081	0.383729	-0.230618
H91	H	0.982898	0.383496	-1.064034
C92	C	0.994376	0.364328	-0.935383
H93	H	1.018357	0.324279	-0.964390
H94	H	1.021795	0.404500	-0.909739
H95	H	0.970285	0.318573	-0.909738
C96	C	0.825197	0.646749	-0.534434
H97	H	0.801221	0.686770	-0.563410
H98	H	0.797773	0.606580	-0.508779
H99	H	0.849269	0.692530	-0.508795
C100	C	0.140585	0.364340	-0.219320
H101	H	0.169572	0.324276	-0.195379
H102	H	0.114892	0.404457	-0.191860
H103	H	0.114985	0.318603	-0.243462
H104	H	0.836769	0.627409	-0.944665
H105	H	0.982830	0.383680	-0.543933
C106	C	1.074877	0.889849	-0.138748
H107	H	1.069078	0.816649	-0.144488
H108	H	1.117174	0.907738	-0.148011
H109	H	1.065688	0.907902	-0.096444
H110	H	0.269277	0.627745	-0.376581
C111	C	0.140621	0.646930	-0.388102
H112	H	0.169619	0.687023	-0.412017
H113	H	0.115016	0.606811	-0.415587
H114	H	0.114937	0.692639	-0.363969
C115	C	0.825285	0.646582	-1.073326
H116	H	0.831063	0.636947	-1.117190
H117	H	0.782990	0.631236	-1.062535
H118	H	0.834492	0.717175	-1.062547
C119	C	0.278632	0.364400	-0.219268
H120	H	0.249634	0.324330	-0.195338
H121	H	0.304323	0.318684	-0.243383
H122	H	0.304231	0.404550	-0.191788
C123	C	0.994350	0.364429	-0.672599
H124	H	1.018335	0.324423	-0.643623
H125	H	0.970285	0.318650	-0.698240
H126	H	1.021775	0.404609	-0.698252
C127	C	0.990253	0.774705	-0.223173
H128	H	1.020005	0.749867	-0.193464
H129	H	0.949628	0.749969	-0.212237
H130	H	1.001113	0.749819	-0.263806
