data_functionalizedCrystal
_audit_creation_method	'MofGen! by Chris Wilmer'
_symmetry_space_group_name_H-M	'P1'
_symmetry_Int_Tables_number	1
_symmetry_cell_setting	triclinic
loop_
_symmetry_equiv_pos_as_xyz
  x,y,z
_cell_length_a	11.792241
_cell_length_b	19.188930
_cell_length_c	10.268362
_cell_angle_alpha	89.989600
_cell_angle_beta	89.999626
_cell_angle_gamma	83.669099
loop_
_atom_site_label
_atom_site_type_symbol
_atom_site_fract_x
_atom_site_fract_y
_atom_site_fract_z
O1	O	1.505476	0.095695	-0.108190
O2	O	2.005476	0.595695	0.391810
O3	O	1.174988	0.105558	-0.108222
O4	O	1.674988	0.605558	0.391778
O5	O	1.349769	-0.000975	-0.108179
O6	O	1.849769	0.499025	0.391821
O7	O	1.330695	0.202228	-0.108232
O8	O	1.830695	0.702228	0.391768
O9	O	1.349754	-0.000980	0.108421
O10	O	1.849754	0.499020	0.608421
O11	O	1.174973	0.105553	0.108379
O12	O	1.674973	0.605553	0.608379
O13	O	1.505461	0.095691	0.108411
O14	O	2.005461	0.595691	0.608411
Cu15	Cu	1.340216	0.100622	0.128172
Cu16	Cu	1.840216	0.600622	0.628172
Cu17	Cu	1.340233	0.100627	-0.127983
Cu18	Cu	1.840233	0.600627	0.372017
O19	O	1.330680	0.202224	0.108368
O20	O	1.830680	0.702224	0.608368
C21	C	1.132699	0.104936	0.000075
C22	C	1.632699	0.604936	0.500075
C23	C	1.006713	0.103082	0.000064
C24	C	1.506713	0.603082	0.500064
C25	C	0.776051	0.099672	0.000102
C26	C	1.276051	0.599672	0.500102
C27	C	0.904408	0.101566	0.000081
C28	C	1.404408	0.601566	0.500081
C29	C	1.349144	-0.026992	0.000125
C30	C	1.849144	0.473008	0.500125
C31	C	1.347290	-0.104507	0.000136
C32	C	1.847290	0.395493	0.500136
C33	C	1.449846	-0.148850	0.000152
C34	C	1.949846	0.351150	0.500152
C35	C	1.448104	-0.221684	0.000131
C36	C	1.948104	0.278316	0.500131
C37	C	1.343800	-0.250171	0.000120
C38	C	1.843800	0.249829	0.500120
C39	C	1.241230	-0.205818	0.000096
C40	C	1.741230	0.294182	0.500096
C41	C	1.242975	-0.132986	0.000104
C42	C	1.742975	0.367014	0.500104
N43	N	1.264067	-0.358629	0.073825
N44	N	1.764067	0.141371	0.573825
N45	N	1.262416	-0.427817	0.073820
N46	N	1.762416	0.072183	0.573820
C47	C	1.338536	-0.469609	0.000093
C48	C	1.838536	0.030391	0.500093
N49	N	1.416387	-0.439602	-0.073614
N50	N	1.916387	0.060398	0.426386
N51	N	1.418041	-0.370407	-0.073603
N52	N	1.918041	0.129593	0.426397
C53	C	1.341896	-0.329144	0.000110
C54	C	1.841896	0.170856	0.500110
C55	C	1.439211	-0.592928	0.000084
C56	C	1.939211	-0.092928	0.500084
C57	C	1.437464	-0.665762	0.000055
C58	C	1.937464	-0.165762	0.500055
C59	C	1.230588	-0.649895	0.000034
C60	C	1.730588	-0.149895	0.500034
C61	C	1.232337	-0.577062	0.000050
C62	C	1.732337	-0.077062	0.500050
C63	C	1.336652	-0.548583	0.000081
C64	C	1.836652	-0.048583	0.500081
C65	C	1.547751	0.096313	0.000111
C66	C	2.047751	0.596313	0.500111
C67	C	1.673737	0.098167	0.000114
C68	C	2.173737	0.598167	0.500114
C69	C	1.331305	0.228240	0.000062
C70	C	1.831305	0.728240	0.500062
C71	C	1.333159	0.305755	0.000042
C72	C	1.833159	0.805755	0.500042
N73	N	1.340211	0.100617	0.308338
N74	N	1.840211	0.600617	0.808338
N75	N	1.340247	0.100625	-0.308149
N76	N	1.840247	0.600625	0.191851
C77	C	1.340228	0.100625	0.574009
C78	C	1.840228	0.600625	1.074009
C79	C	1.340215	0.100623	0.426171
C80	C	1.840215	0.600623	0.926171
H81	H	1.534787	-0.125667	0.000173
H82	H	2.034787	0.374333	0.500173
H83	H	1.531620	-0.257795	0.000139
H84	H	2.031620	0.242205	0.500139
H85	H	1.159459	-0.096881	0.000091
H86	H	1.659459	0.403119	0.500091
C87	C	1.553951	-0.561594	0.000108
C88	C	2.053951	-0.061594	0.500108
C89	C	1.666767	-0.610375	0.000109
C90	C	2.166767	-0.110375	0.500109
C91	C	1.781508	-0.579044	0.000135
C92	C	2.281508	-0.079044	0.500135
C93	C	1.783433	-0.498932	0.000161
C94	C	2.283433	0.001068	0.500161
C95	C	1.670613	-0.450147	0.000160
C96	C	2.170613	0.049853	0.500160
C97	C	1.555872	-0.481478	0.000134
C98	C	2.055872	0.018522	0.500134
H99	H	1.665345	-0.669683	0.000090
H100	H	2.165345	-0.169683	0.500090
H101	H	1.865024	-0.615159	0.000136
H102	H	2.365024	-0.115159	0.500136
H103	H	1.868371	-0.475739	0.000180
H104	H	2.368371	0.024261	0.500180
H105	H	1.672034	-0.390839	0.000179
H106	H	2.172034	0.109161	0.500179
H107	H	1.472356	-0.445363	0.000133
H108	H	1.972356	0.054637	0.500133
H109	H	1.520981	-0.701866	0.000061
H110	H	2.020981	-0.201866	0.500061
H111	H	1.148825	-0.540957	0.000044
H112	H	1.648825	-0.040957	0.500044
C113	C	1.115848	-0.681219	0.000027
C114	C	1.615848	-0.181219	0.500027
C115	C	1.086191	-0.729119	0.112497
C116	C	1.586191	-0.229119	0.612497
C117	C	0.971446	-0.760445	0.112488
C118	C	1.471446	-0.260445	0.612488
C119	C	0.886358	-0.743872	0.000009
C120	C	1.386358	-0.243872	0.500009
C121	C	0.916012	-0.695969	-0.112469
C122	C	1.416012	-0.195969	0.387531
C123	C	1.030757	-0.664643	-0.112460
C124	C	1.530757	-0.164643	0.387540
H125	H	1.149180	-0.741390	0.195768
H126	H	1.649180	-0.241390	0.695768
H127	H	0.949494	-0.795906	0.195753
H128	H	1.449494	-0.295906	0.695753
H129	H	0.801417	-0.767061	0.000003
H130	H	1.301417	-0.267061	0.500003
H131	H	0.853023	-0.683698	-0.195740
H132	H	1.353023	-0.183698	0.304260
H133	H	1.052709	-0.629183	-0.195725
H134	H	1.552709	-0.129183	0.304275
H135	H	1.156305	-0.229017	0.000084
H136	H	1.656305	0.270983	0.500084
