data_functionalizedCrystal
_audit_creation_method	'MofGen! by Chris Wilmer'
_symmetry_space_group_name_H-M	'P1'
_symmetry_Int_Tables_number	1
_symmetry_cell_setting	triclinic
loop_
_symmetry_equiv_pos_as_xyz
  x,y,z
_cell_length_a	6.817900
_cell_length_b	11.102237
_cell_length_c	11.102291
_cell_angle_alpha	91.950305
_cell_angle_beta	108.605752
_cell_angle_gamma	108.604801
loop_
_atom_site_label
_atom_site_type_symbol
_atom_site_fract_x
_atom_site_fract_y
_atom_site_fract_z
V1	V	-4.111536	-0.175855	-0.396262
O2	O	-4.070571	0.008434	-0.388716
O3	O	-4.088310	-0.348676	-0.393554
O4	O	-4.088320	-0.173157	-0.569084
O5	O	-4.070560	-0.168299	-0.211971
V6	V	-4.588638	-0.153811	-0.374219
O7	O	-4.386878	-0.224211	-0.444615
O8	O	-4.763493	-0.105456	-0.325866
O9	O	-4.388658	0.019009	-0.376926
O10	O	-4.746999	-0.338101	-0.381765
O11	O	-4.747010	-0.161367	-0.558509
O12	O	-4.388647	-0.156509	-0.201396
C13	C	-3.938620	-0.390805	-0.387304
C14	C	-4.001084	-0.532088	-0.386242
C15	C	-4.090610	-0.616614	-0.502130
C16	C	-4.149294	-0.749363	-0.501132
C17	C	-4.028925	-0.713050	-0.268345
C18	C	-3.970228	-0.580302	-0.269345
C19	C	-4.160113	-0.637580	-0.636528
C20	C	-4.218798	-0.770330	-0.635529
C21	C	-3.938632	-0.166913	-0.611207
C22	C	-4.001101	-0.165851	-0.752491
C23	C	-4.214456	-0.171690	-0.825339
C24	C	-4.273127	-0.170667	-0.958085
C25	C	-3.905071	-0.157970	-0.945123
C26	C	-3.846398	-0.158984	-0.812378
C27	C	-4.426954	-0.179026	-0.832824
C28	C	-4.485625	-0.178003	-0.965570
C29	C	-4.201690	0.061132	-0.383173
C30	C	-4.118465	0.202414	-0.384243
C31	C	-4.201677	-0.162758	-0.159266
C32	C	-4.118445	-0.163814	-0.017982
H33	H	-4.402678	-0.819374	-0.691725
H34	H	-4.446429	-0.092765	-0.785726
H35	H	-4.003807	-0.752323	-0.173172
H36	H	-4.629320	-0.269898	-1.018418
F37	F	-3.989526	-0.594519	-0.697970
H38	H	-4.522348	-0.273805	-0.808362
F39	F	-4.080248	-0.825954	-0.683056
H40	H	-3.897310	-0.511484	-0.174977
H41	H	-4.522088	-0.087766	-0.994670
H42	H	-3.779124	-0.152377	-0.993900
H43	H	-4.309223	-0.608034	-0.683562
H44	H	-3.672670	-0.154230	-0.753070
