data_functionalizedCrystal
_audit_creation_method	'MofGen! by Chris Wilmer'
_symmetry_space_group_name_H-M	'P1'
_symmetry_Int_Tables_number	1
_symmetry_cell_setting	triclinic
loop_
_symmetry_equiv_pos_as_xyz
  x,y,z
_cell_length_a	10.654554
_cell_length_b	9.065218
_cell_length_c	8.140239
_cell_angle_alpha	90.001330
_cell_angle_beta	90.002219
_cell_angle_gamma	84.751364
loop_
_atom_site_label
_atom_site_type_symbol
_atom_site_fract_x
_atom_site_fract_y
_atom_site_fract_z
O1	O	1.668653	0.207265	0.136636
O2	O	1.303254	0.227002	0.136632
O3	O	1.493506	0.002450	0.136630
O4	O	1.478401	0.431817	0.136637
O5	O	1.493500	0.002448	-0.136597
O6	O	1.303248	0.227000	-0.136595
O7	O	1.668647	0.207264	-0.136592
Zn8	Zn	1.485946	0.217132	-0.179974
Zn9	Zn	1.485955	0.217134	0.180014
O10	O	1.478395	0.431816	-0.136590
C11	C	1.256447	0.225551	0.000018
C12	C	1.116987	0.221210	0.000017
C13	C	0.933869	0.080837	0.000036
C14	C	1.064907	0.084914	0.000019
C15	C	1.038022	0.353439	0.000014
C16	C	0.906987	0.349361	0.000019
C17	C	0.949392	-0.074194	0.000046
C18	C	1.080430	-0.070118	0.000029
C19	C	1.492052	-0.052529	0.000019
C20	C	1.487711	-0.216349	0.000027
C21	C	1.715454	0.208715	0.000026
C22	C	1.854914	0.213055	0.000038
C23	C	1.479850	0.486795	0.000024
C24	C	1.484190	0.650614	0.000027
N25	N	1.485950	0.217129	-0.425657
N26	N	1.485961	0.217125	0.425697
H27	H	0.842705	0.457026	0.000001
H28	H	1.080435	0.464415	-0.000004
H29	H	0.919787	-0.134829	-0.114292
H30	H	0.913571	-0.123560	0.118020
C31	C	1.140817	-0.132708	-0.157356
C32	C	1.047252	-0.178319	-0.261613
C33	C	1.102836	-0.235993	-0.406599
H34	H	1.183571	-0.058583	-0.210511
H35	H	1.199228	-0.215044	-0.131827
H36	H	0.988863	-0.095993	-0.287145
H37	H	1.004491	-0.252459	-0.208510
H38	H	1.161247	-0.318329	-0.381070
H39	H	1.145589	-0.161860	-0.459739
H40	H	1.039362	-0.266959	-0.477349
H41	H	1.121958	-0.128523	0.114375
