data_functionalizedCrystal
_audit_creation_method	'MofGen! by Chris Wilmer'
_symmetry_space_group_name_H-M	'P1'
_symmetry_Int_Tables_number	1
_symmetry_cell_setting	triclinic
loop_
_symmetry_equiv_pos_as_xyz
  x,y,z
_cell_length_a	16.974800
_cell_length_b	17.699083
_cell_length_c	16.176319
_cell_angle_alpha	89.994467
_cell_angle_beta	86.346913
_cell_angle_gamma	83.336669
loop_
_atom_site_label
_atom_site_type_symbol
_atom_site_fract_x
_atom_site_fract_y
_atom_site_fract_z
O1	O	-1.048963	-0.096411	0.001457
O2	O	-0.548963	0.403589	0.501457
O3	O	-0.818733	-0.108707	-0.013953
O4	O	-0.318733	0.391293	0.486047
O5	O	-0.940353	0.007625	-0.005805
O6	O	-0.440353	0.507625	0.494195
O7	O	-0.927343	-0.212744	-0.006691
O8	O	-0.427343	0.287256	0.493309
O9	O	-0.940341	0.007604	0.131687
O10	O	-0.440341	0.507604	0.631687
O11	O	-0.818721	-0.108729	0.123539
O12	O	-0.318721	0.391271	0.623539
O13	O	-1.048951	-0.096432	0.138950
O14	O	-0.548951	0.403568	0.638950
Cu15	Cu	-0.933835	-0.102582	0.143799
Cu16	Cu	-0.433835	0.397418	0.643799
Cu17	Cu	-0.933849	-0.102558	-0.018802
Cu18	Cu	-0.433849	0.397442	0.481198
O19	O	-0.927332	-0.212765	0.130802
O20	O	-0.427332	0.287235	0.630802
C21	C	-0.789270	-0.108252	0.052821
C22	C	-0.289270	0.391748	0.552821
C23	C	-0.701495	-0.106854	0.046946
C24	C	-0.201495	0.393146	0.546946
C25	C	-0.939881	0.035812	0.062910
C26	C	-0.439881	0.535812	0.562910
C27	C	-0.938482	0.119831	0.062817
C28	C	-0.438482	0.619831	0.562817
C29	C	-1.078415	-0.096888	0.072174
C30	C	-0.578415	0.403112	0.572174
C31	C	-1.166189	-0.098286	0.078043
C32	C	-0.666189	0.401714	0.578043
C33	C	-0.660257	-0.106206	0.119135
C34	C	-0.160257	0.393794	0.619135
C35	C	-0.577786	-0.104880	0.113617
C36	C	-0.077786	0.395120	0.613617
C37	C	-0.536553	-0.104207	0.035909
C38	C	-0.036553	0.395793	0.535909
C39	C	-0.577798	-0.104852	-0.036285
C40	C	-0.077798	0.395148	0.463715
C41	C	-0.660268	-0.106173	-0.030766
C42	C	-0.160268	0.393827	0.469234
C43	C	-0.289904	-0.100252	0.011368
C44	C	0.210096	0.399748	0.511368
C45	C	-0.207427	-0.098934	0.005854
C46	C	0.292573	0.401066	0.505854
C47	C	-0.207421	-0.098960	0.155757
C48	C	0.292579	0.401040	0.655757
C49	C	-0.289893	-0.100285	0.161269
C50	C	0.210107	0.399715	0.661269
C51	C	-0.331130	-0.100926	0.089074
C52	C	0.168870	0.399074	0.589074
N53	N	-0.452254	-0.102854	0.030267
N54	N	0.047746	0.397146	0.530267
N55	N	-0.415429	-0.102274	0.094717
N56	N	0.084571	0.397726	0.594717
C57	C	-0.927804	-0.240952	0.062085
C58	C	-0.427804	0.259048	0.562085
C59	C	-0.929202	-0.324971	0.062173
C60	C	-0.429202	0.175029	0.562173
N61	N	-0.933831	-0.102599	0.258164
N62	N	-0.433831	0.397401	0.758164
C63	C	-1.009870	0.168404	0.067596
C64	C	-0.509870	0.668404	0.567596
C65	C	-1.008552	0.247348	0.067501
C66	C	-0.508552	0.747348	0.567501
C67	C	-0.935844	0.277718	0.062631
C68	C	-0.435844	0.777718	0.562631
C69	C	-0.864450	0.229139	0.057849
C70	C	-0.364450	0.729139	0.557849
C71	C	-0.865770	0.150197	0.057938
C72	C	-0.365770	0.650197	0.557938
C73	C	-0.859127	0.547506	0.057486
C74	C	-0.359127	1.047506	0.557486
C75	C	-0.857813	0.626455	0.057399
C76	C	-0.357813	1.126455	0.557399
C77	C	-1.001909	0.644657	0.067048
C78	C	-0.501909	1.144657	0.567048
C79	C	-1.003229	0.565715	0.067138
C80	C	-0.503229	1.065715	0.567138
C81	C	-0.931835	0.517143	0.062351
C82	C	-0.431835	1.017143	0.562351
C83	C	-0.933266	0.431543	0.062453
C84	C	-0.433266	0.931543	0.562453
C85	C	-0.934412	0.363317	0.062535
C86	C	-0.434412	0.863317	0.562535
N87	N	-0.933859	-0.102534	-0.133167
N88	N	-0.433859	0.397466	0.366833
C89	C	-0.885993	-0.056661	0.820355
C90	C	-0.385993	0.443339	1.320355
C91	C	-0.885992	-0.056667	0.733807
C92	C	-0.385992	0.443333	1.233807
C93	C	-0.933852	-0.102551	0.693740
C94	C	-0.433852	0.397449	1.193740
C95	C	-0.981724	-0.148426	0.740226
C96	C	-0.481724	0.351574	1.240226
C97	C	-0.981729	-0.148416	0.826771
C98	C	-0.481729	0.351584	1.326771
C99	C	-0.981704	-0.148469	0.391196
C100	C	-0.481704	0.351531	0.891196
C101	C	-0.981694	-0.148478	0.304644
C102	C	-0.481694	0.351522	0.804644
C103	C	-0.885967	-0.056720	0.298232
C104	C	-0.385967	0.443280	0.798232
C105	C	-0.885972	-0.056710	0.384778
C106	C	-0.385972	0.443290	0.884778
C107	C	-0.933846	-0.102582	0.431256
C108	C	-0.433846	0.397418	0.931256
C109	C	-0.933849	-0.102573	0.525100
C110	C	-0.433849	0.397427	1.025100
C111	C	-0.933846	-0.102564	0.599897
C112	C	-0.433846	0.397436	1.099897
H113	H	-0.693822	-0.106761	0.182413
H114	H	-0.193822	0.393239	0.682413
Cl115	Cl	-1.041910	-0.206084	0.885203
Cl116	Cl	-0.541910	0.293916	1.385203
H117	H	-0.798602	0.651179	0.053435
H118	H	-0.298602	1.151179	0.553435
H119	H	-0.544215	-0.104341	0.172401
H120	H	-0.044215	0.395659	0.672401
H121	H	-1.069077	0.143683	0.071566
H122	H	-0.569077	0.643683	0.571566
Cl123	Cl	-1.094636	0.527540	0.073257
Cl124	Cl	-0.594636	1.027540	0.573257
Cl125	Cl	-0.341722	-0.101137	0.258962
Cl126	Cl	0.158278	0.398863	0.758962
H127	H	-0.173857	-0.098388	-0.057428
H128	H	0.326143	0.401612	0.442572
Cl129	Cl	-0.155576	-0.098151	0.246509
Cl130	Cl	0.344424	0.401849	0.746509
Cl131	Cl	-1.091662	0.705724	0.073062
Cl132	Cl	-0.591662	1.205724	0.573062
Cl133	Cl	-0.341734	-0.101059	-0.079392
Cl134	Cl	0.158266	0.398941	0.420608
H135	H	-0.800994	0.507968	0.053588
H136	H	-0.300994	1.007968	0.553588
H137	H	-1.020670	-0.185844	0.272024
H138	H	-0.520670	0.314156	0.772024
H139	H	-0.544220	-0.104299	-0.099556
H140	H	-0.044220	0.395701	0.400444
H141	H	-0.805250	0.253873	0.053879
H142	H	-0.305250	0.753873	0.553879
H143	H	-0.807638	0.110649	0.054046
H144	H	-0.307638	0.610649	0.554046
H145	H	-0.693843	-0.106701	-0.089550
H146	H	-0.193843	0.393299	0.410450
H147	H	-0.847015	-0.019301	0.852970
H148	H	-0.347015	0.480699	1.352970
H149	H	-1.066683	0.286893	0.071395
H150	H	-0.566683	0.786893	0.571395
Cl151	Cl	-0.825789	0.000981	0.675379
Cl152	Cl	-0.325789	0.500981	1.175379
Cl153	Cl	-0.825799	0.000972	0.435143
Cl154	Cl	-0.325799	0.500972	0.935143
Cl155	Cl	-0.825784	0.000952	0.239797
Cl156	Cl	-0.325784	0.500952	0.739797
H157	H	-1.020686	-0.185821	0.429028
H158	H	-0.520686	0.314179	0.929028
Cl159	Cl	-1.041896	-0.206106	0.689856
Cl160	Cl	-0.541896	0.293894	1.189856
