data_functionalizedCrystal
_audit_creation_method	'MofGen! by Chris Wilmer'
_symmetry_space_group_name_H-M	'P1'
_symmetry_Int_Tables_number	1
_symmetry_cell_setting	triclinic
loop_
_symmetry_equiv_pos_as_xyz
  x,y,z
_cell_length_a	16.109301
_cell_length_b	12.503552
_cell_length_c	16.109304
_cell_angle_alpha	86.478516
_cell_angle_beta	83.462111
_cell_angle_gamma	93.519831
loop_
_atom_site_label
_atom_site_type_symbol
_atom_site_fract_x
_atom_site_fract_y
_atom_site_fract_z
O1	O	1.107930	0.089255	0.102064
O2	O	1.607930	0.589255	0.602064
O3	O	0.865869	0.089269	0.115363
O4	O	1.365869	0.589269	0.615363
O5	O	0.993548	0.089262	-0.012317
O6	O	1.493548	0.589262	0.487683
O7	O	0.980251	0.089262	0.229744
O8	O	1.480251	0.589262	0.729744
O9	O	0.983935	-0.089380	-0.002707
O10	O	1.483935	0.410620	0.497293
O11	O	0.856256	-0.089373	0.124973
O12	O	1.356256	0.410627	0.624973
O13	O	1.098317	-0.089387	0.111675
O14	O	1.598317	0.410613	0.611675
Cu15	Cu	0.976409	-0.105691	0.119202
Cu16	Cu	1.476409	0.394309	0.619202
Cu17	Cu	0.987778	0.105574	0.107836
Cu18	Cu	1.487778	0.605574	0.607836
O19	O	0.970638	-0.089380	0.239355
O20	O	1.470638	0.410620	0.739355
C21	C	0.830088	-0.000050	0.119629
C22	C	1.330088	0.499950	0.619629
C23	C	0.737793	-0.000044	0.118014
C24	C	1.237793	0.499956	0.618014
N25	N	0.968419	-0.254283	0.127195
N26	N	1.468419	0.245717	0.627195
C27	C	0.428794	-0.000063	0.188498
C28	C	0.928794	0.499937	0.688498
C29	C	0.515515	-0.000057	0.190023
C30	C	1.015515	0.499943	0.690023
C31	C	0.535387	-0.000042	0.038533
C32	C	1.035387	0.499958	0.538533
C33	C	0.448669	-0.000041	0.037009
C34	C	0.948669	0.499959	0.537009
C35	C	0.395374	-0.000056	0.111994
C36	C	0.895374	0.499944	0.611994
C37	C	0.568813	-0.000052	0.115043
C38	C	1.068813	0.499948	0.615043
C39	C	0.662840	-0.000045	0.116696
C40	C	1.162840	0.499955	0.616696
C41	C	0.301342	-0.000061	0.110341
C42	C	0.801342	0.499939	0.610341
C43	C	1.007524	-0.526719	0.088074
C44	C	1.507524	-0.026719	0.588074
C45	C	0.956672	-0.473392	0.138954
C46	C	1.456672	0.026608	0.638954
C47	C	0.963210	-0.351469	0.132410
C48	C	1.463210	0.148531	0.632410
C49	C	1.000987	-0.648653	0.094617
C50	C	1.500987	-0.148653	0.594617
C51	C	1.134099	-0.000065	0.107408
C52	C	1.634099	0.499935	0.607408
C53	C	1.226394	-0.000064	0.109023
C54	C	1.726394	0.499936	0.609023
C55	C	0.988203	-0.000056	-0.038487
C56	C	1.488203	0.499944	0.461513
C57	C	0.986587	-0.000049	-0.130783
C58	C	1.486587	0.499951	0.369217
N59	N	0.995774	0.254166	0.099836
N60	N	1.495774	0.754166	0.599836
C61	C	0.988094	0.097325	-0.348359
C62	C	1.488094	0.597325	0.151641
C63	C	0.986567	0.097324	-0.435079
C64	C	1.486567	0.597324	0.064921
C65	C	0.976091	-0.097441	-0.424598
C66	C	1.476091	0.402559	0.075402
C67	C	0.977611	-0.097439	-0.337878
C68	C	1.477611	0.402561	0.162122
C69	C	0.983617	-0.000053	-0.299762
C70	C	1.483617	0.499947	0.200238
C71	C	0.980570	-0.000056	-0.473201
C72	C	1.480570	0.499944	0.026799
C73	C	0.978916	-0.000057	-0.567227
C74	C	1.478916	0.499943	-0.067227
C75	C	0.985270	-0.000050	-0.205730
C76	C	1.485270	0.499950	0.294270
C77	C	0.975984	-0.000059	0.265524
C78	C	1.475984	0.499941	0.765524
C79	C	0.977600	-0.000059	0.357820
C80	C	1.477600	0.499941	0.857820
H81	H	0.385404	-0.000075	0.249555
H82	H	0.885404	0.499925	0.749555
H83	H	0.992982	0.176624	-0.317327
H84	H	1.492982	0.676624	0.182673
C85	C	0.845522	-0.462408	0.250181
C86	C	1.345522	0.037592	0.750181
C87	C	0.891275	-0.535363	0.204400
C88	C	1.391275	-0.035363	0.704400
H89	H	0.805150	-0.500671	0.290581
H90	H	1.305150	-0.000671	0.790581
H91	H	0.882459	-0.418541	0.277749
H92	H	1.382459	0.081459	0.777749
H93	H	0.817916	-0.418546	0.213261
H94	H	1.317916	0.081454	0.713261
H95	H	0.918886	-0.579220	0.241320
H96	H	1.418886	-0.079220	0.741320
H97	H	0.854332	-0.579248	0.176831
H98	H	1.354332	-0.079248	0.676831
H99	H	0.542721	-0.000061	0.252320
H100	H	1.042721	0.499939	0.752320
H101	H	0.973960	-0.176740	-0.298308
H102	H	1.473960	0.323260	0.201692
H103	H	0.578790	-0.000032	-0.022516
H104	H	1.078790	0.499968	0.477484
H105	H	0.421459	-0.000032	-0.025294
H106	H	0.921459	0.499968	0.474706
C107	C	1.066853	-0.354212	0.028777
C108	C	1.566853	0.145788	0.528777
C109	C	1.072945	-0.464747	0.022662
C110	C	1.572945	0.035253	0.522662
H111	H	1.107252	-0.315946	-0.011595
H112	H	1.607252	0.184054	0.488405
H113	H	1.012347	-0.335846	0.018769
H114	H	1.512347	0.164154	0.518769
H115	H	1.076844	-0.335878	0.083303
H116	H	1.576844	0.164122	0.583303
H117	H	1.062948	-0.483082	-0.031862
H118	H	1.562948	0.016918	0.468138
H119	H	1.127464	-0.483120	0.032664
H120	H	1.627464	0.016880	0.532664
H121	H	0.990211	0.176619	-0.474643
H122	H	1.490211	0.676619	0.025357
C123	C	0.969125	-0.183925	-0.552881
C124	C	1.469125	0.316075	-0.052881
C125	C	0.969506	-0.204484	-0.466501
C126	C	1.469506	0.295516	0.033499
H127	H	0.965068	-0.250012	-0.578748
H128	H	1.465068	0.249988	-0.078748
H129	H	0.922574	-0.143927	-0.562891
H130	H	1.422574	0.356073	-0.062891
H131	H	1.019484	-0.143906	-0.575588
H132	H	1.519484	0.356094	-0.075588
H133	H	0.919144	-0.244497	-0.443793
H134	H	1.419144	0.255503	0.056207
H135	H	1.016061	-0.244499	-0.456485
H136	H	1.516061	0.255501	0.043515
