data_functionalizedCrystal
_audit_creation_method	'MofGen! by Chris Wilmer'
_symmetry_space_group_name_H-M	'P1'
_symmetry_Int_Tables_number	1
_symmetry_cell_setting	triclinic
loop_
_symmetry_equiv_pos_as_xyz
  x,y,z
_cell_length_a	6.817900
_cell_length_b	10.773890
_cell_length_c	19.453114
_cell_angle_alpha	96.632036
_cell_angle_beta	101.709288
_cell_angle_gamma	96.645716
loop_
_atom_site_label
_atom_site_type_symbol
_atom_site_fract_x
_atom_site_fract_y
_atom_site_fract_z
V1	V	-3.972243	-0.173886	-0.217846
O2	O	-3.996138	0.007019	-0.214877
O3	O	-3.890140	-0.343502	-0.215224
O4	O	-3.915573	-0.171798	-0.313373
O5	O	-3.970529	-0.165873	-0.116048
V6	V	-4.461309	-0.152179	-0.205808
O7	O	-4.221341	-0.221504	-0.244253
O8	O	-4.662409	-0.104561	-0.179401
O9	O	-4.320205	0.017437	-0.208430
O10	O	-4.554811	-0.333085	-0.208777
O11	O	-4.580420	-0.160192	-0.307606
O12	O	-4.294773	-0.154267	-0.110281
C13	C	-3.727210	-0.384833	-0.211495
C14	C	-3.741313	-0.523500	-0.209988
C15	C	-3.759651	-0.165805	-0.336693
C16	C	-3.794377	-0.165220	-0.414779
C17	C	-3.919162	-0.591378	-0.212607
C18	C	-3.933742	-0.734698	-0.211049
C19	C	-3.991230	-0.171207	-0.454997
C20	C	-4.023860	-0.170657	-0.528367
C21	C	-3.859629	-0.164146	-0.561519
C22	C	-3.662748	-0.158152	-0.521292
C23	C	-3.630122	-0.158689	-0.447922
N24	N	-3.786796	-0.230022	-0.679872
N25	N	-3.817802	-0.229515	-0.749571
C26	C	-3.957917	-0.162524	-0.782578
N27	N	-4.065888	-0.096077	-0.743256
N28	N	-4.034886	-0.096590	-0.673551
C29	C	-3.894986	-0.163562	-0.641076
C30	C	-4.190163	-0.167914	-0.902353
C31	C	-4.222785	-0.167356	-0.975724
C32	C	-3.861669	-0.154863	-0.968648
C33	C	-3.829051	-0.155408	-0.895277
C34	C	-3.993306	-0.161940	-0.862135
C35	C	-4.146476	0.058761	-0.212157
C36	C	-4.111611	0.197427	-0.213669
C37	C	-4.114036	-0.160264	-0.086957
C38	C	-4.058550	-0.160843	-0.008870
H39	H	-3.792263	-0.782684	-0.207658
H40	H	-4.253095	-0.754591	-0.217067
O41	O	-3.438915	-0.152703	-0.408796
C42	C	-3.393498	-0.044092	-0.357307
H43	H	-3.494722	0.028470	-0.375263
H44	H	-3.420908	-0.070749	-0.304655
C45	C	-3.045798	-0.076579	-0.325879
C46	C	-3.170112	0.012546	-0.347935
H47	H	-2.908002	-0.041644	-0.320094
H48	H	-3.076397	-0.149756	-0.360565
H49	H	-3.068663	-0.098786	-0.282004
H50	H	-3.147264	0.034740	-0.391813
H51	H	-3.139504	0.085728	-0.313256
H52	H	-3.599847	-0.571491	-0.206596
H53	H	-3.727946	-0.149551	-0.995638
H54	H	-4.124982	-0.176520	-0.428017
H55	H	-3.668756	-0.150547	-0.862532
H56	H	-4.323909	-0.173227	-0.875366
O57	O	-4.215023	-0.176649	-0.567539
C58	C	-4.260375	-0.285326	-0.618980
H59	H	-4.113716	-0.316007	-0.629823
H60	H	-4.347900	-0.364663	-0.598619
C61	C	-4.569926	-0.217741	-0.674715
C62	C	-4.389796	-0.255418	-0.688036
H63	H	-4.649766	-0.199295	-0.717311
H64	H	-4.539376	-0.144525	-0.640057
H65	H	-4.642838	-0.283862	-0.657745
H66	H	-4.316876	-0.189292	-0.704997
H67	H	-4.420337	-0.328622	-0.722699
H68	H	-4.383088	-0.172222	-1.008467
O69	O	-4.087821	-0.534040	-0.216531
C70	C	-4.061527	-0.441732	-0.156563
H71	H	-3.942727	-0.465387	-0.111537
H72	H	-4.009384	-0.345218	-0.170494
C73	C	-4.409634	-0.410267	-0.188364
C74	C	-4.263734	-0.439327	-0.133060
H75	H	-4.534365	-0.408778	-0.173867
H76	H	-4.427348	-0.472453	-0.228767
H77	H	-4.366155	-0.329841	-0.199968
H78	H	-4.307202	-0.519757	-0.121464
H79	H	-4.246032	-0.377154	-0.092655
O80	O	-3.503116	-0.151603	-0.553443
C81	C	-3.369570	-0.039353	-0.524546
H82	H	-3.455263	0.032742	-0.500292
H83	H	-3.241602	-0.060316	-0.481744
C84	C	-3.175549	-0.074357	-0.613354
C85	C	-3.280803	0.014195	-0.583570
H86	H	-3.120785	-0.041328	-0.649761
H87	H	-3.265516	-0.149985	-0.632821
H88	H	-3.068923	-0.091819	-0.577679
H89	H	-3.387442	0.031643	-0.619243
H90	H	-3.190852	0.089827	-0.564110
