data_functionalizedCrystal
_audit_creation_method	'MofGen! by Chris Wilmer'
_symmetry_space_group_name_H-M	'P1'
_symmetry_Int_Tables_number	1
_symmetry_cell_setting	triclinic
loop_
_symmetry_equiv_pos_as_xyz
  x,y,z
_cell_length_a	18.101397
_cell_length_b	18.215407
_cell_length_c	18.215399
_cell_angle_alpha	90.020595
_cell_angle_beta	89.972062
_cell_angle_gamma	89.980312
loop_
_atom_site_label
_atom_site_type_symbol
_atom_site_fract_x
_atom_site_fract_y
_atom_site_fract_z
Zn1	Zn	-0.294839	-1.125098	-0.416131
Zn2	Zn	0.205161	-0.625098	0.083869
Zn3	Zn	-0.418685	-1.125018	-0.293065
Zn4	Zn	0.081315	-0.625018	0.206935
Zn5	Zn	-0.294862	-1.002031	-0.293077
Zn6	Zn	0.205138	-0.502031	0.206923
Zn7	Zn	-0.418643	-1.002008	-0.416088
Zn8	Zn	0.081357	-0.502008	0.083912
O9	O	-0.356757	-1.063538	-0.354590
O10	O	0.143243	-0.563538	0.145410
O11	O	-0.311275	-1.228072	-0.399819
O12	O	0.188725	-0.728072	0.100181
O13	O	-0.402287	-1.108679	-0.190082
O14	O	0.097713	-0.608679	0.309918
O15	O	-0.191226	-1.018399	-0.309423
O16	O	0.308774	-0.518399	0.190577
O17	O	-0.402265	-1.228012	-0.309403
O18	O	0.097735	-0.728012	0.190597
O19	O	-0.191209	-1.108816	-0.399831
O20	O	0.308791	-0.608816	0.100169
O21	O	-0.311315	-1.018321	-0.190091
O22	O	0.188685	-0.518321	0.309909
O23	O	-0.311274	-0.899043	-0.309381
O24	O	0.188726	-0.399043	0.190619
O25	O	-0.402192	-1.018360	-0.519078
O26	O	0.097808	-0.518360	-0.019078
O27	O	-0.402215	-0.899026	-0.399757
O28	O	0.097785	-0.399026	0.100243
O29	O	-0.311234	-1.108794	-0.519110
O30	O	0.188766	-0.608794	-0.019110
O31	O	-0.522312	-1.108657	-0.309361
O32	O	-0.022312	-0.608657	0.190639
O33	O	-0.522281	-1.018282	-0.399746
O34	O	-0.022281	-0.518282	0.100254
C35	C	-0.356743	-0.872332	-0.354566
C36	C	0.143257	-0.372332	0.145434
C37	C	-0.356754	-0.790533	-0.354574
C38	C	0.143246	-0.290533	0.145426
C39	C	-0.404180	-0.602350	-0.401571
C40	C	0.095820	-0.102350	0.098429
C41	C	-0.404182	-0.525491	-0.401579
C42	C	0.095818	-0.025491	0.098421
C43	C	-0.309338	-0.525479	-0.307612
C44	C	0.190662	-0.025479	0.192388
C45	C	-0.309333	-0.602336	-0.307608
C46	C	0.190667	-0.102336	0.192392
C47	C	-0.356759	-0.640770	-0.354586
C48	C	0.143241	-0.140770	0.145414
C49	C	-0.356765	-0.487054	-0.354598
C50	C	0.143235	0.012946	0.145402
C51	C	-0.356766	-0.403720	-0.354607
C52	C	0.143234	0.096280	0.145393
C53	C	-0.356756	-0.724109	-0.354579
C54	C	0.143244	-0.224109	0.145421
C55	C	-0.549168	-1.063478	-0.354563
C56	C	-0.049168	-0.563478	0.145437
C57	C	-0.631482	-1.063519	-0.354577
C58	C	-0.131482	-0.563519	0.145423
C59	C	-0.782190	-1.063564	-0.354602
C60	C	-0.282190	-0.563564	0.145398
C61	C	-0.813532	-1.120482	-0.297789
C62	C	-0.313532	-0.620482	0.202211
C63	C	-0.899151	-1.120340	-0.297580
C64	C	-0.399151	-0.620340	0.202420
C65	C	-0.930573	-1.063609	-0.354626
C66	C	-0.430573	-0.563609	0.145374
C67	C	-0.899556	-0.985996	-0.333749
C68	C	-0.399556	-0.485996	0.166251
C69	C	-0.813911	-0.986299	-0.333323
C70	C	-0.313911	-0.486299	0.166677
C71	C	-0.813685	-1.083591	-0.432439
C72	C	-0.313685	-0.583591	0.067561
C73	C	-0.899335	-1.085328	-0.432038
C74	C	-0.399335	-0.585328	0.067962
C75	C	-1.014432	-1.063630	-0.354641
C76	C	-0.514432	-0.563630	0.145359
C77	C	-0.698331	-1.063538	-0.354585
C78	C	-0.198331	-0.563538	0.145415
C79	C	-0.163595	-1.063619	-0.354633
C80	C	0.336405	-0.563619	0.145367
C81	C	-0.081281	-1.063654	-0.354651
C82	C	0.418719	-0.563654	0.145349
C83	C	-0.356706	-1.063583	-0.546543
C84	C	0.143294	-0.563583	-0.046543
C85	C	-0.356684	-1.063602	-0.628342
C86	C	0.143316	-0.563602	-0.128342
C87	C	-0.356770	-0.255491	-0.354611
C88	C	0.143230	0.244509	0.145389
C89	C	-0.356769	-0.337290	-0.354611
C90	C	0.143231	0.162710	0.145389
C91	C	-0.309278	-1.110708	-0.816554
C92	C	0.190722	-0.610708	-0.316554
C93	C	-0.309256	-1.110717	-0.893412
C94	C	0.190744	-0.610717	-0.393412
C95	C	-0.403976	-1.016548	-0.893368
C96	C	0.096024	-0.516548	-0.393368
C97	C	-0.403993	-1.016537	-0.816511
C98	C	0.096007	-0.516537	-0.316511
C99	C	-0.356645	-1.063621	-0.778106
C100	C	0.143355	-0.563621	-0.278106
C101	C	-0.356607	-1.063641	-0.931822
C102	C	0.143393	-0.563641	-0.431822
C103	C	-0.356583	-1.063651	-1.015155
C104	C	0.143417	-0.563651	-0.515155
C105	C	-0.356667	-1.063611	-0.694767
C106	C	0.143333	-0.563611	-0.194767
C107	C	-0.356755	-1.063536	-0.163384
C108	C	0.143245	-0.563536	0.336616
C109	C	-0.356568	-1.063660	-0.081585
C110	C	0.143432	-0.563660	0.418415
H111	H	-0.442796	-0.494213	-0.439840
H112	H	0.057204	0.005787	0.060160
C113	C	-0.784439	-1.158734	-0.458140
C114	C	-0.284439	-0.658734	0.041860
N115	N	-0.762412	-1.215334	-0.477490
N116	N	-0.262412	-0.715334	0.022510
H117	H	-0.270684	-1.149060	-0.924713
H118	H	0.229316	-0.649060	-0.424713
H119	H	-0.270727	-0.494177	-0.269363
H120	H	0.229273	0.005823	0.230637
H121	H	-0.919601	-1.142445	-0.447784
H122	H	-0.419601	-0.642445	0.052216
H123	H	-0.442527	-0.978216	-0.924647
H124	H	0.057473	-0.478216	-0.424647
C125	C	-0.257163	-0.644601	-0.255919
C126	C	0.242837	-0.144601	0.244081
N127	N	-0.217870	-0.676435	-0.216989
N128	N	0.282130	-0.176435	0.283011
C129	C	-0.456102	-0.964731	-0.774215
C130	C	0.043898	-0.464731	-0.274215
N131	N	-0.495346	-0.925711	-0.742359
N132	N	0.004654	-0.425711	-0.242359
H133	H	-0.920119	-1.177885	-0.310620
H134	H	-0.420119	-0.677885	0.189380
H135	H	-0.442795	-0.633640	-0.439826
H136	H	0.057205	-0.133640	0.060174
H137	H	-0.921060	-0.968769	-0.277489
H138	H	-0.421060	-0.468769	0.222511
C139	C	-0.785635	-1.198449	-0.315189
C140	C	-0.285635	-0.698449	0.184811
N141	N	-0.764614	-1.257175	-0.328293
N142	N	-0.264614	-0.757175	0.171707
H143	H	-0.792058	-1.107374	-0.240444
H144	H	-0.292058	-0.607374	0.259556
C145	C	-0.257188	-1.162496	-0.774310
C146	C	0.242812	-0.662496	-0.274310
N147	N	-0.217949	-1.201501	-0.742495
N148	N	0.282051	-0.701501	-0.242495
C149	C	-0.926904	-1.102420	-0.219676
C150	C	-0.426904	-0.602420	0.280324
N151	N	-0.947807	-1.088919	-0.160996
N152	N	-0.447807	-0.588919	0.339004
C153	C	-0.786996	-0.963402	-0.256465
C154	C	-0.286996	-0.463402	0.243535
N155	N	-0.766727	-0.946154	-0.198575
N156	N	-0.266727	-0.446154	0.301425
H157	H	-0.793180	-0.942437	-0.372914
H158	H	-0.293180	-0.442437	0.127086
C159	C	-0.927070	-0.927154	-0.387929
C160	C	-0.427070	-0.427154	0.112071
N161	N	-0.947800	-0.882835	-0.428734
N162	N	-0.447800	-0.382835	0.071266
H163	H	-0.920720	-1.046926	-0.476627
H164	H	-0.420720	-0.546926	0.023373
H165	H	-0.793411	-1.042140	-0.474767
H166	H	-0.293411	-0.542140	0.025233
