data_functionalizedCrystal
_audit_creation_method	'MofGen! by Chris Wilmer'
_symmetry_space_group_name_H-M	'P1'
_symmetry_Int_Tables_number	1
_symmetry_cell_setting	triclinic
loop_
_symmetry_equiv_pos_as_xyz
  x,y,z
_cell_length_a	14.519709
_cell_length_b	8.559649
_cell_length_c	13.596369
_cell_angle_alpha	89.995606
_cell_angle_beta	90.000816
_cell_angle_gamma	76.729405
loop_
_atom_site_label
_atom_site_type_symbol
_atom_site_fract_x
_atom_site_fract_y
_atom_site_fract_z
O1	O	-1.208837	-0.209416	0.081648
O2	O	-0.938590	-0.234077	0.081681
O3	O	-1.097523	0.010787	0.081661
O4	O	-1.049905	-0.454280	0.081668
O5	O	-1.097509	0.010800	-0.081922
O6	O	-0.938577	-0.234064	-0.081902
O7	O	-1.208824	-0.209403	-0.081935
Zn8	Zn	-1.073698	-0.221731	-0.107891
Zn9	Zn	-1.073716	-0.221749	0.107637
O10	O	-1.049891	-0.454267	-0.081915
C11	C	-0.904306	-0.232921	-0.000107
C12	C	-0.802172	-0.229477	-0.000094
C13	C	-0.428186	-0.216798	-0.000136
C14	C	-0.532242	-0.220319	-0.000124
C15	C	-0.615176	-0.223137	-0.000114
C16	C	-0.719238	-0.226659	-0.000104
C17	C	-0.243108	-0.210559	-0.000143
C18	C	-0.345242	-0.214003	-0.000141
C19	C	-1.101125	0.070313	-0.000130
C20	C	-1.111866	0.247663	-0.000125
N21	N	-1.073693	-0.221719	-0.254983
C22	C	-1.046289	-0.513793	-0.000122
C23	C	-1.035548	-0.691143	-0.000120
C24	C	-1.073714	-0.221750	-0.656274
C25	C	-1.073705	-0.221747	-0.544622
C26	C	-1.073704	-0.221736	-0.455632
C27	C	-1.073694	-0.221730	-0.343973
N28	N	-1.073729	-0.221749	0.254729
H29	H	-0.961991	0.225570	-0.000115
N30	N	-1.204159	0.352118	-0.000152
N31	N	-1.260190	0.346206	-0.069112
H32	H	-1.325373	0.419975	-0.069132
