data_functionalizedCrystal
_audit_creation_method	'MofGen! by Chris Wilmer'
_symmetry_space_group_name_H-M	'P1'
_symmetry_Int_Tables_number	1
_symmetry_cell_setting	triclinic
loop_
_symmetry_equiv_pos_as_xyz
  x,y,z
_cell_length_a	17.077404
_cell_length_b	25.639239
_cell_length_c	25.639233
_cell_angle_alpha	90.018747
_cell_angle_beta	90.013303
_cell_angle_gamma	90.038911
loop_
_atom_site_label
_atom_site_type_symbol
_atom_site_fract_x
_atom_site_fract_y
_atom_site_fract_z
Zn1	Zn	1.199920	-0.208211	0.295619
Zn2	Zn	1.699920	0.291789	0.795619
Zn3	Zn	1.199805	-0.295630	0.208183
Zn4	Zn	1.699805	0.204370	0.708183
Zn5	Zn	1.068666	-0.208211	0.208196
Zn6	Zn	1.568666	0.291789	0.708196
Zn7	Zn	1.068584	-0.295618	0.295586
Zn8	Zn	1.568584	0.204382	0.795586
O9	O	1.134244	-0.251918	0.251896
O10	O	1.634244	0.248082	0.751896
O11	O	1.309752	-0.219813	0.284028
O12	O	1.809752	0.280187	0.784028
O13	O	1.182396	-0.284039	0.135020
O14	O	1.682396	0.215961	0.635020
O15	O	1.086160	-0.135046	0.219812
O16	O	1.586160	0.364954	0.719812
O17	O	1.309668	-0.284039	0.219789
O18	O	1.809668	0.215961	0.719789
O19	O	1.182592	-0.135046	0.284041
O20	O	1.682592	0.364954	0.784041
O21	O	1.086049	-0.219812	0.135029
O22	O	1.586049	0.280188	0.635029
O23	O	0.958809	-0.219800	0.219781
O24	O	1.458809	0.280200	0.719781
O25	O	1.086020	-0.284018	0.368756
O26	O	1.586020	0.215982	0.868756
O27	O	0.958748	-0.284018	0.283986
O28	O	1.458748	0.215982	0.783986
O29	O	1.182512	-0.219801	0.368780
O30	O	1.682512	0.280199	0.868780
O31	O	1.182316	-0.368794	0.219758
O32	O	1.682316	0.131206	0.719758
O33	O	1.085908	-0.368785	0.283973
O34	O	1.585908	0.131215	0.783973
C35	C	0.930296	-0.251908	0.251882
C36	C	1.430296	0.248092	0.751882
C37	C	0.843046	-0.251917	0.251888
C38	C	1.343046	0.248083	0.751888
C39	C	0.802045	-0.285405	0.285266
C40	C	1.302045	0.214595	0.785266
C41	C	0.720065	-0.285406	0.285274
C42	C	1.220065	0.214594	0.785274
C43	C	0.679087	-0.251921	0.251902
C44	C	1.179087	0.248079	0.751902
C45	C	0.720094	-0.218429	0.218522
C46	C	1.220094	0.281571	0.718522
C47	C	0.802073	-0.218425	0.218517
C48	C	1.302073	0.281575	0.718517
C49	C	0.549224	-0.218439	0.218535
C50	C	1.049224	0.281561	0.718535
C51	C	0.467239	-0.218443	0.218539
C52	C	0.967239	0.281557	0.718539
C53	C	0.467216	-0.285420	0.285292
C54	C	0.967216	0.214580	0.785292
C55	C	0.549195	-0.285417	0.285287
C56	C	1.049195	0.214583	0.785287
C57	C	0.590196	-0.251925	0.251906
C58	C	1.090196	0.248075	0.751906
C59	C	1.134112	-0.387760	0.251872
C60	C	1.634112	0.112240	0.751872
C61	C	1.134127	-0.445874	0.251879
C62	C	1.634127	0.054126	0.751879
C63	C	1.184575	-0.806229	0.218516
C64	C	1.684575	-0.306229	0.718516
C65	C	1.184605	-0.860834	0.218523
C66	C	1.684605	-0.360834	0.718523
O67	O	1.227360	-0.889064	0.190131
O68	O	1.727360	-0.389064	0.690131
N69	N	1.134382	-0.888157	0.251931
N70	N	1.634382	-0.388157	0.751931
C71	C	1.084131	-0.860872	0.285337
C72	C	1.584131	-0.360872	0.785337
O73	O	1.041416	-0.889127	0.313754
O74	O	1.541416	-0.389127	0.813754
C75	C	1.084105	-0.806269	0.285332
C76	C	1.584105	-0.306269	0.785332
C77	C	1.134326	-0.778949	0.251919
C78	C	1.634326	-0.278949	0.751919
C79	C	1.234792	-0.778909	0.185106
C80	C	1.734792	-0.278909	0.685106
C81	C	1.234760	-0.724309	0.185099
C82	C	1.734760	-0.224309	0.685099
C83	C	1.184511	-0.697028	0.218501
C84	C	1.684511	-0.197028	0.718501
C85	C	1.134294	-0.724348	0.251911
C86	C	1.634294	-0.224348	0.751911
C87	C	1.033859	-0.778986	0.318741
C88	C	1.533859	-0.278986	0.818741
C89	C	1.033837	-0.724379	0.318734
C90	C	1.533837	-0.224379	0.818734
C91	C	1.084058	-0.697059	0.285320
C92	C	1.584058	-0.197059	0.785320
C93	C	1.084014	-0.642468	0.285306
C94	C	1.584014	-0.142468	0.785306
N95	N	1.134237	-0.615145	0.251899
N96	N	1.634237	-0.115145	0.751899
C97	C	1.184485	-0.642425	0.218496
C98	C	1.684485	-0.142425	0.718496
C99	C	1.084190	-0.975543	0.285345
C100	C	1.584190	-0.475543	0.785345
C101	C	1.084211	-1.030145	0.285348
C102	C	1.584211	-0.530145	0.785348
C103	C	1.184687	-1.030103	0.218534
C104	C	1.684687	-0.530103	0.718534
C105	C	1.184661	-0.975499	0.218530
C106	C	1.684661	-0.475499	0.718530
C107	C	1.134413	-0.948220	0.251938
C108	C	1.634413	-0.448220	0.751938
C109	C	1.184415	-0.527760	0.218483
C110	C	1.684415	-0.027760	0.718483
C111	C	1.184376	-0.473154	0.218477
C112	C	1.684376	0.026846	0.718477
C113	C	1.083904	-0.473202	0.285292
C114	C	1.583904	0.026798	0.785292
C115	C	1.083939	-0.527802	0.285296
C116	C	1.583939	-0.027802	0.785296
C117	C	1.134201	-0.555080	0.251890
C118	C	1.634201	-0.055080	0.751890
O119	O	1.041283	-0.614203	0.313686
O120	O	1.541283	-0.114203	0.813686
O121	O	1.227201	-0.614164	0.190090
O122	O	1.727201	-0.114164	0.690090
C123	C	1.338988	-0.251927	0.251911
C124	C	1.838988	0.248073	0.751911
C125	C	1.426238	-0.251932	0.251917
C126	C	1.926238	0.248068	0.751917
C127	C	1.134269	-0.251908	0.388269
C128	C	1.634269	0.248092	0.888269
C129	C	1.134280	-0.251904	0.446383
C130	C	1.634280	0.248096	0.946383
C131	C	1.134398	-0.115544	0.251932
C132	C	1.634398	0.384456	0.751932
C133	C	1.134464	-0.057430	0.251947
C134	C	1.634464	0.442570	0.751947
C135	C	1.134264	-0.251889	0.116054
C136	C	1.634264	0.248111	0.616054
C137	C	1.134405	-0.251746	0.057940
C138	C	1.634405	0.248254	0.557940
C139	C	1.184587	-0.218367	0.806764
C140	C	1.684587	0.281633	1.306764
C141	C	1.184597	-0.218353	0.861369
C142	C	1.684597	0.281647	1.361369
O143	O	1.227307	-0.189900	0.889621
O144	O	1.727307	0.310100	1.389621
N145	N	1.134367	-0.251782	0.888666
N146	N	1.634367	0.248218	1.388666
C147	C	1.084118	-0.285224	0.861356
C148	C	1.584118	0.214776	1.361356
O149	O	1.041393	-0.313656	0.889588
O150	O	1.541393	0.186344	1.389588
C151	C	1.084105	-0.285235	0.806753
C152	C	1.584105	0.214765	1.306753
C153	C	1.134344	-0.251808	0.779458
C154	C	1.634344	0.248192	1.279458
C155	C	1.234822	-0.184942	0.779470
C156	C	1.734822	0.315058	1.279470
C157	C	1.234813	-0.184957	0.724869
C158	C	1.734813	0.315043	1.224869
C159	C	1.184570	-0.218398	0.697563
C160	C	1.684570	0.281602	1.197563
C161	C	1.134335	-0.251823	0.724858
C162	C	1.634335	0.248177	1.224858
C163	C	1.033852	-0.318674	0.779443
C164	C	1.533852	0.181326	1.279443
C165	C	1.033843	-0.318683	0.724836
C166	C	1.533843	0.181317	1.224836
C167	C	1.084082	-0.285255	0.697542
C168	C	1.584082	0.214745	1.197542
C169	C	1.084083	-0.285279	0.642951
C170	C	1.584083	0.214721	1.142951
N171	N	1.134313	-0.251850	0.615654
N172	N	1.634313	0.248150	1.115654
C173	C	1.184557	-0.218409	0.642960
C174	C	1.684557	0.281591	1.142960
C175	C	1.084148	-0.285197	0.976027
C176	C	1.584148	0.214803	1.476027
C177	C	1.084164	-0.285188	1.030629
C178	C	1.584164	0.214812	1.530629
C179	C	1.184643	-0.218316	1.030638
C180	C	1.684643	0.281684	1.530638
C181	C	1.184630	-0.218328	0.976035
C182	C	1.684630	0.281672	1.476035
C183	C	1.134378	-0.251768	0.948729
C184	C	1.634378	0.248232	1.448729
C185	C	1.184535	-0.218444	0.528295
C186	C	1.684535	0.281556	1.028295
C187	C	1.184524	-0.218464	0.473689
C188	C	1.684524	0.281536	0.973689
C189	C	1.084043	-0.285334	0.473685
C190	C	1.584043	0.214666	0.973685
C191	C	1.084056	-0.285316	0.528286
C192	C	1.584056	0.214684	1.028286
C193	C	1.134305	-0.251867	0.555589
C194	C	1.634305	0.248133	1.055589
O195	O	1.041393	-0.313716	0.614664
O196	O	1.541393	0.186284	1.114664
O197	O	1.227267	-0.189977	0.614721
O198	O	1.727267	0.310023	1.114721
H199	H	1.225272	-0.450912	0.191266
H200	H	1.725272	0.049088	0.691266
F201	F	1.288280	-0.807935	0.149552
F202	F	1.788280	-0.307935	0.649552
F203	F	0.592859	-0.182793	0.183008
F204	F	1.092859	0.317207	0.683008
H205	H	0.992920	-0.702171	0.345940
H206	H	1.492920	-0.202171	0.845940
H207	H	0.835455	-0.191153	0.191340
H208	H	1.335455	0.308847	0.691340
H209	H	0.433877	-0.191170	0.191370
H210	H	0.933877	0.308830	0.691370
F211	F	0.845650	-0.321048	0.320784
F212	F	1.345650	0.178952	0.820784
H213	H	0.686685	-0.312676	0.312453
H214	H	1.186685	0.187324	0.812453
H215	H	1.225344	-0.549963	0.191282
H216	H	1.725344	-0.049963	0.691282
H217	H	0.686723	-0.191162	0.191352
H218	H	1.186723	0.308838	0.691352
H219	H	1.275656	-0.702068	0.157892
H220	H	1.775656	-0.202068	0.657892
F221	F	0.592805	-0.321058	0.320802
F222	F	1.092805	0.178942	0.820802
F223	F	1.238112	-0.946428	0.182967
F224	F	1.738112	-0.446428	0.682967
F225	F	0.423579	-0.321059	0.320824
F226	F	0.923579	0.178941	0.820824
F227	F	1.238165	-1.059146	0.182983
F228	F	1.738165	-0.559146	0.682983
F229	F	1.030751	-1.059216	0.320905
F230	F	1.530751	-0.559216	0.820905
H231	H	1.043048	-0.550048	0.312505
H232	H	1.543048	-0.050048	0.812505
H233	H	1.043266	-0.953335	0.312548
H234	H	1.543266	-0.453335	0.812548
F235	F	0.980412	-0.808050	0.354309
F236	F	1.480412	-0.308050	0.854309
H237	H	1.042990	-0.450982	0.312486
H238	H	1.542990	0.049018	0.812486
H239	H	1.225437	-0.191243	0.451469
H240	H	1.725437	0.308757	0.951469
H241	H	1.225449	-0.191205	0.550519
H242	H	1.725449	0.308795	1.050519
F243	F	1.288281	-0.149376	0.695827
F244	F	1.788281	0.350624	1.195827
F245	F	1.288310	-0.149351	0.808523
F246	F	1.788310	0.350649	1.308523
H247	H	1.225538	-0.191107	0.953815
H248	H	1.725538	0.308893	1.453815
F249	F	1.030572	-0.320921	0.444614
F250	F	1.530572	0.179079	0.944614
H251	H	1.225552	-0.191086	1.052881
H252	H	1.725552	0.308914	1.552881
F253	F	1.030704	-0.320774	1.059672
F254	F	1.530704	0.179226	1.559672
H255	H	1.043226	-0.312430	0.953798
H256	H	1.543226	0.187570	1.453798
H257	H	0.992942	-0.345895	0.801657
H258	H	1.492942	0.154105	1.301657
F259	F	0.980355	-0.354274	0.695779
F260	F	1.480355	0.145726	1.195779
H261	H	1.043155	-0.312540	0.550510
H262	H	1.543155	0.187460	1.050510
