data_functionalizedCrystal
_audit_creation_method	'MofGen! by Chris Wilmer'
_symmetry_space_group_name_H-M	'P1'
_symmetry_Int_Tables_number	1
_symmetry_cell_setting	triclinic
loop_
_symmetry_equiv_pos_as_xyz
  x,y,z
_cell_length_a	18.101398
_cell_length_b	18.101395
_cell_length_c	18.101389
_cell_angle_alpha	90.016841
_cell_angle_beta	90.024327
_cell_angle_gamma	90.026371
loop_
_atom_site_label
_atom_site_type_symbol
_atom_site_fract_x
_atom_site_fract_y
_atom_site_fract_z
Zn1	Zn	1.132121	-0.295001	0.418847
Zn2	Zn	1.465454	0.038333	0.752180
Zn3	Zn	1.798788	0.371666	1.085514
Zn4	Zn	1.132017	-0.418826	0.295009
Zn5	Zn	1.465350	-0.085493	0.628342
Zn6	Zn	1.798684	0.247840	0.961675
Zn7	Zn	1.008280	-0.294993	0.295008
Zn8	Zn	1.341613	0.038340	0.628341
Zn9	Zn	1.674947	0.371674	0.961675
Zn10	Zn	1.008231	-0.418795	0.418797
Zn11	Zn	1.341564	-0.085461	0.752131
Zn12	Zn	1.674897	0.247872	1.085464
O13	O	1.070162	-0.356904	0.356915
O14	O	1.403495	-0.023570	0.690249
O15	O	1.736829	0.309763	1.023582
O16	O	1.235740	-0.311443	0.402440
O17	O	1.569073	0.021890	0.735774
O18	O	1.902407	0.355224	1.069107
O19	O	1.115580	-0.402410	0.191376
O20	O	1.448913	-0.069076	0.524709
O21	O	1.782247	0.264257	0.858042
O22	O	1.024772	-0.191361	0.311456
O23	O	1.358105	0.141972	0.644789
O24	O	1.691439	0.475305	0.978123
O25	O	1.235664	-0.402417	0.311457
O26	O	1.568997	-0.069084	0.644790
O27	O	1.902330	0.264249	0.978124
O28	O	1.115757	-0.191367	0.402440
O29	O	1.449091	0.141966	0.735773
O30	O	1.782424	0.475300	1.069106
O31	O	1.024671	-0.311430	0.191375
O32	O	1.358004	0.021903	0.524708
O33	O	1.691338	0.355237	0.858042
O34	O	0.904641	-0.311399	0.311408
O35	O	1.237974	0.021934	0.644741
O36	O	1.571307	0.355268	0.978075
O37	O	1.024688	-0.402363	0.522437
O38	O	1.358021	-0.069030	0.855770
O39	O	1.691355	0.264303	1.189103
O40	O	0.904604	-0.402356	0.402355
O41	O	1.237938	-0.069022	0.735689
O42	O	1.571271	0.264311	1.069022
O43	O	1.115710	-0.311412	0.522473
O44	O	1.449043	0.021921	0.855807
O45	O	1.782376	0.355254	1.189140
O46	O	1.115532	-0.522455	0.311409
O47	O	1.448866	-0.189122	0.644742
O48	O	1.782199	0.144212	0.978076
O49	O	1.024587	-0.522432	0.402356
O50	O	1.357920	-0.189099	0.735689
O51	O	1.691254	0.144235	1.069023
C52	C	0.877752	-0.356874	0.356877
C53	C	1.211085	-0.023540	0.690210
C54	C	1.544418	0.309793	1.023543
C55	C	0.795437	-0.356879	0.356878
C56	C	1.128771	-0.023545	0.690211
C57	C	1.462104	0.309788	1.023544
C58	C	0.496347	-0.356925	0.356940
C59	C	0.829680	-0.023592	0.690273
C60	C	1.163013	0.309742	1.023606
C61	C	0.527670	-0.299412	0.299997
C62	C	0.861003	0.033922	0.633331
C63	C	1.194336	0.367255	0.966664
C64	C	0.613288	-0.299566	0.299754
C65	C	0.946621	0.033768	0.633088
C66	C	1.279955	0.367101	0.966421
C67	C	0.644729	-0.356901	0.356909
C68	C	0.978062	-0.023568	0.690242
C69	C	1.311396	0.309765	1.023576
C70	C	0.613611	-0.434909	0.335587
C71	C	0.946944	-0.101576	0.668920
C72	C	1.280278	0.231757	1.002253
C73	C	0.527966	-0.434590	0.335191
C74	C	0.861299	-0.101256	0.668524
C75	C	1.194632	0.232077	1.001857
C76	C	0.527961	-0.337109	0.435339
C77	C	0.861294	-0.003775	0.768672
C78	C	1.194628	0.329558	1.102005
C79	C	0.613612	-0.335371	0.434911
C80	C	0.946945	-0.002038	0.768244
C81	C	1.280279	0.331295	1.101577
C82	C	0.728589	-0.356893	0.356893
C83	C	1.061922	-0.023559	0.690226
C84	C	1.395255	0.309774	1.023559
C85	C	0.412487	-0.356939	0.356954
C86	C	0.745820	-0.023605	0.690288
C87	C	1.079154	0.309728	1.023621
C88	C	1.070063	-0.549314	0.356893
C89	C	1.403396	-0.215981	0.690227
C90	C	1.736730	0.117352	1.023560
C91	C	1.070088	-0.631628	0.356909
C92	C	1.403422	-0.298295	0.690242
C93	C	1.736755	0.035038	1.023576
C94	C	1.070251	-0.930719	0.356949
C95	C	1.403584	-0.597386	0.690282
C96	C	1.736918	-0.264053	1.023615
C97	C	1.013163	-0.899410	0.414312
C98	C	1.346497	-0.566077	0.747646
C99	C	1.679830	-0.232744	1.080979
C100	C	1.012892	-0.813792	0.414133
C101	C	1.346225	-0.480459	0.747466
C102	C	1.679559	-0.147126	1.080799
C103	C	1.070170	-0.782337	0.356930
C104	C	1.403504	-0.449003	0.690263
C105	C	1.736837	-0.115670	1.023596
C106	C	1.049041	-0.813472	0.278878
C107	C	1.382374	-0.480139	0.612211
C108	C	1.715708	-0.146806	0.945545
C109	C	1.048673	-0.899117	0.279221
C110	C	1.382006	-0.565784	0.612555
C111	C	1.715340	-0.232451	0.945888
C112	C	1.148593	-0.899073	0.376950
C113	C	1.481926	-0.565740	0.710283
C114	C	1.815259	-0.232407	1.043617
C115	C	1.148132	-0.813422	0.378661
C116	C	1.481465	-0.480089	0.711995
C117	C	1.814799	-0.146756	1.045328
C118	C	1.070126	-0.698477	0.356914
C119	C	1.403459	-0.365144	0.690247
C120	C	1.736793	-0.031811	1.023581
C121	C	1.070293	-1.014579	0.356959
C122	C	1.403627	-0.681245	0.690293
C123	C	1.736960	-0.347912	1.023626
C124	C	1.263324	-0.356934	0.356954
C125	C	1.596657	-0.023601	0.690288
C126	C	1.929991	0.309732	1.023621
C127	C	1.345638	-0.356948	0.356971
C128	C	1.678971	-0.023614	0.690304
C129	C	2.012305	0.309719	1.023638
C130	C	1.070205	-0.356885	0.550077
C131	C	1.403538	-0.023552	0.883411
C132	C	1.736872	0.309782	1.216744
C133	C	1.070223	-0.356877	0.632391
C134	C	1.403556	-0.023544	0.965725
C135	C	1.736890	0.309790	1.299058
C136	C	1.070282	-0.163742	0.356953
C137	C	1.403615	0.169591	0.690287
C138	C	1.736948	0.502925	1.023620
C139	C	1.070333	-0.081428	0.356970
C140	C	1.403666	0.251906	0.690303
C141	C	1.736999	0.585239	1.023636
C142	C	1.070162	-0.356869	0.164505
C143	C	1.403495	-0.023536	0.497838
C144	C	1.736829	0.309798	0.831171
C145	C	1.070287	-0.356668	0.082191
C146	C	1.403621	-0.023335	0.415524
C147	C	1.736954	0.309998	0.748858
C148	C	1.070266	-0.356738	0.931482
C149	C	1.403600	-0.023405	1.264816
C150	C	1.736933	0.309928	1.598149
C151	C	1.012801	-0.413780	0.900134
C152	C	1.346134	-0.080447	1.233468
C153	C	1.679467	0.252887	1.566801
C154	C	1.012956	-0.414045	0.814516
C155	C	1.346289	-0.080711	1.147849
C156	C	1.679623	0.252622	1.481183
C157	C	1.070244	-0.356807	0.783100
C158	C	1.403578	-0.023474	1.116433
C159	C	1.736911	0.309860	1.449767
C160	C	1.148270	-0.377998	0.814206
C161	C	1.481603	-0.044664	1.147539
C162	C	1.814936	0.288669	1.480873
C163	C	1.147949	-0.378372	0.899851
C164	C	1.481283	-0.045039	1.233184
C165	C	1.814616	0.288295	1.566518
C166	C	1.050385	-0.278379	0.899905
C167	C	1.383718	0.054954	1.233238
C168	C	1.717052	0.388288	1.566571
C169	C	1.048649	-0.278832	0.814254
C170	C	1.381982	0.054502	1.147587
C171	C	1.715315	0.387835	1.480920
C172	C	1.070237	-0.356845	0.699240
C173	C	1.403570	-0.023511	1.032574
C174	C	1.736903	0.309822	1.365907
C175	C	1.070279	-0.356702	1.015342
C176	C	1.403613	-0.023369	1.348675
C177	C	1.736946	0.309964	1.682009
H178	H	0.635026	-0.452008	0.278892
H179	H	0.968359	-0.118675	0.612226
H180	H	1.301692	0.214659	0.945559
O181	O	1.030385	-0.785924	0.490805
O182	O	1.363718	-0.452591	0.824138
O183	O	1.697051	-0.119257	1.157471
H184	H	1.081251	-0.751707	0.489004
H185	H	1.414584	-0.418374	0.822338
H186	H	1.747918	-0.085041	1.155671
H187	H	1.191125	-0.919319	0.335170
H188	H	1.524458	-0.585986	0.668503
H189	H	1.857792	-0.252652	1.001837
H190	H	0.633975	-0.478909	0.375763
H191	H	0.967309	-0.145575	0.709096
H192	H	1.300642	0.187758	1.042430
O193	O	0.501126	-0.392587	0.491547
O194	O	0.834460	-0.059254	0.824880
O195	O	1.167793	0.274079	1.158213
H196	H	0.465446	-0.434076	0.463827
H197	H	0.798779	-0.100743	0.797161
H198	H	1.132112	0.232590	1.130494
O199	O	0.499397	-0.263070	0.461023
O200	O	0.832730	0.070263	0.794356
O201	O	1.166064	0.403596	1.127690
H202	H	0.462344	-0.239569	0.418191
H203	H	0.795677	0.093765	0.751524
H204	H	1.129010	0.427098	1.084857
H205	H	0.635017	-0.374209	0.479611
H206	H	0.968350	-0.040876	0.812944
H207	H	1.301684	0.292457	1.146277
O208	O	0.976324	-0.252814	0.928489
O209	O	1.309658	0.080519	1.261822
O210	O	1.642991	0.413852	1.595156
H211	H	0.983468	-0.200477	0.959653
H212	H	1.316801	0.132857	1.292986
H213	H	1.650135	0.466190	1.626319
O214	O	1.174107	-0.927623	0.451060
O215	O	1.507441	-0.594290	0.784393
O216	O	1.840774	-0.260957	1.117727
H217	H	1.229454	-0.904515	0.463892
H218	H	1.562787	-0.571181	0.797225
H219	H	1.896120	-0.237848	1.130558
H220	H	0.506120	-0.312363	0.242242
H221	H	0.839454	0.020971	0.575576
H222	H	1.172787	0.354304	0.908909
O223	O	0.972597	-0.257648	0.787312
O224	O	1.305931	0.075686	1.120646
O225	O	1.639264	0.409019	1.453979
H226	H	0.950266	-0.302461	0.751878
H227	H	1.283600	0.030873	1.085212
H228	H	1.616933	0.364206	1.418545
H229	H	0.633741	-0.312665	0.241661
H230	H	0.967075	0.020668	0.574995
H231	H	1.300408	0.354002	0.908328
H232	H	0.954768	-0.400655	0.920720
H233	H	1.288101	-0.067321	1.254053
H234	H	1.621434	0.266012	1.587386
O235	O	0.936711	-0.927988	0.396979
O236	O	1.270044	-0.594655	0.730312
O237	O	1.603378	-0.261321	1.063646
H238	H	0.915501	-0.959825	0.444889
H239	H	1.248834	-0.626491	0.778222
H240	H	1.582167	-0.293158	1.111555
O241	O	0.640558	-0.259334	0.456219
O242	O	0.973892	0.073999	0.789552
O243	O	1.307225	0.407333	1.122886
H244	H	0.675970	-0.236964	0.411449
H245	H	1.009303	0.096369	0.744782
H246	H	1.342636	0.429703	1.078116
H247	H	1.026252	-0.919970	0.472374
H248	H	1.359585	-0.586636	0.805707
H249	H	1.692918	-0.253303	1.139040
H250	H	1.164065	-0.793071	0.436103
H251	H	1.497399	-0.459738	0.769436
H252	H	1.830732	-0.126404	1.102770
O253	O	1.207455	-0.785090	0.327335
O254	O	1.540788	-0.451756	0.660668
O255	O	1.874121	-0.118423	0.994002
H256	H	1.182185	-0.748246	0.285347
H257	H	1.515518	-0.414912	0.618680
H258	H	1.848852	-0.081579	0.952013
H259	H	1.087450	-0.234076	0.792868
H260	H	1.420783	0.099258	1.126202
H261	H	1.754117	0.432591	1.459535
H262	H	0.507954	-0.451397	0.277877
H263	H	0.841287	-0.118063	0.611211
H264	H	1.174621	0.215270	0.944544
O265	O	1.030000	-0.490238	0.928681
O266	O	1.363334	-0.156905	1.262014
O267	O	1.696667	0.176428	1.595348
H268	H	1.086355	-0.506467	0.910817
H269	H	1.419689	-0.173134	1.244151
H270	H	1.753022	0.160199	1.577484
H271	H	1.192236	-0.337757	0.793859
H272	H	1.525569	-0.004423	1.127192
H273	H	1.858902	0.328910	1.460526
O274	O	0.936319	-0.396458	0.786657
O275	O	1.269652	-0.063124	1.119990
O276	O	1.602986	0.270209	1.453323
H277	H	0.896935	-0.438728	0.807208
H278	H	1.230268	-0.105394	1.140541
H279	H	1.563601	0.227939	1.473875
O280	O	1.030247	-0.491000	0.787376
O281	O	1.363580	-0.157667	1.120709
O282	O	1.696913	0.175667	1.454042
H283	H	1.038553	-0.528166	0.835424
H284	H	1.371887	-0.194833	1.168757
H285	H	1.705220	0.138501	1.502090
O286	O	0.500507	-0.493265	0.387734
O287	O	0.833840	-0.159932	0.721068
O288	O	1.167174	0.173401	1.054401
H289	H	0.548402	-0.521748	0.413308
H290	H	0.881736	-0.188415	0.746641
H291	H	1.215069	0.144918	1.079975
O292	O	1.170262	-0.454249	0.926333
O293	O	1.503595	-0.120915	1.259667
O294	O	1.836929	0.212418	1.593000
H295	H	1.181176	-0.490330	0.877968
H296	H	1.514509	-0.156997	1.211302
H297	H	1.847842	0.176337	1.544635
H298	H	0.954823	-0.793362	0.400884
H299	H	1.288157	-0.460029	0.734217
H300	H	1.621490	-0.126695	1.067550
O301	O	0.972817	-0.925666	0.256787
O302	O	1.306150	-0.592333	0.590120
O303	O	1.639484	-0.258999	0.923454
H304	H	0.936741	-0.877333	0.245799
H305	H	1.270074	-0.544000	0.579132
H306	H	1.603407	-0.210666	0.912466
H307	H	1.192217	-0.338629	0.920590
H308	H	1.525550	-0.005296	1.253924
H309	H	1.858884	0.328038	1.587257
H310	H	0.992380	-0.792080	0.261633
H311	H	1.325714	-0.458746	0.594966
H312	H	1.659047	-0.125413	0.928299
H313	H	1.088449	-0.919830	0.235023
H314	H	1.421783	-0.586497	0.568357
H315	H	1.755116	-0.253163	0.901690
O316	O	1.170987	-0.453070	0.785818
O317	O	1.504320	-0.119737	1.119151
O318	O	1.837654	0.213597	1.452484
H319	H	1.126836	-0.475409	0.749563
H320	H	1.460170	-0.142076	1.082897
H321	H	1.793503	0.191257	1.416230
H322	H	0.507099	-0.241388	0.313215
H323	H	0.840433	0.091945	0.646548
H324	H	1.173766	0.425278	0.979882
O325	O	0.641168	-0.222939	0.317433
O326	O	0.974502	0.110395	0.650766
O327	O	1.307835	0.443728	0.984099
H328	H	0.593479	-0.185437	0.326232
H329	H	0.926812	0.147897	0.659565
H330	H	1.260145	0.481230	0.992898
O331	O	1.102379	-0.786489	0.220711
O332	O	1.435713	-0.453156	0.554045
O333	O	1.769046	-0.119823	0.887378
H334	H	1.100975	-0.725225	0.218592
H335	H	1.434308	-0.391892	0.551926
H336	H	1.767641	-0.058558	0.885259
O337	O	1.105826	-0.222083	0.926759
O338	O	1.439159	0.111250	1.260092
O339	O	1.772493	0.444583	1.593426
H340	H	1.091421	-0.166916	0.904226
H341	H	1.424754	0.166418	1.237560
H342	H	1.758087	0.499751	1.570893
