data_functionalizedCrystal
_audit_creation_method	'MofGen! by Chris Wilmer'
_symmetry_space_group_name_H-M	'P1'
_symmetry_Int_Tables_number	1
_symmetry_cell_setting	triclinic
loop_
_symmetry_equiv_pos_as_xyz
  x,y,z
_cell_length_a	11.026607
_cell_length_b	15.944551
_cell_length_c	10.065875
_cell_angle_alpha	98.788968
_cell_angle_beta	79.302338
_cell_angle_gamma	96.042377
loop_
_atom_site_label
_atom_site_type_symbol
_atom_site_fract_x
_atom_site_fract_y
_atom_site_fract_z
O1	O	1.627949	0.342077	-0.113512
O2	O	1.274640	0.302024	-0.113511
O3	O	1.460941	0.201235	-0.113499
O4	O	1.441648	0.442866	-0.113524
O5	O	1.425416	0.220553	0.113487
O6	O	1.239115	0.321342	0.113475
O7	O	1.592424	0.361394	0.113475
Zn8	Zn	1.410129	0.344435	0.149514
Zn9	Zn	1.456935	0.318983	-0.149550
O10	O	1.406123	0.462183	0.113463
C11	C	1.211666	0.304294	-0.000018
C12	C	1.076950	0.282267	-0.000017
C13	C	1.003150	0.343086	-0.000024
C14	C	0.863914	0.320322	-0.000024
C15	C	1.442377	0.179479	-0.000006
C16	C	1.439975	0.085870	-0.000005
C17	C	1.318759	-0.147313	-0.000024
C18	C	1.357533	-0.190296	0.111894
C19	C	1.435632	-0.085514	-0.000015
C20	C	1.392586	-0.209321	-0.111896
C21	C	1.431429	-0.251063	-0.000031
C22	C	1.474424	-0.127256	0.111995
C23	C	1.509476	-0.146286	-0.111896
C24	C	1.548331	-0.189236	0.000049
C25	C	1.438050	0.009855	-0.000005
C26	C	1.429019	-0.346429	-0.000032
C27	C	1.655399	0.359124	-0.000022
C28	C	1.790116	0.381150	-0.000031
C29	C	1.424687	0.483939	-0.000034
C30	C	1.427090	0.577548	-0.000043
N31	N	1.378194	0.361806	0.353617
N32	N	1.488879	0.301607	-0.353654
C33	C	1.445816	0.325021	0.421401
C34	C	1.421248	0.338398	0.578566
H35	H	0.830005	0.450078	-0.000029
O36	O	1.029173	0.200078	-0.000072
C37	C	0.846816	0.102464	0.000018
C38	C	0.900761	0.195576	0.000048
H39	H	0.742984	0.098796	0.000144
H40	H	0.893548	0.061732	-0.094996
H41	H	0.863977	0.077937	0.094991
H42	H	0.883614	0.220181	-0.094860
H43	H	0.854025	0.236250	0.095125
O44	O	1.515872	-0.084928	0.224902
C45	C	1.683207	-0.058746	0.353270
C46	C	1.636440	-0.106721	0.225333
H47	H	1.780680	-0.076361	0.353676
H48	H	1.684754	0.012775	0.352400
H49	H	1.618759	-0.077180	0.448509
H50	H	1.700845	-0.088358	0.130027
H51	H	1.634863	-0.178230	0.226324
H52	H	1.573676	-0.126742	-0.206519
H53	H	1.345156	0.379794	0.636882
O54	O	1.579418	0.252086	0.576578
C55	C	1.686052	0.193266	0.356320
C56	C	1.583648	0.249506	0.435160
H57	H	1.689489	0.191147	0.241970
H58	H	1.779175	0.220905	0.384005
H59	H	1.665244	0.126053	0.384632
H60	H	1.604339	0.316730	0.406890
H61	H	1.490558	0.221797	0.407468
H62	H	1.221730	-0.128661	0.000088
H63	H	1.357946	-0.244926	-0.206521
H64	H	1.645418	-0.207712	0.000112
O65	O	1.050946	0.425265	-0.000087
C66	C	1.233274	0.522895	0.000005
C67	C	1.179319	0.429789	0.000040
H68	H	1.337066	0.526585	0.000136
H69	H	1.216286	0.547459	-0.095013
H70	H	1.186382	0.563582	0.094974
H71	H	1.226176	0.389034	-0.094865
H72	H	1.196291	0.405293	0.095121
O73	O	0.816142	0.238129	-0.000078
C74	C	0.633786	0.140514	0.000011
C75	C	0.687731	0.233626	0.000042
H76	H	0.529954	0.136846	0.000137
H77	H	0.680518	0.099783	-0.095003
H78	H	0.650947	0.115987	0.094984
H79	H	0.670584	0.258231	-0.094867
H80	H	0.640995	0.274300	0.095119
H81	H	1.521895	0.283620	0.363081
O82	O	1.280720	-0.213580	0.224671
C83	C	1.072911	-0.218852	0.352234
C84	C	1.159766	-0.192463	0.224449
H85	H	0.975107	-0.201773	0.352111
H86	H	1.072428	-0.290440	0.351665
H87	H	1.106930	-0.183823	0.447587
H88	H	1.125810	-0.227432	0.129028
H89	H	1.160241	-0.120864	0.225139
O90	O	1.287509	0.411197	0.423394
C91	C	1.180253	0.469491	0.643657
C92	C	1.283014	0.413551	0.564811
H93	H	1.176568	0.471398	0.758006
H94	H	1.200684	0.536812	0.615738
H95	H	1.087364	0.441626	0.615582
H96	H	1.375944	0.441341	0.592843
H97	H	1.262476	0.346236	0.592737
