data_functionalizedCrystal
_audit_creation_method	'MofGen! by Chris Wilmer'
_symmetry_space_group_name_H-M	'P1'
_symmetry_Int_Tables_number	1
_symmetry_cell_setting	triclinic
loop_
_symmetry_equiv_pos_as_xyz
  x,y,z
_cell_length_a	6.817900
_cell_length_b	9.514072
_cell_length_c	11.102193
_cell_angle_alpha	88.635780
_cell_angle_beta	108.604059
_cell_angle_gamma	118.843421
loop_
_atom_site_label
_atom_site_type_symbol
_atom_site_fract_x
_atom_site_fract_y
_atom_site_fract_z
V1	V	-4.170264	-0.222216	-0.397253
O2	O	-4.067727	0.010666	-0.388667
O3	O	-4.204780	-0.440605	-0.395522
O4	O	-4.146136	-0.218803	-0.570059
O5	O	-4.126777	-0.212671	-0.212920
V6	V	-4.640003	-0.194360	-0.375086
O7	O	-4.461759	-0.283320	-0.445879
O8	O	-4.798706	-0.133255	-0.326460
O9	O	-4.382281	0.024030	-0.376817
O10	O	-4.859937	-0.427242	-0.383672
O11	O	-4.800888	-0.203904	-0.559419
O12	O	-4.440925	-0.197773	-0.202280
C13	C	-4.069166	-0.493844	-0.389509
C14	C	-4.178835	-0.672380	-0.389245
C15	C	-3.994359	-0.210911	-0.612148
C16	C	-4.056463	-0.209565	-0.753424
C17	C	-4.254562	-0.503723	-0.791069
C18	C	-4.382777	-0.650162	-0.876262
C19	C	-4.441127	-0.648889	-1.009002
C20	C	-4.371258	-0.501160	-1.056551
C21	C	-4.243042	-0.354721	-0.971359
C22	C	-4.184696	-0.356009	-0.838617
C23	C	-4.044961	-0.060568	-0.933715
C24	C	-3.986594	-0.061837	-0.800973
C25	C	-3.975091	0.087161	-0.981264
C26	C	-3.846859	0.233605	-0.896071
C27	C	-3.788508	0.232326	-0.763323
C28	C	-3.858379	0.084603	-0.715781
C29	C	-4.181240	0.077260	-0.382826
C30	C	-4.050811	0.255794	-0.383099
C31	C	-4.256046	-0.205670	-0.160185
C32	C	-4.173176	-0.207007	-0.018907
H33	H	-4.439663	-0.770441	-0.837532
C34	C	-4.435463	-0.499762	-1.202567
C35	C	-4.344725	-0.572306	-1.279736
C36	C	-4.408931	-0.570906	-1.425752
C37	C	-4.563875	-0.496961	-1.494600
C38	C	-4.654621	-0.424411	-1.417431
C39	C	-4.590415	-0.425811	-1.271415
H40	H	-4.230019	-0.627050	-1.228770
H41	H	-4.341754	-0.624613	-1.482878
H42	H	-4.611404	-0.495925	-1.602691
H43	H	-4.769328	-0.369668	-1.468396
H44	H	-4.657593	-0.372105	-1.214289
H45	H	-4.022626	0.088187	-1.089350
H46	H	-3.789998	0.353874	-0.934798
H47	H	-4.372381	-0.747490	-0.394350
C48	C	-3.794197	0.083195	-0.569767
C49	C	-3.884966	0.155724	-0.492608
C50	C	-3.820795	0.154309	-0.346594
C51	C	-3.665855	0.080364	-0.277739
C52	C	-3.575077	0.007829	-0.354899
C53	C	-3.639248	0.009244	-0.500913
H54	H	-3.999670	0.210467	-0.543579
H55	H	-3.887995	0.208004	-0.289476
H56	H	-3.618352	0.079316	-0.169651
H57	H	-3.460373	-0.046914	-0.303928
H58	H	-3.572048	-0.044451	-0.558031
H59	H	-4.207029	-0.504773	-0.682986
H60	H	-3.857268	-0.669101	-0.377975
H61	H	-4.545533	-0.768134	-1.078367
H62	H	-3.684116	0.351575	-0.693966
