data_functionalizedCrystal
_audit_creation_method	'MofGen! by Chris Wilmer'
_symmetry_space_group_name_H-M	'P1'
_symmetry_Int_Tables_number	1
_symmetry_cell_setting	triclinic
loop_
_symmetry_equiv_pos_as_xyz
  x,y,z
_cell_length_a	14.044220
_cell_length_b	8.140239
_cell_length_c	9.065218
_cell_angle_alpha	90.001686
_cell_angle_beta	89.102381
_cell_angle_gamma	89.997843
loop_
_atom_site_label
_atom_site_type_symbol
_atom_site_fract_x
_atom_site_fract_y
_atom_site_fract_z
O1	O	1.260761	0.136426	0.356074
O2	O	1.594095	0.469760	0.689408
O3	O	1.927428	0.803093	1.022741
O4	O	0.984682	0.136468	0.343225
O5	O	1.318015	0.469802	0.676558
O6	O	1.651349	0.803135	1.009892
O7	O	1.128428	0.136443	0.135640
O8	O	1.461761	0.469776	0.468973
O9	O	1.795095	0.803110	0.802306
O10	O	1.117015	0.136451	0.563660
O11	O	1.450348	0.469785	0.896993
O12	O	1.783682	0.803118	1.230326
O13	O	1.128420	-0.136784	0.135636
O14	O	1.461753	0.196549	0.468969
O15	O	1.795087	0.529883	0.802303
O16	O	0.984674	-0.136759	0.343222
O17	O	1.318007	0.196575	0.676555
O18	O	1.651340	0.529908	1.009888
O19	O	1.260753	-0.136801	0.356071
O20	O	1.594087	0.196533	0.689404
O21	O	1.927420	0.529866	1.022737
Zn22	Zn	1.122712	-0.180160	0.349646
Zn23	Zn	1.456046	0.153173	0.682979
Zn24	Zn	1.789379	0.486506	1.016312
Zn25	Zn	1.122723	0.179828	0.349650
Zn26	Zn	1.456056	0.513161	0.682984
Zn27	Zn	1.789390	0.846495	1.016317
O28	O	1.117007	-0.136776	0.563656
O29	O	1.450340	0.196558	0.896989
O30	O	1.783674	0.529891	1.230323
C31	C	0.949315	-0.000140	0.337599
C32	C	1.282648	0.333194	0.670932
C33	C	1.615982	0.666527	1.004266
C34	C	0.843945	-0.000124	0.320822
C35	C	1.177279	0.333210	0.654155
C36	C	1.510612	0.666543	0.987489
N37	N	1.122712	-0.425843	0.349642
N38	N	1.456045	-0.092510	0.682976
N39	N	1.789379	0.240824	1.016309
C40	C	0.651021	-0.000157	0.290150
C41	C	0.984354	0.333177	0.623483
C42	C	1.317687	0.666510	0.956817
C43	C	0.594409	-0.000161	0.409139
C44	C	0.927742	0.333172	0.742472
C45	C	1.261076	0.666505	1.075806
C46	C	0.487059	-0.000180	0.392073
C47	C	0.820392	0.333154	0.725406
C48	C	1.153726	0.666487	1.058740
C49	C	0.758381	-0.000138	0.307214
C50	C	1.091714	0.333195	0.640547
C51	C	1.425047	0.666528	0.973881
C52	C	1.296120	-0.000189	0.361697
C53	C	1.629453	0.333144	0.695030
C54	C	1.962787	0.666478	1.028364
C55	C	1.401490	-0.000195	0.378474
C56	C	1.734823	0.333139	0.711807
C57	C	2.068157	0.666472	1.045141
C58	C	1.127327	-0.000168	0.080530
C59	C	1.460661	0.333166	0.413863
C60	C	1.793994	0.666499	0.747196
C61	C	1.124048	-0.000159	-0.083677
C62	C	1.457381	0.333174	0.249657
C63	C	1.790714	0.666507	0.582990
N64	N	1.122731	0.425511	0.349643
N65	N	1.456064	0.758844	0.682976
N66	N	1.789397	1.092177	1.016309
C67	C	1.118108	-0.000161	0.618766
C68	C	1.451441	0.333172	0.952099
C69	C	1.784775	0.666505	1.285433
C70	C	1.121388	-0.000159	0.782972
C71	C	1.454721	0.333175	1.116306
C72	C	1.788054	0.666508	1.449639
H73	H	0.626565	-0.000151	0.523826
H74	H	0.959898	0.333182	0.857159
H75	H	1.293231	0.666516	1.190493
H76	H	0.618867	-0.000168	0.175472
H77	H	0.952200	0.333165	0.508806
H78	H	1.285533	0.666499	0.842139
