data_functionalizedCrystal
_audit_creation_method	'MofGen! by Chris Wilmer'
_symmetry_space_group_name_H-M	'P1'
_symmetry_Int_Tables_number	1
_symmetry_cell_setting	triclinic
loop_
_symmetry_equiv_pos_as_xyz
  x,y,z
_cell_length_a	12.645330
_cell_length_b	13.032831
_cell_length_c	13.032268
_cell_angle_alpha	90.886977
_cell_angle_beta	82.848687
_cell_angle_gamma	97.177187
loop_
_atom_site_label
_atom_site_type_symbol
_atom_site_fract_x
_atom_site_fract_y
_atom_site_fract_z
Zn1	Zn	-0.715929	-1.498478	0.780858
Zn2	Zn	-0.873876	-1.520220	0.608884
Zn3	Zn	-0.671644	-1.348336	0.587098
Zn4	Zn	-0.868144	-1.326468	0.759009
O5	O	-0.782398	-1.423375	0.683962
O6	O	-0.757814	-1.645282	0.776307
O7	O	-0.830915	-1.515670	0.462076
O8	O	-0.529182	-1.368306	0.612827
O9	O	-0.873856	-1.661256	0.649958
O10	O	-0.561718	-1.478614	0.755182
O11	O	-0.682336	-1.389388	0.446071
O12	O	-0.676778	-1.201515	0.591641
O13	O	-0.864087	-1.331034	0.905824
O14	O	-0.821146	-1.185448	0.717943
O15	O	-0.752256	-1.457409	0.921877
O16	O	-1.021452	-1.494465	0.628771
O17	O	-1.017241	-1.352116	0.739067
C18	C	-0.743535	-1.156164	0.650057
C19	C	-0.726938	-1.041847	0.635577
C20	C	-1.057816	-1.423302	0.683938
C21	C	-1.175658	-1.423360	0.683974
C22	C	-0.812472	-1.389357	0.952210
C23	C	-0.825288	-1.374860	1.066522
C24	C	-1.340692	-1.334105	0.753648
C25	C	-1.218045	-1.333733	0.753341
C26	C	-1.203807	-1.407793	0.571873
C27	C	-1.326389	-1.407248	0.572295
C28	C	-1.361707	-1.528779	0.725584
C29	C	-1.239270	-1.527810	0.727870
C30	C	-0.505912	-1.423474	0.684012
C31	C	-0.388090	-1.423516	0.684033
C32	C	-0.821414	-1.691630	0.718000
C33	C	-0.838040	-1.805944	0.732505
C34	C	-0.791061	-0.982971	0.691519
C35	C	-0.773908	-0.864818	0.676555
C36	C	-0.752374	-1.457320	0.416765
C37	C	-0.739288	-1.472016	0.302479
C38	C	-0.775669	-1.430925	1.125428
C39	C	-0.788914	-1.415944	1.243575
H40	H	-1.199591	-1.341878	0.836032
H41	H	-0.858655	-1.020037	0.750496
F42	F	-0.857254	-1.338697	1.291972
F43	F	-1.161804	-1.231368	0.715943
F44	F	-1.418518	-1.550859	0.831565
F45	F	-1.203113	-1.618028	0.667861
F46	F	-0.926390	-0.854377	0.809607
F47	F	-0.670954	-1.549269	1.254085
H48	H	-0.706302	-0.827756	0.617582
H49	H	-1.381809	-1.342048	0.836582
H50	H	-0.877565	-1.315763	1.103557
F51	F	-1.345332	-1.307208	0.528381
F52	F	-0.638576	-0.993404	0.558498
H53	H	-1.222299	-1.539800	0.810438
F54	F	-1.366634	-1.489642	0.501212
F55	F	-1.363208	-1.232362	0.716655
F56	F	-0.707302	-1.508142	1.077023
H57	H	-1.175923	-1.471460	0.517982
H58	H	-1.392760	-1.595223	0.675049
F59	F	-1.145334	-1.308904	0.527539
