data_functionalizedCrystal
_audit_creation_method	'MofGen! by Chris Wilmer'
_symmetry_space_group_name_H-M	'P1'
_symmetry_Int_Tables_number	1
_symmetry_cell_setting	triclinic
loop_
_symmetry_equiv_pos_as_xyz
  x,y,z
_cell_length_a	14.908571
_cell_length_b	16.625546
_cell_length_c	14.908308
_cell_angle_alpha	86.735930
_cell_angle_beta	89.824947
_cell_angle_gamma	86.718495
loop_
_atom_site_label
_atom_site_type_symbol
_atom_site_fract_x
_atom_site_fract_y
_atom_site_fract_z
Zn1	Zn	1.345280	-0.420778	0.587557
Zn2	Zn	1.845280	0.079222	1.087557
Zn3	Zn	1.353856	-0.548312	0.437189
Zn4	Zn	1.853856	-0.048312	0.937189
Zn5	Zn	1.203596	-0.405291	0.428555
Zn6	Zn	1.703596	0.094709	0.928555
Zn7	Zn	1.194884	-0.547354	0.578841
Zn8	Zn	1.694884	-0.047354	1.078841
O9	O	1.274404	-0.480434	0.508036
O10	O	1.774404	0.019566	1.008036
O11	O	1.472243	-0.444578	0.574871
O12	O	1.972243	0.055422	1.074871
O13	O	1.341159	-0.523260	0.310220
O14	O	1.841159	-0.023260	0.810220
O15	O	1.222448	-0.294517	0.449681
O16	O	1.722448	0.205483	0.949681
O17	O	1.478544	-0.538277	0.464397
O18	O	1.978544	-0.038277	0.964397
O19	O	1.326543	-0.305896	0.566499
O20	O	1.826543	0.194104	1.066499
O21	O	1.230763	-0.418182	0.303876
O22	O	1.730763	0.081818	0.803876
O23	O	1.076615	-0.417254	0.441230
O24	O	1.576615	0.082746	0.941230
O25	O	1.207599	-0.536644	0.705821
O26	O	1.707599	-0.036644	1.205821
O27	O	1.070214	-0.521627	0.551644
O28	O	1.570214	-0.021627	1.051644
O29	O	1.318095	-0.443649	0.712225
O30	O	1.818095	0.056351	1.212225
O31	O	1.332711	-0.661013	0.455945
O32	O	1.832711	-0.161013	0.955945
O33	O	1.215914	-0.660309	0.560016
O34	O	1.715914	-0.160309	1.060016
C35	C	1.040789	-0.467656	0.494555
C36	C	1.540789	0.032344	0.994555
C37	C	0.940846	-0.462211	0.488810
C38	C	1.440846	0.037789	0.988810
C39	C	1.274321	-0.689918	0.507993
C40	C	1.774321	-0.189918	1.007993
C41	C	1.274366	-0.779542	0.508010
C42	C	1.774366	-0.279542	1.008010
C43	C	0.746435	-0.560814	0.592833
C44	C	1.246435	-0.060814	1.092833
C45	C	0.652530	-0.555700	0.587437
C46	C	1.152530	-0.055700	1.087437
C47	C	0.659128	-0.446865	0.472629
C48	C	1.159128	0.053135	0.972629
C49	C	0.753033	-0.451979	0.478024
C50	C	1.253033	0.048021	0.978024
C51	C	0.796683	-0.508956	0.538127
C52	C	1.296683	-0.008956	1.038127
C53	C	0.890591	-0.514074	0.543517
C54	C	1.390591	-0.014074	1.043517
C55	C	0.897187	-0.405236	0.428714
C56	C	1.397187	0.094764	0.928714
C57	C	0.803282	-0.400121	0.423318
C58	C	1.303282	0.099879	0.923318
C59	C	1.274517	-1.107731	0.508112
C60	C	1.774517	-0.607731	1.008112
C61	C	1.274472	-1.016419	0.508086
C62	C	1.774472	-0.516419	1.008086
C63	C	1.274441	-0.943640	0.508060
C64	C	1.774441	-0.443640	1.008060
C65	C	1.274397	-0.852322	0.508035
C66	C	1.774397	-0.352322	1.008035
C67	C	1.508931	-0.493262	0.521569
C68	C	2.008931	0.006738	1.021569
C69	C	1.608873	-0.498728	0.527336
C70	C	2.108873	0.001272	1.027336
C71	C	1.260918	-0.491767	0.742560
C72	C	1.760918	0.008233	1.242560
C73	C	1.255172	-0.496597	0.842501
C74	C	1.755172	0.003403	1.342501
C75	C	1.274511	-0.270134	0.508099
C76	C	1.774511	0.229866	1.008099
C77	C	1.274556	-0.180516	0.508127
C78	C	1.774556	0.319484	1.008127
C79	C	1.287889	-0.469089	0.274426
C80	C	1.787889	0.030911	0.774426
C81	C	1.293810	-0.464042	0.174497
C82	C	1.793810	0.035958	0.674497
C83	C	1.359429	-0.408817	1.036969
C84	C	1.859429	0.091183	1.536969
C85	C	1.354033	-0.413353	1.130872
C86	C	1.854033	0.086647	1.630872
C87	C	1.238977	-0.510198	1.124211
C88	C	1.738977	-0.010198	1.624211
C89	C	1.244374	-0.505662	1.030308
C90	C	1.744374	-0.005662	1.530308
C91	C	1.304603	-0.454971	0.986690
C92	C	1.804603	0.045029	1.486690
C93	C	1.310004	-0.450441	0.892786
C94	C	1.810004	0.049559	1.392786
C95	C	1.194945	-0.547281	0.886127
C96	C	1.694945	-0.047281	1.386127
C97	C	1.189548	-0.551817	0.980030
C98	C	1.689548	-0.051817	1.480030
H99	H	0.926129	-0.560469	0.592455
H100	H	1.426129	-0.060469	1.092455
H101	H	0.781976	-0.607211	0.641766
H102	H	1.281976	-0.107211	1.141766
H103	H	0.611620	-0.597926	0.631986
H104	H	1.111620	-0.097926	1.131986
C105	C	0.518099	-0.390661	0.413442
C106	C	1.018099	0.109339	0.913442
C107	C	0.611135	-0.384210	0.406604
C108	C	1.111135	0.115790	0.906604
H109	H	0.488472	-0.351974	0.372686
H110	H	0.988472	0.148026	0.872686
H111	H	0.499282	-0.381055	0.473003
H112	H	0.999282	0.118945	0.973003
H113	H	0.503448	-0.443329	0.399260
H114	H	1.003448	0.056671	0.899260
H115	H	0.625786	-0.331544	0.420793
H116	H	1.125786	0.168456	0.920793
H117	H	0.629959	-0.393810	0.347029
H118	H	1.129959	0.106190	0.847029
C119	C	0.783088	-0.351712	0.269479
C120	C	1.283088	0.148288	0.769479
C121	C	0.755296	-0.337495	0.357255
C122	C	1.255296	0.162505	0.857255
H123	H	0.753468	-0.313045	0.228694
H124	H	1.253468	0.186955	0.728694
H125	H	0.768438	-0.404383	0.255339
H126	H	1.268438	0.095617	0.755339
H127	H	0.846207	-0.347335	0.264872
H128	H	1.346207	0.152665	0.764872
H129	H	0.692178	-0.341878	0.361864
H130	H	1.192178	0.158122	0.861864
H131	H	0.769940	-0.284811	0.371399
H132	H	1.269940	0.215189	0.871399
H133	H	1.189942	-0.551467	1.159741
H134	H	1.689942	-0.051467	1.659741
H135	H	1.359047	-0.409167	0.857274
H136	H	1.859047	0.090833	1.357274
C137	C	1.044066	-0.364748	0.386000
C138	C	1.544066	0.135252	0.886000
C139	C	0.952423	-0.348228	0.368576
C140	C	1.452423	0.151772	0.868576
H141	H	1.078164	-0.329552	0.348875
H142	H	1.578164	0.170448	0.848875
H143	H	1.060193	-0.419095	0.373618
H144	H	1.560193	0.080905	0.873618
H145	H	1.055992	-0.356784	0.447322
H146	H	1.555992	0.143216	0.947322
H147	H	0.940495	-0.356197	0.307255
H148	H	1.440495	0.143803	0.807255
H149	H	0.936290	-0.293867	0.380951
H150	H	1.436290	0.206133	0.880951
C151	C	1.360502	-0.310676	1.237213
C152	C	1.860502	0.189324	1.737213
C153	C	1.414299	-0.362617	1.186136
C154	C	1.914299	0.137383	1.686136
H155	H	1.397710	-0.279348	1.271325
H156	H	1.897710	0.220652	1.771325
H157	H	1.323874	-0.341514	1.276630
H158	H	1.823874	0.158486	1.776630
H159	H	1.323446	-0.275930	1.198318
H160	H	1.823446	0.224070	1.698318
H161	H	1.451350	-0.397366	1.225031
H162	H	1.951350	0.102634	1.725031
H163	H	1.450942	-0.331776	1.146715
H164	H	1.950942	0.168224	1.646715
C165	C	1.472620	-0.313550	1.052980
C166	C	1.972620	0.186450	1.552980
C167	C	1.425632	-0.353102	0.989018
C168	C	1.925632	0.146898	1.489018
H169	H	1.513487	-0.279150	1.023376
H170	H	2.013487	0.220850	1.523376
H171	H	1.504890	-0.352328	1.091577
H172	H	2.004890	0.147672	1.591577
H173	H	1.431346	-0.282336	1.087357
H174	H	1.931346	0.217664	1.587357
H175	H	1.466906	-0.384321	0.954645
H176	H	1.966906	0.115679	1.454645
H177	H	1.393360	-0.314318	0.950405
H178	H	1.893360	0.185682	1.450405
H179	H	1.140510	-0.593086	1.015557
H180	H	1.640510	-0.093086	1.515557
C181	C	1.152127	-0.583336	0.739224
C182	C	1.652127	-0.083336	1.239224
C183	C	1.134673	-0.598018	0.830858
C184	C	1.634673	-0.098018	1.330858
H185	H	1.114916	-0.614657	0.705106
H186	H	1.614916	-0.114657	1.205106
H187	H	1.213413	-0.597695	0.727324
H188	H	1.713413	-0.097695	1.227324
H189	H	1.139873	-0.527699	0.723096
H190	H	1.639873	-0.027699	1.223096
H191	H	1.146933	-0.653654	0.846988
H192	H	1.646933	-0.153654	1.346988
H193	H	1.073372	-0.583664	0.842764
H194	H	1.573372	-0.083664	1.342764
