data_functionalizedCrystal
_audit_creation_method	'MofGen! by Chris Wilmer'
_symmetry_space_group_name_H-M	'P1'
_symmetry_Int_Tables_number	1
_symmetry_cell_setting	triclinic
loop_
_symmetry_equiv_pos_as_xyz
  x,y,z
_cell_length_a	15.944551
_cell_length_b	19.288865
_cell_length_c	14.421503
_cell_angle_alpha	90.000044
_cell_angle_beta	90.003941
_cell_angle_gamma	83.317493
loop_
_atom_site_label
_atom_site_type_symbol
_atom_site_fract_x
_atom_site_fract_y
_atom_site_fract_z
O1	O	-1.114185	-0.089572	-0.077026
O2	O	-0.869593	-0.100616	-0.077050
O3	O	-0.998957	0.006018	-0.077019
O4	O	-0.984822	-0.196206	-0.077057
O5	O	-0.998933	0.006000	0.077204
O6	O	-0.869570	-0.100634	0.077173
O7	O	-1.114162	-0.089589	0.077198
Cu8	Cu	-0.991863	-0.095113	0.091267
Cu9	Cu	-0.991891	-0.095092	-0.091120
O10	O	-0.984798	-0.196223	0.077166
C11	C	-0.998490	0.031887	0.000095
C12	C	-0.997125	0.108994	0.000103
C13	C	-0.838289	-0.100167	0.000059
C14	C	-0.745048	-0.098792	0.000050
C15	C	-1.145466	-0.090039	0.000087
C16	C	-1.238706	-0.091414	0.000089
C17	C	-0.530459	-0.029410	0.000081
C18	C	-0.469326	-0.061620	-0.075965
C19	C	-0.574332	-0.096305	0.000061
C20	C	-0.469325	-0.061653	0.076087
C21	C	-0.409429	-0.093898	0.000077
C22	C	-0.514428	-0.128534	-0.076048
C23	C	-0.514433	-0.128558	0.076073
C24	C	-0.453318	-0.160816	0.000008
C25	C	-0.669329	-0.097690	0.000052
C26	C	-0.314433	-0.092519	0.000079
C27	C	-0.985265	-0.222092	0.000050
C28	C	-0.986630	-0.299199	0.000036
N29	N	-0.991850	-0.095128	0.219548
C30	C	-1.073030	0.153490	0.000116
C31	C	-1.071747	0.225941	0.000101
C32	C	-0.994555	0.253891	0.000092
C33	C	-0.918641	0.209385	0.000075
C34	C	-0.919925	0.136936	0.000081
C35	C	-0.933865	0.362332	0.054108
C36	C	-0.932584	0.434780	0.054108
C37	C	-0.990589	0.477347	0.000071
C38	C	-1.049891	0.447459	-0.053953
C39	C	-1.051176	0.375011	-0.053948
C40	C	-0.993153	0.332449	0.000086
C41	C	-1.065108	0.600403	0.000066
C42	C	-1.063822	0.672855	0.000046
C43	C	-0.910714	0.656298	0.000029
C44	C	-0.912002	0.583848	0.000040
C45	C	-0.989201	0.555906	0.000063
C46	C	-0.932018	-0.144416	0.469188
C47	C	-1.007865	-0.157902	0.530995
C48	C	-0.991868	-0.095114	0.408710
C49	C	-0.916037	-0.081647	0.530996
C50	C	-0.991878	-0.095102	0.591431
C51	C	-1.067753	-0.108631	0.469156
C52	C	-0.975875	-0.032348	0.469152
C53	C	-1.051777	-0.045807	0.530932
C54	C	-0.991861	-0.095122	0.303449
C55	C	-0.991894	-0.095092	0.696690
N56	N	-0.991897	-0.095085	0.780599
H57	H	-0.564006	0.026108	-0.000002
H58	H	-0.858113	0.100707	0.000071
H59	H	-0.881458	-0.186143	0.442078
H60	H	-1.133560	0.262176	0.000107
H61	H	-0.886628	0.327679	0.098115
H62	H	-0.449338	-0.033354	0.140376
H63	H	-0.850192	0.547618	0.000036
H64	H	-0.855790	0.232147	0.000066
H65	H	-0.962314	0.020710	0.441967
H66	H	-1.135891	0.130744	0.000131
H67	H	-0.534446	-0.156836	0.140357
H68	H	-0.449335	-0.033318	-0.140247
H69	H	-1.021403	-0.210977	0.558159
H70	H	-1.099459	0.350679	-0.097938
H71	H	-0.847863	0.679055	0.000018
H72	H	-1.131900	-0.120079	0.442107
H73	H	-1.097124	0.482117	-0.097956
H74	H	-0.884293	0.459109	0.098092
H75	H	-1.127969	0.577652	0.000080
H76	H	-1.102450	-0.004106	0.557872
H77	H	-1.125636	0.709084	0.000050
H78	H	-0.851905	-0.070262	0.558163
H79	H	-0.534316	-0.156799	-0.140409
H80	H	-0.419945	-0.216391	-0.000045
