data_functionalizedCrystal
_audit_creation_method	'MofGen! by Chris Wilmer'
_symmetry_space_group_name_H-M	'P1'
_symmetry_Int_Tables_number	1
_symmetry_cell_setting	triclinic
loop_
_symmetry_equiv_pos_as_xyz
  x,y,z
_cell_length_a	16.109301
_cell_length_b	12.811415
_cell_length_c	15.186229
_cell_angle_alpha	84.565396
_cell_angle_beta	89.999362
_cell_angle_gamma	83.754001
loop_
_atom_site_label
_atom_site_type_symbol
_atom_site_fract_x
_atom_site_fract_y
_atom_site_fract_z
O1	O	1.103626	0.134912	-0.083945
O2	O	0.861626	0.151702	-0.085299
O3	O	0.988714	-0.009488	-0.072416
O4	O	0.976538	0.296101	-0.096828
O5	O	0.988706	-0.009490	0.074041
O6	O	0.861618	0.151699	0.061158
O7	O	1.103618	0.134910	0.062513
Zn8	Zn	0.982616	0.143304	0.085089
Zn9	Zn	0.982628	0.143307	-0.107875
O10	O	0.976530	0.296099	0.049629
C11	C	0.830645	0.151021	-0.012018
C12	C	0.738342	0.148982	-0.011861
C13	C	0.988028	-0.048593	0.003934
C14	C	0.985984	-0.165110	0.013236
C15	C	0.516404	0.239887	-0.019112
C16	C	0.429676	0.237963	-0.018953
C17	C	0.448847	0.046717	-0.003679
C18	C	0.535573	0.048642	-0.003832
C19	C	0.569349	0.145230	-0.011553
C20	C	0.395895	0.141381	-0.011241
C21	C	0.301862	0.139294	-0.011068
C22	C	0.663388	0.147318	-0.011725
C23	C	0.982139	-0.384045	-0.128971
C24	C	0.980219	-0.493523	-0.120235
C25	C	0.980218	-0.493547	0.039443
C26	C	0.982138	-0.384068	0.030707
C27	C	0.983100	-0.329321	-0.053502
C28	C	0.985026	-0.219842	-0.062237
C29	C	0.985019	-0.219866	0.097439
C30	C	0.983099	-0.329345	0.106175
C31	C	1.134600	0.135591	-0.010771
C32	C	1.226902	0.137630	-0.010934
C33	C	0.977216	0.335204	-0.026723
C34	C	0.979260	0.451722	-0.036031
N35	N	0.982615	0.143302	0.216781
N36	N	0.982636	0.143302	-0.239568
C37	C	1.038909	0.071951	0.448207
C38	C	1.038911	0.071949	0.540397
C39	C	0.926336	0.214656	0.529000
C40	C	0.926330	0.214652	0.436812
C41	C	0.982621	0.143301	0.396418
C42	C	0.982630	0.143302	0.580796
C43	C	0.982632	0.143300	0.680752
C44	C	0.982618	0.143302	0.296456
H45	H	0.543900	0.318535	-0.025393
Cl46	Cl	0.406380	-0.074701	0.006022
H47	H	0.979433	-0.538074	-0.181689
Cl48	Cl	0.983360	-0.315218	-0.234830
H49	H	0.880490	0.272755	0.394643
Cl50	Cl	0.978985	-0.562385	0.145297
H51	H	0.386571	0.315042	-0.025106
H52	H	0.985805	-0.175299	0.158891
H53	H	0.578684	-0.028443	0.002326
H54	H	0.880506	0.272750	0.561898
Cl55	Cl	0.981884	-0.398178	0.212032
H56	H	0.985811	-0.175269	-0.130805
Cl57	Cl	1.109672	-0.017752	0.397430
H58	H	1.084745	0.013848	0.582562
