data_functionalizedCrystal
_audit_creation_method	'MofGen! by Chris Wilmer'
_symmetry_space_group_name_H-M	'P1'
_symmetry_Int_Tables_number	1
_symmetry_cell_setting	triclinic
loop_
_symmetry_equiv_pos_as_xyz
  x,y,z
_cell_length_a	14.971491
_cell_length_b	14.044190
_cell_length_c	14.048226
_cell_angle_alpha	89.988942
_cell_angle_beta	89.991693
_cell_angle_gamma	88.404006
loop_
_atom_site_label
_atom_site_type_symbol
_atom_site_fract_x
_atom_site_fract_y
_atom_site_fract_z
O1	O	1.196681	0.123561	-0.079213
O2	O	0.937447	0.138350	-0.079207
O3	O	1.063170	-0.007033	-0.079191
O4	O	1.070958	0.268945	-0.079229
O5	O	1.063152	-0.007042	0.079130
O6	O	0.937430	0.138342	0.079114
O7	O	1.196664	0.123553	0.079109
Zn8	Zn	1.067044	0.130946	0.104248
Zn9	Zn	1.067067	0.130957	-0.104347
O10	O	1.070941	0.268937	0.079093
C11	C	0.904061	0.137684	-0.000045
C12	C	0.804608	0.135699	-0.000042
C13	C	0.376237	0.127140	-0.086364
C14	C	0.469684	0.129002	-0.086361
C15	C	0.516394	0.129934	-0.000057
C16	C	0.469653	0.128995	0.086250
C17	C	0.376208	0.127127	0.086245
C18	C	0.664422	0.132892	0.086253
C19	C	0.757873	0.134763	0.086257
C20	C	0.757898	0.134768	-0.086354
C21	C	0.664453	0.132899	-0.086358
C22	C	0.617718	0.131962	-0.000051
C23	C	1.059754	-0.042356	-0.000028
C24	C	1.049590	-0.147594	-0.000019
C25	C	1.103092	-0.397819	-0.000058
C26	C	1.031023	-0.340273	-0.000049
C27	C	1.041356	-0.233056	-0.000033
C28	C	1.092760	-0.505045	-0.000074
C29	C	1.230049	0.124219	-0.000055
C30	C	1.329502	0.126204	-0.000064
C31	C	1.074357	0.304259	-0.000073
C32	C	1.084521	0.409497	-0.000088
N33	N	1.067035	0.130938	0.246609
N34	N	1.067082	0.130958	-0.246708
C35	C	1.122726	0.066588	0.296434
C36	C	1.122732	0.066588	0.396092
C37	C	1.067051	0.130942	0.445922
C38	C	1.011354	0.195294	0.396090
C39	C	1.011344	0.195289	0.296435
C40	C	1.011380	0.195301	0.603805
C41	C	1.011391	0.195307	0.703467
C42	C	1.122769	0.066599	0.703462
C43	C	1.122759	0.066595	0.603806
C44	C	1.067062	0.130949	0.553981
H45	H	0.338212	0.126388	-0.156643
H46	H	0.961563	-0.371528	-0.000053
H47	H	1.172546	-0.366565	-0.000049
H48	H	0.507732	0.129758	-0.156635
H49	H	1.168072	0.014188	0.255868
H50	H	1.168080	0.014189	0.436659
H51	H	0.626373	0.132141	0.156533
H52	H	0.338158	0.126374	0.156520
H53	H	0.626424	0.132146	-0.156634
H54	H	1.168103	0.014198	0.563234
H55	H	1.168118	0.014200	0.744035
H56	H	0.966023	0.247702	0.563240
H57	H	0.795954	0.135532	-0.156628
H58	H	0.795902	0.135527	0.156534
H59	H	0.966048	0.247710	0.744034
H60	H	0.966012	0.247689	0.436668
H61	H	0.965993	0.247688	0.255868
H62	H	0.507692	0.129749	0.156520
