data_functionalizedCrystal
_audit_creation_method	'MofGen! by Chris Wilmer'
_symmetry_space_group_name_H-M	'P1'
_symmetry_Int_Tables_number	1
_symmetry_cell_setting	triclinic
loop_
_symmetry_equiv_pos_as_xyz
  x,y,z
_cell_length_a	19.121275
_cell_length_b	19.121063
_cell_length_c	16.120297
_cell_angle_alpha	95.179432
_cell_angle_beta	95.437698
_cell_angle_gamma	89.926756
loop_
_atom_site_label
_atom_site_type_symbol
_atom_site_fract_x
_atom_site_fract_y
_atom_site_fract_z
Zn1	Zn	1.040429	-0.342623	-0.435980
Zn2	Zn	1.041284	-0.454395	-0.302176
Zn3	Zn	0.929166	-0.332161	-0.301693
Zn4	Zn	0.917630	-0.455309	-0.447854
O5	O	0.982127	-0.396122	-0.371926
O6	O	1.138856	-0.361446	-0.413463
O7	O	1.031596	-0.433420	-0.184946
O8	O	0.948395	-0.235233	-0.314335
O9	O	1.139484	-0.443565	-0.315158
O10	O	1.030139	-0.242920	-0.412995
O11	O	0.949224	-0.343615	-0.184591
O12	O	0.829322	-0.344500	-0.325849
O13	O	0.928735	-0.445121	-0.563445
O14	O	0.820847	-0.434977	-0.433233
O15	O	1.018954	-0.362331	-0.554721
O16	O	1.020411	-0.552832	-0.326672
O17	O	0.929563	-0.553503	-0.433701
C18	C	0.799593	-0.388703	-0.380777
C19	C	0.721502	-0.385547	-0.384585
C20	C	0.973847	-0.578661	-0.381544
C21	C	0.970367	-0.656755	-0.385684
C22	C	0.685146	-0.426742	-0.335108
C23	C	0.611771	-0.423778	-0.338697
C24	C	0.574754	-0.379613	-0.391758
C25	C	0.611115	-0.338415	-0.441241
C26	C	0.684489	-0.341384	-0.437656
C27	C	0.353197	-0.368516	-0.405151
C28	C	0.279819	-0.365549	-0.408730
C29	C	0.280480	-0.450912	-0.306187
C30	C	0.353855	-0.453874	-0.302603
C31	C	0.390210	-0.412680	-0.352089
C32	C	0.499753	-0.376579	-0.395426
C33	C	0.465209	-0.415717	-0.348425
C34	C	1.016065	-0.693075	-0.331948
C35	C	1.012796	-0.766453	-0.335846
C36	C	0.963826	-0.803511	-0.393477
C37	C	0.918127	-0.767186	-0.447220
C38	C	0.921399	-0.693809	-0.443325
C39	C	0.951581	-1.025080	-0.408027
C40	C	0.948311	-1.098462	-0.411916
C41	C	1.042982	-1.097724	-0.300542
C42	C	1.046247	-1.024346	-0.296649
C43	C	1.000550	-0.988028	-0.350395
C44	C	0.960483	-0.878515	-0.397462
C45	C	1.003897	-0.913025	-0.346414
C46	C	1.165374	-0.403570	-0.363040
C47	C	1.243463	-0.406744	-0.359253
C48	C	0.972462	-0.404995	-0.590312
C49	C	0.968344	-0.408776	-0.683376
C50	C	0.990458	-0.212872	-0.362287
C51	C	0.994009	-0.134782	-0.358179
C52	C	0.960799	-0.415663	-0.853764
C53	C	1.003603	-0.376375	-0.890921
C54	C	0.999405	-0.380207	-0.985731
C55	C	0.964996	-0.411832	-0.758946
C56	C	0.991797	-0.387234	-0.154384
C57	C	0.996061	-0.383260	-0.061304
H58	H	0.715280	-0.462703	-0.291896
C59	C	0.907035	-0.464988	-0.906979
N60	N	0.866541	-0.502138	-0.947071
H61	H	0.920610	-0.908695	-0.444384
H62	H	0.714089	-0.307838	-0.477945
C63	C	1.057376	-0.327053	-0.837705
N64	N	1.097878	-0.289908	-0.797619
H65	H	1.050008	-0.796021	-0.292087
C66	C	0.571783	-0.469088	-0.284257
N67	N	0.541665	-0.503215	-0.243248
C68	C	0.240484	-0.496228	-0.251762
N69	N	0.210358	-0.530364	-0.210770
H70	H	1.080187	-1.127302	-0.256787
C71	C	0.239102	-0.316965	-0.467109
N72	N	0.208433	-0.280374	-0.511077
C73	C	1.100101	-0.983586	-0.233229
N74	N	1.140657	-0.952886	-0.185451
H75	H	0.383989	-0.489837	-0.259393
H76	H	1.055939	-0.662907	-0.285014
C77	C	0.393179	-0.323191	-0.459576
N78	N	0.423295	-0.289047	-0.500569
C79	C	1.057762	-0.872259	-0.283019
N80	N	1.098330	-0.841548	-0.235267
H81	H	0.914371	-0.995516	-0.451787
C82	C	0.570395	-0.289824	-0.499598
N83	N	0.539725	-0.253218	-0.543547
H84	H	0.495351	-0.451679	-0.305226
H85	H	0.908441	-1.128633	-0.458860
C86	C	0.864256	-0.807952	-0.510613
N87	N	0.823678	-0.838655	-0.558358
H88	H	0.469606	-0.340619	-0.438628
H89	H	0.884188	-0.664238	-0.487084
