data_functionalizedCrystal
_audit_creation_method	'MofGen! by Chris Wilmer'
_symmetry_space_group_name_H-M	'P1'
_symmetry_Int_Tables_number	1
_symmetry_cell_setting	triclinic
loop_
_symmetry_equiv_pos_as_xyz
  x,y,z
_cell_length_a	17.077404
_cell_length_b	17.640280
_cell_length_c	17.077396
_cell_angle_alpha	78.774396
_cell_angle_beta	89.980499
_cell_angle_gamma	78.800538
loop_
_atom_site_label
_atom_site_type_symbol
_atom_site_fract_x
_atom_site_fract_y
_atom_site_fract_z
Zn1	Zn	1.263288	-0.314659	-0.380745
Zn2	Zn	1.289758	-0.446839	-0.222973
Zn3	Zn	1.132026	-0.314687	-0.249487
Zn4	Zn	1.158541	-0.446792	-0.354206
O5	O	1.210903	-0.380744	-0.301853
O6	O	1.376648	-0.332201	-0.359827
O7	O	1.268815	-0.429340	-0.116637
O8	O	1.127263	-0.204078	-0.289102
O9	O	1.396095	-0.429313	-0.243912
O10	O	1.223701	-0.204058	-0.385536
O11	O	1.152930	-0.332248	-0.136117
O12	O	1.025694	-0.332203	-0.263368
O13	O	1.172456	-0.429233	-0.467580
O14	O	1.045176	-0.429260	-0.340305
O15	O	1.249413	-0.332155	-0.487078
O16	O	1.294527	-0.557437	-0.218179
O17	O	1.198122	-0.557403	-0.314595
C18	C	1.006953	-0.380730	-0.301834
C19	C	0.919705	-0.380743	-0.301841
C20	C	1.252095	-0.586099	-0.260647
C21	C	1.269789	-0.673950	-0.243045
C22	C	0.888895	-0.431357	-0.341806
C23	C	0.806915	-0.431359	-0.341818
C24	C	0.755747	-0.380750	-0.301860
C25	C	0.786562	-0.330130	-0.261894
C26	C	0.868540	-0.330125	-0.261887
C27	C	0.615696	-0.330146	-0.261910
C28	C	0.533712	-0.330151	-0.261915
C29	C	0.554070	-0.431379	-0.341841
C30	C	0.636048	-0.431374	-0.341834
C31	C	0.666858	-0.380755	-0.301866
C32	C	1.076806	-0.962931	-0.435857
C33	C	1.093434	-1.045481	-0.419293
C34	C	1.193882	-1.045451	-0.318996
C35	C	1.177265	-0.962900	-0.335555
C36	C	1.118726	-0.921646	-0.393986
C37	C	1.219185	-0.921615	-0.293683
C38	C	1.202567	-0.839070	-0.310238
C39	C	1.144029	-0.797811	-0.368665
C40	C	1.102108	-0.839101	-0.410541
C41	C	1.277721	-0.962870	-0.235249
C42	C	1.319640	-0.921585	-0.193377
C43	C	1.303026	-0.839039	-0.209936
C44	C	1.244488	-0.797780	-0.268362
C45	C	1.344947	-0.797748	-0.168060
C46	C	1.328329	-0.715204	-0.184615
C47	C	1.227870	-0.715235	-0.284917
C48	C	1.415651	-0.380759	-0.301872
C49	C	1.502902	-0.380765	-0.301880
C50	C	1.210939	-0.380686	-0.506609
C51	C	1.210954	-0.380661	-0.593864
C52	C	1.169572	-0.174588	-0.343237
C53	C	1.151959	-0.086736	-0.360872
C54	C	1.251027	-0.330109	-0.645009
C55	C	1.251031	-0.330082	-0.726995
C56	C	1.210967	-0.380613	-0.757833
C57	C	1.170889	-0.431168	-0.706682
C58	C	1.170881	-0.431190	-0.624699
C59	C	1.170911	-0.431120	-0.877562
C60	C	1.170921	-0.431100	-0.959550
C61	C	1.251062	-0.330013	-0.979858
C62	C	1.251053	-0.330035	-0.897874
C63	C	1.210977	-0.380591	-0.846729
C64	C	1.210901	-0.380745	-0.097905
C65	C	1.210993	-0.380547	-0.010695
H66	H	0.930551	-0.472571	-0.374341
C67	C	0.902431	-0.274447	-0.217920
N68	N	0.927956	-0.232508	-0.184805
H69	H	1.392604	-0.831350	-0.120480
C70	C	1.295116	-0.274472	-0.783251
N71	N	1.328322	-0.232583	-0.825623
C72	C	0.773031	-0.487053	-0.385765
N73	N	0.747511	-0.529010	-0.418862
H74	H	1.362464	-0.681589	-0.150517
C75	C	1.295100	-0.274519	-0.611095
N76	N	1.328295	-0.232644	-0.585554
H77	H	1.180207	-0.681645	-0.332503
C78	C	1.125748	-0.707009	-0.386876
N79	N	1.111981	-0.638617	-0.400593
H80	H	1.054445	-0.805511	-0.458127
C81	C	1.295146	-0.274400	-1.036119
N82	N	1.328351	-0.232516	-1.078499
C83	C	1.012399	-0.917547	-0.500124
N84	N	0.963884	-0.883364	-0.548522
C85	C	0.520177	-0.487057	-0.385810
N86	N	0.494646	-0.528993	-0.418925
C87	C	1.126843	-0.486682	-0.993472
N88	N	1.093641	-0.528545	-1.019021
H89	H	1.138262	-0.472276	-0.835923
H90	H	1.059303	-1.079092	-0.453404
C91	C	0.477428	-0.274476	-0.217963
N92	N	0.435035	-0.232540	-0.184858
H93	H	1.241543	-1.079051	-0.271419
C94	C	0.649584	-0.274464	-0.217941
N95	N	0.675110	-0.232529	-0.184820
C96	C	1.384029	-0.966973	-0.129102
N97	N	1.432528	-1.001159	-0.080689
C98	C	1.296002	-1.053672	-0.217042
N99	N	1.309774	-1.122064	-0.203332
H100	H	1.283682	-0.288892	-0.872768
C101	C	1.126809	-0.486745	-0.740609
N102	N	1.093607	-0.528606	-0.766162
C103	C	1.126800	-0.486803	-0.568439
N104	N	1.093595	-0.528691	-0.526065
H105	H	0.677708	-0.472589	-0.374366
H106	H	0.744895	-0.288920	-0.229364
