data_functionalizedCrystal
_audit_creation_method	'MofGen! by Chris Wilmer'
_symmetry_space_group_name_H-M	'P1'
_symmetry_Int_Tables_number	1
_symmetry_cell_setting	triclinic
loop_
_symmetry_equiv_pos_as_xyz
  x,y,z
_cell_length_a	14.560432
_cell_length_b	20.875492
_cell_length_c	20.875685
_cell_angle_alpha	60.167326
_cell_angle_beta	92.969908
_cell_angle_gamma	58.317631
loop_
_atom_site_label
_atom_site_type_symbol
_atom_site_fract_x
_atom_site_fract_y
_atom_site_fract_z
Zr1	Zr	0.820593	0.740629	-0.122736
O2	O	0.655298	0.881795	-0.232513
O3	O	0.878921	0.599466	-0.083985
O4	O	0.857943	0.740630	-0.225158
O5	O	0.684116	0.740629	0.014219
O6	O	1.009084	0.740628	-0.225155
O7	O	0.676276	0.740631	-0.091341
O8	O	1.046611	0.488111	0.027377
O9	O	0.646589	0.993146	-0.238313
O10	O	1.007343	0.657526	-0.073616
O11	O	0.900399	0.657527	0.005160
O12	O	0.875699	0.823729	-0.161052
O13	O	0.768755	0.823730	-0.082276
Zr14	Zr	1.074150	0.740624	0.045624
Zr15	Zr	1.061646	0.740626	-0.122732
Zr16	Zr	0.833097	0.740627	0.045620
Zr17	Zr	0.806704	0.918222	-0.131986
Zr18	Zr	1.088039	0.563032	0.054874
O19	O	1.015822	0.881788	0.006873
O20	O	0.998044	0.881791	-0.232507
O21	O	0.673076	0.881792	0.006867
O22	O	1.239446	0.599459	0.155401
O23	O	1.221667	0.599462	-0.083979
O24	O	0.896700	0.599463	0.155395
O25	O	1.210627	0.740624	-0.091331
O26	O	1.036801	0.740624	0.148046
O27	O	0.885659	0.740625	0.148043
O28	O	1.218467	0.740623	0.014229
O29	O	0.838194	0.993144	-0.238309
O30	O	1.056549	0.488110	0.161197
O31	O	1.248154	0.488107	0.161201
O32	O	1.238216	0.488109	0.027381
O33	O	0.656527	0.993145	-0.104493
O34	O	0.848132	0.993142	-0.104489
O35	O	1.019044	0.657524	0.083940
O36	O	1.125989	0.657524	0.005164
O37	O	0.994345	0.823727	-0.082272
O38	O	0.887400	0.823727	-0.003496
C39	C	0.964745	0.518486	-0.026986
C40	C	0.970641	0.443093	-0.023059
C41	C	0.881024	0.469041	-0.082579
C42	C	0.886565	0.398215	-0.078917
C43	C	0.981719	0.301441	-0.015733
C44	C	1.071345	0.275493	0.043789
C45	C	1.065808	0.346319	0.040124
C46	C	1.008190	0.083038	0.001805
C47	C	1.013719	0.012213	0.005467
C48	C	0.828939	0.134939	-0.117241
C49	C	0.823406	0.205761	-0.120898
C50	C	0.913036	0.179807	-0.061378
N51	N	0.987383	0.229044	-0.011988
N52	N	0.907375	0.252204	-0.065128
C53	C	0.645851	0.740631	-0.038562
C54	C	0.543518	0.740632	-0.038564
C55	C	0.534854	0.740645	-0.154882
C56	C	0.482445	0.740655	-0.213041
C57	C	0.386295	0.740655	-0.213038
C58	C	0.342556	0.740642	-0.154869
C59	C	0.394965	0.740632	-0.096710
C60	C	0.491114	0.740635	-0.096720
C61	C	0.403634	0.740612	0.019611
C62	C	0.499779	0.740619	0.019606
C63	C	0.359895	0.740599	0.077780
C64	C	0.412299	0.740596	0.135937
C65	C	0.508453	0.740597	0.135931
C66	C	0.552188	0.740609	0.077765
C67	C	1.248892	0.740623	-0.038550
C68	C	1.351225	0.740622	-0.038548
C69	C	0.931732	0.740629	-0.249143
C70	C	0.926424	0.740630	-0.320615
C71	C	0.929998	0.962768	-0.050126
C72	C	0.924102	1.038161	-0.054052
C73	C	0.887555	0.740622	-0.722915
C74	C	0.892557	0.740618	-0.655759
C75	C	0.978319	0.740623	-0.622189
C76	C	1.059092	0.740621	-0.655774
C77	C	1.054095	0.740618	-0.722926
C78	C	1.002199	0.740626	-0.421351
C79	C	1.007188	0.740632	-0.354197
C80	C	0.840654	0.740627	-0.354185
C81	C	0.835659	0.740630	-0.421341
C82	C	0.916436	0.740623	-0.454917
N83	N	0.983432	0.740622	-0.553546
N84	N	0.911328	0.740617	-0.523556
C85	C	0.963011	0.740624	0.172031
C86	C	0.968320	0.740623	0.243503
C87	C	1.266265	0.518482	-0.026981
C88	C	1.374495	0.443088	-0.023052
C89	C	0.980385	0.518483	0.183601
C90	C	0.991589	0.443089	0.258999
C91	C	1.281905	0.518479	0.183607
C92	C	1.395443	0.443084	0.259007
C93	C	0.612838	0.962774	-0.260719
C94	C	0.499300	1.038169	-0.336119
C95	C	0.628478	0.962772	-0.050131
C96	C	0.520248	1.038166	-0.054060
C97	C	0.914358	0.962771	-0.260713
C98	C	0.903154	1.038164	-0.336111
C99	C	1.363388	0.407683	-0.062337
C100	C	1.465070	0.336853	-0.058661
C101	C	1.577859	0.301423	-0.015696
C102	C	1.588963	0.336834	0.023589
C103	C	1.487281	0.407669	0.019909
C104	C	1.058783	0.407682	0.335536
C105	C	1.069307	0.336852	0.406387
C106	C	1.012642	0.301425	0.400698
C107	C	0.945439	0.336839	0.324153
C108	C	0.934910	0.407673	0.253304
C109	C	1.504595	0.407678	0.253295
C110	C	1.611284	0.336846	0.324134
C111	C	1.608818	0.301418	0.400685
C112	C	1.499654	0.336831	0.406395
C113	C	1.392967	0.407666	0.335556
C114	C	0.390147	1.073584	-0.330407
C115	C	0.283457	1.144438	-0.401248
C116	C	0.285922	1.179870	-0.477799
C117	C	0.395087	1.144452	-0.483508
C118	C	0.501775	1.073605	-0.412669
C119	C	0.531354	1.073578	-0.014783
C120	C	0.429669	1.144428	-0.018478
C121	C	0.316880	1.179860	-0.061445
C122	C	0.305777	1.144445	-0.100727
C123	C	0.407460	1.073601	-0.097037
C124	C	0.959834	1.073569	-0.330396
C125	C	0.949329	1.144400	-0.401234
C126	C	0.882137	1.179830	-0.477786
C127	C	0.825456	1.144418	-0.483498
C128	C	0.835968	1.073584	-0.412661
H129	H	1.091208	-0.066589	0.056923
H130	H	0.398401	1.044771	-0.129019
O131	O	1.132386	0.740747	-0.755686
C132	C	1.069195	0.823183	-0.837891
H133	H	0.974384	0.850664	-0.862407
H134	H	1.115612	0.804639	-0.875358
H135	H	1.066492	0.880906	-0.842383
O136	O	0.177359	1.178813	-0.395790
C137	C	0.116869	1.161496	-0.431260
H138	H	0.150853	1.152700	-0.476581
H139	H	0.017199	1.224415	-0.464340
H140	H	0.133640	1.093371	-0.381544
O141	O	0.218060	1.248800	-0.065168
C142	C	0.141435	1.330752	-0.147247
H143	H	0.195067	1.330660	-0.185141
H144	H	0.097212	1.397702	-0.151557
H145	H	0.070067	1.330166	-0.171412
H146	H	1.456006	0.308029	-0.090653
O147	O	1.497997	0.442196	0.057952
C148	C	1.434203	0.541464	0.000014
H149	H	1.423629	0.560883	-0.062961
H150	H	1.484937	0.561810	0.016795
H151	H	1.342461	0.581968	-0.000640
H152	H	0.774890	0.740631	-0.326840
O153	O	0.369633	0.740624	0.192357
C154	C	0.273559	0.740591	0.179906
H155	H	0.232840	0.770728	0.114074
H156	H	0.203179	0.786790	0.192746
H157	H	0.306969	0.664232	0.222831
H158	H	0.995486	1.173224	-0.396567
H159	H	0.199042	1.237559	-0.535474
O160	O	0.872061	1.248523	-0.546611
C161	C	0.918215	1.213926	-0.589818
H162	H	0.983846	1.132363	-0.546154
H163	H	0.965953	1.241748	-0.618461
H164	H	0.842170	1.239689	-0.639778
H165	H	0.770748	1.173276	-0.545836
O166	O	1.142413	0.740533	-0.623036
C167	C	1.215606	0.658116	-0.540825
H168	H	1.165865	0.630598	-0.516292
H169	H	1.239611	0.676700	-0.503379
H170	H	1.300526	0.600406	-0.536325
H171	H	0.397080	1.173311	-0.545844
O172	O	0.196297	1.178785	-0.142520
C173	C	0.208283	1.132323	-0.176380
H174	H	0.295747	1.103135	-0.183020
H175	H	0.130708	1.185469	-0.238874
H176	H	0.208086	1.070797	-0.134627
O177	O	1.090572	0.740520	-0.321495
C178	C	1.205384	0.658132	-0.294485
H179	H	1.201056	0.600463	-0.282639
H180	H	1.268220	0.630533	-0.235750
H181	H	1.239718	0.676779	-0.343223
H182	H	1.660645	0.243744	-0.012705
H183	H	1.304096	0.436485	0.340218
H184	H	1.067969	0.740623	-0.448686
H185	H	0.899306	0.307984	0.319534
H186	H	0.438733	1.173251	0.013514
O187	O	1.253919	0.442017	-0.104141
C188	C	1.265947	0.395553	-0.138006
H189	H	1.353427	0.366366	-0.144625
H190	H	1.188395	0.448698	-0.200511
H191	H	1.265744	0.334026	-0.096268
H192	H	1.138784	0.325185	0.088591
O193	O	1.507116	0.441897	0.178976
C194	C	1.571662	0.366270	0.174342
H195	H	1.634810	0.295429	0.238495
H196	H	1.625305	0.376950	0.138412
H197	H	1.507066	0.365277	0.142371
O198	O	1.095321	0.057658	0.059708
C199	C	1.180502	-0.042944	0.116250
H200	H	1.137969	-0.075441	0.115156
H201	H	1.213790	-0.065407	0.180004
H202	H	1.258627	-0.069332	0.099312
H203	H	1.124033	0.308026	0.468706
H204	H	1.497664	0.307974	0.468731
O205	O	1.163670	0.181444	0.105131
C206	C	1.149357	0.124494	0.095595
H207	H	1.051326	0.167549	0.057650
H208	H	1.180732	0.058381	0.158074
H209	H	1.204436	0.101499	0.063352
O210	O	0.869644	0.441920	0.179024
C211	C	0.821875	0.395470	0.189206
H212	H	0.878125	0.323678	0.252880
H213	H	0.822433	0.383240	0.141694
H214	H	0.726442	0.441929	0.181277
O215	O	1.717230	0.302622	0.318462
C216	C	1.720543	0.378229	0.273094
H217	H	1.625684	0.449087	0.232354
H218	H	1.768956	0.367560	0.233715
H219	H	1.769667	0.379180	0.316527
H220	H	0.590649	1.044771	-0.417328
O221	O	0.780774	1.039338	-0.418366
C222	C	0.719241	1.085791	-0.501124
H223	H	0.699337	1.157583	-0.540664
H224	H	0.632047	1.098022	-0.511138
H225	H	0.776578	1.039333	-0.518491
O226	O	0.752244	0.740789	-0.454066
C227	C	0.679100	0.823203	-0.536281
H228	H	0.682214	0.880821	-0.546357
H229	H	0.583484	0.850866	-0.551597
H230	H	0.712454	0.804566	-0.577370
O231	O	1.025198	1.039234	-0.256102
C232	C	1.072943	1.085697	-0.266266
H233	H	1.077864	1.114886	-0.327713
H234	H	1.166208	1.032552	-0.215335
H235	H	1.013369	1.147224	-0.263969
H236	H	0.803528	0.547836	-0.134022
H237	H	0.813588	0.419351	-0.127384
O238	O	0.628271	0.740611	-0.154982
C239	C	0.655615	0.740654	-0.218807
H240	H	0.621624	0.710525	-0.235889
H241	H	0.756276	0.694454	-0.198042
H242	H	0.611060	0.817015	-0.274097
H243	H	0.745936	0.284556	-0.172360
O244	O	0.525025	0.740500	-0.269472
C245	C	0.564157	0.658090	-0.261510
H246	H	0.585897	0.600469	-0.197173
H247	H	0.647338	0.630428	-0.273343
H248	H	0.490883	0.676732	-0.307575
H249	H	1.695698	0.243739	0.458360
O250	O	0.266604	0.740453	0.077758
C251	C	0.297452	0.658010	0.089227
H252	H	0.372116	0.630551	0.069729
H253	H	0.216338	0.676537	0.050874
H254	H	0.328843	0.600278	0.156352
O255	O	1.698623	0.302274	0.065322
C256	C	1.785973	0.232176	0.060126
H257	H	1.749771	0.201219	0.046583
H258	H	1.869035	0.172562	0.120466
H259	H	1.809746	0.266063	0.009130
H260	H	0.388117	1.044739	-0.268082
H261	H	1.104929	0.436519	0.340183
H262	H	1.021225	0.243748	0.458395
O263	O	0.640860	1.039150	0.027073
C264	C	0.662361	0.998160	0.109481
H265	H	0.573803	1.030166	0.114539
H266	H	0.713592	1.013695	0.133861
H267	H	0.717074	0.917477	0.146679
O268	O	0.741865	0.160034	-0.174949
C269	C	0.686478	0.122747	-0.137433
H270	H	0.749842	0.058852	-0.070590
H271	H	0.663184	0.098925	-0.169613
H272	H	0.601622	0.180313	-0.141757
H273	H	0.264275	0.740630	-0.154864
O274	O	0.335182	0.740791	-0.269558
C275	C	0.214024	0.823232	-0.316407
H276	H	0.181619	0.850707	-0.280365
H277	H	0.159259	0.804698	-0.331263
H278	H	0.203221	0.880956	-0.375474
O279	O	0.559185	0.740765	0.192350
C280	C	0.473020	0.823177	0.184384
H281	H	0.398417	0.880789	0.120050
H282	H	0.516291	0.850852	0.196201
H283	H	0.434677	0.804533	0.230458
O284	O	0.645566	0.740646	0.077854
C285	C	0.682474	0.740604	0.141675
H286	H	0.605655	0.770735	0.158764
H287	H	0.710474	0.786802	0.120902
H288	H	0.761135	0.664243	0.196963
O289	O	0.804205	0.740573	-0.755399
C290	C	0.733978	0.740591	-0.711365
H291	H	0.785819	0.710466	-0.647649
H292	H	0.710908	0.694375	-0.706446
H293	H	0.648420	0.816944	-0.744392
H294	H	0.826793	0.740616	-0.628416
