data_functionalizedCrystal
_audit_creation_method	'MofGen! by Chris Wilmer'
_symmetry_space_group_name_H-M	'P1'
_symmetry_Int_Tables_number	1
_symmetry_cell_setting	triclinic
loop_
_symmetry_equiv_pos_as_xyz
  x,y,z
_cell_length_a	10.540539
_cell_length_b	9.065218
_cell_length_c	7.540329
_cell_angle_alpha	90.003038
_cell_angle_beta	89.998539
_cell_angle_gamma	95.229312
loop_
_atom_site_label
_atom_site_type_symbol
_atom_site_fract_x
_atom_site_fract_y
_atom_site_fract_z
O1	O	0.186143	-1.959469	-0.147478
O2	O	0.201412	-1.530108	-0.147479
O3	O	0.009107	-1.754584	-0.147476
O4	O	0.378448	-1.734993	-0.147481
O5	O	0.009105	-1.754570	0.147489
O6	O	0.201409	-1.530094	0.147486
O7	O	0.186141	-1.959455	0.147487
Cu8	Cu	0.193775	-1.744773	0.174419
Cu9	Cu	0.193778	-1.744789	-0.174411
O10	O	0.378445	-1.734979	0.147484
C11	C	0.199943	-1.475122	0.000003
C12	C	0.195556	-1.311301	0.000002
N13	N	0.193772	-1.744773	0.419768
C14	C	-0.038202	-1.753108	0.000003
C15	C	-0.179167	-1.748712	-0.000007
C16	C	-0.363216	-1.580278	-0.000669
C17	C	-0.216582	-1.584734	-0.000005
C18	C	-0.240534	-1.827618	0.168433
C19	C	-0.387099	-1.822022	0.168575
C20	C	-0.387602	-1.825372	-0.166855
C21	C	-0.240615	-1.826883	-0.169082
C22	C	0.425755	-1.736455	0.000001
C23	C	0.566719	-1.740851	-0.000001
C24	C	0.187610	-2.014441	0.000001
C25	C	0.191997	-2.178262	-0.000009
N26	N	0.193771	-1.744801	-0.419760
H27	H	-0.174207	-1.522646	-0.120750
H28	H	-0.199969	-1.769148	-0.293689
F29	F	-0.403441	-1.495728	0.155897
H30	H	-0.419350	-1.772306	-0.294522
H31	H	-0.175058	-1.522200	0.120940
F32	F	-0.448758	-1.980181	-0.168340
H33	H	-0.392055	-1.515508	-0.121460
F34	F	-0.424245	-1.745779	0.333146
F35	F	-0.210736	-1.985018	0.176626
F36	F	-0.449231	-1.976161	0.178583
F37	F	-0.185124	-1.755962	0.332275
F38	F	-0.208372	-1.983146	-0.182388
