data_functionalizedCrystal
_audit_creation_method	'MofGen! by Chris Wilmer'
_symmetry_space_group_name_H-M	'P1'
_symmetry_Int_Tables_number	1
_symmetry_cell_setting	triclinic
loop_
_symmetry_equiv_pos_as_xyz
  x,y,z
_cell_length_a	13.897449
_cell_length_b	13.897447
_cell_length_c	13.897449
_cell_angle_alpha	90.008998
_cell_angle_beta	90.008641
_cell_angle_gamma	90.020357
loop_
_atom_site_label
_atom_site_type_symbol
_atom_site_fract_x
_atom_site_fract_y
_atom_site_fract_z
Zn1	Zn	1.474550	-0.384156	0.545458
Zn2	Zn	1.807883	-0.050823	0.878791
Zn3	Zn	2.141216	0.282510	1.212124
Zn4	Zn	1.474480	-0.545421	0.384163
Zn5	Zn	1.807814	-0.212088	0.717496
Zn6	Zn	2.141147	0.121246	1.050830
Zn7	Zn	1.313280	-0.384144	0.384169
Zn8	Zn	1.646614	-0.050810	0.717502
Zn9	Zn	1.979947	0.282523	1.050835
Zn10	Zn	1.313216	-0.545413	0.545408
Zn11	Zn	1.646549	-0.212080	0.878741
Zn12	Zn	1.979882	0.121253	1.212075
O13	O	1.393882	-0.464784	0.464799
O14	O	1.727215	-0.131450	0.798133
O15	O	2.060548	0.201883	1.131466
O16	O	1.609522	-0.405557	0.524080
O17	O	1.942856	-0.072224	0.857413
O18	O	2.276189	0.261110	1.190747
O19	O	1.453095	-0.524025	0.249182
O20	O	1.786428	-0.190692	0.582515
O21	O	2.119761	0.142642	0.915849
O22	O	1.334730	-0.249164	0.405587
O23	O	1.668063	0.084169	0.738921
O24	O	2.001396	0.417503	1.072254
O25	O	1.609471	-0.524037	0.405577
O26	O	1.942804	-0.190704	0.738911
O27	O	2.276138	0.142630	1.072244
O28	O	1.453213	-0.249173	0.524086
O29	O	1.786547	0.084160	0.857419
O30	O	2.119880	0.417494	1.190752
O31	O	1.334662	-0.405535	0.249186
O32	O	1.667995	-0.072202	0.582520
O33	O	2.001329	0.261131	0.915853
O34	O	1.178290	-0.405528	0.405539
O35	O	1.511624	-0.072195	0.738872
O36	O	1.844957	0.261138	1.072206
O37	O	1.334619	-0.524025	0.680396
O38	O	1.667952	-0.190691	1.013729
O39	O	2.001285	0.142642	1.347063
O40	O	1.178243	-0.524012	0.524001
O41	O	1.511576	-0.190679	0.857334
O42	O	1.844909	0.142654	1.190667
O43	O	1.453150	-0.405550	0.680433
O44	O	1.786484	-0.072216	1.013766
O45	O	2.119817	0.261117	1.347099
O46	O	1.453032	-0.680402	0.405529
O47	O	1.786365	-0.347068	0.738862
O48	O	2.119698	-0.013735	1.072196
O49	O	1.334551	-0.680396	0.523995
O50	O	1.667885	-0.347063	0.857328
O51	O	2.001218	-0.013729	1.190662
C52	C	1.143267	-0.464769	0.464766
C53	C	1.476601	-0.131435	0.798099
C54	C	1.809934	0.201898	1.131432
C55	C	1.036053	-0.464786	0.464774
C56	C	1.369387	-0.131452	0.798108
C57	C	1.702720	0.201881	1.131441
C58	C	0.948983	-0.464789	0.464790
C59	C	1.282317	-0.131456	0.798124
C60	C	1.615650	0.201878	1.131457
C61	C	0.839751	-0.464796	0.464820
C62	C	1.173084	-0.131462	0.798153
C63	C	1.506418	0.201871	1.131486
C64	C	1.393803	-0.715398	0.464777
C65	C	1.727136	-0.382065	0.798110
C66	C	2.060470	-0.048731	1.131444
C67	C	1.393858	-0.822612	0.464800
C68	C	1.727191	-0.489279	0.798133
C69	C	2.060524	-0.155945	1.131466
C70	C	1.393904	-0.909682	0.464822
C71	C	1.727238	-0.576348	0.798155
C72	C	2.060571	-0.243015	1.131488
C73	C	1.393972	-1.018914	0.464846
C74	C	1.727305	-0.685581	0.798180
C75	C	2.060639	-0.352247	1.131513
C76	C	1.645474	-0.464799	0.464834
C77	C	1.978808	-0.131466	0.798167
C78	C	2.312141	0.201867	1.131500
C79	C	1.752688	-0.464806	0.464848
C80	C	2.086022	-0.131473	0.798182
C81	C	2.419355	0.201861	1.131515
C82	C	1.393885	-0.464788	0.716392
C83	C	1.727218	-0.131454	1.049726
C84	C	2.060552	0.201879	1.383059
C85	C	1.393887	-0.464789	0.823606
C86	C	1.727220	-0.131456	1.156939
C87	C	2.060553	0.201877	1.490273
C88	C	1.393987	-0.213191	0.464843
C89	C	1.727320	0.120143	0.798176
C90	C	2.060653	0.453476	1.131510
C91	C	1.394031	-0.105977	0.464861
C92	C	1.727365	0.227357	0.798195
C93	C	2.060698	0.560690	1.131528
C94	C	1.393862	-0.464794	1.019901
C95	C	1.727196	-0.131460	1.353235
C96	C	2.060529	0.201873	1.686568
C97	C	1.393873	-0.464794	0.910669
C98	C	1.727206	-0.131461	1.244002
C99	C	2.060540	0.201873	1.577335
C100	C	1.393869	-0.464799	1.214185
C101	C	1.727202	-0.131466	1.547518
C102	C	2.060535	0.201867	1.880852
C103	C	1.393861	-0.464791	1.106971
C104	C	1.727194	-0.131458	1.440304
C105	C	2.060528	0.201875	1.773638
