data_functionalizedCrystal
_audit_creation_method	'MofGen! by Chris Wilmer'
_symmetry_space_group_name_H-M	'P1'
_symmetry_Int_Tables_number	1
_symmetry_cell_setting	triclinic
loop_
_symmetry_equiv_pos_as_xyz
  x,y,z
_cell_length_a	9.065218
_cell_length_b	15.021413
_cell_length_c	9.065215
_cell_angle_alpha	90.007501
_cell_angle_beta	94.984675
_cell_angle_gamma	90.007503
loop_
_atom_site_label
_atom_site_type_symbol
_atom_site_fract_x
_atom_site_fract_y
_atom_site_fract_z
O1	O	1.960407	0.074027	-0.216338
O2	O	2.293741	0.407360	0.116996
O3	O	2.627074	0.740693	0.450329
O4	O	1.531122	0.074027	-0.234084
O5	O	1.864456	0.407361	0.099249
O6	O	2.197789	0.740694	0.432583
O7	O	1.754640	0.074029	-0.010568
O8	O	2.087974	0.407362	0.322765
O9	O	2.421307	0.740695	0.656099
O10	O	1.736890	0.074025	-0.439853
O11	O	2.070223	0.407359	-0.106520
O12	O	2.403556	0.740692	0.226813
O13	O	1.754605	-0.074035	-0.010600
O14	O	2.087938	0.259298	0.322733
O15	O	2.421271	0.592631	0.656067
O16	O	1.531087	-0.074037	-0.234116
O17	O	1.864420	0.259297	0.099217
O18	O	2.197753	0.592630	0.432551
O19	O	1.960372	-0.074037	-0.216369
O20	O	2.293705	0.259296	0.116964
O21	O	2.627038	0.592629	0.450297
Zn22	Zn	1.745724	-0.097546	-0.225248
Zn23	Zn	2.079057	0.235788	0.108086
Zn24	Zn	2.412390	0.569121	0.441419
Zn25	Zn	1.745771	0.097535	-0.225206
Zn26	Zn	2.079104	0.430869	0.108128
Zn27	Zn	2.412437	0.764202	0.441461
O28	O	1.736854	-0.074039	-0.439885
O29	O	2.070187	0.259294	-0.106552
O30	O	2.403521	0.592628	0.226781
C31	C	1.476118	-0.000005	-0.232394
C32	C	1.809451	0.333329	0.100939
C33	C	2.142785	0.666662	0.434272
C34	C	1.312275	-0.000004	-0.227295
C35	C	1.645608	0.333329	0.106039
C36	C	1.978942	0.666663	0.439372
N37	N	1.745702	-0.230683	-0.225276
N38	N	2.079036	0.102650	0.108058
N39	N	2.412369	0.435984	0.441391
C40	C	1.642331	-0.470367	-0.328580
C41	C	1.975664	-0.137034	0.004753
C42	C	2.308998	0.196300	0.338087
C43	C	1.776045	-0.529702	-0.359000
C44	C	2.109378	-0.196369	-0.025667
C45	C	2.442712	0.136965	0.307666
C46	C	1.745740	-0.412290	-0.225239
C47	C	2.079073	-0.078957	0.108094
C48	C	2.412406	0.254377	0.441427
C49	C	1.612062	-0.529697	-0.194852
C50	C	1.945396	-0.196363	0.138481
C51	C	2.278729	0.136970	0.471815
C52	C	1.745764	-0.587714	-0.225207
C53	C	2.079097	-0.254381	0.108126
C54	C	2.412430	0.078953	0.441459
C55	C	1.879522	-0.470319	-0.255727
C56	C	2.212855	-0.136985	0.077606
C57	C	2.546188	0.196348	0.410940
C58	C	1.715450	-0.470308	-0.091520
C59	C	2.048784	-0.136975	0.241814
C60	C	2.382117	0.196359	0.575147
C61	C	1.849260	-0.529616	-0.121885
C62	C	2.182593	-0.196283	0.211449
C63	C	2.515927	0.137050	0.544782
C64	C	1.745724	-0.311233	-0.225261
C65	C	2.079057	0.022101	0.108072
C66	C	2.412390	0.355434	0.441405
C67	C	1.745795	-0.688769	-0.225184
C68	C	2.079128	-0.355436	0.108149
C69	C	2.412462	-0.022103	0.441482
C70	C	2.015376	-0.000004	-0.218059
C71	C	2.348710	0.333330	0.115274
C72	C	2.682043	0.666663	0.448608
C73	C	2.179219	0.000002	-0.223159
C74	C	2.512552	0.333335	0.110175
C75	C	2.845886	0.666668	0.443508
C76	C	1.752917	-0.000001	0.044403
C77	C	2.086251	0.333332	0.377736
C78	C	2.419584	0.666666	0.711069
C79	C	1.747819	0.000006	0.208246
C80	C	2.081153	0.333339	0.541579
C81	C	2.414486	0.666673	0.874912
N82	N	1.745803	0.230673	-0.225166
N83	N	2.079137	0.564006	0.108167
N84	N	2.412470	0.897340	0.441500
C85	C	1.738577	-0.000001	0.505144
C86	C	2.071910	0.333333	0.838477
C87	C	2.405243	0.666666	1.171811
C88	C	1.743674	0.000018	0.341301
C89	C	2.077008	0.333351	0.674634
C90	C	2.410341	0.666684	1.007967
H91	H	1.554972	-0.444352	-0.416045
H92	H	1.888305	-0.111019	-0.082711
H93	H	2.221639	0.222315	0.250622
H94	H	1.992607	-0.444346	-0.281550
H95	H	2.325940	-0.111013	0.051784
H96	H	2.659274	0.222321	0.385117
H97	H	1.801686	-0.555790	-0.472070
H98	H	2.135019	-0.222457	-0.138737
H99	H	2.468352	0.110877	0.194596
H100	H	1.936816	-0.555468	-0.034475
H101	H	2.270150	-0.222135	0.298858
H102	H	2.603483	0.111199	0.632191
N103	N	1.681424	-0.435718	0.058202
N104	N	2.014758	-0.102385	0.391535
N105	N	2.348091	0.230949	0.724868
H106	H	1.682633	-0.368487	0.057344
H107	H	2.015966	-0.035154	0.390677
H108	H	2.349300	0.298179	0.724010
H109	H	1.758497	-0.458272	0.136443
H110	H	2.091831	-0.124939	0.469776
H111	H	2.425164	0.208394	0.803109
N112	N	1.462313	-0.564245	-0.160796
N113	N	1.795646	-0.230911	0.172537
N114	N	2.128980	0.102422	0.505870
H115	H	1.463707	-0.631475	-0.160084
H116	H	1.797041	-0.298142	0.173250
H117	H	2.130374	0.035191	0.506583
H118	H	1.384355	-0.542631	-0.238960
H119	H	1.717688	-0.209298	0.094373
H120	H	2.051022	0.124036	0.427707
