data_functionalizedCrystal
_audit_creation_method	'MofGen! by Chris Wilmer'
_symmetry_space_group_name_H-M	'P1'
_symmetry_Int_Tables_number	1
_symmetry_cell_setting	triclinic
loop_
_symmetry_equiv_pos_as_xyz
  x,y,z
_cell_length_a	19.188933
_cell_length_b	19.188930
_cell_length_c	9.616153
_cell_angle_alpha	89.992615
_cell_angle_beta	89.994560
_cell_angle_gamma	83.145175
loop_
_atom_site_label
_atom_site_type_symbol
_atom_site_fract_x
_atom_site_fract_y
_atom_site_fract_z
O1	O	0.926147	0.087171	-0.115615
O2	O	1.426147	0.587171	0.384385
O3	O	0.722836	0.098904	-0.115630
O4	O	1.222836	0.598904	0.384370
O5	O	0.830358	-0.008618	-0.115595
O6	O	1.330358	0.491382	0.384405
O7	O	0.818624	0.194693	-0.115650
O8	O	1.318624	0.694693	0.384350
O9	O	0.830344	-0.008616	0.115697
O10	O	1.330344	0.491384	0.615697
O11	O	0.722821	0.098906	0.115662
O12	O	1.222821	0.598906	0.615662
O13	O	0.926132	0.087174	0.115677
O14	O	1.426132	0.587174	0.615677
Zn15	Zn	0.824474	0.093040	0.152392
Zn16	Zn	1.324474	0.593040	0.652392
Zn17	Zn	0.824493	0.093037	-0.152345
Zn18	Zn	1.324493	0.593037	0.347655
O19	O	0.818609	0.194696	0.115641
O20	O	1.318609	0.694696	0.615641
C21	C	0.696817	0.098525	0.000014
C22	C	1.196817	0.598525	0.500014
C23	C	0.619313	0.097384	0.000010
C24	C	1.119313	0.597384	0.500010
C25	C	0.066065	0.089237	-0.126050
C26	C	0.566065	0.589237	0.373950
C27	C	0.138890	0.090305	-0.126056
C28	C	0.638890	0.590305	0.373944
C29	C	0.175299	0.090844	0.000021
C30	C	0.675299	0.590844	0.500021
C31	C	0.138880	0.090296	0.126112
C32	C	0.638880	0.590296	0.626112
C33	C	0.066058	0.089221	0.126114
C34	C	0.566058	0.589221	0.626114
N35	N	0.284313	0.132264	0.093854
N36	N	0.784313	0.632264	0.593854
N37	N	0.353490	0.133286	0.093843
N38	N	0.853490	0.633286	0.593843
C39	C	0.394707	0.094082	0.000022
C40	C	0.894707	0.594082	0.500022
N41	N	0.364132	0.053825	-0.093809
N42	N	0.864132	0.553825	0.406191
N43	N	0.294948	0.052805	-0.093803
N44	N	0.794948	0.552805	0.406197
C45	C	0.254262	0.092009	0.000032
C46	C	0.754262	0.592009	0.500032
C47	C	0.510082	0.095783	-0.126067
C48	C	1.010082	0.595783	0.373933
C49	C	0.582909	0.096846	-0.126068
C50	C	1.082909	0.596846	0.373932
C51	C	0.582896	0.096845	0.126104
C52	C	1.082896	0.596845	0.626104
C53	C	0.510073	0.095774	0.126100
C54	C	1.010073	0.595774	0.626100
C55	C	0.473669	0.095246	0.000011
C56	C	0.973669	0.595246	0.500011
C57	C	0.829971	-0.034628	0.000055
C58	C	1.329971	0.465372	0.500055
C59	C	0.828830	-0.112132	0.000067
C60	C	1.328830	0.387868	0.500067
C61	C	0.891921	-0.157056	0.000078
C62	C	1.391921	0.342944	0.500078
C63	C	0.890849	-0.229880	0.000056
C64	C	1.390849	0.270120	0.500056
C65	C	0.826683	-0.257777	0.000050
C66	C	1.326683	0.242223	0.500050
C67	C	0.763584	-0.212843	0.000031
C68	C	1.263584	0.287157	0.500031
C69	C	0.764658	-0.140021	0.000039
C70	C	1.264658	0.359979	0.500039
N71	N	0.777631	-0.365781	0.078759
N72	N	1.277631	0.134219	0.578759
N73	N	0.776616	-0.434960	0.078754
N74	N	1.276616	0.065040	0.578754
C75	C	0.823445	-0.477185	0.000022
C76	C	1.323445	0.022815	0.500022
N77	N	0.871339	-0.447620	-0.078688
N78	N	1.371339	0.052380	0.421312
N79	N	0.872357	-0.378436	-0.078677
N80	N	1.372357	0.121564	0.421323
C81	C	0.825512	-0.336739	0.000040
C82	C	1.325512	0.163261	0.500040
C83	C	0.885378	-0.601073	0.000007
C84	C	1.385378	-0.101073	0.500007
C85	C	0.884304	-0.673898	-0.000024
C86	C	1.384304	-0.173898	0.499976
C87	C	0.757037	-0.656860	-0.000035
C88	C	1.257037	-0.156860	0.499965
C89	C	0.758113	-0.584037	-0.000018
C90	C	1.258113	-0.084037	0.499982
C91	C	0.822286	-0.556148	0.000009
C92	C	1.322286	-0.056148	0.500009
C93	C	0.952150	0.087553	0.000029
C94	C	1.452150	0.587553	0.500029
C95	C	1.029655	0.088694	0.000025
C96	C	1.529655	0.588694	0.500025
C97	C	0.818997	0.220705	-0.000011
C98	C	1.318997	0.720705	0.499989
C99	C	0.820137	0.298210	-0.000032
C100	C	1.320137	0.798210	0.499968
N101	N	0.824466	0.093042	0.360366
N102	N	1.324466	0.593042	0.860366
N103	N	0.824507	0.093030	-0.360319
N104	N	1.324507	0.593030	0.139681
C105	C	0.766777	0.150371	0.580717
C106	C	1.266777	0.650371	1.080717
C107	C	0.766900	0.150581	0.419550
C108	C	1.266900	0.650581	0.919550
C109	C	0.897271	0.108733	0.418816
C110	C	1.397271	0.608733	0.918816
C111	C	0.896955	0.109138	0.580033
C112	C	1.396955	0.609138	1.080033
C113	C	0.810079	0.019828	0.580296
C114	C	1.310079	0.519828	1.080296
C115	C	0.808398	0.020324	0.419069
C116	C	1.308398	0.520324	0.919069
H117	H	0.480442	0.095351	-0.228737
H118	H	0.980442	0.595351	0.271263
H119	H	0.168540	0.090752	-0.228724
H120	H	0.668540	0.590752	0.271276
H121	H	0.612540	0.097280	0.228757
H122	H	1.112540	0.597280	0.728757
H123	H	0.942227	-0.266463	0.000059
H124	H	1.442227	0.233537	0.500059
O125	O	0.947773	-0.574093	-0.000053
O126	O	1.447773	-0.074093	0.499947
C127	C	1.003231	-0.629364	-0.000033
C128	C	1.503231	-0.129364	0.499967
H129	H	0.983812	-0.678773	-0.043825
H130	H	1.483812	-0.178773	0.456175
H131	H	1.048045	-0.614274	-0.067187
H132	H	1.548045	-0.114274	0.432813
H133	H	1.022682	-0.639738	0.110926
H134	H	1.522682	-0.139738	0.610926
H135	H	0.944175	-0.134354	0.000096
H136	H	1.444175	0.365646	0.500096
O137	O	0.748063	0.001857	0.628690
O138	O	1.248063	0.501857	1.128690
C139	C	0.693008	0.053009	0.587622
C140	C	1.193008	0.553009	1.087622
H141	H	0.709824	0.082024	0.492155
H142	H	1.209824	0.582024	0.992155
H143	H	0.644606	0.026431	0.561373
H144	H	1.144606	0.526431	1.061373
H145	H	0.680076	0.091935	0.676126
H146	H	1.180076	0.591935	1.176126
O147	O	0.777485	0.214818	0.629163
O148	O	1.277485	0.714818	1.129163
C149	C	0.718178	0.243748	0.705261
C150	C	1.218178	0.743748	1.205261
H151	H	0.688138	0.199744	0.743924
H152	H	1.188138	0.699744	1.243924
H153	H	0.735788	0.274309	0.797926
H154	H	1.235788	0.774309	1.297926
H155	H	0.682652	0.280584	0.635469
H156	H	1.182652	0.780584	1.135469
O157	O	0.701297	-0.240022	-0.000158
O158	O	1.201297	0.259978	0.499842
C159	C	0.696871	-0.281614	-0.119966
C160	C	1.196871	0.218386	0.380034
H161	H	0.751960	-0.299915	-0.159894
H162	H	1.251960	0.200085	0.340106
H163	H	0.669184	-0.329220	-0.093031
H164	H	1.169184	0.170780	0.406969
H165	H	0.665890	-0.249340	-0.203849
H166	H	1.165890	0.250660	0.296151
H167	H	0.847727	-0.024327	0.378789
H168	H	1.347727	0.475673	0.878789
H169	H	0.910324	0.161504	0.378412
H170	H	1.410324	0.661504	0.878412
H171	H	0.704792	-0.679573	-0.000047
H172	H	1.204792	-0.179573	0.499953
H173	H	0.754843	0.008411	0.380869
H174	H	1.254843	0.508411	0.880869
H175	H	0.612554	0.097284	-0.228737
H176	H	1.112554	0.597284	0.271263
O177	O	0.474802	0.095287	0.248695
O178	O	0.974802	0.595287	0.748695
C179	C	0.522552	0.095974	0.359976
C180	C	1.022552	0.595974	0.859976
H181	H	0.571506	0.118839	0.323009
H182	H	1.071506	0.618839	0.823009
H183	H	0.496971	0.129553	0.448149
H184	H	0.996971	0.629553	0.948149
H185	H	0.537792	0.040087	0.398756
H186	H	1.037792	0.540087	0.898756
O187	O	0.703304	-0.096478	0.000097
O188	O	1.203304	0.403522	0.500097
C189	C	0.646437	-0.136712	0.000044
C190	C	1.146437	0.363288	0.500044
H191	H	0.664321	-0.191124	0.043823
H192	H	1.164321	0.308876	0.543823
H193	H	0.602239	-0.109720	0.067193
H194	H	1.102239	0.390280	0.567193
H195	H	0.626766	-0.141824	-0.110923
H196	H	1.126766	0.358176	0.389077
O197	O	0.777775	0.215446	0.373666
O198	O	1.277775	0.715446	0.873666
C199	C	0.723684	0.265509	0.423072
C200	C	1.223684	0.765509	0.923072
H201	H	0.699211	0.244302	0.519959
H202	H	1.199211	0.744302	1.019959
H203	H	0.746275	0.316143	0.449990
H204	H	1.246275	0.816143	0.949990
H205	H	0.681826	0.276563	0.339221
H206	H	1.181826	0.776563	0.839221
O207	O	0.945576	-0.717567	-0.000266
O208	O	1.445576	-0.217567	0.499734
C209	C	0.948769	-0.760197	-0.120047
C210	C	1.448769	-0.260197	0.379953
H211	H	0.912991	-0.733409	-0.203774
H212	H	1.412991	-0.233409	0.296226
H213	H	1.005039	-0.768550	-0.160243
H214	H	1.505039	-0.268550	0.339757
H215	H	0.930859	-0.813104	-0.092984
H216	H	1.430859	-0.313104	0.407016
H217	H	0.036412	0.088781	0.228783
H218	H	0.536412	0.588781	0.728783
H219	H	0.909703	0.162517	0.617608
H220	H	1.409703	0.662517	1.117608
O221	O	0.696762	-0.540494	0.000050
O222	O	1.196762	-0.040494	0.500050
C223	C	0.639895	-0.580729	0.000006
C224	C	1.139895	-0.080729	0.500006
H225	H	0.657781	-0.635140	0.043787
H226	H	1.157781	-0.135140	0.543787
H227	H	0.595699	-0.553737	0.067157
H228	H	1.095699	-0.053737	0.567157
H229	H	0.620222	-0.585843	-0.110959
H230	H	1.120222	-0.085843	0.389041
O231	O	0.860339	-0.030997	0.625961
O232	O	1.360339	0.469003	1.125961
C233	C	0.908350	-0.000599	0.711105
C234	C	1.408350	0.499401	1.211105
H235	H	0.882085	0.051140	0.755136
H236	H	1.382085	0.551140	1.255136
H237	H	0.925732	-0.037884	0.800171
H238	H	1.425732	0.462116	1.300171
H239	H	0.956054	0.009528	0.646860
H240	H	1.456054	0.509528	1.146860
H241	H	0.712776	0.141265	0.380034
H242	H	1.212776	0.641265	0.880034
H243	H	0.712482	0.141210	0.619528
H244	H	1.212482	0.641210	1.119528
H245	H	0.941243	0.069009	0.619035
H246	H	1.441243	0.569009	1.119035
O247	O	0.949653	0.060190	0.372903
O248	O	1.449653	0.560190	0.872903
C249	C	0.921167	0.011163	0.287085
C250	C	1.421167	0.511163	0.787085
H251	H	0.868800	0.035823	0.243040
H252	H	1.368800	0.535823	0.743040
H253	H	0.958971	-0.004746	0.198046
H254	H	1.458971	0.495254	0.698046
H255	H	0.912695	-0.037231	0.350769
H256	H	1.412695	0.462769	0.850769
H257	H	0.036431	0.088805	-0.228722
H258	H	0.536431	0.588805	0.271278
H259	H	0.168529	0.090734	0.228764
H260	H	0.668529	0.590734	0.728764
