data_functionalizedCrystal
_audit_creation_method	'MofGen! by Chris Wilmer'
_symmetry_space_group_name_H-M	'P1'
_symmetry_Int_Tables_number	1
_symmetry_cell_setting	triclinic
loop_
_symmetry_equiv_pos_as_xyz
  x,y,z
_cell_length_a	10.654550
_cell_length_b	10.967829
_cell_length_c	9.130313
_cell_angle_alpha	77.867600
_cell_angle_beta	89.999724
_cell_angle_gamma	84.600697
loop_
_atom_site_label
_atom_site_type_symbol
_atom_site_fract_x
_atom_site_fract_y
_atom_site_fract_z
O1	O	1.667815	0.175277	-0.165926
O2	O	1.302334	0.191977	-0.170167
O3	O	1.493503	0.002049	-0.122210
O4	O	1.476646	0.365205	-0.213883
O5	O	1.493490	0.002044	0.121390
O6	O	1.302321	0.191971	0.073433
O7	O	1.667802	0.175272	0.077674
Cu8	Cu	1.485060	0.183621	0.097796
Cu9	Cu	1.485076	0.183628	-0.190289
O10	O	1.476633	0.365199	0.029717
C11	C	1.255530	0.190748	-0.048061
C12	C	1.116087	0.187079	-0.047146
C13	C	1.492269	-0.044454	0.011325
C14	C	1.488596	-0.183011	0.046291
C15	C	1.036586	0.298905	-0.075370
C16	C	0.905566	0.295451	-0.074473
C17	C	0.933560	0.068335	-0.017130
C18	C	1.064578	0.071790	-0.018017
C19	C	1.486966	-0.244775	-0.064314
C20	C	1.483170	-0.387980	-0.028177
C21	C	1.714606	0.176501	-0.044435
C22	C	1.854049	0.180169	-0.045361
C23	C	1.477867	0.411702	-0.103821
C24	C	1.481540	0.550259	-0.138797
N25	N	1.485058	0.183616	0.300420
N26	N	1.485087	0.183623	-0.392911
C27	C	1.569737	0.099552	0.398298
C28	C	1.569749	0.099552	0.551635
C29	C	1.400400	0.267691	0.509199
C30	C	1.400383	0.267684	0.355867
H31	H	0.840840	0.386511	-0.097453
H32	H	1.331461	0.336139	0.554359
H33	H	1.481748	-0.441115	0.093277
C34	C	1.481209	-0.462518	-0.398117
C35	C	1.483445	-0.378024	-0.302761
H36	H	1.482378	-0.418240	-0.499339
H37	H	1.552970	-0.522178	-0.377609
H38	H	1.406749	-0.504424	-0.382088
H39	H	1.557910	-0.336125	-0.318782
H40	H	1.411677	-0.318342	-0.323278
C41	C	1.483280	-0.382716	0.214307
C42	C	1.486675	-0.254735	0.210244
H43	H	1.482098	-0.426991	0.315529
H44	H	1.409617	-0.395092	0.162833
H45	H	1.555838	-0.412864	0.167335
H46	H	1.414113	-0.224585	0.257207
H47	H	1.560346	-0.242351	0.261740
C48	C	1.737120	-0.066656	0.455654
C49	C	1.662798	0.007133	0.337352
H50	H	1.794565	-0.123719	0.418030
H51	H	1.782745	-0.014290	0.502222
H52	H	1.684449	-0.112020	0.526929
H53	H	1.715468	0.052504	0.266083
H54	H	1.617170	-0.045240	0.290761
H55	H	1.638700	0.031098	0.631326
H56	H	1.331422	0.336139	0.276168
H57	H	1.078520	0.392781	-0.099077
H58	H	0.891605	-0.025530	0.006595
H59	H	1.129312	-0.019278	0.004972
H60	H	1.488375	-0.191633	-0.185759
