data_functionalizedCrystal
_audit_creation_method	'MofGen! by Chris Wilmer'
_symmetry_space_group_name_H-M	'P1'
_symmetry_Int_Tables_number	1
_symmetry_cell_setting	triclinic
loop_
_symmetry_equiv_pos_as_xyz
  x,y,z
_cell_length_a	6.817900
_cell_length_b	10.773894
_cell_length_c	11.168129
_cell_angle_alpha	95.441129
_cell_angle_beta	108.508637
_cell_angle_gamma	96.645922
loop_
_atom_site_label
_atom_site_type_symbol
_atom_site_fract_x
_atom_site_fract_y
_atom_site_fract_z
V1	V	-3.973865	-0.388955	-0.170065
O2	O	-3.936042	-0.381539	0.012947
O3	O	-3.951080	-0.386305	-0.341802
O4	O	-3.890836	-0.558586	-0.165354
O5	O	-3.996704	-0.208066	-0.164722
V6	V	-4.458661	-0.367318	-0.148422
O7	O	-4.232331	-0.436417	-0.217540
O8	O	-4.650393	-0.319855	-0.100947
O9	O	-4.258240	-0.369967	0.023315
O10	O	-4.613882	-0.374733	-0.331433
O11	O	-4.553220	-0.548207	-0.153764
O12	O	-4.318484	-0.197686	-0.153133
C13	C	-3.803433	-0.380172	-0.383733
C14	C	-3.865860	-0.379137	-0.524116
C15	C	-3.874844	-0.270109	-0.570863
C16	C	-3.939364	-0.269036	-0.715957
C17	C	-3.726584	-0.599932	-0.158654
C18	C	-3.740151	-0.738607	-0.155939
C19	C	-3.918928	-0.806470	-0.160645
C20	C	-3.932954	-0.949797	-0.157838
C21	C	-4.069231	-0.376097	0.065240
C22	C	-3.986041	-0.377140	0.205622
C23	C	-4.146080	-0.156334	-0.159836
C24	C	-4.111751	-0.017658	-0.162545
H25	H	-3.978237	-0.470489	-0.754124
O26	O	-3.744198	-1.013461	-0.150291
H27	H	-3.611194	-0.941977	-0.147460
H28	H	-3.834780	-0.177561	-0.503468
H29	H	-4.254441	-0.969655	-0.168657
O30	O	-3.551013	-0.802005	-0.147993
H31	H	-3.507841	-0.847798	-0.060274
H32	H	-3.947149	-0.175692	-0.756218
H33	H	-3.905941	-0.471685	-0.591512
H34	H	-4.061597	-0.758458	-0.166743
