data_functionalizedCrystal
_audit_creation_method	'MofGen! by Chris Wilmer'
_symmetry_space_group_name_H-M	'P1'
_symmetry_Int_Tables_number	1
_symmetry_cell_setting	triclinic
loop_
_symmetry_equiv_pos_as_xyz
  x,y,z
_cell_length_a	16.959455
_cell_length_b	21.295417
_cell_length_c	16.959447
_cell_angle_alpha	89.964725
_cell_angle_beta	89.977004
_cell_angle_gamma	90.027526
loop_
_atom_site_label
_atom_site_type_symbol
_atom_site_fract_x
_atom_site_fract_y
_atom_site_fract_z
Zn1	Zn	1.208347	-0.250646	-0.447010
Zn2	Zn	1.541680	0.082687	-0.113676
Zn3	Zn	1.875014	0.416020	0.219657
Zn4	Zn	1.208239	-0.355923	-0.314820
Zn5	Zn	1.541573	-0.022590	0.018514
Zn6	Zn	1.874906	0.310744	0.351847
Zn7	Zn	1.076169	-0.250666	-0.314833
Zn8	Zn	1.409503	0.082667	0.018500
Zn9	Zn	1.742836	0.416000	0.351834
Zn10	Zn	1.076116	-0.355876	-0.446944
Zn11	Zn	1.409449	-0.022543	-0.113611
Zn12	Zn	1.742783	0.310791	0.219722
O13	O	1.142218	-0.303278	-0.380902
O14	O	1.475551	0.030055	-0.047568
O15	O	1.808885	0.363389	0.285765
O16	O	1.318944	-0.264623	-0.429496
O17	O	1.652277	0.068711	-0.096163
O18	O	1.985610	0.402044	0.237171
O19	O	1.190697	-0.341989	-0.204211
O20	O	1.524031	-0.008655	0.129123
O21	O	1.857364	0.324678	0.462456
O22	O	1.093770	-0.162574	-0.332399
O23	O	1.427104	0.170759	0.000934
O24	O	1.760437	0.504092	0.334267
O25	O	1.318864	-0.341969	-0.332377
O26	O	1.652198	-0.008636	0.000957
O27	O	1.985531	0.324697	0.334290
O28	O	1.190881	-0.162560	-0.429509
O29	O	1.524214	0.170774	-0.096176
O30	O	1.857547	0.504107	0.237158
O31	O	1.093666	-0.264657	-0.204220
O32	O	1.426999	0.068676	0.129113
O33	O	1.760333	0.402010	0.462446
O34	O	0.965551	-0.264611	-0.332336
O35	O	1.298885	0.068722	0.000997
O36	O	1.632218	0.402055	0.334330
O37	O	1.093679	-0.341889	-0.557564
O38	O	1.427013	-0.008556	-0.224231
O39	O	1.760346	0.324778	0.109103
O40	O	0.965512	-0.341908	-0.429398
O41	O	1.298846	-0.008575	-0.096065
O42	O	1.632179	0.324758	0.237269
O43	O	1.190829	-0.264577	-0.557612
O44	O	1.524162	0.068756	-0.224279
O45	O	1.857496	0.402090	0.109055
O46	O	1.190646	-0.444006	-0.332313
O47	O	1.523979	-0.110673	0.001020
O48	O	1.857312	0.222660	0.334353
O49	O	1.093575	-0.443972	-0.429385
O50	O	1.426908	-0.110638	-0.096052
O51	O	1.760242	0.222695	0.237282
C52	C	0.936852	-0.303257	-0.380862
C53	C	1.270185	0.030076	-0.047529
C54	C	1.603518	0.363409	0.285805
C55	C	0.848995	-0.303264	-0.380864
C56	C	1.182328	0.030070	-0.047530
C57	C	1.515662	0.363403	0.285803
C58	C	0.477468	-0.343512	-0.330306
C59	C	0.810801	-0.010179	0.003027
C60	C	1.144134	0.323154	0.336361
C61	C	0.477571	-0.263096	-0.431594
C62	C	0.810905	0.070237	-0.098260
C63	C	1.144238	0.403571	0.235073
C64	C	0.560117	-0.263085	-0.431574
C65	C	0.893450	0.070248	-0.098241
C66	C	1.226784	0.403581	0.235092
C67	C	0.601342	-0.303290	-0.380921
C68	C	0.934675	0.030044	-0.047588
C69	C	1.268009	0.363377	0.285746
C70	C	0.560021	-0.343505	-0.330287
C71	C	0.893355	-0.010171	0.003047
C72	C	1.226688	0.323162	0.336380
C73	C	0.601444	-0.222876	-0.482213
C74	C	0.934778	0.110457	-0.148880
C75	C	1.268111	0.443791	0.184453
C76	C	0.683995	-0.222864	-0.482197
C77	C	1.017329	0.110469	-0.148864
C78	C	1.350662	0.443802	0.184470
C79	C	0.725222	-0.263066	-0.431539
C80	C	1.058555	0.070267	-0.098205
C81	C	1.391888	0.403601	0.235128
C82	C	0.683896	-0.303282	-0.380902
C83	C	1.017229	0.030051	-0.047569
C84	C	1.350562	0.363385	0.285765
C85	C	0.725121	-0.343486	-0.330248
C86	C	1.058454	-0.010153	0.003085
C87	C	1.391787	0.323180	0.336418
C88	C	0.683796	-0.383700	-0.279607
C89	C	1.017129	-0.050366	0.053726
C90	C	1.350463	0.282967	0.387060
C91	C	0.601248	-0.383706	-0.279629
C92	C	0.934581	-0.050373	0.053705
C93	C	1.267914	0.282960	0.387038
C94	C	0.807770	-0.263059	-0.431517
C95	C	1.141103	0.070274	-0.098184
C96	C	1.474437	0.403607	0.235150
C97	C	0.807674	-0.343479	-0.330229
C98	C	1.141007	-0.010145	0.003104
C99	C	1.474341	0.323188	0.336437
C100	C	1.142114	-0.466830	-0.380858
C101	C	1.475448	-0.133496	-0.047525
C102	C	1.808781	0.199837	0.285809
C103	C	1.142142	-0.536798	-0.380866
C104	C	1.475476	-0.203464	-0.047532
C105	C	1.808809	0.129869	0.285801
C106	C	1.192732	-0.569661	-0.330372
C107	C	1.526065	-0.236328	0.002961
C108	C	1.859398	0.097005	0.336294
C109	C	1.192769	-0.635404	-0.330390
C110	C	1.526102	-0.302071	0.002943
C111	C	1.859435	0.031263	0.336277
C112	C	1.142202	-0.668280	-0.380893
C113	C	1.475536	-0.334947	-0.047560
C114	C	1.808869	-0.001614	0.285774
C115	C	1.091609	-0.635409	-0.431396
C116	C	1.424943	-0.302075	-0.098063
C117	C	1.758276	0.031258	0.235271
C118	C	1.091579	-0.569667	-0.431382
C119	C	1.424913	-0.236334	-0.098049
C120	C	1.758246	0.096999	0.235284
N121	N	1.073056	-0.771543	-0.386905
N122	N	1.406389	-0.438209	-0.053572
N123	N	1.739722	-0.104876	0.279761
N124	N	1.073087	-0.833994	-0.386914
N125	N	1.406420	-0.500661	-0.053580
N126	N	1.739753	-0.167328	0.279753
C127	C	1.142291	-0.866355	-0.380938
C128	C	1.475624	-0.533022	-0.047605
C129	C	1.808957	-0.199688	0.285728
N130	N	1.211465	-0.833905	-0.374939
N131	N	1.544798	-0.500571	-0.041605
N132	N	1.878131	-0.167238	0.291728
N133	N	1.211433	-0.771448	-0.374926
N134	N	1.544766	-0.438114	-0.041593
N135	N	1.878100	-0.104781	0.291740
C136	C	1.142230	-0.739566	-0.380914
C137	C	1.475563	-0.406232	-0.047580
C138	C	1.808896	-0.072899	0.285753
C139	C	1.192925	-0.970504	-0.330462
C140	C	1.526258	-0.637171	0.002872
C141	C	1.859591	-0.303837	0.336205
C142	C	1.192963	-1.036248	-0.330485
C143	C	1.526296	-0.702915	0.002848
C144	C	1.859630	-0.369581	0.336182
C145	C	1.091796	-1.036251	-0.431487
C146	C	1.425130	-0.702918	-0.098153
C147	C	1.758463	-0.369584	0.235180
C148	C	1.091765	-0.970509	-0.431467
C149	C	1.425098	-0.637175	-0.098134
C150	C	1.758432	-0.303842	0.235199
C151	C	1.142328	-0.937639	-0.380951
C152	C	1.475662	-0.604306	-0.047617
C153	C	1.808995	-0.270972	0.285716
C154	C	1.348386	-0.303299	-0.380942
C155	C	1.681719	0.030034	-0.047609
C156	C	2.015053	0.363368	0.285725
C157	C	1.436243	-0.303308	-0.380959
C158	C	1.769576	0.030025	-0.047626
C159	C	2.102909	0.363359	0.285707
C160	C	1.142260	-0.303226	-0.587070
C161	C	1.475594	0.030108	-0.253737
C162	C	1.808927	0.363441	0.079597
C163	C	1.142278	-0.303203	-0.674927
C164	C	1.475612	0.030130	-0.341593
C165	C	1.808945	0.363463	-0.008260
C166	C	1.142343	-0.139088	-0.380963
C167	C	1.475677	0.194246	-0.047630
C168	C	1.809010	0.527579	0.285704
C169	C	1.142397	-0.069120	-0.380989
C170	C	1.475730	0.264214	-0.047656
C171	C	1.809064	0.597547	0.285678
C172	C	1.091828	-0.262874	-1.046414
C173	C	1.425162	0.070459	-0.713081
C174	C	1.758495	0.403793	-0.379747
C175	C	1.192868	-0.343400	-1.046391
C176	C	1.526201	-0.010067	-0.713058
C177	C	1.859534	0.323266	-0.379724
C178	C	1.192854	-0.343415	-0.963845
C179	C	1.526187	-0.010082	-0.630512
C180	C	1.859521	0.323252	-0.297179
C181	C	1.142326	-0.303159	-0.922580
C182	C	1.475659	0.030174	-0.589246
C183	C	1.808992	0.363508	-0.255913
C184	C	1.091811	-0.262889	-0.963860
C185	C	1.425145	0.070445	-0.630527
C186	C	1.758478	0.403778	-0.297194
C187	C	1.243362	-0.383689	-0.922559
C188	C	1.576695	-0.050356	-0.589225
C189	C	1.910028	0.282978	-0.255892
C190	C	1.243349	-0.383706	-0.840008
C191	C	1.576683	-0.050373	-0.506674
C192	C	1.910016	0.282961	-0.173341
C193	C	1.192825	-0.343446	-0.798741
C194	C	1.526158	-0.010113	-0.465407
C195	C	1.859491	0.323220	-0.132074
C196	C	1.142309	-0.303174	-0.840026
C197	C	1.475642	0.030159	-0.506693
C198	C	1.808976	0.363493	-0.173360
C199	C	1.091781	-0.262918	-0.798761
C200	C	1.425114	0.070415	-0.465427
C201	C	1.758447	0.403749	-0.132094
C202	C	1.041268	-0.222642	-0.840045
C203	C	1.374602	0.110691	-0.506712
C204	C	1.707935	0.444025	-0.173378
C205	C	1.041287	-0.222629	-0.922593
C206	C	1.374620	0.110704	-0.589260
C207	C	1.707953	0.444037	-0.255927
C208	C	1.192806	-0.343459	-0.716192
C209	C	1.526140	-0.010126	-0.382859
C210	C	1.859473	0.323208	-0.049525
C211	C	1.091764	-0.262933	-0.716207
C212	C	1.425097	0.070400	-0.382874
C213	C	1.758431	0.403734	-0.049540
C214	C	1.142221	-0.303285	-0.175535
C215	C	1.475555	0.030049	0.157798
C216	C	1.808888	0.363382	0.491131
C217	C	1.142356	-0.303130	-0.087679
C218	C	1.475690	0.030204	0.245654
C219	C	1.809023	0.363537	0.578987
H220	H	0.717635	-0.190120	-0.523432
H221	H	1.050968	0.143213	-0.190099
H222	H	1.384301	0.476547	0.143235
H223	H	1.233938	-0.376247	-0.682582
H224	H	1.567272	-0.042914	-0.349249
H225	H	1.900605	0.290420	-0.015916
H226	H	1.050621	-0.230148	-0.682615
H227	H	1.383954	0.103185	-0.349281
H228	H	1.717287	0.436518	-0.015948
Br229	Br	1.023284	-0.208212	-1.102438
Br230	Br	1.356617	0.125122	-0.769105
Br231	Br	1.689951	0.458455	-0.435771
Br232	Br	1.261635	-1.080850	-0.261960
Br233	Br	1.594968	-0.747517	0.071373
Br234	Br	1.928301	-0.414184	0.404707
Br235	Br	0.545160	-0.438277	-0.210908
Br236	Br	0.878494	-0.104943	0.122425
Br237	Br	1.211827	0.228390	0.455759
Br238	Br	0.863616	-0.398039	-0.261475
Br239	Br	1.196949	-0.064706	0.071859
Br240	Br	1.530283	0.268627	0.405192
H241	H	1.233905	-0.542901	-0.289241
H242	H	1.567238	-0.209568	0.044093
H243	H	1.900572	0.123766	0.377426
H244	H	0.567873	-0.190148	-0.523458
H245	H	0.901206	0.143186	-0.190124
H246	H	1.234540	0.476519	0.143209
Br247	Br	1.022918	-0.525063	-0.499916
Br248	Br	1.356251	-0.191730	-0.166582
Br249	Br	1.689584	0.141604	0.166751
Br250	Br	0.972697	-0.168012	-0.784032
Br251	Br	1.306030	0.165322	-0.450699
Br252	Br	1.639363	0.498655	-0.117365
H253	H	0.444001	-0.230367	-0.472838
H254	H	0.777334	0.102967	-0.139504
H255	H	1.110668	0.436300	0.193829
Br256	Br	0.739754	-0.438267	-0.210873
Br257	Br	1.073087	-0.104933	0.122460
Br258	Br	1.406421	0.228400	0.455793
Br259	Br	0.421389	-0.398080	-0.261576
Br260	Br	0.754722	-0.064747	0.071758
Br261	Br	1.088055	0.268586	0.405091
Br262	Br	1.261429	-0.398038	-1.102394
Br263	Br	1.594762	-0.064705	-0.769061
Br264	Br	1.928095	0.268629	-0.435728
Br265	Br	0.863850	-0.208494	-0.500245
Br266	Br	1.197184	0.124839	-0.166911
Br267	Br	1.530517	0.458173	0.166422
H268	H	1.233968	-0.662167	-0.289273
H269	H	1.567301	-0.328833	0.044061
H270	H	1.900634	0.004500	0.377394
Br271	Br	1.022989	-0.680024	-0.499942
Br272	Br	1.356322	-0.346691	-0.166609
Br273	Br	1.689655	-0.013358	0.166724
Br274	Br	1.261541	-0.925892	-0.261903
Br275	Br	1.594875	-0.592558	0.071431
Br276	Br	1.928208	-0.259225	0.404764
H277	H	1.050628	-1.063018	-0.472610
H278	H	1.383961	-0.729685	-0.139277
H279	H	1.717294	-0.396352	0.194056
Br280	Br	1.023102	-0.925905	-0.499996
Br281	Br	1.356435	-0.592571	-0.166663
Br282	Br	1.689769	-0.259238	0.166671
H283	H	1.000161	-0.189839	-0.956214
H284	H	1.333494	0.143494	-0.622881
H285	H	1.666828	0.476827	-0.289548
H286	H	1.284479	-0.416502	-0.806401
H287	H	1.617812	-0.083168	-0.473068
H288	H	1.951146	0.250165	-0.139734
H289	H	1.284490	-0.416470	-0.956163
H290	H	1.617823	-0.083137	-0.622830
H291	H	1.951157	0.250196	-0.289496
