data_functionalizedCrystal
_audit_creation_method	'MofGen! by Chris Wilmer'
_symmetry_space_group_name_H-M	'P1'
_symmetry_Int_Tables_number	1
_symmetry_cell_setting	triclinic
loop_
_symmetry_equiv_pos_as_xyz
  x,y,z
_cell_length_a	23.532407
_cell_length_b	23.532407
_cell_length_c	14.048226
_cell_angle_alpha	89.985077
_cell_angle_beta	89.998871
_cell_angle_gamma	82.848713
loop_
_atom_site_label
_atom_site_type_symbol
_atom_site_fract_x
_atom_site_fract_y
_atom_site_fract_z
O1	O	0.755261	0.069136	-0.079059
O2	O	0.589398	0.079139	-0.079090
O3	O	0.677331	-0.008794	-0.079047
O4	O	0.667328	0.157069	-0.079102
O5	O	0.677320	-0.008799	0.079275
O6	O	0.589387	0.079134	0.079232
O7	O	0.755251	0.069131	0.079262
Zn8	Zn	0.672317	0.074132	0.104384
Zn9	Zn	0.672331	0.074138	-0.104211
O10	O	0.667317	0.157064	0.079219
C11	C	0.568176	0.078882	0.000068
C12	C	0.504959	0.078116	0.000057
C13	C	0.677071	-0.030013	0.000119
C14	C	0.676305	-0.093230	0.000133
C15	C	0.621110	-0.359397	0.000063
C16	C	0.621821	-0.299997	0.000071
O17	O	0.578035	-0.263252	0.000033
N18	N	0.674097	-0.277371	0.000091
C19	C	0.725666	-0.314148	0.000095
O20	O	0.770196	-0.289449	0.000112
C21	C	0.724954	-0.373547	0.000081
C22	C	0.672674	-0.396170	0.000070
C23	C	0.568834	-0.382020	0.000052
C24	C	0.568123	-0.441417	0.000046
C25	C	0.619687	-0.478189	0.000052
C26	C	0.671963	-0.455566	0.000064
C27	C	0.776521	-0.410324	0.000077
C28	C	0.775805	-0.469726	0.000062
C29	C	0.723525	-0.492349	0.000051
C30	C	0.722816	-0.551735	0.000065
N31	N	0.670539	-0.574361	0.000044
C32	C	0.618975	-0.537589	0.000038
C33	C	0.727157	-0.189406	0.000123
C34	C	0.727870	-0.130008	0.000144
C35	C	0.624025	-0.115861	0.000119
C36	C	0.623313	-0.175260	0.000104
C37	C	0.674881	-0.212032	0.000103
C38	C	0.617486	-0.662325	0.000027
C39	C	0.616779	-0.721727	0.000025
C40	C	0.720623	-0.735869	0.000046
C41	C	0.721330	-0.676473	0.000053
C42	C	0.669757	-0.639701	0.000040
O43	O	0.766579	-0.588514	0.000099
O44	O	0.574452	-0.562296	0.000008
C45	C	0.105856	0.125350	0.000085
C46	C	0.046456	0.124638	0.000091
O47	O	0.009711	0.168424	0.000111
N48	N	0.023830	0.072362	0.000107
C49	C	0.060607	0.020794	0.000126
O50	O	0.035908	-0.023737	0.000141
C51	C	0.120006	0.021506	0.000127
C52	C	0.142629	0.073785	0.000101
C53	C	0.128480	0.177625	0.000060
C54	C	0.187876	0.178336	0.000052
C55	C	0.224649	0.126772	0.000069
C56	C	0.202025	0.074496	0.000093
C57	C	0.156783	-0.030062	0.000153
C58	C	0.216185	-0.029345	0.000154
C59	C	0.238808	0.022934	0.000129
C60	C	0.298194	0.023643	0.000102
N61	N	0.320821	0.075920	0.000086
C62	C	0.284048	0.127484	0.000070
C63	C	-0.064135	0.019302	0.000126
C64	C	-0.123533	0.018589	0.000119
C65	C	-0.137680	0.122434	0.000085
C66	C	-0.078281	0.123146	0.000086
C67	C	-0.041509	0.071578	0.000110
C68	C	0.408784	0.128974	0.000052
C69	C	0.468186	0.129680	0.000041
C70	C	0.482329	0.025836	0.000079
C71	C	0.422932	0.025129	0.000086
C72	C	0.386160	0.076702	0.000076
O73	O	0.334974	-0.020119	0.000086
O74	O	0.308756	0.172007	0.000067
C75	C	0.776472	0.069388	0.000103
C76	C	0.839689	0.070154	0.000107
C77	C	0.667577	0.178283	0.000052
C78	C	0.668343	0.241500	0.000031
N79	N	0.672312	0.074127	0.246745
N80	N	0.672341	0.074139	-0.246572
C81	C	0.711261	0.035206	0.296582
C82	C	0.711265	0.035205	0.396239
C83	C	0.672322	0.074129	0.446058
C84	C	0.633369	0.113052	0.396214
C85	C	0.633363	0.113049	0.296558
C86	C	0.633385	0.113056	0.603928
C87	C	0.633392	0.113060	0.703591
C88	C	0.711287	0.035212	0.703609
C89	C	0.711281	0.035209	0.603953
C90	C	0.672329	0.074133	0.554116
H91	H	0.575489	-0.632392	0.000016
O92	O	0.749124	-0.002521	0.444760
C93	C	0.784090	0.027809	0.502366
H94	H	0.761150	0.072489	0.517272
H95	H	0.793239	0.003996	0.572457
H96	H	0.826156	0.031468	0.463952
O97	O	0.772164	-0.654588	0.000022
C98	C	0.817522	-0.699785	0.000052
H99	H	0.801792	-0.740049	-0.029915
H100	H	0.854042	-0.687568	-0.045915
H101	H	0.833411	-0.708286	0.076008
H102	H	0.512280	-0.016146	0.000089
H103	H	0.580742	-0.193674	0.000099
H104	H	0.601646	0.144742	0.255982
H105	H	0.601664	0.144750	0.563354
O106	O	0.401018	-0.025689	-0.000027
C107	C	0.419818	-0.057093	-0.082028
H108	H	0.460932	-0.041812	-0.109380
H109	H	0.428324	-0.104568	-0.063571
H110	H	0.385402	-0.050293	-0.139438
H111	H	0.742975	0.003512	0.256026
O112	O	0.595516	0.150784	0.444712
C113	C	0.560553	0.120462	0.502366
H114	H	0.583491	0.075781	0.517312
H115	H	0.551415	0.144281	0.572434
H116	H	0.518483	0.116804	0.463973
H117	H	0.098544	0.219617	0.000050
H118	H	0.742994	0.003518	0.563391
H119	H	0.246123	-0.071339	0.000175
O120	O	0.770658	-0.771677	0.000009
C121	C	0.758813	-0.828953	0.000020
H122	H	0.714093	-0.830972	-0.029957
H123	H	0.791700	-0.856041	-0.045947
H124	H	0.761069	-0.846162	0.075972
O125	O	0.749203	-0.002543	0.751976
C126	C	0.805522	0.006427	0.727592
H127	H	0.805533	0.052023	0.700171
H128	H	0.834143	-0.000264	0.793128
H129	H	0.822430	-0.025226	0.669760
O130	O	0.566006	-0.743730	0.000178
C131	C	0.562483	-0.777692	0.082156
H132	H	0.592157	-0.763819	0.139478
H133	H	0.516551	-0.772110	0.109665
H134	H	0.575892	-0.824607	0.063616
H135	H	0.378852	0.170970	0.000047
O136	O	0.778669	-0.108063	-0.000004
C137	C	0.810091	-0.126883	-0.081982
H138	H	0.779518	-0.139057	-0.139301
H139	H	0.834118	-0.091028	-0.109496
H140	H	0.842047	-0.165780	-0.063440
O141	O	0.517288	-0.463293	-0.000016
C142	C	0.471935	-0.418090	0.000002
H143	H	0.487675	-0.377819	-0.029957
H144	H	0.435418	-0.430287	-0.045979
H145	H	0.456039	-0.409611	0.075953
O146	O	0.134791	-0.080834	0.000013
C147	C	0.100845	-0.084359	-0.081965
H148	H	0.114721	-0.054678	-0.139294
H149	H	0.106440	-0.130290	-0.109464
H150	H	0.053925	-0.070961	-0.063430
H151	H	0.526842	-0.352085	0.000043
H152	H	0.601680	0.144755	0.744149
H153	H	0.769152	-0.219343	0.000128
O154	O	0.573986	-0.080052	0.000060
C155	C	0.585831	-0.022776	0.000093
H156	H	0.630555	-0.020745	-0.029862
H157	H	0.552951	0.004329	-0.045883
H158	H	0.583563	-0.005597	0.076049
H159	H	-0.059866	0.165717	0.000070
O160	O	0.827357	-0.388452	0.000042
C161	C	0.872708	-0.433657	0.000063
H162	H	0.856970	-0.473914	-0.029917
H163	H	0.909231	-0.421442	-0.045898
H164	H	0.888595	-0.442168	0.076018
O165	O	0.209920	0.229082	0.000149
C166	C	0.243848	0.232613	0.082148
H167	H	0.258892	0.187641	0.109510
H168	H	0.282622	0.255088	0.063685
H169	H	0.217467	0.257964	0.139554
O170	O	0.825862	-0.505504	0.000190
C171	C	0.828564	-0.540292	0.082194
H172	H	0.783378	-0.543057	0.109524
H173	H	0.850043	-0.585051	0.063750
H174	H	0.854457	-0.520900	0.139616
O175	O	0.490066	0.180518	0.000061
C176	C	0.444867	0.225875	0.000027
H177	H	0.404602	0.210142	0.030011
H178	H	0.457080	0.262393	0.045978
H179	H	0.436371	0.241766	-0.075932
H180	H	-0.167632	0.164421	0.000076
H181	H	-0.141947	-0.023982	0.000124
H182	H	-0.034198	-0.022693	0.000138
