data_functionalizedCrystal
_audit_creation_method	'MofGen! by Chris Wilmer'
_symmetry_space_group_name_H-M	'P1'
_symmetry_Int_Tables_number	1
_symmetry_cell_setting	triclinic
loop_
_symmetry_equiv_pos_as_xyz
  x,y,z
_cell_length_a	18.215407
_cell_length_b	16.120484
_cell_length_c	18.215399
_cell_angle_alpha	92.869789
_cell_angle_beta	89.980167
_cell_angle_gamma	92.926015
loop_
_atom_site_label
_atom_site_type_symbol
_atom_site_fract_x
_atom_site_fract_y
_atom_site_fract_z
Zn1	Zn	1.110213	-0.331906	-0.430960
Zn2	Zn	1.443546	0.001427	-0.097627
Zn3	Zn	1.776879	0.334760	0.235707
Zn4	Zn	1.103879	-0.471328	-0.314129
Zn5	Zn	1.437212	-0.137995	0.019204
Zn6	Zn	1.770546	0.195339	0.352538
Zn7	Zn	0.987144	-0.331934	-0.307908
Zn8	Zn	1.320477	0.001400	0.025425
Zn9	Zn	1.653811	0.334733	0.358758
Zn10	Zn	0.980871	-0.471282	-0.437152
Zn11	Zn	1.314205	-0.137948	-0.103818
Zn12	Zn	1.647538	0.195385	0.229515
O13	O	1.045527	-0.401612	-0.372537
O14	O	1.378860	-0.068279	-0.039204
O15	O	1.712193	0.265054	0.294129
O16	O	1.212356	-0.350409	-0.415474
O17	O	1.545690	-0.017076	-0.082141
O18	O	1.879023	0.316258	0.251193
O19	O	1.088368	-0.452868	-0.210321
O20	O	1.421702	-0.119535	0.123012
O21	O	1.755035	0.213799	0.456346
O22	O	1.008745	-0.215264	-0.319037
O23	O	1.342078	0.118069	0.014297
O24	O	1.675412	0.451403	0.347630
O25	O	1.207703	-0.452841	-0.329639
O26	O	1.541036	-0.119508	0.003695
O27	O	1.874370	0.213825	0.337028
O28	O	1.099163	-0.215244	-0.409442
O29	O	1.432496	0.118089	-0.076109
O30	O	1.765830	0.451423	0.257225
O31	O	1.002604	-0.350456	-0.205751
O32	O	1.335937	-0.017122	0.127583
O33	O	1.669270	0.316211	0.460916
O34	O	0.883328	-0.350411	-0.325041
O35	O	1.216661	-0.017077	0.008292
O36	O	1.549995	0.316256	0.341626
O37	O	0.998054	-0.452762	-0.539313
O38	O	1.331387	-0.119429	-0.205980
O39	O	1.664721	0.213904	0.127353
O40	O	0.878719	-0.452789	-0.419995
O41	O	1.212053	-0.119455	-0.086662
O42	O	1.545386	0.213878	0.246671
O43	O	1.093081	-0.350364	-0.534764
O44	O	1.426414	-0.017031	-0.201431
O45	O	1.759747	0.316303	0.131903
O46	O	1.082286	-0.587988	-0.335643
O47	O	1.415619	-0.254654	-0.002310
O48	O	1.748953	0.078679	0.331024
O49	O	0.991913	-0.587954	-0.426027
O50	O	1.325246	-0.254620	-0.092694
O51	O	1.658579	0.078713	0.240639
C52	C	0.854321	-0.401598	-0.372516
C53	C	1.187654	-0.068265	-0.039182
C54	C	1.520988	0.265068	0.294151
C55	C	0.772522	-0.401612	-0.372525
C56	C	1.105855	-0.068279	-0.039191
C57	C	1.439188	0.265055	0.294142
C58	C	0.581943	-0.455004	-0.421912
C59	C	0.915277	-0.121671	-0.088579
C60	C	1.248610	0.211662	0.244755
C61	C	0.505085	-0.455007	-0.421921
C62	C	0.838418	-0.121674	-0.088588
C63	C	1.171751	0.211660	0.244745
C64	C	0.509861	-0.348236	-0.323179
C65	C	0.843195	-0.014902	0.010154
C66	C	1.176528	0.318431	0.343487
C67	C	0.586719	-0.348229	-0.323174
C68	C	0.920052	-0.014896	0.010159
C69	C	1.253386	0.318437	0.343493
C70	C	0.622758	-0.401619	-0.372540
C71	C	0.956091	-0.068285	-0.039206
C72	C	1.289424	0.265048	0.294127
C73	C	0.469041	-0.401627	-0.372554
C74	C	0.802375	-0.068294	-0.039221
C75	C	1.135708	0.265039	0.294113
C76	C	0.385708	-0.401630	-0.372564
C77	C	0.719041	-0.068296	-0.039230
C78	C	1.052374	0.265037	0.294103
C79	C	0.706097	-0.401615	-0.372531
C80	C	1.039430	-0.068282	-0.039198
C81	C	1.372764	0.265051	0.294136
C82	C	1.035751	-0.618221	-0.382198
C83	C	1.369085	-0.284888	-0.048865
C84	C	1.702418	0.048446	0.284469
C85	C	1.031637	-0.710887	-0.386356
C86	C	1.364970	-0.377554	-0.053022
C87	C	1.698304	-0.044220	0.280311
C88	C	1.024129	-0.880549	-0.393961
C89	C	1.357462	-0.547215	-0.060628
C90	C	1.690796	-0.213882	0.272705
C91	C	1.067056	-0.921836	-0.351125
C92	C	1.400390	-0.588502	-0.017792
C93	C	1.733723	-0.255169	0.315541
C94	C	1.062879	-1.016241	-0.355357
C95	C	1.396212	-0.682908	-0.022024
C96	C	1.729545	-0.349575	0.311309
C97	C	1.028305	-0.786135	-0.389730
C98	C	1.361639	-0.452801	-0.056397
C99	C	1.694972	-0.119468	0.276936
C100	C	1.237479	-0.401627	-0.372560
C101	C	1.570812	-0.068294	-0.039226
C102	C	1.904146	0.265039	0.294107
C103	C	1.319277	-0.401634	-0.372569
C104	C	1.652611	-0.068300	-0.039236
C105	C	1.985944	0.265033	0.294098
C106	C	1.045574	-0.401555	-0.564488
C107	C	1.378907	-0.068222	-0.231154
C108	C	1.712241	0.265112	0.102179
C109	C	1.045594	-0.401530	-0.646286
C110	C	1.378928	-0.068197	-0.312952
C111	C	1.712261	0.265136	0.020381
C112	C	1.055360	-0.184158	-0.362855
C113	C	1.388693	0.149175	-0.029522
C114	C	1.722027	0.482509	0.303812
C115	C	1.059551	-0.091492	-0.358729
C116	C	1.392884	0.241841	-0.025396
C117	C	1.726217	0.575175	0.307938
C118	C	1.095094	-0.348162	-0.832110
C119	C	1.428427	-0.014828	-0.498776
C120	C	1.761760	0.318505	-0.165443
C121	C	1.095104	-0.348138	-0.908967
C122	C	1.428437	-0.014804	-0.575634
C123	C	1.761770	0.318529	-0.242301
C124	C	0.996153	-0.454770	-0.913694
C125	C	1.329486	-0.121437	-0.580360
C126	C	1.662819	0.211896	-0.247027
C127	C	0.996140	-0.454790	-0.836837
C128	C	1.329473	-0.121456	-0.503504
C129	C	1.662806	0.211877	-0.170170
C130	C	1.045615	-0.401487	-0.796047
C131	C	1.378948	-0.068153	-0.462714
C132	C	1.712281	0.265180	-0.129380
C133	C	1.045637	-0.401443	-0.949761
C134	C	1.378971	-0.068110	-0.616428
C135	C	1.712304	0.265224	-0.283095
C136	C	1.045648	-0.401417	-1.033094
C137	C	1.378981	-0.068084	-0.699761
C138	C	1.712314	0.265250	-0.366427
C139	C	1.045603	-0.401511	-0.712709
C140	C	1.378937	-0.068178	-0.379376
C141	C	1.712270	0.265155	-0.046043
C142	C	1.045524	-0.401610	-0.181331
C143	C	1.378858	-0.068276	0.152002
C144	C	1.712191	0.265057	0.485336
C145	C	1.045657	-0.401399	-0.099523
C146	C	1.378991	-0.068066	0.233810
C147	C	1.712324	0.265267	0.567144
H148	H	0.471857	-0.498478	-0.462126
H149	H	0.805190	-0.165145	-0.128793
H150	H	1.138523	0.168189	0.204540
C151	C	0.970240	-0.928573	-0.447786
C152	C	1.303573	-0.595240	-0.114453
C153	C	1.636907	-0.261907	0.218880
H154	H	0.974463	-0.986643	-0.443596
H155	H	1.307797	-0.653310	-0.110263
H156	H	1.641130	-0.319977	0.223071
H157	H	0.981591	-0.914308	-0.496619
H158	H	1.314924	-0.580974	-0.163286
H159	H	1.648258	-0.247641	0.170047
H160	H	0.921412	-0.914413	-0.436336
H161	H	1.254746	-0.581080	-0.103003
H162	H	1.588079	-0.247746	0.230330
H163	H	1.135377	-0.304757	-0.798901
H164	H	1.468711	0.028577	-0.465567
H165	H	1.802044	0.361910	-0.132234
C166	C	0.941711	-0.513448	-0.797162
C167	C	1.275044	-0.180115	-0.463828
C168	C	1.608378	0.153219	-0.130495
H169	H	0.948785	-0.505817	-0.745547
H170	H	1.282118	-0.172484	-0.412214
H171	H	1.615452	0.160849	-0.078880
H172	H	0.949949	-0.569462	-0.812248
H173	H	1.283282	-0.236129	-0.478915
H174	H	1.616615	0.097204	-0.145582
H175	H	0.892816	-0.501235	-0.809205
H176	H	1.226149	-0.167901	-0.475871
H177	H	1.559482	0.165432	-0.142538
C178	C	1.120921	-0.873811	-0.297269
C179	C	1.454254	-0.540477	0.036065
C180	C	1.787588	-0.207144	0.369398
H181	H	1.116686	-0.815740	-0.301441
H182	H	1.450019	-0.482407	0.031893
H183	H	1.783353	-0.149073	0.365226
H184	H	1.169755	-0.887959	-0.308684
H185	H	1.503089	-0.554626	0.024649
H186	H	1.836422	-0.221292	0.357982
H187	H	1.109534	-0.888094	-0.248444
H188	H	1.442867	-0.554761	0.084889
H189	H	1.776201	-0.221428	0.418223
C190	C	1.149537	-0.289491	-0.948637
C191	C	1.482870	0.043842	-0.615304
C192	C	1.816204	0.377176	-0.281971
H193	H	1.142458	-0.297107	-1.000252
H194	H	1.475791	0.036226	-0.666919
H195	H	1.809125	0.369560	-0.333586
H196	H	1.198428	-0.301705	-0.936592
H197	H	1.531761	0.031628	-0.603259
H198	H	1.865094	0.364962	-0.269926
H199	H	1.141299	-0.233473	-0.933548
H200	H	1.474632	0.099861	-0.600214
H201	H	1.807965	0.433194	-0.266881
C202	C	0.470216	-0.289522	-0.268874
C203	C	0.803549	0.043811	0.064459
C204	C	1.136882	0.377145	0.397793
H205	H	0.418596	-0.297177	-0.275942
H206	H	0.751929	0.036156	0.057392
H207	H	1.085262	0.369489	0.390725
H208	H	0.485339	-0.233519	-0.277220
H209	H	0.818672	0.099815	0.056113
H210	H	1.152005	0.433148	0.389446
H211	H	0.482246	-0.301662	-0.219949
H212	H	0.815580	0.031672	0.113384
H213	H	1.148913	0.365005	0.446717
H214	H	0.955874	-0.498169	-0.946914
H215	H	1.289207	-0.164836	-0.613581
H216	H	1.622540	0.168497	-0.280247
C217	C	0.631618	-0.289503	-0.268861
C218	C	0.964951	0.043830	0.064473
C219	C	1.298284	0.377163	0.397806
H220	H	0.599147	-0.257716	-0.239454
H221	H	0.932481	0.075617	0.093879
H222	H	1.265814	0.408951	0.427213
H223	H	0.663248	-0.253217	-0.295444
H224	H	0.996581	0.080116	0.037889
H225	H	1.329915	0.413449	0.371223
H226	H	0.660149	-0.321354	-0.238167
H227	H	0.993483	0.011980	0.095166
H228	H	1.326816	0.345313	0.428499
H229	H	0.611284	-0.498475	-0.462110
H230	H	0.944617	-0.165142	-0.128777
H231	H	1.277951	0.168192	0.204556
