data_functionalizedCrystal
_audit_creation_method	'MofGen! by Chris Wilmer'
_symmetry_space_group_name_H-M	'P1'
_symmetry_Int_Tables_number	1
_symmetry_cell_setting	triclinic
loop_
_symmetry_equiv_pos_as_xyz
  x,y,z
_cell_length_a	27.732048
_cell_length_b	27.732048
_cell_length_c	26.809956
_cell_angle_alpha	90.000636
_cell_angle_beta	89.996742
_cell_angle_gamma	97.357345
loop_
_atom_site_label
_atom_site_type_symbol
_atom_site_fract_x
_atom_site_fract_y
_atom_site_fract_z
O1	O	0.640931	-0.057510	-0.041421
O2	O	0.974264	0.275823	0.291913
O3	O	1.307598	0.609157	0.625246
O4	O	0.500138	-0.066256	-0.041436
O5	O	0.833471	0.267078	0.291897
O6	O	1.166804	0.600411	0.625230
O7	O	0.574907	0.008514	-0.041419
O8	O	0.908240	0.341847	0.291915
O9	O	1.241574	0.675180	0.625248
O10	O	0.566162	-0.132280	-0.041439
O11	O	0.899495	0.201054	0.291895
O12	O	1.232828	0.534387	0.625228
O13	O	0.574893	0.008502	0.041541
O14	O	0.908226	0.341836	0.374874
O15	O	1.241560	0.675169	0.708207
O16	O	0.500123	-0.066267	0.041523
O17	O	0.833457	0.267066	0.374856
O18	O	1.166790	0.600400	0.708189
O19	O	0.640917	-0.057522	0.041539
O20	O	0.974250	0.275812	0.374872
O21	O	1.307584	0.609145	0.708205
Zn22	Zn	0.570518	-0.061896	0.054702
Zn23	Zn	0.903851	0.271437	0.388036
Zn24	Zn	1.237185	0.604771	0.721369
Zn25	Zn	0.570536	-0.061881	-0.054600
Zn26	Zn	0.903870	0.271452	0.278733
Zn27	Zn	1.237203	0.604786	0.612067
O28	O	0.566147	-0.132291	0.041521
O29	O	0.899481	0.201042	0.374854
O30	O	1.232814	0.534376	0.708187
C31	C	0.482124	-0.066078	0.000041
C32	C	0.815457	0.267256	0.333375
C33	C	1.148790	0.600589	0.666708
C34	C	0.428469	-0.065525	0.000036
C35	C	0.761802	0.267808	0.333369
C36	C	1.095135	0.601142	0.666702
C37	C	0.574716	0.026515	0.000062
C38	C	0.908050	0.359848	0.333396
C39	C	1.241383	0.693182	0.666729
C40	C	0.574164	0.080170	0.000066
C41	C	0.907497	0.413503	0.333400
C42	C	1.240830	0.746837	0.666733
C43	C	0.089654	-0.106229	0.000051
C44	C	0.422987	0.227105	0.333385
C45	C	0.756320	0.560438	0.666718
C46	C	-0.112006	-0.104178	0.000056
C47	C	0.221327	0.229156	0.333390
C48	C	0.554661	0.562489	0.666723
O49	O	-0.143262	-0.141398	0.000073
O50	O	0.190072	0.191935	0.333406
O51	O	0.523405	0.525268	0.666739
N52	N	-0.131130	-0.059843	0.000062
N53	N	0.202204	0.273491	0.333395
N54	N	0.535537	0.606824	0.666728
C55	C	-0.099835	-0.016017	0.000069
C56	C	0.233498	0.317316	0.333402
C57	C	0.566832	0.650650	0.666736
O58	O	-0.120728	0.021740	0.000079
O59	O	0.212605	0.355073	0.333412
O60	O	0.545938	0.688407	0.666746
C61	C	0.101824	-0.018068	0.000068
C62	C	0.435157	0.315265	0.333401
C63	C	0.768490	0.648598	0.666735
C64	C	0.120944	-0.062407	0.000057
C65	C	0.454278	0.270927	0.333391
C66	C	0.787611	0.604260	0.666724
C67	C	0.108775	-0.150563	0.000042
C68	C	0.442108	0.182770	0.333375
C69	C	0.775442	0.516103	0.666708
C70	C	0.159187	-0.151076	0.000038
C71	C	0.492520	0.182258	0.333371
C72	C	0.825853	0.515591	0.666704
C73	C	0.190477	-0.107253	0.000044
C74	C	0.523811	0.226080	0.333377
C75	C	0.857144	0.559413	0.666710
C76	C	0.171356	-0.062919	0.000054
C77	C	0.504690	0.270415	0.333387
C78	C	0.838023	0.603748	0.666720
C79	C	0.133117	0.025757	0.000079
C80	C	0.466451	0.359090	0.333412
C81	C	0.799784	0.692423	0.666746
C82	C	0.183535	0.025240	0.000080
C83	C	0.516868	0.358573	0.333413
C84	C	0.850201	0.691906	0.666747
C85	C	0.202655	-0.019098	0.000069
C86	C	0.535989	0.314235	0.333403
C87	C	0.869322	0.647568	0.666736
C88	C	0.253059	-0.019609	0.000056
C89	C	0.586392	0.313724	0.333389
C90	C	0.919725	0.647058	0.666722
N91	N	0.272183	-0.063944	0.000050
N92	N	0.605516	0.269389	0.333384
N93	N	0.938849	0.602723	0.666717
C94	C	0.240892	-0.107766	0.000044
C95	C	0.574225	0.225567	0.333378
C96	C	0.907559	0.558900	0.666711
C97	C	-0.205709	-0.014943	0.000069
C98	C	0.127624	0.318390	0.333402
C99	C	0.460957	0.651724	0.666735
C100	C	-0.256124	-0.014430	0.000068
C101	C	0.077210	0.318903	0.333401
C102	C	0.410543	0.652237	0.666735
C103	C	-0.268291	-0.102591	0.000056
C104	C	0.065042	0.230742	0.333390
C105	C	0.398376	0.564076	0.666723
C106	C	-0.217876	-0.103104	0.000053
C107	C	0.115458	0.230230	0.333387
C108	C	0.448791	0.563563	0.666720
C109	C	-0.186585	-0.059278	0.000063
C110	C	0.146748	0.274055	0.333397
C111	C	0.480081	0.607388	0.666730
C112	C	0.346761	-0.108839	0.000036
C113	C	0.680094	0.224495	0.333369
C114	C	1.013428	0.557828	0.666702
C115	C	0.397178	-0.109347	0.000030
C116	C	0.730511	0.223986	0.333363
C117	C	1.063845	0.557319	0.666696
C118	C	0.409341	-0.021186	0.000044
C119	C	0.742674	0.312147	0.333378
C120	C	1.076008	0.645480	0.666711
C121	C	0.358929	-0.020678	0.000048
C122	C	0.692262	0.312656	0.333381
C123	C	1.025595	0.645989	0.666714
C124	C	0.327639	-0.064508	0.000045
C125	C	0.660973	0.268825	0.333378
C126	C	0.994306	0.602159	0.666712
O127	O	0.284343	0.017592	0.000045
O128	O	0.617676	0.350925	0.333378
O129	O	0.951009	0.684259	0.666712
O130	O	0.261794	-0.145518	0.000045
O131	O	0.595128	0.187816	0.333379
O132	O	0.928461	0.521149	0.666712
C133	C	0.039242	-0.105716	0.000055
C134	C	0.372575	0.227617	0.333389
C135	C	0.705908	0.560950	0.666722
C136	C	0.020120	-0.061382	0.000065
C137	C	0.353454	0.271951	0.333399
C138	C	0.686787	0.605285	0.666732
C139	C	0.051411	-0.017560	0.000071
C140	C	0.384744	0.315774	0.333405
C141	C	0.718078	0.649107	0.666738
C142	C	-0.030294	-0.060869	0.000065
C143	C	0.303039	0.272464	0.333398
C144	C	0.636373	0.605798	0.666731
C145	C	-0.061585	-0.104691	0.000059
C146	C	0.271749	0.228642	0.333392
C147	C	0.605082	0.561975	0.666725
C148	C	-0.042461	-0.149026	0.000053
C149	C	0.290872	0.184307	0.333387
C150	C	0.624206	0.517640	0.666720
C151	C	0.007951	-0.149539	0.000049
C152	C	0.341284	0.183795	0.333383
C153	C	0.674618	0.517128	0.666716
C154	C	0.032287	0.026775	0.000077
C155	C	0.365621	0.360109	0.333410
C156	C	0.698954	0.693442	0.666743
C157	C	-0.018125	0.027284	0.000080
C158	C	0.315208	0.360617	0.333413
C159	C	0.648541	0.693951	0.666747
C160	C	-0.049416	-0.016538	0.000074
C161	C	0.283917	0.316795	0.333407
C162	C	0.617251	0.650129	0.666741
C163	C	0.658931	-0.057699	0.000060
C164	C	0.992264	0.275634	0.333393
C165	C	1.325598	0.608967	0.666726
C166	C	0.712586	-0.058252	0.000062
C167	C	1.045919	0.275081	0.333395
C168	C	1.379252	0.608414	0.666729
C169	C	0.566338	-0.150292	0.000039
C170	C	0.899671	0.183041	0.333372
C171	C	1.233005	0.516374	0.666705
C172	C	0.566891	-0.203947	0.000031
C173	C	0.900224	0.129386	0.333365
C174	C	1.233557	0.462720	0.666698
N175	N	0.570509	-0.061906	0.129298
N176	N	0.903842	0.271427	0.462632
N177	N	1.237175	0.604761	0.795965
C178	C	0.614867	0.418985	0.000045
C179	C	0.948201	0.752318	0.333379
C180	C	1.281534	1.085652	0.666712
C181	C	0.612816	0.620645	0.000038
C182	C	0.946150	0.953978	0.333372
C183	C	1.279483	1.287311	0.666705
O184	O	0.650037	0.651900	0.000021
O185	O	0.983370	0.985234	0.333354
O186	O	1.316704	1.318567	0.666687
N187	N	0.568481	0.639768	0.000034
N188	N	0.901814	0.973102	0.333367
N189	N	1.235148	1.306435	0.666700
C190	C	0.524656	0.608474	0.000028
C191	C	0.857989	0.941807	0.333361
C192	C	1.191322	1.275140	0.666694
O193	O	0.486899	0.629367	0.000019
O194	O	0.820232	0.962700	0.333352
O195	O	1.153565	1.296033	0.666685
C196	C	0.526707	0.406815	0.000031
C197	C	0.860040	0.740148	0.333365
C198	C	1.193374	1.073482	0.666698
C199	C	0.571045	0.387694	0.000041
C200	C	0.904378	0.721028	0.333374
C201	C	1.237712	1.054361	0.666708
C202	C	0.659202	0.399864	0.000054
C203	C	0.992535	0.733197	0.333388
C204	C	1.325868	1.066530	0.666721
C205	C	0.659714	0.349452	0.000059
C206	C	0.993047	0.682785	0.333392
C207	C	1.326381	1.016118	0.666726
C208	C	0.615892	0.318161	0.000054
C209	C	0.949225	0.651494	0.333388
C210	C	1.282559	0.984828	0.666721
C211	C	0.571557	0.337282	0.000045
C212	C	0.904891	0.670616	0.333379
C213	C	1.238224	1.003949	0.666712
C214	C	0.482882	0.375521	0.000022
C215	C	0.816215	0.708855	0.333355
C216	C	1.149549	1.042188	0.666688
C217	C	0.483399	0.325104	0.000021
C218	C	0.816732	0.658437	0.333355
C219	C	1.150066	0.991771	0.666688
C220	C	0.527737	0.305983	0.000031
C221	C	0.861070	0.639317	0.333364
C222	C	1.194404	0.972650	0.666698
C223	C	0.528247	0.255580	0.000045
C224	C	0.861581	0.588913	0.333379
C225	C	1.194914	0.922246	0.666712
N226	N	0.572583	0.236456	0.000050
N227	N	0.905916	0.569789	0.333383
N228	N	1.239249	0.903123	0.666717
C229	C	0.616405	0.267747	0.000054
C230	C	0.949738	0.601080	0.333388
C231	C	1.283072	0.934413	0.666721
C232	C	0.523582	0.714348	0.000027
C233	C	0.856915	1.047681	0.333360
C234	C	1.190248	1.381014	0.666693
C235	C	0.523069	0.764762	0.000027
C236	C	0.856402	1.098096	0.333360
C237	C	1.189735	1.431429	0.666693
C238	C	0.611230	0.776930	0.000036
C239	C	0.944563	1.110263	0.333370
C240	C	1.277896	1.443596	0.666703
C241	C	0.611742	0.726514	0.000040
C242	C	0.945075	1.059848	0.333373
C243	C	1.278409	1.393181	0.666707
C244	C	0.567917	0.695224	0.000031
C245	C	0.901250	1.028557	0.333365
C246	C	1.234583	1.361891	0.666698
C247	C	0.617477	0.161878	0.000064
C248	C	0.950811	0.495211	0.333398
C249	C	1.284144	0.828544	0.666731
C250	C	0.617986	0.111461	0.000071
C251	C	0.951319	0.444794	0.333404
C252	C	1.284652	0.778127	0.666738
C253	C	0.529825	0.099298	0.000059
C254	C	0.863158	0.432631	0.333392
C255	C	1.196492	0.765964	0.666725
C256	C	0.529316	0.149710	0.000055
C257	C	0.862650	0.483043	0.333388
C258	C	1.195983	0.816377	0.666721
C259	C	0.573147	0.180999	0.000056
C260	C	0.906480	0.514333	0.333389
C261	C	1.239813	0.847666	0.666723
O262	O	0.491047	0.224296	0.000057
O263	O	0.824380	0.557629	0.333391
O264	O	1.157713	0.890962	0.666724
O265	O	0.654156	0.246844	0.000053
O266	O	0.987490	0.580177	0.333386
O267	O	1.320823	0.913511	0.666719
C268	C	0.614355	0.469397	0.000041
C269	C	0.947688	0.802730	0.333374
C270	C	1.281022	1.136064	0.666708
C271	C	0.570021	0.488518	0.000032
C272	C	0.903354	0.821852	0.333365
C273	C	1.236687	1.155185	0.666699
C274	C	0.526198	0.457228	0.000027
C275	C	0.859532	0.790561	0.333361
C276	C	1.192865	1.123894	0.666694
C277	C	0.569508	0.538933	0.000032
C278	C	0.902841	0.872266	0.333365
C279	C	1.236174	1.205599	0.666699
C280	C	0.613330	0.570223	0.000036
C281	C	0.946663	0.903557	0.333370
C282	C	1.279996	1.236890	0.666703
C283	C	0.657665	0.551100	0.000041
C284	C	0.990998	0.884433	0.333374
C285	C	1.324332	1.217766	0.666708
C286	C	0.658177	0.500688	0.000045
C287	C	0.991511	0.834021	0.333379
C288	C	1.324844	1.167354	0.666712
C289	C	0.481863	0.476351	0.000023
C290	C	0.815197	0.809685	0.333356
C291	C	1.148530	1.143018	0.666690
C292	C	0.481355	0.526764	0.000019
C293	C	0.814688	0.860097	0.333352
C294	C	1.148021	1.193430	0.666686
C295	C	0.525177	0.558054	0.000023
C296	C	0.858510	0.891388	0.333357
C297	C	1.191843	1.224721	0.666690
N298	N	0.570549	-0.061867	-0.129196
N299	N	0.903883	0.271466	0.204137
N300	N	1.237216	0.604799	0.537471
C301	C	0.603640	-0.028781	0.473932
C302	C	0.936973	0.304552	0.807266
C303	C	1.270307	0.637885	1.140599
C304	C	0.603652	-0.028774	0.682810
C305	C	0.936985	0.304559	1.016143
C306	C	1.270318	0.637893	1.349477
O307	O	0.631801	-0.000613	0.709820
O308	O	0.965135	0.332720	1.043154
O309	O	1.298468	0.666054	1.376487
N310	N	0.570539	-0.061870	0.708925
N311	N	0.903873	0.271463	1.042259
N312	N	1.237206	0.604796	1.375592
C313	C	0.537419	-0.094969	0.682818
C314	C	0.870753	0.238364	1.016151
C315	C	1.204086	0.571698	1.349485
O316	O	0.509252	-0.123116	0.709824
O317	O	0.842585	0.210217	1.043157
O318	O	1.175919	0.543550	1.376490
C319	C	0.537406	-0.094974	0.473941
C320	C	0.870739	0.238360	0.807275
C321	C	1.204073	0.571693	1.140608
C322	C	0.570524	-0.061878	0.447829
C323	C	0.903857	0.271455	0.781162
C324	C	1.237191	0.604788	1.114495
C325	C	0.636755	0.004312	0.447819
C326	C	0.970088	0.337645	0.781153
C327	C	1.303422	0.670978	1.114486
C328	C	0.636754	0.004308	0.395603
C329	C	0.970087	0.337641	0.728936
C330	C	1.303420	0.670975	1.062270
C331	C	0.603637	-0.028789	0.369500
C332	C	0.936971	0.304544	0.702833
C333	C	1.270304	0.637877	1.036166
C334	C	0.570522	-0.061882	0.395612
C335	C	0.903856	0.271451	0.728946
C336	C	1.237189	0.604784	1.062279
C337	C	0.504284	-0.128070	0.447835
C338	C	0.837618	0.205264	0.781168
C339	C	1.170951	0.538597	1.114502
C340	C	0.504283	-0.128067	0.395613
C341	C	0.837616	0.205266	0.728946
C342	C	1.170950	0.538599	1.062279
C343	C	0.537401	-0.094972	0.369500
C344	C	0.870734	0.238362	0.702833
C345	C	1.204068	0.571695	1.036167
C346	C	0.537405	-0.094983	0.317293
C347	C	0.870738	0.238350	0.650626
C348	C	1.204071	0.571683	0.983959
N349	N	0.570517	-0.061887	0.291177
N350	N	0.903850	0.271447	0.624510
N351	N	1.237184	0.604780	0.957844
C352	C	0.603633	-0.028790	0.317281
C353	C	0.936967	0.304544	0.650614
C354	C	1.270300	0.637877	0.983947
C355	C	0.537429	-0.094965	0.792481
C356	C	0.870763	0.238368	1.125815
C357	C	1.204096	0.571702	1.459148
C358	C	0.537433	-0.094964	0.844700
C359	C	0.870767	0.238369	1.178034
C360	C	1.204100	0.571702	1.511367
C361	C	0.603665	-0.028768	0.844689
C362	C	0.936998	0.304565	1.178022
C363	C	1.270332	0.637898	1.511355
C364	C	0.603663	-0.028772	0.792469
C365	C	0.936996	0.304562	1.125802
C366	C	1.270330	0.637895	1.459135
C367	C	0.570542	-0.061868	0.766366
C368	C	0.903875	0.271465	1.099699
C369	C	1.237209	0.604798	1.433033
C370	C	0.603628	-0.028801	0.207623
C371	C	0.936961	0.304533	0.540956
C372	C	1.270295	0.637866	0.874289
C373	C	0.603625	-0.028809	0.155402
C374	C	0.936958	0.304524	0.488735
C375	C	1.270292	0.637858	0.822068
C376	C	0.537392	-0.095003	0.155418
C377	C	0.870725	0.238330	0.488751
C378	C	1.204058	0.571664	0.822085
C379	C	0.537396	-0.094997	0.207635
C380	C	0.870730	0.238337	0.540968
C381	C	1.204063	0.571670	0.874301
C382	C	0.570516	-0.061892	0.233735
C383	C	0.903850	0.271442	0.567069
C384	C	1.237183	0.604775	0.900402
O385	O	0.509266	-0.123126	0.290250
O386	O	0.842599	0.210208	0.623583
O387	O	1.175933	0.543541	0.956916
O388	O	0.631789	-0.000640	0.290266
O389	O	0.965123	0.332694	0.623599
O390	O	1.298456	0.666027	0.956933
C391	C	0.603642	-0.028777	0.526149
C392	C	0.936975	0.304556	0.859482
C393	C	1.270308	0.637889	1.192815
C394	C	0.570527	-0.061870	0.552261
C395	C	0.903860	0.271463	0.885595
C396	C	1.237193	0.604796	1.218928
C397	C	0.537410	-0.094968	0.526158
C398	C	0.870744	0.238366	0.859491
C399	C	1.204077	0.571699	1.192824
C400	C	0.570531	-0.061870	0.604480
C401	C	0.903864	0.271463	0.937814
C402	C	1.237197	0.604797	1.271147
C403	C	0.603647	-0.028773	0.630584
C404	C	0.936980	0.304560	0.963917
C405	C	1.270314	0.637894	1.297250
C406	C	0.636759	0.004324	0.604468
C407	C	0.970093	0.337657	0.937802
C408	C	1.303426	0.670990	1.271135
C409	C	0.636758	0.004320	0.552252
C410	C	0.970091	0.337653	0.885585
C411	C	1.303425	0.670986	1.218919
C412	C	0.504298	-0.128064	0.552273
C413	C	0.837631	0.205269	0.885606
C414	C	1.170965	0.538603	1.218940
C415	C	0.504303	-0.128058	0.604489
C416	C	0.837636	0.205276	0.937823
C417	C	1.170969	0.538609	1.271156
C418	C	0.537419	-0.094961	0.630593
C419	C	0.870752	0.238373	0.963926
C420	C	1.204086	0.571706	1.297260
H421	H	0.321291	-0.144530	0.000035
H422	H	0.654624	0.188804	0.333368
H423	H	0.987957	0.522137	0.666702
H424	H	0.487892	0.688875	0.000020
H425	H	0.821225	1.022208	0.333353
H426	H	1.154558	1.355542	0.666687
H427	H	0.630630	-0.001822	0.771211
H428	H	0.963964	0.331511	1.104544
H429	H	1.297297	0.664844	1.437877
H430	H	0.486964	0.780325	0.000028
H431	H	0.820297	1.113659	0.333361
H432	H	1.153631	1.446992	0.666694
H433	H	0.663722	0.031266	0.469068
H434	H	0.997056	0.364599	0.802402
H435	H	1.330389	0.697932	1.135735
H436	H	0.343360	0.015426	0.000049
H437	H	0.676693	0.348759	0.333382
H438	H	1.010027	0.682093	0.666715
H439	H	0.647846	0.710950	0.000047
H440	H	0.981179	1.044283	0.333381
H441	H	1.314513	1.377617	0.666714
H442	H	0.117558	0.061861	0.000088
H443	H	0.450892	0.395195	0.333421
H444	H	0.784225	0.728528	0.666755
N445	N	0.639385	0.006929	0.872848
N446	N	0.972718	0.340263	1.206181
N447	N	1.306051	0.673596	1.539514
H448	H	0.634359	0.001905	0.909890
H449	H	0.967692	0.335238	1.243223
H450	H	1.301025	0.668571	1.576556
H451	H	0.634055	0.041183	0.863723
H452	H	0.967388	0.374516	1.197056
H453	H	1.300722	0.707850	1.530390
H454	H	0.695819	0.333889	0.000065
H455	H	1.029152	0.667222	0.333398
H456	H	1.362485	1.000555	0.666731
N457	N	0.501674	-0.130695	0.127255
N458	N	0.835007	0.202638	0.460588
N459	N	1.168341	0.535972	0.793921
H460	H	0.467411	-0.125360	0.136345
H461	H	0.800745	0.207973	0.469678
H462	H	1.134078	0.541307	0.803012
H463	H	0.507019	-0.164952	0.136349
H464	H	0.840353	0.168382	0.469682
H465	H	1.173686	0.501715	0.803016
N466	N	0.217279	0.072512	0.000089
N467	N	0.550613	0.405845	0.333422
N468	N	0.883946	0.739179	0.666756
H469	H	0.238469	0.074272	-0.030665
H470	H	0.571802	0.407606	0.302669
H471	H	0.905136	0.740939	0.636002
H472	H	0.238435	0.074233	0.030862
H473	H	0.571768	0.407566	0.364195
H474	H	0.905101	0.740899	0.697529
N475	N	0.417799	-0.157172	0.000025
N476	N	0.751132	0.176162	0.333358
N477	N	1.084466	0.509495	0.666691
H478	H	0.454485	-0.150850	0.000023
H479	H	0.787818	0.182483	0.333356
H480	H	1.121151	0.515817	0.666689
H481	H	0.406328	-0.176327	-0.030731
H482	H	0.739662	0.157006	0.302602
H483	H	1.072995	0.490339	0.635936
H484	H	0.646911	0.802415	0.000040
H485	H	0.980245	1.135749	0.333374
H486	H	1.313578	1.469082	0.666707
N487	N	0.075043	-0.197841	0.000038
N488	N	0.408376	0.135492	0.333371
N489	N	0.741710	0.468826	0.666704
H490	H	0.053856	-0.199602	-0.030715
H491	H	0.387189	0.133732	0.302618
H492	H	0.720522	0.467065	0.635952
H493	H	0.053885	-0.199581	0.030811
H494	H	0.387218	0.133753	0.364145
H495	H	0.720551	0.467086	0.697478
H496	H	0.493213	0.165279	0.000061
H497	H	0.826546	0.498612	0.333394
H498	H	1.159879	0.831945	0.666728
N499	N	0.433527	0.547378	0.000015
N500	N	0.766860	0.880712	0.333348
N501	N	1.100193	1.214045	0.666681
H502	H	0.414353	0.535939	-0.030741
H503	H	0.747687	0.869272	0.302593
H504	H	1.081020	1.202605	0.635926
H505	H	0.439883	0.584061	0.000032
H506	H	0.773217	0.917394	0.333365
H507	H	1.106550	1.250728	0.666698
H508	H	0.174750	-0.187180	0.000029
H509	H	0.508083	0.146153	0.333362
H510	H	0.841417	0.479487	0.666696
H511	H	0.494146	0.073812	0.000057
H512	H	0.827480	0.407145	0.333390
H513	H	1.160813	0.740478	0.666724
H514	H	-0.293777	-0.138273	0.000051
H515	H	0.039557	0.195061	0.333385
H516	H	0.372890	0.528394	0.666718
N517	N	-0.076215	-0.196293	0.000044
N518	N	0.257118	0.137041	0.333377
N519	N	0.590452	0.470374	0.666710
H520	H	-0.111052	-0.189235	0.000047
H521	H	0.222281	0.144098	0.333380
H522	H	0.555614	0.477432	0.666714
H523	H	-0.070064	-0.215636	0.030795
H524	H	0.263269	0.117698	0.364128
H525	H	0.596603	0.451031	0.697461
H526	H	-0.271687	0.021674	0.000069
H527	H	0.061646	0.355008	0.333402
H528	H	0.394980	0.688341	0.666736
H529	H	0.694889	0.425336	0.000056
H530	H	1.028223	0.758670	0.333390
H531	H	1.361556	1.092003	0.666723
N532	N	0.704931	0.584854	0.000050
N533	N	1.038265	0.918187	0.333384
N534	N	1.371598	1.251520	0.666717
H535	H	0.697874	0.619691	0.000047
H536	H	1.031207	0.953024	0.333380
H537	H	1.364540	1.286358	0.666714
H538	H	0.724276	0.578701	-0.030701
H539	H	1.057610	0.912034	0.302632
H540	H	1.390943	1.245368	0.635966
N541	N	0.443095	0.026077	0.000051
N542	N	0.776428	0.359411	0.333384
N543	N	1.109761	0.692744	0.666718
H544	H	0.477932	0.019021	0.000050
H545	H	0.811266	0.352354	0.333383
H546	H	1.144599	0.685687	0.666717
H547	H	0.436939	0.045408	0.030811
H548	H	0.770272	0.378741	0.364144
H549	H	1.103606	0.712075	0.697477
N550	N	0.066033	0.074043	0.000087
N551	N	0.399366	0.407377	0.333420
N552	N	0.732700	0.740710	0.666753
H553	H	0.046264	0.102203	0.000092
H554	H	0.379597	0.435537	0.333425
H555	H	0.712930	0.768870	0.666758
H556	H	0.087216	0.075758	-0.030668
H557	H	0.420549	0.409092	0.302665
H558	H	0.753883	0.742425	0.635998
H559	H	0.477317	-0.155019	0.469089
H560	H	0.810650	0.178315	0.802422
H561	H	1.143983	0.511648	1.135756
N562	N	0.434595	0.442606	0.000018
N563	N	0.767929	0.775939	0.333351
N564	N	1.101262	1.109272	0.666684
H565	H	0.406435	0.462375	0.000014
H566	H	0.739768	0.795708	0.333347
H567	H	1.073102	1.129042	0.666681
H568	H	0.432881	0.421426	0.030774
H569	H	0.766215	0.754760	0.364107
H570	H	1.099548	1.088093	0.697441
H571	H	0.630595	-0.001859	0.134142
H572	H	0.963929	0.331475	0.467476
H573	H	1.297262	0.664808	0.800809
H574	H	0.654093	0.095896	0.000080
H575	H	0.987426	0.429229	0.333413
H576	H	1.320759	0.762562	0.666747
N577	N	-0.038740	0.075112	0.000094
N578	N	0.294593	0.408445	0.333427
N579	N	0.627926	0.741778	0.666760
H580	H	-0.059384	0.077283	0.030850
H581	H	0.273949	0.410617	0.364184
H582	H	0.607283	0.743950	0.697517
H583	H	-0.059363	0.077273	-0.030676
H584	H	0.273971	0.410606	0.302657
H585	H	0.607304	0.743940	0.635991
H586	H	0.510471	-0.121919	0.865958
H587	H	0.843804	0.211415	1.199291
H588	H	1.177137	0.544748	1.532624
H589	H	0.663726	0.031271	0.625730
H590	H	0.997059	0.364604	0.959064
H591	H	1.330392	0.697938	1.292397
N592	N	-0.171963	0.032329	0.000082
N593	N	0.161370	0.365662	0.333415
N594	N	0.494703	0.698995	0.666749
H595	H	-0.191733	0.060489	0.000085
H596	H	0.141600	0.393822	0.333418
H597	H	0.474934	0.727155	0.666751
H598	H	-0.150777	0.034045	-0.030671
H599	H	0.182556	0.367378	0.302662
H600	H	0.515889	0.700711	0.635996
H601	H	0.630597	-0.001843	0.228868
H602	H	0.963930	0.331490	0.562202
H603	H	1.297264	0.664824	0.895535
N604	N	0.436128	0.291357	0.000026
N605	N	0.769461	0.624690	0.333359
N606	N	1.102795	0.958024	0.666693
H607	H	0.443177	0.256517	0.000032
H608	H	0.776510	0.589850	0.333366
H609	H	1.109843	0.923184	0.666699
H610	H	0.416791	0.297508	-0.030729
H611	H	0.750124	0.630841	0.302604
H612	H	1.083458	0.964174	0.635938
N613	N	0.705999	0.480068	0.000057
N614	N	1.039332	0.813401	0.333390
N615	N	1.372666	1.146735	0.666723
H616	H	0.733679	0.507546	0.000059
H617	H	1.067012	0.840880	0.333392
H618	H	1.400345	1.174213	0.666725
H619	H	0.708141	0.459416	-0.030696
H620	H	1.041475	0.792749	0.302637
H621	H	1.374808	1.126082	0.635971
N622	N	0.672472	0.040006	0.367442
N623	N	1.005805	0.373339	0.700776
N624	N	1.339138	0.706672	1.034109
H625	H	0.693447	0.060971	0.391909
H626	H	1.026780	0.394305	0.725242
H627	H	1.360114	0.727638	1.058576
H628	H	0.654127	0.061250	0.345780
H629	H	0.987460	0.394583	0.679113
H630	H	1.320793	0.727916	1.012446
H631	H	0.023514	-0.185643	0.000042
H632	H	0.356847	0.147690	0.333375
H633	H	0.690181	0.481023	0.666708
H634	H	0.510457	-0.121917	0.771232
H635	H	0.843791	0.211416	1.104565
H636	H	1.177124	0.544749	1.437899
H637	H	0.653168	0.187348	0.000063
H638	H	0.986501	0.520681	0.333397
H639	H	1.319835	0.854015	0.666730
N640	N	-0.197254	-0.150924	0.000040
N641	N	0.136079	0.182409	0.333374
N642	N	0.469412	0.515742	0.666707
H643	H	-0.224731	-0.178605	0.000034
H644	H	0.108602	0.154728	0.333368
H645	H	0.441936	0.488062	0.666701
H646	H	-0.176606	-0.153066	0.030794
H647	H	0.156728	0.180267	0.364128
H648	H	0.490061	0.513601	0.697461
H649	H	0.446777	0.391080	0.000011
H650	H	0.780111	0.724414	0.333344
H651	H	1.113444	1.057747	0.666678
H652	H	0.477310	-0.155018	0.374362
H653	H	0.810644	0.178315	0.707696
H654	H	1.143977	0.511649	1.041029
N655	N	0.501686	-0.130699	0.235803
N656	N	0.835019	0.202634	0.569136
N657	N	1.168352	0.535968	0.902469
H658	H	0.480709	-0.151668	0.211340
H659	H	0.814042	0.181665	0.544674
H660	H	1.147376	0.514998	0.878007
H661	H	0.480454	-0.112340	0.257468
H662	H	0.813787	0.220993	0.590802
H663	H	1.147121	0.554326	0.924135
N664	N	0.672478	0.040016	0.524091
N665	N	1.005811	0.373349	0.857425
N666	N	1.339145	0.706682	1.190758
H667	H	0.693454	0.060980	0.548558
H668	H	1.026787	0.394314	0.881891
H669	H	1.360121	0.727647	1.215225
H670	H	0.654135	0.061260	0.502427
H671	H	0.987469	0.394594	0.835760
H672	H	1.320802	0.727927	1.169094
N673	N	0.468579	-0.163755	0.632651
N674	N	0.801912	0.169579	0.965984
N675	N	1.135245	0.502912	1.299318
H676	H	0.447599	-0.184718	0.608186
H677	H	0.780933	0.148615	0.941519
H678	H	1.114266	0.481949	1.274853
H679	H	0.447351	-0.145388	0.654313
H680	H	0.780684	0.187946	0.987646
H681	H	1.114018	0.521279	1.320980
N682	N	0.468575	-0.163761	0.524123
N683	N	0.801909	0.169572	0.857456
N684	N	1.135242	0.502906	1.190789
H685	H	0.447601	-0.184723	0.548595
H686	H	0.780934	0.148610	0.881928
H687	H	1.114268	0.481943	1.215261
H688	H	0.486916	-0.185008	0.502456
H689	H	0.820250	0.148325	0.835790
H690	H	1.153583	0.481659	1.169123
