data_functionalizedCrystal
_audit_creation_method	'MofGen! by Chris Wilmer'
_symmetry_space_group_name_H-M	'P1'
_symmetry_Int_Tables_number	1
_symmetry_cell_setting	triclinic
loop_
_symmetry_equiv_pos_as_xyz
  x,y,z
_cell_length_a	16.974800
_cell_length_b	16.956984
_cell_length_c	9.730223
_cell_angle_alpha	90.004772
_cell_angle_beta	93.653525
_cell_angle_gamma	100.270647
loop_
_atom_site_label
_atom_site_type_symbol
_atom_site_fract_x
_atom_site_fract_y
_atom_site_fract_z
O1	O	1.042509	-0.101582	0.001707
O2	O	0.811454	-0.114541	-0.024005
O3	O	0.940863	0.008033	-0.009595
O4	O	0.913100	-0.224156	-0.012703
O5	O	0.940855	0.008037	0.218985
O6	O	0.811447	-0.114538	0.204574
O7	O	1.042501	-0.101579	0.230286
Zn8	Zn	0.926973	-0.108058	0.253722
Zn9	Zn	0.926983	-0.108062	-0.047441
O10	O	0.913093	-0.224153	0.215876
C11	C	0.782024	-0.114048	0.087010
C12	C	0.694344	-0.112576	0.077253
C13	C	0.653152	-0.111881	0.197271
C14	C	0.570769	-0.110485	0.188108
C15	C	0.529578	-0.109790	0.058925
C16	C	0.570776	-0.110483	-0.061102
C17	C	0.653159	-0.111873	-0.051937
C18	C	0.283192	-0.105627	0.018154
C19	C	0.200804	-0.104239	0.008998
C20	C	0.200802	-0.104239	0.258209
C21	C	0.283185	-0.105634	0.267362
C22	C	0.324377	-0.106323	0.147335
N23	N	0.445369	-0.108366	0.049555
N24	N	0.408586	-0.107742	0.156707
C25	C	0.942281	0.037745	0.104853
C26	C	0.946507	0.126270	0.105322
C27	C	1.071931	-0.102072	0.119268
C28	C	1.159612	-0.103544	0.129016
C29	C	0.911675	-0.253864	0.101425
C30	C	0.907448	-0.342390	0.100947
C31	C	0.875838	0.158273	0.097452
C32	C	0.879815	0.241453	0.097898
C33	C	0.954460	0.292628	0.106204
C34	C	1.025135	0.260620	0.114079
C35	C	1.021158	0.177442	0.113643
C36	C	0.974145	0.542424	0.108386
C37	C	0.978117	0.625607	0.108817
C38	C	0.832796	0.606434	0.092639
C39	C	0.828826	0.523255	0.092195
C40	C	0.899500	0.491254	0.100077
N41	N	0.958526	0.377652	0.106656
N42	N	0.895433	0.406232	0.099635
N43	N	0.926972	-0.108054	0.459258
N44	N	0.926990	-0.108059	-0.252976
C45	C	0.984290	-0.053801	0.537567
C46	C	0.984298	-0.053801	0.681451
C47	C	0.869666	-0.162315	0.668704
C48	C	0.869655	-0.162310	0.524823
H49	H	0.316718	-0.106196	0.372556
C50	C	0.155491	-0.103473	0.390231
C51	C	0.085345	-0.171728	0.416696
C52	C	0.040035	-0.170958	0.548725
C53	C	0.064871	-0.101933	0.654287
C54	C	0.135021	-0.033673	0.627824
C55	C	0.180331	-0.034443	0.495796
H56	H	0.066957	-0.222830	0.338550
H57	H	-0.011894	-0.221490	0.568313
H58	H	0.031330	-0.101363	0.752022
H59	H	0.153409	0.017428	0.705971
H60	H	0.232260	0.016088	0.476207
H61	H	0.775258	0.632498	0.086224
C62	C	0.806625	-0.222001	0.740827
C63	C	0.806674	-0.222059	0.899095
C64	C	0.743633	-0.281749	0.971212
C65	C	0.680542	-0.341381	0.885062
C66	C	0.680490	-0.341325	0.726784
C67	C	0.743532	-0.281635	0.654667
H68	H	0.853380	-0.177913	0.962877
H69	H	0.743671	-0.281789	1.088380
H70	H	0.633875	-0.385567	0.938447
H71	H	0.633785	-0.385470	0.663002
H72	H	0.743493	-0.281594	0.537499
C73	C	0.328489	-0.106392	-0.113879
C74	C	0.330657	-0.036990	-0.216427
C75	C	0.375955	-0.037755	-0.348470
C76	C	0.419085	-0.107922	-0.377965
C77	C	0.416918	-0.177329	-0.275414
C78	C	0.371620	-0.176564	-0.143371
H79	H	0.298729	0.014957	-0.194596
H80	H	0.377559	0.013625	-0.424385
H81	H	0.452617	-0.108489	-0.475711
H82	H	0.448846	-0.229276	-0.297246
H83	H	0.370016	-0.227944	-0.067457
C84	C	0.698474	-0.112641	-0.183957
C85	C	0.700656	-0.043237	-0.286504
C86	C	0.745971	-0.044000	-0.418528
C87	C	0.789104	-0.114168	-0.448005
C88	C	0.786923	-0.183577	-0.345456
C89	C	0.741608	-0.182813	-0.213432
H90	H	0.668725	0.008710	-0.264686
H91	H	0.747585	0.007381	-0.494442
H92	H	0.822649	-0.114733	-0.545737
H93	H	0.818854	-0.235523	-0.367274
H94	H	0.739994	-0.234195	-0.137518
C95	C	0.793726	0.101983	0.088314
C96	C	0.734332	0.105508	-0.036989
C97	C	0.652217	0.049220	-0.046123
C98	C	0.629496	-0.010593	0.070046
C99	C	0.688891	-0.014120	0.195358
C100	C	0.771006	0.042168	0.204492
H101	H	0.751150	0.149787	-0.122993
H102	H	0.608249	0.051831	-0.138888
H103	H	0.568710	-0.052260	0.063285
H104	H	0.672073	-0.058399	0.281362
H105	H	0.814974	0.039557	0.297256
H106	H	0.822975	-0.206490	0.461059
C107	C	0.802082	0.276664	0.089256
C108	C	0.784836	0.331216	-0.031344
C109	C	0.707102	0.366430	-0.039974
C110	C	0.646613	0.347091	0.071996
C111	C	0.663857	0.292536	0.192605
C112	C	0.741591	0.257322	0.201235
H113	H	0.829615	0.345534	-0.114239
H114	H	0.694337	0.406815	-0.129257
H115	H	0.589069	0.373158	0.065608
H116	H	0.619078	0.278217	0.275500
H117	H	0.754356	0.216936	0.290518
C118	C	1.060231	0.681906	0.117965
C119	C	1.119618	0.678396	0.243283
C120	C	1.201726	0.734696	0.252428
C121	C	1.224446	0.794506	0.136254
C122	C	1.165058	0.798018	0.010927
C123	C	1.082950	0.741718	0.001783
H124	H	1.102800	0.634120	0.329290
H125	H	1.245689	0.732096	0.345204
H126	H	1.285228	0.836183	0.143024
H127	H	1.181876	0.842295	-0.075079
H128	H	1.038987	0.744318	-0.090993
H129	H	1.030960	-0.009622	0.484188
H130	H	0.537237	-0.109905	0.285839
C131	C	1.051888	0.507234	0.117029
C132	C	1.112382	0.526595	0.242442
C133	C	1.190130	0.491404	0.251078
C134	C	1.207384	0.436853	0.134301
C135	C	1.146888	0.417490	0.008879
C136	C	1.069140	0.452680	0.000243
H137	H	1.099611	0.566979	0.328895
H138	H	1.234913	0.505739	0.343924
H139	H	1.264937	0.410803	0.140694
H140	H	1.159659	0.377105	-0.077574
H141	H	1.024357	0.438346	-0.092603
H142	H	0.537233	-0.109912	-0.166285
C143	C	1.098894	0.142235	0.122296
C144	C	1.116138	0.087698	0.242920
C145	C	1.193876	0.052491	0.251581
C146	C	1.254371	0.071822	0.139618
C147	C	1.237129	0.126361	0.018986
C148	C	1.159391	0.161568	0.010325
H149	H	1.071354	0.073386	0.325809
H150	H	1.206640	0.012117	0.340882
H151	H	1.311918	0.045760	0.146030
H152	H	1.281912	0.140674	-0.063904
H153	H	1.146627	0.201942	-0.078976
H154	H	0.686682	-0.112453	0.302466
H155	H	0.167268	-0.103676	-0.096204
H156	H	0.768042	0.481592	0.085427
H157	H	1.030971	-0.009623	0.745206
H158	H	1.085913	0.302294	0.120851
