data_functionalizedCrystal
_audit_creation_method	'MofGen! by Chris Wilmer'
_symmetry_space_group_name_H-M	'P1'
_symmetry_Int_Tables_number	1
_symmetry_cell_setting	triclinic
loop_
_symmetry_equiv_pos_as_xyz
  x,y,z
_cell_length_a	21.395362
_cell_length_b	19.077142
_cell_length_c	21.395355
_cell_angle_alpha	92.323124
_cell_angle_beta	89.979451
_cell_angle_gamma	92.274848
loop_
_atom_site_label
_atom_site_type_symbol
_atom_site_fract_x
_atom_site_fract_y
_atom_site_fract_z
Zn1	Zn	-0.288077	-1.075993	-0.392718
Zn2	Zn	0.045256	-0.742660	-0.059385
Zn3	Zn	0.378589	-0.409326	0.273949
Zn4	Zn	-0.392833	-1.075885	-0.287933
Zn5	Zn	-0.059500	-0.742552	0.045400
Zn6	Zn	0.273833	-0.409219	0.378734
Zn7	Zn	-0.283858	-0.958285	-0.283747
Zn8	Zn	0.049475	-0.624952	0.049587
Zn9	Zn	0.382808	-0.291619	0.382920
Zn10	Zn	-0.388601	-0.958253	-0.388468
Zn11	Zn	-0.055268	-0.624919	-0.055134
Zn12	Zn	0.278066	-0.291586	0.278199
O13	O	-0.338342	-1.017104	-0.338216
O14	O	-0.005009	-0.683771	-0.004883
O15	O	0.328324	-0.350437	0.328450
O16	O	-0.305510	-1.174470	-0.382349
O17	O	0.027823	-0.841136	-0.049015
O18	O	0.361156	-0.507803	0.284318
O19	O	-0.378383	-1.060254	-0.199699
O20	O	-0.045050	-0.726921	0.133635
O21	O	0.288284	-0.393587	0.466968
O22	O	-0.196742	-0.973958	-0.298229
O23	O	0.136591	-0.640625	0.035105
O24	O	0.469924	-0.307292	0.368438
O25	O	-0.382474	-1.174391	-0.305363
O26	O	-0.049141	-0.841057	0.027970
O27	O	0.284193	-0.507724	0.361303
O28	O	-0.199842	-1.060438	-0.378289
O29	O	0.133492	-0.727104	-0.044956
O30	O	0.466825	-0.393771	0.288377
O31	O	-0.298320	-0.973854	-0.196623
O32	O	0.035013	-0.640521	0.136710
O33	O	0.368347	-0.307187	0.470044
O34	O	-0.294216	-0.859790	-0.294108
O35	O	0.039117	-0.526457	0.039226
O36	O	0.372451	-0.193123	0.372559
O37	O	-0.375260	-0.973902	-0.476711
O38	O	-0.041927	-0.640569	-0.143377
O39	O	0.291406	-0.307236	0.189956
O40	O	-0.371170	-0.859766	-0.371046
O41	O	-0.037836	-0.526433	-0.037712
O42	O	0.295497	-0.193099	0.295621
O43	O	-0.301406	-1.060406	-0.479833
O44	O	0.031927	-0.727073	-0.146500
O45	O	0.365260	-0.393739	0.186834
O46	O	-0.479948	-1.060222	-0.301242
O47	O	-0.146614	-0.726889	0.032091
O48	O	0.186719	-0.393556	0.365424
O49	O	-0.476838	-0.973798	-0.375105
O50	O	-0.143505	-0.640465	-0.041772
O51	O	0.189829	-0.307131	0.291562
C52	C	-0.331776	-0.834240	-0.331662
C53	C	0.001557	-0.500907	0.001672
C54	C	0.334890	-0.167574	0.335005
C55	C	-0.328982	-0.756011	-0.328872
C56	C	0.004351	-0.422677	0.004461
C57	C	0.337684	-0.089344	0.337794
C58	C	-0.367796	-0.719264	-0.367556
C59	C	-0.034462	-0.385931	-0.034223
C60	C	0.298871	-0.052597	0.299110
C61	C	-0.365162	-0.645759	-0.364939
C62	C	-0.031829	-0.312425	-0.031605
C63	C	0.301504	0.020908	0.301728
C64	C	-0.323718	-0.609001	-0.323633
C65	C	0.009615	-0.275668	0.009700
C66	C	0.342949	0.057665	0.343034
C67	C	-0.284900	-0.645753	-0.284947
C68	C	0.048433	-0.312420	0.048386
C69	C	0.381766	0.020913	0.381719
C70	C	-0.287531	-0.719257	-0.287569
C71	C	0.045802	-0.385924	0.045765
C72	C	0.379136	-0.052590	0.379098
C73	C	-0.311544	-0.389167	-0.311507
C74	C	0.021789	-0.055834	0.021826
C75	C	0.355123	0.277499	0.355159
C76	C	-0.308917	-0.315658	-0.308888
C77	C	0.024416	0.017675	0.024446
C78	C	0.357749	0.351008	0.357779
C79	C	-0.389179	-0.315669	-0.388880
C80	C	-0.055846	0.017665	-0.055547
C81	C	0.277488	0.350998	0.277787
C82	C	-0.391809	-0.389174	-0.391495
C83	C	-0.058475	-0.055841	-0.058162
C84	C	0.274858	0.277493	0.275172
C85	C	-0.352989	-0.425920	-0.352812
C86	C	-0.019655	-0.092586	-0.019478
C87	C	0.313678	0.240747	0.313855
N88	N	-0.321026	-0.533867	-0.320955
N89	N	0.012307	-0.200534	0.012378
N90	N	0.345640	0.132800	0.345712
N91	N	-0.355677	-0.501052	-0.355494
N92	N	-0.022344	-0.167719	-0.022160
N93	N	0.310989	0.165614	0.311173
C94	C	-0.501127	-1.017014	-0.338181
C95	C	-0.167794	-0.683681	-0.004848
C96	C	0.165540	-0.350347	0.328486
C97	C	-0.570769	-1.017040	-0.338189
C98	C	-0.237436	-0.683707	-0.004856
C99	C	0.095898	-0.350373	0.328478
C100	C	-0.605038	-1.062044	-0.379904
C101	C	-0.271705	-0.728711	-0.046571
C102	C	0.061628	-0.395377	0.286762
C103	C	-0.670475	-1.062069	-0.379921
C104	C	-0.337141	-0.728735	-0.046587
C105	C	-0.003808	-0.395402	0.286746
C106	C	-0.701639	-1.017097	-0.338211
C107	C	-0.368306	-0.683764	-0.004877
C108	C	-0.034973	-0.350430	0.328456
C109	C	-0.667362	-0.972084	-0.296492
C110	C	-0.334029	-0.638751	0.036841
C111	C	-0.000695	-0.305417	0.370174
C112	C	-0.601927	-0.972056	-0.296482
C113	C	-0.268593	-0.638722	0.036852
C114	C	0.064740	-0.305389	0.370185
C115	C	-0.805143	-1.011618	-0.281576
C116	C	-0.471810	-0.678285	0.051757
C117	C	-0.138477	-0.344952	0.385091
C118	C	-0.870577	-1.011652	-0.281586
C119	C	-0.537244	-0.678318	0.051747
C120	C	-0.203911	-0.344985	0.385081
C121	C	-0.903463	-1.017180	-0.338244
C122	C	-0.570130	-0.683847	-0.004911
C123	C	-0.236796	-0.350514	0.328423
C124	C	-0.870907	-1.022691	-0.394894
C125	C	-0.537574	-0.689357	-0.061561
C126	C	-0.204240	-0.356024	0.271772
C127	C	-0.805472	-1.022662	-0.394884
C128	C	-0.472139	-0.689329	-0.061550
C129	C	-0.138805	-0.355995	0.271783
C130	C	-0.772593	-1.017122	-0.338218
C131	C	-0.439259	-0.683789	-0.004884
C132	C	-0.105926	-0.350456	0.328449
C133	C	-1.008686	-1.062214	-0.379980
C134	C	-0.675353	-0.728880	-0.046647
C135	C	-0.342019	-0.395547	0.286687
C136	C	-1.074123	-1.062233	-0.379997
C137	C	-0.740790	-0.728900	-0.046664
C138	C	-0.407457	-0.395567	0.286670
C139	C	-1.071009	-0.972252	-0.296563
C140	C	-0.737676	-0.638919	0.036770
C141	C	-0.404343	-0.305586	0.370103
C142	C	-1.005573	-0.972229	-0.296552
C143	C	-0.672240	-0.638896	0.036782
C144	C	-0.338907	-0.305562	0.370115
C145	C	-0.974416	-1.017213	-0.338259
C146	C	-0.641082	-0.683880	-0.004926
C147	C	-0.307749	-0.350547	0.328407
C148	C	-0.174923	-1.017214	-0.338266
C149	C	0.158410	-0.683880	-0.004933
C150	C	0.491744	-0.350547	0.328400
C151	C	-0.105283	-1.017260	-0.338287
C152	C	0.228050	-0.683927	-0.004954
C153	C	0.561383	-0.350594	0.328379
C154	C	-0.338332	-1.017163	-0.501642
C155	C	-0.004999	-0.683829	-0.168308
C156	C	0.328335	-0.350496	0.165025
C157	C	-0.338327	-1.017187	-0.571284
C158	C	-0.004994	-0.683854	-0.237951
C159	C	0.328339	-0.350521	0.095383
C160	C	-0.344932	-0.200682	-0.344790
C161	C	-0.011598	0.132652	-0.011456
C162	C	0.321735	0.465985	0.321877
C163	C	-0.347731	-0.278912	-0.347572
C164	C	-0.014398	0.054422	-0.014238
C165	C	0.318936	0.387755	0.319095
C166	C	-0.299870	-1.062228	-0.605624
C167	C	0.033464	-0.728894	-0.272291
C168	C	0.366797	-0.395561	0.061043
C169	C	-0.299843	-1.062227	-0.671059
C170	C	0.033491	-0.728894	-0.337726
C171	C	0.366824	-0.395560	-0.004393
C172	C	-0.338285	-1.017193	-0.702153
C173	C	-0.004952	-0.683860	-0.368819
C174	C	0.328382	-0.350526	-0.035486
C175	C	-0.376745	-0.972144	-0.667804
C176	C	-0.043412	-0.638810	-0.334471
C177	C	0.289922	-0.305477	-0.001138
C178	C	-0.376766	-0.972141	-0.602370
C179	C	-0.043433	-0.638808	-0.269037
C180	C	0.289900	-0.305474	0.064297
C181	C	-0.394500	-1.011604	-0.805616
C182	C	-0.061167	-0.678271	-0.472283
C183	C	0.272167	-0.344938	-0.138950
C184	C	-0.394480	-1.011612	-0.871050
C185	C	-0.061147	-0.678279	-0.537716
C186	C	0.272187	-0.344945	-0.204383
C187	C	-0.338219	-1.017197	-0.903974
C188	C	-0.004885	-0.683864	-0.570640
C189	C	0.328448	-0.350531	-0.237307
C190	C	-0.281977	-1.022790	-0.871457
C191	C	0.051357	-0.689456	-0.538123
C192	C	0.384690	-0.356123	-0.204790
C193	C	-0.281998	-1.022787	-0.806022
C194	C	0.051336	-0.689454	-0.472689
C195	C	0.384669	-0.356120	-0.139356
C196	C	-0.338266	-1.017191	-0.773105
C197	C	-0.004932	-0.683857	-0.439772
C198	C	0.328401	-0.350524	-0.106438
C199	C	-0.299729	-1.062239	-1.009266
C200	C	0.033605	-0.728906	-0.675933
C201	C	0.366938	-0.395572	-0.342599
C202	C	-0.299700	-1.062233	-1.074703
C203	C	0.033633	-0.728900	-0.741369
C204	C	0.366966	-0.395566	-0.408036
C205	C	-0.376608	-0.972154	-1.071446
C206	C	-0.043275	-0.638820	-0.738113
C207	C	0.290058	-0.305487	-0.404780
C208	C	-0.376631	-0.972156	-1.006011
C209	C	-0.043298	-0.638823	-0.672678
C210	C	0.290036	-0.305489	-0.339345
C211	C	-0.338192	-1.017202	-0.974925
C212	C	-0.004859	-0.683869	-0.641592
C213	C	0.328475	-0.350536	-0.308258
C214	C	-0.338309	-1.017086	-0.175428
C215	C	-0.004976	-0.683753	0.157905
C216	C	0.328357	-0.350420	0.491239
C217	C	-0.338142	-1.017198	-0.105791
C218	C	-0.004809	-0.683865	0.227542
C219	C	0.328525	-0.350531	0.560875
H220	H	-0.279939	-0.419077	-0.280004
H221	H	0.053395	-0.085743	0.053330
H222	H	0.386728	0.247590	0.386663
N223	N	-0.707445	-1.110619	-0.424909
N224	N	-0.374112	-0.777286	-0.091576
N225	N	-0.040779	-0.443953	0.241758
H226	H	-0.753626	-1.103812	-0.418585
H227	H	-0.420293	-0.770478	-0.085251
H228	H	-0.086959	-0.437145	0.248082
H229	H	-0.695604	-1.099643	-0.469256
H230	H	-0.362271	-0.766310	-0.135923
H231	H	-0.028938	-0.432977	0.197410
H232	H	-0.425558	-0.419097	-0.425129
H233	H	-0.092225	-0.085764	-0.091796
H234	H	0.241108	0.247570	0.241538
N235	N	-0.264225	-0.276023	-0.264317
N236	N	0.069109	0.057311	0.069017
N237	N	0.402442	0.390644	0.402350
H238	H	-0.288566	-0.245511	-0.234146
H239	H	0.044767	0.087822	0.099188
H240	H	0.378100	0.421155	0.432521
H241	H	-0.240053	-0.310509	-0.240253
H242	H	0.093280	0.022824	0.093080
H243	H	0.426614	0.356158	0.426413
N244	N	-0.770356	-1.028600	-0.455979
N245	N	-0.437023	-0.695266	-0.122646
N246	N	-0.103690	-0.361933	0.210688
H247	H	-0.801114	-1.032106	-0.491876
H248	H	-0.467780	-0.698773	-0.158543
H249	H	-0.134447	-0.365440	0.174791
H250	H	-0.741703	-0.985699	-0.460220
H251	H	-0.408370	-0.652366	-0.126886
H252	H	-0.075036	-0.319033	0.206447
H253	H	-0.396769	-0.615843	-0.396439
H254	H	-0.063436	-0.282509	-0.063106
H255	H	0.269898	0.050824	0.270228
H256	H	-0.407951	-0.935483	-0.978051
H257	H	-0.074618	-0.602150	-0.644718
H258	H	0.258715	-0.268817	-0.311385
H259	H	-0.251153	-0.615820	-0.251318
H260	H	0.082181	-0.282486	0.082015
H261	H	0.415514	0.050847	0.415348
N262	N	-0.431047	-0.276037	-0.430601
N263	N	-0.097714	0.057296	-0.097268
N264	N	0.235620	0.390629	0.236066
H265	H	-0.423094	-0.223895	-0.422675
H266	H	-0.089760	0.109438	-0.089341
H267	H	0.243573	0.442772	0.243992
H268	H	-0.421822	-0.288918	-0.475825
H269	H	-0.088488	0.044416	-0.142492
H270	H	0.244845	0.377749	0.190841
N271	N	-0.258369	-1.110813	-0.708110
N272	N	0.074965	-0.777480	-0.374777
N273	N	0.408298	-0.444147	-0.041444
H274	H	-0.228297	-1.082235	-0.734230
H275	H	0.105037	-0.748902	-0.400897
H276	H	0.438370	-0.415569	-0.067564
H277	H	-0.234063	-1.139340	-0.678450
H278	H	0.099271	-0.806007	-0.345117
H279	H	0.432604	-0.472673	-0.011783
N280	N	-0.412502	-0.758903	-0.412105
N281	N	-0.079168	-0.425569	-0.078772
N282	N	0.254165	-0.092236	0.254561
H283	H	-0.402380	-0.746144	-0.456435
H284	H	-0.069047	-0.412810	-0.123102
H285	H	0.264287	-0.079477	0.210231
H286	H	-0.408262	-0.811031	-0.407843
H287	H	-0.074929	-0.477698	-0.074509
H288	H	0.258405	-0.144364	0.258824
H289	H	-1.102024	-1.098881	-0.413970
H290	H	-0.768691	-0.765548	-0.080636
H291	H	-0.435358	-0.432214	0.252697
H292	H	-0.255922	-0.749175	-0.256071
H293	H	0.077412	-0.415842	0.077262
H294	H	0.410745	-0.082509	0.410595
N295	N	-0.906366	-1.028659	-0.456010
N296	N	-0.573032	-0.695326	-0.122677
N297	N	-0.239699	-0.361992	0.210657
H298	H	-0.952758	-1.027838	-0.447424
H299	H	-0.619425	-0.694505	-0.114090
H300	H	-0.286092	-0.361171	0.219243
H301	H	-0.893484	-0.987939	-0.482531
H302	H	-0.560151	-0.654605	-0.149198
H303	H	-0.226818	-0.321272	0.184136
N304	N	-0.571434	-1.110552	-0.424896
N305	N	-0.238101	-0.777218	-0.091563
N306	N	0.095232	-0.443885	0.241770
H307	H	-0.524781	-1.103706	-0.418562
H308	H	-0.191447	-0.770373	-0.085228
H309	H	0.141886	-0.437039	0.248105
H310	H	-0.584638	-1.160829	-0.416984
H311	H	-0.251304	-0.827495	-0.083651
H312	H	0.082029	-0.494162	0.249682
H313	H	-0.983316	-1.098841	-0.413943
H314	H	-0.649983	-0.765507	-0.080610
H315	H	-0.316650	-0.432174	0.252724
N316	N	-1.104613	-0.923740	-0.251580
N317	N	-0.771280	-0.590407	0.081754
N318	N	-0.437946	-0.257073	0.415087
H319	H	-1.151267	-0.930585	-0.257917
H320	H	-0.817933	-0.597251	0.075416
H321	H	-0.484600	-0.263918	0.408750
H322	H	-1.093584	-0.934713	-0.207231
H323	H	-0.760251	-0.601380	0.126103
H324	H	-0.426918	-0.268047	0.459436
N325	N	-0.968607	-0.923694	-0.251554
N326	N	-0.635273	-0.590361	0.081779
N327	N	-0.301940	-0.257028	0.415113
H328	H	-0.998277	-0.895209	-0.225131
H329	H	-0.664943	-0.561875	0.108202
H330	H	-0.331610	-0.228542	0.441535
H331	H	-0.942478	-0.952352	-0.223604
H332	H	-0.609144	-0.619018	0.109730
H333	H	-0.275811	-0.285685	0.443063
N334	N	-0.455138	-1.005579	-0.906116
N335	N	-0.121805	-0.672246	-0.572783
N336	N	0.211528	-0.338912	-0.239450
H337	H	-0.446589	-1.006433	-0.952564
H338	H	-0.113256	-0.673100	-0.619231
H339	H	0.220077	-0.339767	-0.285898
H340	H	-0.484616	-1.046258	-0.896144
H341	H	-0.151283	-0.712925	-0.562810
H342	H	0.182050	-0.379592	-0.229477
H343	H	-0.897080	-1.007169	-0.235458
H344	H	-0.563746	-0.673836	0.097876
H345	H	-0.230413	-0.340503	0.431209
N346	N	-0.221343	-1.028820	-0.770950
N347	N	0.111990	-0.695487	-0.437616
N348	N	0.445324	-0.362153	-0.104283
H349	H	-0.185696	-1.032361	-0.801731
H350	H	0.147637	-0.699028	-0.468398
H351	H	0.480971	-0.365694	-0.135064
H352	H	-0.213994	-0.985941	-0.742252
H353	H	0.119339	-0.652607	-0.408918
H354	H	0.452672	-0.319274	-0.075585
N355	N	-0.769676	-1.005647	-0.220463
N356	N	-0.436343	-0.672314	0.112870
N357	N	-0.103010	-0.338981	0.446204
H358	H	-0.800228	-1.002166	-0.184578
H359	H	-0.466894	-0.668833	0.148755
H360	H	-0.133561	-0.335500	0.482088
H361	H	-0.744031	-1.048521	-0.216208
H362	H	-0.410698	-0.715188	0.117126
H363	H	-0.077364	-0.381854	0.450459
H364	H	-0.408082	-0.935460	-0.574410
H365	H	-0.074749	-0.602127	-0.241077
H366	H	0.258585	-0.268794	0.092256
N367	N	-0.700971	-0.923579	-0.251504
N368	N	-0.367637	-0.590245	0.081830
N369	N	-0.034304	-0.256912	0.415163
H370	H	-0.747624	-0.930428	-0.257838
H371	H	-0.414291	-0.597094	0.075495
H372	H	-0.080958	-0.263761	0.408829
H373	H	-0.689937	-0.934555	-0.207157
H374	H	-0.356604	-0.601221	0.126176
H375	H	-0.023271	-0.267888	0.459510
H376	H	-0.574024	-0.935407	-0.262511
H377	H	-0.240691	-0.602074	0.070822
H378	H	0.092643	-0.268740	0.404155
N379	N	-0.258411	-1.110810	-0.572095
N380	N	0.074922	-0.777477	-0.238762
N381	N	0.408255	-0.444143	0.094571
H382	H	-0.234044	-1.139343	-0.603783
H383	H	0.099290	-0.806009	-0.270449
H384	H	0.432623	-0.472676	0.062884
H385	H	-0.228395	-1.082180	-0.543914
H386	H	0.104939	-0.748847	-0.210581
H387	H	0.438272	-0.415514	0.122752
H388	H	-0.236164	-1.027339	-0.898262
H389	H	0.097170	-0.694005	-0.564929
H390	H	0.430503	-0.360672	-0.231595
N391	N	-0.258270	-1.110819	-0.975731
N392	N	0.075063	-0.777486	-0.642398
N393	N	0.408396	-0.444153	-0.309065
H394	H	-0.233899	-1.139349	-1.007418
H395	H	0.099435	-0.806016	-0.674084
H396	H	0.432768	-0.472683	-0.340751
H397	H	-0.228258	-1.082189	-0.947547
H398	H	0.105076	-0.748856	-0.614214
H399	H	0.438409	-0.415523	-0.280880
N400	N	-0.258207	-1.110802	-1.111744
N401	N	0.075126	-0.777469	-0.778411
N402	N	0.408459	-0.444135	-0.445077
H403	H	-0.233860	-1.139334	-1.082119
H404	H	0.099474	-0.806001	-0.748786
H405	H	0.432807	-0.472668	-0.415452
H406	H	-0.284865	-1.143356	-1.140074
H407	H	0.048468	-0.810023	-0.806741
H408	H	0.381801	-0.476690	-0.473408
N409	N	-0.418067	-0.923574	-1.104973
N410	N	-0.084733	-0.590241	-0.771639
N411	N	0.248600	-0.256907	-0.438306
H412	H	-0.412217	-0.930408	-1.151636
H413	H	-0.078884	-0.597074	-0.818303
H414	H	0.254450	-0.263741	-0.484970
H415	H	-0.463211	-0.934496	-1.093930
H416	H	-0.129878	-0.601163	-0.760596
H417	H	0.203455	-0.267830	-0.427263
H418	H	-0.440296	-1.006868	-0.778808
H419	H	-0.106963	-0.673534	-0.445475
H420	H	0.226371	-0.340201	-0.112142
N421	N	-0.418198	-0.923559	-0.701335
N422	N	-0.084864	-0.590226	-0.368002
N423	N	0.248469	-0.256893	-0.034669
H424	H	-0.412348	-0.930394	-0.747999
H425	H	-0.079014	-0.597060	-0.414666
H426	H	0.254319	-0.263727	-0.081332
H427	H	-0.463344	-0.934472	-0.690293
H428	H	-0.130011	-0.601139	-0.356960
H429	H	0.203323	-0.267806	-0.023627
