data_functionalizedCrystal
_audit_creation_method	'MofGen! by Chris Wilmer'
_symmetry_space_group_name_H-M	'P1'
_symmetry_Int_Tables_number	1
_symmetry_cell_setting	triclinic
loop_
_symmetry_equiv_pos_as_xyz
  x,y,z
_cell_length_a	30.711242
_cell_length_b	30.706025
_cell_length_c	30.700862
_cell_angle_alpha	120.000090
_cell_angle_beta	89.998958
_cell_angle_gamma	120.016814
loop_
_atom_site_label
_atom_site_type_symbol
_atom_site_fract_x
_atom_site_fract_y
_atom_site_fract_z
O1	O	0.298559	-0.384233	-0.012985
O2	O	0.235273	-0.295032	0.012876
O3	O	0.235239	-0.384230	-0.076326
O4	O	0.298593	-0.295035	0.076217
O5	O	0.307688	-0.311779	-0.076318
O6	O	0.307722	-0.222582	0.012884
O7	O	0.371007	-0.311782	-0.012977
Cu8	Cu	0.345980	-0.260567	-0.000046
Cu9	Cu	0.260301	-0.346248	-0.000055
O10	O	0.371042	-0.222585	0.076225
C11	C	0.110241	0.007428	0.039175
C12	C	0.136559	-0.018657	0.039545
C13	C	0.031366	-0.071446	0.039178
C14	C	0.057804	-0.097411	0.039548
C15	C	0.110216	-0.071445	0.039179
C16	C	0.057829	-0.018658	0.039544
C17	C	0.158444	0.183347	0.024884
C18	C	0.183278	0.233173	0.020843
C19	C	0.235215	0.258166	0.018815
C20	C	0.262140	0.312183	0.014424
C21	C	0.262318	0.233334	0.020832
C22	C	0.237487	0.183518	0.024880
C23	C	0.185548	0.158525	0.026906
C24	C	0.237916	-0.133890	0.024902
C25	C	0.262899	-0.162753	0.020865
C26	C	0.235941	-0.216726	0.018839
C27	C	0.263021	-0.248031	0.014455
C28	C	0.183997	-0.241830	0.020855
C29	C	0.159018	-0.212962	0.024901
C30	C	0.185983	-0.158989	0.026920
C31	C	-0.158800	-0.133893	0.024899
C32	C	-0.212659	-0.162761	0.020855
C33	C	-0.239689	-0.216734	0.018831
C34	C	-0.298087	-0.248039	0.014444
C35	C	-0.212859	-0.241837	0.020846
C36	C	-0.159002	-0.212968	0.024887
C37	C	-0.131975	-0.158992	0.026918
C38	C	0.158625	0.104503	0.031289
C39	C	0.137164	0.061445	0.034786
C40	C	-0.027029	-0.102747	0.034794
C41	C	-0.073577	-0.127695	0.031300
C42	C	0.137301	-0.102745	0.034795
C43	C	0.158892	-0.127694	0.031302
O44	O	-0.317330	-0.222590	0.012874
O45	O	-0.469845	-0.311793	-0.012988
O46	O	-0.380655	-0.222586	0.076214
O47	O	-0.406519	-0.311797	-0.076328
O48	O	-0.380678	-0.295029	0.076218
O49	O	-0.469868	-0.384236	-0.012984
O50	O	-0.317353	-0.295033	0.012878
Cu51	Cu	-0.393612	-0.346249	-0.000053
Cu52	Cu	-0.393585	-0.260577	-0.000058
O53	O	-0.406542	-0.384240	-0.076324
C54	C	0.110048	-0.535723	-0.503979
C55	C	0.057625	-0.588516	-0.530319
C56	C	0.110048	-0.535723	-0.425103
C57	C	0.057625	-0.588516	-0.451563
C58	C	0.031169	-0.614604	-0.503987
C59	C	0.136384	-0.509755	-0.451555
C60	C	0.237822	-0.393670	-0.552130
C61	C	0.262826	-0.364630	-0.576953
C62	C	0.235874	-0.389556	-0.628902
C63	C	0.262978	-0.358065	-0.655817
C64	C	0.183917	-0.443529	-0.656028
C65	C	0.158920	-0.472570	-0.631207
C66	C	0.185875	-0.447638	-0.579255
C67	C	-0.159041	-0.790543	-0.631767
C68	C	-0.212907	-0.840374	-0.656773
C69	C	-0.239930	-0.865370	-0.629826
C70	C	-0.298336	-0.919393	-0.656930
C71	C	-0.213082	-0.840535	-0.577870
C72	C	-0.159216	-0.790714	-0.552868
C73	C	-0.132199	-0.765718	-0.579823
C74	C	0.237823	-0.393669	-0.234880
C75	C	0.262825	-0.364624	-0.181009
C76	C	0.235873	-0.389551	-0.153990
C77	C	0.262977	-0.358059	-0.095580
C78	C	0.183918	-0.443518	-0.180842
C79	C	0.158919	-0.472559	-0.234710
C80	C	0.185878	-0.447633	-0.261727
C81	C	0.158764	-0.479130	-0.552343
C82	C	0.137155	-0.504232	-0.530891
C83	C	0.137156	-0.504231	-0.366695
C84	C	0.158764	-0.479129	-0.320137
C85	C	-0.027236	-0.668627	-0.531096
C86	C	-0.073791	-0.711690	-0.552706
C87	C	0.371612	-0.469670	-0.018881
C88	C	0.344721	-0.523432	-0.015189
C89	C	0.424025	-0.443583	-0.019247
C90	C	0.371644	-0.390786	-0.018870
C91	C	0.344787	-0.360205	-0.015166
C92	C	0.424057	-0.364819	-0.019237
C93	C	0.450491	-0.390789	-0.018872
C94	C	0.507939	-0.360210	-0.015171
C95	C	0.345297	-0.443580	-0.019245
O96	O	0.370915	0.456542	-0.013008
O97	O	0.307555	0.329866	0.012848
O98	O	0.307547	0.329847	-0.076351
O99	O	0.370923	0.456562	0.076192
O100	O	0.235126	0.329846	-0.076352
O101	O	0.235134	0.329866	0.012848
O102	O	0.298494	0.456542	-0.013008
Cu103	Cu	0.260201	0.393204	-0.000080
Cu104	Cu	0.345847	0.393204	-0.000080
O105	O	0.298502	0.456562	0.076191
O106	O	-0.470123	-1.063770	-0.692543
O107	O	-0.317594	-0.937077	-0.629192
O108	O	-0.406753	-0.937074	-0.629187
O109	O	-0.380965	-1.063773	-0.692547
O110	O	-0.406755	-0.937076	-0.701633
O111	O	-0.317597	-0.937079	-0.701638
O112	O	-0.470125	-1.063772	-0.764989
Cu113	Cu	-0.393861	-1.000426	-0.739928
Cu114	Cu	-0.393858	-1.000423	-0.654252
O115	O	-0.380967	-1.063775	-0.764994
O116	O	0.298596	-0.295032	-0.764575
O117	O	0.235238	-0.384231	-0.701244
O118	O	0.235274	-0.295031	-0.701231
O119	O	0.298560	-0.384231	-0.764588
O120	O	0.307722	-0.222582	-0.628778
O121	O	0.307685	-0.311782	-0.628791
O122	O	0.371044	-0.222583	-0.692121
Cu123	Cu	0.345980	-0.260567	-0.653840
Cu124	Cu	0.260302	-0.346246	-0.739525
O125	O	0.371007	-0.311782	-0.692134
C126	C	0.450592	-0.137152	0.234772
C127	C	0.508049	-0.083392	0.261655
C128	C	0.424137	-0.163239	0.261105
C129	C	0.371713	-0.216033	0.155889
C130	C	0.344831	-0.246613	0.098430
C131	C	0.345377	-0.242001	0.182341
C132	C	0.371714	-0.216032	0.234765
C133	C	0.344833	-0.246611	0.261641
C134	C	0.424136	-0.163240	0.182348
C135	C	-0.374794	-0.216023	0.234760
C136	C	-0.378505	-0.246598	0.261641
C137	C	-0.374413	-0.163234	0.261093
C138	C	-0.374783	-0.216029	0.155881
C139	C	-0.378483	-0.246610	0.098424
C140	C	-0.374402	-0.163240	0.182334
C141	C	-0.374769	-0.137150	0.234756
C142	C	-0.378454	-0.083394	0.261631
C143	C	-0.374427	-0.241992	0.182339
C144	C	0.371657	0.609250	0.234742
C145	C	0.344801	0.639834	0.261622
C146	C	0.424071	0.635221	0.261077
C147	C	0.371623	0.530359	0.155860
C148	C	0.344730	0.476591	0.098401
C149	C	0.424037	0.556449	0.182316
C150	C	0.450505	0.609249	0.234740
C151	C	0.507954	0.639830	0.261619
C152	C	0.345308	0.556451	0.182317
C153	C	-0.432857	-0.614285	-0.503971
C154	C	-0.433213	-0.588201	-0.530308
C155	C	-0.432843	-0.535406	-0.425096
C156	C	-0.433199	-0.509442	-0.451554
C157	C	-0.432832	-0.535411	-0.503975
C158	C	-0.433224	-0.588195	-0.451549
C159	C	-0.418631	-0.790208	-0.552124
C160	C	-0.414607	-0.840035	-0.576947
C161	C	-0.412581	-0.865032	-0.628894
C162	C	-0.408208	-0.919051	-0.655809
C163	C	-0.414584	-0.840202	-0.656017
C164	C	-0.418615	-0.790384	-0.631196
C165	C	-0.420638	-0.765387	-0.579247
C166	C	-0.418518	-0.472976	-0.631744
C167	C	-0.414468	-0.444114	-0.656747
C168	C	-0.412426	-0.390141	-0.629799
C169	C	-0.408028	-0.358838	-0.656900
C170	C	-0.414440	-0.365033	-0.577845
C171	C	-0.418499	-0.393899	-0.552847
C172	C	-0.420534	-0.447873	-0.579802
C173	C	-0.418573	-0.472947	-0.234881
C174	C	-0.414528	-0.444075	-0.181012
C175	C	-0.412488	-0.390101	-0.153992
C176	C	-0.408099	-0.358792	-0.095584
C177	C	-0.414488	-0.364999	-0.180842
C178	C	-0.418531	-0.393871	-0.234708
C179	C	-0.420578	-0.447850	-0.261726
C180	C	-0.425004	-0.711364	-0.552335
C181	C	-0.428486	-0.668303	-0.530883
C182	C	-0.428457	-0.504101	-0.366690
C183	C	-0.424962	-0.479150	-0.320134
C184	C	-0.428434	-0.504113	-0.531081
C185	C	-0.424930	-0.479167	-0.552689
O186	O	-0.406563	-0.311751	0.371222
O187	O	-0.380687	-0.222568	0.307875
O188	O	-0.469882	-0.311767	0.307860
O189	O	-0.317369	-0.222552	0.371237
O190	O	-0.469895	-0.384216	0.235417
O191	O	-0.380700	-0.295017	0.235432
O192	O	-0.406577	-0.384200	0.298779
Cu193	Cu	-0.393639	-0.346224	0.260491
Cu194	Cu	-0.393624	-0.260544	0.346163
O195	O	-0.317382	-0.295001	0.298794
C196	C	0.031313	-0.071565	-0.504016
C197	C	0.057748	-0.097537	-0.530353
C198	C	0.110195	0.007325	-0.425136
C199	C	0.136510	-0.018767	-0.451593
C200	C	0.110162	-0.071566	-0.504017
C201	C	0.057781	-0.018766	-0.451592
C202	C	-0.158855	-0.134017	-0.552182
C203	C	-0.212714	-0.162885	-0.577009
C204	C	-0.239749	-0.216868	-0.628959
C205	C	-0.298149	-0.248178	-0.655877
C206	C	-0.212920	-0.241979	-0.656081
C207	C	-0.159064	-0.213106	-0.631256
C208	C	-0.132032	-0.159123	-0.579304
C209	C	0.158251	-0.213635	-0.631789
C210	C	0.183057	-0.242680	-0.656792
C211	C	0.234994	-0.217754	-0.629841
C212	C	0.261892	-0.249245	-0.656942
C213	C	0.262128	-0.163775	-0.577884
C214	C	0.237327	-0.134727	-0.552886
C215	C	0.185382	-0.159666	-0.579844
C216	C	0.158420	0.183291	-0.234915
C217	C	0.183257	0.233124	-0.181044
C218	C	0.235196	0.258123	-0.154021
C219	C	0.262128	0.312154	-0.095610
C220	C	0.262294	0.233284	-0.180869
C221	C	0.237455	0.183451	-0.234738
C222	C	0.185518	0.158461	-0.261758
C223	C	-0.073634	-0.127822	-0.552388
C224	C	-0.027085	-0.102870	-0.530933
C225	C	0.137125	0.061356	-0.366727
C226	C	0.158590	0.104426	-0.320169
C227	C	0.137055	-0.103061	-0.531123
C228	C	0.158492	-0.128166	-0.552731
H229	H	0.036607	0.003179	0.040140
F230	F	0.289077	-0.297523	0.154577
F231	F	0.451762	-0.472128	-0.020034
F232	F	0.451903	-0.134708	0.317401
H233	H	0.445319	0.677707	0.304152
F234	F	0.289021	0.527914	0.154554
H235	H	-0.373801	-0.141413	0.161090
H236	H	0.259523	0.163231	-0.256595
H237	H	-0.373858	-0.284480	0.161099
H238	H	0.445377	-0.141404	0.161113
F239	F	-0.241477	-0.866798	-0.712064
F240	F	-0.373630	-0.134690	0.317393
F241	F	-0.412472	-0.866454	-0.548079
H242	H	-0.433777	-0.466961	-0.430313
F243	F	0.030034	-0.152932	0.040324
H244	H	0.445257	0.534610	0.161073
H245	H	0.304420	-0.143475	-0.555942
F246	F	0.155238	-0.470056	-0.711315
H247	H	-0.136797	-0.089943	0.026551
H248	H	-0.234500	-0.142318	0.019214
H249	H	-0.420243	-0.516901	-0.256877
F250	F	0.154413	0.259554	-0.152473
F251	F	0.103165	0.156748	0.027034
H252	H	-0.433813	-0.610042	-0.573382
H253	H	-0.412895	-0.464516	-0.159154
H254	H	0.302233	-0.465413	-0.019836
H255	H	-0.433824	-0.610026	-0.430309
H256	H	0.305124	-0.320676	-0.159148
F257	F	0.451831	-0.309291	-0.020003
F258	F	-0.420786	-0.763611	-0.496838
H259	H	-0.412938	-0.860562	-0.698313
F260	F	-0.420750	-0.763965	-0.660064
H261	H	-0.420178	-0.516924	-0.653696
F262	F	-0.130090	-0.076564	-0.496892
H263	H	-0.420139	-0.373454	-0.510548
F264	F	-0.412325	-0.470837	-0.712036
H265	H	-0.412784	-0.321089	-0.555905
H266	H	-0.420158	-0.373427	-0.256565
F267	F	-0.412315	-0.307553	-0.152085
F268	F	0.192799	0.009772	-0.423829
H269	H	0.036493	-0.140029	-0.573425
H270	H	0.036556	0.003068	-0.430353
H271	H	0.116135	0.162956	-0.256916
H272	H	-0.234553	-0.142436	-0.554923
F273	F	-0.241693	-0.299426	-0.711369
H274	H	0.161206	0.253385	0.019200
H275	H	-0.137224	-0.233553	-0.653343
H276	H	0.115959	-0.233943	-0.653743
F277	F	0.154177	-0.300125	-0.712083
H278	H	0.259423	-0.090777	-0.510585
H279	H	0.304589	0.253645	-0.158865
H280	H	0.179625	0.003182	0.040144
H281	H	0.304607	0.253691	0.019184
H282	H	0.259875	-0.089944	0.026548
F283	F	0.318177	-0.136036	0.018716
F284	F	0.155307	-0.299266	0.018706
F285	F	0.103741	-0.239678	0.027049
F286	F	-0.130452	-0.239687	0.027033
F287	F	0.266334	0.157097	0.027029
H288	H	-0.234870	-0.285785	0.019198
H289	H	0.036384	-0.610342	-0.430321
H290	H	0.036387	-0.610349	-0.573393
F291	F	0.266516	-0.367137	-0.263631
F292	F	0.266512	-0.367130	-0.496839
F293	F	0.192684	-0.454233	-0.423791
H294	H	0.305127	-0.320685	-0.554864
F295	F	-0.130290	-0.763946	-0.660455
F296	F	0.103630	-0.530009	-0.660077
H297	H	-0.137359	-0.770499	-0.510568
F298	F	0.103627	-0.529996	-0.263285
F299	F	-0.241838	-0.867142	-0.549191
H300	H	0.161971	-0.463812	-0.158839
