data_functionalizedCrystal
_audit_creation_method	'MofGen! by Chris Wilmer'
_symmetry_space_group_name_H-M	'P1'
_symmetry_Int_Tables_number	1
_symmetry_cell_setting	triclinic
loop_
_symmetry_equiv_pos_as_xyz
  x,y,z
_cell_length_a	16.109301
_cell_length_b	15.995350
_cell_length_c	14.586319
_cell_angle_alpha	89.998440
_cell_angle_beta	89.999213
_cell_angle_gamma	83.476928
loop_
_atom_site_label
_atom_site_type_symbol
_atom_site_fract_x
_atom_site_fract_y
_atom_site_fract_z
O1	O	1.103160	0.107624	-0.076178
O2	O	0.861101	0.121018	-0.076192
O3	O	0.988747	-0.007569	-0.076184
O4	O	0.975514	0.236210	-0.076186
O5	O	0.988739	-0.007570	0.076297
O6	O	0.861093	0.121016	0.076289
O7	O	1.103151	0.107622	0.076303
Cu8	Cu	0.982121	0.114319	0.090219
Cu9	Cu	0.982131	0.114321	-0.090107
O10	O	0.975505	0.236208	0.076295
C11	C	0.830122	0.120474	0.000047
C12	C	0.737826	0.118848	0.000041
C13	C	0.515573	0.191366	0.000051
C14	C	0.428853	0.189831	0.000057
C15	C	0.448686	0.037268	0.000055
C16	C	0.535405	0.038804	0.000055
C17	C	0.568846	0.115855	0.000049
C18	C	0.395406	0.112785	0.000054
C19	C	0.301380	0.111120	0.000061
C20	C	0.662879	0.117520	0.000044
C21	C	0.988196	-0.038764	0.000055
C22	C	0.986556	-0.131714	0.000050
C23	C	0.980665	-0.469460	0.000053
C24	C	0.889758	-0.422001	-0.000295
C25	C	0.891399	-0.325311	0.000049
C26	C	0.983587	-0.301900	0.000051
C27	C	1.028421	-0.342991	0.087126
C28	C	1.026137	-0.439626	0.087198
C29	C	1.028025	-0.439983	-0.086201
C30	C	1.028003	-0.343037	-0.087351
C31	C	0.985243	-0.207203	0.000053
C32	C	0.979012	-0.564157	0.000057
C33	C	1.134130	0.108166	0.000062
C34	C	1.226426	0.109792	0.000062
C35	C	0.976056	0.267404	0.000054
C36	C	0.977697	0.360354	0.000053
N37	N	0.982120	0.114317	0.217050
N38	N	0.982139	0.114317	-0.216939
C39	C	1.038660	0.057398	0.452061
C40	C	1.038662	0.057396	0.548042
C41	C	0.925593	0.171238	0.548044
C42	C	0.925587	0.171236	0.452064
C43	C	0.982125	0.114316	0.404075
C44	C	0.982134	0.114317	0.596036
C45	C	0.982136	0.114315	0.700103
C46	C	0.982122	0.114317	0.300001
H47	H	0.578782	-0.022690	0.000056
O48	O	0.846513	-0.444218	-0.074810
C49	C	0.897835	-0.502988	-0.127794
H50	H	0.949227	-0.536110	-0.082674
H51	H	0.927182	-0.468946	-0.186016
C52	C	0.781707	-0.527749	-0.223386
C53	C	0.844824	-0.568435	-0.167968
H54	H	0.749008	-0.568118	-0.248172
H55	H	0.747131	-0.488152	-0.187693
H56	H	0.806173	-0.499382	-0.271898
H57	H	0.820357	-0.596792	-0.119452
H58	H	0.879395	-0.608038	-0.203654
H59	H	1.095050	-0.471762	-0.086785
O60	O	1.093605	0.002023	0.405585
C61	C	1.143516	-0.048201	0.468525
H62	H	1.109434	-0.049153	0.536945
H63	H	1.205277	-0.020998	0.478726
C64	C	1.202510	-0.137358	0.347038
C65	C	1.160646	-0.138532	0.431071
H66	H	1.213080	-0.193077	0.323934
H67	H	1.168886	-0.103519	0.304633
H68	H	1.253972	-0.114684	0.355551
H69	H	1.109180	-0.161194	0.422556
H70	H	1.194261	-0.172376	0.473474
O71	O	0.377222	0.263260	0.000015
C72	C	0.425338	0.331592	0.000035
H73	H	0.490061	0.310323	-0.028835
H74	H	0.431514	0.355209	0.073187
C75	C	0.302632	0.429185	-0.024304
C76	C	0.382123	0.403064	-0.059770
H77	H	0.275974	0.473275	-0.061190
H78	H	0.270214	0.383150	-0.024313
H79	H	0.307790	0.448861	0.036655
H80	H	0.376964	0.383380	-0.120723
H81	H	0.414539	0.449098	-0.059772
H82	H	0.879546	0.217586	0.412992
O83	O	1.093468	0.002024	0.594695
C84	C	1.048951	-0.049635	0.650235
H85	H	0.983386	-0.051069	0.621316
H86	H	1.044596	-0.023432	0.722976
C87	C	1.175302	-0.137759	0.687226
C88	C	1.094776	-0.139527	0.651703
H89	H	1.203571	-0.193209	0.688136
H90	H	1.205295	-0.102955	0.649811
H91	H	1.171662	-0.115920	0.747841
H92	H	1.098418	-0.161356	0.591086
H93	H	1.064785	-0.174338	0.689108
O94	O	0.870646	0.226416	0.594766
C95	C	0.819349	0.181561	0.650277
H96	H	0.852462	0.116050	0.664656
H97	H	0.757901	0.175855	0.613297
C98	C	0.760919	0.309228	0.723788
C99	C	0.801592	0.228768	0.741454
H100	H	0.749962	0.338349	0.780029
H101	H	0.795476	0.339449	0.686387
H102	H	0.709717	0.304462	0.692969
H103	H	0.852797	0.233536	0.772262
H104	H	0.767043	0.198550	0.778863
H105	H	0.421447	-0.025465	0.000066
O106	O	0.548098	0.266190	-0.000111
C107	C	0.597682	0.271642	-0.079071
H108	H	0.577178	0.227894	-0.134269
H109	H	0.666070	0.252314	-0.061219
C110	C	0.612346	0.416533	-0.047081
C111	C	0.587157	0.362806	-0.114879
H112	H	0.605858	0.472767	-0.069167
H113	H	0.578943	0.412860	0.006118
H114	H	0.669334	0.400416	-0.032210
H115	H	0.530168	0.378916	-0.129740
H116	H	0.620551	0.366484	-0.168081
O117	O	0.849425	-0.291502	-0.074512
C118	C	0.888010	-0.325860	-0.154966
H119	H	0.924819	-0.389218	-0.138534
H120	H	0.932219	-0.281219	-0.182994
C121	C	0.775508	-0.260287	-0.247364
C122	C	0.820711	-0.338108	-0.227184
H123	H	0.733996	-0.267839	-0.291914
H124	H	0.749514	-0.237137	-0.193162
H125	H	0.812357	-0.223095	-0.270716
H126	H	0.783864	-0.375296	-0.203821
H127	H	0.846698	-0.361265	-0.281384
H128	H	1.095231	-0.327694	-0.092608
O129	O	0.846727	-0.445419	0.073851
C130	C	0.898407	-0.504554	0.126020
H131	H	0.966718	-0.497367	0.111212
H132	H	0.885099	-0.570860	0.106969
C133	C	0.796661	-0.498118	0.246931
C134	C	0.880561	-0.489286	0.228750
H135	H	0.785651	-0.488704	0.310299
H136	H	0.761841	-0.458280	0.211783
H137	H	0.785580	-0.553373	0.231048
H138	H	0.891637	-0.434029	0.244621
H139	H	0.915383	-0.529115	0.263903
H140	H	0.993437	-0.457919	0.152287
O141	O	0.848960	-0.292140	0.074609
C142	C	0.765585	-0.310835	0.070669
H143	H	0.761946	-0.368597	0.025704
H144	H	0.724378	-0.254966	0.040376
C145	C	0.739560	-0.257755	0.223251
C146	C	0.735092	-0.328704	0.168031
H147	H	0.720748	-0.268774	0.283308
H148	H	0.795730	-0.245157	0.225905
H149	H	0.705221	-0.211204	0.197996
H150	H	0.769439	-0.375250	0.193279
H151	H	0.678927	-0.341310	0.165383
H152	H	1.092879	-0.471892	0.091150
H153	H	1.096149	-0.328884	0.090365
H154	H	0.998307	-0.460513	-0.152198
O155	O	0.991144	-0.309212	0.164406
C156	C	0.906531	-0.324048	0.165398
H157	H	0.898039	-0.380653	0.120292
H158	H	0.866151	-0.266260	0.138080
C159	C	0.890552	-0.272326	0.319718
C160	C	0.880124	-0.341854	0.264323
H161	H	0.874261	-0.283306	0.380739
H162	H	0.947556	-0.262328	0.319048
H163	H	0.856901	-0.224176	0.296941
H164	H	0.913782	-0.390000	0.287093
H165	H	0.823124	-0.351861	0.264999
H166	H	0.995224	-0.315779	-0.151767
