data_functionalizedCrystal
_audit_creation_method	'MofGen! by Chris Wilmer'
_symmetry_space_group_name_H-M	'P1'
_symmetry_Int_Tables_number	1
_symmetry_cell_setting	triclinic
loop_
_symmetry_equiv_pos_as_xyz
  x,y,z
_cell_length_a	12.594509
_cell_length_b	12.827893
_cell_length_c	12.827892
_cell_angle_alpha	90.015362
_cell_angle_beta	90.027931
_cell_angle_gamma	90.019031
loop_
_atom_site_label
_atom_site_type_symbol
_atom_site_fract_x
_atom_site_fract_y
_atom_site_fract_z
Zn1	Zn	-0.601797	-1.597667	0.416002
Zn2	Zn	-0.101797	-1.097667	0.916002
Zn3	Zn	-0.423819	-1.597562	0.590774
Zn4	Zn	0.076181	-1.097562	1.090774
Zn5	Zn	-0.423833	-1.422909	0.416048
Zn6	Zn	0.076167	-0.922909	0.916048
Zn7	Zn	-0.601757	-1.422894	0.590702
Zn8	Zn	-0.101757	-0.922894	1.090702
O9	O	-0.512802	-1.510258	0.503382
O10	O	-0.012802	-1.010258	1.003382
O11	O	-0.578199	-1.743889	0.439197
O12	O	-0.078199	-1.243889	0.939197
O13	O	-0.274875	-1.574356	0.567645
O14	O	0.225125	-1.074356	1.067645
O15	O	-0.447463	-1.446142	0.269806
O16	O	0.052537	-0.946142	0.769806
O17	O	-0.447440	-1.743812	0.567602
O18	O	0.052560	-1.243812	1.067602
O19	O	-0.578212	-1.574536	0.269772
O20	O	-0.078212	-1.074536	0.769772
O21	O	-0.274885	-1.446040	0.439275
O22	O	0.225115	-0.946040	0.939275
O23	O	-0.447424	-1.276671	0.439205
O24	O	0.052576	-0.776671	0.939205
O25	O	-0.750708	-1.446115	0.567479
O26	O	-0.250708	-0.946115	1.067479
O27	O	-0.578143	-1.276660	0.567522
O28	O	-0.078143	-0.776660	1.067522
O29	O	-0.750738	-1.574521	0.439128
O30	O	-0.250738	-1.074521	0.939128
O31	O	-0.447401	-1.574341	0.737001
O32	O	0.052599	-1.074341	1.237001
O33	O	-0.578130	-1.446013	0.736948
O34	O	-0.078130	-0.946013	1.236948
C35	C	-0.512783	-1.510193	0.774891
C36	C	-0.012783	-1.010193	1.274891
C37	C	-0.512810	-1.510260	0.891045
C38	C	-0.012810	-1.010260	1.391045
C39	C	-0.512781	-1.238748	0.503361
C40	C	-0.012781	-0.738748	1.003361
C41	C	-0.512798	-1.122595	0.503378
C42	C	-0.012798	-0.622595	1.003378
C43	C	-0.790423	-1.510328	0.503290
C44	C	-0.290423	-1.010328	1.003290
C45	C	-0.908728	-1.510358	0.503251
C46	C	-0.408728	-1.010358	1.003251
C47	C	-0.977965	-1.440540	0.573021
C48	C	-0.477965	-0.940540	1.073021
C49	C	-1.048752	-1.535894	0.598554
C50	C	-0.548752	-1.035894	1.098554
C51	C	-1.048741	-1.415078	0.477655
C52	C	-0.548741	-0.915078	0.977655
C53	C	-0.977957	-1.605762	0.528834
C54	C	-0.477957	-1.105762	1.028834
C55	C	-0.977939	-1.484881	0.407890
C56	C	-0.477939	-0.984881	0.907890
C57	C	-1.048694	-1.580301	0.433387
C58	C	-0.548694	-1.080301	0.933387
C59	C	-0.236261	-1.510248	0.503397
C60	C	0.263739	-1.010248	1.003397
C61	C	-0.117956	-1.510421	0.503142
C62	C	0.382044	-1.010421	1.003142
C63	C	-0.512823	-1.782828	0.503402
C64	C	-0.012823	-1.282828	1.003402
C65	C	-0.512831	-1.898981	0.503411
C66	C	-0.012831	-1.398981	1.003411
C67	C	-0.577382	-1.070832	0.566973
C68	C	-0.077382	-0.570832	1.066973
C69	C	-0.577401	-0.950782	0.566991
C70	C	-0.077401	-0.450782	1.066991
C71	C	-0.512844	-1.510352	0.230811
C72	C	-0.012844	-1.010352	0.730811
C73	C	-0.512862	-1.510392	0.114658
C74	C	-0.012862	-1.010392	0.614658
C75	C	-0.448193	-1.573836	0.942821
C76	C	0.051807	-1.073836	1.442821
C77	C	-0.448220	-1.573908	1.062871
C78	C	0.051780	-1.073908	1.562871
H79	H	-0.946910	-1.381544	0.632116
H80	H	-0.446910	-0.881544	1.132116
F81	F	-0.375861	-1.644920	0.884598
F82	F	0.124139	-1.144920	1.384598
F83	F	-0.649671	-0.892602	0.638164
F84	F	-0.149671	-0.392602	1.138164
H85	H	-0.568182	-1.455955	1.070140
H86	H	-0.068182	-0.955955	1.570140
F87	F	-0.375903	-1.645049	1.121067
F88	F	0.124097	-1.145049	1.621067
H89	H	-0.946811	-1.463271	0.327315
H90	H	-0.446811	-0.963271	0.827315
F91	F	-0.440546	-1.064356	0.432223
F92	F	0.059454	-0.564356	0.932223
F93	F	-0.440548	-0.957155	0.432246
F94	F	0.059452	-0.457155	0.932246
H95	H	-1.079856	-1.557477	0.679153
H96	H	-0.579856	-1.057477	1.179153
F97	F	-0.937491	-1.711145	0.557200
F98	F	-0.437491	-1.211145	1.057200
H99	H	-0.632665	-1.115393	0.621401
H100	H	-0.132665	-0.615393	1.121401
F101	F	-0.585153	-1.439188	0.949268
F102	F	-0.085153	-0.939188	1.449268
F103	F	-1.089035	-1.657596	0.356206
F104	F	-0.589035	-1.157596	0.856206
F105	F	-1.089382	-1.309726	0.449415
F106	F	-0.589382	-0.809726	0.949415
