data_functionalizedCrystal
_audit_creation_method	'MofGen! by Chris Wilmer'
_symmetry_space_group_name_H-M	'P1'
_symmetry_Int_Tables_number	1
_symmetry_cell_setting	triclinic
loop_
_symmetry_equiv_pos_as_xyz
  x,y,z
_cell_length_a	17.077404
_cell_length_b	12.759394
_cell_length_c	17.077396
_cell_angle_alpha	89.972850
_cell_angle_beta	89.982756
_cell_angle_gamma	90.015062
loop_
_atom_site_label
_atom_site_type_symbol
_atom_site_fract_x
_atom_site_fract_y
_atom_site_fract_z
Zn1	Zn	1.200081	-0.418252	-0.443855
Zn2	Zn	1.700081	0.081748	0.056145
Zn3	Zn	1.200012	-0.593955	-0.312593
Zn4	Zn	1.700012	-0.093955	0.187407
Zn5	Zn	1.068818	-0.418291	-0.312602
Zn6	Zn	1.568818	0.081709	0.187398
Zn7	Zn	1.068799	-0.593890	-0.443817
Zn8	Zn	1.568799	-0.093890	0.056183
O9	O	1.134428	-0.506097	-0.378217
O10	O	1.634428	-0.006097	0.121783
O11	O	1.309919	-0.441570	-0.426454
O12	O	1.809919	0.058430	0.073546
O13	O	1.182587	-0.570696	-0.202748
O14	O	1.682587	-0.070696	0.297252
O15	O	1.086267	-0.271265	-0.330033
O16	O	1.586267	0.228735	0.169967
O17	O	1.309868	-0.570658	-0.330017
O18	O	1.809868	-0.070658	0.169983
O19	O	1.182706	-0.271236	-0.426463
O20	O	1.682706	0.228764	0.073537
O21	O	1.086200	-0.441637	-0.202754
O22	O	1.586200	0.058363	0.297246
O23	O	0.958969	-0.441574	-0.329996
O24	O	1.458969	0.058426	0.170004
O25	O	1.086235	-0.570547	-0.553669
O26	O	1.586235	-0.070547	-0.053669
O27	O	0.958955	-0.570586	-0.426399
O28	O	1.458955	-0.070586	0.073601
O29	O	1.182687	-0.441507	-0.553697
O30	O	1.682687	0.058493	-0.053697
O31	O	1.182569	-0.740967	-0.329981
O32	O	1.682569	-0.240967	0.170019
O33	O	1.086168	-0.740920	-0.426391
O34	O	1.586168	-0.240920	0.073609
C35	C	0.930480	-0.506078	-0.378195
C36	C	1.430480	-0.006078	0.121805
C37	C	0.843230	-0.506095	-0.378205
C38	C	1.343230	-0.006095	0.121795
C39	C	0.802253	-0.573373	-0.428321
C40	C	1.302253	-0.073373	0.071679
C41	C	0.720273	-0.573375	-0.428334
C42	C	1.220273	-0.073375	0.071666
C43	C	0.679270	-0.506104	-0.378225
C44	C	1.179270	-0.006104	0.121775
C45	C	0.720253	-0.438819	-0.328107
C46	C	1.220253	0.061181	0.171893
C47	C	0.802232	-0.438812	-0.328099
C48	C	1.302232	0.061188	0.171901
C49	C	0.549383	-0.438839	-0.328125
C50	C	1.049383	0.061161	0.171875
C51	C	0.467398	-0.438847	-0.328132
C52	C	0.967398	0.061153	0.171868
C53	C	0.467424	-0.573402	-0.428360
C54	C	0.967424	-0.073402	0.071640
C55	C	0.549403	-0.573396	-0.428352
C56	C	1.049403	-0.073396	0.071648
C57	C	0.590379	-0.506112	-0.378233
C58	C	1.090379	-0.006112	0.121767
C59	C	1.134380	-0.779064	-0.378198
C60	C	1.634380	-0.279064	0.121802
C61	C	1.134432	-0.895841	-0.378216
C62	C	1.634432	-0.395841	0.121784
C63	C	1.234890	-0.895837	-0.277900
C64	C	1.734890	-0.395837	0.222100
C65	C	1.285139	-0.950696	-0.227751
C66	C	1.785139	-0.450696	0.272249
C67	C	1.285185	-1.060418	-0.227773
C68	C	1.785185	-0.560418	0.272227
C69	C	1.234978	-1.115283	-0.277950
C70	C	1.734978	-0.615283	0.222050
C71	C	1.184729	-1.060424	-0.328099
C72	C	1.684729	-0.560424	0.171901
C73	C	1.184687	-0.950700	-0.328070
C74	C	1.684687	-0.450700	0.171930
C75	C	1.084276	-1.060428	-0.428417
C76	C	1.584276	-0.560428	0.071583
C77	C	1.084225	-0.950706	-0.428393
C78	C	1.584225	-0.450706	0.071607
C79	C	1.034069	-1.115293	-0.478594
C80	C	1.534069	-0.615293	0.021406
C81	C	0.983814	-1.060434	-0.528740
C82	C	1.483814	-0.560434	-0.028740
C83	C	0.983770	-0.950706	-0.528716
C84	C	1.483770	-0.450706	-0.028716
C85	C	1.033975	-0.895847	-0.478542
C86	C	1.533975	-0.395847	0.021458
C87	C	1.339172	-0.506117	-0.378239
C88	C	1.839172	-0.006117	0.121761
C89	C	1.426422	-0.506125	-0.378249
C90	C	1.926422	-0.006125	0.121751
C91	C	1.134467	-0.506015	-0.582961
C92	C	1.634467	-0.006015	-0.082961
C93	C	1.134484	-0.505981	-0.670211
C94	C	1.634484	-0.005981	-0.170211
C95	C	1.134496	-0.232063	-0.378253
C96	C	1.634496	0.267937	0.121747
C97	C	1.134525	-0.115287	-0.378269
C98	C	1.634525	0.384713	0.121731
C99	C	1.084310	-0.438771	-0.711204
C100	C	1.584310	0.061229	-0.211204
C101	C	1.084323	-0.438748	-0.793185
C102	C	1.584323	0.061252	-0.293185
C103	C	1.134514	-0.505928	-0.834171
C104	C	1.634514	-0.005928	-0.334171
C105	C	1.184690	-0.573145	-0.793172
C106	C	1.684690	-0.073145	-0.293172
C107	C	1.184672	-0.573174	-0.711193
C108	C	1.684672	-0.073174	-0.211193
C109	C	1.184724	-0.573079	-0.964042
C110	C	1.684724	-0.073079	-0.464042
C111	C	1.184742	-0.573050	-1.046027
C112	C	1.684742	-0.073050	-0.546027
C113	C	1.084374	-0.438654	-1.046034
C114	C	1.584374	0.061346	-0.546034
C115	C	1.084357	-0.438682	-0.964055
C116	C	1.584357	0.061318	-0.464055
C117	C	1.134534	-0.505897	-0.923062
C118	C	1.634534	-0.005897	-0.423062
C119	C	1.134433	-0.506102	-0.174269
C120	C	1.634433	-0.006102	0.325731
C121	C	1.134569	-0.505841	-0.087020
C122	C	1.634569	-0.005841	0.412980
H123	H	0.582784	-0.628179	-0.469151
H124	H	1.082784	-0.128179	0.030849
H125	H	1.033939	-0.806506	-0.478512
H126	H	1.533939	-0.306506	0.021488
C127	C	1.234837	-0.775140	-0.277865
C128	C	1.734837	-0.275140	0.222135
N129	N	1.234798	-0.684230	-0.277837
N130	N	1.734798	-0.184230	0.222163
C131	C	0.594456	-0.364826	-0.272989
C132	C	1.094456	0.135174	0.227011
N133	N	0.628404	-0.309085	-0.231457
N134	N	1.128404	0.190915	0.268543
C135	C	1.034119	-1.235990	-0.478615
C136	C	1.534119	-0.735990	0.021385
N137	N	1.034153	-1.326900	-0.478628
N138	N	1.534153	-0.826900	0.021372
C139	C	1.029146	-0.364778	-0.918972
C140	C	1.529146	0.135222	-0.418972
N141	N	0.987558	-0.309114	-0.885015
N142	N	1.487558	0.190886	-0.385015
H143	H	1.235027	-1.204624	-0.277970
H144	H	1.735027	-0.704624	0.222030
C145	C	1.340363	-0.890337	-0.172557
C146	C	1.840363	-0.390337	0.327443
N147	N	1.381956	-0.844876	-0.130984
N148	N	1.881956	-0.344876	0.369016
H149	H	0.686862	-0.384041	-0.287311
H150	H	1.186862	0.115959	0.212689
H151	H	1.326107	-1.105084	-0.186941
H152	H	1.826107	-0.605084	0.313059
C153	C	1.029095	-0.364866	-0.666127
C154	C	1.529095	0.135134	-0.166127
N155	N	0.987502	-0.309202	-0.632177
N156	N	1.487502	0.190798	-0.132177
C157	C	1.029174	-0.364722	-1.091128
C158	C	1.529174	0.135278	-0.591128
N159	N	0.987600	-0.309037	-1.125096
N160	N	1.487600	0.190963	-0.625096
C161	C	0.847306	-0.364803	-0.272965
C162	C	1.347306	0.135197	0.227035
N163	N	0.881255	-0.309056	-0.231438
N164	N	1.381255	0.190944	0.268562
H165	H	0.434017	-0.384057	-0.287339
H166	H	0.934017	0.115943	0.212661
C167	C	0.675202	-0.647406	-0.483451
C168	C	1.175202	-0.147406	0.016549
N169	N	0.641255	-0.703176	-0.524962
N170	N	1.141255	-0.203176	-0.024962
C171	C	1.239722	-0.647283	-0.838259
C172	C	1.739722	-0.147283	-0.338259
N173	N	1.281112	-0.703208	-0.872218
N174	N	1.781112	-0.203208	-0.372218
C175	C	0.847348	-0.647378	-0.483445
C176	C	1.347348	-0.147378	0.016555
N177	N	0.881311	-0.703118	-0.524968
N178	N	1.381311	-0.203118	-0.024968
H179	H	0.942943	-1.105114	-0.569594
H180	H	1.442943	-0.605114	-0.069594
H181	H	0.434056	-0.628184	-0.469172
H182	H	0.934056	-0.128184	0.030828
H183	H	0.942854	-0.906045	-0.569557
H184	H	1.442854	-0.406045	-0.069557
H185	H	1.043464	-0.384023	-0.826557
H186	H	1.543464	0.115977	-0.326557
H187	H	1.225612	-0.627755	-1.079395
H188	H	1.725612	-0.127755	-0.579395
H189	H	1.225590	-0.627804	-0.930668
H190	H	1.725590	-0.127804	-0.430668
H191	H	1.225535	-0.627894	-0.677817
H192	H	1.725535	-0.127894	-0.177817
