data_functionalizedCrystal
_audit_creation_method	'MofGen! by Chris Wilmer'
_symmetry_space_group_name_H-M	'P1'
_symmetry_Int_Tables_number	1
_symmetry_cell_setting	triclinic
loop_
_symmetry_equiv_pos_as_xyz
  x,y,z
_cell_length_a	17.639617
_cell_length_b	29.839131
_cell_length_c	17.640968
_cell_angle_alpha	78.759880
_cell_angle_beta	70.333968
_cell_angle_gamma	101.217837
loop_
_atom_site_label
_atom_site_type_symbol
_atom_site_fract_x
_atom_site_fract_y
_atom_site_fract_z
Zn1	Zn	1.354416	0.059430	-0.721274
Zn2	Zn	1.326400	-0.034761	-0.583383
Zn3	Zn	1.188686	0.021352	-0.555526
Zn4	Zn	1.216489	-0.034717	-0.693266
O5	O	1.271498	0.002826	-0.638362
O6	O	1.466056	0.062852	-0.726363
O7	O	1.284771	-0.043271	-0.464335
O8	O	1.210760	0.089288	-0.577576
O9	O	1.445473	-0.006349	-0.625055
O10	O	1.332521	0.117263	-0.699351
O11	O	1.183593	-0.002045	-0.443869
O12	O	1.077018	-0.002003	-0.550417
O13	O	1.258146	-0.006275	-0.812334
O14	O	1.097444	-0.043197	-0.651614
O15	O	1.359480	0.062895	-0.832912
O16	O	1.311730	-0.097640	-0.597896
O17	O	1.230980	-0.097608	-0.678626
C18	C	1.057321	-0.026727	-0.594954
C19	C	0.965699	-0.039378	-0.576403
C20	C	0.717996	0.098972	-0.779494
C21	C	0.631900	0.087071	-0.762046
C22	C	0.610457	0.015086	-0.656402
C23	C	0.696554	0.026980	-0.673844
C24	C	0.750317	0.068924	-0.735390
C25	C	0.728875	-0.003069	-0.629740
C26	C	0.814963	0.008826	-0.647178
C27	C	0.868731	0.050768	-0.708720
C28	C	0.836405	0.080818	-0.752828
C29	C	0.675110	-0.045011	-0.568190
C30	C	0.707431	-0.075060	-0.524087
C31	C	0.793521	-0.063167	-0.541528
C32	C	0.847289	-0.021224	-0.603070
C33	C	0.825847	-0.093217	-0.497420
C34	C	0.911936	-0.081322	-0.514857
C35	C	0.933378	-0.009330	-0.620507
C36	C	1.271358	-0.113924	-0.638267
C37	C	1.271379	-0.163855	-0.638270
C38	C	1.334902	-0.458864	-0.701843
C39	C	1.335002	-0.646518	-0.701911
O40	O	1.388878	-0.658364	-0.755887
N41	N	1.271656	-0.684584	-0.638482
C42	C	1.208278	-0.675735	-0.575035
O43	O	1.154396	-0.712419	-0.521091
C44	C	1.208176	-0.488082	-0.574971
C45	C	1.271531	-0.450017	-0.638400
C46	C	1.398251	-0.420800	-0.765267
C47	C	1.398228	-0.373890	-0.765247
C48	C	1.334856	-0.365043	-0.701803
C49	C	1.271508	-0.403107	-0.638380
C50	C	1.144795	-0.479234	-0.511528
C51	C	1.144774	-0.432316	-0.511519
C52	C	1.208129	-0.394251	-0.574948
C53	C	1.208113	-0.347349	-0.574916
N54	N	1.271458	-0.309283	-0.638345
C55	C	1.334830	-0.318130	-0.701788
C56	C	1.208337	-0.774255	-0.575072
C57	C	1.208363	-0.821168	-0.575087
C58	C	1.335086	-0.791947	-0.701964
C59	C	1.335063	-0.745033	-0.701945
C60	C	1.271683	-0.736188	-0.638501
C61	C	1.334778	-0.219616	-0.701741
C62	C	1.334751	-0.172702	-0.701713
C63	C	1.208026	-0.201927	-0.574839
C64	C	1.208054	-0.248836	-0.574864
C65	C	1.271434	-0.257678	-0.638322
O66	O	1.154260	-0.335468	-0.520973
O67	O	1.388694	-0.281440	-0.755734
C68	C	1.334925	-0.505775	-0.701863
C69	C	1.271576	-0.543838	-0.638440
C70	C	1.208205	-0.534991	-0.574996
C71	C	1.271603	-0.590751	-0.638455
C72	C	1.334974	-0.599598	-0.701898
C73	C	1.398320	-0.561532	-0.765327
C74	C	1.398297	-0.514621	-0.765307
C75	C	1.144859	-0.573058	-0.511567
C76	C	1.144888	-0.619967	-0.511592
C77	C	1.208259	-0.628814	-0.575036
C78	C	1.486511	0.032494	-0.681941
C79	C	1.578137	0.045137	-0.700511
C80	C	1.315040	0.032562	-0.853369
C81	C	1.333595	0.045234	-0.944992
C82	C	1.271664	0.120037	-0.638480
C83	C	1.271735	0.169985	-0.638531
C84	C	1.130854	-0.093153	-1.192766
C85	C	1.148307	-0.081238	-1.278863
C86	C	1.253817	-0.009218	-1.300278
C87	C	1.236371	-0.021126	-1.214180
C88	C	1.174889	-0.063095	-1.160431
C89	C	1.280405	0.008933	-1.181846
C90	C	1.262963	-0.002976	-1.095756
C91	C	1.201486	-0.044943	-1.042001
C92	C	1.157446	-0.075003	-1.074341
C93	C	1.341891	0.050899	-1.235598
C94	C	1.385926	0.080958	-1.203263
C95	C	1.368479	0.069052	-1.117171
C96	C	1.307002	0.027084	-1.063416
C97	C	1.412519	0.099112	-1.084831
C98	C	1.395076	0.087203	-0.998741
C99	C	1.289560	0.015176	-0.977327
C100	C	1.228173	-0.026756	-0.424202
C101	C	1.209778	-0.039279	-0.332612
H102	H	0.663645	-0.109209	-0.473973
F103	F	1.077455	-0.660475	-0.444075
F104	F	0.990602	0.035310	-0.686018
H105	H	1.093253	-0.565860	-0.459905
H106	H	1.107362	-0.109170	-1.030570
F107	F	1.319251	0.035446	-1.357491
H108	H	0.938829	0.060453	-0.722913
F109	F	0.893630	0.125458	-0.818339
F110	F	0.775220	0.143612	-0.845005
F111	F	1.360456	0.063572	-1.327223
F112	F	1.065411	-0.137819	-1.135555
H113	H	0.605588	0.111545	-0.797961
H114	H	0.605008	-0.054687	-0.553977
H115	H	0.566672	-0.019064	-0.606289
F116	F	0.768618	-0.137852	-0.431912
F117	F	1.182926	-0.057619	-0.950377
F118	F	1.465728	-0.474115	-0.832817
F119	F	0.946337	-0.113306	-0.467923
H120	H	1.386345	-0.141709	-0.753365
F121	F	1.077314	-0.422907	-0.443992
H122	H	1.386383	-0.226808	-0.753419
H123	H	1.449815	-0.342899	-0.816897
H124	H	1.112444	-0.105719	-1.305185
H125	H	1.449857	-0.427996	-0.816935
F126	F	1.477957	0.143773	-1.142047
F127	F	1.402492	-0.704526	-0.769454
F128	F	1.224117	-0.029490	-0.920116
F129	F	1.402532	-0.801371	-0.769485
H130	H	1.435986	0.115128	-1.247038
F131	F	1.441945	0.119194	-0.964327
H132	H	1.156781	-0.852158	-0.523430
H133	H	1.093205	-0.510220	-0.459878
F134	F	1.140873	-0.764849	-0.507543
H135	H	1.156471	-0.279831	-0.523210
H136	H	1.156431	-0.194716	-0.523182
H137	H	1.449922	-0.568743	-0.816983
