data_functionalizedCrystal
_audit_creation_method	'MofGen! by Chris Wilmer'
_symmetry_space_group_name_H-M	'P1'
_symmetry_Int_Tables_number	1
_symmetry_cell_setting	triclinic
loop_
_symmetry_equiv_pos_as_xyz
  x,y,z
_cell_length_a	25.427154
_cell_length_b	25.426324
_cell_length_c	25.422586
_cell_angle_alpha	60.006367
_cell_angle_beta	60.012446
_cell_angle_gamma	59.992398
loop_
_atom_site_label
_atom_site_type_symbol
_atom_site_fract_x
_atom_site_fract_y
_atom_site_fract_z
O1	O	0.072968	-0.768436	0.642532
O2	O	0.027520	-0.598284	0.517710
O3	O	0.135268	-0.705940	0.517611
O4	O	-0.034780	-0.660780	0.642632
O5	O	0.171018	-0.670200	0.553260
O6	O	0.063270	-0.562544	0.553360
O7	O	0.108718	-0.732696	0.678182
Zn8	Zn	0.091670	-0.641945	0.621431
Zn9	Zn	0.044568	-0.689034	0.574461
O10	O	0.000970	-0.625039	0.678281
N11	N	0.123818	-0.609812	0.653490
N12	N	0.012426	-0.721173	0.542402
C13	C	0.168482	-0.466269	0.698103
C14	C	0.168494	-0.565177	0.698095
C15	C	0.193243	-0.540453	0.722807
C16	C	0.301113	-0.521853	0.665993
C17	C	0.368545	-0.544324	0.643486
C18	C	0.368579	-0.653434	0.685090
C19	C	0.301149	-0.630961	0.707599
C20	C	0.184722	-0.432539	0.631812
C21	C	0.162210	-0.365100	0.609357
C22	C	0.107225	-0.365129	0.719489
C23	C	0.129737	-0.432567	0.741943
C24	C	0.102194	-0.548896	0.714421
C25	C	0.079702	-0.571372	0.691949
C26	C	0.189805	-0.626409	0.636839
C27	C	0.212300	-0.603934	0.659303
C28	C	0.102289	-0.548918	0.830735
C29	C	0.079866	-0.571415	0.898171
C30	C	0.190015	-0.626466	0.898104
C31	C	0.212437	-0.603971	0.830666
C32	C	0.168573	-0.565195	0.796984
C33	C	0.267418	-0.565170	0.698047
C34	C	-0.130981	-0.765617	0.497386
C35	C	-0.032127	-0.765741	0.497606
C36	C	-0.056804	-0.790430	0.472789
C37	C	-0.075480	-0.898263	0.529507
C38	C	-0.053057	-0.965702	0.552014
C39	C	0.056052	-0.965829	0.510599
C40	C	0.033627	-0.898392	0.488091
C41	C	-0.164787	-0.781859	0.563659
C42	C	-0.232219	-0.759299	0.586018
C43	C	-0.232034	-0.704261	0.475827
C44	C	-0.164602	-0.726821	0.453469
C45	C	-0.048372	-0.699446	0.481299
C46	C	-0.025938	-0.677008	0.503867
C47	C	0.028987	-0.787155	0.559036
C48	C	0.006552	-0.809596	0.536475
C49	C	-0.048188	-0.699454	0.364860
C50	C	-0.025608	-0.677017	0.297425
C51	C	0.029406	-0.787170	0.297492
C52	C	0.006827	-0.809605	0.364929
C53	C	-0.031972	-0.765745	0.398611
C54	C	-0.032140	-0.864611	0.497548
N55	N	0.401319	-0.609788	0.653344
O56	O	0.621664	-0.620517	0.494685
O57	O	0.621901	-0.745740	0.664659
O58	O	0.621803	-0.745452	0.556857
O59	O	0.621762	-0.620805	0.602487
O60	O	0.514676	-0.709815	0.592658
O61	O	0.514774	-0.710104	0.700460
O62	O	0.514537	-0.584881	0.530485
Zn63	Zn	0.497647	-0.641834	0.621157
Zn64	Zn	0.638791	-0.688787	0.573988
O65	O	0.514635	-0.585169	0.638287
N66	N	0.735119	-0.720834	0.541794
N67	N	0.123794	-0.332357	0.653504
O68	O	-0.034774	-0.111885	0.642639
O69	O	0.135202	-0.111860	0.517412
O70	O	0.027364	-0.111888	0.517742
O71	O	0.073064	-0.111857	0.642310
O72	O	0.063120	-0.219026	0.553444
O73	O	0.170958	-0.218998	0.553115
O74	O	0.000983	-0.219022	0.678342
Zn75	Zn	0.091647	-0.236020	0.621397
Zn76	Zn	0.044537	-0.094862	0.574357
O77	O	0.108821	-0.218994	0.678013
N78	N	0.012383	0.001474	0.542251
N79	N	0.124036	-0.609854	0.930891
O80	O	0.113202	-0.768401	1.151342
O81	O	-0.011992	-0.598359	1.151385
O82	O	-0.011700	-0.706176	1.151343
O83	O	0.112910	-0.660584	1.151384
O84	O	0.023980	-0.670446	1.044212
O85	O	0.023689	-0.562630	1.044253
O86	O	0.148882	-0.732671	1.044211
Zn87	Zn	0.091951	-0.641977	1.027223
Zn88	Zn	0.044940	-0.689053	1.168373
O89	O	0.148590	-0.624854	1.044252
N90	N	0.012853	-0.721183	1.264704
C91	C	0.041135	-0.558973	0.518338
C92	C	0.174567	-0.692292	0.518215
C93	C	0.095103	-0.772007	0.677553
C94	C	-0.038330	-0.638687	0.677677
C95	C	0.568366	-0.745166	0.703974
C96	C	0.568246	-0.744810	0.570474
C97	C	0.568069	-0.585454	0.491172
C98	C	0.568192	-0.585812	0.624671
C99	C	0.174449	-0.165294	0.517975
C100	C	0.040949	-0.165460	0.518427
C101	C	-0.038309	-0.165456	0.677735
C102	C	0.095236	-0.165423	0.677328
C103	C	-0.011393	-0.559072	1.097824
C104	C	-0.011024	-0.692583	1.097752
C105	C	0.148283	-0.771958	1.097772
C106	C	0.147922	-0.638440	1.097820
H107	H	0.066565	-0.517338	0.803314
H108	H	0.568264	-0.783967	0.560707
N109	N	-0.062854	-0.705480	1.097671
H110	H	-0.075324	-0.673877	1.057944
H111	H	-0.101795	-0.700392	1.137398
H112	H	0.187590	-0.820792	1.097751
H113	H	0.223406	-0.701920	0.478955
N114	N	0.024324	-0.881110	0.401326
H115	H	-0.016226	-0.892837	0.429235
H116	H	0.048609	-0.892866	0.429339
H117	H	0.567992	-0.546139	0.442358
H118	H	0.175430	-0.337636	0.555374
N119	N	0.568180	-0.533942	0.637596
H120	H	0.568234	-0.550657	0.682928
H121	H	0.528434	-0.495014	0.632496
N122	N	0.199781	-0.625528	1.097832
H123	H	0.183069	-0.580183	1.097846
H124	H	0.238716	-0.630665	1.058114
N125	N	-0.063462	-0.494387	1.097841
H126	H	-0.075931	-0.473870	1.058125
H127	H	-0.046912	-0.465642	1.097879
N128	N	0.568461	-0.797245	0.768633
H129	H	0.568487	-0.837023	0.768719
H130	H	0.528765	-0.781536	0.803487
N131	N	0.107954	-0.836749	0.729488
H132	H	0.102848	-0.830838	0.768425
H133	H	0.153283	-0.865420	0.712785
H134	H	-0.087123	-0.165464	0.717049
N135	N	0.238956	-0.164773	0.465771
H136	H	0.232672	-0.124934	0.427012
H137	H	0.259699	-0.204390	0.453092
N138	N	0.008370	-0.553853	0.934568
H139	H	-0.016011	-0.525875	0.902995
H140	H	-0.003333	-0.529560	0.962550
N141	N	0.237332	-0.668270	0.934421
H142	H	0.265320	-0.708814	0.922668
H143	H	0.213031	-0.680005	0.982252
N144	N	0.283932	-0.621532	0.794264
H145	H	0.308315	-0.649507	0.825836
H146	H	0.295634	-0.580971	0.766285
H147	H	-0.087172	-0.629063	0.716934
H148	H	0.105023	-0.165413	0.716462
N149	N	0.054949	-0.507087	0.756250
H150	H	0.009535	-0.500179	0.763174
H151	H	0.061862	-0.464132	0.734346
H152	H	0.031160	-0.165463	0.479291
N153	N	0.028271	-0.494230	0.466408
H154	H	0.033376	-0.500140	0.427471
H155	H	0.059887	-0.473675	0.453955
H156	H	-0.038823	-0.623033	0.269953
H157	H	0.225479	-0.657972	0.605261
N158	N	0.008194	-0.553819	0.709555
H159	H	-0.016145	-0.525860	0.737542
H160	H	-0.003500	-0.594385	0.733850
H161	H	0.266286	-0.617183	0.646003
H162	H	0.273715	-0.666239	0.733700
H163	H	0.396045	-0.707006	0.692856
N164	N	-0.090085	-0.652147	0.439375
H165	H	-0.096973	-0.606745	0.432473
H166	H	-0.133052	-0.659017	0.461192
H167	H	0.395978	-0.509050	0.617384
H168	H	0.216267	-0.459978	0.596113
N169	N	0.264720	-0.450897	0.655705
H170	H	0.276413	-0.425865	0.608035
H171	H	0.276484	-0.436098	0.677394
N172	N	0.065442	-0.328772	0.766769
H173	H	0.058578	-0.360374	0.812174
H174	H	0.022470	-0.300801	0.759872
H175	H	-0.079784	-0.663733	0.392281
N176	N	0.112221	-0.468954	0.813447
H177	H	0.084258	-0.437370	0.837812
H178	H	0.152794	-0.496931	0.825149
H179	H	0.060986	-0.822887	0.270075
H180	H	-0.039168	-0.623025	0.490592
H181	H	0.060486	-0.822870	0.590677
H182	H	0.019779	-0.863579	0.549754
N183	N	0.080375	-0.862093	0.453617
H184	H	0.125440	-0.893728	0.451046
H185	H	0.068316	-0.834107	0.478063
H186	H	0.109606	-0.993335	0.502902
N187	N	-0.268282	-0.662400	0.428445
H188	H	-0.296233	-0.619399	0.435284
H189	H	-0.296239	-0.684255	0.435254
H190	H	-0.129033	-0.870764	0.537213
N191	N	-0.099807	-1.001992	0.586477
H192	H	-0.132691	-0.990223	0.626301
H193	H	-0.075578	-1.049829	0.599255
N194	N	-0.128516	-0.823701	0.611018
H195	H	-0.140297	-0.864220	0.638982
H196	H	-0.140295	-0.799339	0.638967
N197	N	-0.268693	-0.776811	0.657500
H198	H	-0.256996	-0.760354	0.677719
H199	H	-0.256992	-0.825183	0.677625
N200	N	-0.128134	-0.709300	0.381985
H201	H	-0.159666	-0.681298	0.357556
H202	H	-0.100157	-0.749874	0.370286
