data_functionalizedCrystal
_audit_creation_method	'MofGen! by Chris Wilmer'
_symmetry_space_group_name_H-M	'P1'
_symmetry_Int_Tables_number	1
_symmetry_cell_setting	triclinic
loop_
_symmetry_equiv_pos_as_xyz
  x,y,z
_cell_length_a	19.188933
_cell_length_b	19.188924
_cell_length_c	14.421503
_cell_angle_alpha	90.002214
_cell_angle_beta	89.993814
_cell_angle_gamma	83.143767
loop_
_atom_site_label
_atom_site_type_symbol
_atom_site_fract_x
_atom_site_fract_y
_atom_site_fract_z
O1	O	0.926146	0.087165	-0.077085
O2	O	0.722835	0.098898	-0.077094
O3	O	0.830360	-0.008625	-0.077078
O4	O	0.818621	0.194687	-0.077101
O5	O	0.830342	-0.008609	0.077145
O6	O	0.722817	0.098914	0.077129
O7	O	0.926128	0.087181	0.077138
Cu8	Cu	0.824471	0.093049	0.091216
Cu9	Cu	0.824492	0.093030	-0.091171
O10	O	0.818603	0.194703	0.077123
C11	C	0.696815	0.098525	0.000017
C12	C	0.619310	0.097384	0.000013
C13	C	0.066065	0.089230	-0.084043
C14	C	0.138889	0.090298	-0.084047
C15	C	0.175296	0.090844	0.000020
C16	C	0.138876	0.090304	0.084097
C17	C	0.066054	0.089229	0.084098
N18	N	0.284308	0.132269	0.062590
N19	N	0.353486	0.133292	0.062584
C20	C	0.394705	0.094082	0.000021
N21	N	0.364132	0.053819	-0.062548
N22	N	0.294948	0.052800	-0.062543
C23	C	0.254260	0.092010	0.000028
C24	C	0.510082	0.095775	-0.084054
C25	C	0.582908	0.096839	-0.084054
C26	C	0.582892	0.096852	0.084092
C27	C	0.510068	0.095781	0.084090
C28	C	0.473667	0.095246	0.000014
C29	C	0.829972	-0.034628	0.000034
C30	C	0.828833	-0.112133	0.000037
C31	C	0.828311	-0.148540	-0.084031
C32	C	0.827231	-0.221363	-0.084038
C33	C	0.826687	-0.257777	0.000027
C34	C	0.827205	-0.221360	0.084106
C35	C	0.828278	-0.148538	0.084110
N36	N	0.864728	-0.377434	0.062597
N37	N	0.863710	-0.446612	0.062586
C38	C	0.823453	-0.477186	0.000018
N39	N	0.784261	-0.435970	-0.062554
N40	N	0.785282	-0.366786	-0.062546
C41	C	0.825523	-0.336741	0.000031
C42	C	0.821759	-0.592557	-0.084063
C43	C	0.820675	-0.665380	-0.084066
C44	C	0.820656	-0.665377	0.084080
C45	C	0.821733	-0.592554	0.084081
C46	C	0.822288	-0.556149	0.000007
C47	C	0.952148	0.087553	0.000026
C48	C	1.029653	0.088694	0.000023
C49	C	0.818991	0.220706	0.000008
C50	C	0.820130	0.298211	-0.000000
N51	N	0.824461	0.093061	0.219497
N52	N	0.824507	0.093011	-0.219453
C53	C	0.774733	0.142758	0.469143
C54	C	0.837781	0.156117	0.530947
C55	C	0.824478	0.093045	0.408658
C56	C	0.761447	0.079702	0.530948
C57	C	0.824489	0.093030	0.591380
C58	C	0.887558	0.106435	0.469101
C59	C	0.811182	0.029993	0.469097
C60	C	0.874276	0.043325	0.530873
C61	C	0.824471	0.093055	0.303397
C62	C	0.824503	0.093019	0.696639
H63	H	0.612554	0.097270	-0.152513
F64	F	0.177624	0.090883	0.173567
F65	F	0.177650	0.090870	-0.173524
F66	F	0.719803	0.197749	0.433712
H67	H	0.826760	-0.251013	0.152552
F68	F	0.820073	-0.704126	0.173549
H69	H	0.036407	0.088795	0.152557
H70	H	0.916394	0.001276	0.557807
H71	H	0.480443	0.095338	-0.152513
F72	F	0.796445	-0.039672	0.433557
H73	H	0.708138	0.068423	0.558118
H74	H	0.480421	0.095347	0.152545
H75	H	0.612535	0.097294	0.152541
F76	F	0.828898	-0.109799	-0.173510
H77	H	0.036432	0.088792	-0.152504
H78	H	0.826802	-0.251011	-0.152498
H79	H	0.828700	-0.118895	0.152570
H80	H	0.820247	-0.695021	-0.152527
F81	F	0.822346	-0.553808	-0.173540
H82	H	0.822164	-0.562911	0.152538
F83	F	0.852494	0.225803	0.566458
H84	H	0.940878	0.117779	0.442049
