data_functionalizedCrystal
_audit_creation_method	'MofGen! by Chris Wilmer'
_symmetry_space_group_name_H-M	'P1'
_symmetry_Int_Tables_number	1
_symmetry_cell_setting	triclinic
loop_
_symmetry_equiv_pos_as_xyz
  x,y,z
_cell_length_a	14.044202
_cell_length_b	13.101018
_cell_length_c	16.992695
_cell_angle_alpha	86.412154
_cell_angle_beta	88.069538
_cell_angle_gamma	86.333184
loop_
_atom_site_label
_atom_site_type_symbol
_atom_site_fract_x
_atom_site_fract_y
_atom_site_fract_z
O1	O	-1.277022	0.085164	0.186101
O2	O	-1.000533	0.085178	0.179235
O3	O	-1.137669	0.085163	0.068448
O4	O	-1.139886	0.085179	0.296887
O5	O	-1.127818	-0.085266	0.076403
O6	O	-0.990682	-0.085252	0.187190
O7	O	-1.267171	-0.085265	0.194056
Zn8	Zn	-1.127363	-0.112318	0.191886
Zn9	Zn	-1.140341	0.112230	0.181404
O10	O	-1.130035	-0.085250	0.304843
C11	C	-0.960066	-0.000035	0.180209
C12	C	-0.854162	-0.000030	0.171252
C13	C	-0.607446	-0.000037	0.218397
C14	C	-0.660265	-0.000040	0.154890
C15	C	-0.768159	-0.000034	0.163996
C16	C	-0.499542	-0.000042	0.209292
N17	N	-1.118512	-0.265566	0.199040
C18	C	-1.129891	-0.000051	0.043013
C19	C	-1.121383	-0.000051	-0.044626
C20	C	-0.307638	-0.000049	0.193080
C21	C	-0.413543	-0.000046	0.202031
C22	C	-1.161236	-0.525480	0.164509
C23	C	-1.106478	-0.474601	0.208774
C24	C	-1.113175	-0.358283	0.203356
C25	C	-1.154540	-0.641808	0.169925
N26	N	-1.149199	0.265478	0.174245
C27	C	-1.203479	-0.000056	-0.089122
C28	C	-1.195480	-0.000046	-0.171469
C29	C	-1.105382	-0.000038	-0.209318
C30	C	-1.023279	-0.000030	-0.164816
C31	C	-1.031280	-0.000033	-0.082471
C32	C	-1.072220	-0.000022	-0.455237
C33	C	-1.064225	-0.000022	-0.537588
C34	C	-1.236426	-0.000036	-0.544235
C35	C	-1.244419	-0.000045	-0.461888
C36	C	-1.162317	-0.000032	-0.417393
N37	N	-1.097202	-0.000031	-0.293489
N38	N	-1.170498	-0.000032	-0.333224
C39	C	-1.137813	-0.000034	0.330277
C40	C	-1.146322	-0.000027	0.417916
H41	H	-1.054569	-0.518400	0.250739
H42	H	-1.213143	-0.481685	0.122548
C43	C	-0.940967	-0.000029	-0.033526
N44	N	-0.872940	-0.000024	0.003339
C45	C	-1.302595	-0.000064	-0.047496
N46	N	-1.377252	-0.000066	-0.016146
H47	H	-1.303269	-0.000046	-0.580471
C48	C	-0.655826	-0.000021	0.301083
N49	N	-0.692277	-0.000004	0.363360
C50	C	-0.611886	-0.000037	0.072198
N51	N	-0.575444	-0.000028	0.009916
C52	C	-0.924170	-0.000030	-0.206453
N53	N	-0.849518	-0.000037	-0.237812
C54	C	-1.285792	-0.000068	-0.220410
N55	N	-1.353820	-0.000090	-0.257272
C56	C	-0.965107	-0.000006	-0.579220
N57	N	-0.890455	0.000006	-0.610578
H58	H	-1.317786	-0.000052	-0.431077
C59	C	-0.981904	-0.000002	-0.406304
N60	N	-0.913874	0.000017	-0.369445
