data_functionalizedCrystal
_audit_creation_method	'MofGen! by Chris Wilmer'
_symmetry_space_group_name_H-M	'P1'
_symmetry_Int_Tables_number	1
_symmetry_cell_setting	triclinic
loop_
_symmetry_equiv_pos_as_xyz
  x,y,z
_cell_length_a	12.811438
_cell_length_b	12.376457
_cell_length_c	12.811415
_cell_angle_alpha	83.964391
_cell_angle_beta	84.560771
_cell_angle_gamma	96.050530
loop_
_atom_site_label
_atom_site_type_symbol
_atom_site_fract_x
_atom_site_fract_y
_atom_site_fract_z
O1	O	1.386259	-0.032919	0.148409
O2	O	1.886259	0.467081	0.648409
O3	O	1.087466	-0.001394	0.157060
O4	O	1.587466	0.498606	0.657060
O5	O	1.241187	-0.032920	0.003334
O6	O	1.741187	0.467080	0.503334
O7	O	1.232537	-0.001392	0.302134
O8	O	1.732537	0.498608	0.802134
O9	O	1.202769	-0.213058	0.041712
O10	O	1.702769	0.286942	0.541712
O11	O	1.049048	-0.181531	0.195438
O12	O	1.549048	0.318469	0.695438
O13	O	1.347841	-0.213056	0.186787
O14	O	1.847841	0.286944	0.686787
Zn15	Zn	1.192345	-0.225894	0.197206
Zn16	Zn	1.692345	0.274106	0.697206
Zn17	Zn	1.242962	0.011444	0.146641
Zn18	Zn	1.742962	0.511444	0.646641
O19	O	1.194120	-0.181530	0.340512
O20	O	1.694120	0.318470	0.840512
C21	C	1.029951	-0.087705	0.174586
C22	C	1.529951	0.412295	0.674586
C23	C	0.915810	-0.076510	0.169620
C24	C	1.415810	0.423490	0.669620
C25	C	0.775869	0.037448	0.141703
C26	C	1.275869	0.537448	0.641703
C27	C	0.883116	0.026939	0.146366
C28	C	1.383116	0.526939	0.646366
C29	C	0.841246	-0.169458	0.188208
C30	C	1.341246	0.330542	0.688208
C31	C	0.733998	-0.158949	0.183544
C32	C	1.233998	0.341051	0.683544
C33	C	0.701314	-0.055492	0.160293
C34	C	1.201314	0.444508	0.660293
C35	C	0.594063	-0.044983	0.155636
C36	C	1.094063	0.455017	0.655636
C37	C	0.552196	-0.241379	0.197471
C38	C	1.052196	0.258621	0.697471
C39	C	0.659443	-0.251889	0.202134
C40	C	1.159443	0.248111	0.702134
N41	N	1.157808	-0.387872	0.231714
N42	N	1.657808	0.112128	0.731714
C43	C	1.357678	-0.783832	0.031998
C44	C	1.857678	-0.283832	0.531998
C45	C	1.381845	-0.670447	0.007845
C46	C	1.881845	-0.170447	0.507845
C47	C	1.325838	-0.599798	0.063810
C48	C	1.825838	-0.099798	0.563810
C49	C	1.245660	-0.642545	0.143933
C50	C	1.745660	-0.142545	0.643933
C51	C	1.221496	-0.755941	0.168094
C52	C	1.721496	-0.255941	0.668094
C53	C	1.189655	-0.571907	0.199906
C54	C	1.689655	-0.071907	0.699906
C55	C	1.109477	-0.614654	0.280028
C56	C	1.609477	-0.114654	0.780028
C57	C	1.085317	-0.728039	0.304185
C58	C	1.585317	-0.228039	0.804185
C59	C	1.141325	-0.798688	0.248220
C60	C	1.641325	-0.298688	0.748220
C61	C	1.213819	-0.458511	0.175745
C62	C	1.713819	0.041489	0.675745
C63	C	1.077636	-0.430619	0.311840
C64	C	1.577636	0.069381	0.811840
C65	C	1.053469	-0.544004	0.335993
C66	C	1.553469	-0.044004	0.835993
C67	C	1.405357	-0.126742	0.169260
C68	C	1.905357	0.373258	0.669260
C69	C	1.519499	-0.137930	0.174225
C70	C	2.019499	0.362070	0.674225
C71	C	1.220316	-0.126745	-0.015785
C72	C	1.720316	0.373255	0.484215
C73	C	1.215351	-0.137934	-0.129930
C74	C	1.715351	0.362066	0.370070
N75	N	1.277507	0.173421	0.112124
N76	N	1.777507	0.673421	0.612124
C77	C	1.247890	0.037451	-0.386255
C78	C	1.747890	0.537451	0.113745
C79	C	1.243225	0.026943	-0.493506
C80	C	1.743225	0.526943	0.006494
C81	C	1.201351	-0.169456	-0.451684
C82	C	1.701351	0.330544	0.048316
C83	C	1.206015	-0.158948	-0.344433
C84	C	1.706015	0.341052	0.155567
C85	C	1.229287	-0.055491	-0.311723
C86	C	1.729287	0.444509	0.188277
C87	C	1.233958	-0.044985	-0.204471
C88	C	1.733958	0.455015	0.295529
C89	C	1.192076	-0.241382	-0.162651
C90	C	1.692076	0.258618	0.337349
C91	C	1.187412	-0.251890	-0.269902
C92	C	1.687412	0.248110	0.230098
C93	C	1.214991	-0.087703	0.359631
C94	C	1.714991	0.412297	0.859631
C95	C	1.219958	-0.076507	0.473775
C96	C	1.719958	0.423493	0.973775
H97	H	1.279100	-0.423717	0.110509
H98	H	1.779100	0.076283	0.610509
H99	H	0.943817	0.102621	0.131229
H100	H	1.443817	0.602621	0.631229
H101	H	1.447126	-0.635647	-0.057388
H102	H	1.947126	-0.135647	0.442612
H103	H	1.182396	-0.253684	-0.478336
H104	H	1.682396	0.246316	0.021664
Br105	Br	1.155818	-0.392286	-0.314303
Br106	Br	1.655818	0.107714	0.185697
Br107	Br	0.549705	0.095421	0.124088
Br108	Br	1.049705	0.595421	0.624088
Br109	Br	0.731503	0.177851	0.110168
Br110	Br	1.231503	0.677851	0.610168
Br111	Br	0.885624	-0.309853	0.219757
Br112	Br	1.385624	0.190147	0.719757
Br113	Br	1.166844	-0.367528	-0.061495
Br114	Br	1.666844	0.132472	0.438505
H115	H	1.403278	-0.841361	-0.013556
H116	H	1.903278	-0.341361	0.486444
H117	H	0.686071	-0.336121	0.221062
H118	H	1.186071	0.163879	0.721062
H119	H	1.345518	-0.507475	0.044141
H120	H	1.845518	-0.007475	0.544141
Br121	Br	0.451006	-0.367520	0.222714
Br122	Br	0.951006	0.132480	0.722714
Br123	Br	0.976520	-0.786056	0.412937
Br124	Br	1.476520	-0.286056	0.912937
Br125	Br	1.108517	-0.952574	0.280994
Br126	Br	1.608517	-0.452574	0.780994
H127	H	1.266847	0.121688	-0.359624
H128	H	1.766847	0.621688	0.140376
Br129	Br	0.944657	-0.602029	0.444727
Br130	Br	1.444657	-0.102029	0.944727
H131	H	1.032032	-0.373097	0.357414
H132	H	1.532032	0.126903	0.857414
H133	H	1.252910	0.039254	-0.177842
H134	H	1.752910	0.539254	0.322158
Br135	Br	1.268466	0.153085	-0.594654
Br136	Br	1.768466	0.653085	-0.094654
