data_functionalizedCrystal
_audit_creation_method	'MofGen! by Chris Wilmer'
_symmetry_space_group_name_H-M	'P1'
_symmetry_Int_Tables_number	1
_symmetry_cell_setting	triclinic
loop_
_symmetry_equiv_pos_as_xyz
  x,y,z
_cell_length_a	14.853558
_cell_length_b	10.868271
_cell_length_c	14.853567
_cell_angle_alpha	90.001341
_cell_angle_beta	83.633032
_cell_angle_gamma	90.003790
loop_
_atom_site_label
_atom_site_type_symbol
_atom_site_fract_x
_atom_site_fract_y
_atom_site_fract_z
O1	O	1.196370	0.102297	0.117665
O2	O	0.933909	0.102301	0.131695
O3	O	1.072150	0.102302	-0.006550
O4	O	1.058129	0.102295	0.255910
O5	O	1.072139	-0.102342	-0.006555
O6	O	0.933898	-0.102344	0.131690
O7	O	1.196358	-0.102348	0.117659
Zn8	Zn	1.065126	-0.134838	0.124674
Zn9	Zn	1.065141	0.134791	0.124681
O10	O	1.058117	-0.102349	0.255905
C11	C	0.900314	-0.000021	0.131058
C12	C	0.800230	-0.000018	0.129158
C13	C	0.753216	0.111538	0.128269
C14	C	0.753202	-0.111573	0.128253
C15	C	0.659169	-0.111575	0.126462
C16	C	0.612155	-0.000019	0.125574
C17	C	0.659174	0.111540	0.126476
C18	C	0.612143	-0.223132	0.125551
C19	C	0.518104	-0.223138	0.123759
C20	C	0.471087	-0.111580	0.122877
C21	C	0.518113	-0.000017	0.123781
C22	C	0.471099	0.111539	0.122892
C23	C	0.518121	0.223103	0.123802
C24	C	0.612158	0.223098	0.125594
C25	C	0.377051	-0.111574	0.121085
C26	C	0.377057	0.111541	0.121099
N27	N	1.065123	-0.318852	0.124668
C28	C	1.065136	-0.569858	0.124679
C29	C	1.065126	-0.430180	0.124676
C30	C	1.229953	-0.000024	0.118296
C31	C	1.330037	-0.000018	0.120197
C32	C	1.071509	-0.000016	-0.040141
C33	C	1.069605	-0.000006	-0.140225
N34	N	1.065152	0.318805	0.124679
C35	C	0.979439	-0.000027	-0.552756
C36	C	1.143673	-0.000030	-0.574042
C37	C	1.145463	-0.000023	-0.480009
C38	C	1.064240	-0.000020	-0.422344
C39	C	0.981227	-0.000024	-0.458713
C40	C	1.228474	-0.000031	-0.443632
C41	C	1.230268	-0.000026	-0.349593
C42	C	1.149044	-0.000014	-0.291927
C43	C	1.066027	-0.000016	-0.328301
C44	C	0.984805	-0.000013	-0.270637
C45	C	0.901787	-0.000007	-0.307009
C46	C	0.900003	-0.000012	-0.401047
C47	C	1.150828	-0.000009	-0.197890
C48	C	0.986592	-0.000010	-0.176594
C49	C	1.058758	-0.000028	0.289496
C50	C	1.060662	-0.000031	0.389580
H51	H	0.338784	0.202385	0.120381
H52	H	0.650452	0.313927	0.126333
C53	C	0.898432	0.000249	-0.113946
C54	C	0.894658	0.105549	-0.059351
C55	C	0.813455	0.105838	-0.001638
H56	H	0.895622	-0.071032	-0.076735
H57	H	0.848713	0.000320	-0.149047
H58	H	0.944364	0.105467	-0.024253
H59	H	0.897454	0.176847	-0.096537
H60	H	0.763736	0.105908	-0.036739
H61	H	0.810652	0.034552	0.035567
H62	H	0.810880	0.177287	0.035406
C63	C	1.316685	-0.000287	-0.506190
C64	C	1.366645	-0.105591	-0.489759
C65	C	1.447908	-0.105872	-0.547381
H66	H	1.350830	0.070992	-0.495202
H67	H	1.303771	-0.000348	-0.567419
H68	H	1.379561	-0.105518	-0.428545
H69	H	1.332527	-0.176886	-0.500753
H70	H	1.434994	-0.105933	-0.608610
H71	H	1.482045	-0.034589	-0.536389
H72	H	1.481811	-0.177325	-0.536247
H73	H	1.209801	-0.000043	-0.620998
C74	C	0.325865	-0.232596	0.120236
C75	C	0.261814	-0.239118	0.196696
C76	C	0.214639	-0.350584	0.195940
H77	H	0.367225	-0.299137	0.121062
H78	H	0.295936	-0.237233	0.067032
H79	H	0.291742	-0.234493	0.249887
H80	H	0.220436	-0.172603	0.195887
H81	H	0.184710	-0.355221	0.142736
H82	H	0.256005	-0.417116	0.196763
H83	H	0.171169	-0.355019	0.247812
C84	C	1.320305	-0.000078	-0.309932
C85	C	1.304491	-0.000096	-0.215236
C86	C	1.387411	-0.000155	-0.178669
H87	H	1.353822	0.071266	-0.329623
H88	H	1.353760	-0.071471	-0.329662
H89	H	1.271050	0.071290	-0.195515
H90	H	1.270988	-0.071435	-0.195520
H91	H	1.420866	-0.071548	-0.198398
H92	H	1.420921	0.071191	-0.198366
H93	H	1.376692	-0.000178	-0.114414
H94	H	0.650430	-0.313955	0.126266
H95	H	0.479826	-0.313981	0.123018
C96	C	0.813633	0.000249	-0.244353
C97	C	0.809867	0.105546	-0.189755
C98	C	0.728671	0.105832	-0.132030
H99	H	0.810829	-0.071034	-0.207144
H100	H	0.763908	0.000320	-0.279445
H101	H	0.859579	0.105464	-0.154666
H102	H	0.812655	0.176846	-0.226939
H103	H	0.678946	0.105903	-0.167122
H104	H	0.725874	0.034545	-0.094828
H105	H	0.726101	0.177280	-0.094985
C106	C	0.809968	-0.000082	-0.440713
C107	C	0.825790	-0.000127	-0.535408
C108	C	0.742873	-0.000214	-0.571983
H109	H	0.776450	0.071262	-0.421034
H110	H	0.776511	-0.071475	-0.420976
H111	H	0.859233	0.071259	-0.555137
H112	H	0.859294	-0.071466	-0.555112
H113	H	0.709416	-0.071607	-0.552246
H114	H	0.709362	0.071131	-0.552298
H115	H	0.753597	-0.000256	-0.636237
H116	H	0.479831	0.313933	0.123074
H117	H	0.911848	-0.000018	-0.582375
H118	H	0.791506	0.202371	0.129014
H119	H	1.218419	-0.000022	-0.168279
H120	H	0.791488	-0.202397	0.128969
