data_functionalizedCrystal
_audit_creation_method	'MofGen! by Chris Wilmer'
_symmetry_space_group_name_H-M	'P1'
_symmetry_Int_Tables_number	1
_symmetry_cell_setting	triclinic
loop_
_symmetry_equiv_pos_as_xyz
  x,y,z
_cell_length_a	19.288864
_cell_length_b	17.038278
_cell_length_c	18.366186
_cell_angle_alpha	89.986923
_cell_angle_beta	89.977106
_cell_angle_gamma	87.123372
loop_
_atom_site_label
_atom_site_type_symbol
_atom_site_fract_x
_atom_site_fract_y
_atom_site_fract_z
O1	O	0.927385	0.097514	-0.060796
O2	O	1.260719	0.430847	0.272537
O3	O	1.594052	0.764181	0.605870
O4	O	0.725938	0.110668	-0.060748
O5	O	1.059272	0.444002	0.272585
O6	O	1.392605	0.777335	0.605918
O7	O	0.825465	-0.009720	-0.060754
O8	O	1.158799	0.323613	0.272580
O9	O	1.492132	0.656946	0.605913
O10	O	0.827858	0.217903	-0.060791
O11	O	1.161191	0.551236	0.272542
O12	O	1.494525	0.884569	0.605876
O13	O	0.825447	-0.009726	0.060346
O14	O	1.158780	0.323607	0.393679
O15	O	1.492114	0.656940	0.727012
O16	O	0.725920	0.110662	0.060351
O17	O	1.059253	0.443996	0.393684
O18	O	1.392587	0.777329	0.727018
O19	O	0.927367	0.097508	0.060303
O20	O	1.260700	0.430841	0.393636
O21	O	1.594033	0.764175	0.726970
Zn22	Zn	0.826640	0.104084	0.079554
Zn23	Zn	1.159974	0.437418	0.412887
Zn24	Zn	1.493307	0.770751	0.746221
Zn25	Zn	0.826665	0.104092	-0.080000
Zn26	Zn	1.159998	0.437425	0.253334
Zn27	Zn	1.493331	0.770759	0.586667
O28	O	0.827840	0.217897	0.060308
O29	O	1.161173	0.551230	0.393642
O30	O	1.494506	0.884563	0.726975
C31	C	0.700027	0.110242	-0.000192
C32	C	1.033360	0.443576	0.333141
C33	C	1.366693	0.776909	0.666474
C34	C	0.622844	0.108972	-0.000173
C35	C	0.956178	0.442305	0.333160
C36	C	1.289511	0.775638	0.666494
C37	C	0.823279	-0.038845	-0.000200
C38	C	1.156612	0.294489	0.333133
C39	C	1.489945	0.627822	0.666467
C40	C	0.816782	-0.125616	-0.000189
C41	C	1.150115	0.207717	0.333144
C42	C	1.483448	0.541050	0.666478
C43	C	0.582518	0.179610	-0.000196
C44	C	0.915851	0.512944	0.333137
C45	C	1.249185	0.846277	0.666471
C46	C	0.509997	0.178417	-0.000204
C47	C	0.843330	0.511750	0.333129
C48	C	1.176664	0.845083	0.666463
C49	C	0.477805	0.106580	-0.000203
C50	C	0.811139	0.439914	0.333130
C51	C	1.144472	0.773247	0.666463
C52	C	0.518141	0.035932	-0.000176
C53	C	0.851474	0.369266	0.333157
C54	C	1.184808	0.702599	0.666491
C55	C	0.590661	0.037128	-0.000161
C56	C	0.923994	0.370461	0.333172
C57	C	1.257327	0.703795	0.666506
C58	C	0.366056	0.050111	-0.042645
C59	C	0.699390	0.383444	0.290688
C60	C	1.032723	0.716778	0.624022
C61	C	0.293538	0.048918	-0.042665
C62	C	0.626872	0.382252	0.290669
C63	C	0.960205	0.715585	0.624002
C64	C	0.254132	0.102889	-0.000247
C65	C	0.587465	0.436223	0.333087
C66	C	0.920798	0.769556	0.666420
C67	C	0.287251	0.158066	0.042181
C68	C	0.620585	0.491400	0.375515
C69	C	0.953918	0.824733	0.708848
C70	C	0.359771	0.159262	0.042197
C71	C	0.693104	0.492596	0.375530
C72	C	1.026437	0.825929	0.708863
C73	C	0.399171	0.105276	-0.000219
C74	C	0.732504	0.438609	0.333114
C75	C	1.065837	0.771942	0.666447
C76	C	0.135169	0.172239	-0.000277
C77	C	0.468503	0.505572	0.333056
C78	C	0.801836	0.838905	0.666389
C79	C	0.062647	0.171042	-0.000281
C80	C	0.395981	0.504375	0.333053
C81	C	0.729314	0.837708	0.666386
C82	C	0.070793	0.028556	-0.000260
C83	C	0.404126	0.361889	0.333073
C84	C	0.737460	0.695222	0.666407
C85	C	0.143314	0.029754	-0.000249
C86	C	0.476647	0.363088	0.333084
C87	C	0.809980	0.696421	0.666417
C88	C	0.175497	0.101598	-0.000262
C89	C	0.508831	0.434931	0.333072
C90	C	0.842164	0.768265	0.666405
C91	C	0.776868	-0.615899	-0.000246
C92	C	1.110201	-0.282566	0.333087
C93	C	1.443534	0.050767	0.666421
C94	C	0.782978	-0.534369	-0.000240
C95	C	1.116311	-0.201035	0.333093
C96	C	1.449644	0.132298	0.666426
C97	C	0.848744	-0.503147	-0.000246
C98	C	1.182077	-0.169814	0.333087
C99	C	1.515411	0.163519	0.666420
C100	C	0.908404	-0.553462	-0.000265
C101	C	1.241737	-0.220128	0.333068
C102	C	1.575071	0.113205	0.666402
C103	C	0.902294	-0.634991	-0.000276
C104	C	1.235627	-0.301657	0.333058
C105	C	1.568960	0.031676	0.666391
C106	C	0.870331	-0.257460	-0.000219
C107	C	1.203665	0.075874	0.333115
C108	C	1.536998	0.409207	0.666448
C109	C	0.876437	-0.175924	-0.000206
C110	C	1.209771	0.157409	0.333128
C111	C	1.543104	0.490742	0.666461
C112	C	0.751010	-0.156837	-0.000182
C113	C	1.084344	0.176496	0.333151
C114	C	1.417677	0.509830	0.666484
C115	C	0.744905	-0.238368	-0.000189
C116	C	1.078239	0.094965	0.333144
C117	C	1.411572	0.428298	0.666478
C118	C	0.804566	-0.288675	-0.000212
C119	C	1.137899	0.044658	0.333122
C120	C	1.471232	0.377991	0.666455
C121	C	0.854991	-0.419810	-0.000238
C122	C	1.188324	-0.086477	0.333095
C123	C	1.521658	0.246856	0.666429
C124	C	0.798318	-0.372011	-0.000225
C125	C	1.131651	-0.038678	0.333108
C126	C	1.464985	0.294656	0.666442
C127	C	0.953279	0.097934	-0.000255
C128	C	1.286612	0.431268	0.333079
C129	C	1.619945	0.764601	0.666412
C130	C	1.030461	0.099205	-0.000279
C131	C	1.363794	0.432538	0.333055
C132	C	1.697128	0.765871	0.666388
C133	C	0.830027	0.247021	-0.000247
C134	C	1.163360	0.580354	0.333087
C135	C	1.496693	0.913688	0.666420
C136	C	0.836523	0.333793	-0.000263
C137	C	1.169857	0.667126	0.333071
C138	C	1.503190	1.000460	0.666404
N139	N	0.826629	0.104079	0.188445
N140	N	1.159962	0.437412	0.521779
N141	N	1.493295	0.770745	0.855112
N142	N	0.826681	0.104092	-0.188891
N143	N	1.160015	0.437425	0.144443
N144	N	1.493348	0.770758	0.477776
C145	C	0.870716	0.050797	0.226543
C146	C	1.204050	0.384130	0.559877
C147	C	1.537383	0.717463	0.893210
C148	C	0.870721	0.050793	0.302771
C149	C	1.204054	0.384126	0.636105
C150	C	1.537387	0.717460	0.969438
C151	C	0.826645	0.104085	0.340898
C152	C	1.159978	0.437418	0.674231
C153	C	1.493311	0.770752	1.007565
C154	C	0.782548	0.157371	0.302791
C155	C	1.115882	0.490704	0.636124
C156	C	1.449215	0.824038	0.969457
C157	C	0.782540	0.157368	0.226564
C158	C	1.115874	0.490701	0.559898
C159	C	1.449207	0.824035	0.893231
C160	C	0.821753	0.175309	0.461648
C161	C	1.155086	0.508642	0.794981
C162	C	1.488419	0.841975	1.128315
C163	C	0.821765	0.175313	0.537873
C164	C	1.155099	0.508646	0.871206
C165	C	1.488432	0.841980	1.204540
C166	C	0.826665	0.104095	0.576006
C167	C	1.159998	0.437428	0.909339
C168	C	1.493332	0.770761	1.242672
C169	C	0.831566	0.032869	0.537904
C170	C	1.164900	0.366202	0.871237
C171	C	1.498233	0.699536	1.204570
C172	C	0.831558	0.032866	0.461677
C173	C	1.164892	0.366199	0.795011
C174	C	1.498225	0.699533	1.128344
C175	C	0.826648	0.104094	0.423553
C176	C	1.159981	0.437427	0.756886
C177	C	1.493315	0.770761	1.090219
C178	C	0.870759	0.050805	0.696759
C179	C	1.204093	0.384138	1.030092
C180	C	1.537426	0.717471	1.363425
C181	C	0.870759	0.050800	0.772988
C182	C	1.204092	0.384133	1.106321
C183	C	1.537425	0.717467	1.439654
C184	C	0.782590	0.157385	0.773006
C185	C	1.115924	0.490718	1.106339
C186	C	1.449257	0.824052	1.439673
C187	C	0.782587	0.157383	0.696778
C188	C	1.115921	0.490716	1.030111
C189	C	1.449254	0.824049	1.363445
C190	C	0.826676	0.104093	0.658659
C191	C	1.160009	0.437427	0.991992
C192	C	1.493342	0.770760	1.325326
H193	H	0.608717	0.238111	-0.000207
H194	H	0.942051	0.571444	0.333126
H195	H	1.275384	0.904778	0.666459
H196	H	0.950872	-0.675951	-0.000292
H197	H	1.284205	-0.342618	0.333041
H198	H	1.617539	-0.009285	0.666374
H199	H	0.746690	0.200773	0.665757
H200	H	1.080023	0.534106	0.999090
H201	H	1.413356	0.867440	1.332423
H202	H	0.746660	0.200761	0.333837
H203	H	1.079993	0.534094	0.667171
H204	H	1.413326	0.867428	1.000504
H205	H	0.044583	-0.029935	-0.000305
H206	H	0.377917	0.303398	0.333029
H207	H	0.711250	0.636732	0.666362
H208	H	0.744772	-0.397435	-0.000224
H209	H	1.078105	-0.064102	0.333109
H210	H	1.411438	0.269232	0.666443
H211	H	0.734399	-0.493411	-0.000229
H212	H	1.067733	-0.160077	0.333104
H213	H	1.401066	0.173256	0.666438
H214	H	0.161375	0.230738	-0.000276
H215	H	0.494708	0.564071	0.333057
H216	H	0.828041	0.897405	0.666390
H217	H	0.255168	0.202015	0.076723
H218	H	0.588501	0.535348	0.410056
H219	H	0.921834	0.868681	0.743389
H220	H	0.691352	-0.263782	-0.000193
H221	H	1.024685	0.069551	0.333141
H222	H	1.358018	0.402885	0.666474
H223	H	0.477157	0.235941	-0.000221
H224	H	0.810490	0.569274	0.333113
H225	H	1.143824	0.902607	0.666446
H226	H	0.723314	-0.641313	-0.000233
H227	H	1.056647	-0.307979	0.333100
H228	H	1.389981	0.025354	0.666434
H229	H	0.908538	-0.394381	-0.000218
H230	H	1.241872	-0.061047	0.333115
H231	H	1.575205	0.272286	0.666448
H232	H	0.702439	-0.115869	-0.000165
H233	H	1.035772	0.217465	0.333168
H234	H	1.369105	0.550798	0.666502
H235	H	0.029814	0.228567	-0.000295
H236	H	0.363148	0.561900	0.333038
H237	H	0.696481	0.895233	0.666371
H238	H	0.817779	0.233309	0.568889
H239	H	1.151112	0.566642	0.902223
H240	H	1.484445	0.899976	1.235556
H241	H	0.906657	0.007411	0.665721
H242	H	1.239990	0.340744	0.999054
H243	H	1.573323	0.674077	1.332387
H244	H	0.929995	-0.150508	-0.000210
H245	H	1.263328	0.182826	0.333123
H246	H	1.596661	0.516159	0.666457
H247	H	0.386734	0.204187	0.076745
H248	H	0.720067	0.537520	0.410079
H249	H	1.053401	0.870854	0.743412
H250	H	0.918911	-0.298411	-0.000233
H251	H	1.252245	0.034923	0.333101
H252	H	1.585578	0.368256	0.666434
H253	H	0.906614	0.007403	0.195509
H254	H	1.239947	0.340737	0.528842
H255	H	1.573281	0.674070	0.862176
H256	H	0.906623	0.007403	0.333796
H257	H	1.239957	0.340736	0.667130
H258	H	1.573290	0.674069	1.000463
H259	H	0.176148	-0.027768	-0.000235
H260	H	0.509481	0.305566	0.333099
H261	H	0.842815	0.638899	0.666432
H262	H	0.623494	-0.020396	-0.000142
H263	H	0.956828	0.312937	0.333191
H264	H	1.290161	0.646270	0.666524
H265	H	0.817751	0.233307	0.430607
H266	H	1.151084	0.566640	0.763940
H267	H	1.484418	0.899974	1.097273
H268	H	0.835547	-0.025128	0.430658
H269	H	1.168881	0.308205	0.763991
H270	H	1.502214	0.641538	1.097325
H271	H	0.746638	0.200757	0.195544
H272	H	1.079971	0.534091	0.528878
H273	H	1.413305	0.867424	0.862211
H274	H	0.961953	-0.528035	-0.000268
H275	H	1.295286	-0.194702	0.333065
H276	H	1.628619	0.138632	0.666398
H277	H	0.266578	0.003993	-0.077215
H278	H	0.599911	0.337326	0.256118
H279	H	0.933244	0.670659	0.589452
H280	H	0.746700	0.200773	0.804048
H281	H	1.080033	0.534107	1.137381
H282	H	1.413366	0.867440	1.470715
H283	H	0.398136	0.006159	-0.077191
H284	H	0.731469	0.339493	0.256142
H285	H	1.064802	0.672826	0.589476
H286	H	0.835556	-0.025124	0.568950
H287	H	1.168889	0.308210	0.902283
H288	H	1.502222	0.641543	1.235616
H289	H	0.491926	-0.022557	-0.000186
H290	H	0.825259	0.310776	0.333148
H291	H	1.158593	0.644109	0.666481
H292	H	0.906658	0.007407	0.804008
H293	H	1.239991	0.340741	1.137341
H294	H	1.573325	0.674074	1.470674
