data_functionalizedCrystal
_audit_creation_method	'MofGen! by Chris Wilmer'
_symmetry_space_group_name_H-M	'P1'
_symmetry_Int_Tables_number	1
_symmetry_cell_setting	triclinic
loop_
_symmetry_equiv_pos_as_xyz
  x,y,z
_cell_length_a	21.295419
_cell_length_b	29.839131
_cell_length_c	21.295411
_cell_angle_alpha	90.020364
_cell_angle_beta	90.024539
_cell_angle_gamma	90.056221
loop_
_atom_site_label
_atom_site_type_symbol
_atom_site_fract_x
_atom_site_fract_y
_atom_site_fract_z
Zn1	Zn	0.962308	-0.178727	0.355917
Zn2	Zn	1.462308	0.321273	0.855917
Zn3	Zn	0.962190	-0.253843	0.250644
Zn4	Zn	1.462190	0.246157	0.750644
Zn5	Zn	0.857031	-0.178747	0.250662
Zn6	Zn	1.357031	0.321253	0.750662
Zn7	Zn	0.856980	-0.253850	0.355876
Zn8	Zn	1.356980	0.246150	0.855876
O9	O	0.909627	-0.216292	0.303275
O10	O	1.409627	0.283708	0.803275
O11	O	1.050382	-0.188680	0.341962
O12	O	1.550382	0.311320	0.841962
O13	O	0.948213	-0.243886	0.162557
O14	O	1.448213	0.256114	0.662557
O15	O	0.871067	-0.115877	0.264648
O16	O	1.371067	0.384123	0.764648
O17	O	1.050295	-0.243867	0.264619
O18	O	1.550295	0.256133	0.764619
O19	O	0.948413	-0.115863	0.341979
O20	O	1.448413	0.384137	0.841979
O21	O	0.870953	-0.188714	0.162570
O22	O	1.370953	0.311286	0.662570
O23	O	0.768935	-0.188721	0.264609
O24	O	1.268935	0.311279	0.764609
O25	O	0.870980	-0.243880	0.443971
O26	O	1.370980	0.256120	0.943971
O27	O	0.768898	-0.243899	0.341910
O28	O	1.268898	0.256101	0.841910
O29	O	0.948364	-0.188687	0.444001
O30	O	1.448364	0.311313	0.944001
O31	O	0.948163	-0.316711	0.264579
O32	O	1.448163	0.183289	0.764579
O33	O	0.870866	-0.316716	0.341893
O34	O	1.370866	0.183284	0.841893
C35	C	0.746076	-0.216313	0.303257
C36	C	1.246076	0.283687	0.803257
C37	C	0.676108	-0.216333	0.303264
C38	C	1.176108	0.283667	0.803264
C39	C	0.643308	-0.187644	0.343599
C40	C	1.143308	0.312356	0.843599
C41	C	0.577566	-0.187632	0.343602
C42	C	1.077566	0.312368	0.843602
C43	C	0.544625	-0.216317	0.303276
C44	C	1.044625	0.283683	0.803276
C45	C	0.577432	-0.245008	0.262933
C46	C	1.077432	0.254992	0.762933
C47	C	0.643173	-0.245016	0.262928
C48	C	1.143173	0.254984	0.762928
N49	N	0.441339	-0.255624	0.298357
N50	N	0.941339	0.244376	0.798357
N51	N	0.378888	-0.255616	0.298367
N52	N	0.878888	0.244384	0.798367
C53	C	0.346550	-0.216294	0.303290
C54	C	0.846550	0.283706	0.803290
N55	N	0.379024	-0.176981	0.308216
N56	N	0.879024	0.323019	0.808216
N57	N	0.441481	-0.176990	0.308210
N58	N	0.941481	0.323010	0.808210
C59	C	0.473340	-0.216311	0.303277
C60	C	0.973340	0.283689	0.803277
C61	C	0.242466	-0.187590	0.343629
C62	C	0.742466	0.312410	0.843629
C63	C	0.176722	-0.187577	0.343627
C64	C	0.676722	0.312423	0.843627
C65	C	0.176590	-0.244957	0.262962
C66	C	0.676590	0.255043	0.762962
C67	C	0.242332	-0.244965	0.262961
C68	C	0.742332	0.255035	0.762961
C69	C	0.275266	-0.216282	0.303298
C70	C	0.775266	0.283718	0.803298
C71	C	0.909514	-0.333014	0.303244
C72	C	1.409514	0.166986	0.803244
C73	C	0.909523	-0.382949	0.303251
C74	C	1.409523	0.117051	0.803251
C75	C	0.949949	-0.692577	0.263077
C76	C	1.449949	-0.192577	0.763077
C77	C	0.950027	-0.880250	0.263101
C78	C	1.450027	-0.380250	0.763101
O79	O	0.984309	-0.904501	0.228919
O80	O	1.484309	-0.404501	0.728919
N81	N	0.909758	-0.903734	0.303322
N82	N	1.409758	-0.403734	0.803322
C83	C	0.869469	-0.880297	0.343543
C84	C	1.369469	-0.380297	0.843543
O85	O	0.835225	-0.904578	0.377759
O86	O	1.335225	-0.404578	0.877759
C87	C	0.869395	-0.692625	0.343521
C88	C	1.369395	-0.192625	0.843521
C89	C	0.909663	-0.669143	0.303293
C90	C	1.409663	-0.169143	0.803293
C91	C	0.990214	-0.669095	0.222852
C92	C	1.490214	-0.169095	0.722852
C93	C	0.990191	-0.622179	0.222844
C94	C	1.490191	-0.122179	0.722844
C95	C	0.949905	-0.598746	0.263060
C96	C	1.449905	-0.098746	0.763060
C97	C	0.909640	-0.622227	0.303285
C98	C	1.409640	-0.122227	0.803285
C99	C	0.829111	-0.669188	0.383745
C100	C	1.329111	-0.169188	0.883745
C101	C	0.829097	-0.622267	0.383737
C102	C	1.329097	-0.122267	0.883737
C103	C	0.869364	-0.598786	0.343509
C104	C	1.369364	-0.098786	0.843509
C105	C	0.869331	-0.551878	0.343493
C106	C	1.369331	-0.051878	0.843493
N107	N	0.909600	-0.528394	0.303272
N108	N	1.409600	-0.028394	0.803272
C109	C	0.949887	-0.551828	0.263056
C110	C	1.449887	-0.051828	0.763056
C111	C	0.869510	-0.978827	0.343551
C112	C	1.369510	-0.478827	0.843551
C113	C	0.869528	-1.025745	0.343556
C114	C	1.369528	-0.525745	0.843556
C115	C	0.950086	-1.025695	0.263114
C116	C	1.450086	-0.525695	0.763114
C117	C	0.950065	-0.978776	0.263107
C118	C	1.450065	-0.478776	0.763107
C119	C	0.909779	-0.955343	0.303330
C120	C	1.409779	-0.455343	0.803330
C121	C	0.949837	-0.453302	0.263041
C122	C	1.449837	0.046698	0.763041
C123	C	0.949809	-0.406382	0.263035
C124	C	1.449809	0.093618	0.763035
C125	C	0.869253	-0.406437	0.343478
C126	C	1.369253	0.093563	0.843478
C127	C	0.869279	-0.453352	0.343483
C128	C	1.369279	0.046648	0.843483
C129	C	0.909575	-0.476784	0.303262
C130	C	1.409575	0.023216	0.803262
O131	O	0.835072	-0.527598	0.377662
O132	O	1.335072	-0.027598	0.877662
O133	O	0.984137	-0.527539	0.228855
O134	O	1.484137	-0.027539	0.728855
C135	C	0.949971	-0.739492	0.263085
C136	C	1.449971	-0.239492	0.763085
C137	C	0.909707	-0.762974	0.303309
C138	C	1.409707	-0.262974	0.803309
C139	C	0.869420	-0.739540	0.343526
C140	C	1.369420	-0.239540	0.843526
C141	C	0.909725	-0.809892	0.303314
C142	C	1.409725	-0.309892	0.803314
C143	C	0.950011	-0.833325	0.263098
C144	C	1.450011	-0.333325	0.763098
C145	C	0.990280	-0.809841	0.222876
C146	C	1.490280	-0.309841	0.722876
C147	C	0.990258	-0.762926	0.222868
C148	C	1.490258	-0.262926	0.722868
C149	C	0.829151	-0.763024	0.383747
C150	C	1.329151	-0.263024	0.883747
C151	C	0.829176	-0.809940	0.383751
C152	C	1.329176	-0.309940	0.883751
C153	C	0.869463	-0.833373	0.343535
C154	C	1.369463	-0.333373	0.843535
C155	C	1.073818	-0.216270	0.303293
C156	C	1.573818	0.283730	0.803293
C157	C	1.143786	-0.216261	0.303301
C158	C	1.643786	0.283739	0.803301
C159	C	0.909680	-0.216282	0.467465
C160	C	1.409680	0.283718	0.967465
C161	C	0.909702	-0.216278	0.537433
C162	C	1.409702	0.283722	1.037433
C163	C	0.909759	-0.099113	0.303320
C164	C	1.409759	0.400887	0.803320
C165	C	0.909815	-0.049179	0.303339
C166	C	1.409815	0.450821	0.803339
C167	C	0.909612	-0.216269	0.139723
C168	C	1.409612	0.283731	0.639723
C169	C	0.909711	-0.216146	0.069755
C170	C	1.409711	0.283854	0.569755
C171	C	0.949994	-0.187538	0.570316
C172	C	1.449994	0.312462	1.070316
C173	C	0.949993	-0.187519	0.636059
C174	C	1.449993	0.312481	1.136059
C175	C	0.909707	-0.216247	0.668916
C176	C	1.409707	0.283753	1.168916
C177	C	0.869407	-0.244989	0.636025
C178	C	1.369407	0.255011	1.136025
C179	C	0.869405	-0.245005	0.570283
C180	C	1.369405	0.254995	1.070283
N181	N	0.904840	-0.255549	0.772132
N182	N	1.404840	0.244451	1.272132
N183	N	0.904846	-0.255533	0.834584
N184	N	1.404846	0.244467	1.334584
C185	C	0.909711	-0.216202	0.866991
C186	C	1.409711	0.283798	1.366991
N187	N	0.914582	-0.176886	0.834587
N188	N	1.414582	0.323114	1.334587
N189	N	0.914579	-0.176903	0.772129
N190	N	1.414579	0.323097	1.272129
C191	C	0.909705	-0.216233	0.740201
C192	C	1.409705	0.283767	1.240201
C193	C	0.950004	-0.187438	0.971159
C194	C	1.450004	0.312562	1.471159
C195	C	0.949999	-0.187418	1.036903
C196	C	1.449999	0.312582	1.536903
C197	C	0.869416	-0.244893	1.036868
C198	C	1.369416	0.255107	1.536868
C199	C	0.869418	-0.244909	0.971125
C200	C	1.369418	0.255091	1.471125
C201	C	0.909715	-0.216182	0.938275
C202	C	1.409715	0.283818	1.438275
H203	H	0.669878	-0.268379	0.230081
H204	H	1.169878	0.231621	0.730081
N205	N	0.991149	-0.158086	0.937598
N206	N	1.491149	0.341914	1.437598
N207	N	0.969028	-0.129471	0.900906
N208	N	1.469028	0.370529	1.400906
H209	H	0.998085	-0.108740	0.877204
H210	H	1.498085	0.391260	1.377204
N211	N	0.991143	-0.158155	0.669660
N212	N	1.491143	0.341845	1.169660
N213	N	0.987017	-0.116702	0.662323
N214	N	1.487017	0.383298	1.162323
H215	H	1.016078	-0.095963	0.686053
H216	H	1.516078	0.404037	1.186053
N217	N	0.991160	-0.158194	0.536772
N218	N	1.491160	0.341806	1.036772
N219	N	1.027134	-0.132535	0.566145
N220	N	1.527134	0.367465	1.066145
H221	H	1.056209	-0.111810	0.542454
H222	H	1.556209	0.388190	1.042454
N223	N	0.991190	-0.954786	0.222015
N224	N	1.491190	-0.454786	0.722015
N225	N	0.969053	-0.928638	0.181878
N226	N	1.469053	-0.428638	0.681878
H227	H	0.998098	-0.911696	0.152855
H228	H	1.498098	-0.411696	0.652855
N229	N	0.676946	-0.158335	0.384787
N230	N	1.176946	0.341665	0.884787
N231	N	0.713660	-0.129686	0.362708
N232	N	1.213660	0.370314	0.862708
H233	H	0.737417	-0.108984	0.391795
H234	H	1.237417	0.391016	0.891795
N235	N	0.276113	-0.158282	0.384814
N236	N	0.776113	0.341718	0.884814
N237	N	0.312833	-0.129637	0.362732
N238	N	0.812833	0.370363	0.862732
H239	H	0.336596	-0.108937	0.391817
H240	H	0.836596	0.391063	0.891817
H241	H	0.836604	-0.268379	0.662781
H242	H	1.336604	0.231621	1.162781
N243	N	0.275830	-0.274275	0.221757
N244	N	0.775830	0.225725	0.721757
N245	N	0.246414	-0.299883	0.185752
N246	N	0.746414	0.200117	0.685752
H247	H	0.270071	-0.320583	0.156647
H248	H	0.770071	0.179417	0.656647
H249	H	0.836591	-0.268408	0.543510
H250	H	1.336591	0.231592	1.043510
H251	H	0.982652	-0.472374	0.230291
H252	H	1.482652	0.027626	0.730291
N253	N	1.031329	-0.598204	0.181748
N254	N	1.531329	-0.098204	0.681748
N255	N	1.067294	-0.619140	0.145848
N256	N	1.567294	-0.119140	0.645848
H257	H	1.096351	-0.602211	0.116823
H258	H	1.596351	-0.102211	0.616823
H259	H	0.796346	-0.743948	0.416497
H260	H	1.296346	-0.243948	0.916497
H261	H	0.982889	-1.044782	0.230368
H262	H	1.482889	-0.544782	0.730368
N263	N	0.990944	-0.382404	0.221933
N264	N	1.490944	0.117596	0.721933
N265	N	1.026910	-0.403336	0.186030
N266	N	1.526910	0.096664	0.686030
H267	H	1.055961	-0.386403	0.157002
H268	H	1.555961	0.113597	0.657002
N269	N	0.991158	-0.158053	1.070485
N270	N	1.491158	0.341947	1.570485
N271	N	1.027130	-0.132407	1.041144
N272	N	1.527130	0.367593	1.541144
H273	H	1.056200	-0.111667	1.064861
H274	H	1.556200	0.388333	1.564861
N275	N	0.828262	-0.274232	1.070432
N276	N	1.328262	0.225768	1.570432
N277	N	0.828265	-0.274212	1.129128
N278	N	1.328265	0.225788	1.629128
H279	H	0.799197	-0.294932	1.152837
H280	H	1.299197	0.205068	1.652837
H281	H	0.836732	-1.044860	0.376308
H282	H	1.336732	-0.544860	0.876308
N283	N	0.143226	-0.158260	0.384825
N284	N	0.643226	0.341740	0.884825
N285	N	0.172642	-0.132651	0.420829
N286	N	0.672642	0.367349	0.920829
H287	H	0.148986	-0.111944	0.449924
H288	H	0.648986	0.388056	0.949924
N289	N	0.828135	-0.477343	0.384559
N290	N	1.328135	0.022657	0.884559
N291	N	0.770048	-0.472162	0.380325
N292	N	1.270048	0.027838	0.880325
H293	H	0.740991	-0.489103	0.409338
H294	H	1.240991	0.010897	0.909338
N295	N	0.544063	-0.158332	0.384820
N296	N	1.044063	0.341668	0.884820
N297	N	0.573476	-0.132730	0.420838
N298	N	1.073476	0.367270	0.920838
H299	H	0.549816	-0.112040	0.449954
H300	H	1.049816	0.387960	0.949954
N301	N	0.543778	-0.274303	0.221741
N302	N	1.043778	0.225697	0.721741
N303	N	0.485081	-0.274292	0.221751
N304	N	0.985081	0.225708	0.721751
H305	H	0.461311	-0.294981	0.192656
H306	H	0.961311	0.205019	0.692656
H307	H	0.836612	-0.268315	0.944351
H308	H	1.336612	0.231685	1.444351
N309	N	0.142951	-0.274250	0.221758
N310	N	0.642951	0.225750	0.721758
N311	N	0.106277	-0.258394	0.181686
N312	N	0.606277	0.241606	0.681686
H313	H	0.082518	-0.279082	0.152580
H314	H	0.582518	0.220918	0.652580
N315	N	1.031376	-0.693020	0.181767
N316	N	1.531376	-0.193020	0.681767
N317	N	1.067321	-0.672039	0.145861
N318	N	1.567321	-0.172039	0.645861
H319	H	1.096393	-0.688933	0.116839
H320	H	1.596393	-0.188933	0.616839
N321	N	0.828353	-0.954902	0.384645
N322	N	1.328353	-0.454902	0.884645
N323	N	0.792405	-0.975881	0.420550
N324	N	1.292405	-0.475881	0.920550
H325	H	0.763335	-0.958985	0.449573
H326	H	1.263335	-0.458985	0.949573
H327	H	0.796318	-0.688299	0.416500
H328	H	1.296318	-0.188299	0.916500
H329	H	0.836451	-0.387350	0.376220
H330	H	1.336451	0.112650	0.876220
N331	N	0.787944	-0.598339	0.424833
N332	N	1.287944	-0.098339	0.924833
N333	N	0.752000	-0.619314	0.460746
N334	N	1.252000	-0.119314	0.960746
H335	H	0.722935	-0.602416	0.489770
H336	H	1.222935	-0.102416	0.989770
N337	N	1.031384	-0.738946	0.181766
N338	N	1.531384	-0.238946	0.681766
N339	N	1.027234	-0.744217	0.123678
N340	N	1.527234	-0.244217	0.623678
H341	H	1.056281	-0.727285	0.094646
H342	H	1.556281	-0.227285	0.594646
N343	N	1.031423	-0.833784	0.181787
N344	N	1.531423	-0.333784	0.681787
N345	N	1.009301	-0.859999	0.141661
N346	N	1.509301	-0.359999	0.641661
H347	H	1.038358	-0.876910	0.112644
H348	H	1.538358	-0.376910	0.612644
N349	N	0.788032	-0.833916	0.424846
N350	N	1.288032	-0.333916	0.924846
N351	N	0.752067	-0.812982	0.460749
N352	N	1.252067	-0.312982	0.960749
H353	H	0.723012	-0.829913	0.489774
H354	H	1.223012	-0.329913	0.989774
