data_functionalizedCrystal
_audit_creation_method	'MofGen! by Chris Wilmer'
_symmetry_space_group_name_H-M	'P1'
_symmetry_Int_Tables_number	1
_symmetry_cell_setting	triclinic
loop_
_symmetry_equiv_pos_as_xyz
  x,y,z
_cell_length_a	10.654550
_cell_length_b	14.586319
_cell_length_c	10.654550
_cell_angle_alpha	89.996358
_cell_angle_beta	95.515069
_cell_angle_gamma	90.000265
loop_
_atom_site_label
_atom_site_type_symbol
_atom_site_fract_x
_atom_site_fract_y
_atom_site_fract_z
O1	O	1.667840	0.076172	-0.176397
O2	O	1.302361	0.076188	-0.193204
O3	O	1.493503	0.076174	-0.002061
O4	O	1.476697	0.076186	-0.367540
O5	O	1.493490	-0.076307	-0.002058
O6	O	1.302348	-0.076292	-0.193201
O7	O	1.667826	-0.076309	-0.176395
Cu8	Cu	1.485086	-0.090223	-0.184797
Cu9	Cu	1.485102	0.090103	-0.184801
O10	O	1.476684	-0.076295	-0.367537
C11	C	1.255556	-0.000050	-0.191968
C12	C	1.116113	-0.000044	-0.188276
N13	N	1.485084	-0.217055	-0.184794
C14	C	1.036628	-0.000042	-0.300818
C15	C	0.905607	-0.000058	-0.297341
C16	C	0.933570	-0.000073	-0.068772
C17	C	1.064588	-0.000063	-0.072250
C18	C	1.569750	-0.452068	-0.100185
C19	C	1.569754	-0.548049	-0.100182
C20	C	1.400438	-0.548046	-0.269407
C21	C	1.400429	-0.452066	-0.269403
C22	C	1.485092	-0.404080	-0.184794
C23	C	1.485105	-0.596041	-0.184795
C24	C	1.485108	-0.700108	-0.184792
C25	C	1.485088	-0.300006	-0.184794
C26	C	1.714631	-0.000069	-0.177630
C27	C	1.854074	-0.000069	-0.181322
C28	C	1.492263	-0.000066	0.044738
C29	C	1.488571	-0.000064	0.184181
N30	N	1.485113	0.216935	-0.184794
C31	C	1.477925	-0.000053	-0.414336
C32	C	1.481616	-0.000048	-0.553779
C33	C	1.601112	-0.000069	0.263667
C34	C	1.597636	-0.000058	0.394688
C35	C	1.369066	-0.000041	0.366725
C36	C	1.372544	-0.000045	0.235706
H37	H	0.840894	-0.000059	-0.388984
H38	H	0.891602	-0.000095	0.025693
C39	C	1.662867	-0.399283	-0.007108
C40	C	1.755983	-0.452074	0.085965
C41	C	1.849100	-0.399292	0.179048
C42	C	1.849101	-0.293718	0.179060
C43	C	1.755982	-0.240921	0.085984
C44	C	1.662865	-0.293703	-0.007100
H45	H	1.755985	-0.530231	0.085960
H46	H	1.918032	-0.438377	0.247949
H47	H	1.918032	-0.254646	0.247966
H48	H	1.755980	-0.162763	0.085989
H49	H	1.593932	-0.254618	-0.076001
H50	H	1.078574	-0.000033	-0.395294
C51	C	1.307301	-0.399271	-0.362479
C52	C	1.214221	-0.452048	-0.455594
C53	C	1.121095	-0.399252	-0.548661
C54	C	1.121048	-0.293678	-0.548612
C55	C	1.214132	-0.240895	-0.455493
C56	C	1.307258	-0.293691	-0.362427
H57	H	1.214253	-0.530205	-0.455634
H58	H	1.052188	-0.438326	-0.617594
H59	H	1.052110	-0.254595	-0.617506
H60	H	1.214100	-0.162738	-0.455454
H61	H	1.376165	-0.254617	-0.293494
H62	H	1.129309	-0.000067	0.019401
H63	H	1.638688	-0.587119	-0.031285
H64	H	1.331509	-0.587126	-0.338296
H65	H	1.695588	-0.000083	0.221720
H66	H	1.689279	-0.000060	0.459401
H67	H	1.274601	-0.000027	0.408693
H68	H	1.280893	-0.000039	0.170985
