data_functionalizedCrystal
_audit_creation_method	'MofGen! by Chris Wilmer'
_symmetry_space_group_name_H-M	'P1'
_symmetry_Int_Tables_number	1
_symmetry_cell_setting	triclinic
loop_
_symmetry_equiv_pos_as_xyz
  x,y,z
_cell_length_a	6.817900
_cell_length_b	9.582860
_cell_length_c	17.982968
_cell_angle_alpha	93.503260
_cell_angle_beta	102.451960
_cell_angle_gamma	111.206767
loop_
_atom_site_label
_atom_site_type_symbol
_atom_site_fract_x
_atom_site_fract_y
_atom_site_fract_z
V1	V	-4.055304	-0.208457	-0.237408
O2	O	-4.001168	0.008575	-0.233032
O3	O	-4.046160	-0.411947	-0.235646
O4	O	-4.001315	-0.205883	-0.341013
O5	O	-4.046323	-0.198916	-0.126936
V6	V	-4.534569	-0.182422	-0.224211
O7	O	-4.325901	-0.265565	-0.266356
O8	O	-4.714169	-0.125314	-0.195264
O9	O	-4.320506	0.021068	-0.225973
O10	O	-4.706102	-0.399454	-0.228587
O11	O	-4.660946	-0.191963	-0.334683
O12	O	-4.365352	-0.184996	-0.120607
C13	C	-3.900891	-0.461534	-0.231865
C14	C	-3.974665	-0.627894	-0.231115
C15	C	-3.843685	-0.198677	-0.366270
C16	C	-3.881087	-0.197919	-0.450966
C17	C	-4.082025	-0.205062	-0.494633
C18	C	-4.117155	-0.204349	-0.574214
C19	C	-3.951349	-0.196504	-0.610128
C20	C	-3.750392	-0.189356	-0.566455
C21	C	-3.715260	-0.190058	-0.486874
C22	C	-3.892073	-0.186522	-0.887394
C23	C	-3.927224	-0.185825	-0.966981
C24	C	-4.293968	-0.200813	-0.974734
C25	C	-4.258835	-0.201515	-0.895153
C26	C	-4.057879	-0.194359	-0.851487
C27	C	-4.019788	-0.195129	-0.765196
C28	C	-3.989443	-0.195744	-0.696418
C29	C	-4.129118	0.070647	-0.229752
C30	C	-4.034583	0.237006	-0.230507
C31	C	-4.186324	-0.192207	-0.095345
C32	C	-4.128160	-0.192957	-0.010648
H33	H	-4.280771	-0.210158	-0.609764
H34	H	-4.393859	-0.207911	-0.865917
H35	H	-4.217052	-0.211461	-0.465399
H36	H	-4.457597	-0.206634	-1.010297
H37	H	-3.792192	-0.179432	-0.996218
H38	H	-3.728473	-0.180748	-0.851854
H39	H	-3.615389	-0.182959	-0.595701
H40	H	-3.551620	-0.184204	-0.451319
