data_functionalizedCrystal
_audit_creation_method	'MofGen! by Chris Wilmer'
_symmetry_space_group_name_H-M	'P1'
_symmetry_Int_Tables_number	1
_symmetry_cell_setting	triclinic
loop_
_symmetry_equiv_pos_as_xyz
  x,y,z
_cell_length_a	17.077404
_cell_length_b	19.077068
_cell_length_c	17.077396
_cell_angle_alpha	92.267122
_cell_angle_beta	89.980499
_cell_angle_gamma	92.327269
loop_
_atom_site_label
_atom_site_type_symbol
_atom_site_fract_x
_atom_site_fract_y
_atom_site_fract_z
Zn1	Zn	1.187475	-0.280197	-0.456376
Zn2	Zn	1.687475	0.219803	0.043624
Zn3	Zn	1.182097	-0.397901	-0.330375
Zn4	Zn	1.682097	0.102099	0.169625
Zn5	Zn	1.056205	-0.280222	-0.325125
Zn6	Zn	1.556205	0.219778	0.174875
Zn7	Zn	1.050892	-0.397859	-0.461596
Zn8	Zn	1.550892	0.102141	0.038404
O9	O	1.119167	-0.339045	-0.393368
O10	O	1.619167	0.160955	0.106632
O11	O	1.296608	-0.295818	-0.439674
O12	O	1.796608	0.204182	0.060326
O13	O	1.165371	-0.382318	-0.219833
O14	O	1.665371	0.117682	0.280167
O15	O	1.078093	-0.181727	-0.338154
O16	O	1.578093	0.318273	0.161846
O17	O	1.292657	-0.382294	-0.347101
O18	O	1.792657	0.117706	0.152899
O19	O	1.174536	-0.181709	-0.434583
O20	O	1.674536	0.318291	0.065417
O21	O	1.072878	-0.295860	-0.215976
O22	O	1.572878	0.204140	0.284024
O23	O	0.945654	-0.295819	-0.343216
O24	O	1.445654	0.204181	0.156784
O25	O	1.069036	-0.382223	-0.570750
O26	O	1.569036	0.117777	-0.070750
O27	O	0.941750	-0.382247	-0.443481
O28	O	1.441750	0.117753	0.056519
O29	O	1.169383	-0.295777	-0.566914
O30	O	1.669383	0.204223	-0.066914
O31	O	1.160218	-0.496386	-0.352163
O32	O	1.660218	0.003614	0.147837
O33	O	1.063822	-0.496356	-0.448571
O34	O	1.563822	0.003644	0.051429
C35	C	0.915220	-0.339032	-0.393346
C36	C	1.415220	0.160968	0.106654
C37	C	0.827970	-0.339043	-0.393356
C38	C	1.327970	0.160957	0.106644
C39	C	0.784964	-0.384114	-0.445486
C40	C	1.284964	0.115886	0.054514
C41	C	0.702984	-0.384116	-0.445499
C42	C	1.202984	0.115884	0.054501
C43	C	0.664010	-0.339050	-0.393376
C44	C	1.164010	0.160950	0.106624
C45	C	0.707021	-0.293974	-0.341243
C46	C	1.207021	0.206026	0.158757
C47	C	0.789000	-0.293969	-0.341235
C48	C	1.289000	0.206031	0.158765
C49	C	0.536151	-0.293988	-0.341263
C50	C	1.036151	0.206012	0.158737
C51	C	0.454166	-0.293993	-0.341270
C52	C	0.954166	0.206007	0.158730
C53	C	0.450134	-0.384134	-0.445526
C54	C	0.950134	0.115866	0.054474
C55	C	0.532113	-0.384130	-0.445518
C56	C	1.032113	0.115870	0.054482
C57	C	0.575119	-0.339055	-0.393384
C58	C	1.075119	0.160945	0.106616
C59	C	1.110881	-0.521909	-0.401521
C60	C	1.610881	-0.021909	0.098479
C61	C	1.107408	-0.600139	-0.405035
C62	C	1.607408	-0.100139	0.094965
C63	C	1.156004	-0.636884	-0.356533
C64	C	1.656004	-0.136884	0.143467
C65	C	1.152742	-0.710389	-0.359843
C66	C	1.652742	-0.210389	0.140157
C67	C	1.100880	-0.747148	-0.411651
C68	C	1.600880	-0.247148	0.088349
C69	C	1.052283	-0.710398	-0.460158
C70	C	1.552283	-0.210398	0.039842
C71	C	1.055549	-0.636894	-0.456852
C72	C	1.555549	-0.136894	0.043148
C73	C	1.085729	-0.966982	-0.426921
C74	C	1.585729	-0.466982	0.073079
C75	C	1.082465	-1.040491	-0.430222
C76	C	1.582465	-0.540491	0.069778
C77	C	1.182926	-1.040478	-0.329907
C78	C	1.682926	-0.540478	0.170093
C79	C	1.186184	-0.966973	-0.326602
C80	C	1.686184	-0.466973	0.173398
C81	C	1.137590	-0.930229	-0.375112
C82	C	1.637590	-0.430229	0.124888
N83	N	1.097543	-0.822282	-0.415033
N84	N	1.597543	-0.322282	0.084967
N85	N	1.140931	-0.855096	-0.371733
N86	N	1.640931	-0.355096	0.128267
C87	C	1.323911	-0.339058	-0.393391
C88	C	1.823911	0.160942	0.106609
C89	C	1.411160	-0.339064	-0.393400
C90	C	1.911160	0.160936	0.106600
C91	C	1.119217	-0.338993	-0.598110
C92	C	1.619217	0.161007	-0.098110
C93	C	1.119238	-0.338971	-0.685359
C94	C	1.619238	0.161029	-0.185359
C95	C	1.127507	-0.155467	-0.385201
C96	C	1.627507	0.344533	0.114799
C97	C	1.131061	-0.077237	-0.381720
C98	C	1.631061	0.422763	0.118280
C99	C	1.171491	-0.293955	-0.724353
C100	C	1.671491	0.206045	-0.224353
C101	C	1.171501	-0.293931	-0.806332
C102	C	1.671501	0.206069	-0.306332
C103	C	1.119262	-0.338928	-0.849316
C104	C	1.619262	0.161072	-0.349316
C105	C	1.067004	-0.383946	-0.810317
C106	C	1.567004	0.116054	-0.310317
C107	C	1.066990	-0.383965	-0.728339
C108	C	1.566990	0.116035	-0.228339
C109	C	1.067038	-0.383904	-0.981185
C110	C	1.567038	0.116096	-0.481185
C111	C	1.067052	-0.383885	-1.063169
C112	C	1.567052	0.116115	-0.563169
C113	C	1.171549	-0.293870	-1.059179
C114	C	1.671549	0.206130	-0.559179
C115	C	1.171535	-0.293889	-0.977201
C116	C	1.671535	0.206111	-0.477201
C117	C	1.119277	-0.338908	-0.938207
C118	C	1.619277	0.161092	-0.438207
C119	C	1.119165	-0.339046	-0.189420
C120	C	1.619165	0.160954	0.310580
C121	C	1.119305	-0.338869	-0.102163
C122	C	1.619305	0.161131	0.397837
H123	H	0.415115	-0.420834	-0.487978
H124	H	0.915115	0.079166	0.012022
H125	H	1.214052	-0.257276	-0.838078
H126	H	1.714052	0.242724	-0.338078
O127	O	0.661300	-0.427872	-0.496240
O128	O	1.161300	0.072128	0.003760
C129	C	0.634698	-0.462189	-0.631231
C130	C	1.134698	0.037811	-0.131231
C131	C	0.681965	-0.412597	-0.573852
C132	C	1.181965	0.087403	-0.073852
H133	H	0.651376	-0.449848	-0.693993
H134	H	1.151376	0.050152	-0.193993
H135	H	0.648262	-0.518932	-0.619922
H136	H	1.148262	-0.018932	-0.119922
H137	H	0.569413	-0.454468	-0.622251
H138	H	1.069413	0.045532	-0.122251
H139	H	0.747263	-0.420255	-0.582799
H140	H	1.247263	0.079745	-0.082799
H141	H	0.668334	-0.355872	-0.585176
H142	H	1.168334	0.144128	-0.085176
H143	H	0.422436	-0.257288	-0.298836
H144	H	0.922436	0.242712	0.201164
H145	H	0.675282	-0.257277	-0.298808
H146	H	1.175282	0.242723	0.201192
O147	O	1.032105	-1.076309	-0.480484
O148	O	1.532105	-0.576309	0.019516
C149	C	0.982584	-1.189554	-0.530055
C150	C	1.482584	-0.689554	-0.030055
C151	C	1.039638	-1.149079	-0.473093
C152	C	1.539638	-0.649079	0.026907
H153	H	0.988666	-1.248396	-0.524111
H154	H	1.488666	-0.748396	-0.024111
H155	H	0.919915	-1.175209	-0.515570
H156	H	1.419915	-0.675209	-0.015570
H157	H	0.996971	-1.175016	-0.592702
H158	H	1.496971	-0.675016	-0.092702
H159	H	1.025322	-1.163596	-0.410426
H160	H	1.525322	-0.663596	0.089574
H161	H	1.102289	-1.163428	-0.487646
H162	H	1.602289	-0.663428	0.012354
O163	O	1.016370	-0.427560	-1.105045
O164	O	1.516370	0.072440	-0.605045
C165	C	0.970032	-0.467365	-1.233105
C166	C	1.470032	0.032635	-0.733105
C167	C	1.027489	-0.417887	-1.185778
C168	C	1.527489	0.082113	-0.685778
H169	H	0.978991	-0.459551	-1.298386
H170	H	1.478991	0.040449	-0.798386
H171	H	0.981214	-0.524144	-1.219581
H172	H	1.481214	-0.024144	-0.719581
H173	H	0.907310	-0.454995	-1.216375
H174	H	1.407310	0.045005	-0.716375
H175	H	1.090233	-0.430194	-1.202481
H176	H	1.590233	0.069806	-0.702481
H177	H	1.016240	-0.361122	-1.199306
H178	H	1.516240	0.138878	-0.699306
O179	O	1.016260	-0.427713	-0.943430
O180	O	1.516260	0.072287	-0.443430
C181	C	0.912617	-0.516996	-0.956034
C182	C	1.412617	-0.016996	-0.456034
C183	C	0.970080	-0.467421	-0.998891
C184	C	1.470080	0.032579	-0.498891
H185	H	0.875255	-0.549103	-1.000854
H186	H	1.375255	-0.049103	-0.500854
H187	H	0.946958	-0.553850	-0.919331
H188	H	1.446958	-0.053850	-0.419331
H189	H	0.873061	-0.484694	-0.916178
H190	H	1.373061	0.015306	-0.416178
H191	H	1.009650	-0.499666	-1.038787
H192	H	1.509650	0.000334	-0.538787
H193	H	0.935691	-0.430565	-1.035544
H194	H	1.435691	0.069435	-0.535544
H195	H	1.214077	-0.257253	-0.942205
H196	H	1.714077	0.242747	-0.442205
H197	H	1.222490	-1.070403	-0.290414
H198	H	1.722490	-0.570403	0.209586
O199	O	1.038436	-0.931404	-0.474060
O200	O	1.538436	-0.431404	0.025940
C201	C	0.938461	-0.939181	-0.573920
C202	C	1.438461	-0.439181	-0.073920
C203	C	0.991972	-0.979564	-0.520569
C204	C	1.491972	-0.479564	-0.020569
H205	H	0.900893	-0.978101	-0.611548
H206	H	1.400893	-0.478101	-0.111548
H207	H	0.898913	-0.904845	-0.536330
H208	H	1.398913	-0.404845	-0.036330
H209	H	0.976010	-0.904693	-0.613421
H210	H	1.476010	-0.404693	-0.113421
H211	H	0.954484	-1.014090	-0.481060
H212	H	1.454484	-0.514090	0.018940
H213	H	1.031524	-1.013857	-0.558207
H214	H	1.531524	-0.513857	-0.058207
H215	H	1.214097	-0.257212	-1.090932
H216	H	1.714097	0.242788	-0.590932
H217	H	1.192313	-0.740304	-0.320346
H218	H	1.692313	-0.240304	0.179654
H219	H	1.010059	-0.740332	-0.502345
H220	H	1.510059	-0.240332	-0.002345
O221	O	1.016214	-0.427769	-0.690582
O222	O	1.516214	0.072231	-0.190582
C223	C	0.912556	-0.517038	-0.703185
C224	C	1.412556	-0.017038	-0.203185
C225	C	0.970030	-0.467474	-0.746043
C226	C	1.470030	0.032526	-0.246043
H227	H	0.875190	-0.549142	-0.748006
H228	H	1.375190	-0.049142	-0.248006
H229	H	0.946887	-0.553895	-0.666477
H230	H	1.446887	-0.053895	-0.166477
H231	H	0.873003	-0.484728	-0.663334
H232	H	1.373003	0.015272	-0.163334
H233	H	1.009597	-0.499728	-0.785934
H234	H	1.509597	0.000272	-0.285934
H235	H	0.935651	-0.430615	-0.782701
H236	H	1.435651	0.069385	-0.282701
O237	O	1.222265	-0.250178	-0.682720
O238	O	1.722265	0.249822	-0.182720
C239	C	1.325940	-0.160919	-0.687426
C240	C	1.825940	0.339081	-0.187426
C241	C	1.268468	-0.210452	-0.734667
C242	C	1.768468	0.289548	-0.234667
H243	H	1.363322	-0.128798	-0.729405
H244	H	1.863322	0.371202	-0.229405
H245	H	1.291606	-0.124076	-0.647422
H246	H	1.791606	0.375924	-0.147422
H247	H	1.365478	-0.193254	-0.650470
H248	H	1.865478	0.306746	-0.150470
H249	H	1.228917	-0.178173	-0.771668
H250	H	1.728917	0.321827	-0.271668
H251	H	1.302851	-0.247296	-0.774622
H252	H	1.802851	0.252704	-0.274622
O253	O	1.008420	-0.601088	-0.503935
O254	O	1.508420	-0.101088	-0.003935
C255	C	0.968898	-0.487855	-0.543268
C256	C	1.468898	0.012145	-0.043268
C257	C	1.022326	-0.528315	-0.489911
C258	C	1.522326	-0.028315	0.010089
H259	H	0.980110	-0.429011	-0.531937
H260	H	1.480110	0.070989	-0.031937
H261	H	0.982010	-0.502204	-0.607239
H262	H	1.482010	-0.002204	-0.107239
H263	H	0.904971	-0.502403	-0.530089
H264	H	1.404971	-0.002403	-0.030089
H265	H	1.086270	-0.513789	-0.503020
H266	H	1.586270	-0.013789	-0.003020
H267	H	1.009146	-0.513962	-0.425957
H268	H	1.509146	-0.013962	0.074043
H269	H	1.228414	-0.937045	-0.284416
H270	H	1.728414	-0.437045	0.215584
H271	H	1.024468	-0.420581	-0.845321
H272	H	1.524468	0.079419	-0.345321
H273	H	0.816690	-0.420815	-0.487928
H274	H	1.316690	0.079185	0.012072
H275	H	0.563843	-0.420830	-0.487957
H276	H	1.063843	0.079170	0.012043
H277	H	0.824015	-0.257264	-0.298789
H278	H	1.324015	0.242736	0.201211
H279	H	0.571164	-0.257277	-0.298816
H280	H	1.071164	0.242723	0.201184
H281	H	1.198232	-0.606960	-0.314342
H282	H	1.698232	-0.106960	0.185658
