data_functionalizedCrystal
_audit_creation_method	'MofGen! by Chris Wilmer'
_symmetry_space_group_name_H-M	'P1'
_symmetry_Int_Tables_number	1
_symmetry_cell_setting	triclinic
loop_
_symmetry_equiv_pos_as_xyz
  x,y,z
_cell_length_a	14.908782
_cell_length_b	16.625545
_cell_length_c	16.625539
_cell_angle_alpha	89.973757
_cell_angle_beta	93.285106
_cell_angle_gamma	86.732496
loop_
_atom_site_label
_atom_site_type_symbol
_atom_site_fract_x
_atom_site_fract_y
_atom_site_fract_z
Zn1	Zn	1.379088	-0.392086	-0.384643
Zn2	Zn	1.378981	-0.526919	-0.249817
Zn3	Zn	1.228239	-0.384336	-0.257619
Zn4	Zn	1.228189	-0.519103	-0.392399
O5	O	1.303624	-0.455611	-0.321120
O6	O	1.505313	-0.416486	-0.360247
O7	O	1.358961	-0.508032	-0.138020
O8	O	1.248315	-0.272535	-0.274489
O9	O	1.505234	-0.515547	-0.261190
O10	O	1.359144	-0.278229	-0.367813
O11	O	1.248212	-0.403277	-0.143753
O12	O	1.101994	-0.395699	-0.282009
O13	O	1.248229	-0.502227	-0.504201
O14	O	1.101957	-0.494712	-0.381031
O15	O	1.359095	-0.408908	-0.498503
O16	O	1.358912	-0.638711	-0.268711
O17	O	1.248126	-0.632969	-0.373465
C18	C	1.069243	-0.443517	-0.333209
C19	C	0.968974	-0.438362	-0.338400
C20	C	0.780474	-0.531688	-0.244850
C21	C	0.686262	-0.526847	-0.249725
C22	C	0.686336	-0.423846	-0.353029
C23	C	0.780548	-0.428686	-0.348154
C24	C	0.827614	-0.482608	-0.294062
C25	C	0.921827	-0.487444	-0.289183
C26	C	0.921900	-0.384447	-0.392491
C27	C	0.827688	-0.379606	-0.397366
C28	C	1.303526	-0.665097	-0.321099
C29	C	1.303567	-0.754720	-0.321113
C30	C	1.303602	-0.827504	-0.321128
C31	C	1.303654	-0.918815	-0.321143
C32	C	1.303701	-0.991594	-0.321150
C33	C	1.303753	-1.082911	-0.321164
C34	C	1.538921	-0.467753	-0.308983
C35	C	1.639190	-0.472927	-0.303812
C36	C	1.303669	-0.455560	-0.531426
C37	C	1.303687	-0.455538	-0.621047
C38	C	1.303747	-0.245308	-0.321156
C39	C	1.303800	-0.155690	-0.321172
C40	C	1.303702	-0.455521	-0.693828
C41	C	1.303723	-0.455492	-0.785136
C42	C	1.303744	-0.455465	-0.857911
C43	C	1.303767	-0.455437	-0.949224
C44	C	1.303632	-0.455606	-0.111628
C45	C	1.303788	-0.455410	-0.022000
H46	H	0.647884	-0.566814	-0.209653
H47	H	0.648000	-0.379952	-0.397074
H48	H	0.789355	-0.335707	-0.441408
H49	H	0.960147	-0.531348	-0.245137
H50	H	0.818795	-0.575588	-0.200801
H51	H	0.960292	-0.344479	-0.432559
