data_functionalizedCrystal
_audit_creation_method	'MofGen! by Chris Wilmer'
_symmetry_space_group_name_H-M	'P1'
_symmetry_Int_Tables_number	1
_symmetry_cell_setting	triclinic
loop_
_symmetry_equiv_pos_as_xyz
  x,y,z
_cell_length_a	16.625548
_cell_length_b	18.101395
_cell_length_c	16.625539
_cell_angle_alpha	90.027648
_cell_angle_beta	90.020568
_cell_angle_gamma	90.032172
loop_
_atom_site_label
_atom_site_type_symbol
_atom_site_fract_x
_atom_site_fract_y
_atom_site_fract_z
Zn1	Zn	1.232632	-0.294807	0.455913
Zn2	Zn	1.565965	0.038526	0.789246
Zn3	Zn	1.899299	0.371859	1.122580
Zn4	Zn	1.232515	-0.418656	0.321082
Zn5	Zn	1.565848	-0.085323	0.654415
Zn6	Zn	1.899182	0.248010	0.987748
Zn7	Zn	1.097794	-0.294835	0.321094
Zn8	Zn	1.431127	0.038498	0.654427
Zn9	Zn	1.764461	0.371831	0.987760
Zn10	Zn	1.097744	-0.418614	0.455872
Zn11	Zn	1.431077	-0.085280	0.789205
Zn12	Zn	1.764411	0.248053	1.122538
O13	O	1.165171	-0.356728	0.388490
O14	O	1.498505	-0.023395	0.721823
O15	O	1.831838	0.309939	1.055157
O16	O	1.345449	-0.311242	0.438040
O17	O	1.678782	0.022091	0.771373
O18	O	2.012116	0.355425	1.104706
O19	O	1.214616	-0.402261	0.208251
O20	O	1.547949	-0.068927	0.541584
O21	O	1.881282	0.264406	0.874918
O22	O	1.115750	-0.191199	0.339000
O23	O	1.449084	0.142135	0.672333
O24	O	1.782417	0.475468	1.005667
O25	O	1.345363	-0.402233	0.338980
O26	O	1.678696	-0.068900	0.672313
O27	O	2.012030	0.264433	1.005646
O28	O	1.214815	-0.191178	0.438051
O29	O	1.548149	0.142155	0.771384
O30	O	1.881482	0.475489	1.104718
O31	O	1.115637	-0.311290	0.208260
O32	O	1.448970	0.022043	0.541593
O33	O	1.782303	0.355377	0.874926
O34	O	0.984955	-0.311249	0.338960
O35	O	1.318288	0.022084	0.672293
O36	O	1.651622	0.355418	1.005626
O37	O	1.115665	-0.402161	0.568710
O38	O	1.448999	-0.068828	0.902043
O39	O	1.782332	0.264506	1.235376
O40	O	0.984918	-0.402188	0.437981
O41	O	1.318252	-0.068855	0.771314
O42	O	1.651585	0.264478	1.104647
O43	O	1.214767	-0.311201	0.568740
O44	O	1.548100	0.022133	0.902073
O45	O	1.881434	0.355466	1.235407
O46	O	1.214567	-0.522284	0.338940
O47	O	1.547901	-0.188950	0.672273
O48	O	1.881234	0.144383	1.005606
O49	O	1.115552	-0.522252	0.437969
O50	O	1.448885	-0.188919	0.771303
O51	O	1.782218	0.144414	1.104636
C52	C	0.955680	-0.356718	0.388467
C53	C	1.289014	-0.023384	0.721801
C54	C	1.622347	0.309949	1.055134
C55	C	0.866059	-0.356731	0.388477
C56	C	1.199393	-0.023398	0.721810
C57	C	1.532726	0.309936	1.055144
C58	C	0.537884	-0.356736	0.388511
C59	C	0.871217	-0.023402	0.721845
C60	C	1.204550	0.309931	1.055178
C61	C	0.629192	-0.356732	0.388499
C62	C	0.962525	-0.023399	0.721833
C63	C	1.295859	0.309934	1.055166
C64	C	0.701969	-0.356734	0.388494
C65	C	1.035302	-0.023400	0.721827
C66	C	1.368635	0.309933	1.055160
C67	C	0.793283	-0.356729	0.388483
C68	C	1.126616	-0.023396	0.721816
C69	C	1.459949	0.309937	1.055149
C70	C	1.165063	-0.549139	0.388466
C71	C	1.498397	-0.215805	0.721800
C72	C	1.831730	0.117528	1.055133
C73	C	1.165091	-0.631453	0.388483
C74	C	1.498424	-0.298119	0.721816
C75	C	1.831758	0.035214	1.055150
C76	C	1.165268	-0.930544	0.388527
C77	C	1.498601	-0.597210	0.721860
C78	C	1.831935	-0.263877	1.055193
C79	C	1.103114	-0.899230	0.450988
C80	C	1.436448	-0.565896	0.784321
C81	C	1.769781	-0.232563	1.117655
C82	C	1.102819	-0.813612	0.450793
C83	C	1.436152	-0.480278	0.784126
C84	C	1.769486	-0.146945	1.117459
C85	C	1.165180	-0.782161	0.388506
C86	C	1.498513	-0.448828	0.721839
C87	C	1.831847	-0.115495	1.055172
C88	C	1.142173	-0.813313	0.303528
C89	C	1.475506	-0.479980	0.636861
C90	C	1.808840	-0.146647	0.970194
C91	C	1.141772	-0.898959	0.303901
C92	C	1.475106	-0.565625	0.637235
C93	C	1.808439	-0.232292	0.970568
C94	C	1.250565	-0.898886	0.410295
C95	C	1.583898	-0.565552	0.743628
C96	C	1.917231	-0.232219	1.076962
C97	C	1.250063	-0.813235	0.412159
C98	C	1.583396	-0.479901	0.745492
C99	C	1.916730	-0.146568	1.078825
C100	C	1.165132	-0.698302	0.388489
C101	C	1.498465	-0.364968	0.721822
C102	C	1.831799	-0.031635	1.055155
C103	C	1.165314	-1.014403	0.388538
C104	C	1.498647	-0.681070	0.721871
C105	C	1.831981	-0.347736	1.055205
C106	C	1.375480	-0.356739	0.388513
C107	C	1.708813	-0.023406	0.721846
C108	C	2.042147	0.309927	1.055180
C109	C	1.465101	-0.356744	0.388523
C110	C	1.798435	-0.023411	0.721856
C111	C	2.131768	0.309923	1.055190
C112	C	1.165224	-0.356673	0.598799
C113	C	1.498557	-0.023340	0.932132
C114	C	1.831890	0.309994	1.265466
C115	C	1.165246	-0.356649	0.688420
C116	C	1.498579	-0.023316	1.021753
C117	C	1.831913	0.310017	1.355087
C118	C	1.165302	-0.163566	0.388531
C119	C	1.498635	0.169767	0.721865
C120	C	1.831968	0.503100	1.055198
C121	C	1.165357	-0.081252	0.388549
C122	C	1.498690	0.252081	0.721882
C123	C	1.832024	0.585415	1.055216
C124	C	1.165165	-0.356730	0.178999
C125	C	1.498499	-0.023396	0.512333
C126	C	1.831832	0.309937	0.845666
C127	C	1.165299	-0.356545	0.089378
C128	C	1.498633	-0.023211	0.422712
C129	C	1.831966	0.310122	0.756045
C130	C	1.165283	-0.356567	1.016596
C131	C	1.498617	-0.023233	1.349929
C132	C	1.831950	0.310100	1.683263
C133	C	1.165271	-0.356592	0.925287
C134	C	1.498604	-0.023259	1.258621
C135	C	1.831937	0.310075	1.591954
C136	C	1.165265	-0.356609	0.852511
C137	C	1.498598	-0.023275	1.185844
C138	C	1.831932	0.310058	1.519178
C139	C	1.165252	-0.356633	0.761197
C140	C	1.498585	-0.023300	1.094530
C141	C	1.831918	0.310034	1.427863
H142	H	1.117214	-0.792547	0.513803
H143	H	1.450547	-0.459214	0.847136
H144	H	1.783880	-0.125880	1.180469
H145	H	1.185078	-0.919675	0.255776
H146	H	1.518412	-0.586342	0.589109
H147	H	1.851745	-0.253009	0.922443
H148	H	1.186018	-0.792943	0.255720
H149	H	1.519352	-0.459609	0.589054
H150	H	1.852685	-0.126276	0.922387
H151	H	1.040275	-0.920817	0.436750
H152	H	1.373608	-0.587484	0.770083
H153	H	1.706942	-0.254151	1.103417
Cl154	Cl	1.046924	-0.780305	0.274546
Cl155	Cl	1.380257	-0.446972	0.607879
Cl156	Cl	1.713591	-0.113639	0.941213
Cl157	Cl	1.045507	-0.929909	0.275433
Cl158	Cl	1.378840	-0.596575	0.608766
Cl159	Cl	1.712173	-0.263242	0.942099
H160	H	1.039595	-0.793190	0.436373
H161	H	1.372928	-0.459856	0.769706
H162	H	1.706262	-0.126523	1.103040
H163	H	1.271540	-0.920433	0.471205
H164	H	1.604873	-0.587100	0.804538
H165	H	1.938207	-0.253766	1.137872
Cl166	Cl	1.276854	-0.781796	0.508715
Cl167	Cl	1.610187	-0.448462	0.842048
Cl168	Cl	1.943520	-0.115129	1.175381
Cl169	Cl	1.325346	-0.780170	0.347045
Cl170	Cl	1.658679	-0.446837	0.680378
Cl171	Cl	1.992013	-0.113504	1.013712
H172	H	1.117366	-0.919777	0.514202
H173	H	1.450700	-0.586443	0.847536
H174	H	1.784033	-0.253110	1.180869
Cl175	Cl	1.322063	-0.930164	0.340071
Cl176	Cl	1.655396	-0.596831	0.673405
Cl177	Cl	1.988729	-0.263498	1.006738
