data_functionalizedCrystal
_audit_creation_method	'MofGen! by Chris Wilmer'
_symmetry_space_group_name_H-M	'P1'
_symmetry_Int_Tables_number	1
_symmetry_cell_setting	triclinic
loop_
_symmetry_equiv_pos_as_xyz
  x,y,z
_cell_length_a	19.077236
_cell_length_b	12.594516
_cell_length_c	19.076919
_cell_angle_alpha	92.275735
_cell_angle_beta	89.887323
_cell_angle_gamma	92.304758
loop_
_atom_site_label
_atom_site_type_symbol
_atom_site_fract_x
_atom_site_fract_y
_atom_site_fract_z
Zn1	Zn	1.058347	-0.386368	-0.440560
Zn2	Zn	1.558347	0.113632	0.059440
Zn3	Zn	1.063012	-0.556940	-0.323062
Zn4	Zn	1.563012	-0.056940	0.176938
Zn5	Zn	0.945562	-0.385810	-0.318340
Zn6	Zn	1.445562	0.114190	0.181660
Zn7	Zn	0.940833	-0.571140	-0.435801
Zn8	Zn	1.440833	-0.071140	0.064199
O9	O	1.001938	-0.475065	-0.379441
O10	O	1.501938	0.024935	0.120559
O11	O	1.157299	-0.403286	-0.428942
O12	O	1.657299	0.096714	0.071058
O13	O	1.051363	-0.528063	-0.224104
O14	O	1.551363	-0.028063	0.275896
O15	O	0.960551	-0.236938	-0.334569
O16	O	1.460551	0.263062	0.165431
O17	O	1.160726	-0.528605	-0.342616
O18	O	1.660726	-0.028605	0.157384
O19	O	1.043413	-0.237348	-0.424364
O20	O	1.543413	0.262652	0.075636
O21	O	0.965074	-0.402335	-0.220636
O22	O	1.465074	0.097665	0.279364
O23	O	0.846602	-0.416104	-0.329954
O24	O	1.346602	0.083896	0.170046
O25	O	0.952490	-0.552806	-0.534763
O26	O	1.452490	-0.052806	-0.034763
O27	O	0.843127	-0.552265	-0.416251
O28	O	1.343127	-0.052265	0.083749
O29	O	1.038827	-0.417055	-0.538260
O30	O	1.538827	0.082945	-0.038260
O31	O	1.046777	-0.707771	-0.338001
O32	O	1.546777	-0.207771	0.161999
O33	O	0.957013	-0.718203	-0.420830
O34	O	1.457013	-0.218203	0.079170
C35	C	0.819368	-0.485665	-0.372074
C36	C	1.319368	0.014335	0.127926
C37	C	0.741263	-0.490227	-0.368939
C38	C	1.241263	0.009773	0.131061
C39	C	0.702783	-0.427236	-0.412480
C40	C	1.202783	0.072764	0.087520
C41	C	0.629395	-0.431517	-0.409529
C42	C	1.129395	0.068483	0.090471
C43	C	0.594489	-0.498795	-0.363039
C44	C	1.094489	0.001205	0.136961
C45	C	0.632974	-0.561788	-0.319494
C46	C	1.132974	-0.061788	0.180506
C47	C	0.706361	-0.557501	-0.322442
C48	C	1.206361	-0.057501	0.177558
C49	C	0.375198	-0.518595	-0.349391
C50	C	0.875198	-0.018595	0.150609
C51	C	0.301806	-0.522880	-0.346447
C52	C	0.801806	-0.022880	0.153553
C53	C	0.298232	-0.392606	-0.436482
C54	C	0.798232	0.107394	0.063518
C55	C	0.371620	-0.388330	-0.439429
C56	C	0.871620	0.111670	0.060571
C57	C	0.410099	-0.451319	-0.395881
C58	C	0.910099	0.048681	0.104119
N59	N	0.519475	-0.503174	-0.360023
N60	N	1.019475	-0.003174	0.139977
N61	N	0.485112	-0.446933	-0.398894
N62	N	0.985112	0.053067	0.101106
C63	C	1.001906	-0.751607	-0.379427
C64	C	1.501906	-0.251607	0.120573
C65	C	1.001956	-0.869910	-0.379448
C66	C	1.501956	-0.369910	0.120552
C67	C	1.050831	-0.933451	-0.334449
C68	C	1.550831	-0.433451	0.165551
C69	C	1.065423	-1.007210	-0.399276
C70	C	1.565423	-0.507210	0.100724
C71	C	0.987451	-1.006947	-0.314666
C72	C	1.487451	-0.506947	0.185334
C73	C	1.016579	-0.942112	-0.444309
C74	C	1.516579	-0.442112	0.055691
C75	C	0.938579	-0.941842	-0.359654
C76	C	1.438579	-0.441842	0.140346
C77	C	0.953144	-1.015574	-0.424524
C78	C	1.453144	-0.515574	0.075476
C79	C	1.185222	-0.464423	-0.386837
C80	C	1.685222	0.035577	0.113163
C81	C	1.263326	-0.459889	-0.389988
C82	C	1.763326	0.040111	0.110012
C83	C	0.994611	-0.486577	-0.562721
C84	C	1.494611	0.013423	-0.062721
C85	C	0.991488	-0.491482	-0.640824
C86	C	1.491488	0.008518	-0.140824
C87	C	1.001989	-0.197443	-0.379471
C88	C	1.501989	0.302557	0.120529
C89	C	1.002011	-0.079137	-0.379483
C90	C	1.502011	0.420863	0.120517
C91	C	1.034970	-0.423112	-0.679338
C92	C	1.534970	0.076888	-0.179338
C93	C	1.032027	-0.427718	-0.752724
C94	C	1.532027	0.072282	-0.252724
C95	C	0.985605	-0.500700	-0.787594
C96	C	1.485605	-0.000700	-0.287594
C97	C	0.942119	-0.569073	-0.749074
C98	C	1.442119	-0.069073	-0.249074
C99	C	0.945059	-0.564462	-0.675689
C100	C	1.445059	-0.064462	-0.175689
C101	C	0.971990	-0.522067	-1.006874
C102	C	1.471990	-0.022067	-0.506874
C103	C	0.969055	-0.526676	-1.080264
C104	C	1.469055	-0.026676	-0.580264
C105	C	1.058963	-0.385318	-1.083909
C106	C	1.558963	0.114682	-0.583909
C107	C	1.061901	-0.380717	-1.010523
C108	C	1.561901	0.119283	-0.510523
C109	C	1.018412	-0.449086	-0.972009
C110	C	1.518412	0.050914	-0.472009
N111	N	0.982598	-0.505412	-0.862606
N112	N	1.482598	-0.005412	-0.362606
N113	N	1.021417	-0.444369	-0.896999
N114	N	1.521417	0.055631	-0.396999
C115	C	1.009278	-0.463518	-0.196876
C116	C	1.509278	0.036482	0.303124
C117	C	1.012537	-0.458305	-0.118779
C118	C	1.512537	0.041695	0.381221
H119	H	0.737691	-0.608795	-0.286986
H120	H	1.237691	-0.108795	0.213014
H121	H	1.028815	-0.913671	-0.499154
H122	H	1.528815	-0.413671	0.000846
C123	C	0.741173	-0.353223	-0.463622
C124	C	1.241173	0.146777	0.036378
N125	N	0.770086	-0.297470	-0.502142
N126	N	1.270086	0.202530	-0.002142
H127	H	0.975160	-1.035526	-0.259865
H128	H	1.475160	-0.535526	0.240135
H129	H	0.598067	-0.380224	-0.444986
H130	H	1.098067	0.119776	0.055014
C131	C	1.086037	-0.342824	-0.640988
C132	C	1.586037	0.157176	-0.140988
N133	N	1.124499	-0.282345	-0.612105
N134	N	1.624499	0.217655	-0.112105
H135	H	0.884976	-0.913013	-0.342875
H136	H	1.384976	-0.413013	0.157125
C137	C	0.417516	-0.587891	-0.301489
C138	C	0.917516	-0.087891	0.198511
N139	N	0.449392	-0.640089	-0.265408
N140	N	0.949392	-0.140089	0.234592
H141	H	1.067436	-0.372046	-0.784079
H142	H	1.567436	0.127954	-0.284079
H143	H	1.099704	-0.321290	-0.982137
H144	H	1.599704	0.178710	-0.482137
C145	C	1.137859	-1.046131	-0.421917
C146	C	1.637859	-0.546131	0.078083
N147	N	1.192420	-1.075444	-0.438964
N148	N	1.692420	-0.575444	0.061036
H149	H	1.092168	-0.897578	-0.296432
H150	H	1.592168	-0.397578	0.203568
C151	C	1.106789	-0.310104	-1.126279
C152	C	1.606789	0.189896	-0.626279
N153	N	1.142810	-0.253444	-1.158193
N154	N	1.642810	0.246556	-0.658193
H155	H	0.400036	-0.333549	-0.477288
H156	H	0.900036	0.166451	0.022712
H157	H	0.931251	-0.586109	-1.108653
H158	H	1.431251	-0.086109	-0.608653
C159	C	0.594575	-0.635794	-0.268354
C160	C	1.094575	-0.135794	0.231646
N161	N	0.565653	-0.691539	-0.229836
N162	N	1.065653	-0.191539	0.270164
H163	H	0.911834	-1.051253	-0.462639
H164	H	1.411834	-0.551253	0.037361
C165	C	0.924148	-0.597273	-0.964519
C166	C	1.424148	-0.097273	-0.464519
N167	N	0.888110	-0.653920	-0.932614
N168	N	1.388110	-0.153920	-0.432614
C169	C	0.891048	-0.649345	-0.787433
C170	C	1.391048	-0.149345	-0.287433
N171	N	0.852580	-0.709807	-0.816324
N172	N	1.352580	-0.209807	-0.316324
H173	H	0.266894	-0.341322	-0.471936
H174	H	0.766894	0.158678	0.028064
C175	C	0.263411	-0.596895	-0.295303
C176	C	0.763411	-0.096895	0.204697
N177	N	0.234492	-0.652642	-0.256784
N178	N	0.734492	-0.152642	0.243216
C179	C	0.897226	-0.639677	-0.633324
C180	C	1.397226	-0.139677	-0.133324
N181	N	0.861196	-0.696329	-0.601414
N182	N	1.361196	-0.196329	-0.101414
