data_functionalizedCrystal
_audit_creation_method	'MofGen! by Chris Wilmer'
_symmetry_space_group_name_H-M	'P1'
_symmetry_Int_Tables_number	1
_symmetry_cell_setting	triclinic
loop_
_symmetry_equiv_pos_as_xyz
  x,y,z
_cell_length_a	17.019370
_cell_length_b	17.038272
_cell_length_c	15.500237
_cell_angle_alpha	93.044094
_cell_angle_beta	96.697014
_cell_angle_gamma	92.756092
loop_
_atom_site_label
_atom_site_type_symbol
_atom_site_fract_x
_atom_site_fract_y
_atom_site_fract_z
O1	O	0.168467	-1.040220	-0.059290
O2	O	0.165736	-0.812604	-0.059519
O3	O	0.052291	-0.933195	-0.067948
O4	O	0.281912	-0.919629	-0.050861
O5	O	0.059147	-0.925876	0.076450
O6	O	0.172592	-0.805285	0.084879
O7	O	0.175323	-1.032902	0.085108
Cu8	Cu	0.174584	-0.918425	0.098178
Cu9	Cu	0.166476	-0.927080	-0.072589
O10	O	0.288768	-0.912310	0.093537
C11	C	0.166682	-0.779828	0.012492
C12	C	0.159275	-0.693070	0.011931
N13	N	0.180286	-0.912343	0.218287
C14	C	0.026193	-0.929165	0.002052
C15	C	-0.061784	-0.928053	-0.004501
C16	C	-0.099386	-0.923539	0.071128
C17	C	-0.182051	-0.922499	0.064963
C18	C	-0.227111	-0.925967	-0.016832
C19	C	-0.189504	-0.930484	-0.092466
C20	C	-0.106841	-0.931529	-0.086301
C21	C	-0.476887	-0.923015	-0.039386
C22	C	-0.559555	-0.921967	-0.045546
C23	C	-0.552096	-0.913984	0.111884
C24	C	-0.469432	-0.915025	0.118042
C25	C	-0.431832	-0.919545	0.042408
C26	C	-0.311608	-0.924902	-0.023135
C27	C	-0.347337	-0.920616	0.048712
C28	C	0.314866	-0.916340	0.023536
C29	C	0.402843	-0.917453	0.030083
C30	C	0.174377	-1.065678	0.013095
C31	C	0.181784	-1.152436	0.013651
C32	C	0.227274	-0.642641	0.016992
C33	C	0.220311	-0.561122	0.016486
C34	C	0.145347	-0.530033	0.010912
C35	C	0.077343	-0.580468	0.005854
C36	C	0.084307	-0.661985	0.006366
C37	C	0.120744	-0.284388	0.009105
C38	C	0.113784	-0.202865	0.008590
C39	C	0.256754	-0.183524	0.019224
C40	C	0.263711	-0.265044	0.019730
C41	C	0.195707	-0.315471	0.014676
C42	C	0.138228	-0.446708	0.010392
C43	C	0.202827	-0.398794	0.015203
C44	C	0.132236	-0.963459	0.259993
C45	C	0.136556	-0.958867	0.350887
C46	C	0.188932	-0.903162	0.400073
C47	C	0.236984	-0.852040	0.358361
C48	C	0.232659	-0.856630	0.267468
C49	C	0.204499	-0.886630	0.674697
C50	C	0.208822	-0.882046	0.765596
C51	C	0.108393	-0.988872	0.758116
C52	C	0.104076	-0.993460	0.667222
C53	C	0.152125	-0.942335	0.625517
C54	C	0.193351	-0.898468	0.492982
C55	C	0.147701	-0.947026	0.532610
N56	N	0.160772	-0.933162	0.807302
H57	H	-0.062702	-0.920702	0.137734
H58	H	0.312119	-0.142458	0.023340
C59	C	-0.675500	-0.908841	0.172338
C60	C	-0.593429	-0.909024	0.195018
H61	H	-0.701015	-0.905785	0.223665
H62	H	-0.687608	-0.864731	0.139210
H63	H	-0.693539	-0.955890	0.138769
H64	H	-0.575389	-0.861971	0.228582
H65	H	-0.581316	-0.953137	0.228160
H66	H	0.235998	-0.853113	0.533037
H67	H	0.324754	-0.290350	0.024259
H68	H	-0.212663	-0.918827	0.126548
H69	H	0.275684	-0.520066	0.020606
C70	C	-0.026842	-0.230166	-0.001861
C71	C	0.031378	-0.168691	0.002465
H72	H	-0.077712	-0.209066	-0.005639
H73	H	-0.023548	-0.264106	-0.051789
H74	H	-0.018756	-0.259011	0.048922
H75	H	0.023296	-0.139850	-0.048321
H76	H	0.028081	-0.134738	0.052398
C77	C	0.036876	-1.064940	0.334366
C78	C	0.083750	-1.015068	0.396732
H79	H	0.004281	-1.099642	0.362670
H80	H	0.004496	-1.034344	0.296645
H81	H	0.070065	-1.094667	0.301496
H82	H	0.050561	-0.985336	0.429597
H83	H	0.116133	-1.045667	0.434468
C84	C	0.301434	-0.759011	0.022487
C85	C	0.309677	-0.676811	0.023112
H86	H	0.352308	-0.780102	0.026261
H87	H	0.275604	-0.773797	0.070739
H88	H	0.270809	-0.778880	-0.029972
H89	H	0.340297	-0.656940	0.075574
H90	H	0.335519	-0.662018	-0.025144
C91	C	-0.470369	-0.907079	0.273036
C92	C	-0.419905	-0.911245	0.207954
H93	H	-0.439792	-0.904756	0.328543
H94	H	-0.499784	-0.861252	0.267595
H95	H	-0.505746	-0.952412	0.267115
H96	H	-0.384532	-0.865909	0.213871
H97	H	-0.390477	-0.957077	0.213398
H98	H	0.271786	-0.815004	0.233512
H99	H	0.065369	-0.325437	0.004990
C100	C	-0.031231	-1.041209	0.629783
C101	C	0.046322	-1.054674	0.613378
H102	H	-0.066936	-1.078995	0.596602
H103	H	-0.035340	-1.045657	0.689935
H104	H	-0.044017	-0.989844	0.613922
H105	H	0.059110	-1.106037	0.629245
H106	H	0.050434	-1.050232	0.553212
C107	C	0.304209	-0.780584	0.691234
C108	C	0.257321	-0.830441	0.628863
H109	H	0.336824	-0.745898	0.662934
H110	H	0.271035	-0.750846	0.724098
H111	H	0.336576	-0.811199	0.728960
H112	H	0.224949	-0.799826	0.591140
H113	H	0.290498	-0.860181	0.595985
H114	H	0.069272	-1.030494	0.792080
C115	C	0.003185	-0.464098	0.000338
C116	C	-0.005060	-0.546298	-0.000274
H117	H	-0.047690	-0.443007	-0.003453
H118	H	0.033800	-0.444224	0.052791
H119	H	0.029025	-0.449319	-0.047919
H120	H	-0.030895	-0.561077	0.047987
H121	H	-0.035687	-0.566180	-0.052733
H122	H	0.279626	-0.806680	0.398413
H123	H	-0.348306	-0.927724	-0.089733
C124	C	-0.558625	-0.929889	-0.200547
C125	C	-0.609085	-0.925724	-0.135461
H126	H	-0.589203	-0.932194	-0.256052
H127	H	-0.523237	-0.884573	-0.194615
H128	H	-0.529222	-0.975735	-0.195121
H129	H	-0.638483	-0.879875	-0.140883
H130	H	-0.644486	-0.971044	-0.141396
H131	H	-0.446283	-0.926695	-0.100973
H132	H	0.251476	-0.836681	0.805640
C133	C	0.290060	-0.482992	-0.052291
C134	C	0.285228	-0.432962	0.021323
H135	H	0.340933	-0.504086	-0.048517
H136	H	0.250561	-0.524685	-0.055220
H137	H	0.281975	-0.454129	-0.103060
H138	H	0.293306	-0.461827	0.072092
H139	H	0.324739	-0.391262	0.024261
H140	H	-0.226199	-0.933312	-0.159065
H141	H	-0.076227	-0.935205	-0.147886
H142	H	0.105054	-0.992379	0.492560
C143	C	-0.245678	-0.849965	0.147269
C144	C	-0.297806	-0.916798	0.138618
H145	H	-0.215097	-0.847604	0.202776
H146	H	-0.211463	-0.852813	0.103108
H147	H	-0.275123	-0.804150	0.141806
H148	H	-0.268360	-0.962613	0.144075
H149	H	-0.332024	-0.913956	0.182793
H150	H	0.028934	-0.703044	0.002245
H151	H	0.089589	-1.008824	0.219952
H152	H	0.077193	-0.421386	0.005879
