data_functionalizedCrystal
_audit_creation_method	'MofGen! by Chris Wilmer'
_symmetry_space_group_name_H-M	'P1'
_symmetry_Int_Tables_number	1
_symmetry_cell_setting	triclinic
loop_
_symmetry_equiv_pos_as_xyz
  x,y,z
_cell_length_a	14.044191
_cell_length_b	14.044190
_cell_length_c	12.503552
_cell_angle_alpha	86.163821
_cell_angle_beta	93.842477
_cell_angle_gamma	93.191777
loop_
_atom_site_label
_atom_site_type_symbol
_atom_site_fract_x
_atom_site_fract_y
_atom_site_fract_z
O1	O	1.282222	0.225150	0.089291
O2	O	1.782222	0.725150	0.589291
O3	O	1.005550	0.216836	0.089303
O4	O	1.505550	0.716836	0.589303
O5	O	1.139728	0.082658	0.089276
O6	O	1.639728	0.582658	0.589276
O7	O	1.148043	0.359328	0.089318
O8	O	1.648043	0.859328	0.589318
O9	O	1.129625	0.092758	-0.089364
O10	O	1.629625	0.592758	0.410636
O11	O	0.995447	0.226936	-0.089337
O12	O	1.495447	0.726936	0.410663
O13	O	1.272119	0.235249	-0.089350
O14	O	1.772119	0.735249	0.410650
Cu15	Cu	1.132860	0.232015	-0.105655
Cu16	Cu	1.632860	0.732015	0.394345
Cu17	Cu	1.144808	0.220071	0.105608
Cu18	Cu	1.644808	0.720071	0.605608
O19	O	1.137940	0.369428	-0.089323
O20	O	1.637940	0.869428	0.410677
C21	C	0.964876	0.218249	-0.000016
C22	C	1.464876	0.718249	0.499984
C23	C	0.858733	0.207402	-0.000012
C24	C	1.358733	0.707402	0.499988
C25	C	1.131040	0.052086	-0.000047
C26	C	1.631040	0.552086	0.499953
C27	C	1.120192	-0.054057	-0.000056
C28	C	1.620192	0.445943	0.499944
C29	C	0.613276	0.264503	-0.000014
C30	C	1.113276	0.764503	0.499986
C31	C	0.664399	0.187587	-0.000023
C32	C	1.164399	0.687587	0.499977
C33	C	0.772536	0.198615	-0.000017
C34	C	1.272536	0.698615	0.499983
C35	C	0.505129	0.253476	-0.000020
C36	C	1.005129	0.753476	0.499980
C37	C	1.177295	-0.299516	-0.000017
C38	C	1.677295	0.200484	0.499983
C39	C	1.100378	-0.248393	-0.000021
C40	C	1.600378	0.251607	0.499979
C41	C	1.111405	-0.140254	-0.000040
C42	C	1.611405	0.359746	0.499960
C43	C	1.166269	-0.407664	0.000003
C44	C	1.666269	0.092336	0.500003
C45	C	1.312792	0.233836	-0.000029
C46	C	1.812792	0.733836	0.499971
C47	C	1.418936	0.244683	-0.000026
C48	C	1.918936	0.744683	0.499974
C49	C	1.146629	0.400000	0.000003
C50	C	1.646629	0.900000	0.500003
C51	C	1.157477	0.506142	0.000019
C52	C	1.657477	1.006142	0.500019
N53	N	1.124464	0.240416	-0.254246
N54	N	1.624464	0.740416	0.245754
C55	C	1.165558	0.199302	-0.526687
C56	C	1.665558	0.699302	-0.026687
C57	C	1.112120	0.252774	-0.473352
C58	C	1.612120	0.752774	0.026648
C59	C	1.118990	0.245896	-0.351430
C60	C	1.618990	0.745896	0.148570
C61	C	1.158689	0.206179	-0.648621
C62	C	1.658689	0.706179	-0.148621
N63	N	1.153212	0.211663	0.254199
N64	N	1.653212	0.711663	0.754199
H65	H	0.626957	0.113450	0.000041
H66	H	1.126957	0.613450	0.500041
C67	C	0.632185	0.419441	-0.091808
C68	C	1.132185	0.919441	0.408192
C69	C	0.663820	0.364574	0.000013
C70	C	1.163820	0.864574	0.500013
H71	H	0.663403	0.481217	-0.091789
H72	H	1.163403	0.981217	0.408211
H73	H	0.565101	0.425065	-0.091803
H74	H	1.065101	0.925065	0.408197
H75	H	0.646613	0.389257	-0.154105
H76	H	1.146613	0.889257	0.345895
H77	H	0.649385	0.394755	0.062310
H78	H	1.149385	0.894755	0.562310
H79	H	0.730919	0.358953	0.000019
H80	H	1.230919	0.858953	0.500019
H81	H	1.216464	0.148362	-0.480787
H82	H	1.716464	0.648362	0.019213
C83	C	1.332233	-0.280586	0.091795
C84	C	1.832233	0.219414	0.591795
C85	C	1.277365	-0.248969	-0.000036
C86	C	1.777365	0.251031	0.499964
H87	H	1.394008	-0.249366	0.091783
H88	H	1.894008	0.250634	0.591783
H89	H	1.337861	-0.347670	0.091799
H90	H	1.837861	0.152330	0.591799
H91	H	1.302047	-0.266148	0.154085
H92	H	1.802047	0.233852	0.654085
H93	H	1.307548	-0.263414	-0.062326
H94	H	1.807548	0.236586	0.437674
H95	H	1.271740	-0.181870	-0.000049
H96	H	1.771740	0.318130	0.499951
H97	H	1.061212	0.303719	-0.519258
H98	H	1.561212	0.803719	-0.019258
H99	H	1.026246	-0.285838	-0.000011
H100	H	1.526246	0.214162	0.499989
