data_functionalizedCrystal
_audit_creation_method	'MofGen! by Chris Wilmer'
_symmetry_space_group_name_H-M	'P1'
_symmetry_Int_Tables_number	1
_symmetry_cell_setting	triclinic
loop_
_symmetry_equiv_pos_as_xyz
  x,y,z
_cell_length_a	16.793024
_cell_length_b	16.793047
_cell_length_c	33.586455
_cell_angle_alpha	113.253857
_cell_angle_beta	66.219990
_cell_angle_gamma	112.758327
loop_
_atom_site_label
_atom_site_type_symbol
_atom_site_fract_x
_atom_site_fract_y
_atom_site_fract_z
O1	O	0.005016	-0.570216	-0.583573
O2	O	-0.034529	-0.474528	-0.453458
O3	O	0.114723	-0.474535	-0.528082
O4	O	-0.144235	-0.570209	-0.508949
O5	O	0.108729	-0.346329	-0.530229
O6	O	-0.040523	-0.346322	-0.455605
O7	O	-0.000977	-0.442010	-0.585721
Zn8	Zn	-0.021701	-0.373810	-0.521004
Zn9	Zn	-0.013805	-0.542728	-0.518175
O10	O	-0.150229	-0.442003	-0.511097
C11	C	0.005100	-0.790970	-0.238461
C12	C	-0.040584	-0.395375	-0.435637
C13	C	-0.044693	-0.353446	-0.386631
C14	C	-0.039275	-0.401741	-0.363054
C15	C	-0.040566	-0.125547	-0.300731
C16	C	-0.044689	-0.223451	-0.321635
C17	C	-0.039266	-0.270752	-0.297563
C18	C	0.005118	-0.521142	-0.103554
C19	C	-0.046224	-0.263935	-0.366370
C20	C	-0.036476	-0.360146	-0.318399
C21	C	-0.030850	-0.408530	-0.294565
C22	C	-0.028014	-0.367522	-0.249895
C23	C	-0.030804	-0.278128	-0.229058
C24	C	-0.036430	-0.229743	-0.252892
C25	C	-0.027971	-0.237122	-0.184383
C26	C	-0.022345	-0.285507	-0.160550
C27	C	-0.019555	-0.374900	-0.181386
C28	C	-0.022391	-0.415909	-0.226057
C29	C	-0.019601	-0.505302	-0.246894
C30	C	-0.013975	-0.553687	-0.223060
C31	C	-0.011142	-0.512684	-0.178391
C32	C	-0.013932	-0.423291	-0.157554
C33	C	-0.005516	-0.561069	-0.154557
C34	C	-0.002726	-0.650463	-0.175394
C35	C	-0.005562	-0.691471	-0.220064
C36	C	-0.011185	-0.643081	-0.243897
C37	C	-0.022434	-0.546309	-0.291568
C38	C	-0.019644	-0.635702	-0.312405
C39	C	-0.014021	-0.684089	-0.288567
C40	C	-0.022480	-0.676711	-0.357076
C41	C	-0.028106	-0.628326	-0.380910
C42	C	-0.030896	-0.538933	-0.360073
C43	C	-0.028060	-0.497924	-0.315402
C44	C	-0.036522	-0.490548	-0.383907
C45	C	0.815184	-0.521162	-0.508596
C46	C	0.415541	-0.125553	-0.528781
C47	C	0.375032	-0.223457	-0.531493
C48	C	0.423813	-0.270761	-0.529101
C49	C	0.149318	-0.395376	-0.530584
C50	C	0.246774	-0.353455	-0.532364
C51	C	0.294574	-0.401748	-0.529976
C52	C	0.548961	-0.790984	-0.510398
C53	C	0.286104	-0.263940	-0.532530
C54	C	0.383336	-0.360149	-0.528302
C55	C	0.432207	-0.407971	-0.525810
C56	C	0.392316	-0.497392	-0.524993
C57	C	0.303554	-0.538991	-0.526667
C58	C	0.254683	-0.491169	-0.529159
C59	C	0.263666	-0.628421	-0.525851
C60	C	0.312537	-0.676243	-0.523359
C61	C	0.401299	-0.634644	-0.521685
C62	C	0.441190	-0.545223	-0.522502
C63	C	0.529952	-0.503624	-0.520828
C64	C	0.578823	-0.551446	-0.518336
C65	C	0.538939	-0.640864	-0.517520
C66	C	0.450177	-0.682463	-0.519194
C67	C	0.587810	-0.688687	-0.515028
C68	C	0.676572	-0.647088	-0.513354
C69	C	0.716463	-0.557666	-0.514172
C70	C	0.667586	-0.509847	-0.516662
C71	C	0.569840	-0.414195	-0.521644
C72	C	0.658602	-0.372596	-0.519970
C73	C	0.707476	-0.420426	-0.517480
C74	C	0.698493	-0.283174	-0.520788
C75	C	0.649622	-0.235352	-0.523280
C76	C	0.560860	-0.276951	-0.524954
C77	C	0.520969	-0.366372	-0.524136
C78	C	0.511989	-0.229129	-0.527446
C79	C	-0.040530	-0.395407	-0.935652
C80	C	0.005063	-0.791004	-0.738448
C81	C	0.009186	-0.693099	-0.717543
C82	C	0.003779	-0.645796	-0.741620
C83	C	0.005077	-0.521171	-0.603544
C84	C	0.009198	-0.563096	-0.652550
C85	C	0.003786	-0.514804	-0.676131
C86	C	-0.040516	-0.125574	-0.800747
C87	C	0.010719	-0.652613	-0.672809
C88	C	0.000994	-0.556406	-0.720789
C89	C	-0.004621	-0.508585	-0.744908
C90	C	-0.007444	-0.419162	-0.724369
C91	C	-0.004651	-0.377560	-0.679711
C92	C	0.000964	-0.425381	-0.655592
C93	C	-0.007471	-0.288129	-0.659174
C94	C	-0.013086	-0.240308	-0.683293
C95	C	-0.015878	-0.281910	-0.727951
C96	C	-0.013056	-0.371333	-0.748490
C97	C	-0.015848	-0.412935	-0.793148
C98	C	-0.021463	-0.365114	-0.817267
C99	C	-0.024282	-0.275694	-0.796731
C100	C	-0.021490	-0.234092	-0.752073
C101	C	-0.029897	-0.227873	-0.820850
C102	C	-0.032690	-0.269476	-0.865508
C103	C	-0.029867	-0.358899	-0.886047
C104	C	-0.024255	-0.406717	-0.861925
C105	C	-0.013028	-0.502367	-0.813685
C106	C	-0.015821	-0.543969	-0.858343
C107	C	-0.021433	-0.496140	-0.882464
C108	C	-0.012998	-0.633392	-0.878882
C109	C	-0.007383	-0.681213	-0.854763
C110	C	-0.004591	-0.639611	-0.810105
C111	C	-0.007414	-0.550188	-0.789566
C112	C	0.001024	-0.687432	-0.785986
O113	O	-0.000965	0.173549	-0.277957
O114	O	-0.040516	-0.085616	-0.325254
O115	O	0.108737	0.059592	-0.327284
O116	O	-0.150219	0.028341	-0.275927
O117	O	0.114753	0.055151	-0.263265
O118	O	-0.034500	-0.090057	-0.261234
O119	O	0.005051	0.169108	-0.213937
Zn120	Zn	-0.013769	0.038820	-0.227421
Zn121	Zn	-0.021696	0.044672	-0.311770
O122	O	-0.144202	0.023900	-0.211907
O123	O	-0.034458	-0.474571	0.046517
O124	O	0.005076	-0.570190	-0.083599
O125	O	-0.144170	-0.570237	-0.008972
O126	O	0.114787	-0.474523	-0.028110
O127	O	-0.150200	-0.442024	-0.011093
O128	O	-0.000954	-0.441976	-0.085720
O129	O	-0.040488	-0.346357	0.044396
Zn130	Zn	-0.021679	-0.373810	-0.020999
Zn131	Zn	-0.013734	-0.542737	-0.018204
O132	O	0.108757	-0.346309	-0.030231
C133	C	-0.850734	0.086244	-0.289716
C134	C	-0.450996	0.035117	-0.097351
C135	C	-0.410501	0.028587	-0.146852
C136	C	-0.459292	0.034683	-0.169840
C137	C	-0.184802	0.024283	-0.235878
C138	C	-0.282257	0.023363	-0.213592
C139	C	-0.330068	0.029423	-0.237088
C140	C	-0.584541	0.075410	-0.428242
C141	C	-0.321573	0.024104	-0.168302
C142	C	-0.418828	0.035176	-0.215083
C143	C	-0.467711	0.041476	-0.238329
C144	C	-0.427833	0.042022	-0.283580
C145	C	-0.339073	0.036269	-0.305586
C146	C	-0.290190	0.029970	-0.282340
C147	C	-0.299198	0.036812	-0.350842
C148	C	-0.348081	0.043111	-0.374088
C149	C	-0.436841	0.048864	-0.352082
C150	C	-0.476719	0.048318	-0.306830
C151	C	-0.565480	0.054071	-0.284825
C152	C	-0.614362	0.060370	-0.308071
C153	C	-0.574491	0.060913	-0.353321
C154	C	-0.485730	0.055160	-0.375326
C155	C	-0.623374	0.067212	-0.376567
C156	C	-0.712134	0.072965	-0.354561
C157	C	-0.752012	0.072419	-0.309309
C158	C	-0.703123	0.066123	-0.286065
C159	C	-0.605355	0.053528	-0.239569
C160	C	-0.694115	0.059281	-0.217564
C161	C	-0.743001	0.065577	-0.240813
C162	C	-0.733993	0.058735	-0.172312
C163	C	-0.685110	0.052436	-0.149066
C164	C	-0.596350	0.046683	-0.171072
C165	C	-0.556472	0.047229	-0.216323
C166	C	-0.547467	0.040383	-0.147826
O167	O	0.585213	0.169090	-0.504004
O168	O	0.494056	-0.090076	-0.525516
O169	O	0.488081	0.055124	-0.449918
O170	O	0.591189	0.023889	-0.579602
O171	O	0.359978	0.059584	-0.452885
O172	O	0.365953	-0.085616	-0.528483
O173	O	0.457110	0.173550	-0.506971
Zn174	Zn	0.391193	0.044675	-0.518198
Zn175	Zn	0.559974	0.038798	-0.514289
O176	O	0.463086	0.028349	-0.582569
C177	C	0.815354	-0.521094	-0.008709
C178	C	0.415547	-0.125494	-0.028771
C179	C	0.375059	-0.223405	-0.031498
C180	C	0.423859	-0.270708	-0.029121
C181	C	0.149365	-0.395355	-0.030599
C182	C	0.246820	-0.353421	-0.032381
C183	C	0.294640	-0.401713	-0.030008
C184	C	0.549171	-0.790955	-0.010537
C185	C	0.286131	-0.263897	-0.032533
C186	C	0.383402	-0.360104	-0.028335
C187	C	0.432293	-0.407926	-0.025859
C188	C	0.392422	-0.497356	-0.025055
C189	C	0.303660	-0.538965	-0.026727
C190	C	0.254769	-0.491143	-0.029204
C191	C	0.263791	-0.628403	-0.025925
C192	C	0.312683	-0.676224	-0.023448
C193	C	0.401445	-0.634615	-0.021775
C194	C	0.441316	-0.545185	-0.022579
C195	C	0.530078	-0.503576	-0.020906
C196	C	0.578969	-0.551398	-0.018429
C197	C	0.539104	-0.640825	-0.017627
C198	C	0.450342	-0.682434	-0.019300
C199	C	0.587995	-0.688646	-0.015150
C200	C	0.676757	-0.647037	-0.013477
C201	C	0.716628	-0.557607	-0.014281
C202	C	0.667731	-0.509789	-0.016757
C203	C	0.569946	-0.414138	-0.021709
C204	C	0.658708	-0.372530	-0.020036
C205	C	0.707602	-0.420359	-0.017561
C206	C	0.698579	-0.283100	-0.020840
C207	C	0.649688	-0.235278	-0.023317
C208	C	0.560926	-0.276887	-0.024990
C209	C	0.521055	-0.366317	-0.024186
C210	C	0.512035	-0.229066	-0.027467
O211	O	-0.620614	0.089309	0.052274
O212	O	-0.529507	0.043784	-0.078544
O213	O	-0.523494	0.194833	-0.006033
O214	O	-0.626628	-0.061740	-0.020236
O215	O	-0.395386	0.185419	-0.005549
O216	O	-0.401400	0.034370	-0.078059
O217	O	-0.492507	0.079895	0.052758
Zn218	Zn	-0.426614	0.055638	-0.012574
Zn219	Zn	-0.595401	0.068041	-0.013212
O220	O	-0.498521	-0.071154	-0.019752
C221	C	-0.437537	0.048335	0.402491
C222	C	-0.837226	0.099430	0.210091
C223	C	-0.739773	0.100339	0.187806
C224	C	-0.691967	0.094287	0.211308
C225	C	-0.571027	0.088563	0.071568
C226	C	-0.611521	0.095108	0.121070
C227	C	-0.562739	0.089011	0.144061
C228	C	-0.171338	0.037467	0.263967
C229	C	-0.700452	0.099593	0.142516
C230	C	-0.603213	0.088528	0.189308
C231	C	-0.554892	0.082255	0.212848
C232	C	-0.466098	0.076466	0.191141
C233	C	-0.425624	0.076949	0.145894
C234	C	-0.473945	0.083222	0.122354
C235	C	-0.336822	0.071163	0.124188
C236	C	-0.288502	0.064890	0.147728
C237	C	-0.328975	0.064407	0.192975
C238	C	-0.417770	0.070196	0.214682
C239	C	-0.458244	0.069713	0.259929
C240	C	-0.409923	0.063441	0.283469
C241	C	-0.321132	0.057655	0.261765
C242	C	-0.280658	0.058138	0.216518
C243	C	-0.272811	0.051382	0.285305
C244	C	-0.313285	0.050899	0.330552
C245	C	-0.402079	0.056688	0.352259
C246	C	-0.450397	0.062957	0.328716
C247	C	-0.547046	0.075500	0.281635
C248	C	-0.587520	0.075016	0.326882
C249	C	-0.539191	0.068747	0.350423
C250	C	-0.676314	0.080806	0.348589
C251	C	-0.724634	0.087078	0.325049
C252	C	-0.684160	0.087561	0.279802
C253	C	-0.595366	0.081772	0.258095
C254	C	-0.732481	0.093834	0.256262
O255	O	-0.040608	-1.085661	-0.825229
O256	O	-0.001018	-0.826491	-0.777938
O257	O	-0.150287	-0.971682	-0.775894
O258	O	0.108661	-0.940470	-0.827272
O259	O	-0.144253	-0.976123	-0.711878
O260	O	0.005016	-0.830932	-0.713922
O261	O	-0.034575	-1.090102	-0.761213
Zn262	Zn	-0.013821	-0.961222	-0.727403
Zn263	Zn	-0.021771	-0.955371	-0.811747
O264	O	0.114695	-0.944911	-0.763256
C265	C	-0.049547	-0.210620	-0.392935
C266	C	0.026656	-0.136368	-0.395287
C267	C	0.023636	-0.087239	-0.419760
H268	H	-0.102650	-0.190329	-0.378152
H269	H	-0.050169	-0.247954	-0.422731
H270	H	0.027269	-0.099041	-0.365496
H271	H	0.079771	-0.156633	-0.410074
H272	H	0.023014	-0.124573	-0.449556
H273	H	-0.029470	-0.066954	-0.404974
H274	H	0.075342	-0.036858	-0.421362
C275	C	-0.754136	0.103974	0.116602
C276	C	-0.710665	0.180800	0.101167
C277	C	-0.760086	0.184858	0.077288
H278	H	-0.813208	0.106796	0.136047
H279	H	-0.758062	0.051791	0.091420
H280	H	-0.706749	0.232970	0.126345
H281	H	-0.651597	0.177995	0.081716
H282	H	-0.764013	0.132675	0.052107
H283	H	-0.819156	0.187677	0.096736
H284	H	-0.730594	0.236979	0.066809
H285	H	-0.226632	0.032105	-0.368836
C286	C	0.692977	-0.137758	-0.024174
C287	C	0.630901	-0.104641	-0.026701
C288	C	0.670744	-0.014809	-0.027487
H289	H	0.744939	-0.134229	-0.049856
H290	H	0.710138	-0.102809	0.002696
H291	H	0.613753	-0.139581	-0.053568
H292	H	0.578937	-0.108147	-0.001023
H293	H	0.687905	0.020141	-0.000617
H294	H	0.722705	-0.011289	-0.053168
H295	H	0.628629	0.007675	-0.029197
C296	C	-0.183845	0.051882	0.192778
C297	C	-0.158631	0.053678	0.147934
C298	C	-0.069452	0.047929	0.126056
H299	H	-0.179505	-0.002751	0.192911
H300	H	-0.144790	0.101412	0.208221
H301	H	-0.197674	0.004152	0.132495
H302	H	-0.162949	0.108306	0.147787
H303	H	-0.030398	0.097459	0.141499
H304	H	-0.065121	-0.006704	0.126193
H305	H	-0.052330	0.049155	0.095629
H306	H	0.013347	-0.692513	-0.652885
H307	H	-0.030422	-0.661858	-0.417434
H308	H	-0.806568	0.063430	-0.154318
C309	C	0.166897	-0.673914	-0.527649
C310	C	0.142319	-0.762819	-0.526384
C311	C	0.053177	-0.804756	-0.528035
H312	H	0.162352	-0.673774	-0.554909
H313	H	0.127641	-0.642198	-0.502358
H314	H	0.181564	-0.794527	-0.551672
H315	H	0.146844	-0.762984	-0.499126
H316	H	0.013921	-0.773040	-0.502744
H317	H	0.048640	-0.804610	-0.555295
H318	H	0.036487	-0.865080	-0.527173
C319	C	-0.728406	0.051876	-0.099723
C320	C	-0.666336	0.045123	-0.084007
C321	C	-0.706185	0.044617	-0.038554
H322	H	-0.780371	0.001922	-0.097259
H323	H	-0.745562	0.106082	-0.082012
H324	H	-0.649193	-0.009077	-0.101713
H325	H	-0.614369	0.095072	-0.086460
H326	H	-0.723342	0.098823	-0.020843
H327	H	-0.758150	-0.005337	-0.036094
H328	H	-0.664075	0.040043	-0.027884
C329	C	-0.267790	0.020001	-0.142353
C330	C	-0.261965	0.097113	-0.105349
C331	C	-0.212435	0.093362	-0.081431
H332	H	-0.208729	0.017149	-0.161805
H333	H	-0.297217	-0.031997	-0.131770
H334	H	-0.232535	0.149097	-0.115932
H335	H	-0.321010	0.099980	-0.085886
H336	H	-0.241862	0.041363	-0.070848
H337	H	-0.153378	0.090507	-0.100887
H338	H	-0.208483	0.145676	-0.056319
C339	C	-0.292555	0.071637	0.074859
C340	C	-0.204093	0.065182	0.060829
C341	C	-0.163284	0.065610	0.015388
H342	H	-0.291297	0.126043	0.071829
H343	H	-0.326132	0.021885	0.056579
H344	H	-0.170524	0.114930	0.079104
H345	H	-0.205325	0.010779	0.063848
H346	H	-0.196862	0.015858	-0.002892
H347	H	-0.162033	0.120016	0.012362
H348	H	-0.103262	0.061222	0.005862
H349	H	-0.709407	0.080425	0.385586
H350	H	-0.011621	-0.389765	-0.121028
C351	C	-0.821397	0.093548	0.348668
C352	C	-0.827354	0.174142	0.348314
C353	C	-0.916475	0.180135	0.370059
H354	H	-0.838770	0.092417	0.379125
H355	H	-0.860439	0.044075	0.333194
H356	H	-0.788325	0.223602	0.363789
H357	H	-0.809999	0.175291	0.317863
H358	H	-0.955517	0.130662	0.354585
H359	H	-0.933840	0.179001	0.400515
H360	H	-0.920530	0.234814	0.369818
H361	H	0.191224	-0.662427	-0.027294
H362	H	-0.580066	0.039960	-0.110823
H363	H	0.245737	-0.223998	-0.033572
C364	C	-0.019463	-0.240794	-0.111818
C365	C	-0.098055	-0.212760	-0.085134
C366	C	-0.095441	-0.171571	-0.040239
H367	H	0.031893	-0.190117	-0.110754
H368	H	-0.015751	-0.282559	-0.100525
H369	H	-0.101758	-0.170997	-0.096424
H370	H	-0.149423	-0.263420	-0.086185
H371	H	-0.091729	-0.213336	-0.028946
H372	H	-0.044082	-0.120898	-0.039180
H373	H	-0.148767	-0.152552	-0.022128
H374	H	-0.047834	-0.232081	-0.882358
H375	H	0.771070	-0.249160	-0.519423
C376	C	-0.039608	-0.535410	-0.432604
C377	C	-0.035951	-0.624419	-0.445806
C378	C	-0.038788	-0.665773	-0.490661
H379	H	0.010522	-0.503503	-0.451936
H380	H	-0.094157	-0.535004	-0.434741
H381	H	0.018592	-0.624820	-0.443671
H382	H	-0.086077	-0.656351	-0.426486
H383	H	-0.093337	-0.665367	-0.492799
H384	H	0.011343	-0.633858	-0.509989
H385	H	-0.036316	-0.726172	-0.499623
H386	H	0.780052	-0.386407	-0.516111
H387	H	0.417746	-0.755558	-0.018645
H388	H	0.003251	-0.391359	-0.619081
C389	C	0.555616	-0.131634	-0.528311
C390	C	0.644168	-0.105322	-0.526295
C391	C	0.684377	-0.015511	-0.527079
H392	H	0.521832	-0.094359	-0.502989
H393	H	0.556621	-0.125839	-0.555539
H394	H	0.643157	-0.111110	-0.499070
H395	H	0.677975	-0.142573	-0.551615
H396	H	0.685382	-0.009716	-0.554307
H397	H	0.650586	0.021756	-0.501756
H398	H	0.744466	0.002350	-0.525715
H399	H	-0.038719	-0.156659	-0.235851
C400	C	0.158000	-0.536650	-0.031003
C401	C	0.133441	-0.625564	-0.029754
C402	C	0.044298	-0.667508	-0.031402
H403	H	0.153443	-0.536495	-0.058257
H404	H	0.118740	-0.504949	-0.005706
H405	H	0.172689	-0.657257	-0.055049
H406	H	0.137976	-0.625745	-0.002502
H407	H	0.005038	-0.635806	-0.006105
H408	H	0.039750	-0.667346	-0.058657
H409	H	0.027621	-0.727837	-0.030551
H410	H	-0.030255	-0.164038	-0.167345
H411	H	0.245727	-0.224039	-0.533582
H412	H	0.280077	-0.749342	-0.022791
H413	H	0.182115	-0.525189	-0.530531
H414	H	0.012418	-0.684570	-0.156900
C415	C	-0.010948	-0.781528	-0.311369
C416	C	-0.014631	-0.807188	-0.355777
C417	C	-0.011793	-0.896935	-0.376795
H418	H	-0.061068	-0.819060	-0.294859
H419	H	0.043610	-0.787464	-0.312021
H420	H	-0.069183	-0.801260	-0.355123
H421	H	0.035485	-0.769680	-0.372299
H422	H	0.042765	-0.902872	-0.377446
H423	H	-0.061914	-0.934459	-0.360281
H424	H	-0.014283	-0.914355	-0.406929
C425	C	0.269035	-0.773676	-0.522376
C426	C	0.267757	-0.781830	-0.482199
C427	C	0.227679	-0.871569	-0.481273
H428	H	0.302833	-0.810995	-0.547659
H429	H	0.208904	-0.791696	-0.523710
H430	H	0.327877	-0.763820	-0.480869
H431	H	0.233953	-0.744531	-0.456909
H432	H	0.167548	-0.889589	-0.482607
H433	H	0.261482	-0.908881	-0.506558
H434	H	0.226799	-0.877112	-0.454012
H435	H	0.682238	-0.162236	-0.523943
C436	C	0.722032	-0.696924	-0.503485
C437	C	0.672799	-0.712788	-0.461107
C438	C	0.714647	-0.758674	-0.451987
H439	H	0.781807	-0.661500	-0.503245
H440	H	0.724025	-0.752726	-0.526283
H441	H	0.670815	-0.656994	-0.438314
H442	H	0.613026	-0.748220	-0.461336
H443	H	0.716641	-0.814476	-0.474786
H444	H	0.774421	-0.723245	-0.451750
H445	H	0.681245	-0.769451	-0.423236
C446	C	0.722239	-0.696877	-0.003625
C447	C	0.673019	-0.712770	0.038748
C448	C	0.714887	-0.758660	0.047852
H449	H	0.782012	-0.661446	-0.003384
H450	H	0.724241	-0.752670	-0.026431
H451	H	0.671027	-0.656987	0.061548
H452	H	0.613248	-0.748210	0.038518
H453	H	0.716889	-0.814453	0.025046
H454	H	0.774659	-0.723224	0.048090
H455	H	0.681493	-0.769457	0.076600
C456	C	-0.004483	-0.242632	-0.610486
C457	C	-0.008191	-0.153725	-0.597608
C458	C	-0.005450	-0.111785	-0.552758
H459	H	0.050038	-0.242774	-0.608213
H460	H	-0.054644	-0.274344	-0.591069
H461	H	0.041965	-0.122021	-0.617019
H462	H	-0.062708	-0.153557	-0.599870
H463	H	-0.055611	-0.143497	-0.533340
H464	H	0.049071	-0.111933	-0.550489
H465	H	-0.007974	-0.051460	-0.544012
H466	H	-0.020209	-0.749804	-0.374113
H467	H	-0.453130	0.055597	-0.412328
H468	H	0.780178	-0.386331	-0.016193
H469	H	-0.015393	-0.167196	-0.666497
H470	H	0.771156	-0.249077	-0.019476
C471	C	-0.024514	-0.136594	-0.729607
C472	C	-0.020830	-0.110282	-0.685157
C473	C	-0.023604	-0.020473	-0.664452
H474	H	-0.079036	-0.130781	-0.729057
H475	H	0.025645	-0.099331	-0.746262
H476	H	-0.070984	-0.147534	-0.668505
H477	H	0.033689	-0.116073	-0.685694
H478	H	0.026555	0.016790	-0.681107
H479	H	-0.078127	-0.014668	-0.663905
H480	H	-0.021097	-0.002606	-0.634292
H481	H	0.417564	-0.755580	-0.518528
H482	H	-0.023718	-0.530163	-0.918978
C483	C	-0.839725	0.072020	-0.216873
C484	C	-0.845968	0.152631	-0.217055
C485	C	-0.935052	0.158603	-0.195019
H486	H	-0.856677	0.070853	-0.186452
H487	H	-0.878969	0.022559	-0.232230
H488	H	-0.806736	0.202079	-0.201696
H489	H	-0.829034	0.153816	-0.247469
H490	H	-0.974296	0.109142	-0.210376
H491	H	-0.951996	0.157433	-0.164599
H492	H	-0.939301	0.213292	-0.195143
C493	C	-0.263327	0.029829	0.352545
C494	C	-0.250345	-0.056104	0.328815
C495	C	-0.204318	-0.075539	0.349058
H496	H	-0.297903	0.031591	0.383145
H497	H	-0.206323	0.073172	0.351766
H498	H	-0.307340	-0.099436	0.329598
H499	H	-0.215761	-0.057887	0.298216
H500	H	-0.147314	-0.032195	0.348280
H501	H	-0.238899	-0.073772	0.379657
H502	H	-0.195497	-0.133842	0.332958
H503	H	-0.746339	0.088530	-0.372795
H504	H	-0.805083	0.098565	0.274011
C505	C	-0.016064	-0.678913	-0.927559
C506	C	-0.012391	-0.767831	-0.940435
C507	C	-0.015226	-0.809795	-0.985270
H508	H	0.034061	-0.647255	-0.947004
H509	H	-0.070617	-0.678734	-0.929792
H510	H	0.042156	-0.768004	-0.938206
H511	H	-0.062512	-0.799513	-0.921002
H512	H	-0.069779	-0.809617	-0.987502
H513	H	0.034900	-0.778130	-1.004710
H514	H	-0.012742	-0.870133	-0.994010
H515	H	-0.005085	-0.754331	-0.871556
H516	H	0.003321	-0.760550	-0.802778
C517	C	-0.304464	0.043644	-0.423426
C518	C	-0.215913	0.037210	-0.437785
C519	C	-0.175711	0.037690	-0.483234
H520	H	-0.303443	0.098060	-0.426347
H521	H	-0.338278	-0.006098	-0.441597
H522	H	-0.182108	0.086947	-0.419619
H523	H	-0.216909	-0.017203	-0.434874
H524	H	-0.209525	-0.012052	-0.501405
H525	H	-0.174696	0.092107	-0.486151
H526	H	-0.115628	0.033316	-0.492983
H527	H	-0.217624	0.025258	-0.300336
H528	H	0.544632	-0.155941	-0.028119
H529	H	-0.215904	0.060157	0.129977
H530	H	-0.440845	0.083623	0.085362
H531	H	-0.572284	0.068372	0.387422
