data_functionalizedCrystal
_audit_creation_method	'MofGen! by Chris Wilmer'
_symmetry_space_group_name_H-M	'P1'
_symmetry_Int_Tables_number	1
_symmetry_cell_setting	triclinic
loop_
_symmetry_equiv_pos_as_xyz
  x,y,z
_cell_length_a	12.759401
_cell_length_b	17.640968
_cell_length_c	12.759400
_cell_angle_alpha	101.230489
_cell_angle_beta	89.985155
_cell_angle_gamma	78.778407
loop_
_atom_site_label
_atom_site_type_symbol
_atom_site_fract_x
_atom_site_fract_y
_atom_site_fract_z
Zn1	Zn	1.726334	-0.446892	0.298163
Zn2	Zn	1.690713	-0.314716	0.509384
Zn3	Zn	1.515125	-0.314730	0.333717
Zn4	Zn	1.550617	-0.446863	0.473808
O5	O	1.620697	-0.380800	0.403768
O6	O	1.868631	-0.429364	0.326191
O7	O	1.637660	-0.204104	0.515850
O8	O	1.543196	-0.332280	0.181974
O9	O	1.842461	-0.332255	0.481375
O10	O	1.698370	-0.429378	0.155853
O11	O	1.508656	-0.204115	0.386788
O12	O	1.372810	-0.332252	0.352291
O13	O	1.603687	-0.557480	0.420740
O14	O	1.398886	-0.429329	0.455216
O15	O	1.732786	-0.557501	0.291694
O16	O	1.672075	-0.332227	0.651691
O17	O	1.569147	-0.429315	0.625554
C18	C	1.347727	-0.380789	0.403752
C19	C	1.230954	-0.380804	0.403765
C20	C	1.189675	-0.431268	0.457488
C21	C	1.079953	-0.431277	0.457499
C22	C	1.052798	-0.330350	0.350063
C23	C	1.162519	-0.330346	0.350046
C24	C	1.205351	-0.489535	0.519519
C25	C	1.095630	-0.489544	0.519530
C26	C	1.676169	-0.586974	0.348283
C27	C	1.699808	-0.674833	0.324638
C28	C	1.441519	-0.963734	0.582821
C29	C	1.463754	-1.046291	0.560590
C30	C	1.598172	-1.046302	0.426226
C31	C	1.575946	-0.963744	0.448442
C32	C	1.497619	-0.922466	0.526741
C33	C	1.632045	-0.922476	0.392362
C34	C	1.609824	-0.839925	0.414581
C35	C	1.531503	-0.798642	0.492879
C36	C	1.475397	-0.839915	0.548960
C37	C	1.710377	-0.963756	0.314068
C38	C	1.766477	-0.922488	0.257989
C39	C	1.744251	-0.839935	0.280201
C40	C	1.665930	-0.798652	0.358500
C41	C	1.800356	-0.798662	0.224120
C42	C	1.778135	-0.716110	0.246339
C43	C	1.643708	-0.716100	0.380718
C44	C	1.894733	-0.380811	0.403785
C45	C	2.011511	-0.380816	0.403793
C46	C	1.620630	-0.380784	0.676740
C47	C	1.620705	-0.380803	0.793511
C48	C	1.565502	-0.175429	0.458962
C49	C	1.542066	-0.087570	0.482310
C50	C	1.620798	-0.380834	0.129726
C51	C	1.620840	-0.380848	0.012945
C52	C	1.674389	-0.330305	0.861933
C53	C	1.674460	-0.330330	0.971651
C54	C	1.567155	-0.431352	0.944514
C55	C	1.567091	-0.431331	0.834798
C56	C	1.736338	-0.271979	0.877602
C57	C	1.736409	-0.272003	0.987319
H58	H	1.061400	-0.473042	0.605312
H59	H	1.411591	-0.806304	0.612694
H60	H	1.077269	-0.547741	0.474854
Br61	Br	1.494255	-0.499881	0.741936
Br62	Br	1.537394	-0.660073	0.486971
Br63	Br	1.906668	-0.854691	0.117876
Br64	Br	1.335204	-0.907706	0.689074
Br65	Br	1.494399	-0.499924	1.000552
Br66	Br	1.387608	-1.102296	0.636706
Br67	Br	1.252210	-0.452894	0.658157
Br68	Br	0.959916	-0.261877	0.277158
H69	H	1.661949	-1.079922	0.362477
Br70	Br	1.218543	-0.261873	0.277105
Br71	Br	1.872779	-0.978514	0.151734
H72	H	1.822098	-0.288419	0.843328
Br73	Br	1.740542	-1.075791	0.283920
Br74	Br	1.661713	-0.175024	0.847053
Br75	Br	1.854277	-0.660099	0.170238
H76	H	1.513416	-0.731423	0.510972
Br77	Br	1.282473	-0.591615	0.455938
Br78	Br	1.875086	-0.308651	1.034064
Br79	Br	1.672764	-0.169956	1.064513
