data_functionalizedCrystal
_audit_creation_method	'MofGen! by Chris Wilmer'
_symmetry_space_group_name_H-M	'P1'
_symmetry_Int_Tables_number	1
_symmetry_cell_setting	triclinic
loop_
_symmetry_equiv_pos_as_xyz
  x,y,z
_cell_length_a	13.033286
_cell_length_b	13.032868
_cell_length_c	18.215399
_cell_angle_alpha	97.152085
_cell_angle_beta	82.825818
_cell_angle_gamma	90.854779
loop_
_atom_site_label
_atom_site_type_symbol
_atom_site_fract_x
_atom_site_fract_y
_atom_site_fract_z
Zn1	Zn	1.520061	0.608901	0.334282
Zn2	Zn	2.020061	1.108901	0.834282
Zn3	Zn	1.498080	0.780875	0.228560
Zn4	Zn	1.998080	1.280875	0.728560
Zn5	Zn	1.348092	0.587116	0.224698
Zn6	Zn	1.848092	1.087116	0.724698
Zn7	Zn	1.326203	0.759010	0.365038
Zn8	Zn	1.826203	1.259010	0.865038
O9	O	1.423109	0.683975	0.288144
O10	O	1.923109	1.183975	0.788144
O11	O	1.661046	0.649981	0.309002
O12	O	2.161046	1.149981	0.809002
O13	O	1.478145	0.755206	0.125070
O14	O	1.978145	1.255206	0.625070
O15	O	1.389265	0.446096	0.224747
O16	O	1.889265	0.946096	0.724747
O17	O	1.644897	0.776330	0.231329
O18	O	2.144897	1.276330	0.731329
O19	O	1.515609	0.462101	0.305258
O20	O	2.015609	0.962101	0.805258
O21	O	1.367950	0.612852	0.122233
O22	O	1.867950	1.112852	0.622233
O23	O	1.201288	0.591651	0.254570
O24	O	1.701288	1.091651	0.754570
O25	O	1.351957	0.739064	0.463936
O26	O	1.851957	1.239064	0.963936
O27	O	1.185206	0.717940	0.357677
O28	O	1.685206	1.217940	0.857677
O29	O	1.494384	0.628779	0.441340
O30	O	1.994384	1.128779	0.941340
O31	O	1.456920	0.921885	0.261151
O32	O	1.956920	1.421885	0.761151
O33	O	1.330643	0.905820	0.361421
O34	O	1.830643	1.405820	0.861421
C35	C	1.155935	0.650059	0.309042
C36	C	1.655935	1.150059	0.809042
C37	C	1.041634	0.635575	0.318002
C38	C	1.541634	1.135575	0.818002
C39	C	1.389049	0.951170	0.315056
C40	C	1.889049	1.451170	0.815056
C41	C	1.374572	1.065489	0.326587
C42	C	1.874572	1.565489	0.826587
C43	C	0.982697	0.691535	0.283486
C44	C	1.482697	1.191535	0.783486
C45	C	0.864560	0.676566	0.292746
C46	C	1.364560	1.176566	0.792746
C47	C	1.430652	1.124377	0.282145
C48	C	1.930652	1.624377	0.782145
C49	C	1.415691	1.242532	0.294061
C50	C	1.915691	1.742532	0.794061
C51	C	1.691326	0.718024	0.267166
C52	C	2.191326	1.218024	0.767166
C53	C	1.805625	0.732534	0.258226
C54	C	2.305625	1.232534	0.758226
C55	C	1.423181	0.683912	0.480085
C56	C	1.923181	1.183912	0.980085
C57	C	1.423211	0.683886	0.561879
C58	C	1.923211	1.183886	1.061879
C59	C	1.457297	1.415736	0.261136
C60	C	1.957297	1.915736	0.761136
C61	C	1.471779	1.301418	0.249613
C62	C	1.971779	1.801418	0.749613
C63	C	1.423106	0.683971	0.096938
C64	C	1.923106	1.183971	0.596938
C65	C	1.423312	0.683734	0.015100
C66	C	1.923312	1.183734	0.515100
C67	C	1.497405	0.626402	0.738301
C68	C	1.997405	1.126402	1.238301
C69	C	1.497421	0.626373	0.815155
C70	C	1.997421	1.126373	1.315155
C71	C	1.349111	0.741219	0.838674
C72	C	1.849111	1.241219	1.338674
C73	C	1.349091	0.741241	0.761820
C74	C	1.849091	1.241241	1.261820
C75	C	1.423244	0.683835	0.711635
C76	C	1.923244	1.183835	1.211635
C77	C	1.423280	0.683785	0.865344
C78	C	1.923280	1.183785	1.365344
C79	C	1.423296	0.683754	0.948673
C80	C	1.923296	1.183754	1.448673
C81	C	1.423226	0.683863	0.628300
C82	C	1.923226	1.183863	1.128300
H83	H	1.019698	0.750530	0.247084
H84	H	1.519698	1.250530	0.747084
H85	H	1.288741	0.787960	0.879544
H86	H	1.788741	1.287960	1.379544
H87	H	1.557808	0.579604	0.836862
H88	H	2.057808	1.079604	1.336862
F89	F	1.576322	0.565302	0.684892
F90	F	2.076322	1.065302	1.184892
H91	H	1.356602	1.279585	0.340937
H92	H	1.856602	1.779585	0.840937
H93	H	0.827562	0.617574	0.329157
H94	H	1.327562	1.117574	0.829157
F95	F	0.853975	0.809653	0.210641
F96	F	1.353975	1.309653	0.710641
H97	H	1.004632	0.576587	0.354411
H98	H	1.504632	1.076587	0.854411
F99	F	1.507894	1.075947	0.220884
F100	F	2.007894	1.575947	0.720884
F101	F	1.549024	1.252994	0.188348
F102	F	2.049024	1.752994	0.688348
F103	F	1.297341	1.113921	0.387854
F104	F	1.797341	1.613921	0.887854
H105	H	1.288694	0.788008	0.740111
H106	H	1.788694	1.288008	1.240111
