data_functionalizedCrystal
_audit_creation_method	'MofGen! by Chris Wilmer'
_symmetry_space_group_name_H-M	'P1'
_symmetry_Int_Tables_number	1
_symmetry_cell_setting	triclinic
loop_
_symmetry_equiv_pos_as_xyz
  x,y,z
_cell_length_a	16.625548
_cell_length_b	13.897448
_cell_length_c	16.625548
_cell_angle_alpha	89.991335
_cell_angle_beta	90.004750
_cell_angle_gamma	89.981240
loop_
_atom_site_label
_atom_site_type_symbol
_atom_site_fract_x
_atom_site_fract_y
_atom_site_fract_z
Zn1	Zn	1.232581	0.384165	0.455913
Zn2	Zn	1.232533	0.545425	0.321082
Zn3	Zn	1.097780	0.384149	0.321094
Zn4	Zn	1.097725	0.545423	0.455872
O5	O	1.165155	0.464791	0.388490
O6	O	1.345407	0.405565	0.438040
O7	O	1.214661	0.524026	0.208252
O8	O	1.115705	0.249170	0.339000
O9	O	1.345372	0.524042	0.338980
O10	O	1.214743	0.249182	0.438051
O11	O	1.115659	0.405537	0.208260
O12	O	0.984941	0.405535	0.338960
O13	O	1.115611	0.524038	0.568710
O14	O	0.984900	0.524022	0.437981
O15	O	1.214689	0.405563	0.568740
O16	O	1.214607	0.680407	0.338940
O17	O	1.115564	0.680405	0.437970
C18	C	1.165096	0.715405	0.388467
C19	C	1.165145	0.822619	0.388484
C20	C	0.955664	0.464777	0.388468
C21	C	0.866043	0.464794	0.388477
C22	C	1.165149	0.464802	0.598799
C23	C	1.165147	0.464807	0.688420
C24	C	0.537867	0.464801	0.388512
C25	C	0.629176	0.464796	0.388500
C26	C	0.701952	0.464798	0.388494
C27	C	0.793266	0.464793	0.388483
C28	C	1.375464	0.464805	0.388514
C29	C	1.465085	0.464812	0.388523
C30	C	1.165236	0.213198	0.388532
C31	C	1.165270	0.105984	0.388549
C32	C	1.165229	1.018914	0.388535
C33	C	1.165180	0.909682	0.388509
C34	C	1.165144	0.464811	0.761203
C35	C	1.165143	0.464808	0.852511
C36	C	1.165147	0.464800	0.925288
C37	C	1.165147	0.464797	1.016602
C38	C	1.165153	0.464799	1.179000
C39	C	1.165151	0.464789	1.089378
