data_functionalizedCrystal
_audit_creation_method	'MofGen! by Chris Wilmer'
_symmetry_space_group_name_H-M	'P1'
_symmetry_Int_Tables_number	1
_symmetry_cell_setting	triclinic
loop_
_symmetry_equiv_pos_as_xyz
  x,y,z
_cell_length_a	15.995350
_cell_length_b	15.995350
_cell_length_c	15.072220
_cell_angle_alpha	90.001101
_cell_angle_beta	89.991149
_cell_angle_gamma	83.492375
loop_
_atom_site_label
_atom_site_type_symbol
_atom_site_fract_x
_atom_site_fract_y
_atom_site_fract_z
O1	O	1.110996	0.107921	-0.073703
O2	O	1.610996	0.607921	0.426297
O3	O	0.867221	0.121249	-0.073721
O4	O	1.367221	0.621249	0.426279
O5	O	0.995772	-0.007303	-0.073710
O6	O	1.495772	0.492697	0.426290
O7	O	0.982444	0.236472	-0.073713
O8	O	1.482444	0.736472	0.426287
O9	O	0.995740	-0.007296	0.073855
O10	O	1.495740	0.492704	0.573855
O11	O	0.867189	0.121256	0.073844
O12	O	1.367189	0.621256	0.573844
O13	O	1.110964	0.107928	0.073862
O14	O	1.610964	0.607928	0.573862
Zn15	Zn	0.989071	0.114593	0.097283
Zn16	Zn	1.489071	0.614593	0.597283
Zn17	Zn	0.989113	0.114584	-0.097141
Zn18	Zn	1.489113	0.614584	0.402859
O19	O	0.982413	0.236480	0.073852
O20	O	1.482413	0.736480	0.573852
C21	C	0.836010	0.120701	0.000060
C22	C	1.336010	0.620701	0.500060
C23	C	0.743060	0.119049	0.000053
C24	C	1.243060	0.619049	0.500053
C25	C	0.405312	0.113117	0.000071
C26	C	0.905312	0.613117	0.500071
C27	C	0.452746	0.021565	0.000401
C28	C	0.952746	0.521565	0.500401
C29	C	0.549436	0.023217	0.000063
C30	C	1.049436	0.523217	0.500063
C31	C	0.572873	0.116060	0.000063
C32	C	1.072873	0.616060	0.500063
C33	C	0.531804	0.161212	-0.084201
C34	C	1.031804	0.661212	0.415799
C35	C	0.435168	0.158912	-0.084266
C36	C	0.935168	0.658912	0.415734
C37	C	0.434793	0.160812	0.083543
C38	C	0.934793	0.660812	0.583543
C39	C	0.531738	0.160790	0.084651
C40	C	1.031738	0.660790	0.584651
C41	C	0.667570	0.117727	0.000055
C42	C	1.167570	0.617727	0.500055
C43	C	0.310614	0.111452	0.000073
C44	C	0.810614	0.611452	0.500073
C45	C	0.995205	-0.038494	0.000070
C46	C	1.495205	0.461506	0.500070
C47	C	0.993553	-0.131444	0.000065
C48	C	1.493553	0.368556	0.500065
C49	C	0.987621	-0.469192	0.000068
C50	C	1.487621	0.030808	0.500068
C51	C	0.896069	-0.421758	-0.000270
C52	C	1.396069	0.078242	0.499730
C53	C	0.897721	-0.325068	0.000063
C54	C	1.397721	0.174932	0.500063
C55	C	0.990564	-0.301631	0.000066
C56	C	1.490564	0.198369	0.500066
C57	C	1.035702	-0.342705	0.084335
C58	C	1.535702	0.157295	0.584335
C59	C	1.033402	-0.439341	0.084405
C60	C	1.533402	0.060659	0.584405
C61	C	1.035330	-0.439707	-0.083404
C62	C	1.535330	0.060293	0.416596
C63	C	1.035308	-0.342761	-0.084518
C64	C	1.535308	0.157239	0.415482
C65	C	0.992231	-0.206934	0.000068
C66	C	1.492231	0.293066	0.500068
C67	C	0.985956	-0.563890	0.000072
C68	C	1.485956	-0.063890	0.500072
C69	C	1.142175	0.108476	0.000080
C70	C	1.642175	0.608476	0.500080
C71	C	1.235125	0.110127	0.000081
C72	C	1.735125	0.610127	0.500081
C73	C	0.982980	0.267671	0.000069
C74	C	1.482980	0.767671	0.500069
C75	C	0.984631	0.360621	0.000069
C76	C	1.484631	0.860621	0.500069
N77	N	0.989049	0.114599	0.229971
N78	N	1.489049	0.614599	0.729971
N79	N	0.989142	0.114571	-0.229830
N80	N	1.489142	0.614571	0.270170
C81	C	0.989112	0.114580	0.589173
C82	C	1.489112	0.614580	1.089173
C83	C	0.920095	0.183135	0.551560
C84	C	1.420095	0.683135	1.051560
C85	C	0.920254	0.183385	0.448735
C86	C	1.420254	0.683385	0.948735
C87	C	0.989080	0.114590	0.410969
C88	C	1.489080	0.614590	0.910969
C89	C	1.076445	0.133671	0.448266
C90	C	1.576445	0.633671	0.948266
C91	C	1.076058	0.134159	0.551124
C92	C	1.576058	0.634159	1.051124
C93	C	0.971542	0.026741	0.551272
C94	C	1.471542	0.526741	1.051272
C95	C	0.969537	0.027327	0.448409
C96	C	1.469537	0.527327	0.948409
C97	C	0.989067	0.114593	0.310255
C98	C	1.489067	0.614593	0.810255
C99	C	0.989130	0.114579	0.689886
C100	C	1.489130	0.614579	1.189886
H101	H	0.862238	-0.296649	-0.060344
H102	H	1.362238	0.203351	0.439656
N103	N	0.847606	-0.446307	-0.080312
N104	N	1.347606	0.053693	0.419688
H105	H	0.884522	-0.488416	-0.117133
H106	H	1.384522	0.011584	0.382867
H107	H	0.796127	-0.472243	-0.060131
H108	H	1.296127	0.027757	0.439869
N109	N	0.847789	-0.447700	0.079323
N110	N	1.347789	0.052300	0.579323
H111	H	0.884964	-0.490045	0.115597
H112	H	1.384964	0.009955	0.615597
H113	H	0.829524	-0.396588	0.116882
H114	H	1.329524	0.103412	0.616882
N115	N	0.834232	0.168351	0.415316
N116	N	1.334232	0.668351	0.915316
H117	H	0.839085	0.115607	0.377950
H118	H	1.339085	0.615607	0.877950
H119	H	0.795909	0.161537	0.467447
H120	H	1.295909	0.661537	0.967447
H121	H	0.545929	0.229421	-0.087335
H122	H	1.045929	0.729421	0.412665
H123	H	1.092297	0.197002	0.422498
H124	H	1.592297	0.697002	0.922498
N125	N	0.552083	0.250474	0.091394
N126	N	1.052083	0.750474	0.591394
H127	H	0.498184	0.290031	0.090649
H128	H	0.998184	0.790031	0.590649
H129	H	0.583302	0.257965	0.148568
H130	H	1.083302	0.757965	0.648568
N131	N	0.569400	0.119670	-0.167274
N132	N	1.069400	0.619670	0.332726
H133	H	0.613025	0.071612	-0.150517
H134	H	1.113025	0.571612	0.349483
H135	H	0.523533	0.097445	-0.203380
H136	H	1.023533	0.597445	0.296620
N137	N	0.850380	-0.288142	0.080211
N138	N	1.350380	0.211858	0.580211
H139	H	0.790208	-0.301493	0.077617
H140	H	1.290208	0.198507	0.577617
H141	H	0.878024	-0.313105	0.135917
H142	H	1.378024	0.186895	0.635917
H143	H	1.004325	-0.314320	0.147042
H144	H	1.504325	0.185680	0.647042
N145	N	0.392728	0.250225	0.084304
N146	N	0.892728	0.750225	0.584304
H147	H	0.354756	0.259827	0.030872
H148	H	0.854756	0.759827	0.530872
H149	H	0.358279	0.260228	0.140246
H150	H	0.858279	0.760228	0.640246
H151	H	0.559041	0.127829	0.146989
H152	H	1.059041	0.627829	0.646989
N153	N	0.989769	-0.463588	0.167839
N154	N	1.489769	0.036412	0.667839
H155	H	0.972205	-0.411525	0.204225
H156	H	1.472205	0.088475	0.704225
H157	H	0.938381	-0.491541	0.151437
H158	H	1.438381	0.008459	0.651437
H159	H	1.021872	-0.024275	0.575595
H160	H	1.521872	0.475725	1.075595
N161	N	0.407580	0.121174	0.168150
N162	N	0.907580	0.621174	0.668150
H163	H	0.375859	0.071893	0.153224
H164	H	0.875859	0.571893	0.653224
H165	H	0.458832	0.101007	0.204712
H166	H	0.958832	0.601007	0.704712
N167	N	1.122431	-0.482065	0.089479
N168	N	1.622431	0.017935	0.589479
H169	H	1.162995	-0.438098	0.091664
H170	H	1.662995	0.061902	0.591664
H171	H	1.129120	-0.517947	0.144711
H172	H	1.629120	-0.017947	0.644711
H173	H	0.931473	0.248570	0.424121
H174	H	1.431473	0.748570	0.924121
H175	H	0.433165	-0.014865	-0.059694
H176	H	0.933165	0.485135	0.440306
N177	N	1.126062	-0.324028	0.088479
N178	N	1.626062	0.175972	0.588479
H179	H	1.138635	-0.288672	0.035648
H180	H	1.638635	0.211328	0.535648
H181	H	1.135370	-0.292376	0.144949
H182	H	1.635370	0.207624	0.644949
H183	H	1.005411	-0.460250	-0.147274
H184	H	1.505411	0.039750	0.352726
N185	N	0.991650	-0.306618	-0.167101
N186	N	1.491650	0.193382	0.332899
H187	H	0.943091	-0.263777	-0.149805
H188	H	1.443091	0.236223	0.350195
H189	H	1.032882	-0.278621	-0.204495
H190	H	1.532882	0.221379	0.295505
H191	H	1.103014	-0.327400	-0.089603
H192	H	1.603014	0.172600	0.410397
N193	N	1.124743	-0.481772	-0.084158
N194	N	1.624743	0.018228	0.415842
H195	H	1.134336	-0.519747	-0.030722
H196	H	1.634336	-0.019747	0.469278
H197	H	1.134755	-0.516218	-0.140096
H198	H	1.634755	-0.016218	0.359904
N199	N	0.833793	0.168334	0.584352
N200	N	1.333793	0.668334	1.084352
H201	H	0.838592	0.117048	0.623910
H202	H	1.338592	0.617048	1.123910
H203	H	0.808542	0.219054	0.619021
H204	H	1.308542	0.719054	1.119021
N205	N	0.428180	-0.026903	0.080444
N206	N	0.928180	0.473097	0.580444
H207	H	0.402204	-0.078381	0.060336
H208	H	0.902204	0.421619	0.560336
H209	H	0.479838	-0.044756	0.117328
H210	H	0.979838	0.455244	0.617328
N211	N	0.934772	0.269003	0.585740
N212	N	1.434772	0.769003	1.085740
H213	H	0.985929	0.263687	0.625487
H214	H	1.485929	0.763687	1.125487
H215	H	0.944212	0.306955	0.534009
H216	H	1.444212	0.806955	1.034009
N217	N	1.096566	0.219011	0.582901
N218	N	1.596566	0.719011	1.082901
H219	H	1.105770	0.255747	0.530092
H220	H	1.605770	0.755747	1.030092
H221	H	1.048313	0.246532	0.619702
H222	H	1.548313	0.746532	1.119702
N223	N	0.586365	-0.024123	-0.080083
N224	N	1.086365	0.475877	0.419917
H225	H	0.539823	-0.046142	-0.115333
H226	H	1.039823	0.453858	0.384667
H227	H	0.616221	0.014946	-0.118418
H228	H	1.116221	0.514946	0.381582
H229	H	0.909219	0.008392	0.577258
H230	H	1.409219	0.508392	1.077258
N231	N	1.146100	0.070509	0.584089
N232	N	1.646100	0.570509	1.084089
H233	H	1.177096	0.042265	0.531801
H234	H	1.677096	0.542265	1.031801
H235	H	1.186446	0.099913	0.621235
H236	H	1.686446	0.599913	1.121235
H237	H	0.577852	-0.012275	0.060467
H238	H	1.077852	0.487725	0.560467
H239	H	1.129029	0.085068	0.423801
H240	H	1.629029	0.585068	0.923801
H241	H	0.905271	0.012846	0.424032
H242	H	1.405271	0.512846	0.924032
H243	H	0.416873	0.125979	-0.147255
H244	H	0.916873	0.625979	0.352745
N245	N	1.031801	-0.043420	0.414376
N246	N	1.531801	0.456580	0.914376
H247	H	1.073747	-0.019801	0.374027
H248	H	1.573747	0.480199	0.874027
H249	H	1.062380	-0.073060	0.466128
H250	H	1.562380	0.426940	0.966128
H251	H	0.402920	0.226128	-0.088090
H252	H	0.902920	0.726128	0.411910
