data_functionalizedCrystal
_audit_creation_method	'MofGen! by Chris Wilmer'
_symmetry_space_group_name_H-M	'P1'
_symmetry_Int_Tables_number	1
_symmetry_cell_setting	triclinic
loop_
_symmetry_equiv_pos_as_xyz
  x,y,z
_cell_length_a	27.732048
_cell_length_b	27.732048
_cell_length_c	22.610064
_cell_angle_alpha	89.999096
_cell_angle_beta	89.997337
_cell_angle_gamma	82.642655
loop_
_atom_site_label
_atom_site_type_symbol
_atom_site_fract_x
_atom_site_fract_y
_atom_site_fract_z
O1	O	0.640931	0.057510	-0.049115
O2	O	0.500137	0.066256	-0.049133
O3	O	0.574907	-0.008514	-0.049112
O4	O	0.566161	0.132280	-0.049136
O5	O	0.574893	-0.008503	0.049257
O6	O	0.500124	0.066267	0.049236
O7	O	0.640917	0.057521	0.049255
Zn8	Zn	0.570518	0.061896	0.064863
Zn9	Zn	0.570536	0.061881	-0.064742
O10	O	0.566148	0.132291	0.049233
C11	C	0.482124	0.066078	0.000049
C12	C	0.428469	0.065525	0.000042
C13	C	0.089654	0.106229	0.000061
C14	C	-0.112006	0.104178	0.000067
O15	O	-0.143262	0.141398	0.000086
N16	N	-0.131130	0.059843	0.000073
C17	C	-0.099835	0.016017	0.000082
O18	O	-0.120728	-0.021740	0.000094
C19	C	0.101824	0.018068	0.000081
C20	C	0.120944	0.062407	0.000068
C21	C	0.108775	0.150563	0.000049
C22	C	0.159187	0.151076	0.000045
C23	C	0.190477	0.107253	0.000052
C24	C	0.171356	0.062919	0.000063
C25	C	0.133117	-0.025757	0.000094
C26	C	0.183535	-0.025240	0.000095
C27	C	0.202655	0.019098	0.000082
C28	C	0.253059	0.019609	0.000066
N29	N	0.272183	0.063944	0.000060
C30	C	0.240892	0.107766	0.000052
C31	C	-0.205709	0.014943	0.000081
C32	C	-0.256124	0.014430	0.000081
C33	C	-0.268291	0.102591	0.000067
C34	C	-0.217876	0.103104	0.000063
C35	C	-0.186585	0.059278	0.000075
C36	C	0.346761	0.108839	0.000042
C37	C	0.397178	0.109347	0.000035
C38	C	0.409341	0.021186	0.000052
C39	C	0.358929	0.020678	0.000056
C40	C	0.327639	0.064508	0.000053
O41	O	0.284343	-0.017592	0.000053
O42	O	0.261794	0.145518	0.000054
C43	C	0.039242	0.105716	0.000066
C44	C	0.020120	0.061382	0.000077
C45	C	0.051411	0.017560	0.000084
C46	C	-0.030294	0.060869	0.000077
C47	C	-0.061585	0.104691	0.000070
C48	C	-0.042461	0.149026	0.000063
C49	C	0.007951	0.149539	0.000059
C50	C	0.032287	-0.026775	0.000091
C51	C	-0.018125	-0.027284	0.000095
C52	C	-0.049416	0.016538	0.000088
C53	C	0.574716	-0.026515	0.000074
C54	C	0.574164	-0.080170	0.000079
C55	C	0.614867	-0.418985	0.000054
C56	C	0.612816	-0.620645	0.000045
O57	O	0.650037	-0.651900	0.000024
N58	N	0.568481	-0.639768	0.000040
C59	C	0.524656	-0.608474	0.000033
O60	O	0.486899	-0.629367	0.000022
C61	C	0.526707	-0.406815	0.000037
C62	C	0.571045	-0.387694	0.000049
C63	C	0.659202	-0.399864	0.000065
C64	C	0.659714	-0.349452	0.000070
C65	C	0.615892	-0.318161	0.000065
C66	C	0.571557	-0.337282	0.000054
C67	C	0.482882	-0.375521	0.000026
C68	C	0.483399	-0.325104	0.000025
C69	C	0.527737	-0.305983	0.000037
C70	C	0.528247	-0.255580	0.000054
N71	N	0.572583	-0.236456	0.000059
C72	C	0.616405	-0.267747	0.000065
C73	C	0.523582	-0.714348	0.000032
C74	C	0.523069	-0.764762	0.000032
C75	C	0.611230	-0.776930	0.000043
C76	C	0.611742	-0.726514	0.000047
C77	C	0.567917	-0.695224	0.000037
C78	C	0.617477	-0.161878	0.000076
C79	C	0.617986	-0.111461	0.000084
C80	C	0.529825	-0.099298	0.000070
C81	C	0.529316	-0.149710	0.000065
C82	C	0.573147	-0.180999	0.000066
O83	O	0.491047	-0.224296	0.000068
O84	O	0.654156	-0.246844	0.000062
C85	C	0.614355	-0.469397	0.000049
C86	C	0.570021	-0.488518	0.000038
C87	C	0.526198	-0.457228	0.000032
C88	C	0.569508	-0.538933	0.000038
C89	C	0.613330	-0.570223	0.000043
C90	C	0.657665	-0.551100	0.000048
C91	C	0.658177	-0.500688	0.000054
C92	C	0.481863	-0.476351	0.000027
C93	C	0.481355	-0.526764	0.000022
C94	C	0.525177	-0.558054	0.000028
C95	C	0.658931	0.057699	0.000071
C96	C	0.712586	0.058252	0.000074
C97	C	0.566338	0.150292	0.000046
C98	C	0.566891	0.203947	0.000037
N99	N	0.570510	0.061905	0.153316
N100	N	0.570548	0.061868	-0.153195
C101	C	0.603645	0.028779	0.561967
C102	C	0.603648	0.028775	0.623887
O103	O	0.631800	0.000617	0.655913
N104	N	0.570536	0.061871	0.654853
C105	C	0.537415	0.094970	0.623896
O106	O	0.509251	0.123121	0.655921
C107	C	0.537411	0.094971	0.561978
C108	C	0.570529	0.061876	0.531014
C109	C	0.636760	-0.004314	0.531003
C110	C	0.636758	-0.004310	0.469088
C111	C	0.603641	0.028787	0.438135
C112	C	0.570527	0.061880	0.469099
C113	C	0.504289	0.128067	0.531022
C114	C	0.504287	0.128065	0.469099
C115	C	0.537405	0.094970	0.438136
C116	C	0.537408	0.094981	0.376231
N117	N	0.570520	0.061885	0.345264
C118	C	0.603637	0.028788	0.376217
C119	C	0.537427	0.094965	0.753930
C120	C	0.537433	0.094967	0.815848
C121	C	0.603665	0.028771	0.815834
C122	C	0.603660	0.028772	0.753915
C123	C	0.570539	0.061869	0.722963
C124	C	0.603630	0.028800	0.246189
C125	C	0.603627	0.028808	0.184268
C126	C	0.537393	0.095002	0.184288
C127	C	0.537399	0.094995	0.246203
C128	C	0.570519	0.061890	0.277153
O129	O	0.509269	0.123124	0.344165
O130	O	0.631792	0.000638	0.344184
H131	H	-0.180236	-0.020747	0.000091
H132	H	0.434827	-0.014492	0.000056
O133	O	-0.199245	0.146142	0.000132
C134	C	-0.170462	0.149093	0.051086
H135	H	-0.157624	0.110901	0.068081
H136	H	-0.137587	0.168110	0.039624
H137	H	-0.192899	0.170651	0.086755
O138	O	0.114492	-0.068796	0.000187
C139	C	0.085705	-0.071730	0.051143
H140	H	0.072862	-0.033534	0.068117
H141	H	0.052833	-0.090755	0.039693
H142	H	0.108139	-0.093275	0.086823
O143	O	0.177819	0.194113	0.000108
C144	C	0.206608	0.197065	0.051056
H145	H	0.219445	0.158875	0.068054
H146	H	0.239484	0.216079	0.039586
H147	H	0.184176	0.218628	0.086726
H148	H	0.630629	0.001821	0.841046
O149	O	0.472070	0.160234	0.560998
C150	C	0.442851	0.189448	0.520389
H151	H	0.442460	0.169629	0.476254
H152	H	0.404192	0.197086	0.538276
H153	H	0.458272	0.225251	0.513800
O154	O	0.316322	0.151383	-0.000044
C155	C	0.286807	0.153725	-0.050997
H156	H	0.284531	0.115375	-0.067971
H157	H	0.248782	0.172029	-0.039544
H158	H	0.303239	0.175665	-0.086679
O159	O	0.505243	0.127103	0.154123
C160	C	0.512352	0.120011	0.092833
H161	H	0.530713	0.081456	0.084380
H162	H	0.475707	0.125634	0.069302
H163	H	0.536385	0.147209	0.075257
O164	O	0.438293	-0.545358	0.000115
C165	C	0.435348	-0.574170	0.051047
H166	H	0.460509	-0.562438	0.086667
H167	H	0.396352	-0.569358	0.068135
H168	H	0.446801	-0.614013	0.039525
O169	O	0.635847	-0.003425	0.723931
C170	C	0.665084	-0.032626	0.764536
H171	H	0.645272	-0.033032	0.808676
H172	H	0.672748	-0.071283	0.746651
H173	H	0.700873	-0.017176	0.771115
H174	H	0.023514	0.185643	0.000049
O175	O	-0.072911	0.191564	-0.000022
C176	C	-0.102428	0.193903	-0.050974
H177	H	-0.104691	0.155552	-0.067954
H178	H	-0.140457	0.212193	-0.039515
H179	H	-0.086006	0.215854	-0.086652
H180	H	0.663727	-0.031268	0.556199
O181	O	0.668943	-0.036510	0.439106
C182	C	0.698176	-0.065712	0.479714
H183	H	0.678361	-0.066115	0.523852
H184	H	0.705838	-0.104369	0.461829
H185	H	0.733967	-0.050266	0.486295
O186	O	0.415670	0.152462	0.000051
C187	C	0.377238	0.191029	0.000033
H188	H	0.343086	0.177741	0.018662
H189	H	0.387546	0.222010	0.028586
H190	H	0.370004	0.204523	-0.047162
O191	O	-0.036638	-0.070388	0.000027
C192	C	-0.020625	-0.097083	-0.050920
H193	H	0.014246	-0.084175	-0.067915
H194	H	-0.013327	-0.137387	-0.039450
H195	H	-0.049844	-0.091272	-0.086592
H196	H	-0.271687	-0.021674	0.000082
O197	O	0.635725	-0.003351	0.154100
C198	C	0.628588	0.003709	0.092810
H199	H	0.610311	0.042291	0.084330
H200	H	0.665215	-0.002020	0.069239
H201	H	0.604469	-0.023434	0.075301
H202	H	0.510436	0.121949	0.271414
O203	O	0.078452	0.193180	0.000014
C204	C	0.106150	0.232414	0.000020
H205	H	0.143872	0.219846	-0.018597
H206	H	0.087338	0.263093	-0.028550
H207	H	0.109639	0.246030	0.047209
H208	H	0.510471	0.121921	0.841054
O209	O	-0.298760	0.145116	0.000087
C210	C	-0.347355	0.135150	0.000073
H211	H	-0.349006	0.097197	0.018698
H212	H	-0.370407	0.163104	0.028631
H213	H	-0.361949	0.137091	-0.047119
O214	O	0.505237	0.127170	0.723958
C215	C	0.476008	0.156370	0.764573
H216	H	0.495828	0.156773	0.808706
H217	H	0.468343	0.195028	0.746690
H218	H	0.440218	0.140923	0.771165
O219	O	0.340296	-0.022361	0.000143
C220	C	0.311512	-0.025297	0.051103
H221	H	0.298675	0.012900	0.068082
H222	H	0.278637	-0.044317	0.039656
H223	H	0.333949	-0.046845	0.086778
H224	H	0.694282	-0.485125	0.000063
O225	O	0.213861	-0.067857	0.000077
C226	C	0.186168	-0.107096	0.000103
H227	H	0.148448	-0.094539	-0.018519
H228	H	0.204988	-0.137782	-0.028452
H229	H	0.182677	-0.120698	0.047298
H230	H	0.446777	-0.391080	0.000013
O231	O	0.487302	-0.068828	0.000037
C232	C	0.497268	-0.020233	0.000056
H233	H	0.535226	-0.018582	-0.018557
H234	H	0.469320	0.002817	-0.028510
H235	H	0.495315	-0.005638	0.047249
H236	H	0.447710	-0.299629	0.000016
H237	H	0.057760	-0.062462	0.000098
H238	H	0.477314	0.155016	0.443901
H239	H	0.653168	-0.187348	0.000075
O240	O	0.661101	-0.092968	0.000067
C241	C	0.699668	-0.131401	0.000083
H242	H	0.686379	-0.165552	-0.018546
H243	H	0.730649	-0.121091	-0.028472
H244	H	0.713161	-0.138637	0.047276
O245	O	0.702827	-0.330962	0.000050
C246	C	0.741390	-0.369399	0.000067
H247	H	0.728098	-0.403549	-0.018558
H248	H	0.772373	-0.359094	-0.028489
H249	H	0.754884	-0.376634	0.047261
O250	O	0.653831	-0.807281	-0.000034
C251	C	0.680769	-0.798673	-0.050989
H252	H	0.668612	-0.760336	-0.067971
H253	H	0.721111	-0.802521	-0.039533
H254	H	0.674366	-0.826200	-0.086665
O255	O	0.701743	-0.430305	0.000149
C256	C	0.704086	-0.459821	0.051105
H257	H	0.665736	-0.462097	0.068081
H258	H	0.722390	-0.497845	0.039652
H259	H	0.726025	-0.443388	0.086783
O260	O	0.635824	-0.003292	0.276311
C261	C	0.665462	0.022387	0.312114
H262	H	0.645926	0.060343	0.321404
H263	H	0.673270	0.002149	0.355648
H264	H	0.701157	0.025431	0.288241
H265	H	0.647846	-0.710950	0.000056
H266	H	0.486964	-0.780325	0.000033
H267	H	0.487892	-0.688875	0.000024
H268	H	0.493213	-0.165279	0.000072
H269	H	0.446177	-0.450879	0.000021
O270	O	0.700222	-0.581520	-0.000053
C271	C	0.702557	-0.611050	-0.050995
H272	H	0.677702	-0.592398	-0.086603
H273	H	0.741538	-0.617009	-0.068093
H274	H	0.690318	-0.647622	-0.039481
