data_functionalizedCrystal
_audit_creation_method	'MofGen! by Chris Wilmer'
_symmetry_space_group_name_H-M	'P1'
_symmetry_Int_Tables_number	1
_symmetry_cell_setting	triclinic
loop_
_symmetry_equiv_pos_as_xyz
  x,y,z
_cell_length_a	6.817900
_cell_length_b	19.551136
_cell_length_c	16.418042
_cell_angle_alpha	95.911563
_cell_angle_beta	103.389568
_cell_angle_gamma	101.650842
loop_
_atom_site_label
_atom_site_type_symbol
_atom_site_fract_x
_atom_site_fract_y
_atom_site_fract_z
V1	V	-4.016474	-0.097245	-0.261569
O2	O	-4.013476	0.004089	-0.256165
O3	O	-3.959124	-0.192259	-0.260188
O4	O	-3.967665	-0.096006	-0.375461
O5	O	-4.004877	-0.092831	-0.140093
V6	V	-4.501315	-0.085094	-0.246990
O7	O	-4.274842	-0.123900	-0.293549
O8	O	-4.693145	-0.058440	-0.215009
O9	O	-4.335459	0.009919	-0.248370
O10	O	-4.621710	-0.186428	-0.252393
O11	O	-4.630310	-0.089509	-0.368465
O12	O	-4.326918	-0.086334	-0.133097
C13	C	-3.801961	-0.215414	-0.256167
C14	C	-3.836355	-0.293090	-0.255797
C15	C	-3.813571	-0.319413	-0.178866
C16	C	-3.845959	-0.392397	-0.178492
C17	C	-3.901091	-0.439054	-0.255054
C18	C	-3.923888	-0.412724	-0.331996
C19	C	-3.891519	-0.339742	-0.332368
C20	C	-3.865403	-0.560186	-0.310568
C21	C	-3.897756	-0.633166	-0.310193
C22	C	-4.000937	-0.664156	-0.253912
C23	C	-4.071726	-0.622155	-0.197992
C24	C	-4.039358	-0.549173	-0.198363
C25	C	-3.936195	-0.518192	-0.254660
C26	C	-4.013272	-0.769616	-0.176571
C27	C	-4.045674	-0.842601	-0.176201
C28	C	-4.123583	-0.862927	-0.329707
C29	C	-4.091200	-0.789943	-0.330075
C30	C	-4.036036	-0.743291	-0.253504
C31	C	-3.812854	-0.092632	-0.403209
C32	C	-3.854171	-0.092247	-0.496319
C33	C	-4.130949	-0.094847	-0.714816
C34	C	-4.169752	-0.094479	-0.802302
C35	C	-3.806197	-0.087489	-0.793730
C36	C	-3.767394	-0.087852	-0.706245
C37	C	-3.929779	-0.091534	-0.666791
C38	C	-4.007385	-0.090804	-0.841762
C39	C	-4.049456	-0.090406	-0.936618
C40	C	-3.887706	-0.091931	-0.571929
C41	C	-4.155964	0.033070	-0.252389
C42	C	-4.100808	0.110746	-0.252764
C43	C	-4.145071	-0.089710	-0.105345
C44	C	-4.082993	-0.090091	-0.012234
H45	H	-3.827401	-0.413833	-0.115843
H46	H	-3.673995	-0.084493	-0.825864
Br47	Br	-4.442777	-0.098973	-0.867477
H48	H	-3.603567	-0.085149	-0.667139
H49	H	-4.263175	-0.097844	-0.682696
Br50	Br	-4.122109	-0.754216	-0.434488
H51	H	-4.097002	-0.514978	-0.152832
H52	H	-3.781383	-0.534961	-0.356402
H53	H	-4.155726	-0.647383	-0.152157
H54	H	-3.968352	-0.731630	-0.114223
H55	H	-3.768668	-0.281433	-0.116516
H56	H	-4.168474	-0.900915	-0.392045
Br57	Br	-4.014786	-0.878327	-0.071785
H58	H	-3.840108	-0.667358	-0.355725
H59	H	-3.968781	-0.450718	-0.394334
H60	H	-3.910081	-0.318312	-0.395017
