data_functionalizedCrystal
_audit_creation_method	'MofGen! by Chris Wilmer'
_symmetry_space_group_name_H-M	'P1'
_symmetry_Int_Tables_number	1
_symmetry_cell_setting	triclinic
loop_
_symmetry_equiv_pos_as_xyz
  x,y,z
_cell_length_a	12.837943
_cell_length_b	11.026607
_cell_length_c	11.295663
_cell_angle_alpha	85.012951
_cell_angle_beta	94.543184
_cell_angle_gamma	101.707478
loop_
_atom_site_label
_atom_site_type_symbol
_atom_site_fract_x
_atom_site_fract_y
_atom_site_fract_z
O1	O	1.441208	0.314930	0.098989
O2	O	1.136431	0.299002	0.098996
O3	O	1.263560	0.127392	0.098992
O4	O	1.314079	0.486540	0.098994
O5	O	1.252367	0.142386	-0.099053
O6	O	1.125238	0.313995	-0.099048
O7	O	1.430015	0.329923	-0.099056
Cu8	Cu	1.276604	0.323328	-0.117135
Cu9	Cu	1.289842	0.305597	0.117076
O10	O	1.302886	0.501533	-0.099051
C11	C	1.091210	0.301118	-0.000025
C12	C	0.973138	0.285070	-0.000022
N13	N	1.267301	0.335800	-0.281866
C14	C	1.248643	0.088600	-0.000028
C15	C	1.220861	-0.049327	-0.000021
C16	C	0.768179	0.477989	-0.000038
C17	C	0.657241	0.462917	-0.000036
C18	C	0.640321	0.239856	-0.000024
C19	C	0.751259	0.254928	-0.000026
C20	C	0.815185	0.373998	-0.000031
C21	C	0.926125	0.389069	-0.000025
C22	C	0.909204	0.166009	-0.000022
C23	C	0.798265	0.150937	-0.000020
C24	C	1.475236	0.327807	-0.000032
C25	C	1.593308	0.343854	-0.000027
C26	C	1.317803	0.540325	-0.000028
C27	C	1.345586	0.678252	-0.000028
C28	C	1.268872	0.743186	-0.000025
C29	C	1.297586	0.885741	-0.000024
N30	N	1.299151	0.293116	0.281807
C31	C	1.366158	0.203116	0.468790
C32	C	1.359127	0.212581	0.344131
C33	C	1.246201	0.364188	0.344152
C34	C	1.253233	0.354723	0.468812
C35	C	1.313214	0.274186	0.531127
C36	C	1.320252	0.264728	0.655789
C37	C	1.207320	0.416328	0.655808
C38	C	1.200289	0.425793	0.531148
H39	H	0.978172	0.486022	-0.000031
H40	H	1.151449	0.491361	0.480397
H41	H	1.164214	0.474201	0.706576
H42	H	1.133921	0.900735	-0.000014
H43	H	1.415006	0.137549	0.519528
H44	H	0.820228	0.574941	-0.000040
O45	O	0.611754	0.564062	0.000016
C46	C	0.640244	0.786904	-0.000065
C47	C	0.691896	0.672458	-0.000094
H48	H	0.705013	0.874573	-0.000180
H49	H	0.593451	0.779242	0.082837
H50	H	0.584010	0.791622	-0.082926
H51	H	0.748179	0.667670	0.082710
H52	H	0.738623	0.680168	-0.083052
H53	H	1.384528	0.935677	0.000017
H54	H	1.181938	0.693242	-0.000017
O55	O	0.954825	0.064928	0.000194
C56	C	0.980041	-0.128909	0.102774
C57	C	0.928336	-0.014490	0.102685
H58	H	0.958626	-0.193162	0.185617
H59	H	1.070325	-0.097769	0.102852
H60	H	0.949389	-0.180546	0.019858
H61	H	0.958904	0.037197	0.185587
H62	H	0.838057	-0.045710	0.102545
H63	H	0.588249	0.142921	-0.000118
H64	H	1.432523	0.728193	0.000014
O65	O	1.378521	0.186395	0.716140
C66	C	1.489829	0.037068	0.702955
C67	C	1.423858	0.125715	0.634465
H68	H	1.526520	-0.011996	0.636951
H69	H	1.435939	-0.034820	0.761268
H70	H	1.555931	0.092471	0.761366
H71	H	1.357752	0.070417	0.575989
H72	H	1.477818	0.197604	0.576227
H73	H	1.197356	0.429751	0.293399
O74	O	1.410659	0.143495	0.283761
C75	C	1.523347	-0.007942	0.296900
C76	C	1.465062	0.070255	0.365416
H77	H	1.567327	-0.067195	0.362888
H78	H	1.582969	0.056247	0.238584
H79	H	1.462822	-0.070834	0.238490
H80	H	1.525508	0.133156	0.423891
H81	H	1.405422	0.005994	0.423656
H82	H	0.746202	0.053993	-0.000029
