data_functionalizedCrystal
_audit_creation_method	'MofGen! by Chris Wilmer'
_symmetry_space_group_name_H-M	'P1'
_symmetry_Int_Tables_number	1
_symmetry_cell_setting	triclinic
loop_
_symmetry_equiv_pos_as_xyz
  x,y,z
_cell_length_a	21.395362
_cell_length_b	10.686285
_cell_length_c	21.395355
_cell_angle_alpha	94.380557
_cell_angle_beta	90.043940
_cell_angle_gamma	85.645931
loop_
_atom_site_label
_atom_site_type_symbol
_atom_site_fract_x
_atom_site_fract_y
_atom_site_fract_z
Zn1	Zn	0.977081	-0.501939	0.335532
Zn2	Zn	1.477081	-0.001939	0.835532
Zn3	Zn	0.985062	-0.712908	0.222746
Zn4	Zn	1.485062	-0.212908	0.722746
Zn5	Zn	0.872298	-0.501998	0.230731
Zn6	Zn	1.372298	-0.001998	0.730731
Zn7	Zn	0.880345	-0.712934	0.327450
Zn8	Zn	1.380345	-0.212934	0.827450
O9	O	0.928696	-0.607445	0.279115
O10	O	1.428696	-0.107445	0.779115
O11	O	1.065816	-0.529889	0.320611
O12	O	1.565816	-0.029889	0.820611
O13	O	0.970076	-0.684945	0.136127
O14	O	1.470076	-0.184945	0.636127
O15	O	0.879490	-0.325422	0.251357
O16	O	1.379490	0.174578	0.751357
O17	O	1.071680	-0.684888	0.237748
O18	O	1.571680	-0.184888	0.737748
O19	O	0.956473	-0.325378	0.328354
O20	O	1.456473	0.174622	0.828354
O21	O	0.887229	-0.529990	0.141993
O22	O	1.387229	-0.029990	0.641993
O23	O	0.785689	-0.530015	0.243520
O24	O	1.285689	-0.030015	0.743520
O25	O	0.893204	-0.684932	0.416201
O26	O	1.393204	-0.184932	0.916201
O27	O	0.791601	-0.684989	0.314579
O28	O	1.291601	-0.184989	0.814579
O29	O	0.964276	-0.529915	0.422138
O30	O	1.464276	-0.029915	0.922138
O31	O	0.977879	-0.889481	0.229911
O32	O	1.477879	-0.389481	0.729911
O33	O	0.900944	-0.889500	0.306837
O34	O	1.400944	-0.389500	0.806837
C35	C	0.765911	-0.607512	0.279040
C36	C	1.265911	-0.107512	0.779040
C37	C	0.696272	-0.607571	0.279021
C38	C	1.196272	-0.107571	0.779021
C39	C	0.666658	-0.688373	0.315957
C40	C	1.166658	-0.188373	0.815957
C41	C	0.601221	-0.688342	0.315987
C42	C	1.101221	-0.188342	0.815987
C43	C	0.565402	-0.607522	0.279068
C44	C	1.065402	-0.107522	0.779068
C45	C	0.595024	-0.526705	0.242129
C46	C	1.095024	-0.026705	0.742129
C47	C	0.660459	-0.526729	0.242106
C48	C	1.160459	-0.026729	0.742106
C49	C	0.461288	-0.597357	0.223048
C50	C	0.961288	-0.097357	0.723048
C51	C	0.395855	-0.597342	0.223070
C52	C	0.895855	-0.097342	0.723070
C53	C	0.363578	-0.607440	0.279140
C54	C	0.863578	-0.107440	0.779140
C55	C	0.396745	-0.617580	0.335189
C56	C	0.896745	-0.117580	0.835189
C57	C	0.462180	-0.617604	0.335165
C58	C	0.962180	-0.117604	0.835165
C59	C	0.494448	-0.607486	0.279089
C60	C	0.994448	-0.107486	0.779089
C61	C	0.263010	-0.688213	0.316111
C62	C	0.763010	-0.188213	0.816111
C63	C	0.197572	-0.688173	0.316141
C64	C	0.697572	-0.188173	0.816141
C65	C	0.191376	-0.526542	0.242278
C66	C	0.691376	-0.026542	0.742278
C67	C	0.256813	-0.526575	0.242254
C68	C	0.756813	-0.026575	0.742254
C69	C	0.292626	-0.607417	0.279169
C70	C	0.792626	-0.107417	0.779169
C71	C	0.941168	-0.935273	0.266644
C72	C	1.441168	-0.435273	0.766644
C73	C	0.946560	-1.075519	0.261330
C74	C	1.446560	-0.575519	0.761330
C75	C	1.092117	-0.607379	0.279191
C76	C	1.592117	-0.107379	0.779191
C77	C	1.161757	-0.607351	0.279223
C78	C	1.661757	-0.107351	0.779223
C79	C	0.928747	-0.607420	0.442539
C80	C	1.428747	-0.107420	0.942539
C81	C	0.928769	-0.607409	0.512181
C82	C	1.428769	-0.107409	1.012181
C83	C	0.916194	-0.278338	0.291648
C84	C	1.416194	0.221662	0.791648
C85	C	0.910866	-0.138091	0.296989
C86	C	1.410866	0.361909	0.796989
C87	C	0.928678	-0.607380	0.116330
C88	C	1.428678	-0.107380	0.616330
C89	C	0.928764	-0.607035	0.046702
C90	C	1.428764	-0.107035	0.546702
C91	C	0.965774	-0.526688	0.547987
C92	C	1.465774	-0.026688	1.047987
C93	C	0.965771	-0.526634	0.613424
C94	C	1.465771	-0.026634	1.113424
C95	C	0.928771	-0.607323	0.643053
C96	C	1.428771	-0.107323	1.143053
C97	C	0.891758	-0.688049	0.607238
C98	C	1.391758	-0.188049	1.107238
C99	C	0.891757	-0.688092	0.541802
C100	C	1.391757	-0.188092	1.041802
C101	C	0.928146	-0.720937	0.742404
C102	C	1.428146	-0.220937	1.242404
C103	C	0.928151	-0.720896	0.807838
C104	C	1.428151	-0.220896	1.307838
C105	C	0.928770	-0.607189	0.844878
C106	C	1.428770	-0.107189	1.344878
C107	C	0.929396	-0.493520	0.816476
C108	C	1.429396	0.006480	1.316476
C109	C	0.929395	-0.493563	0.751040
C110	C	1.429395	0.006437	1.251040
C111	C	0.928767	-0.607284	0.714006
C112	C	1.428767	-0.107284	1.214006
C113	C	0.965773	-0.526403	0.951640
C114	C	1.465773	-0.026403	1.451640
C115	C	0.965766	-0.526347	1.017078
C116	C	1.465766	-0.026347	1.517078
C117	C	0.891756	-0.687773	1.010891
C118	C	1.391756	-0.187773	1.510891
C119	C	0.891760	-0.687818	0.945453
C120	C	1.391760	-0.187818	1.445453
C121	C	0.928772	-0.607135	0.915832
C122	C	1.428772	-0.107135	1.415832
H123	H	0.577105	-0.754140	0.346067
H124	H	1.077105	-0.254140	0.846067
O125	O	0.992502	-1.146679	0.215496
O126	O	1.492502	-0.646679	0.715496
H127	H	1.017796	-1.078786	0.190210
H128	H	1.517796	-0.578786	0.690210
O129	O	0.301638	-0.775358	0.355950
O130	O	0.801638	-0.275358	0.855950
H131	H	0.352116	-0.761802	0.349729
H132	H	0.852116	-0.261802	0.849729
H133	H	0.861631	-0.753558	0.916299
H134	H	1.361631	-0.253558	1.416299
O135	O	0.497954	-0.628514	0.395614
O136	O	0.997954	-0.128514	0.895614
H137	H	0.464522	-0.635520	0.434610
H138	H	0.964522	-0.135520	0.934610
H139	H	0.995911	-0.460987	0.523873
H140	H	1.495911	0.039013	1.023873
O141	O	1.005691	-0.439579	0.652056
O142	O	1.505691	0.060421	1.152056
H143	H	1.031430	-0.383490	0.620465
H144	H	1.531430	0.116510	1.120465
O145	O	1.005676	-0.439263	1.055699
O146	O	1.505676	0.060737	1.555699
H147	H	0.999452	-0.452771	1.106178
H148	H	1.499452	0.047229	1.606178
H149	H	0.929904	-0.401010	0.727918
H150	H	1.429904	0.098990	1.227918
H151	H	0.861623	-0.753459	1.035013
H152	H	1.361623	-0.253459	1.535013
O153	O	0.930046	-0.370862	0.856415
O154	O	1.430046	0.129138	1.356415
H155	H	0.929928	-0.389920	0.906689
H156	H	1.429928	0.110080	1.406689
O157	O	0.692408	-0.439582	0.202264
O158	O	1.192408	0.060418	0.702264
H159	H	0.724317	-0.495982	0.168190
H160	H	1.224317	0.004018	0.668190
H161	H	0.565855	-0.460899	0.212071
H162	H	1.065855	0.039101	0.712071
O163	O	1.005683	-0.439372	0.919683
O164	O	1.505683	0.060628	1.419683
H165	H	1.031407	-0.383214	0.955579
H166	H	1.531407	0.116786	1.455579
O167	O	0.361944	-0.628462	0.395672
O168	O	0.861944	-0.128462	0.895672
H169	H	0.310871	-0.626723	0.386277
H170	H	0.810871	-0.126723	0.886277
H171	H	0.927645	-0.813452	0.830958
H172	H	1.427645	-0.313452	1.330958
H173	H	0.173462	-0.753969	0.346223
H174	H	0.673462	-0.253969	0.846223
H175	H	0.162212	-0.460731	0.212221
H176	H	0.662212	0.039269	0.712221
H177	H	0.280925	-0.460784	0.212173
H178	H	0.780925	0.039216	0.712173
O179	O	0.360083	-0.586399	0.162622
O180	O	0.860083	-0.086399	0.662622
H181	H	0.393517	-0.579353	0.123632
H182	H	0.893517	-0.079353	0.623632
O183	O	0.496100	-0.586469	0.162569
O184	O	0.996100	-0.086469	0.662569
H185	H	0.462047	-0.579435	0.123599
H186	H	0.962047	-0.079435	0.623599
O187	O	0.927470	-0.843583	0.702454
O188	O	1.427470	-0.343583	1.202454
H189	H	0.927042	-0.922614	0.733195
H190	H	1.427042	-0.422614	1.233195
O191	O	0.851847	-0.775078	0.639188
O192	O	1.351847	-0.275078	1.139188
H193	H	0.858068	-0.761496	0.690706
H194	H	1.358068	-0.261496	1.190706
H195	H	0.876181	-1.084372	0.331584
H196	H	1.376181	-0.584372	0.831584
H197	H	0.861620	-0.753823	0.512649
H198	H	1.361620	-0.253823	1.012649
H199	H	0.695813	-0.754199	0.346018
H200	H	1.195813	-0.254199	0.846018
