data_functionalizedCrystal
_audit_creation_method	'MofGen! by Chris Wilmer'
_symmetry_space_group_name_H-M	'P1'
_symmetry_Int_Tables_number	1
_symmetry_cell_setting	triclinic
loop_
_symmetry_equiv_pos_as_xyz
  x,y,z
_cell_length_a	23.532407
_cell_length_b	23.532407
_cell_length_c	8.140239
_cell_angle_alpha	90.002624
_cell_angle_beta	89.995964
_cell_angle_gamma	97.151323
loop_
_atom_site_label
_atom_site_type_symbol
_atom_site_fract_x
_atom_site_fract_y
_atom_site_fract_z
O1	O	-0.069134	0.755258	-0.136382
O2	O	0.430866	1.255258	0.363618
O3	O	-0.079137	0.589395	-0.136427
O4	O	0.420863	1.089395	0.363573
O5	O	0.008796	0.677328	-0.136424
O6	O	0.508796	1.177328	0.363576
O7	O	-0.157067	0.667325	-0.136385
O8	O	0.342933	1.167325	0.363615
O9	O	0.008797	0.677323	0.136803
O10	O	0.508797	1.177323	0.636803
O11	O	-0.079136	0.589390	0.136800
O12	O	0.420864	1.089390	0.636800
O13	O	-0.069133	0.755253	0.136845
O14	O	0.430867	1.255253	0.636845
Zn15	Zn	-0.074134	0.672321	0.180203
Zn16	Zn	0.425866	1.172321	0.680203
Zn17	Zn	-0.074136	0.672327	-0.179785
Zn18	Zn	0.425864	1.172327	0.320215
O19	O	-0.157066	0.667320	0.136842
O20	O	0.342934	1.167320	0.636842
C21	C	-0.078882	0.568176	0.000180
C22	C	0.421118	1.068176	0.500180
C23	C	-0.078116	0.504959	0.000162
C24	C	0.421884	1.004959	0.500162
C25	C	-0.125350	0.105856	0.000248
C26	C	0.374650	0.605856	0.500248
C27	C	-0.124638	0.046456	0.000257
C28	C	0.375362	0.546456	0.500257
O29	O	-0.168424	0.009711	0.000327
O30	O	0.331576	0.509711	0.500327
N31	N	-0.072362	0.023830	0.000242
N32	N	0.427638	0.523830	0.500242
C33	C	-0.020794	0.060607	0.000234
C34	C	0.479206	0.560607	0.500234
O35	O	0.023737	0.035908	0.000224
O36	O	0.523737	0.535908	0.500224
C37	C	-0.021506	0.120006	0.000236
C38	C	0.478494	0.620006	0.500236
C39	C	-0.073785	0.142629	0.000234
C40	C	0.426215	0.642629	0.500234
C41	C	-0.177625	0.128479	0.000248
C42	C	0.322375	0.628479	0.500248
C43	C	-0.178336	0.187876	0.000235
C44	C	0.321664	0.687876	0.500235
C45	C	-0.126772	0.224649	0.000222
C46	C	0.373228	0.724649	0.500222
C47	C	-0.074496	0.202025	0.000221
C48	C	0.425504	0.702025	0.500221
C49	C	0.030062	0.156783	0.000240
C50	C	0.530062	0.656783	0.500240
C51	C	0.029345	0.216185	0.000243
C52	C	0.529345	0.716185	0.500243
C53	C	-0.022934	0.238808	0.000241
C54	C	0.477066	0.738808	0.500241
C55	C	-0.023643	0.298194	0.000195
C56	C	0.476357	0.798194	0.500195
N57	N	-0.075920	0.320820	0.000210
N58	N	0.424080	0.820820	0.500210
C59	C	-0.127484	0.284048	0.000223
C60	C	0.372516	0.784048	0.500223
C61	C	-0.019302	-0.064135	0.000233
C62	C	0.480698	0.435865	0.500233
C63	C	-0.018589	-0.123533	0.000220
C64	C	0.481411	0.376467	0.500220
C65	C	-0.122434	-0.137680	0.000246
C66	C	0.377566	0.362320	0.500246
C67	C	-0.123146	-0.078281	0.000248
C68	C	0.376854	0.421719	0.500248
C69	C	-0.071578	-0.041509	0.000248
C70	C	0.428422	0.458491	0.500248
C71	C	-0.128974	0.408784	0.000195
C72	C	0.371026	0.908784	0.500195
C73	C	-0.129680	0.468186	0.000175
C74	C	0.370320	0.968186	0.500175
C75	C	-0.025836	0.482329	0.000158
C76	C	0.474164	0.982329	0.500158
C77	C	-0.025129	0.422932	0.000169
C78	C	0.474871	0.922932	0.500169
C79	C	-0.076702	0.386160	0.000193
C80	C	0.423298	0.886160	0.500193
O81	O	0.020119	0.334974	0.000132
O82	O	0.520119	0.834974	0.500132
O83	O	-0.172007	0.308755	0.000255
O84	O	0.327993	0.808755	0.500255
C85	C	-0.178283	0.667577	0.000234
C86	C	0.321717	1.167577	0.500234
C87	C	-0.241500	0.668343	0.000249
C88	C	0.258500	1.168343	0.500249
C89	C	-0.640603	0.621110	0.000153
C90	C	-0.140603	1.121110	0.500153
C91	C	-0.700003	0.621821	0.000141
C92	C	-0.200003	1.121821	0.500141
O93	O	-0.736748	0.578035	0.000069
O94	O	-0.236748	1.078035	0.500069
N95	N	-0.722629	0.674097	0.000157
N96	N	-0.222629	1.174097	0.500157
C97	C	-0.685852	0.725666	0.000168
C98	C	-0.185852	1.225666	0.500168
O99	O	-0.710551	0.770196	0.000179
O100	O	-0.210551	1.270196	0.500179
C101	C	-0.626453	0.724954	0.000168
C102	C	-0.126453	1.224954	0.500168
C103	C	-0.603830	0.672674	0.000168
C104	C	-0.103830	1.172674	0.500168
C105	C	-0.617980	0.568834	0.000151
C106	C	-0.117980	1.068834	0.500151
C107	C	-0.558584	0.568123	0.000166
C108	C	-0.058584	1.068123	0.500166
C109	C	-0.521811	0.619687	0.000181
C110	C	-0.021811	1.119687	0.500181
C111	C	-0.544434	0.671963	0.000183
C112	C	-0.044434	1.171963	0.500183
C113	C	-0.589676	0.776521	0.000167
C114	C	-0.089676	1.276521	0.500167
C115	C	-0.530274	0.775805	0.000165
C116	C	-0.030274	1.275805	0.500165
C117	C	-0.507651	0.723525	0.000166
C118	C	-0.007651	1.223525	0.500166
C119	C	-0.448265	0.722816	0.000213
C120	C	0.051735	1.222816	0.500213
N121	N	-0.425639	0.670539	0.000197
N122	N	0.074361	1.170539	0.500197
C123	C	-0.462412	0.618975	0.000181
C124	C	0.037588	1.118975	0.500181
C125	C	-0.810594	0.727157	0.000166
C126	C	-0.310594	1.227157	0.500166
C127	C	-0.869992	0.727870	0.000178
C128	C	-0.369992	1.227870	0.500178
C129	C	-0.884140	0.624025	0.000148
C130	C	-0.384140	1.124025	0.500148
C131	C	-0.824740	0.623313	0.000148
C132	C	-0.324740	1.123313	0.500148
C133	C	-0.787968	0.674881	0.000150
C134	C	-0.287968	1.174881	0.500150
C135	C	-0.337675	0.617485	0.000212
C136	C	0.162325	1.117485	0.500212
C137	C	-0.278273	0.616779	0.000234
C138	C	0.221727	1.116779	0.500234
C139	C	-0.264131	0.720623	0.000255
C140	C	0.235869	1.220623	0.500255
C141	C	-0.323527	0.721330	0.000242
C142	C	0.176473	1.221330	0.500242
C143	C	-0.360299	0.669757	0.000216
C144	C	0.139701	1.169757	0.500216
O145	O	-0.411486	0.766579	0.000278
O146	O	0.088514	1.266579	0.500278
O147	O	-0.437704	0.574452	0.000148
O148	O	0.062296	1.074452	0.500148
C149	C	0.030013	0.677071	0.000181
C150	C	0.530013	1.177071	0.500181
C151	C	0.093230	0.676305	0.000154
C152	C	0.593230	1.176305	0.500154
C153	C	-0.069388	0.776472	0.000234
C154	C	0.430612	1.276472	0.500234
C155	C	-0.070154	0.839689	0.000241
C156	C	0.429846	1.339689	0.500241
N157	N	-0.074133	0.672321	0.425886
N158	N	0.425867	1.172321	0.925886
N159	N	-0.074132	0.672332	-0.425468
N160	N	0.425868	1.172332	0.074532
H161	H	-0.220908	0.206289	0.000233
H162	H	0.279092	0.706289	0.500233
H163	H	-0.888406	0.770441	0.000204
H164	H	-0.388406	1.270441	0.500204
N165	N	-0.612783	0.829920	0.000174
N166	N	-0.112783	1.329920	0.500174
N167	N	-0.644351	0.841912	0.115339
N168	N	-0.144351	1.341912	0.615339
H169	H	-0.660669	0.879628	0.115344
H170	H	-0.160669	1.379628	0.615344
N171	N	-0.535470	0.514725	0.000129
N172	N	-0.035470	1.014725	0.500129
N173	N	-0.482436	0.514086	0.000124
N174	N	0.017564	1.014086	0.500124
H175	H	-0.466115	0.476371	0.000092
H176	H	0.033885	0.976371	0.500092
N177	N	0.028277	0.399829	0.000143
N178	N	0.528277	0.899829	0.500143
N179	N	0.074312	0.432672	0.000122
N180	N	0.574312	0.932672	0.500122
H181	H	0.112032	0.416360	0.000118
H182	H	0.612032	0.916360	0.500118
N183	N	0.026840	0.519887	0.000140
N184	N	0.526840	1.019887	0.500140
N185	N	0.061691	0.517992	-0.115025
N186	N	0.561691	1.017992	0.384975
H187	H	0.098894	0.544519	-0.115027
H188	H	0.598894	1.044519	0.384973
H189	H	0.072634	0.138375	0.000243
H190	H	0.572634	0.638375	0.500243
H191	H	-0.234180	0.762605	0.000276
H192	H	0.265820	1.262605	0.500276
H193	H	-0.259857	0.574205	0.000242
H194	H	0.240143	1.074205	0.500242
H195	H	-0.367608	0.575489	0.000190
H196	H	0.132392	1.075489	0.500190
H197	H	-0.647915	0.526842	0.000133
H198	H	-0.147915	1.026842	0.500133
N199	N	-0.346637	0.774732	0.000219
N200	N	0.153363	1.274732	0.500219
N201	N	-0.378190	0.786717	-0.114974
N202	N	0.121810	1.286717	0.385026
H203	H	-0.394508	0.824434	-0.115007
H204	H	0.105492	1.324434	0.384993
H205	H	-0.806326	0.580742	0.000155
H206	H	-0.306326	1.080742	0.500155
N207	N	-0.921701	0.571346	0.000100
N208	N	-0.421701	1.071346	0.500100
N209	N	-0.901500	0.524671	0.000080
N210	N	-0.401500	1.024671	0.500080
H211	H	-0.928028	0.487468	0.000044
H212	H	-0.428028	0.987468	0.500044
H213	H	-0.170970	0.378851	0.000220
H214	H	0.329030	0.878851	0.500220
H215	H	-0.219617	0.098544	0.000264
H216	H	0.280383	0.598544	0.500264
N217	N	-0.183090	0.491284	0.000162
N218	N	0.316910	0.991284	0.500162
N219	N	-0.229125	0.458440	0.000175
N220	N	0.270875	0.958440	0.500175
H221	H	-0.266845	0.474751	0.000167
H222	H	0.233155	0.974751	0.500167
N223	N	-0.492704	0.828477	0.000193
N224	N	0.007296	1.328477	0.500193
N225	N	-0.439670	0.827839	0.000210
N226	N	0.060330	1.327839	0.500210
H227	H	-0.413137	0.865038	0.000235
H228	H	0.086863	1.365038	0.500235
N229	N	-0.176553	-0.055185	0.000244
N230	N	0.323447	0.444815	0.500244
N231	N	-0.222586	-0.088031	0.000248
N232	N	0.277414	0.411969	0.500248
H233	H	-0.260308	-0.071723	0.000248
H234	H	0.239692	0.428277	0.500248
H235	H	0.071339	0.246123	0.000245
H236	H	0.571339	0.746123	0.500245
H237	H	-0.164421	-0.167632	0.000264
H238	H	0.335579	0.332368	0.500264
N239	N	0.034818	-0.146628	0.000184
N240	N	0.534818	0.353372	0.500184
N241	N	0.080851	-0.113782	0.000164
N242	N	0.580851	0.386218	0.500164
H243	H	0.118572	-0.130090	0.000145
H244	H	0.618572	0.369910	0.500145
H245	H	-0.780657	0.769152	0.000179
H246	H	-0.280657	1.269152	0.500179
H247	H	0.022693	-0.034198	0.000219
H248	H	0.522693	0.465802	0.500219
