data_functionalizedCrystal
_audit_creation_method	'MofGen! by Chris Wilmer'
_symmetry_space_group_name_H-M	'P1'
_symmetry_Int_Tables_number	1
_symmetry_cell_setting	triclinic
loop_
_symmetry_equiv_pos_as_xyz
  x,y,z
_cell_length_a	6.817900
_cell_length_b	15.301126
_cell_length_c	11.168136
_cell_angle_alpha	93.625843
_cell_angle_beta	108.508683
_cell_angle_gamma	104.177575
loop_
_atom_site_label
_atom_site_type_symbol
_atom_site_fract_x
_atom_site_fract_y
_atom_site_fract_z
V1	V	-4.087806	-0.124772	-0.394083
O2	O	-4.070525	0.005982	-0.386186
O3	O	-4.042399	-0.247389	-0.391768
O4	O	-4.064435	-0.122859	-0.565783
O5	O	-4.048336	-0.119410	-0.210966
V6	V	-4.567803	-0.109132	-0.372135
O7	O	-4.356799	-0.159081	-0.442228
O8	O	-4.749007	-0.074823	-0.323989
O9	O	-4.390003	0.013485	-0.374450
O10	O	-4.702481	-0.239886	-0.380031
O11	O	-4.724669	-0.114494	-0.555251
O12	O	-4.367967	-0.111045	-0.200435
C13	C	-3.887318	-0.277280	-0.385649
C14	C	-3.931646	-0.377521	-0.384900
C15	C	-4.135628	-0.429207	-0.390861
C16	C	-4.177271	-0.523395	-0.390165
C17	C	-4.014924	-0.565893	-0.383499
C18	C	-3.810926	-0.514201	-0.377542
C19	C	-3.769290	-0.420016	-0.378247
C20	C	-3.897718	-0.710511	-0.376069
C21	C	-3.939354	-0.804702	-0.375362
C22	C	-4.305699	-0.813891	-0.387987
C23	C	-4.264064	-0.719706	-0.388692
C24	C	-4.060067	-0.668019	-0.382733
C25	C	-3.915426	-0.118429	-0.607621
C26	C	-3.977621	-0.117676	-0.747989
C27	C	-4.179432	-0.121617	-0.816693
C28	C	-4.243717	-0.120839	-0.961771
C29	C	-4.208426	0.043371	-0.380565
C30	C	-4.143337	0.143611	-0.381322
C31	C	-4.180317	-0.115478	-0.158590
C32	C	-4.097361	-0.116227	-0.018221
H33	H	-4.471793	-0.855976	-0.392821
H34	H	-3.603192	-0.377934	-0.373398
H35	H	-3.852432	-0.113720	-0.796573
H36	H	-4.343372	-0.565475	-0.395021
Br37	Br	-4.355971	-0.371539	-0.399899
Br38	Br	-3.719039	-0.862382	-0.366345
H39	H	-4.304613	-0.125561	-0.768107
H40	H	-4.396261	-0.685106	-0.394113
H41	H	-3.924475	-0.112858	-0.959169
Br42	Br	-3.620868	-0.640367	-0.367991
H43	H	-3.678746	-0.548811	-0.372122
Br44	Br	-4.531887	-0.126472	-1.060203
