data_functionalizedCrystal
_audit_creation_method	'MofGen! by Chris Wilmer'
_symmetry_space_group_name_H-M	'P1'
_symmetry_Int_Tables_number	1
_symmetry_cell_setting	triclinic
loop_
_symmetry_equiv_pos_as_xyz
  x,y,z
_cell_length_a	15.944545
_cell_length_b	15.944551
_cell_length_c	15.021413
_cell_angle_alpha	89.999557
_cell_angle_beta	89.990408
_cell_angle_gamma	83.497455
loop_
_atom_site_label
_atom_site_type_symbol
_atom_site_fract_x
_atom_site_fract_y
_atom_site_fract_z
O1	O	1.114514	0.108301	0.073976
O2	O	0.869964	0.121663	0.073991
O3	O	0.998917	-0.007293	0.073975
O4	O	0.985561	0.237257	0.073992
O5	O	0.998932	-0.007285	-0.074089
O6	O	0.869979	0.121671	-0.074073
O7	O	1.114529	0.108309	-0.074088
Zn8	Zn	0.992257	0.114991	-0.097589
Zn9	Zn	0.992237	0.114981	0.097492
O10	O	0.985576	0.237265	-0.074072
C11	C	0.838677	0.121113	-0.000039
C12	C	0.745431	0.119453	-0.000034
C13	C	0.998370	-0.038583	-0.000057
C14	C	0.996708	-0.131829	-0.000057
C15	C	0.474798	0.034559	-0.000049
C16	C	0.525387	0.075492	-0.073052
C17	C	0.409787	0.113532	-0.000050
C18	C	0.525353	0.075505	0.072928
C19	C	0.574701	0.116437	-0.000040
C20	C	0.459148	0.154444	-0.073113
C21	C	0.459110	0.154446	0.072933
C22	C	0.509667	0.195436	-0.000088
C23	C	0.314785	0.111856	-0.000056
C24	C	0.669700	0.118119	-0.000041
C25	C	0.912803	-0.346684	-0.000040
C26	C	0.951773	-0.407698	-0.073047
C27	C	0.993701	-0.302555	-0.000050
C28	C	0.951778	-0.407689	0.072933
C29	C	0.990790	-0.467468	-0.000040
C30	C	1.032693	-0.362341	-0.073118
C31	C	1.032686	-0.362326	0.072928
C32	C	1.071715	-0.423322	-0.000097
C33	C	0.995375	-0.207553	-0.000057
C34	C	0.989122	-0.562469	-0.000039
C35	C	1.145816	0.108859	-0.000056
C36	C	1.239062	0.110519	-0.000055
C37	C	0.986123	0.268555	-0.000038
C38	C	0.987785	0.361801	-0.000032
N39	N	0.992276	0.114998	-0.230727
C40	C	1.051916	0.055355	-0.470393
C41	C	0.976016	0.039039	-0.529719
C42	C	0.992257	0.114987	-0.412333
C43	C	1.068138	0.131253	-0.529749
C44	C	0.992245	0.114975	-0.587757
C45	C	0.916318	0.098634	-0.470353
C46	C	1.008490	0.190881	-0.470378
C47	C	0.932536	0.174598	-0.529677
C48	C	0.992265	0.114992	-0.311276
C49	C	0.992228	0.114971	-0.688813
N50	N	0.992224	0.114967	0.230630
H51	H	0.459145	-0.033453	-0.000125
C52	C	1.078884	-0.335334	-0.156595
N53	N	1.113671	-0.314989	-0.219471
C54	C	1.027090	0.277565	-0.435130
N55	N	1.041109	0.342855	-0.408578
H56	H	0.554325	0.042143	-0.134775
C57	C	0.822092	-0.301678	-0.000134
N58	N	0.753771	-0.267776	-0.000211
C59	C	0.530604	0.287386	-0.000140
N60	N	0.546376	0.356642	-0.000185
C61	C	1.078862	-0.335132	0.156311
N62	N	1.113636	-0.314648	0.219122
H63	H	0.917563	-0.427802	-0.134765
H64	H	0.962274	-0.025147	-0.555785
C65	C	0.829601	0.079930	-0.435257
N66	N	0.764289	0.065838	-0.408821
C67	C	0.864297	0.242720	-0.564629
N68	N	0.812898	0.294025	-0.590957
C69	C	0.420240	0.199467	-0.156585
N70	N	0.390933	0.233375	-0.219457
C71	C	0.905527	-0.434828	0.156314
N72	N	0.870685	-0.455264	0.219114
H73	H	1.138922	-0.456483	-0.000142
C74	C	0.564407	0.030427	0.156303
N75	N	0.593820	-0.003531	0.219099
C76	C	0.419989	0.199455	0.156321
N77	N	0.390521	0.233350	0.219137
H78	H	1.102315	0.004898	-0.444362
H79	H	1.132315	0.145017	-0.555840
