data_functionalizedCrystal
_audit_creation_method	'MofGen! by Chris Wilmer'
_symmetry_space_group_name_H-M	'P1'
_symmetry_Int_Tables_number	1
_symmetry_cell_setting	triclinic
loop_
_symmetry_equiv_pos_as_xyz
  x,y,z
_cell_length_a	16.109301
_cell_length_b	17.000371
_cell_length_c	14.586319
_cell_angle_alpha	89.995789
_cell_angle_beta	89.998857
_cell_angle_gamma	79.530416
loop_
_atom_site_label
_atom_site_type_symbol
_atom_site_fract_x
_atom_site_fract_y
_atom_site_fract_z
O1	O	1.095680	0.102310	-0.076191
O2	O	0.852691	0.115042	-0.076204
O3	O	0.989273	-0.007194	-0.076190
O4	O	0.959098	0.224547	-0.076205
O5	O	0.989265	-0.007196	0.076291
O6	O	0.852682	0.115041	0.076277
O7	O	1.095671	0.102309	0.076290
Cu8	Cu	0.974176	0.108674	0.090206
Cu9	Cu	0.974186	0.108676	-0.090120
O10	O	0.959089	0.224545	0.076276
C11	C	0.821749	0.114526	0.000035
C12	C	0.729567	0.112979	0.000030
C13	C	0.415654	0.180457	0.000042
C14	C	0.502268	0.181917	0.000037
C15	C	0.532703	0.036888	0.000033
C16	C	0.446091	0.035429	0.000032
C17	C	0.387568	0.107216	0.000041
C18	C	0.560794	0.110135	0.000037
C19	C	0.654705	0.111718	0.000031
C20	C	0.293651	0.105633	0.000045
C21	C	0.990890	-0.036849	0.000050
C22	C	0.995709	-0.125209	0.000050
C23	C	0.921543	-0.157215	0.000042
C24	C	0.926076	-0.240239	0.000044
C25	C	1.004777	-0.291256	0.000049
C26	C	1.078949	-0.259244	0.000059
C27	C	1.074415	-0.176222	0.000063
C28	C	1.022291	-0.542406	0.000043
C29	C	1.026820	-0.625434	0.000037
C30	C	0.873946	-0.606423	0.000023
C31	C	0.869419	-0.523400	0.000022
C32	C	0.943591	-0.491396	0.000037
C33	C	1.009413	-0.376120	0.000048
C34	C	0.938954	-0.406533	0.000044
C35	C	1.126613	0.102825	0.000049
C36	C	1.218796	0.104372	0.000048
C37	C	0.957473	0.254200	0.000034
C38	C	0.952653	0.342560	0.000029
N39	N	0.974175	0.108672	0.217038
N40	N	0.974195	0.108672	-0.216952
C41	C	1.034671	0.054564	0.452051
C42	C	1.034673	0.054562	0.548032
C43	C	0.913692	0.162783	0.548029
C44	C	0.913687	0.162780	0.452050
C45	C	0.974181	0.108672	0.404063
C46	C	0.974189	0.108673	0.596024
C47	C	0.974191	0.108671	0.700091
C48	C	0.974178	0.108672	0.299989
H49	H	0.525131	0.241558	0.000036
H50	H	0.857456	-0.115682	0.000034
N51	N	1.154409	-0.141697	0.000073
H52	H	1.155927	-0.107684	0.056604
H53	H	1.204907	-0.186657	0.000041
N54	N	0.595826	-0.040534	0.000043
H55	H	0.564888	-0.087154	0.000041
H56	H	0.632429	-0.043087	-0.056481
N57	N	0.848433	0.221141	0.400291
H58	H	0.853874	0.277638	0.416982
H59	H	0.857639	0.212857	0.332223
N60	N	1.099927	-0.003785	0.599791
H61	H	1.138249	-0.038057	0.554825
H62	H	1.134444	0.026712	0.639600
N63	N	0.415790	-0.043571	0.000027
H64	H	0.466005	-0.088827	0.000028
H65	H	0.380515	-0.047338	0.056551
N66	N	0.846082	-0.274762	0.000053
H67	H	0.795538	-0.229845	0.000051
H68	H	0.844630	-0.308796	-0.056468
N69	N	0.848448	0.221141	0.599786
H70	H	0.857631	0.212934	0.667871
H71	H	0.853921	0.277609	0.583000
H72	H	0.368007	0.238911	0.000049
H73	H	0.805332	-0.481867	0.000016
H74	H	0.813559	-0.632491	0.000012
N75	N	1.099894	-0.003805	0.400281
H76	H	1.134481	0.026612	0.360447
H77	H	1.138157	-0.038077	0.445299
H78	H	1.090911	-0.666971	0.000034
N79	N	1.102287	-0.507893	0.000060
H80	H	1.152829	-0.552811	0.000059
H81	H	1.103742	-0.473853	-0.056463
N82	N	1.163835	-0.314265	0.000076
H83	H	1.155455	-0.371717	0.000071
H84	H	1.196428	-0.303898	-0.056445
N85	N	0.854078	-0.351503	0.000039
H86	H	0.821453	-0.361784	-0.056491
H87	H	0.821509	-0.361820	0.056596
H88	H	1.073491	-0.417667	0.000050
