data_functionalizedCrystal
_audit_creation_method	'MofGen! by Chris Wilmer'
_symmetry_space_group_name_H-M	'P1'
_symmetry_Int_Tables_number	1
_symmetry_cell_setting	triclinic
loop_
_symmetry_equiv_pos_as_xyz
  x,y,z
_cell_length_a	10.489741
_cell_length_b	23.532407
_cell_length_c	9.565339
_cell_angle_alpha	89.995586
_cell_angle_beta	89.999100
_cell_angle_gamma	83.693926
loop_
_atom_site_label
_atom_site_type_symbol
_atom_site_fract_x
_atom_site_fract_y
_atom_site_fract_z
O1	O	1.691382	0.080340	-0.116190
O2	O	1.319936	0.087882	-0.116213
O3	O	1.516860	0.001253	-0.116175
O4	O	1.494458	0.166968	-0.116228
O5	O	1.516844	0.001259	0.116345
O6	O	1.319920	0.087887	0.116307
O7	O	1.691366	0.080345	0.116330
Zn8	Zn	1.505641	0.084117	0.153236
Zn9	Zn	1.505661	0.084110	-0.153119
O10	O	1.494442	0.166974	0.116293
C11	C	1.272415	0.087315	0.000045
C12	C	1.130842	0.085611	0.000037
C13	C	1.516282	-0.019964	0.000089
C14	C	1.514566	-0.083192	0.000099
C15	C	1.064535	0.030491	0.000067
C16	C	0.971550	0.056527	-0.114582
C17	C	0.971568	0.056545	0.114664
C18	C	1.039722	0.111668	-0.114708
C19	C	1.039750	0.111679	0.114642
C20	C	0.946792	0.137754	-0.000036
C21	C	1.620344	-0.481594	0.000029
C22	C	1.618751	-0.541005	0.000019
O23	O	1.716808	-0.577100	-0.000027
N24	N	1.501680	-0.564407	0.000012
C25	C	1.386194	-0.528395	0.000002
O26	O	1.286470	-0.553755	-0.000005
C27	C	1.387789	-0.468985	0.000003
C28	C	1.504868	-0.445587	0.000024
C29	C	1.737414	-0.458195	0.000048
C30	C	1.739007	-0.398788	0.000062
C31	C	1.623530	-0.362781	0.000056
C32	C	1.506460	-0.386180	0.000037
C33	C	1.272305	-0.432974	-0.000017
C34	C	1.273909	-0.373561	-0.000017
C35	C	1.390988	-0.350162	0.000003
C36	C	1.392576	-0.290766	0.000045
N37	N	1.509648	-0.267364	0.000051
C38	C	1.625125	-0.303371	0.000057
C39	C	1.382854	-0.653160	-0.000002
C40	C	1.381258	-0.712568	0.000008
C41	C	1.613816	-0.725174	0.000021
C42	C	1.615410	-0.665765	0.000022
C43	C	1.499926	-0.629758	0.000005
C44	C	1.628461	-0.178612	0.000086
C45	C	1.630043	-0.119200	0.000105
C46	C	1.397486	-0.106599	0.000084
C47	C	1.395903	-0.166006	0.000072
C48	C	1.511401	-0.202012	0.000068
O49	O	1.294571	-0.254636	0.000084
O50	O	1.724833	-0.278003	0.000046
C51	C	1.738887	0.080912	0.000070
C52	C	1.880460	0.082616	0.000069
C53	C	1.495021	0.188191	0.000026
C54	C	1.496736	0.251419	0.000006
N55	N	1.505636	0.084122	0.362316
N56	N	1.505676	0.084101	-0.362198
C57	C	1.414538	0.124171	0.453501
C58	C	1.529652	0.135693	0.546683
C59	C	1.390572	0.072603	0.546689
C60	C	1.620808	0.095670	0.453446
C61	C	1.481652	0.032557	0.453444
C62	C	1.596850	0.044059	0.546584
H63	H	0.941317	0.033202	-0.211498
O64	O	1.322871	0.164641	0.404558
C65	C	1.276698	0.250004	0.266226
C66	C	1.380625	0.204201	0.321536
H67	H	1.323355	0.282007	0.199116
H68	H	1.204672	0.228711	0.200557
H69	H	1.225126	0.273226	0.358157
H70	H	1.432292	0.180964	0.229690
H71	H	1.452565	0.225527	0.387246
H72	H	1.070015	0.134984	0.211562
H73	H	1.293248	0.062870	0.587651
O74	O	1.553707	0.187702	0.595724
C75	C	1.477304	0.269991	0.734216
C76	C	1.449929	0.211093	0.678808
H77	H	1.393406	0.288926	0.801377
H78	H	1.568561	0.264983	0.799858
H79	H	1.490183	0.299687	0.642335
H80	H	1.436988	0.181366	0.770604
H81	H	1.358701	0.216145	0.613125
H82	H	0.941359	0.033215	0.211592
H83	H	1.710746	-0.646718	0.000038
O84	O	1.125527	-0.023579	-0.000300
C85	C	1.160127	-0.113710	-0.121541
C86	C	1.090990	-0.052490	-0.121304
H87	H	1.132210	-0.137106	-0.219347
H88	H	1.268296	-0.111934	-0.120641
H89	H	1.130990	-0.137427	-0.024740
H90	H	1.120022	-0.028738	-0.218089
H91	H	0.982836	-0.054308	-0.122131
H92	H	1.834344	-0.379743	0.000072
H93	H	1.303468	-0.077271	0.000084
H94	H	1.718153	0.105455	0.412660
H95	H	1.673989	0.010180	0.587197
O96	O	1.457154	-0.019415	0.404598
C97	C	1.308137	-0.090323	0.396675
C98	C	1.335724	-0.031451	0.452062
H99	H	1.209974	-0.100078	0.435051
H100	H	1.309209	-0.089943	0.277501
H101	H	1.384863	-0.124553	0.436551
H102	H	1.259028	0.002812	0.412290
H103	H	1.334698	-0.031879	0.571234
H104	H	1.069782	0.134970	-0.211745
H105	H	1.725387	-0.100152	0.000125
O106	O	0.886162	0.191891	0.000064
C107	C	0.853565	0.282403	0.119836
C108	C	0.922337	0.221115	0.119887
H109	H	0.882766	0.306044	0.216718
H110	H	0.881555	0.305828	0.022091
H111	H	0.745376	0.280694	0.120701
H112	H	1.030539	0.222771	0.119072
H113	H	0.894242	0.197714	0.217624
O114	O	1.740770	-0.213501	0.000149
C115	C	1.971601	-0.219719	0.000098
C116	C	1.844508	-0.180142	0.000048
H117	H	2.055506	-0.192764	-0.000013
H118	H	1.976757	-0.247842	0.097427
H119	H	1.976621	-0.247855	-0.097192
H120	H	1.839403	-0.151970	0.097272
H121	H	1.839405	-0.152058	-0.097345
H122	H	1.831454	-0.487507	0.000048
O123	O	1.158538	-0.455665	-0.000294
C124	C	0.959267	-0.463007	-0.120764
C125	C	1.088084	-0.437285	-0.120636
H126	H	0.902257	-0.448147	-0.218035
H127	H	0.977857	-0.511657	-0.120858
H128	H	0.902281	-0.448226	-0.023421
H129	H	1.145135	-0.452023	-0.217962
H130	H	1.069403	-0.388638	-0.120468
H131	H	1.707843	-0.754503	0.000020
O132	O	1.267495	-0.735266	-0.000245
C133	C	1.068213	-0.742619	-0.120684
C134	C	1.197021	-0.716890	-0.120576
H135	H	1.011186	-0.727762	-0.217946
H136	H	1.086817	-0.791269	-0.120781
H137	H	1.011237	-0.727841	-0.023332
H138	H	1.254062	-0.731623	-0.217911
H139	H	1.178326	-0.668243	-0.120406
H140	H	1.288807	-0.623845	-0.000004
H141	H	1.179865	-0.344246	-0.000033
H142	H	1.300568	-0.185058	0.000094
