data_functionalizedCrystal
_audit_creation_method	'MofGen! by Chris Wilmer'
_symmetry_space_group_name_H-M	'P1'
_symmetry_Int_Tables_number	1
_symmetry_cell_setting	triclinic
loop_
_symmetry_equiv_pos_as_xyz
  x,y,z
_cell_length_a	19.188930
_cell_length_b	10.540510
_cell_length_c	9.616153
_cell_angle_alpha	89.997559
_cell_angle_beta	89.988383
_cell_angle_gamma	83.829046
loop_
_atom_site_label
_atom_site_type_symbol
_atom_site_fract_x
_atom_site_fract_y
_atom_site_fract_z
O1	O	0.098294	1.683739	-0.115672
O2	O	0.107587	1.314116	-0.115674
O3	O	0.001355	1.509594	-0.115646
O4	O	0.204526	1.488261	-0.115700
O5	O	0.001348	1.509586	0.115646
O6	O	0.107579	1.314109	0.115617
O7	O	0.098287	1.683731	0.115620
Zn8	Zn	0.102932	1.498919	0.152341
Zn9	Zn	0.102942	1.498929	-0.152396
O10	O	0.204518	1.488253	0.115591
C11	C	0.106890	1.266824	-0.000029
C12	C	0.104819	1.125920	-0.000028
C13	C	0.178617	0.906838	-0.000580
C14	C	0.180827	1.053385	-0.000050
C15	C	0.065906	1.082013	0.132058
C16	C	0.064234	0.935289	0.132160
C17	C	0.062660	0.935526	-0.130861
C18	C	0.066265	1.081788	-0.132599
C19	C	-0.024664	1.508899	0.000004
C20	C	-0.102182	1.506826	0.000016
C21	C	-0.146348	1.621525	0.000023
C22	C	-0.219185	1.619577	0.000001
C23	C	-0.247852	1.502922	-0.000001
C24	C	-0.203676	1.388207	-0.000016
C25	C	-0.130841	1.390159	-0.000008
N26	N	-0.356449	1.413751	0.078711
N27	N	-0.425640	1.411905	0.078706
C28	C	-0.467300	1.497035	-0.000029
N29	N	-0.437157	1.584101	-0.078742
N30	N	-0.367960	1.585951	-0.078731
C31	C	-0.326829	1.500793	-0.000011
C32	C	-0.590444	1.609631	-0.000048
C33	C	-0.663282	1.607678	-0.000079
C34	C	-0.647772	1.376304	-0.000082
C35	C	-0.574936	1.378261	-0.000065
C36	C	-0.546277	1.494928	-0.000041
C37	C	0.230538	1.488948	-0.000062
C38	C	0.308056	1.491022	-0.000083
N39	N	0.102925	1.498921	0.360315
C40	C	0.098983	1.731023	-0.000029
C41	C	0.101055	1.871928	-0.000039
N42	N	0.102943	1.498936	-0.360370
C43	C	0.046294	1.603871	0.580657
C44	C	0.046078	1.603596	0.419490
C45	C	0.086361	1.366580	0.418850
C46	C	0.085964	1.367205	0.580068
C47	C	0.176317	1.525147	0.580170
C48	C	0.175837	1.528152	0.418942
H49	H	0.094578	1.109785	-0.230315
N50	N	0.219061	1.089335	-0.118788
N51	N	0.273138	1.144124	-0.102929
H52	H	0.300156	1.169495	-0.186780
N53	N	0.135707	1.266319	0.628997
N54	N	0.170602	1.195668	0.544074
H55	H	0.205727	1.124408	0.578624
H56	H	0.220015	1.456643	0.378656
H57	H	-0.699242	1.701084	-0.000080
N58	N	-0.529817	1.261095	-0.000082
N59	N	-0.532746	1.183425	-0.097583
H60	H	-0.500881	1.100671	-0.097601
N61	N	-0.003356	1.144849	-0.142568
N62	N	-0.054621	1.081034	-0.142898
H63	H	-0.103795	1.125569	-0.149925
H64	H	0.032433	1.344041	0.617700
H65	H	-0.227022	1.293226	-0.000021
H66	H	0.092924	1.112269	0.230341
N67	N	0.196099	1.643584	0.631166
N68	N	0.202695	1.660202	0.758991
H69	H	0.216662	1.743851	0.795012
N70	N	-0.008929	0.909314	-0.132003
N71	N	-0.048759	0.951614	-0.228020
H72	H	-0.099317	0.933095	-0.228820
H73	H	-0.255152	1.712983	0.000001
N74	N	0.215770	0.853407	-0.119421
N75	N	0.194592	0.883726	-0.239031
H76	H	0.220831	0.845984	-0.322969
H77	H	0.188391	1.625506	0.380684
H78	H	0.218482	1.448622	0.618313
N79	N	-0.085733	1.272978	-0.000023
N80	N	-0.111333	1.168827	-0.000038
H81	H	-0.079474	1.086065	-0.000048
N82	N	-0.117086	1.740704	0.000043
N83	N	-0.156535	1.843109	0.000046
H84	H	-0.135868	1.927281	0.000057
N85	N	-0.022237	1.582764	0.371153
N86	N	-0.069902	1.568370	0.456485
H87	H	-0.118160	1.553702	0.422349
N88	N	0.215553	0.851436	0.117551
N89	N	0.222252	0.733092	0.133787
H90	H	0.248337	0.693961	0.217219
N91	N	0.219292	1.088145	0.118850
N92	N	0.244581	1.004121	0.201709
H93	H	0.271769	1.028663	0.285665
H94	H	0.090821	0.894483	0.230882
H95	H	0.126493	1.286627	0.380521
N96	N	0.019965	1.336799	0.368226
N97	N	-0.015266	1.412821	0.289054
H98	H	-0.062161	1.391796	0.253300
N99	N	-0.007084	0.908023	0.139710
N100	N	-0.055464	0.997322	0.144896
H101	H	-0.105832	0.978072	0.150238
H102	H	-0.671112	1.281322	-0.000090
N103	N	0.058641	1.726991	0.369852
N104	N	0.067627	1.813918	0.454277
H105	H	0.076522	1.901061	0.419228
H106	H	-0.567109	1.704628	-0.000035
N107	N	0.058591	1.727716	0.629300
N108	N	0.012836	1.792509	0.699390
H109	H	0.021521	1.879977	0.733757
N110	N	-0.004284	1.143039	0.138236
N111	N	-0.015109	1.261994	0.144066
H112	H	-0.064680	1.305101	0.148424
N113	N	0.092803	0.881611	-0.256447
N114	N	0.142955	0.795646	-0.251053
H115	H	0.164251	0.757564	-0.339741
N116	N	-0.021608	1.583208	0.631512
N117	N	-0.028460	1.491535	0.710998
H118	H	-0.076416	1.476933	0.746913
