data_functionalizedCrystal
_audit_creation_method	'MofGen! by Chris Wilmer'
_symmetry_space_group_name_H-M	'P1'
_symmetry_Int_Tables_number	1
_symmetry_cell_setting	triclinic
loop_
_symmetry_equiv_pos_as_xyz
  x,y,z
_cell_length_a	17.077404
_cell_length_b	17.077402
_cell_length_c	17.077396
_cell_angle_alpha	90.027528
_cell_angle_beta	90.021444
_cell_angle_gamma	90.021740
loop_
_atom_site_label
_atom_site_type_symbol
_atom_site_fract_x
_atom_site_fract_y
_atom_site_fract_z
Zn1	Zn	1.200051	-0.312545	0.443889
Zn2	Zn	1.533385	0.020789	0.777222
Zn3	Zn	1.866718	0.354122	1.110555
Zn4	Zn	1.199957	-0.443820	0.312625
Zn5	Zn	1.533290	-0.110486	0.645958
Zn6	Zn	1.866624	0.222847	0.979291
Zn7	Zn	1.068783	-0.312568	0.312632
Zn8	Zn	1.402116	0.020765	0.645965
Zn9	Zn	1.735450	0.354099	0.979299
Zn10	Zn	1.068750	-0.443769	0.443844
Zn11	Zn	1.402083	-0.110435	0.777177
Zn12	Zn	1.735416	0.222898	1.110511
O13	O	1.134385	-0.378175	0.378247
O14	O	1.467719	-0.044842	0.711581
O15	O	1.801052	0.288491	1.044914
O16	O	1.309886	-0.329970	0.426492
O17	O	1.643219	0.003363	0.759825
O18	O	1.976552	0.336696	1.093158
O19	O	1.182531	-0.426440	0.202779
O20	O	1.515864	-0.093107	0.536112
O21	O	1.849198	0.240227	0.869445
O22	O	1.086250	-0.202718	0.330065
O23	O	1.419583	0.130615	0.663399
O24	O	1.752916	0.463949	0.996732
O25	O	1.309816	-0.426418	0.330053
O26	O	1.643150	-0.093084	0.663386
O27	O	1.976483	0.240249	0.996719
O28	O	1.182692	-0.202701	0.426499
O29	O	1.516025	0.130632	0.759832
O30	O	1.849358	0.463966	1.093166
O31	O	1.086158	-0.330010	0.202784
O32	O	1.419491	0.003324	0.536117
O33	O	1.752825	0.336657	0.869451
O34	O	0.958932	-0.329960	0.330022
O35	O	1.292265	0.003373	0.663355
O36	O	1.625598	0.336707	0.996689
O37	O	1.086193	-0.426330	0.553697
O38	O	1.419526	-0.092997	0.887030
O39	O	1.752859	0.240336	1.220363
O40	O	0.958907	-0.426353	0.426423
O41	O	1.292241	-0.093019	0.759756
O42	O	1.625574	0.240314	1.093089
O43	O	1.182659	-0.329921	0.553730
O44	O	1.515993	0.003412	0.887063
O45	O	1.849326	0.336746	1.220396
O46	O	1.182499	-0.553660	0.330009
O47	O	1.515832	-0.220326	0.663343
O48	O	1.849165	0.113007	0.996676
O49	O	1.086101	-0.553622	0.426416
O50	O	1.419435	-0.220289	0.759749
O51	O	1.752768	0.113044	1.093082
C52	C	0.930437	-0.378154	0.378219
C53	C	1.263771	-0.044821	0.711552
C54	C	1.597104	0.288513	1.044885
C55	C	0.843188	-0.378164	0.378225
C56	C	1.176521	-0.044830	0.711558
C57	C	1.509854	0.288503	1.044892
C58	C	1.134307	-0.582123	0.378224
C59	C	1.467641	-0.248790	0.711557
C60	C	1.800974	0.084544	1.044891
C61	C	1.134346	-0.669373	0.378240
C62	C	1.467679	-0.336040	0.711574
C63	C	1.801013	-0.002706	1.044907
C64	C	0.467406	-0.328067	0.428572
C65	C	0.800740	0.005266	0.761905
C66	C	1.134073	0.338600	1.095239
C67	C	0.549387	-0.328061	0.428563
C68	C	0.882720	0.005272	0.761897
C69	C	1.216054	0.338605	1.095230
C70	C	0.590339	-0.378192	0.378267
C71	C	0.923672	-0.044858	0.711600
C72	C	1.257005	0.288475	1.044934
C73	C	0.549306	-0.428337	0.327982
C74	C	0.882639	-0.095003	0.661315
C75	C	1.215973	0.238330	0.994649
C76	C	0.467327	-0.428346	0.327995
C77	C	0.800660	-0.095012	0.661328
C78	C	1.133994	0.238321	0.994662
C79	C	0.720176	-0.428313	0.327957
C80	C	1.053509	-0.094980	0.661290
C81	C	1.386843	0.238354	0.994623
C82	C	0.802161	-0.428303	0.327942
C83	C	1.135494	-0.094970	0.661275
C84	C	1.468827	0.238364	0.994609
C85	C	0.802236	-0.328029	0.428525
C86	C	1.135569	0.005305	0.761858
C87	C	1.468903	0.338638	1.095191
C88	C	0.720257	-0.328038	0.428538
C89	C	1.053590	0.005296	0.761871
C90	C	1.386924	0.338629	1.095205
C91	C	0.679230	-0.378182	0.378252
C92	C	1.012563	-0.044849	0.711585
C93	C	1.345896	0.288485	1.044918
C94	C	1.184536	-0.710287	0.428494
C95	C	1.517869	-0.376953	0.761827
C96	C	1.851203	-0.043620	1.095160
C97	C	1.184569	-0.792267	0.428510
C98	C	1.517902	-0.458934	0.761844
C99	C	1.851236	-0.125600	1.095177
C100	C	1.134415	-0.833332	0.378269
C101	C	1.467748	-0.499999	0.711602
C102	C	1.801082	-0.166666	1.044936
C103	C	1.084220	-0.792413	0.328014
C104	C	1.417553	-0.459079	0.661347
C105	C	1.750886	-0.125746	0.994680
C106	C	1.084183	-0.710434	0.328001
C107	C	1.417517	-0.377100	0.661335
C108	C	1.750850	-0.043767	0.994668
C109	C	1.084300	-0.963283	0.328041
C110	C	1.417634	-0.629949	0.661374
C111	C	1.750967	-0.296616	0.994708
C112	C	1.084337	-1.045267	0.328052
C113	C	1.417671	-0.711934	0.661385
C114	C	1.751004	-0.378601	0.994719
C115	C	1.184686	-1.045116	0.428550
C116	C	1.518019	-0.711783	0.761883
C117	C	1.851352	-0.378449	1.095217
C118	C	1.184649	-0.963137	0.428538
C119	C	1.517983	-0.629804	0.761871
C120	C	1.851316	-0.296470	1.095204
C121	C	1.134455	-0.922223	0.378281
C122	C	1.467788	-0.588890	0.711614
C123	C	1.801121	-0.255557	1.044948
C124	C	1.339130	-0.378197	0.378276
C125	C	1.672463	-0.044864	0.711610
C126	C	2.005796	0.288470	1.044943
C127	C	1.426379	-0.378206	0.378289
C128	C	1.759713	-0.044873	0.711622
C129	C	2.093046	0.288460	1.044956
C130	C	1.134433	-0.378117	0.582992
C131	C	1.467766	-0.044784	0.916325
C132	C	1.801099	0.288549	1.249658
C133	C	1.134453	-0.378093	0.670242
C134	C	1.467786	-0.044759	1.003575
C135	C	1.801120	0.288574	1.336908
C136	C	1.134485	-0.173431	0.378288
C137	C	1.467818	0.159902	0.711621
C138	C	1.801152	0.493236	1.044955
C139	C	1.134527	-0.086181	0.378305
C140	C	1.467861	0.247152	0.711639
C141	C	1.801194	0.580486	1.044972
C142	C	1.134383	-0.378176	0.174300
C143	C	1.467716	-0.044843	0.507633
C144	C	1.801050	0.288490	0.840966
C145	C	1.134515	-0.377980	0.087050
C146	C	1.467848	-0.044646	0.420383
C147	C	1.801182	0.288687	0.753717
C148	C	1.184685	-0.327888	0.711250
C149	C	1.518018	0.005445	1.044583
C150	C	1.851352	0.338779	1.377917
C151	C	1.184695	-0.327862	0.793231
C152	C	1.518028	0.005471	1.126564
C153	C	1.851361	0.338805	1.459897
C154	C	1.134475	-0.378045	0.834201
C155	C	1.467809	-0.044712	1.167534
C156	C	1.801142	0.288622	1.500868
C157	C	1.084238	-0.428252	0.793187
C158	C	1.417571	-0.094919	1.126520
C159	C	1.750904	0.238415	1.459853
C160	C	1.084225	-0.428273	0.711208
C161	C	1.417558	-0.094940	1.044541
C162	C	1.750892	0.238393	1.377874
C163	C	1.084269	-0.428205	0.964057
C164	C	1.417603	-0.094871	1.297390
C165	C	1.750936	0.238462	1.630724
C166	C	1.084283	-0.428184	1.046042
C167	C	1.417616	-0.094851	1.379375
C168	C	1.750950	0.238482	1.712708
C169	C	1.184739	-0.327793	1.046080
C170	C	1.518072	0.005540	1.379413
C171	C	1.851406	0.338873	1.712746
C172	C	1.184726	-0.327815	0.964101
C173	C	1.518059	0.005519	1.297434
C174	C	1.851393	0.338852	1.630767
C175	C	1.134489	-0.378023	0.923092
C176	C	1.467823	-0.044690	1.256425
C177	C	1.801156	0.288644	1.589759
H178	H	0.434069	-0.287240	0.469524
H179	H	0.767403	0.046093	0.802858
H180	H	1.100736	0.379426	1.136191
H181	H	0.433924	-0.469176	0.287051
H182	H	0.767257	-0.135843	0.620384
H183	H	1.100590	0.197491	0.953718
H184	H	1.225380	-0.676857	0.469402
H185	H	1.558714	-0.343524	0.802736
H186	H	1.892047	-0.010190	1.136069
H187	H	1.043495	-1.078700	0.287144
H188	H	1.376828	-0.745367	0.620478
H189	H	1.710161	-0.412034	0.953811
F190	F	1.030828	-0.481588	1.089644
F191	F	1.364161	-0.148255	1.422977
F192	F	1.697494	0.185079	1.756311
H193	H	0.582787	-0.287236	0.469511
H194	H	0.916121	0.046098	0.802845
H195	H	1.249454	0.379431	1.136178
H196	H	0.835501	-0.469126	0.286989
H197	H	1.168835	-0.135793	0.620322
H198	H	1.502168	0.197541	0.953655
F199	F	1.238109	-1.088660	0.482036
F200	F	1.571442	-0.755327	0.815369
F201	F	1.904776	-0.421994	1.148702
H202	H	1.225582	-0.287026	0.677898
H203	H	1.558915	0.046308	1.011231
H204	H	1.892249	0.379641	1.344564
F205	F	1.030835	-0.836119	0.274550
F206	F	1.364168	-0.502786	0.607883
F207	F	1.697502	-0.169453	0.941216
F208	F	1.238185	-0.274454	0.836871
F209	F	1.571519	0.058879	1.170205
F210	F	1.904852	0.392212	1.503538
H211	H	1.043423	-0.929973	0.287119
H212	H	1.376757	-0.596640	0.620452
H213	H	1.710090	-0.263307	0.953786
H214	H	1.043312	-0.677123	0.287081
H215	H	1.376646	-0.343789	0.620414
H216	H	1.709979	-0.010456	0.953748
H217	H	1.225445	-0.825576	0.469426
H218	H	1.558778	-0.492242	0.802759
H219	H	1.892111	-0.158909	1.136092
F220	F	0.592892	-0.481693	0.274456
F221	F	0.926226	-0.148360	0.607790
F222	F	1.259559	0.184974	0.941123
H223	H	1.043346	-0.469109	0.826551
H224	H	1.376679	-0.135776	1.159885
H225	H	1.710012	0.197558	1.493218
H226	H	1.225623	-0.286956	0.930745
H227	H	1.558957	0.046378	1.264078
H228	H	1.892290	0.379711	1.597411
H229	H	1.043313	-0.469147	0.677820
H230	H	1.376646	-0.135814	1.011153
H231	H	1.709980	0.197519	1.344486
F232	F	1.238033	-0.919434	0.482006
F233	F	1.571366	-0.586101	0.815339
F234	F	1.904699	-0.252767	1.148673
F235	F	0.676514	-0.481691	0.274444
F236	F	1.009847	-0.148357	0.607777
F237	F	1.343180	0.184976	0.941111
H238	H	1.225642	-0.286911	1.079473
H239	H	1.558976	0.046423	1.412806
H240	H	1.892309	0.379756	1.746140
F241	F	0.676674	-0.274680	0.482065
F242	F	1.010008	0.058653	0.815399
F243	F	1.343341	0.391987	1.148732
H244	H	1.043349	-0.469077	0.930670
H245	H	1.376682	-0.135744	1.264004
H246	H	1.710016	0.197590	1.597337
H247	H	0.835644	-0.287198	0.469469
H248	H	1.168977	0.046135	0.802802
H249	H	1.502311	0.379468	1.136135
