data_functionalizedCrystal
_audit_creation_method	'MofGen! by Chris Wilmer'
_symmetry_space_group_name_H-M	'P1'
_symmetry_Int_Tables_number	1
_symmetry_cell_setting	triclinic
loop_
_symmetry_equiv_pos_as_xyz
  x,y,z
_cell_length_a	8.497374
_cell_length_b	13.033808
_cell_length_c	13.032721
_cell_angle_alpha	103.361820
_cell_angle_beta	97.169095
_cell_angle_gamma	97.168694
loop_
_atom_site_label
_atom_site_type_symbol
_atom_site_fract_x
_atom_site_fract_y
_atom_site_fract_z
Zn1	Zn	0.632907	-1.569941	0.216484
Zn2	Zn	0.407474	-1.547310	0.394083
Zn3	Zn	0.407453	-1.392368	0.239060
Zn4	Zn	0.709529	-1.369719	0.416670
O5	O	0.539341	-1.469834	0.316574
O6	O	0.570944	-1.715575	0.221142
O7	O	0.186706	-1.526764	0.373514
O8	O	0.405284	-1.434874	0.087410
O9	O	0.405320	-1.698948	0.351623
O10	O	0.570924	-1.565335	0.070823
O11	O	0.186691	-1.412929	0.259620
O12	O	0.479582	-1.240727	0.281521
O13	O	0.920130	-1.396271	0.390119
O14	O	0.701516	-1.224087	0.412010
O15	O	0.863835	-1.543373	0.243044
O16	O	0.479618	-1.504802	0.545735
O17	O	0.701537	-1.374327	0.562329
C18	C	0.598863	-1.193867	0.351667
C19	C	0.624369	-1.075803	0.366706
C20	C	0.598922	-1.434680	0.592573
C21	C	0.624443	-1.419737	0.710634
C22	C	0.479587	-1.746879	0.281345
C23	C	0.454124	-1.864940	0.266332
C24	C	0.950823	-1.469826	0.316577
C25	C	1.129469	-1.469827	0.316588
C26	C	0.479554	-1.505155	0.039494
C27	C	0.454077	-1.520207	-0.078581
C28	C	0.552424	-0.909361	0.324286
C29	C	0.526056	-1.031386	0.308744
C30	C	0.526080	-1.477689	0.755017
C31	C	0.552455	-1.462247	0.877039
H32	H	0.656097	-0.857053	0.385414
H33	H	0.350440	-0.917246	0.205212
Br34	Br	0.353224	-1.118553	0.206868
Br35	Br	0.797367	-1.317993	0.797857
H36	H	0.728054	-1.023501	0.427836
Br37	Br	0.353180	-1.579453	0.667792
Br38	Br	0.281166	-1.621973	0.834200
H39	H	0.656206	-1.401200	0.929374
