data_functionalizedCrystal
_audit_creation_method	'MofGen! by Chris Wilmer'
_symmetry_space_group_name_H-M	'P1'
_symmetry_Int_Tables_number	1
_symmetry_cell_setting	triclinic
loop_
_symmetry_equiv_pos_as_xyz
  x,y,z
_cell_length_a	14.044220
_cell_length_b	10.723024
_cell_length_c	13.101018
_cell_angle_alpha	86.607993
_cell_angle_beta	86.331207
_cell_angle_gamma	91.171627
loop_
_atom_site_label
_atom_site_type_symbol
_atom_site_fract_x
_atom_site_fract_y
_atom_site_fract_z
O1	O	1.264843	-0.294748	-0.085208
O2	O	1.764843	0.205252	0.414792
O3	O	0.988804	-0.283884	-0.085210
O4	O	1.488804	0.216116	0.414790
O5	O	1.133190	-0.108377	-0.085205
O6	O	1.633190	0.391623	0.414795
O7	O	1.120456	-0.470255	-0.085213
O8	O	1.620456	0.029745	0.414787
O9	O	1.122819	-0.120980	0.085225
O10	O	1.622819	0.379020	0.585225
O11	O	0.978432	-0.296487	0.085220
O12	O	1.478432	0.203513	0.585220
O13	O	1.254472	-0.307351	0.085222
O14	O	1.754472	0.192649	0.585222
Zn15	Zn	1.114805	-0.303920	0.112280
Zn16	Zn	1.614805	0.196080	0.612280
Zn17	Zn	1.128470	-0.287315	-0.112269
Zn18	Zn	1.628470	0.212685	0.387731
O19	O	1.110085	-0.482858	0.085217
O20	O	1.610085	0.017142	0.585217
C21	C	0.948273	-0.285430	0.000004
C22	C	1.448273	0.214570	0.500004
C23	C	0.842955	-0.271246	0.000003
C24	C	1.342955	0.228754	0.500003
C25	C	1.295003	-0.305805	0.000005
C26	C	1.795003	0.194195	0.500005
C27	C	1.400321	-0.319989	-0.000000
C28	C	1.900321	0.180011	0.500000
C29	C	1.127078	-0.068086	0.000009
C30	C	1.627078	0.431914	0.500009
C31	C	1.124306	0.070746	0.000005
C32	C	1.624306	0.570746	0.500005
C33	C	1.593151	-0.345921	0.000000
C34	C	2.093151	0.154079	0.500000
C35	C	1.650130	-0.245319	0.000003
C36	C	2.150130	0.254681	0.500003
C37	C	1.757427	-0.259748	0.000003
C38	C	2.257427	0.240252	0.500003
C39	C	1.485844	-0.331494	-0.000000
C40	C	1.985844	0.168506	0.500000
C41	C	1.116197	-0.523149	0.000001
C42	C	1.616197	-0.023149	0.500001
C43	C	1.118970	-0.661980	-0.000002
C44	C	1.618970	-0.161980	0.499998
N45	N	1.105486	-0.315253	0.265529
N46	N	1.605486	0.184747	0.765529
C47	C	1.205097	0.137646	0.000004
C48	C	1.705097	0.637646	0.500004
C49	C	1.202234	0.281136	0.000001
C50	C	1.702234	0.781136	0.500001
N51	N	1.137797	-0.275973	-0.265517
N52	N	1.637797	0.224027	0.234483
C53	C	1.150471	-0.260549	0.525440
C54	C	1.650471	0.239451	1.025440
C55	C	1.092815	-0.330673	0.474565
C56	C	1.592815	0.169327	0.974565
C57	C	1.099867	-0.322091	0.358247
C58	C	1.599867	0.177909	0.858247
C59	C	1.143420	-0.269130	0.641769
C60	C	1.643420	0.230870	1.141769
H61	H	1.624951	-0.442877	-0.000003
H62	H	2.124951	0.057123	0.499997
N63	N	1.027347	0.261855	-0.000010
N64	N	1.527347	0.761855	0.499990
H65	H	0.971388	0.319538	-0.000014
H66	H	1.471388	0.819538	0.499986
H67	H	1.020873	0.202833	0.063172
H68	H	1.520873	0.702833	0.563172
H69	H	1.276385	0.088691	0.000011
H70	H	1.776385	0.588691	0.500011
N71	N	1.020415	-0.418736	0.532576
N72	N	1.520415	0.081264	1.032576
H73	H	1.025575	-0.412467	0.608652
H74	H	1.525575	0.087533	1.108652
H75	H	1.033109	-0.507181	0.513884
H76	H	1.533109	-0.007181	1.013884
H77	H	1.618333	-0.148349	-0.000070
H78	H	2.118333	0.351651	0.499930
H79	H	1.053017	0.119701	-0.000002
H80	H	1.553017	0.619701	0.499998
N81	N	1.293855	0.357303	0.000011
N82	N	1.793855	0.857303	0.500011
H83	H	1.278822	0.449010	0.000011
H84	H	1.778822	0.949010	0.500011
H85	H	1.335872	0.341537	-0.063167
H86	H	1.835872	0.841537	0.436833
H87	H	1.205124	-0.194075	0.481642
H88	H	1.705124	0.305925	0.981642
