data_functionalizedCrystal
_audit_creation_method	'MofGen! by Chris Wilmer'
_symmetry_space_group_name_H-M	'P1'
_symmetry_Int_Tables_number	1
_symmetry_cell_setting	triclinic
loop_
_symmetry_equiv_pos_as_xyz
  x,y,z
_cell_length_a	12.759401
_cell_length_b	25.639239
_cell_length_c	25.639234
_cell_angle_alpha	90.024584
_cell_angle_beta	90.015038
_cell_angle_gamma	90.038847
loop_
_atom_site_label
_atom_site_type_symbol
_atom_site_fract_x
_atom_site_fract_y
_atom_site_fract_z
Zn1	Zn	1.606044	-0.208182	0.295575
Zn2	Zn	2.106044	0.291818	0.795575
Zn3	Zn	1.605876	-0.295610	0.208140
Zn4	Zn	2.105876	0.204390	0.708140
Zn5	Zn	1.430357	-0.208190	0.208158
Zn6	Zn	1.930357	0.291810	0.708158
Zn7	Zn	1.430261	-0.295589	0.295548
Zn8	Zn	1.930261	0.204411	0.795548
O9	O	1.518135	-0.251893	0.251855
O10	O	2.018135	0.248107	0.751855
O11	O	1.753043	-0.219785	0.283981
O12	O	2.253043	0.280215	0.783981
O13	O	1.582562	-0.284026	0.134977
O14	O	2.082562	0.215974	0.634977
O15	O	1.453773	-0.135024	0.219773
O16	O	1.953773	0.364976	0.719773
O17	O	1.752919	-0.284018	0.219742
O18	O	2.252919	0.215982	0.719742
O19	O	1.582850	-0.135018	0.283998
O20	O	2.082850	0.364982	0.783998
O21	O	1.453609	-0.219799	0.134990
O22	O	1.953609	0.280201	0.634990
O23	O	1.283323	-0.219779	0.219746
O24	O	1.783323	0.280221	0.719746
O25	O	1.453610	-0.283982	0.368717
O26	O	1.953610	0.216018	0.868717
O27	O	1.283253	-0.283990	0.283951
O28	O	1.783253	0.216010	0.783951
O29	O	1.582757	-0.219764	0.368737
O30	O	2.082757	0.280236	0.868737
O31	O	1.582470	-0.368772	0.219716
O32	O	2.082470	0.131228	0.719716
O33	O	1.453447	-0.368757	0.283934
O34	O	1.953447	0.131243	0.783934
C35	C	1.245167	-0.251883	0.251848
C36	C	1.745167	0.248117	0.751848
C37	C	1.128391	-0.251892	0.251858
C38	C	1.628391	0.248108	0.751858
C39	C	1.073520	-0.285380	0.285234
C40	C	1.573520	0.214620	0.785234
C41	C	0.963795	-0.285386	0.285240
C42	C	1.463795	0.214614	0.785240
C43	C	0.963823	-0.218415	0.218488
C44	C	1.463823	0.281585	0.718488
C45	C	1.073545	-0.218406	0.218485
C46	C	1.573545	0.281594	0.718485
C47	C	1.073503	-0.324047	0.323771
C48	C	1.573503	0.175953	0.823771
C49	C	0.963779	-0.324053	0.323776
C50	C	1.463779	0.175947	0.823776
C51	C	1.517958	-0.387735	0.251831
C52	C	2.017958	0.112265	0.751831
C53	C	1.517978	-0.445849	0.251839
C54	C	2.017978	0.054151	0.751839
C55	C	1.585492	-0.806208	0.218474
C56	C	2.085492	-0.306208	0.718474
C57	C	1.585533	-0.860812	0.218481
C58	C	2.085533	-0.360812	0.718481
O59	O	1.642752	-0.889045	0.190086
O60	O	2.142752	-0.389045	0.690086
N61	N	1.518319	-0.888132	0.251890
N62	N	2.018319	-0.388132	0.751890
C63	C	1.451068	-0.860844	0.285298
C64	C	1.951068	-0.360844	0.785298
O65	O	1.393902	-0.889095	0.313716
O66	O	1.893902	-0.389095	0.813716
C67	C	1.451033	-0.806241	0.285293
C68	C	1.951033	-0.306241	0.785293
C69	C	1.518244	-0.778924	0.251878
C70	C	2.018244	-0.278924	0.751878
C71	C	1.652698	-0.778891	0.185062
C72	C	2.152698	-0.278891	0.685062
C73	C	1.652656	-0.724291	0.185054
C74	C	2.152656	-0.224291	0.685054
C75	C	1.585407	-0.697007	0.218459
C76	C	2.085407	-0.197007	0.718459
C77	C	1.518202	-0.724324	0.251871
C78	C	2.018202	-0.224324	0.751871
C79	C	1.383788	-0.778954	0.318704
C80	C	1.883788	-0.278954	0.818704
C81	C	1.383760	-0.724347	0.318696
C82	C	1.883760	-0.224347	0.818696
C83	C	1.450970	-0.697030	0.285281
C84	C	1.950970	-0.197030	0.785281
C85	C	1.450911	-0.642439	0.285268
C86	C	1.950911	-0.142439	0.785268
N87	N	1.518125	-0.615120	0.251858
N88	N	2.018125	-0.115120	0.751858
C89	C	1.585373	-0.642403	0.218454
C90	C	2.085373	-0.142403	0.718454
C91	C	1.451147	-0.975515	0.285306
C92	C	1.951147	-0.475515	0.785306
C93	C	1.451176	-1.030117	0.285309
C94	C	1.951176	-0.530117	0.785309
C95	C	1.585642	-1.030081	0.218492
C96	C	2.085642	-0.530081	0.718492
C97	C	1.585608	-0.975478	0.218487
C98	C	2.085608	-0.475478	0.718487
C99	C	1.518361	-0.948195	0.251897
C100	C	2.018361	-0.448195	0.751897
C101	C	1.585278	-0.527738	0.218440
C102	C	2.085278	-0.027738	0.718440
C103	C	1.585227	-0.473133	0.218434
C104	C	2.085227	0.026867	0.718434
C105	C	1.450765	-0.473174	0.285253
C106	C	1.950765	0.026826	0.785253
C107	C	1.450812	-0.527774	0.285257
C108	C	1.950812	-0.027774	0.785257
C109	C	1.518077	-0.555055	0.251849
C110	C	2.018077	-0.055055	0.751849
O111	O	1.393724	-0.614172	0.313649
O112	O	1.893724	-0.114172	0.813649
O113	O	1.642539	-0.614145	0.190045
O114	O	2.142539	-0.114145	0.690045
C115	C	1.792168	-0.251903	0.251863
C116	C	2.292168	0.248097	0.751863
C117	C	1.908944	-0.251907	0.251866
C118	C	2.408944	0.248093	0.751866
C119	C	1.518192	-0.251870	0.388228
C120	C	2.018192	0.248130	0.888228
C121	C	1.518216	-0.251860	0.446342
C122	C	2.018216	0.248140	0.946342
C123	C	1.518341	-0.115520	0.251891
C124	C	2.018341	0.384480	0.751891
C125	C	1.518428	-0.057406	0.251906
C126	C	2.018428	0.442594	0.751906
C127	C	1.518138	-0.251878	0.116013
C128	C	2.018138	0.248122	0.616013
C129	C	1.518318	-0.251740	0.057899
C130	C	2.018318	0.248260	0.557899
C131	C	1.585389	-0.285260	0.697521
C132	C	2.085389	0.214740	1.197521
C133	C	1.585378	-0.285271	0.642917
C134	C	2.085378	0.214729	1.142917
O135	O	1.642443	-0.313726	0.614668
O136	O	2.142443	0.186274	1.114668
N137	N	1.518239	-0.251834	0.615616
N138	N	2.018239	0.248166	1.115616
C139	C	1.451098	-0.218389	0.642923
C140	C	1.951098	0.281611	1.142923
O141	O	1.393989	-0.189950	0.614687
O142	O	1.893989	0.310050	1.114687
C143	C	1.451105	-0.218381	0.697526
C144	C	1.951105	0.281619	1.197526
C145	C	1.518256	-0.251816	0.724824
C146	C	2.018256	0.248184	1.224824
C147	C	1.652534	-0.318692	0.724820
C148	C	2.152534	0.181308	1.224820
C149	C	1.652547	-0.318680	0.779420
C150	C	2.152547	0.181320	1.279420
C151	C	1.585414	-0.285236	0.806723
C152	C	2.085414	0.214764	1.306723
C153	C	1.518268	-0.251804	0.779425
C154	C	2.018268	0.248196	1.279425
C155	C	1.383960	-0.184939	0.724831
C156	C	1.883960	0.315061	1.224831
C157	C	1.383972	-0.184934	0.779438
C158	C	1.883972	0.315066	1.279438
C159	C	1.451123	-0.218368	0.806736
C160	C	1.951123	0.281632	1.306736
C161	C	1.451148	-0.218348	0.861328
C162	C	1.951148	0.281652	1.361328
N163	N	1.518287	-0.251784	0.888628
N164	N	2.018287	0.248216	1.388628
C165	C	1.585420	-0.285228	0.861326
C166	C	2.085420	0.214772	1.361326
C167	C	1.451088	-0.218409	0.528252
C168	C	1.951088	0.281591	1.028252
C169	C	1.451086	-0.218414	0.473650
C170	C	1.951086	0.281586	0.973650
C171	C	1.585365	-0.285296	0.473648
C172	C	2.085365	0.214704	0.973648
C173	C	1.585372	-0.285288	0.528251
C174	C	2.085372	0.214712	1.028251
C175	C	1.518228	-0.251845	0.555553
C176	C	2.018228	0.248155	1.055553
C177	C	1.585441	-0.285201	0.975991
C178	C	2.085441	0.214799	1.475991
C179	C	1.585451	-0.285184	1.030596
C180	C	2.085451	0.214816	1.530596
C181	C	1.451168	-0.218304	1.030593
C182	C	1.951168	0.281696	1.530593
C183	C	1.451163	-0.218318	0.975993
C184	C	1.951163	0.281682	1.475993
C185	C	1.518303	-0.251771	0.948693
C186	C	2.018303	0.248229	1.448693
O187	O	1.394109	-0.189909	0.889611
O188	O	1.894109	0.310091	1.389611
O189	O	1.642510	-0.313667	0.889568
O190	O	2.142510	0.186333	1.389568
H191	H	0.929788	-0.309608	0.362272
H192	H	1.429788	0.190392	0.862272
F193	F	1.656899	-0.320805	0.946944
F194	F	2.156899	0.179195	1.446944
H195	H	1.707225	-0.345908	0.801641
H196	H	2.207225	0.154092	1.301641
F197	F	0.924786	-0.376960	0.309492
F198	F	1.424786	0.123040	0.809492
F199	F	1.117927	-0.374306	0.304757
F200	F	1.617927	0.125694	0.804757
F201	F	1.379260	-0.556848	0.320811
F202	F	1.879260	-0.056848	0.820811
F203	F	1.657213	-1.059128	0.182939
F204	F	2.157213	-0.559128	0.682939
F205	F	1.657142	-0.946410	0.182923
F206	F	2.157142	-0.446410	0.682923
H207	H	1.329001	-0.702136	0.345904
H208	H	1.829001	-0.202136	0.845904
F209	F	1.656842	-0.320874	0.557299
F210	F	2.156842	0.179126	1.057299
H211	H	1.707204	-0.345928	0.702596
H212	H	2.207204	0.154072	1.202596
H213	H	1.640027	-0.312529	0.451408
H214	H	2.140027	0.187471	0.951408
F215	F	1.112475	-0.309945	0.376723
F216	F	1.612475	0.190055	0.876723
H217	H	1.396436	-1.052354	0.312514
H218	H	1.896436	-0.552354	0.812514
H219	H	1.707387	-0.702052	0.157846
H220	H	2.207387	-0.202052	0.657846
H221	H	0.919155	-0.191152	0.191318
H222	H	1.419155	0.308848	0.691318
F223	F	1.724281	-0.807920	0.149506
F224	F	2.224281	-0.307920	0.649506
H225	H	1.639957	-0.450893	0.191222
H226	H	2.139957	0.049107	0.691222
F227	F	1.656869	-0.556765	0.182884
F228	F	2.156869	-0.056765	0.682884
F229	F	1.131940	-0.182756	0.182970
F230	F	1.631940	0.317244	0.682970
H231	H	1.396008	-0.450951	0.312449
H232	H	1.896008	0.049049	0.812449
H233	H	1.396417	-0.191182	0.451428
H234	H	1.896417	0.308818	0.951428
H235	H	1.396378	-0.953304	0.312511
H236	H	1.896378	-0.453304	0.812511
F237	F	1.379623	-0.182810	0.557304
F238	F	1.879623	0.317190	1.057304
F239	F	1.312261	-0.808015	0.354274
F240	F	1.812261	-0.308015	0.854274
H241	H	1.396513	-0.191074	1.052833
H242	H	1.896513	0.308926	1.552833
H243	H	1.640138	-0.312411	1.052820
H244	H	2.140138	0.187589	1.552820
F245	F	1.312486	-0.149353	0.695791
F246	F	1.812486	0.350647	1.195791
H247	H	1.329294	-0.157700	0.801665
H248	H	1.829294	0.342300	1.301665
H249	H	1.396496	-0.191086	0.953766
H250	H	1.896496	0.308914	1.453766
