data_functionalizedCrystal
_audit_creation_method	'MofGen! by Chris Wilmer'
_symmetry_space_group_name_H-M	'P1'
_symmetry_Int_Tables_number	1
_symmetry_cell_setting	triclinic
loop_
_symmetry_equiv_pos_as_xyz
  x,y,z
_cell_length_a	12.759401
_cell_length_b	12.594516
_cell_length_c	12.759393
_cell_angle_alpha	89.969719
_cell_angle_beta	89.980789
_cell_angle_gamma	90.012242
loop_
_atom_site_label
_atom_site_type_symbol
_atom_site_fract_x
_atom_site_fract_y
_atom_site_fract_z
Zn1	Zn	1.606283	-0.423673	-0.593990
Zn2	Zn	1.606184	-0.601690	-0.418313
Zn3	Zn	1.430583	-0.423728	-0.418329
Zn4	Zn	1.430582	-0.601611	-0.593954
O5	O	1.518408	-0.512675	-0.506147
O6	O	1.753291	-0.447297	-0.570695
O7	O	1.582849	-0.578139	-0.271294
O8	O	1.453931	-0.274775	-0.441653
O9	O	1.753218	-0.578086	-0.441625
O10	O	1.583017	-0.274734	-0.570711
O11	O	1.453836	-0.447391	-0.271306
O12	O	1.283562	-0.447314	-0.441618
O13	O	1.453930	-0.577951	-0.740980
O14	O	1.283561	-0.578004	-0.570649
O15	O	1.583017	-0.447220	-0.741007
O16	O	1.582848	-0.750626	-0.441590
O17	O	1.453834	-0.750567	-0.570633
C18	C	1.245440	-0.512657	-0.506132
C19	C	1.128664	-0.512675	-0.506150
C20	C	1.073840	-0.444696	-0.573460
C21	C	0.964116	-0.444707	-0.573467
C22	C	0.964049	-0.580684	-0.438851
C23	C	1.073771	-0.580667	-0.438840
C24	C	1.518359	-0.789216	-0.506128
C25	C	1.518434	-0.907522	-0.506156
C26	C	1.588687	-0.976768	-0.436044
C27	C	1.614363	-1.047460	-0.531937
C28	C	1.492889	-1.047628	-0.410324
C29	C	1.544160	-0.976656	-0.602098
C30	C	1.422642	-0.976818	-0.480421
C31	C	1.448282	-1.047478	-0.576380
C32	C	1.792441	-0.512695	-0.506162
C33	C	1.909218	-0.512703	-0.506169
C34	C	1.518484	-0.512570	-0.780180
C35	C	1.518517	-0.512526	-0.896957
C36	C	1.518485	-0.235055	-0.506188
C37	C	1.518518	-0.116749	-0.506206
C38	C	1.585759	-0.444403	-1.061566
C39	C	1.585739	-0.444445	-0.951841
C40	C	1.451318	-0.580578	-0.951802
C41	C	1.451344	-0.580541	-1.061524
C42	C	1.518392	-0.512703	-0.233179
C43	C	1.518563	-0.512448	-0.116403
H44	H	0.919342	-0.636043	-0.384050
H45	H	1.118531	-0.389329	-0.628266
H46	H	0.919484	-0.389350	-0.628276
C47	C	1.573182	-0.935067	-0.710134
C48	C	1.572868	-0.823907	-0.708828
C49	C	1.599615	-0.785557	-0.808324
H50	H	1.523663	-0.959729	-0.760085
H51	H	1.641075	-0.959783	-0.728554
H52	H	1.504985	-0.799201	-0.690421
H53	H	1.622388	-0.799216	-0.658899
H54	H	1.667507	-0.810273	-0.826744
H55	H	1.550093	-0.810226	-0.858267
H56	H	1.599414	-0.710132	-0.807448
C57	C	1.133113	-0.654595	-0.365716
C58	C	1.061558	-0.714170	-0.306797
C59	C	1.116186	-0.782286	-0.239436
H60	H	1.175901	-0.613933	-0.319913
H61	H	1.175909	-0.701069	-0.405800
H62	H	1.018781	-0.667702	-0.266716
H63	H	1.018768	-0.754854	-0.352572
H64	H	1.158982	-0.828760	-0.279520
H65	H	1.158972	-0.741615	-0.193640
H66	H	1.067645	-0.822723	-0.199458
H67	H	1.648106	-0.945719	-0.376807
H68	H	1.695409	-1.078493	-0.553731
H69	H	1.471248	-1.078802	-0.329260
H70	H	1.388908	-1.078330	-0.635761
C71	C	1.378173	-0.654454	-0.892361
C72	C	1.274234	-0.631296	-0.919066
C73	C	1.206826	-0.699346	-0.864349
H74	H	1.387631	-0.644811	-0.819142
H75	H	1.393486	-0.725976	-0.910365
H76	H	1.258927	-0.559792	-0.901055
H77	H	1.264743	-0.640946	-0.992276
H78	H	1.222138	-0.770867	-0.882353
H79	H	1.216293	-0.689697	-0.791132
H80	H	1.136296	-0.683649	-0.882467
H81	H	1.396625	-0.635957	-1.106174
H82	H	1.341619	-0.945762	-0.458598
H83	H	1.640492	-0.388957	-1.106245
C84	C	1.658732	-0.370447	-0.892493
C85	C	1.717582	-0.310792	-0.964043
C86	C	1.784828	-0.242603	-0.909411
H87	H	1.704584	-0.411060	-0.849685
H88	H	1.618568	-0.324027	-0.849716
H89	H	1.757743	-0.357207	-1.006802
H90	H	1.671758	-0.270158	-1.006853
H91	H	1.744665	-0.196183	-0.866634
H92	H	1.830673	-0.283225	-0.866605
H93	H	1.824759	-0.202113	-0.957948
