data_functionalizedCrystal
_audit_creation_method	'MofGen! by Chris Wilmer'
_symmetry_space_group_name_H-M	'P1'
_symmetry_Int_Tables_number	1
_symmetry_cell_setting	triclinic
loop_
_symmetry_equiv_pos_as_xyz
  x,y,z
_cell_length_a	12.759401
_cell_length_b	12.827892
_cell_length_c	12.759393
_cell_angle_alpha	90.030856
_cell_angle_beta	90.018567
_cell_angle_gamma	90.014436
loop_
_atom_site_label
_atom_site_type_symbol
_atom_site_fract_x
_atom_site_fract_y
_atom_site_fract_z
Zn1	Zn	1.606250	-0.415998	0.593988
Zn2	Zn	1.606143	-0.590779	0.418311
Zn3	Zn	1.430552	-0.416049	0.418328
Zn4	Zn	1.430539	-0.590695	0.593952
O5	O	1.518371	-0.503380	0.506145
O6	O	1.753257	-0.439197	0.570693
O7	O	1.582811	-0.567657	0.271292
O8	O	1.453910	-0.269807	0.441652
O9	O	1.753178	-0.567607	0.441623
O10	O	1.582994	-0.269769	0.570709
O11	O	1.453805	-0.439284	0.271304
O12	O	1.283530	-0.439203	0.441616
O13	O	1.453887	-0.567464	0.740978
O14	O	1.283520	-0.567514	0.570647
O15	O	1.582981	-0.439115	0.741005
O16	O	1.582798	-0.737004	0.441588
O17	O	1.453782	-0.736942	0.570631
C18	C	1.245404	-0.503356	0.506130
C19	C	1.128627	-0.503370	0.506149
C20	C	1.073799	-0.436633	0.573460
C21	C	0.964075	-0.436653	0.573466
C22	C	0.964016	-0.570157	0.438848
C23	C	1.073738	-0.570131	0.438837
C24	C	1.073832	-0.359559	0.651183
C25	C	0.964108	-0.359579	0.651190
C26	C	1.518305	-0.774890	0.506126
C27	C	1.518373	-0.891043	0.506153
C28	C	1.582290	-0.942824	0.442370
C29	C	1.582362	-1.062874	0.442396
C30	C	1.792404	-0.503406	0.506160
C31	C	1.909181	-0.503416	0.506167
C32	C	1.518445	-0.503275	0.780178
C33	C	1.518476	-0.503230	0.896955
C34	C	1.518466	-0.230810	0.506186
C35	C	1.518506	-0.114657	0.506204
C36	C	1.518358	-0.503410	0.233177
C37	C	1.518530	-0.503160	0.116401
C38	C	1.585705	-0.436392	0.951833
C39	C	1.585730	-0.436354	1.061557
C40	C	1.451294	-0.570001	1.061516
C41	C	1.451265	-0.570033	0.951794
C42	C	1.663323	-0.359235	0.951857
C43	C	1.663348	-0.359198	1.061581
H44	H	1.103600	-0.278591	0.629529
H45	H	1.463777	-1.070135	0.560811
C46	C	0.918505	-0.257091	0.612589
C47	C	0.808931	-0.262597	0.614680
C48	C	0.766884	-0.168200	0.579153
H49	H	0.941424	-0.201975	0.656751
H50	H	0.941380	-0.244450	0.542892
H51	H	0.786066	-0.275226	0.684365
H52	H	0.785983	-0.317694	0.570515
H53	H	0.789759	-0.155558	0.509456
H54	H	0.789811	-0.113090	0.623319
H55	H	0.692534	-0.171926	0.580558
C56	C	1.445435	-0.950240	0.579113
C57	C	1.386472	-0.879203	0.637971
C58	C	1.319279	-0.933694	0.705205
H59	H	1.399652	-0.992894	0.538973
H60	H	1.485642	-0.992726	0.624953
H61	H	1.346267	-0.836735	0.592137
H62	H	1.432227	-0.836547	0.678133
H63	H	1.359486	-0.976180	0.751045
H64	H	1.273503	-0.976346	0.665057
H65	H	1.279271	-0.885504	0.745155
H66	H	1.396517	-0.624455	0.907116
H67	H	1.641556	-0.278305	0.922100
C68	C	1.378446	-0.642494	1.121247
C69	C	1.392876	-0.628179	1.229084
C70	C	1.325798	-0.694954	1.284138
H71	H	1.307814	-0.627266	1.103390
H72	H	1.393805	-0.712737	1.103311
H73	H	1.377510	-0.557952	1.247013
H74	H	1.463495	-0.643414	1.246972
H75	H	1.341156	-0.765198	1.266202
H76	H	1.255169	-0.679721	1.266272
H77	H	1.335586	-0.685258	1.357310
H78	H	1.637080	-1.107404	0.387786
C79	C	0.924641	-0.388491	0.759747
C80	C	1.010193	-0.406188	0.826133
C81	C	0.973877	-0.432743	0.926159
H82	H	0.883374	-0.333090	0.786889
H83	H	0.883251	-0.449919	0.755423
H84	H	1.051566	-0.344767	0.830460
H85	H	1.051469	-0.461593	0.799024
H86	H	0.932487	-0.494172	0.921835
H87	H	0.932610	-0.377339	0.953292
H88	H	1.031918	-0.444763	0.971212
H89	H	0.919313	-0.624511	0.384046
H90	H	1.636963	-0.898281	0.387746
H91	H	1.740595	-0.388250	0.917822
C92	C	1.624568	-0.256568	1.106789
C93	C	1.598840	-0.188617	1.024893
C94	C	1.563124	-0.094065	1.066500
H95	H	1.564279	-0.268818	1.148670
H96	H	1.678095	-0.226261	1.148674
H97	H	1.545318	-0.218918	0.983026
H98	H	1.659113	-0.176337	0.983005
H99	H	1.616651	-0.063759	1.108385
H100	H	1.502838	-0.106326	1.108380
H101	H	1.545673	-0.047946	1.010941
C102	C	1.771747	-0.388240	1.101453
C103	C	1.764909	-0.478727	1.162384
C104	C	1.864737	-0.505498	1.199146
H105	H	1.817031	-0.400393	1.043651
H106	H	1.798813	-0.332866	1.142881
H107	H	1.737857	-0.534089	1.120958
H108	H	1.719644	-0.466598	1.220202
H109	H	1.891803	-0.450124	1.240574
H110	H	1.910013	-0.517646	1.141338
H111	H	1.860109	-0.566890	1.240500
C112	C	1.133077	-0.642693	0.365706
C113	C	1.061520	-0.701179	0.306783
C114	C	1.116145	-0.768045	0.239409
H115	H	1.175863	-0.602763	0.319906
H116	H	1.175875	-0.688324	0.405781
H117	H	1.018740	-0.655554	0.266710
H118	H	1.018732	-0.741131	0.352555
H119	H	1.158943	-0.813677	0.279484
H120	H	1.158929	-0.728106	0.193616
H121	H	1.067602	-0.807743	0.199428
H122	H	1.107897	-0.388635	0.728422
