data_functionalizedCrystal
_audit_creation_method	'MofGen! by Chris Wilmer'
_symmetry_space_group_name_H-M	'P1'
_symmetry_Int_Tables_number	1
_symmetry_cell_setting	triclinic
loop_
_symmetry_equiv_pos_as_xyz
  x,y,z
_cell_length_a	16.959455
_cell_length_b	16.625545
_cell_length_c	16.959447
_cell_angle_alpha	90.029927
_cell_angle_beta	90.016723
_cell_angle_gamma	90.024506
loop_
_atom_site_label
_atom_site_type_symbol
_atom_site_fract_x
_atom_site_fract_y
_atom_site_fract_z
Zn1	Zn	1.208354	-0.321008	0.446961
Zn2	Zn	1.708354	0.178992	0.946961
Zn3	Zn	1.208264	-0.455856	0.314784
Zn4	Zn	1.708264	0.044144	0.814784
Zn5	Zn	1.076182	-0.321038	0.314793
Zn6	Zn	1.576182	0.178962	0.814793
Zn7	Zn	1.076134	-0.455800	0.446917
Zn8	Zn	1.576134	0.044200	0.946917
O9	O	1.142233	-0.388426	0.380864
O10	O	1.642233	0.111574	0.880864
O11	O	1.318953	-0.338907	0.429442
O12	O	1.818953	0.161093	0.929442
O13	O	1.190725	-0.438008	0.204174
O14	O	1.690725	0.061992	0.704174
O15	O	1.093773	-0.208202	0.332349
O16	O	1.593773	0.291798	0.832349
O17	O	1.318886	-0.437979	0.332332
O18	O	1.818886	0.062021	0.832332
O19	O	1.190879	-0.208180	0.429452
O20	O	1.690879	0.291820	0.929452
O21	O	1.093685	-0.338958	0.204181
O22	O	1.593685	0.161042	0.704181
O23	O	0.965565	-0.338904	0.332305
O24	O	1.465565	0.161096	0.832305
O25	O	1.093691	-0.437884	0.557534
O26	O	1.593691	0.062116	1.057534
O27	O	0.965530	-0.437913	0.429376
O28	O	1.465530	0.062087	0.929376
O29	O	1.190832	-0.338853	0.557567
O30	O	1.690832	0.161147	1.057567
O31	O	1.190678	-0.568681	0.332289
O32	O	1.690678	-0.068681	0.832289
O33	O	1.093604	-0.568640	0.429366
O34	O	1.593604	-0.068640	0.929366
C35	C	0.936867	-0.388406	0.380837
C36	C	1.436867	0.111594	0.880837
C37	C	0.849011	-0.388418	0.380844
C38	C	1.349011	0.111582	0.880844
C39	C	0.807731	-0.336795	0.330385
C40	C	1.307731	0.163205	0.830385
C41	C	0.807736	-0.440047	0.431315
C42	C	1.307736	0.059953	0.931315
C43	C	0.725190	-0.440056	0.431327
C44	C	1.225190	0.059944	0.931327
C45	C	0.683911	-0.388433	0.380868
C46	C	1.183911	0.111567	0.880868
C47	C	0.725178	-0.336801	0.330397
C48	C	1.225178	0.163199	0.830397
C49	C	0.683917	-0.491681	0.481802
C50	C	1.183917	0.008319	0.981802
C51	C	0.601366	-0.491692	0.481817
C52	C	1.101366	0.008308	0.981817
C53	C	0.560086	-0.440073	0.431353
C54	C	1.060086	0.059927	0.931353
C55	C	0.601358	-0.388439	0.380880
C56	C	1.101358	0.111561	0.880880
C57	C	0.560078	-0.336816	0.330420
C58	C	1.060078	0.163184	0.830420
C59	C	0.601349	-0.285186	0.279942
C60	C	1.101349	0.214814	0.779942
C61	C	0.683897	-0.285181	0.279933
C62	C	1.183897	0.214819	0.779933
C63	C	0.477537	-0.440077	0.431362
C64	C	0.977537	0.059923	0.931362
C65	C	0.477525	-0.336822	0.330432
C66	C	0.977525	0.163178	0.830432
C67	C	1.142147	-0.597917	0.380839
C68	C	1.642147	-0.097917	0.880839
C69	C	1.142183	-0.687538	0.380855
C70	C	1.642183	-0.187538	0.880855
C71	C	1.142214	-0.760320	0.380871
C72	C	1.642214	-0.260320	0.880871
C73	C	1.142260	-0.851628	0.380888
C74	C	1.642260	-0.351628	0.880888
C75	C	1.142301	-0.924405	0.380898
C76	C	1.642301	-0.424405	0.880898
C77	C	1.142346	-1.015719	0.380914
C78	C	1.642346	-0.515719	0.880914
C79	C	1.348402	-0.388446	0.380891
C80	C	1.848402	0.111554	0.880891
C81	C	1.436258	-0.388454	0.380903
C82	C	1.936258	0.111546	0.880903
C83	C	1.142266	-0.388359	0.587032
C84	C	1.642266	0.111641	1.087032
C85	C	1.142280	-0.388330	0.674889
C86	C	1.642280	0.111670	1.174889
C87	C	1.142341	-0.178117	0.380906
C88	C	1.642341	0.321883	0.880906
C89	C	1.142387	-0.088496	0.380924
C90	C	1.642387	0.411504	0.880924
C91	C	1.142246	-0.388434	0.175498
C92	C	1.642246	0.111566	0.675498
C93	C	1.142385	-0.388235	0.087641
C94	C	1.642385	0.111765	0.587641
C95	C	1.091798	-0.439806	1.046350
C96	C	1.591798	0.060194	1.546350
C97	C	1.192952	-0.336685	1.046379
C98	C	1.692952	0.163315	1.546379
C99	C	1.192931	-0.336702	0.963833
C100	C	1.692931	0.163298	1.463833
C101	C	1.142343	-0.388273	0.922542
C102	C	1.642343	0.111727	1.422542
C103	C	1.091777	-0.439827	0.963797
C104	C	1.591777	0.060173	1.463797
C105	C	1.243502	-0.285154	0.922573
C106	C	1.743502	0.214846	1.422573
C107	C	1.243483	-0.285170	0.840022
C108	C	1.743483	0.214830	1.340022
C109	C	1.192891	-0.336738	0.798729
C110	C	1.692891	0.163262	1.298729
C111	C	1.142322	-0.388293	0.839988
C112	C	1.642322	0.111707	1.339988
C113	C	1.091735	-0.439864	0.798697
C114	C	1.591735	0.060136	1.298697
C115	C	1.041161	-0.491416	0.839955
C116	C	1.541161	0.008584	1.339955
C117	C	1.041185	-0.491394	0.922504
C118	C	1.541185	0.008606	1.422504
C119	C	1.192868	-0.336759	0.716180
C120	C	1.692868	0.163241	1.216180
C121	C	1.091714	-0.439884	0.716143
C122	C	1.591714	0.060116	1.216143
H123	H	0.841350	-0.482072	0.472400
H124	H	1.341350	0.017928	0.972400
N125	N	0.728412	-0.229490	0.225504
N126	N	1.228412	0.270510	0.725504
H127	H	0.689738	-0.196788	0.193538
H128	H	1.189738	0.303212	0.693538
H129	H	0.762638	-0.262263	0.188867
H130	H	1.262638	0.237737	0.688867
N131	N	1.247515	-0.281065	1.090907
N132	N	1.747515	0.218935	1.590907
H133	H	1.284137	-0.313829	1.125147
H134	H	1.784137	0.186171	1.625147
H135	H	1.215364	-0.243700	1.125122
H136	H	1.715364	0.256300	1.625122
H137	H	0.443939	-0.482109	0.472465
H138	H	0.943939	0.017891	0.972465
H139	H	0.841337	-0.294761	0.289285
H140	H	1.341337	0.205239	0.789285
N141	N	0.986600	-0.547030	0.795407
N142	N	1.486600	-0.047030	1.295407
H143	H	0.930133	-0.534495	0.809767
H144	H	1.430133	-0.034495	1.309767
H145	H	0.998909	-0.604619	0.809770
H146	H	1.498909	-0.104619	1.309770
H147	H	1.050620	-0.481776	1.079946
H148	H	1.550620	0.018224	1.579946
N149	N	1.298028	-0.229567	0.795531
N150	N	1.798028	0.270433	1.295531
H151	H	1.285783	-0.171953	0.809917
H152	H	1.785783	0.328047	1.309917
H153	H	1.290315	-0.237467	0.736985
H154	H	1.790315	0.262533	1.236985
N155	N	1.298065	-0.229539	0.967105
N156	N	1.798065	0.270461	1.467105
H157	H	1.290400	-0.237347	1.025660
H158	H	1.790400	0.262653	1.525660
H159	H	1.285792	-0.171956	0.952690
H160	H	1.785792	0.328044	1.452690
H161	H	0.717533	-0.533708	0.522886
H162	H	1.217533	-0.033708	1.022886
H163	H	0.567771	-0.533734	0.522918
H164	H	1.067771	-0.033734	1.022918
H165	H	1.050512	-0.481873	0.682530
H166	H	1.550512	0.018127	1.182530
N167	N	0.986654	-0.547002	0.967005
N168	N	1.486654	-0.047002	1.467005
H169	H	0.954602	-0.579676	0.928323
H170	H	1.454602	-0.079676	1.428323
H171	H	0.950101	-0.514173	1.001267
H172	H	1.450101	-0.014173	1.501267
H173	H	1.234046	-0.294789	0.682592
H174	H	1.734046	0.205211	1.182592
H175	H	0.567729	-0.243150	0.238862
H176	H	1.067729	0.256850	0.738862
N177	N	0.433004	-0.281147	0.276002
N178	N	0.933004	0.218853	0.776002
H179	H	0.471676	-0.248443	0.244025
H180	H	0.971676	0.251557	0.744025
H181	H	0.398783	-0.243870	0.308242
H182	H	0.898783	0.256130	0.808242
