data_functionalizedCrystal
_audit_creation_method	'MofGen! by Chris Wilmer'
_symmetry_space_group_name_H-M	'P1'
_symmetry_Int_Tables_number	1
_symmetry_cell_setting	triclinic
loop_
_symmetry_equiv_pos_as_xyz
  x,y,z
_cell_length_a	12.759401
_cell_length_b	29.839131
_cell_length_c	12.759393
_cell_angle_alpha	90.045545
_cell_angle_beta	90.018496
_cell_angle_gamma	90.035390
loop_
_atom_site_label
_atom_site_type_symbol
_atom_site_fract_x
_atom_site_fract_y
_atom_site_fract_z
Zn1	Zn	1.606106	-0.178825	0.593879
Zn2	Zn	1.605937	-0.253963	0.418157
Zn3	Zn	1.430407	-0.178848	0.418219
Zn4	Zn	1.430333	-0.253929	0.593798
O5	O	1.518196	-0.216391	0.506013
O6	O	1.753104	-0.188797	0.570577
O7	O	1.582613	-0.244024	0.271144
O8	O	1.453816	-0.115978	0.441580
O9	O	1.752980	-0.244001	0.441475
O10	O	1.582900	-0.115961	0.570638
O11	O	1.453652	-0.188837	0.271189
O12	O	1.283377	-0.188803	0.441502
O13	O	1.453689	-0.243942	0.740830
O14	O	1.283322	-0.243965	0.570499
O15	O	1.582828	-0.188763	0.740890
O16	O	1.582541	-0.316826	0.441396
O17	O	1.453526	-0.316801	0.570439
C18	C	1.245228	-0.216383	0.505999
C19	C	1.128452	-0.216390	0.506018
C20	C	1.073589	-0.245159	0.573075
C21	C	0.963865	-0.245165	0.573087
C22	C	0.963876	-0.187632	0.438974
C23	C	1.073598	-0.187624	0.438968
C24	C	1.128442	-0.273925	0.640125
C25	C	1.073579	-0.302696	0.707187
C26	C	0.963855	-0.302702	0.707199
C27	C	0.908994	-0.273936	0.640148
C28	C	1.518036	-0.333114	0.505925
C29	C	1.518063	-0.383048	0.505922
C30	C	1.585395	-0.692648	0.573309
C31	C	1.585509	-0.880321	0.573372
O32	O	1.642601	-0.904548	0.630601
N33	N	1.518374	-0.903833	0.506130
C34	C	1.451201	-0.880425	0.438872
O35	O	1.394093	-0.904730	0.381687
C36	C	1.451082	-0.692753	0.438815
C37	C	1.518229	-0.669243	0.506054
C38	C	1.652536	-0.669138	0.640543
C39	C	1.652511	-0.622222	0.640523
C40	C	1.585345	-0.598817	0.573268
C41	C	1.518204	-0.622327	0.506033
C42	C	1.383904	-0.669345	0.371563
C43	C	1.383879	-0.622424	0.371556
C44	C	1.451026	-0.598914	0.438795
C45	C	1.451013	-0.552006	0.438758
N46	N	1.518148	-0.528494	0.506000
C47	C	1.585314	-0.551899	0.573255
C48	C	1.451269	-0.978955	0.438905
C49	C	1.451300	-1.025873	0.438918
C50	C	1.585608	-1.025766	0.573420
C51	C	1.585581	-0.978847	0.573401
C52	C	1.518404	-0.955443	0.506147
C53	C	1.585257	-0.453373	0.573206
C54	C	1.585229	-0.406454	0.573177
C55	C	1.450918	-0.406565	0.438679
C56	C	1.450950	-0.453480	0.438704
C57	C	1.518123	-0.476884	0.505976
O58	O	1.393943	-0.527750	0.381567
O59	O	1.642397	-0.527586	0.630448
C60	C	1.585421	-0.739563	0.573329
C61	C	1.518280	-0.763073	0.506095
C62	C	1.451114	-0.739668	0.438840
C63	C	1.518310	-0.809991	0.506108
C64	C	1.585477	-0.833397	0.573363
C65	C	1.652612	-0.809884	0.640605
C66	C	1.652587	-0.762969	0.640584
C67	C	1.383978	-0.763181	0.371597
C68	C	1.384010	-0.810096	0.371623
C69	C	1.451176	-0.833501	0.438878
C70	C	1.792229	-0.216400	0.506028
C71	C	1.909006	-0.216404	0.506034
C72	C	1.518269	-0.216346	0.780047
C73	C	1.518301	-0.216327	0.896823
C74	C	1.518385	-0.099213	0.506125
C75	C	1.518466	-0.049279	0.506173
C76	C	1.518183	-0.216404	0.233046
C77	C	1.518355	-0.216297	0.116270
C78	C	1.585553	-0.187593	0.951718
C79	C	1.585578	-0.187576	1.061442
C80	C	1.451096	-0.245032	1.061367
C81	C	1.451066	-0.245046	0.951645
C82	C	1.652787	-0.158873	0.896897
C83	C	1.720046	-0.130137	0.951791
C84	C	1.720071	-0.130121	1.061516
C85	C	1.652837	-0.158841	1.116345
H86	H	0.919200	-0.164213	0.384383
C87	C	1.310028	-0.695196	0.297600
N88	N	1.254377	-0.714665	0.241890
C89	C	0.903509	-0.334352	0.780964
N90	N	0.858058	-0.358194	0.836520
H91	H	1.774828	-0.106719	1.106208
H92	H	1.652851	-0.158820	1.205690
C93	C	1.377354	-0.953216	0.364926
N94	N	1.321678	-0.933832	0.309207
H95	H	1.396288	-0.268437	0.906949
H96	H	1.396281	-0.472623	0.383944
H97	H	1.640258	-0.959708	0.628153
H98	H	1.396357	-0.268415	1.106018
C99	C	1.793993	-0.098545	0.891477
N100	N	1.849692	-0.074749	0.846050
C101	C	1.377441	-1.051729	0.364941
N102	N	1.321803	-1.071202	0.309224
H103	H	1.329332	-0.829234	0.316858
H104	H	1.118254	-0.326113	0.761784
C105	C	1.659485	-1.051521	0.647407
N106	N	1.715120	-1.070921	0.703137
H107	H	1.217785	-0.273924	0.640121
H108	H	0.819649	-0.273939	0.640171
C109	C	1.377035	-0.380810	0.364707
N110	N	1.321378	-0.361410	0.308997
C111	C	1.133951	-0.155979	0.365198
N112	N	1.179409	-0.132142	0.309633
H113	H	1.639912	-0.387313	0.627931
H114	H	1.639949	-0.472423	0.627993
H115	H	1.707185	-0.603083	0.695278
C116	C	1.726440	-0.694876	0.714527
N117	N	1.782117	-0.714259	0.770249
C118	C	1.309978	-0.596682	0.297568
N119	N	1.254319	-0.577294	0.241839
H120	H	1.707264	-0.743830	0.695337
C121	C	1.726493	-0.835639	0.714587
N122	N	1.782133	-0.855040	0.770312
C123	C	1.652762	-0.158887	0.776198
N124	N	1.652743	-0.158898	0.685288
H125	H	1.329282	-0.744128	0.316831
