data_functionalizedCrystal
_audit_creation_method	'MofGen! by Chris Wilmer'
_symmetry_space_group_name_H-M	'P1'
_symmetry_Int_Tables_number	1
_symmetry_cell_setting	triclinic
loop_
_symmetry_equiv_pos_as_xyz
  x,y,z
_cell_length_a	16.120490
_cell_length_b	16.120484
_cell_length_c	13.033109
_cell_angle_alpha	79.614285
_cell_angle_beta	99.697676
_cell_angle_gamma	90.164100
loop_
_atom_site_label
_atom_site_type_symbol
_atom_site_fract_x
_atom_site_fract_y
_atom_site_fract_z
Zn1	Zn	1.322070	-0.470475	0.704627
Zn2	Zn	1.298746	-0.591644	0.536093
Zn3	Zn	1.165129	-0.443648	0.518236
Zn4	Zn	1.175829	-0.602317	0.703662
O5	O	1.240443	-0.527021	0.615655
O6	O	1.436097	-0.493308	0.690147
O7	O	1.266782	-0.556318	0.385590
O8	O	1.191230	-0.330093	0.535892
O9	O	1.418961	-0.582330	0.566326
O10	O	1.306534	-0.349803	0.672832
O11	O	1.168614	-0.447586	0.372471
O12	O	1.049427	-0.457936	0.534956
O13	O	1.209468	-0.600522	0.851924
O14	O	1.057289	-0.574509	0.671188
O15	O	1.316910	-0.503658	0.852633
O16	O	1.277157	-0.710173	0.565391
O17	O	1.186851	-0.718015	0.688503
C18	C	1.022990	-0.514470	0.601031
C19	C	0.929963	-0.509124	0.594801
C20	C	1.230659	-0.744464	0.628805
C21	C	1.226554	-0.837495	0.634471
C22	C	0.722094	-0.554747	0.647971
C23	C	0.759649	-0.499371	0.583426
C24	C	0.854421	-0.504799	0.589757
C25	C	0.627314	-0.549319	0.641641
C26	C	1.219065	-1.007826	0.644838
C27	C	1.261973	-1.045386	0.586499
C28	C	1.257807	-1.140164	0.592267
C29	C	1.223231	-0.913039	0.639071
C30	C	1.458746	-0.539621	0.630336
C31	C	1.551774	-0.544990	0.636593
C32	C	1.266984	-0.556273	0.891762
C33	C	1.278294	-0.568739	1.009422
C34	C	1.250290	-0.308733	0.602478
C35	C	1.254487	-0.215711	0.596863
C36	C	1.214056	-0.497825	0.340621
C37	C	1.202919	-0.485133	0.222958
C38	C	1.234765	-0.520498	1.055388
C39	C	1.246454	-0.533380	1.176996
H40	H	0.761116	-0.606229	0.707979
H41	H	1.301837	-1.006361	0.532220
H42	H	1.188842	-0.469663	1.004711
N43	N	0.707965	-0.431170	0.503928
H44	H	0.646608	-0.436911	0.510615
H45	H	0.715329	-0.436951	0.430080
N46	N	1.166258	-1.059507	0.716729
H47	H	1.170730	-1.120867	0.710703
H48	H	1.105559	-1.039144	0.695259
N49	N	1.307278	-0.600735	1.244106
H50	H	1.307004	-0.600393	1.321466
H51	H	1.365803	-0.589136	1.228076
H52	H	1.156994	-0.434293	1.172286
H53	H	1.324214	-0.619577	1.060099
