data_functionalizedCrystal
_audit_creation_method	'MofGen! by Chris Wilmer'
_symmetry_space_group_name_H-M	'P1'
_symmetry_Int_Tables_number	1
_symmetry_cell_setting	triclinic
loop_
_symmetry_equiv_pos_as_xyz
  x,y,z
_cell_length_a	12.759401
_cell_length_b	12.759399
_cell_length_c	12.759393
_cell_angle_alpha	90.030270
_cell_angle_beta	90.020459
_cell_angle_gamma	90.016641
loop_
_atom_site_label
_atom_site_type_symbol
_atom_site_fract_x
_atom_site_fract_y
_atom_site_fract_z
Zn1	Zn	1.606258	-0.418179	0.594017
Zn2	Zn	1.606150	-0.593893	0.418336
Zn3	Zn	1.430559	-0.418233	0.418352
Zn4	Zn	1.430548	-0.593821	0.593973
O5	O	1.518379	-0.506032	0.506170
O6	O	1.753265	-0.441495	0.570724
O7	O	1.582816	-0.570644	0.271317
O8	O	1.453916	-0.271205	0.441680
O9	O	1.753185	-0.570591	0.441652
O10	O	1.583001	-0.271165	0.570740
O11	O	1.453810	-0.441587	0.271329
O12	O	1.283536	-0.441518	0.441637
O13	O	1.453897	-0.570470	0.741000
O14	O	1.283528	-0.570522	0.570665
O15	O	1.582991	-0.441426	0.741032
O16	O	1.582806	-0.740904	0.441609
O17	O	1.453792	-0.740852	0.570649
C18	C	1.245411	-0.506019	0.506149
C19	C	1.128635	-0.506039	0.506165
C20	C	1.518314	-0.778999	0.506146
C21	C	1.518383	-0.895776	0.506171
C22	C	1.073796	-0.573313	0.573244
C23	C	0.964072	-0.573317	0.573265
C24	C	0.964035	-0.438769	0.439118
C25	C	1.073757	-0.438761	0.439104
C26	C	1.585637	-0.950630	0.439056
C27	C	1.585704	-1.060354	0.439091
C28	C	1.451254	-1.060360	0.573359
C29	C	1.451193	-0.950638	0.573328
C30	C	1.792412	-0.506045	0.506191
C31	C	1.909188	-0.506051	0.506200
C32	C	1.518455	-0.505934	0.780203
C33	C	1.518487	-0.505892	0.896980
C34	C	1.518472	-0.231998	0.506217
C35	C	1.518512	-0.115222	0.506237
C36	C	1.518363	-0.506053	0.233202
C37	C	1.518534	-0.505799	0.116426
C38	C	1.585689	-0.573014	1.061571
C39	C	1.585663	-0.573064	0.951847
C40	C	1.451325	-0.438674	0.951843
C41	C	1.451346	-0.438631	1.061565
H42	H	1.118474	-0.628093	0.627852
H43	H	1.640471	-1.105012	0.384441
H44	H	1.640347	-0.627796	0.907189
H45	H	1.396625	-0.383987	0.907161
H46	H	1.396549	-1.105042	0.628034
C47	C	1.377475	-0.364688	1.121909
H48	H	1.337469	-0.324681	1.073523
H49	H	1.331695	-0.404859	1.164700
H50	H	1.417698	-0.318895	1.164723
H51	H	0.919427	-0.628097	0.627889
H52	H	1.396426	-0.905972	0.627986
C53	C	1.134088	-0.364755	0.365317
H54	H	1.207294	-0.374379	0.374923
H55	H	1.116074	-0.380040	0.294700
H56	H	1.116129	-0.294182	0.380829
H57	H	0.919340	-0.383996	0.384518
H58	H	1.640348	-0.905964	0.384374
C59	C	1.659586	-0.646900	1.121916
H60	H	1.699570	-0.686944	1.073527
H61	H	1.705386	-0.606698	1.164730
H62	H	1.619383	-0.692662	1.164705
