data_functionalizedCrystal
_audit_creation_method	'MofGen! by Chris Wilmer'
_symmetry_space_group_name_H-M	'P1'
_symmetry_Int_Tables_number	1
_symmetry_cell_setting	triclinic
loop_
_symmetry_equiv_pos_as_xyz
  x,y,z
_cell_length_a	29.839134
_cell_length_b	21.395361
_cell_length_c	29.839125
_cell_angle_alpha	89.980954
_cell_angle_beta	90.021980
_cell_angle_gamma	89.974432
loop_
_atom_site_label
_atom_site_type_symbol
_atom_site_fract_x
_atom_site_fract_y
_atom_site_fract_z
Zn1	Zn	0.686753	0.249612	0.254121
Zn2	Zn	0.936753	0.499612	0.504121
Zn3	Zn	1.186753	0.749612	0.754121
Zn4	Zn	1.436753	0.999612	1.004121
Zn5	Zn	0.686699	0.354368	0.178989
Zn6	Zn	0.936699	0.604368	0.428989
Zn7	Zn	1.186699	0.854368	0.678989
Zn8	Zn	1.436699	1.104368	0.928989
Zn9	Zn	0.611636	0.249598	0.178990
Zn10	Zn	0.861636	0.499598	0.428990
Zn11	Zn	1.111636	0.749598	0.678990
Zn12	Zn	1.361636	0.999598	0.928990
Zn13	Zn	0.611598	0.354347	0.254077
Zn14	Zn	0.861598	0.604347	0.504077
Zn15	Zn	1.111598	0.854347	0.754077
Zn16	Zn	1.361598	1.104347	1.004077
O17	O	0.649171	0.301981	0.216544
O18	O	0.899171	0.551981	0.466544
O19	O	1.149171	0.801981	0.716544
O20	O	1.399171	1.051981	0.966544
O21	O	0.749613	0.263523	0.244172
O22	O	0.999613	0.513523	0.494172
O23	O	1.249613	0.763523	0.744172
O24	O	1.499613	1.013523	0.994172
O25	O	0.676735	0.340473	0.116122
O26	O	0.926735	0.590473	0.366122
O27	O	1.176735	0.840473	0.616122
O28	O	1.426735	1.090473	0.866122
O29	O	0.621639	0.161922	0.188975
O30	O	0.871639	0.411922	0.438975
O31	O	1.121639	0.661922	0.688975
O32	O	1.371639	0.911922	0.938975
O33	O	0.749573	0.340486	0.188973
O34	O	0.999573	0.590486	0.438973
O35	O	1.249573	0.840486	0.688973
O36	O	1.499573	1.090486	0.938973
O37	O	0.676827	0.161933	0.244173
O38	O	0.926827	0.411933	0.494173
O39	O	1.176827	0.661933	0.744173
O40	O	1.426827	0.911933	0.994173
O41	O	0.621587	0.263499	0.116123
O42	O	0.871587	0.513499	0.366123
O43	O	1.121587	0.763499	0.616123
O44	O	1.371587	1.013499	0.866123
O45	O	0.548764	0.263479	0.188933
O46	O	0.798764	0.513479	0.438933
O47	O	1.048764	0.763479	0.688933
O48	O	1.298764	1.013479	0.938933
O49	O	0.621574	0.340450	0.316950
O50	O	0.871574	0.590450	0.566950
O51	O	1.121574	0.840450	0.816950
O52	O	1.371574	1.090450	1.066950
O53	O	0.548736	0.340437	0.244099
O54	O	0.798736	0.590437	0.494099
O55	O	1.048736	0.840437	0.744099
O56	O	1.298736	1.090437	0.994099
O57	O	0.676790	0.263502	0.316982
O58	O	0.926790	0.513502	0.566982
O59	O	1.176790	0.763502	0.816982
O60	O	1.426790	1.013502	1.066982
O61	O	0.676698	0.442043	0.188931
O62	O	0.926698	0.692043	0.438931
O63	O	1.176698	0.942043	0.688931
O64	O	1.426698	1.192043	0.938931
O65	O	0.621522	0.442027	0.244098
O66	O	0.871522	0.692027	0.494098
O67	O	1.121522	0.942027	0.744098
O68	O	1.371522	1.192027	0.994098
C69	C	0.532449	0.301955	0.216512
C70	C	0.782449	0.551955	0.466512
C71	C	1.032449	0.801955	0.716512
C72	C	1.282449	1.051955	0.966512
C73	C	0.482514	0.301958	0.216509
C74	C	0.732514	0.551958	0.466509
C75	C	0.982514	0.801958	0.716509
C76	C	1.232514	1.051958	0.966509
C77	C	0.649112	0.464769	0.216519
C78	C	0.899112	0.714769	0.466519
C79	C	1.149112	0.964769	0.716519
C80	C	1.399112	1.214769	0.966519
C81	C	0.649128	0.534410	0.216524
C82	C	0.899128	0.784410	0.466524
C83	C	1.149128	1.034410	0.716524
C84	C	1.399128	1.284410	0.966524
C85	C	0.649184	0.301976	0.333723
C86	C	0.899184	0.551976	0.583723
C87	C	1.149184	0.801976	0.833723
C88	C	1.399184	1.051976	1.083723
C89	C	0.649189	0.301973	0.383657
C90	C	0.899189	0.551973	0.633657
C91	C	1.149189	0.801973	0.883657
C92	C	1.399189	1.051973	1.133657
C93	C	0.172866	0.342112	0.245234
C94	C	0.422866	0.592112	0.495234
C95	C	0.672866	0.842112	0.745234
C96	C	0.922866	1.092112	0.995234
C97	C	-0.014807	0.342130	0.245254
C98	C	0.235193	0.592130	0.495254
C99	C	0.485193	0.842130	0.745254
C100	C	0.735193	1.092130	0.995254
O101	O	-0.039076	0.376241	0.269658
O102	O	0.210924	0.626241	0.519658
O103	O	0.460924	0.876241	0.769658
O104	O	0.710924	1.126241	1.019658
N105	N	-0.038271	0.302004	0.216578
N106	N	0.211729	0.552004	0.466578
N107	N	0.461729	0.802004	0.716578
N108	N	0.711729	1.052004	0.966578
C109	C	-0.014813	0.261868	0.187897
C110	C	0.235187	0.511868	0.437897
C111	C	0.485187	0.761868	0.687897
C112	C	0.735187	1.011868	0.937897
O113	O	-0.039076	0.227734	0.163510
O114	O	0.210924	0.477734	0.413510
O115	O	0.460924	0.727734	0.663510
O116	O	0.710924	0.977734	0.913510
C117	C	0.172859	0.261848	0.187880
C118	C	0.422859	0.511848	0.437880
C119	C	0.672859	0.761848	0.687880
C120	C	0.922859	1.011848	0.937880
C121	C	0.196320	0.301981	0.216555
C122	C	0.446320	0.551981	0.466555
C123	C	0.696320	0.801981	0.716555
C124	C	0.946320	1.051981	0.966555
C125	C	0.196327	0.382242	0.273907
C126	C	0.446327	0.632242	0.523907
C127	C	0.696327	0.882242	0.773907
C128	C	0.946327	1.132242	1.023907
C129	C	0.243242	0.382239	0.273900
C130	C	0.493242	0.632239	0.523900
C131	C	0.743242	0.882239	0.773900
C132	C	0.993242	1.132239	1.023900
C133	C	0.266697	0.342108	0.245220
C134	C	0.516697	0.592108	0.495220
C135	C	0.766697	0.842108	0.745220
C136	C	1.016697	1.092108	0.995220
C137	C	0.243236	0.301978	0.216548
C138	C	0.493236	0.551978	0.466548
C139	C	0.743236	0.801978	0.716548
C140	C	0.993236	1.051978	0.966548
C141	C	0.196316	0.221709	0.159202
C142	C	0.446316	0.471709	0.409202
C143	C	0.696316	0.721709	0.659202
C144	C	0.946316	0.971709	0.909202
C145	C	0.243237	0.221706	0.159201
C146	C	0.493237	0.471706	0.409201
C147	C	0.743237	0.721706	0.659201
C148	C	0.993237	0.971706	0.909201
C149	C	0.266698	0.261839	0.187875
C150	C	0.516698	0.511839	0.437875
C151	C	0.766698	0.761839	0.687875
C152	C	1.016698	1.011839	0.937875
C153	C	0.313606	0.261844	0.187861
C154	C	0.563606	0.511844	0.437861
C155	C	0.813606	0.761844	0.687861
C156	C	1.063606	1.011844	0.937861
N157	N	0.337069	0.301970	0.216537
N158	N	0.587069	0.551970	0.466537
N159	N	0.837069	0.801970	0.716537
N160	N	1.087069	1.051970	0.966537
C161	C	0.313615	0.342102	0.245217
C162	C	0.563615	0.592102	0.495217
C163	C	0.813615	0.842102	0.745217
C164	C	1.063615	1.092102	0.995217
C165	C	-0.113344	0.261882	0.187908
C166	C	0.136656	0.511882	0.437908
C167	C	0.386656	0.761882	0.687908
C168	C	0.636656	1.011882	0.937908
C169	C	-0.160261	0.261888	0.187912
C170	C	0.089739	0.511888	0.437912
C171	C	0.339739	0.761888	0.687912
C172	C	0.589739	1.011888	0.937912
C173	C	-0.160252	0.342150	0.245269
C174	C	0.089748	0.592150	0.495269
C175	C	0.339748	0.842150	0.745269
C176	C	0.589748	1.092150	0.995269
C177	C	-0.113334	0.342147	0.245263
C178	C	0.136666	0.592147	0.495263
C179	C	0.386666	0.842147	0.745263
C180	C	0.636666	1.092147	0.995263
C181	C	-0.089880	0.302008	0.216584
C182	C	0.160120	0.552008	0.466584
C183	C	0.410120	0.802008	0.716584
C184	C	0.660120	1.052008	0.966584
C185	C	0.412141	0.342094	0.245199
C186	C	0.662141	0.592094	0.495199
C187	C	0.912141	0.842094	0.745199
C188	C	1.162141	1.092094	0.995199
C189	C	0.459060	0.342090	0.245188
C190	C	0.709060	0.592090	0.495188
C191	C	0.959060	0.842090	0.745188
C192	C	1.209060	1.092090	0.995188
C193	C	0.459047	0.261827	0.187833
C194	C	0.709047	0.511827	0.437833
C195	C	0.959047	0.761827	0.687833
C196	C	1.209047	1.011827	0.937833
C197	C	0.412131	0.261833	0.187842
C198	C	0.662131	0.511833	0.437842
C199	C	0.912131	0.761833	0.687842
C200	C	1.162131	1.011833	0.937842
C201	C	0.388679	0.301969	0.216529
C202	C	0.638679	0.551969	0.466529
C203	C	0.888679	0.801969	0.716529
C204	C	1.138679	1.051969	0.966529
O205	O	0.337904	0.227746	0.163473
O206	O	0.587904	0.477746	0.413473
O207	O	0.837904	0.727746	0.663473
O208	O	1.087904	0.977746	0.913473
O209	O	0.337886	0.376221	0.269607
O210	O	0.587886	0.626221	0.519607
O211	O	0.837886	0.876221	0.769607
O212	O	1.087886	1.126221	1.019607
C213	C	0.125950	0.342115	0.245241
C214	C	0.375950	0.592115	0.495241
C215	C	0.625950	0.842115	0.745241
C216	C	0.875950	1.092115	0.995241
C217	C	0.102489	0.301986	0.216569
C218	C	0.352489	0.551986	0.466569
C219	C	0.602489	0.801986	0.716569
C220	C	0.852489	1.051986	0.966569
C221	C	0.125944	0.261854	0.187889
C222	C	0.375944	0.511854	0.437889
C223	C	0.625944	0.761854	0.687889
C224	C	0.875944	1.011854	0.937889
C225	C	0.055572	0.301991	0.216572
C226	C	0.305572	0.551991	0.466572
C227	C	0.555572	0.801991	0.716572
C228	C	0.805572	1.051991	0.966572
C229	C	0.032117	0.342123	0.245252
C230	C	0.282117	0.592123	0.495252
C231	C	0.532117	0.842123	0.745252
C232	C	0.782117	1.092123	0.995252
C233	C	0.055581	0.382249	0.273928
C234	C	0.305581	0.632249	0.523928
C235	C	0.555581	0.882249	0.773928
C236	C	0.805581	1.132249	1.023928
C237	C	0.102496	0.382247	0.273921
C238	C	0.352496	0.632247	0.523921
C239	C	0.602496	0.882247	0.773921
C240	C	0.852496	1.132247	1.023921
C241	C	0.102480	0.221728	0.159213
C242	C	0.352480	0.471728	0.409213
C243	C	0.602480	0.721728	0.659213
C244	C	0.852480	0.971728	0.909213
C245	C	0.055565	0.221734	0.159222
C246	C	0.305565	0.471734	0.409222
C247	C	0.555565	0.721734	0.659222
C248	C	0.805565	0.971734	0.909222
C249	C	0.032110	0.261866	0.187902
C250	C	0.282110	0.511866	0.437902
C251	C	0.532110	0.761866	0.687902
C252	C	0.782110	1.011866	0.937902
C253	C	0.766350	0.302008	0.216577
C254	C	1.016350	0.552008	0.466577
C255	C	1.266350	0.802008	0.716577
C256	C	1.516350	1.052008	0.966577
C257	C	0.816284	0.302020	0.216591
C258	C	1.066284	0.552020	0.466591
C259	C	1.316284	0.802020	0.716591
C260	C	1.566284	1.052020	0.966591
C261	C	0.649243	0.138558	0.216579
C262	C	0.899243	0.388558	0.466579
C263	C	1.149243	0.638558	0.716579
C264	C	1.399243	0.888558	0.966579
C265	C	0.649274	0.068917	0.216594
C266	C	0.899274	0.318917	0.466594
C267	C	1.149274	0.568917	0.716594
C268	C	1.399274	0.818917	0.966594
C269	C	0.677884	0.567110	0.187828
C270	C	0.927884	0.817110	0.437828
C271	C	1.177884	1.067110	0.687828
C272	C	1.427884	1.317110	0.937828
C273	C	0.677905	0.632546	0.187838
C274	C	0.927905	0.882546	0.437838
C275	C	1.177905	1.132546	0.687838
C276	C	1.427905	1.382546	0.937838
C277	C	0.649162	0.665278	0.216539
C278	C	0.899162	0.915278	0.466539
C279	C	1.149162	1.165278	0.716539
C280	C	1.399162	1.415278	0.966539
C281	C	0.620404	0.632570	0.245241
C282	C	0.870404	0.882570	0.495241
C283	C	1.120404	1.132570	0.745241
C284	C	1.370404	1.382570	0.995241
C285	C	0.620387	0.567136	0.245233
C286	C	0.870387	0.817136	0.495233
C287	C	1.120387	1.067136	0.745233
C288	C	1.370387	1.317136	0.995233
C289	C	0.608710	0.768989	0.220053
C290	C	0.858710	1.018989	0.470053
C291	C	1.108710	1.268989	0.720053
C292	C	1.358710	1.518989	0.970053
C293	C	0.608726	0.834422	0.220057
C294	C	0.858726	1.084422	0.470057
C295	C	1.108726	1.334422	0.720057
C296	C	1.358726	1.584422	0.970057
C297	C	0.649214	0.867099	0.216566
C298	C	0.899214	1.117099	0.466566
C299	C	1.149214	1.367099	0.716566
C300	C	1.399214	1.617099	0.966566
C301	C	0.689687	0.834336	0.213060
C302	C	0.939687	1.084336	0.463060
C303	C	1.189687	1.334336	0.713060
C304	C	1.439687	1.584336	0.963060
C305	C	0.689670	0.768901	0.213052
C306	C	0.939670	1.018901	0.463052
C307	C	1.189670	1.268901	0.713052
C308	C	1.439670	1.518901	0.963052
C309	C	0.649177	0.736231	0.216551
C310	C	0.899177	0.986231	0.466551
C311	C	1.149177	1.236231	0.716551
C312	C	1.399177	1.486231	0.966551
C313	C	0.677995	0.970752	0.187879
C314	C	0.927995	1.220752	0.437879
C315	C	1.177995	1.470752	0.687879
C316	C	1.427995	1.720752	0.937879
C317	C	0.678017	1.036189	0.187892
C318	C	0.928017	1.286189	0.437892
C319	C	1.178017	1.536189	0.687892
C320	C	1.428017	1.786189	0.937892
C321	C	0.620512	1.036212	0.245293
C322	C	0.870512	1.286212	0.495293
C323	C	1.120512	1.536212	0.745293
C324	C	1.370512	1.786212	0.995293
C325	C	0.620494	0.970776	0.245282
C326	C	0.870494	1.220776	0.495282
C327	C	1.120494	1.470776	0.745282
C328	C	1.370494	1.720776	0.995282
C329	C	0.649235	0.938050	0.216573
C330	C	0.899235	1.188050	0.466573
C331	C	1.149235	1.438050	0.716573
C332	C	1.399235	1.688050	0.966573
C333	C	0.649185	0.301942	0.099822
C334	C	0.899185	0.551942	0.349822
C335	C	1.149185	0.801942	0.599822
C336	C	1.399185	1.051942	0.849822
C337	C	0.649267	0.301768	0.049888
C338	C	0.899267	0.551768	0.299888
C339	C	1.149267	0.801768	0.549888
C340	C	1.399267	1.051768	0.799888
C341	C	0.677970	0.261802	0.693320
C342	C	0.927970	0.511802	0.943320
C343	C	1.177970	0.761802	1.193320
C344	C	1.427970	1.011802	1.443320
C345	C	0.677992	0.261748	0.880994
C346	C	0.927992	0.511748	1.130994
C347	C	1.177992	0.761748	1.380994
C348	C	1.427992	1.011748	1.630994
O349	O	0.702430	0.227652	0.905275
O350	O	0.952430	0.477652	1.155275
O351	O	1.202430	0.727652	1.405275
O352	O	1.452430	0.977652	1.655275
N353	N	0.649248	0.301805	0.904443
N354	N	0.899248	0.551805	1.154443
N355	N	1.149248	0.801805	1.404443
N356	N	1.399248	1.051805	1.654443
C357	C	0.620495	0.341876	0.880970
C358	C	0.870495	0.591876	1.130970
C359	C	1.120495	0.841876	1.380970
C360	C	1.370495	1.091876	1.630970
O361	O	0.596043	0.375941	0.905222
O362	O	0.846043	0.625941	1.155222
O363	O	1.096043	0.875941	1.405222
O364	O	1.346043	1.125941	1.655222
C365	C	0.620470	0.341926	0.693298
C366	C	0.870470	0.591926	0.943298
C367	C	1.120470	0.841926	1.193298
C368	C	1.370470	1.091926	1.443298
C369	C	0.649220	0.301870	0.669852
C370	C	0.899220	0.551870	0.919852
C371	C	1.149220	0.801870	1.169852
C372	C	1.399220	1.051870	1.419852
C373	C	0.706717	0.221749	0.669874
C374	C	0.956717	0.471749	0.919874
C375	C	1.206717	0.721749	1.169874
C376	C	1.456717	0.971749	1.419874
C377	C	0.706713	0.221765	0.622958
C378	C	0.956713	0.471765	0.872958
C379	C	1.206713	0.721765	1.122958
C380	C	1.456713	0.971765	1.372958
C381	C	0.677962	0.261834	0.599489
C382	C	0.927962	0.511834	0.849489
C383	C	1.177962	0.761834	1.099489
C384	C	1.427962	1.011834	1.349489
C385	C	0.649215	0.301887	0.622936
C386	C	0.899215	0.551887	0.872936
C387	C	1.149215	0.801887	1.122936
C388	C	1.399215	1.051887	1.372936
C389	C	0.591715	0.381993	0.669827
C390	C	0.841715	0.631993	0.919827
C391	C	1.091715	0.881993	1.169827
C392	C	1.341715	1.131993	1.419827
C393	C	0.591710	0.382001	0.622906
C394	C	0.841710	0.632001	0.872906
C395	C	1.091710	0.882001	1.122906
C396	C	1.341710	1.132001	1.372906
C397	C	0.620459	0.341945	0.599459
C398	C	0.870459	0.591945	0.849459
C399	C	1.120459	0.841945	1.099459
C400	C	1.370459	1.091945	1.349459
C401	C	0.620461	0.341972	0.552552
C402	C	0.870461	0.591972	0.802552
C403	C	1.120461	0.841972	1.052552
C404	C	1.370461	1.091972	1.302552
N405	N	0.649205	0.301914	0.529103
N406	N	0.899205	0.551914	0.779103
N407	N	1.149205	0.801914	1.029103
N408	N	1.399205	1.051914	1.279103
C409	C	0.677955	0.261845	0.552572
C410	C	0.927955	0.511845	0.802572
C411	C	1.177955	0.761845	1.052572
C412	C	1.427955	1.011845	1.302572
C413	C	0.620510	0.341848	0.979501
C414	C	0.870510	0.591848	1.229501
C415	C	1.120510	0.841848	1.479501
C416	C	1.370510	1.091848	1.729501
C417	C	0.620516	0.341836	1.026419
C418	C	0.870516	0.591836	1.276419
C419	C	1.120516	0.841836	1.526419
C420	C	1.370516	1.091836	1.776419
C421	C	0.678014	0.261707	1.026439
C422	C	0.928014	0.511707	1.276439
C423	C	1.178014	0.761707	1.526439
C424	C	1.428014	1.011707	1.776439
C425	C	0.678009	0.261723	0.979520
C426	C	0.928009	0.511723	1.229520
C427	C	1.178009	0.761723	1.479520
C428	C	1.428009	1.011723	1.729520
C429	C	0.649254	0.301791	0.956052
C430	C	0.899254	0.551791	1.206052
C431	C	1.149254	0.801791	1.456052
C432	C	1.399254	1.051791	1.706052
C433	C	0.677945	0.261883	0.454046
C434	C	0.927945	0.511883	0.704046
C435	C	1.177945	0.761883	0.954046
C436	C	1.427945	1.011883	1.204046
C437	C	0.677939	0.261904	0.407126
C438	C	0.927939	0.511904	0.657126
C439	C	1.177939	0.761904	0.907126
C440	C	1.427939	1.011904	1.157126
C441	C	0.620441	0.342031	0.407110
C442	C	0.870441	0.592031	0.657110
C443	C	1.120441	0.842031	0.907110
C444	C	1.370441	1.092031	1.157110
C445	C	0.620447	0.342012	0.454026
C446	C	0.870447	0.592012	0.704026
C447	C	1.120447	0.842012	0.954026
C448	C	1.370447	1.092012	1.204026
C449	C	0.649201	0.301933	0.477492
C450	C	0.899201	0.551933	0.727492
C451	C	1.149201	0.801933	0.977492
C452	C	1.399201	1.051933	1.227492
O453	O	0.596032	0.376045	0.528241
O454	O	0.846032	0.626045	0.778241
O455	O	1.096032	0.876045	1.028241
O456	O	1.346032	1.126045	1.278241
O457	O	0.702396	0.227775	0.528312
O458	O	0.952396	0.477775	0.778312
O459	O	1.202396	0.727775	1.028312
O460	O	1.452396	0.977775	1.278312
C461	C	0.677974	0.261785	0.740236
C462	C	0.927974	0.511785	0.990236
C463	C	1.177974	0.761785	1.240236
C464	C	1.427974	1.011785	1.490236
C465	C	0.649228	0.301838	0.763683
C466	C	0.899228	0.551838	1.013683
C467	C	1.149228	0.801838	1.263683
C468	C	1.399228	1.051838	1.513683
C469	C	0.620477	0.341907	0.740214
C470	C	0.870477	0.591907	0.990214
C471	C	1.120477	0.841907	1.240214
C472	C	1.370477	1.091907	1.490214
C473	C	0.649234	0.301826	0.810600
C474	C	0.899234	0.551826	1.060600
C475	C	1.149234	0.801826	1.310600
C476	C	1.399234	1.051826	1.560600
C477	C	0.677985	0.261758	0.834069
C478	C	0.927985	0.511758	1.084069
C479	C	1.177985	0.761758	1.334069
C480	C	1.427985	1.011758	1.584069
C481	C	0.706729	0.221700	0.810620
C482	C	0.956729	0.471700	1.060620
C483	C	1.206729	0.721700	1.310620
C484	C	1.456729	0.971700	1.560620
C485	C	0.706725	0.221717	0.763705
C486	C	0.956725	0.471717	1.013705
C487	C	1.206725	0.721717	1.263705
C488	C	1.456725	0.971717	1.513705
C489	C	0.591733	0.381964	0.763663
C490	C	0.841733	0.631964	1.013663
C491	C	1.091733	0.881964	1.263663
C492	C	1.341733	1.131964	1.513663
C493	C	0.591740	0.381945	0.810578
C494	C	0.841740	0.631945	1.060578
C495	C	1.091740	0.881945	1.310578
C496	C	1.341740	1.131945	1.560578
C497	C	0.620491	0.341876	0.834047
C498	C	0.870491	0.591876	1.084047
C499	C	1.120491	0.841876	1.334047
C500	C	1.370491	1.091876	1.584047
H501	H	0.478160	0.374773	0.268539
H502	H	0.728160	0.624773	0.518539
H503	H	0.978160	0.874773	0.768539
H504	H	1.228160	1.124773	1.018539
H505	H	0.568289	0.414623	0.603801
H506	H	0.818289	0.664623	0.853801
H507	H	1.068289	0.914623	1.103801
H508	H	1.318289	1.164623	1.353801
H509	H	0.597076	0.944150	0.268647
H510	H	0.847076	1.194150	0.518647
H511	H	1.097076	1.444150	0.768647
H512	H	1.347076	1.694150	1.018647
H513	H	0.730122	0.189147	0.603872
H514	H	0.980122	0.439147	0.853872
H515	H	1.230122	0.689147	1.103872
H516	H	1.480122	0.939147	1.353872
H517	H	-0.179360	0.229214	0.164557
H518	H	0.070640	0.479214	0.414557
H519	H	0.320640	0.729214	0.664557
H520	H	0.570640	0.979214	0.914557
H521	H	0.722656	0.860940	0.210216
H522	H	0.972656	1.110940	0.460216
H523	H	1.222656	1.360940	0.710216
H524	H	1.472656	1.610940	0.960216
H525	H	0.393028	0.229154	0.164492
H526	H	0.643028	0.479154	0.414492
H527	H	0.893028	0.729154	0.664492
H528	H	1.143028	0.979154	0.914492
H529	H	0.701399	0.944106	0.164503
H530	H	0.951399	1.194106	0.414503
H531	H	1.201399	1.444106	0.664503
H532	H	1.451399	1.694106	0.914503
H533	H	0.568321	0.414595	0.744559
H534	H	0.818321	0.664595	0.994559
H535	H	1.068321	0.914595	1.244559
H536	H	1.318321	1.164595	1.494559
H537	H	0.177235	0.414922	0.297264
H538	H	0.427235	0.664922	0.547264
H539	H	0.677235	0.914922	0.797264
H540	H	0.927235	1.164922	1.047264
H541	H	0.575771	0.861093	0.222908
H542	H	0.825771	1.111093	0.472908
H543	H	1.075771	1.361093	0.722908
H544	H	1.325771	1.611093	0.972908
H545	H	0.575738	0.742389	0.222898
H546	H	0.825738	0.992389	0.472898
H547	H	1.075738	1.242389	0.722898
H548	H	1.325738	1.492389	0.972898
H549	H	0.597110	1.062862	0.268664
H550	H	0.847110	1.312862	0.518664
H551	H	1.097110	1.562862	0.768664
H552	H	1.347110	1.812862	1.018664
H553	H	0.730135	0.189099	0.744619
H554	H	0.980135	0.439099	0.994619
H555	H	1.230135	0.689099	1.244619
H556	H	1.480135	0.939099	1.494619
H557	H	0.597042	0.374634	0.473117
H558	H	0.847042	0.624634	0.723117
H559	H	1.097042	0.874634	0.973117
H560	H	1.347042	1.124634	1.223117
H561	H	0.393051	0.374775	0.268560
H562	H	0.643051	0.624775	0.518560
H563	H	0.893051	0.874775	0.768560
H564	H	1.143051	1.124775	1.018560
H565	H	-0.094252	0.229197	0.164552
H566	H	0.155748	0.479197	0.414552
H567	H	0.405748	0.729197	0.664552
H568	H	0.655748	0.979197	0.914552
H569	H	0.701419	0.229105	0.960433
H570	H	0.951419	0.479105	1.210433
H571	H	1.201419	0.729105	1.460433
H572	H	1.451419	0.979105	1.710433
H573	H	0.701436	1.062812	0.164525
H574	H	0.951436	1.312812	0.414525
H575	H	1.201436	1.562812	0.664525
H576	H	1.451436	1.812812	0.914525
H577	H	0.701288	0.540467	0.164452
H578	H	0.951288	0.790467	0.414452
H579	H	1.201288	1.040467	0.664452
H580	H	1.451288	1.290467	0.914452
H581	H	0.597002	0.659225	0.268611
H582	H	0.847002	0.909225	0.518611
H583	H	1.097002	1.159225	0.768611
H584	H	1.347002	1.409225	1.018611
H585	H	0.262330	0.189016	0.135849
H586	H	0.512330	0.439016	0.385849
H587	H	0.762330	0.689016	0.635849
H588	H	1.012330	0.939016	0.885849
H589	H	0.596970	0.540511	0.268602
H590	H	0.846970	0.790511	0.518602
H591	H	1.096970	1.040511	0.768602
H592	H	1.346970	1.290511	1.018602
H593	H	0.701352	0.229286	0.388038
H594	H	0.951352	0.479286	0.638038
H595	H	1.201352	0.729286	0.888038
H596	H	1.451352	0.979286	1.138038
H597	H	0.701323	0.659176	0.164470
H598	H	0.951323	0.909176	0.414470
H599	H	1.201323	1.159176	0.664470
H600	H	1.451323	1.409176	0.914470
H601	H	0.262340	0.414919	0.297251
H602	H	0.512340	0.664919	0.547251
H603	H	0.762340	0.914919	0.797251
H604	H	1.012340	1.164919	1.047251
H605	H	0.597034	0.374656	0.387994
H606	H	0.847034	0.624656	0.637994
H607	H	1.097034	0.874656	0.887994
H608	H	1.347034	1.124656	1.137994
H609	H	0.730129	0.189117	0.688977
H610	H	0.980129	0.439117	0.938977
H611	H	1.230129	0.689117	1.188977
H612	H	1.480129	0.939117	1.438977
H613	H	0.701357	0.229245	0.473147
H614	H	0.951357	0.479245	0.723147
H615	H	1.201357	0.729245	0.973147
H616	H	1.451357	0.979245	1.223147
H617	H	0.730140	0.189077	0.829737
H618	H	0.980140	0.439077	1.079737
H619	H	1.230140	0.689077	1.329737
H620	H	1.480140	0.939077	1.579737
H621	H	0.036467	0.189054	0.135868
H622	H	0.286467	0.439054	0.385868
H623	H	0.536467	0.689054	0.635868
H624	H	0.786467	0.939054	0.885868
H625	H	0.701424	0.229082	1.045555
H626	H	0.951424	0.479082	1.295555
H627	H	1.201424	0.729082	1.545555
H628	H	1.451424	0.979082	1.795555
H629	H	-0.094235	0.374826	0.268613
H630	H	0.155765	0.624826	0.518613
H631	H	0.405765	0.874826	0.768613
H632	H	0.655765	1.124826	1.018613
H633	H	0.568330	0.414569	0.829665
H634	H	0.818330	0.664569	1.079665
H635	H	1.068330	0.914569	1.329665
H636	H	1.318330	1.164569	1.579665
H637	H	0.597111	0.374460	1.045505
H638	H	0.847111	0.624460	1.295505
H639	H	1.097111	0.874460	1.545505
H640	H	1.347111	1.124460	1.795505
H641	H	0.036476	0.414927	0.297279
H642	H	0.286476	0.664927	0.547279
H643	H	0.536476	0.914927	0.797279
H644	H	0.786476	1.164927	1.047279
H645	H	0.568304	0.414610	0.688909
H646	H	0.818304	0.664610	0.938909
H647	H	1.068304	0.914610	1.188909
H648	H	1.318304	1.164610	1.438909
H649	H	-0.179357	0.374826	0.268621
H650	H	0.070643	0.624826	0.518621
H651	H	0.320643	0.874826	0.768621
H652	H	0.570643	1.124826	1.018621
H653	H	0.177222	0.189030	0.135851
H654	H	0.427222	0.439030	0.385851
H655	H	0.677222	0.689030	0.635851
H656	H	0.927222	0.939030	0.885851
H657	H	0.597094	0.374480	0.960398
H658	H	0.847094	0.624480	1.210398
H659	H	1.097094	0.874480	1.460398
H660	H	1.347094	1.124480	1.710398
H661	H	0.478152	0.229154	0.164481
H662	H	0.728152	0.479154	0.414481
H663	H	0.978152	0.729154	0.664481
H664	H	1.228152	0.979154	0.914481
H665	H	0.121594	0.414927	0.297271
H666	H	0.371594	0.664927	0.547271
H667	H	0.621594	0.914927	0.797271
H668	H	0.871594	1.164927	1.047271
H669	H	0.121572	0.189047	0.135858
H670	H	0.371572	0.439047	0.385858
H671	H	0.621572	0.689047	0.635858
H672	H	0.871572	0.939047	0.885858
H673	H	0.722624	0.742227	0.210199
H674	H	0.972624	0.992227	0.460199
H675	H	1.222624	1.242227	0.710199
H676	H	1.472624	1.492227	0.960199
