data_functionalizedCrystal
_audit_creation_method	'MofGen! by Chris Wilmer'
_symmetry_space_group_name_H-M	'P1'
_symmetry_Int_Tables_number	1
_symmetry_cell_setting	triclinic
loop_
_symmetry_equiv_pos_as_xyz
  x,y,z
_cell_length_a	6.817900
_cell_length_b	7.190334
_cell_length_c	14.125469
_cell_angle_alpha	88.032033
_cell_angle_beta	100.398878
_cell_angle_gamma	60.611776
loop_
_atom_site_label
_atom_site_type_symbol
_atom_site_fract_x
_atom_site_fract_y
_atom_site_fract_z
V1	V	-4.207241	0.664186	-0.131581
O2	O	-4.207673	0.652391	0.007902
O3	O	-4.141795	0.658829	-0.262422
O4	O	-4.244730	0.954233	-0.128864
O5	O	-4.104026	0.354941	-0.126580
V6	V	-4.681949	0.627297	-0.114979
O7	O	-4.487837	0.745106	-0.167999
O8	O	-4.851550	0.546378	-0.078562
O9	O	-4.524189	0.632655	0.015862
O10	O	-4.798914	0.639093	-0.254463
O11	O	-4.902561	0.936542	-0.119980
O12	O	-4.421253	0.337251	-0.117696
C13	C	-3.979870	0.648140	-0.294340
C14	C	-4.008219	0.645693	-0.401300
C15	C	-4.111185	1.024955	-0.123969
C16	C	-4.225108	1.266521	-0.122587
C17	C	-4.060200	0.641244	-0.597136
C18	C	-4.248360	0.650248	-0.649437
C19	C	-4.277284	0.647772	-0.758407
C20	C	-4.031267	0.643719	-0.488156
C21	C	-4.349453	0.643337	0.047774
C22	C	-4.300346	0.645799	0.154733
H23	H	-4.387723	0.659811	-0.612374
F24	F	-3.878046	0.628731	-0.645575
