data_functionalizedCrystal
_audit_creation_method	'MofGen! by Chris Wilmer'
_symmetry_space_group_name_H-M	'P1'
_symmetry_Int_Tables_number	1
_symmetry_cell_setting	triclinic
loop_
_symmetry_equiv_pos_as_xyz
  x,y,z
_cell_length_a	11.792241
_cell_length_b	8.597213
_cell_length_c	7.088929
_cell_angle_alpha	88.663806
_cell_angle_beta	83.733449
_cell_angle_gamma	84.765068
loop_
_atom_site_label
_atom_site_type_symbol
_atom_site_fract_x
_atom_site_fract_y
_atom_site_fract_z
O1	O	0.205124	2.034151	-0.494056
O2	O	0.212771	1.584775	-0.420039
O3	O	0.043980	1.820370	-0.458830
O4	O	0.373916	1.798557	-0.455264
O5	O	0.021370	1.851854	-0.146039
O6	O	0.190161	1.616260	-0.107247
O7	O	0.182514	2.065635	-0.181265
Cu8	Cu	0.184273	1.843822	-0.115696
Cu9	Cu	0.211012	1.806588	-0.485608
O10	O	0.351306	1.830041	-0.142473
C11	C	0.199386	1.542988	-0.254167
C12	C	0.193172	1.371566	-0.225932
C13	C	-0.009642	1.834742	-0.302210
C14	C	-0.135732	1.830641	-0.301536
C15	C	-0.366582	1.823097	-0.300326
C16	C	-0.238120	1.827289	-0.300999
C17	C	0.404928	1.815669	-0.299098
C18	C	0.531018	1.819768	-0.299784
C19	C	0.195900	2.107423	-0.347141
C20	C	0.202114	2.278843	-0.375388
N21	N	0.165466	1.870022	0.144478
N22	N	0.229811	1.780401	-0.745784
H23	H	0.214532	1.330599	-0.524939
O24	O	0.177190	1.302944	-0.027801
H25	H	0.174883	1.174516	-0.035963
O26	O	0.318117	1.657332	0.166350
H27	H	0.316542	1.659479	0.010041
O28	O	0.077141	1.993082	0.232347
H29	H	0.014060	1.936501	0.332879
