data_functionalizedCrystal
_audit_creation_method	'MofGen! by Chris Wilmer'
_symmetry_space_group_name_H-M	'P1'
_symmetry_Int_Tables_number	1
_symmetry_cell_setting	triclinic
loop_
_symmetry_equiv_pos_as_xyz
  x,y,z
_cell_length_a	19.188925
_cell_length_b	23.532407
_cell_length_c	18.266242
_cell_angle_alpha	90.002302
_cell_angle_beta	89.995855
_cell_angle_gamma	97.004348
loop_
_atom_site_label
_atom_site_type_symbol
_atom_site_fract_x
_atom_site_fract_y
_atom_site_fract_z
O1	O	0.084757	-0.755439	-0.060823
O2	O	0.584757	-0.255439	0.439177
O3	O	0.097020	-0.589602	-0.060837
O4	O	0.597020	-0.089602	0.439163
O5	O	-0.010783	-0.677308	-0.060826
O6	O	0.489217	-0.177308	0.439174
O7	O	0.192560	-0.667733	-0.060835
O8	O	0.692560	-0.167733	0.439165
O9	O	-0.010785	-0.677298	0.060936
O10	O	0.489215	-0.177298	0.560936
O11	O	0.097018	-0.589592	0.060925
O12	O	0.597018	-0.089592	0.560925
O13	O	0.084754	-0.755430	0.060939
O14	O	0.584754	-0.255430	0.560939
Zn15	Zn	0.090886	-0.672509	0.080264
Zn16	Zn	0.590886	-0.172509	0.580264
Zn17	Zn	0.090889	-0.672522	-0.080163
Zn18	Zn	0.590889	-0.172522	0.419837
O19	O	0.192557	-0.667723	0.060927
O20	O	0.692557	-0.167723	0.560927
C21	C	-0.036794	-0.676993	0.000055
C22	C	0.463206	-0.176993	0.500055
C23	C	-0.114296	-0.676064	0.000053
C24	C	0.385704	-0.176064	0.500053
C25	C	0.096707	-0.568380	0.000042
C26	C	0.596707	-0.068380	0.500042
C27	C	0.095768	-0.505161	0.000037
C28	C	0.595768	-0.005161	0.500037
C29	C	-0.676210	-0.721305	0.000038
C30	C	-0.176210	-0.221305	0.500038
C31	C	-0.603390	-0.722183	0.000045
C32	C	-0.103390	-0.222183	0.500045
C33	C	-0.558291	-0.670720	0.000040
C34	C	-0.058291	-0.170720	0.500040
C35	C	-0.586018	-0.618375	0.000048
C36	C	-0.086018	-0.118375	0.500048
C37	C	-0.658837	-0.617498	0.000049
C38	C	-0.158837	-0.117498	0.500049
N39	N	-0.437491	-0.633466	-0.041407
N40	N	0.062509	-0.133466	0.458593
N41	N	-0.368316	-0.634302	-0.041409
N42	N	0.131684	-0.134302	0.458591
C43	C	-0.338890	-0.673358	0.000040
C44	C	0.161110	-0.173358	0.500040
N45	N	-0.381254	-0.711555	0.041483
N46	N	0.118746	-0.211555	0.541483
N47	N	-0.450435	-0.710720	0.041482
N48	N	0.049565	-0.210720	0.541482
C49	C	-0.479330	-0.671665	0.000040
C50	C	0.020670	-0.171665	0.500040
C51	C	-0.232211	-0.726652	0.000045
C52	C	0.267789	-0.226652	0.500045
C53	C	-0.159389	-0.727528	0.000056
C54	C	0.340611	-0.227528	0.500056
C55	C	-0.142019	-0.623718	0.000052
C56	C	0.357981	-0.123718	0.500052
C57	C	-0.214840	-0.622844	0.000048
C58	C	0.285160	-0.122844	0.500048
C59	C	-0.259932	-0.674312	0.000041
C60	C	0.240068	-0.174312	0.500041
C61	C	0.028100	-0.238851	0.000056
C62	C	0.528100	0.261149	0.500056
C63	C	0.028973	-0.298253	0.000056
C64	C	0.528973	0.201747	0.500056
O65	O	-0.024707	-0.334884	0.000085
O66	O	0.475293	0.165116	0.500085
N67	N	0.093061	-0.321014	0.000049
N68	N	0.593061	0.178986	0.500049
C69	C	0.156282	-0.284370	0.000048
C70	C	0.656282	0.215630	0.500048
O71	O	0.210875	-0.309185	0.000043
O72	O	0.710875	0.190815	0.500043
C73	C	0.155409	-0.224969	0.000053
C74	C	0.655409	0.275031	0.500053
C75	C	0.091316	-0.202211	0.000053
C76	C	0.591316	0.297789	0.500053
C77	C	-0.035987	-0.216093	0.000057
C78	C	0.464013	0.283907	0.500057
C79	C	-0.036859	-0.156695	0.000055
C80	C	0.463141	0.343305	0.500055
C81	C	0.026357	-0.120055	0.000052
C82	C	0.526357	0.379945	0.500052
C83	C	0.090444	-0.142813	0.000051
C84	C	0.590444	0.357187	0.500051
C85	C	0.218629	-0.188326	0.000057
C86	C	0.718629	0.311674	0.500057
C87	C	0.217751	-0.128922	0.000063
C88	C	0.717751	0.371078	0.500063
C89	C	0.153658	-0.106164	0.000063
C90	C	0.653658	0.393836	0.500063
C91	C	0.152788	-0.046776	0.000046
C92	C	0.652788	0.453224	0.500046
N93	N	0.088699	-0.024014	0.000054
N94	N	0.588699	0.475986	0.500054
C95	C	0.025484	-0.060654	0.000056
C96	C	0.525484	0.439346	0.500056
C97	C	0.158110	-0.409116	0.000040
C98	C	0.658110	0.090884	0.500040
C99	C	0.158984	-0.468516	0.000030
C100	C	0.658984	0.031484	0.500030
C101	C	0.031674	-0.482395	0.000039
C102	C	0.531674	0.017605	0.500039
C103	C	0.030801	-0.422994	0.000044
C104	C	0.530801	0.077006	0.500044
C105	C	0.094022	-0.386355	0.000047
C106	C	0.594022	0.113645	0.500047
C107	C	0.023657	0.064086	0.000052
C108	C	0.523657	0.564086	0.500052
C109	C	0.022791	0.123490	0.000047
C110	C	0.522791	0.623490	0.500047
C111	C	0.150100	0.137364	0.000041
C112	C	0.650100	0.637364	0.500041
C113	C	0.150967	0.077965	0.000042
C114	C	0.650967	0.577965	0.500042
C115	C	0.087740	0.041328	0.000050
C116	C	0.587740	0.541328	0.500050
O117	O	0.206440	-0.010110	0.000021
O118	O	0.706440	0.489890	0.500021
O119	O	-0.029100	-0.035831	0.000072
O120	O	0.470900	0.464169	0.500072
C121	C	0.218569	-0.668038	0.000045
C122	C	0.718569	-0.168038	0.500045
C123	C	0.296070	-0.668967	0.000042
C124	C	0.796070	-0.168967	0.500042
C125	C	0.085068	0.223349	0.000054
C126	C	0.585068	0.723349	0.500054
C127	C	0.086007	0.160130	0.000044
C128	C	0.586007	0.660130	0.500044
N129	N	0.090883	-0.672505	0.189751
N130	N	0.590883	-0.172505	0.689751
N131	N	0.090886	-0.672531	-0.189650
N132	N	0.590886	-0.172531	0.310350
C133	C	0.043164	-0.711368	0.772033
C134	C	0.543164	-0.211368	1.272033
C135	C	0.043166	-0.711369	0.695388
C136	C	0.543166	-0.211369	1.195388
C137	C	0.090883	-0.672522	0.657063
C138	C	0.590883	-0.172522	1.157063
C139	C	0.138614	-0.633682	0.695390
C140	C	0.638614	-0.133682	1.195390
C141	C	0.138616	-0.633686	0.772033
C142	C	0.638616	-0.133686	1.272033
N143	N	0.100092	-0.622103	0.536732
N144	N	0.600092	-0.122103	1.036732
N145	N	0.100086	-0.622101	0.463924
N146	N	0.600086	-0.122101	0.963924
C147	C	0.090881	-0.672508	0.426141
C148	C	0.590881	-0.172508	0.926141
N149	N	0.081669	-0.722920	0.463916
N150	N	0.581669	-0.222920	0.963916
N151	N	0.081671	-0.722921	0.536731
N152	N	0.581671	-0.222921	1.036731
C153	C	0.090886	-0.672514	0.573956
C154	C	0.590886	-0.172514	1.073956
C155	C	0.043158	-0.711349	0.304717
C156	C	0.543158	-0.211349	0.804717
C157	C	0.043165	-0.711351	0.228070
C158	C	0.543165	-0.211351	0.728070
C159	C	0.138610	-0.633660	0.228073
C160	C	0.638610	-0.133660	0.728073
C161	C	0.138607	-0.633663	0.304718
C162	C	0.638607	-0.133663	0.804718
C163	C	0.090877	-0.672507	0.343035
C164	C	0.590877	-0.172507	0.843035
H165	H	-0.712920	-0.763215	0.000037
H166	H	-0.212920	-0.263215	0.500037
H167	H	0.177464	-0.602033	0.196870
H168	H	0.677464	-0.102033	0.696870
H169	H	-0.681405	-0.574877	0.000053
H170	H	-0.181405	-0.074877	0.500053
N171	N	-0.095961	-0.571149	0.000034
N172	N	0.404039	-0.071149	0.500034
N173	N	-0.098274	-0.536302	-0.051295
N174	N	0.401726	-0.036302	0.448705
H175	H	-0.065742	-0.499173	-0.051307
H176	H	0.434258	0.000827	0.448693
N177	N	-0.040926	0.026667	0.000072
N178	N	0.459074	0.526667	0.500072
N179	N	-0.083644	0.028660	0.051400
N180	N	0.416356	0.528660	0.551400
H181	H	-0.129256	0.002232	0.051412
H182	H	0.370744	0.502232	0.551412
H183	H	0.211175	-0.487040	0.000020
H184	H	0.711175	0.012960	0.500020
H185	H	0.004303	-0.742996	0.664185
H186	H	0.504303	-0.242996	1.164185
H187	H	0.004296	-0.742981	0.335916
H188	H	0.504296	-0.242981	0.835916
H189	H	0.209595	-0.379287	0.000037
H190	H	0.709595	0.120713	0.500037
H191	H	-0.580816	-0.764805	0.000042
H192	H	-0.080816	-0.264805	0.500042
N193	N	-0.539943	-0.565812	0.000034
N194	N	-0.039943	-0.065812	0.500034
N195	N	-0.497370	-0.554726	-0.051295
N196	N	0.002630	-0.054726	0.448705
H197	H	-0.464828	-0.517602	-0.051304
H198	H	0.035172	-0.017602	0.448696
N199	N	0.187339	-0.593977	0.343861
N200	N	0.687339	-0.093977	0.843861
N201	N	0.165405	-0.558685	0.386632
N202	N	0.665405	-0.058685	0.886632
H203	H	0.199824	-0.530655	0.414277
H204	H	0.699824	-0.030655	0.914277
N205	N	-0.102323	-0.133443	0.000078
N206	N	0.397677	0.366557	0.500078
N207	N	-0.103106	-0.080408	0.000089
N208	N	0.396894	0.419592	0.500089
H209	H	-0.149343	-0.063989	0.000111
H210	H	0.350657	0.436011	0.500111
N211	N	-0.278286	-0.779218	0.000040
N212	N	0.221714	-0.279218	0.500040
N213	N	-0.320853	-0.790312	-0.051287
N214	N	0.179147	-0.290312	0.448713
H215	H	-0.353392	-0.827437	-0.051291
H216	H	0.146608	-0.327437	0.448709
H217	H	-0.136823	-0.770149	0.000058
H218	H	0.363177	-0.270149	0.500058
N219	N	0.284106	-0.211553	0.000053
N220	N	0.784106	0.288447	0.500053
N221	N	0.340537	-0.178822	0.000054
N222	N	0.840537	0.321178	0.500054
H223	H	0.386785	-0.195224	0.000051
H224	H	0.886785	0.304776	0.500051
H225	H	-0.237408	-0.580224	0.000046
H226	H	0.262592	-0.080224	0.500046
H227	H	0.269234	-0.099092	0.000069
H228	H	0.769234	0.400908	0.500069
H229	H	-0.029403	0.142016	0.000045
H230	H	0.470597	0.642016	0.500045
H231	H	-0.087468	-0.245920	0.000061
H232	H	0.412532	0.254080	0.500061
N233	N	0.216441	0.054725	0.000032
N234	N	0.716441	0.554725	0.500032
N235	N	0.272878	0.087448	0.000027
N236	N	0.772878	0.587448	0.500027
H237	H	0.319121	0.071039	0.000027
H238	H	0.819121	0.571039	0.500027
H239	H	0.201569	0.167207	0.000035
H240	H	0.701569	0.667207	0.500035
H241	H	-0.021389	-0.404469	0.000045
H242	H	0.478611	0.095531	0.500045
H243	H	0.177467	-0.602054	0.664182
H244	H	0.677467	-0.102054	1.164182
N245	N	-0.032901	-0.519828	0.000065
N246	N	0.467099	-0.019828	0.500065
N247	N	-0.075615	-0.517844	0.051399
N248	N	0.424385	-0.017844	0.551399
H249	H	-0.121219	-0.544282	0.051418
H250	H	0.378781	-0.044282	0.551418
N251	N	0.187371	-0.594011	0.811166
N252	N	0.687371	-0.094011	1.311166
N253	N	0.229978	-0.559331	0.776943
N254	N	0.729978	-0.059331	1.276943
H255	H	0.264412	-0.531309	0.804581
H256	H	0.764412	-0.031309	1.304581
N257	N	-0.005557	-0.751055	0.188939
N258	N	0.494443	-0.251055	0.688939
N259	N	-0.048145	-0.785748	0.223164
N260	N	0.451855	-0.285748	0.723164
H261	H	-0.082546	-0.813799	0.195527
H262	H	0.417454	-0.313799	0.695527
H263	H	0.004302	-0.742998	0.803229
H264	H	0.504302	-0.242998	1.303229
