data_functionalizedCrystal
_audit_creation_method	'MofGen! by Chris Wilmer'
_symmetry_space_group_name_H-M	'P1'
_symmetry_Int_Tables_number	1
_symmetry_cell_setting	triclinic
loop_
_symmetry_equiv_pos_as_xyz
  x,y,z
_cell_length_a	12.594517
_cell_length_b	17.640280
_cell_length_c	17.640968
_cell_angle_alpha	114.317439
_cell_angle_beta	101.225097
_cell_angle_gamma	78.800041
loop_
_atom_site_label
_atom_site_type_symbol
_atom_site_fract_x
_atom_site_fract_y
_atom_site_fract_z
Zn1	Zn	-1.799773	0.233851	-0.399738
Zn2	Zn	-1.799686	0.399519	-0.234099
Zn3	Zn	-1.591856	0.261738	-0.261935
Zn4	Zn	-1.651690	0.371617	-0.371875
O5	O	-1.710751	0.316681	-0.316912
O6	O	-1.948712	0.255834	-0.377777
O7	O	-1.747040	0.404591	-0.122461
O8	O	-1.594432	0.142721	-0.303524
O9	O	-1.948648	0.377550	-0.256083
O10	O	-1.747188	0.122233	-0.404768
O11	O	-1.594348	0.303364	-0.142911
O12	O	-1.450843	0.276307	-0.276507
O13	O	-1.696411	0.329993	-0.490902
O14	O	-1.494803	0.357034	-0.357280
O15	O	-1.805207	0.228777	-0.511373
O16	O	-1.805059	0.511136	-0.229066
O17	O	-1.696327	0.490635	-0.330289
C18	C	-1.434202	0.316670	-0.316891
C19	C	-1.315901	0.316681	-0.316897
C20	C	-1.757493	0.273162	-0.531878
C21	C	-1.777412	0.254617	-0.623484
C22	C	-1.988381	0.316693	-0.316933
C23	C	-2.106691	0.316699	-0.316942
C24	C	-1.222713	0.272677	-0.273085
C25	C	-1.163836	0.351940	-0.237633
C26	C	-1.163990	0.237451	-0.352357
C27	C	-1.258582	0.395991	-0.281398
C28	C	-1.258739	0.281445	-0.396167
C29	C	-1.199911	0.360754	-0.360732
C30	C	-1.757209	0.530782	-0.273652
C31	C	-1.777187	0.622370	-0.255172
C32	C	-1.664145	0.101741	-0.360359
C33	C	-1.644285	0.010146	-0.378874
C34	C	-1.559482	0.870424	-0.457597
C35	C	-1.578251	0.956490	-0.440207
C36	C	-1.691581	0.977749	-0.334910
C37	C	-1.672826	0.891683	-0.352294
C38	C	-1.606775	0.838027	-0.413638
C39	C	-1.720118	0.859286	-0.308335
C40	C	-1.701360	0.773228	-0.325715
C41	C	-1.635309	0.719566	-0.387055
C42	C	-1.588016	0.751968	-0.431018
C43	C	-1.786163	0.912945	-0.246987
C44	C	-1.833456	0.880548	-0.203028
C45	C	-1.814704	0.794487	-0.220412
C46	C	-1.748653	0.740826	-0.281751
C47	C	-1.861997	0.762085	-0.176448
C48	C	-1.843238	0.676027	-0.193828
C49	C	-1.729894	0.654767	-0.299131
C50	C	-1.559743	0.457119	-0.871472
C51	C	-1.578480	0.439683	-0.957552
C52	C	-1.691759	0.334296	-0.978855
C53	C	-1.673028	0.351721	-0.892776
C54	C	-1.607020	0.413134	-0.839091
C55	C	-1.720304	0.307735	-0.860395
C56	C	-1.701579	0.325162	-0.774323
C57	C	-1.635576	0.386574	-0.720632
C58	C	-1.588294	0.430561	-0.753019
C59	C	-1.786318	0.246326	-0.914082
C60	C	-1.833595	0.202341	-0.881701
C61	C	-1.814863	0.219763	-0.795628
C62	C	-1.748861	0.281175	-0.741937
C63	C	-1.862145	0.175777	-0.763241
C64	C	-1.843420	0.193203	-0.677169
C65	C	-1.730135	0.298602	-0.655865
C66	C	-1.664240	0.359972	-0.102794
C67	C	-1.644477	0.378285	-0.011236
H68	H	-1.233511	0.235521	-0.235968
H69	H	-1.881915	0.157385	-0.650805
H70	H	-1.122551	0.381754	-0.170614
H71	H	-1.745356	1.021448	-0.284961
H72	H	-1.676355	0.348591	-0.612154
H73	H	-1.801565	0.232141	-0.984166
H74	H	-1.534240	0.708277	-0.480977
H75	H	-1.620336	0.400765	-0.650547
H76	H	-1.122770	0.170454	-0.382298
H77	H	-1.299601	0.463035	-0.251352
H78	H	-1.189325	0.398028	-0.397791
H79	H	-1.300040	0.251612	-0.463171
O80	O	-1.897645	0.142687	-0.933975
C81	C	-1.904062	0.136753	-1.016886
H82	H	-1.830333	0.161361	-1.023187
H83	H	-1.982030	0.175692	-1.032440
C84	C	-1.995901	0.014203	-1.070191
C85	C	-1.905341	0.044421	-1.077932
H86	H	-1.996694	-0.042750	-1.107848
H87	H	-1.991581	0.018203	-1.014332
H88	H	-2.060864	0.046661	-1.083151
H89	H	-1.840379	0.011970	-1.064961
H90	H	-1.909649	0.040414	-1.133790
O91	O	-1.665843	0.602700	-0.358826
C92	C	-1.711488	0.607048	-0.436747
H93	H	-1.766382	0.669161	-0.425869
H94	H	-1.761675	0.552955	-0.474322
C95	C	-1.551976	0.524676	-0.499160
C96	C	-1.619392	0.600967	-0.485799
H97	H	-1.495169	0.520921	-0.529421
H98	H	-1.521226	0.521743	-0.446665
H99	H	-1.593812	0.479607	-0.530470
H100	H	-1.577559	0.646034	-0.454482
H101	H	-1.650134	0.603907	-0.538291
H102	H	-1.620029	0.649494	-0.401199
H103	H	-1.505706	0.826732	-0.507556
H104	H	-1.539750	0.982860	-0.476018
H105	H	-1.801437	0.983018	-0.232840
H106	H	-1.887231	0.924246	-0.153079
O107	O	-1.926170	0.116030	-0.815328
C108	C	-1.880510	0.038147	-0.810921
H109	H	-1.825622	0.049083	-0.748774
H110	H	-1.830312	0.000584	-0.864976
C111	C	-2.040000	-0.024390	-0.893364
C112	C	-1.972594	-0.010958	-0.817032
H113	H	-2.096801	-0.054683	-0.897137
H114	H	-2.070762	0.028080	-0.896336
H115	H	-1.998156	-0.055690	-0.938402
H116	H	-2.014435	0.020349	-0.771995
H117	H	-1.941842	-0.063425	-0.814052
O118	O	-1.889296	0.644683	-0.151074
C119	C	-1.951594	0.710498	-0.093190
H120	H	-1.975963	0.765000	-0.114562
H121	H	-1.901066	0.732365	-0.028714
C122	C	-2.025048	0.612287	-0.061936
C123	C	-2.054988	0.679225	-0.088189
H124	H	-2.088824	0.592996	-0.058848
H125	H	-1.983074	0.567946	-0.100931
H126	H	-1.982940	0.630519	-0.008208
H127	H	-2.097082	0.660990	-0.141920
H128	H	-2.096971	0.723562	-0.049203
H129	H	-1.915766	0.805786	-0.126496
H130	H	-1.534514	0.480550	-0.709308
H131	H	-1.505963	0.507109	-0.827762
H132	H	-1.539977	0.475506	-0.983911
O133	O	-1.755809	0.274642	-1.031130
C134	C	-1.762227	0.268708	-1.114041
H135	H	-1.688498	0.293316	-1.120342
H136	H	-1.840195	0.307647	-1.129595
C137	C	-1.854065	0.146158	-1.167346
C138	C	-1.763505	0.176376	-1.175087
H139	H	-1.854859	0.089205	-1.205003
H140	H	-1.849746	0.150158	-1.111487
H141	H	-1.919029	0.178616	-1.180306
H142	H	-1.698543	0.143925	-1.162116
H143	H	-1.767814	0.172369	-1.230945
