data_functionalizedCrystal
_audit_creation_method	'MofGen! by Chris Wilmer'
_symmetry_space_group_name_H-M	'P1'
_symmetry_Int_Tables_number	1
_symmetry_cell_setting	triclinic
loop_
_symmetry_equiv_pos_as_xyz
  x,y,z
_cell_length_a	15.944551
_cell_length_b	17.699083
_cell_length_c	16.176319
_cell_angle_alpha	90.007696
_cell_angle_beta	90.002924
_cell_angle_gamma	83.390876
loop_
_atom_site_label
_atom_site_type_symbol
_atom_site_fract_x
_atom_site_fract_y
_atom_site_fract_z
O1	O	-1.114322	-0.097616	-0.068662
O2	O	-0.614322	0.402384	0.431338
O3	O	-0.869747	-0.109651	-0.068683
O4	O	-0.369747	0.390349	0.431317
O5	O	-0.998945	0.006544	-0.068665
O6	O	-0.498945	0.506544	0.431335
O7	O	-0.985125	-0.213811	-0.068680
O8	O	-0.485125	0.286189	0.431320
O9	O	-0.998927	0.006551	0.068829
O10	O	-0.498927	0.506551	0.568829
O11	O	-0.869729	-0.109643	0.068810
O12	O	-0.369729	0.390357	0.568810
O13	O	-1.114304	-0.097609	0.068831
O14	O	-0.614304	0.402391	0.568831
Cu15	Cu	-0.992015	-0.103625	0.081375
Cu16	Cu	-0.492015	0.396375	0.581375
Cu17	Cu	-0.992036	-0.103634	-0.081227
Cu18	Cu	-0.492036	0.396366	0.418773
O19	O	-0.985107	-0.213803	0.068813
O20	O	-0.485107	0.286197	0.568813
C21	C	-0.838445	-0.109147	0.000061
C22	C	-0.338445	0.390853	0.500061
C23	C	-0.745203	-0.107650	0.000054
C24	C	-0.245203	0.392350	0.500054
C25	C	-1.145606	-0.098112	0.000085
C26	C	-0.645606	0.401888	0.500085
C27	C	-1.238849	-0.099610	0.000088
C28	C	-0.738849	0.400390	0.500088
C29	C	-0.530505	-0.032046	0.000075
C30	C	-0.030505	0.467954	0.500075
C31	C	-0.469420	-0.067158	-0.067719
C32	C	0.030580	0.432842	0.432281
C33	C	-0.574482	-0.104940	0.000063
C34	C	-0.074482	0.395060	0.500063
C35	C	-0.469424	-0.067168	0.067839
C36	C	0.030576	0.432832	0.567839
C37	C	-0.409575	-0.102317	0.000077
C38	C	0.090425	0.397683	0.500077
C39	C	-0.514625	-0.140071	-0.067786
C40	C	-0.014625	0.359929	0.432214
C41	C	-0.514636	-0.140071	0.067832
C42	C	-0.014636	0.359929	0.567832
C43	C	-0.453569	-0.175235	0.000022
C44	C	0.046431	0.324765	0.500022
C45	C	-0.669481	-0.106449	0.000055
C46	C	-0.169481	0.393551	0.500055
C47	C	-0.314577	-0.100814	0.000079
C48	C	0.185423	0.399186	0.500079
C49	C	-0.998440	0.034746	0.000082
C50	C	-0.498440	0.534746	0.500082
C51	C	-0.996955	0.118766	0.000082
C52	C	-0.496955	0.618766	0.500082
C53	C	-0.985611	-0.242005	0.000064
C54	C	-0.485611	0.257995	0.500064
C55	C	-0.987097	-0.326026	0.000059
C56	C	-0.487097	0.173974	0.500059
N57	N	-0.992007	-0.103619	0.195740
N58	N	-0.492007	0.396381	0.695740
C59	C	-1.072791	0.167258	0.000090
C60	C	-0.572791	0.667258	0.500090
C61	C	-1.071390	0.246203	0.000083
C62	C	-0.571390	0.746203	0.500083
C63	C	-0.994152	0.276656	0.000073
C64	C	-0.494152	0.776656	0.500073
C65	C	-0.918310	0.228158	0.000063
C66	C	-0.418310	0.728158	0.500063
C67	C	-0.919712	0.149214	0.000065
C68	C	-0.419712	0.649214	0.500065
C69	C	-0.912656	0.546531	0.000056
C70	C	-0.412656	1.046531	0.500056
C71	C	-0.911260	0.625481	0.000057
C72	C	-0.411260	1.125481	0.500057
C73	C	-1.064334	0.643520	0.000074
C74	C	-0.564334	1.143520	0.500074
C75	C	-1.065735	0.564576	0.000075
C76	C	-0.565735	1.064576	0.500075
C77	C	-0.989894	0.516085	0.000061
C78	C	-0.489894	1.016085	0.500061
C79	C	-0.991414	0.430484	0.000067
C80	C	-0.491414	0.930484	0.500067
C81	C	-0.992632	0.362256	0.000073
C82	C	-0.492632	0.862256	0.500073
N83	N	-0.992052	-0.103635	-0.195592
N84	N	-0.492052	0.396365	0.304408
C85	C	-1.049232	-0.052189	0.239013
C86	C	-0.549232	0.447811	0.739013
C87	C	-1.049237	-0.052188	0.325560
C88	C	-0.549237	0.447812	0.825560
C89	C	-0.992019	-0.103621	0.368833
C90	C	-0.492019	0.396379	0.868833
C91	C	-0.934787	-0.155054	0.325554
C92	C	-0.434787	0.344946	0.825554
C93	C	-0.934779	-0.155050	0.239009
C94	C	-0.434779	0.344950	0.739009
C95	C	-0.934815	-0.155068	0.674583
C96	C	-0.434815	0.344932	1.174583
C97	C	-0.934829	-0.155069	0.761134
C98	C	-0.434829	0.344931	1.261134
C99	C	-1.049273	-0.052205	0.761133
C100	C	-0.549273	0.447795	1.261133
C101	C	-1.049265	-0.052202	0.674588
C102	C	-0.549265	0.447798	1.174588
C103	C	-0.992031	-0.103631	0.631317
C104	C	-0.492031	0.396369	1.131317
C105	C	-0.992026	-0.103631	0.537473
C106	C	-0.492026	0.396369	1.037473
C107	C	-0.992027	-0.103626	0.462675
C108	C	-0.492027	0.396374	0.962675
H109	H	-0.449382	-0.036330	-0.125030
H110	H	0.050618	0.463670	0.374970
H111	H	-0.848360	0.650272	0.000051
H112	H	-0.348360	1.150272	0.500051
H113	H	-0.888232	-0.196954	0.796366
H114	H	-0.388232	0.303046	1.296366
C115	C	-1.163468	-0.035667	0.577068
C116	C	-0.663468	0.464333	1.077068
C117	C	-1.112013	0.004404	0.626942
C118	C	-0.612013	0.504404	1.126942
H119	H	-1.202163	-0.000698	0.547635
H120	H	-0.702163	0.499302	1.047635
H121	H	-1.129377	-0.066360	0.538979
H122	H	-0.629377	0.433640	1.038979
H123	H	-1.193769	-0.067111	0.610771
H124	H	-0.693769	0.432889	1.110771
H125	H	-1.081707	0.035843	0.593238
H126	H	-0.581707	0.535843	1.093238
H127	H	-1.146108	0.035109	0.665035
H128	H	-0.646108	0.535109	1.165035
H129	H	-0.850901	0.507059	0.000045
H130	H	-0.350901	1.007059	0.500045
C131	C	-0.354613	-0.025170	0.144772
C132	C	0.145387	0.474830	0.644772
C133	C	-0.442385	-0.025531	0.145211
C134	C	0.057615	0.474469	0.645211
H135	H	-0.337925	0.000542	0.192533
H136	H	0.162075	0.500542	0.692533
H137	H	-0.328010	-0.076024	0.144859
H138	H	0.171990	0.423976	0.644859
H139	H	-0.338383	0.000227	0.096630
H140	H	0.161617	0.500227	0.596630
H141	H	-0.458615	-0.050934	0.193350
H142	H	0.041385	0.449066	0.693350
H143	H	-0.468997	0.025332	0.145132
H144	H	0.031003	0.525332	0.645132
C145	C	-0.848190	0.341163	0.000063
C146	C	-0.348190	0.841163	0.500063
C147	C	-0.833408	0.261630	0.000056
C148	C	-0.333408	0.761630	0.500056
H149	H	-0.795773	0.361823	0.000066
H150	H	-0.295773	0.861823	0.500066
H151	H	-0.879408	0.357798	-0.047878
H152	H	-0.379408	0.857798	0.452122
H153	H	-0.879405	0.357803	0.048016
H154	H	-0.379405	0.857803	0.548016
H155	H	-0.802199	0.244989	-0.047900
H156	H	-0.302199	0.744989	0.452100
H157	H	-0.802177	0.244988	0.048003
H158	H	-0.302177	0.744988	0.548003
H159	H	-0.857958	0.109733	0.000058
H160	H	-0.357958	0.609733	0.500058
C161	C	-0.625676	0.061170	0.071023
C162	C	-0.125676	0.561170	0.571023
C163	C	-0.575647	0.049630	-0.000004
C164	C	-0.075647	0.549630	0.499996
H165	H	-0.653541	0.111594	0.070972
H166	H	-0.153541	0.611594	0.570972
H167	H	-0.666450	0.026048	0.071542
H168	H	-0.166450	0.526048	0.571542
H169	H	-0.590963	0.053706	0.118725
H170	H	-0.090963	0.553706	0.618725
H171	H	-0.610361	0.057089	-0.047707
H172	H	-0.110361	0.557089	0.452293
H173	H	-0.534868	0.084762	-0.000531
H174	H	-0.034868	0.584762	0.499469
C175	C	-0.519183	-0.143364	0.216128
C176	C	-0.019183	0.356636	0.716128
C177	C	-0.541731	-0.181650	0.145200
C178	C	-0.041731	0.318350	0.645200
H179	H	-0.535918	-0.169027	0.263896
H180	H	-0.035918	0.330973	0.763896
H181	H	-0.459764	-0.142318	0.216962
H182	H	0.040236	0.357682	0.716962
H183	H	-0.546590	-0.092784	0.215635
H184	H	-0.046590	0.407216	0.715635
H185	H	-0.514319	-0.232229	0.145691
H186	H	-0.014319	0.267771	0.645691
H187	H	-0.601161	-0.182704	0.144367
H188	H	-0.101161	0.317296	0.644367
C189	C	-1.162400	0.049479	0.752438
C190	C	-0.662400	0.549479	1.252438
C191	C	-1.112179	0.004338	0.808698
C192	C	-0.612179	0.504338	1.308698
H193	H	-1.201237	0.084382	0.781802
H194	H	-0.701237	0.584382	1.281802
H195	H	-1.127492	0.076721	0.718691
H196	H	-0.627492	0.576721	1.218691
H197	H	-1.192543	0.017947	0.718673
H198	H	-0.692543	0.517947	1.218673
H199	H	-1.082032	0.035870	0.842459
H200	H	-0.582032	0.535870	1.342459
H201	H	-1.147092	-0.022906	0.842459
H202	H	-0.647092	0.477094	1.342459
H203	H	-0.534556	-0.170882	-0.125163
H204	H	-0.034556	0.329118	0.374837
C205	C	-1.158602	0.345469	0.070763
C206	C	-0.658602	0.845469	0.570763
C207	C	-1.154748	0.299511	0.000089
C208	C	-0.654748	0.799511	0.500089
H209	H	-1.210064	0.378383	0.070760
H210	H	-0.710064	0.878383	0.570760
H211	H	-1.155967	0.314307	0.118704
H212	H	-0.655967	0.814307	0.618704
H213	H	-1.112395	0.374896	0.070746
H214	H	-0.612395	0.874896	0.570746
H215	H	-1.200952	0.270080	0.000109
H216	H	-0.700952	0.770080	0.500109
H217	H	-1.157391	0.330677	-0.047864
H218	H	-0.657391	0.830677	0.452136
H219	H	-1.135687	0.142470	0.000102
H220	H	-0.635687	0.642470	0.500102
H221	H	-0.420283	-0.235793	-0.000021
H222	H	0.079717	0.264207	0.499979
C223	C	-1.162354	0.049496	0.247714
C224	C	-0.662354	0.549496	0.747714
C225	C	-1.112128	0.004351	0.191451
C226	C	-0.612128	0.504351	0.691451
H227	H	-1.201178	0.084406	0.218351
H228	H	-0.701178	0.584406	0.718351
H229	H	-1.192502	0.017972	0.281456
H230	H	-0.692502	0.517972	0.781456
H231	H	-1.127441	0.076736	0.281482
H232	H	-0.627441	0.576736	0.781482
H233	H	-1.147041	-0.022894	0.157686
H234	H	-0.647041	0.477106	0.657686
H235	H	-1.081977	0.035879	0.157694
H236	H	-0.581977	0.535879	0.657694
C237	C	-0.821698	-0.256752	0.683289
C238	C	-0.321698	0.243248	1.183289
C239	C	-0.871911	-0.211604	0.627027
C240	C	-0.371911	0.288396	1.127027
H241	H	-0.782866	-0.291660	0.653926
H242	H	-0.282866	0.208340	1.153926
H243	H	-0.791558	-0.225230	0.717054
H244	H	-0.291558	0.274770	1.217054
H245	H	-0.856619	-0.283995	0.717035
H246	H	-0.356619	0.216005	1.217035
H247	H	-0.836991	-0.184357	0.593285
H248	H	-0.336991	0.315643	1.093285
H249	H	-0.902053	-0.243131	0.593247
H250	H	-0.402053	0.256869	1.093247
H251	H	-1.126087	0.683011	0.000081
H252	H	-0.626087	1.183011	0.500081
H253	H	-1.128630	0.539786	0.000087
H254	H	-0.628630	1.039786	0.500087
H255	H	-1.095834	-0.010309	0.360791
H256	H	-0.595834	0.489691	0.860791
C257	C	-0.883987	-0.200740	0.458221
C258	C	-0.383987	0.299260	0.958221
C259	C	-0.871892	-0.211593	0.373119
C260	C	-0.371892	0.288407	0.873119
H261	H	-0.845161	-0.235651	0.487582
H262	H	-0.345161	0.264349	0.987582
H263	H	-0.874969	-0.150229	0.472414
H264	H	-0.374969	0.349771	0.972414
H265	H	-0.940030	-0.208994	0.472384
H266	H	-0.440030	0.291006	0.972384
H267	H	-0.815851	-0.203334	0.358955
H268	H	-0.315851	0.296666	0.858955
H269	H	-0.880903	-0.262116	0.358920
H270	H	-0.380903	0.237884	0.858920
H271	H	-0.888179	-0.196929	0.203777
H272	H	-0.388179	0.303071	0.703777
