data_functionalizedCrystal
_audit_creation_method	'MofGen! by Chris Wilmer'
_symmetry_space_group_name_H-M	'P1'
_symmetry_Int_Tables_number	1
_symmetry_cell_setting	triclinic
loop_
_symmetry_equiv_pos_as_xyz
  x,y,z
_cell_length_a	10.723023
_cell_length_b	10.540539
_cell_length_c	9.198806
_cell_angle_alpha	89.998955
_cell_angle_beta	89.996191
_cell_angle_gamma	84.496520
loop_
_atom_site_label
_atom_site_type_symbol
_atom_site_fract_x
_atom_site_fract_y
_atom_site_fract_z
O1	O	1.657277	0.178041	-0.120881
O2	O	1.294133	0.195085	-0.120884
O3	O	1.483990	0.001852	-0.120881
O4	O	1.467420	0.371274	-0.120884
O5	O	1.483975	0.001852	0.120904
O6	O	1.294118	0.195084	0.120901
O7	O	1.657262	0.178041	0.120904
Cu8	Cu	1.475688	0.186562	0.142979
Cu9	Cu	1.475706	0.186563	-0.142959
O10	O	1.467405	0.371273	0.120901
C11	C	1.247625	0.193844	0.000008
C12	C	1.109069	0.190134	0.000007
C13	C	0.904090	0.184645	0.125253
C14	C	1.047295	0.188480	0.125257
C15	C	1.482739	-0.045450	0.000009
C16	C	1.479022	-0.186397	0.000001
C17	C	1.336564	-0.369750	-0.000542
C18	C	1.340333	-0.223134	0.000002
C19	C	1.545757	-0.248089	0.138073
C20	C	1.541023	-0.394631	0.138189
C21	C	1.543861	-0.395150	-0.136765
C22	C	1.545139	-0.248169	-0.138591
C23	C	1.703769	0.179281	0.000009
C24	C	1.842326	0.182991	0.000001
C25	C	1.468655	0.418576	0.000008
C26	C	1.472373	0.559522	0.000006
N27	N	1.475685	0.186561	0.344093
N28	N	1.475719	0.186554	-0.344073
C29	C	1.555400	0.105071	0.416292
C30	C	1.555419	0.105066	0.583704
H31	H	1.287822	-0.180503	-0.098974
Cl32	Cl	1.370326	0.294270	0.440002
H33	H	1.623629	0.035301	0.354167
H34	H	0.850950	0.183229	0.232483
Cl35	Cl	1.470381	-0.184299	-0.296316
Cl36	Cl	1.129296	0.190666	0.290826
Cl37	Cl	1.474557	-0.443809	-0.298338
H38	H	1.055961	0.188709	-0.107232
H39	H	1.287441	-0.181350	0.099141
Cl40	Cl	0.924358	0.185198	-0.165563
H41	H	1.281785	-0.398321	-0.099556
Cl42	Cl	1.252074	-0.416887	0.151019
Cl43	Cl	1.464850	-0.438135	0.297533
H44	H	1.640766	-0.442651	0.144454
H45	H	1.647606	-0.225788	0.143208
H46	H	1.623672	0.035303	0.645792
Cl47	Cl	1.370348	0.294285	0.560084
H48	H	1.499386	-0.205466	0.240821
H49	H	1.644036	-0.442428	-0.137693
Cl50	Cl	1.701254	-0.210849	-0.151473
