data_functionalizedCrystal
_audit_creation_method	'MofGen! by Chris Wilmer'
_symmetry_space_group_name_H-M	'P1'
_symmetry_Int_Tables_number	1
_symmetry_cell_setting	triclinic
loop_
_symmetry_equiv_pos_as_xyz
  x,y,z
_cell_length_a	10.654550
_cell_length_b	17.699083
_cell_length_c	9.730223
_cell_angle_alpha	89.997786
_cell_angle_beta	89.996251
_cell_angle_gamma	83.883958
loop_
_atom_site_label
_atom_site_type_symbol
_atom_site_fract_x
_atom_site_fract_y
_atom_site_fract_z
O1	O	1.665973	0.106299	-0.114406
O2	O	1.300318	0.116427	-0.114384
O3	O	1.493476	0.001240	-0.114384
O4	O	1.472815	0.221487	-0.114407
O5	O	1.493474	0.001243	0.114196
O6	O	1.300315	0.116430	0.114196
O7	O	1.665971	0.106302	0.114174
Zn8	Zn	1.483143	0.111366	0.150477
Zn9	Zn	1.483146	0.111363	-0.150687
O10	O	1.472813	0.221490	0.114173
C11	C	1.253531	0.115685	-0.000091
C12	C	1.114127	0.113460	-0.000083
C13	C	1.033454	0.181281	-0.000110
C14	C	0.902470	0.179185	-0.000133
C15	C	0.932845	0.041443	-0.000108
C16	C	1.063826	0.043539	-0.000075
C17	C	1.015917	0.260805	-0.000130
C18	C	0.884933	0.258710	-0.000154
C19	C	1.492735	-0.026961	-0.000093
C20	C	1.490514	-0.110993	-0.000093
C21	C	1.603894	-0.158893	-0.000097
C22	C	1.601799	-0.237850	-0.000109
C23	C	1.486324	-0.268905	-0.000107
C24	C	1.372935	-0.220998	-0.000106
C25	C	1.375031	-0.142043	-0.000104
C26	C	1.364481	-0.539415	-0.000117
C27	C	1.362394	-0.618376	-0.000115
C28	C	1.591249	-0.635222	-0.000122
C29	C	1.593345	-0.556266	-0.000120
C30	C	1.479957	-0.508367	-0.000127
C31	C	1.482229	-0.422753	-0.000116
C32	C	1.484050	-0.354517	-0.000107
C33	C	1.712757	0.107044	-0.000122
C34	C	1.852161	0.109269	-0.000140
C35	C	1.473554	0.249690	-0.000120
C36	C	1.475775	0.333722	-0.000130
N37	N	1.483150	0.111369	0.356013
N38	N	1.483149	0.111355	-0.356223
C39	C	1.568702	0.060381	0.427940
C40	C	1.568699	0.060372	0.571823
C41	C	1.397587	0.162345	0.571840
C42	C	1.397585	0.162349	0.427960
C43	C	1.667496	0.001510	0.427931
C44	C	1.667493	0.001501	0.571814
H45	H	1.697927	-0.133615	-0.000091
H46	H	1.051130	0.286125	-0.098820
H47	H	1.327922	0.203851	0.630435
C48	C	1.303470	0.218430	0.348835
C49	C	1.209418	0.274545	0.427970
C50	C	1.115297	0.330627	0.348842
C51	C	1.115230	0.330594	0.190580
C52	C	1.209285	0.274476	0.111436
C53	C	1.303405	0.218394	0.190563
H54	H	1.209465	0.274572	0.545133
H55	H	1.045671	0.372169	0.407431
H56	H	1.045556	0.372109	0.132005
H57	H	1.209238	0.274449	-0.005728
H58	H	1.373031	0.176852	0.131975
H59	H	1.044703	0.291908	0.095532
C60	C	1.639896	-0.077072	0.375165
C61	C	1.523539	-0.084338	0.284178
C62	C	1.495939	-0.162917	0.231412
C63	C	1.584694	-0.234231	0.269633
C64	C	1.701059	-0.226969	0.360625
C65	C	1.728660	-0.148389	0.413392
H66	H	1.457830	-0.031544	0.255880
H67	H	1.409797	-0.168293	0.164053
H68	H	1.564263	-0.292401	0.230572
H69	H	1.766768	-0.279762	0.388923
H70	H	1.814801	-0.143013	0.480750
H71	H	1.758357	0.019944	0.383297
H72	H	0.891873	-0.015484	-0.000123
C73	C	0.822644	0.291179	0.133147
C74	C	0.748308	0.240769	0.224933
C75	C	0.686015	0.273236	0.358230
C76	C	0.698059	0.356112	0.399740
C77	C	0.772399	0.406527	0.307953
C78	C	0.834692	0.374061	0.174656
H79	H	0.739389	0.179415	0.194206
H80	H	0.630984	0.235915	0.426177
H81	H	0.651946	0.380146	0.498415
H82	H	0.781317	0.467882	0.338680
H83	H	0.889723	0.411382	0.106709
C84	C	1.726520	-0.290540	-0.000115
C85	C	1.853540	-0.256382	-0.000108
C86	C	1.978267	-0.309073	-0.000118
C87	C	1.975972	-0.395921	-0.000135
C88	C	1.848947	-0.430083	-0.000141
C89	C	1.724220	-0.377393	-0.000131
H90	H	1.855243	-0.192088	-0.000096
H91	H	2.072299	-0.283783	-0.000113
H92	H	2.068302	-0.434926	-0.000142
H93	H	1.847244	-0.494378	-0.000153
H94	H	1.630188	-0.402683	-0.000136
H95	H	0.842676	0.288672	-0.095824
H96	H	1.278912	-0.246289	-0.000113
H97	H	1.687377	-0.530986	-0.000115
C98	C	1.627605	-0.072772	0.632094
C99	C	1.718892	-0.122707	0.725578
C100	C	1.679013	-0.196982	0.785854
C101	C	1.547847	-0.221322	0.752645
C102	C	1.456552	-0.171386	0.659156
C103	C	1.496431	-0.097111	0.598881
H104	H	1.815996	-0.104690	0.750166
H105	H	1.746596	-0.233948	0.855060
H106	H	1.518327	-0.276305	0.797264
H107	H	1.359448	-0.189403	0.634569
H108	H	1.428847	-0.060146	0.529675
C109	C	1.797556	0.019033	0.624561
C110	C	1.808283	0.089241	0.715551
C111	C	1.938338	0.106780	0.768293
C112	C	2.057667	0.054111	0.730044
C113	C	2.046945	-0.016102	0.639049
C114	C	1.916890	-0.033641	0.586307
H115	H	1.719944	0.128235	0.743870
H116	H	1.946274	0.158757	0.835654
H117	H	2.153942	0.067094	0.769086
H118	H	2.135284	-0.055095	0.610730
H119	H	1.908954	-0.085618	0.518946
H120	H	1.129507	-0.011687	-0.000033
H121	H	1.683575	-0.674231	-0.000124
H122	H	1.282705	-0.103043	-0.000100
H123	H	1.272153	-0.500424	-0.000122
H124	H	1.268354	-0.643658	-0.000110
