data_functionalizedCrystal
_audit_creation_method	'MofGen! by Chris Wilmer'
_symmetry_space_group_name_H-M	'P1'
_symmetry_Int_Tables_number	1
_symmetry_cell_setting	triclinic
loop_
_symmetry_equiv_pos_as_xyz
  x,y,z
_cell_length_a	11.026607
_cell_length_b	16.992695
_cell_length_c	16.053802
_cell_angle_alpha	87.258926
_cell_angle_beta	86.854654
_cell_angle_gamma	80.372880
loop_
_atom_site_label
_atom_site_type_symbol
_atom_site_fract_x
_atom_site_fract_y
_atom_site_fract_z
O1	O	1.647314	-0.330284	-0.069438
O2	O	2.147314	0.169716	0.430562
O3	O	1.290332	-0.292377	-0.069438
O4	O	1.790332	0.207623	0.430562
O5	O	1.467391	-0.196986	-0.069431
O6	O	1.967391	0.303014	0.430569
O7	O	1.470254	-0.425675	-0.069445
O8	O	1.970254	0.074325	0.430555
O9	O	1.457643	-0.202209	0.069427
O10	O	1.957643	0.297791	0.569427
O11	O	1.280583	-0.297600	0.069421
O12	O	1.780583	0.202400	0.569421
O13	O	1.637565	-0.335507	0.069421
O14	O	2.137565	0.164493	0.569421
Zn15	Zn	1.457526	-0.317383	0.091467
Zn16	Zn	1.957526	0.182617	0.591467
Zn17	Zn	1.470371	-0.310501	-0.091485
Zn18	Zn	1.970371	0.189499	0.408515
O19	O	1.460506	-0.430898	0.069414
O20	O	1.960506	0.069102	0.569414
C21	C	1.239568	-0.287995	-0.000009
C22	C	1.739568	0.212005	0.499991
C23	C	1.102833	-0.267148	-0.000009
C24	C	1.602833	0.232852	0.499991
N25	N	1.448770	-0.322080	0.216327
N26	N	1.948770	0.177920	0.716327
C27	C	1.458835	-0.169865	-0.000002
C28	C	1.958835	0.330135	0.499998
C29	C	1.447849	-0.081270	-0.000002
C30	C	1.947849	0.418730	0.499998
C31	C	1.034609	-0.324710	-0.000012
C32	C	1.534609	0.175290	0.499988
C33	C	0.893286	-0.303165	-0.000012
C34	C	1.393286	0.196835	0.499988
C35	C	1.688329	-0.339889	-0.000011
C36	C	2.188329	0.160111	0.499989
C37	C	1.825065	-0.360735	-0.000016
C38	C	2.325065	0.139265	0.499984
C39	C	1.469062	-0.458018	-0.000017
C40	C	1.969062	0.041982	0.499983
C41	C	1.480048	-0.546613	-0.000022
C42	C	1.980048	-0.046613	0.499978
C43	C	1.553847	-0.045991	-0.000001
C44	C	2.053847	0.454009	0.499999
C45	C	1.543518	0.037253	-0.000009
C46	C	2.043518	0.537253	0.499991
C47	C	1.427190	0.085218	-0.000012
C48	C	1.927190	0.585218	0.499988
C49	C	1.321185	0.049934	-0.000016
C50	C	1.821185	0.549934	0.499984
C51	C	1.331515	-0.033310	-0.000014
C52	C	1.831515	0.466690	0.499986
C53	C	1.384374	0.334860	-0.000024
C54	C	1.884374	0.834860	0.499976
C55	C	1.374051	0.418108	-0.000023
C56	C	1.874051	0.918108	0.499977
C57	C	1.596385	0.405422	-0.000019
C58	C	2.096385	0.905422	0.499981
C59	C	1.606705	0.322178	-0.000012
C60	C	2.106705	0.822178	0.499988
C61	C	1.500700	0.286901	-0.000019
C62	C	2.000700	0.786901	0.499981
N63	N	1.416629	0.170308	-0.000018
N64	N	1.916629	0.670308	0.499982
N65	N	1.511263	0.201813	-0.000020
N66	N	2.011263	0.701813	0.499980
N67	N	1.479136	-0.305799	-0.216345
N68	N	1.979136	0.194201	0.283655
C69	C	1.524140	-0.281513	0.260024
C70	C	2.024140	0.218487	0.760024
C71	C	1.518027	-0.284808	0.347431
C72	C	2.018027	0.215192	0.847431
C73	C	1.436548	-0.328675	0.391139
C74	C	1.936548	0.171325	0.891139
C75	C	1.361170	-0.369242	0.347436
C76	C	1.861170	0.130758	0.847436
C77	C	1.367278	-0.365942	0.260031
C78	C	1.867278	0.134058	0.760031
C79	C	1.409866	-0.343067	0.652547
C80	C	1.909866	0.156933	1.152547
C81	C	1.403766	-0.346365	0.739958
C82	C	1.903766	0.153635	1.239958
C83	C	1.560622	-0.261930	0.739947
C84	C	2.060622	0.238070	1.239947
C85	C	1.566728	-0.258638	0.652541
C86	C	2.066728	0.241362	1.152541
C87	C	1.491345	-0.299202	0.608845
C88	C	1.991345	0.200798	1.108845
N89	N	1.430300	-0.332046	0.480482
N90	N	1.930300	0.167954	0.980482
N91	N	1.497587	-0.295826	0.519503
N92	N	1.997587	0.204174	1.019503
H93	H	1.080827	-0.389941	-0.000011
H94	H	1.580827	0.110059	0.499989
Br95	Br	0.902074	-0.469468	-0.000007
Br96	Br	1.402074	0.030532	0.499993
H97	H	1.337414	-0.382089	0.775542
H98	H	1.837414	0.117911	1.275542
Br99	Br	1.025813	-0.158422	0.000007
Br100	Br	1.525813	0.341578	0.500007
Br101	Br	0.816271	-0.194434	0.000003
Br102	Br	1.316271	0.305566	0.500003
H103	H	1.648573	-0.085039	0.000006
H104	H	2.148573	0.414961	0.500006
Br105	Br	1.264976	-0.420993	0.200728
Br106	Br	1.764976	0.079007	0.700728
H107	H	1.633074	-0.222919	0.616955
H108	H	2.133074	0.277081	1.116955
Br109	Br	1.240509	0.286994	-0.000040
Br110	Br	1.740509	0.786994	0.499960
Br111	Br	1.687378	0.085129	-0.000008
Br112	Br	2.187378	0.585129	0.499992
H113	H	1.701431	0.283130	-0.000009
H114	H	2.201431	0.783130	0.499991
H115	H	1.682688	0.434154	-0.000014
H116	H	2.182688	0.934154	0.499986
Br117	Br	1.634733	-0.221984	0.200715
Br118	Br	2.134733	0.278016	0.700715
H119	H	1.279317	0.457159	-0.000012
H120	H	1.779317	0.957159	0.499988
Br121	Br	1.187656	-0.081189	-0.000022
Br122	Br	1.687656	0.418811	0.499978
H123	H	1.226468	0.088993	-0.000023
H124	H	1.726468	0.588993	0.499977
Br125	Br	1.620311	-0.229750	0.406736
Br126	Br	2.120311	0.270250	0.906736
H127	H	1.348488	-0.376097	0.616978
H128	H	1.848488	0.123903	1.116978
Br129	Br	1.662920	-0.206880	0.799251
Br130	Br	2.162920	0.293120	1.299251
H131	H	1.294822	-0.404955	0.383028
H132	H	1.794822	0.095045	0.883028
