data_functionalizedCrystal
_audit_creation_method	'MofGen! by Chris Wilmer'
_symmetry_space_group_name_H-M	'P1'
_symmetry_Int_Tables_number	1
_symmetry_cell_setting	triclinic
loop_
_symmetry_equiv_pos_as_xyz
  x,y,z
_cell_length_a	12.759401
_cell_length_b	12.594516
_cell_length_c	12.759393
_cell_angle_alpha	89.969150
_cell_angle_beta	89.981425
_cell_angle_gamma	90.012242
loop_
_atom_site_label
_atom_site_type_symbol
_atom_site_fract_x
_atom_site_fract_y
_atom_site_fract_z
Zn1	Zn	1.606276	-0.423667	-0.593990
Zn2	Zn	2.106276	0.076333	-0.093990
Zn3	Zn	1.606179	-0.601686	-0.418313
Zn4	Zn	2.106179	-0.101686	0.081687
Zn5	Zn	1.430578	-0.423723	-0.418329
Zn6	Zn	1.930578	0.076277	0.081671
Zn7	Zn	1.430575	-0.601605	-0.593954
Zn8	Zn	1.930575	-0.101605	-0.093954
O9	O	1.518402	-0.512670	-0.506147
O10	O	2.018402	-0.012670	-0.006147
O11	O	1.753284	-0.447292	-0.570695
O12	O	2.253284	0.052708	-0.070695
O13	O	1.582846	-0.578137	-0.271294
O14	O	2.082846	-0.078137	0.228706
O15	O	1.453926	-0.274770	-0.441653
O16	O	1.953926	0.225230	0.058347
O17	O	1.753213	-0.578082	-0.441625
O18	O	2.253213	-0.078082	0.058375
O19	O	1.583011	-0.274728	-0.570711
O20	O	2.083011	0.225272	-0.070711
O21	O	1.453833	-0.447388	-0.271306
O22	O	1.953833	0.052612	0.228694
O23	O	1.283557	-0.447309	-0.441618
O24	O	1.783557	0.052691	0.058382
O25	O	1.453922	-0.577943	-0.740980
O26	O	1.953922	-0.077943	-0.240980
O27	O	1.283555	-0.577998	-0.570649
O28	O	1.783555	-0.077998	-0.070649
O29	O	1.583008	-0.447213	-0.741007
O30	O	2.083008	0.052787	-0.241007
O31	O	1.582844	-0.750621	-0.441590
O32	O	2.082844	-0.250621	0.058410
O33	O	1.453828	-0.750561	-0.570633
O34	O	1.953828	-0.250561	-0.070633
C35	C	1.245435	-0.512652	-0.506132
C36	C	1.745435	-0.012652	-0.006132
C37	C	1.128658	-0.512670	-0.506150
C38	C	1.628658	-0.012670	-0.006150
C39	C	1.073834	-0.444690	-0.573460
C40	C	1.573834	0.055310	-0.073460
C41	C	0.964110	-0.444701	-0.573467
C42	C	1.464110	0.055299	-0.073467
C43	C	0.964044	-0.580680	-0.438851
C44	C	1.464044	-0.080680	0.061149
C45	C	1.073766	-0.580663	-0.438840
C46	C	1.573766	-0.080663	0.061160
C47	C	1.518354	-0.789211	-0.506128
C48	C	2.018354	-0.289211	-0.006128
C49	C	1.518429	-0.907517	-0.506156
C50	C	2.018429	-0.407517	-0.006156
C51	C	1.588682	-0.976764	-0.436044
C52	C	2.088682	-0.476764	0.063956
C53	C	1.614357	-1.047455	-0.531937
C54	C	2.114357	-0.547455	-0.031937
C55	C	1.492885	-1.047624	-0.410324
C56	C	1.992885	-0.547624	0.089676
C57	C	1.544153	-0.976650	-0.602098
C58	C	2.044153	-0.476650	-0.102098
C59	C	1.422636	-0.976813	-0.480421
C60	C	1.922636	-0.476813	0.019579
C61	C	1.448275	-1.047472	-0.576380
C62	C	1.948275	-0.547472	-0.076380
C63	C	1.792435	-0.512689	-0.506162
C64	C	2.292435	-0.012689	-0.006162
C65	C	1.909212	-0.512698	-0.506169
C66	C	2.409212	-0.012698	-0.006169
C67	C	1.518476	-0.512563	-0.780180
C68	C	2.018476	-0.012563	-0.280180
C69	C	1.518507	-0.512517	-0.896957
C70	C	2.018507	-0.012517	-0.396957
C71	C	1.518480	-0.235049	-0.506188
C72	C	2.018480	0.264951	-0.006188
C73	C	1.518513	-0.116744	-0.506206
C74	C	2.018513	0.383256	-0.006206
C75	C	1.451354	-0.444424	-0.951825
C76	C	1.951354	0.055576	-0.451825
C77	C	1.451378	-0.444391	-1.061549
C78	C	1.951378	0.055609	-0.561549
C79	C	1.585718	-0.580547	-1.061528
C80	C	2.085718	-0.080547	-0.561528
C81	C	1.585687	-0.580585	-0.951805
C82	C	2.085687	-0.080585	-0.451805
C83	C	1.518390	-0.512701	-0.233179
C84	C	2.018390	-0.012701	0.266821
C85	C	1.518562	-0.512447	-0.116403
C86	C	2.018562	-0.012447	0.383597
H87	H	0.919477	-0.389344	-0.628276
H88	H	1.419477	0.110656	-0.128276
H89	H	0.919338	-0.636039	-0.384050
H90	H	1.419338	-0.136039	0.115950
C91	C	1.377445	-0.369556	-0.891495
C92	C	1.877445	0.130444	-0.391495
N93	N	1.321771	-0.313166	-0.846058
N94	N	1.821771	0.186834	-0.346058
H95	H	1.118405	-0.636021	-0.384022
H96	H	1.618405	-0.136021	0.115978
C97	C	1.377510	-0.369477	-1.121898
C98	C	1.877510	0.130523	-0.621898
N99	N	1.321871	-0.313047	-1.167353
N100	N	1.821871	0.186953	-0.667353
C101	C	1.313183	-0.934843	-0.450933
C102	C	1.813183	-0.434843	0.049067
N103	N	1.230744	-0.903226	-0.428710
N104	N	1.730744	-0.403226	0.071290
H105	H	1.640415	-0.635965	-1.106199
H106	H	2.140415	-0.135965	-0.606199
C107	C	1.659584	-0.655477	-0.891447
C108	C	2.159584	-0.155477	-0.391447
N109	N	1.715246	-0.711878	-0.845985
N110	N	2.215246	-0.211878	-0.345985
H111	H	1.695403	-1.078488	-0.553731
H112	H	2.195403	-0.578488	-0.053731
C113	C	1.573523	-0.934716	-0.711643
C114	C	2.073523	-0.434716	-0.211643
N115	N	1.595649	-0.903129	-0.794149
N116	N	2.095649	-0.403129	-0.294149
H117	H	1.118524	-0.389323	-0.628266
H118	H	1.618524	0.110677	-0.128266
C119	C	1.668955	-0.934805	-0.356024
C120	C	2.168955	-0.434805	0.143976
N121	N	1.729419	-0.903196	-0.295760
N122	N	2.229419	-0.403196	0.204240
C123	C	1.463645	-1.089733	-0.300810
C124	C	1.963645	-0.589733	0.199190
N125	N	1.441628	-1.121445	-0.218321
N126	N	1.941628	-0.621445	0.281679
C127	C	1.368060	-1.089152	-0.656598
C128	C	1.868060	-0.589152	-0.156598
N129	N	1.307645	-1.120545	-0.717021
N130	N	1.807645	-0.620545	-0.217021
