data_functionalizedCrystal
_audit_creation_method	'MofGen! by Chris Wilmer'
_symmetry_space_group_name_H-M	'P1'
_symmetry_Int_Tables_number	1
_symmetry_cell_setting	triclinic
loop_
_symmetry_equiv_pos_as_xyz
  x,y,z
_cell_length_a	19.188905
_cell_length_b	19.188930
_cell_length_c	16.176319
_cell_angle_alpha	89.988074
_cell_angle_beta	89.985456
_cell_angle_gamma	83.139668
loop_
_atom_site_label
_atom_site_type_symbol
_atom_site_fract_x
_atom_site_fract_y
_atom_site_fract_z
O1	O	0.926159	0.087086	-0.068892
O2	O	1.426159	0.587086	0.431108
O3	O	0.722845	0.098839	-0.068865
O4	O	1.222845	0.598839	0.431135
O5	O	0.830369	-0.008694	-0.068863
O6	O	1.330369	0.491306	0.431137
O7	O	0.818635	0.194619	-0.068894
O8	O	1.318635	0.694619	0.431106
O9	O	0.830354	-0.008701	0.068630
O10	O	1.330354	0.491299	0.568630
O11	O	0.722830	0.098832	0.068628
O12	O	1.222830	0.598832	0.568628
O13	O	0.926144	0.087079	0.068601
O14	O	1.426144	0.587079	0.568601
Cu15	Cu	0.824486	0.092955	0.081169
Cu16	Cu	1.324486	0.592955	0.581169
Cu17	Cu	0.824503	0.092963	-0.081433
Cu18	Cu	1.324503	0.592963	0.418567
O19	O	0.818620	0.194612	0.068599
O20	O	1.318620	0.694612	0.568599
C21	C	0.696826	0.098458	-0.000115
C22	C	1.196826	0.598458	0.499885
C23	C	0.619321	0.097324	-0.000104
C24	C	1.119321	0.597324	0.499896
C25	C	0.582937	0.096783	-0.075053
C26	C	1.082937	0.596783	0.424947
C27	C	0.510113	0.095710	-0.075063
C28	C	1.010113	0.595710	0.424937
C29	C	0.473678	0.095164	-0.000120
C30	C	0.973678	0.595164	0.499880
C31	C	0.510070	0.095709	0.074840
C32	C	1.010070	0.595709	0.574840
C33	C	0.582892	0.096789	0.074848
C34	C	1.082892	0.596789	0.574848
N35	N	0.364652	0.053732	0.055660
N36	N	0.864652	0.553732	0.555660
N37	N	0.295475	0.052705	0.055647
N38	N	0.795475	0.552705	0.555647
C39	C	0.254272	0.091911	-0.000139
C40	C	0.754272	0.591911	0.499861
N41	N	0.284860	0.132175	-0.055925
N42	N	0.784860	0.632175	0.444075
N43	N	0.354043	0.133199	-0.055915
N44	N	0.854043	0.633199	0.444085
C45	C	0.394716	0.093993	-0.000120
C46	C	0.894716	0.593993	0.499880
C47	C	0.138924	0.090208	-0.075105
C48	C	0.638924	0.590208	0.424895
C49	C	0.066098	0.089139	-0.075112
C50	C	0.566098	0.589139	0.424888
C51	C	0.066058	0.089131	0.074794
C52	C	0.566058	0.589131	0.574794
C53	C	0.138881	0.090207	0.074798
C54	C	0.638881	0.590207	0.574798
C55	C	0.175310	0.090742	-0.000153
C56	C	0.675310	0.590742	0.499847
C57	C	0.829982	-0.034708	-0.000114
C58	C	1.329982	0.465292	0.499886
C59	C	0.828841	-0.112213	-0.000107
C60	C	1.328841	0.387787	0.499893
C61	C	0.891933	-0.157142	-0.000111
C62	C	1.391933	0.342858	0.499889
C63	C	0.890861	-0.229966	-0.000124
C64	C	1.390861	0.270034	0.499876
C65	C	0.826694	-0.257857	-0.000116
C66	C	1.326694	0.242143	0.499884
C67	C	0.763594	-0.212917	-0.000117
C68	C	1.263594	0.287083	0.499883
C69	C	0.764668	-0.140095	-0.000112
C70	C	1.264668	0.359905	0.499888
N71	N	0.777641	-0.365860	0.046682
N72	N	1.277641	0.134140	0.546682
N73	N	0.776626	-0.435038	0.046679
N74	N	1.276626	0.064962	0.546679
C75	C	0.823456	-0.477265	-0.000133
C76	C	1.323456	0.022735	0.499867
N77	N	0.871350	-0.447702	-0.046931
N78	N	1.371350	0.052298	0.453069
N79	N	0.872368	-0.378517	-0.046924
N80	N	1.372368	0.121483	0.453076
C81	C	0.825523	-0.336819	-0.000122
C82	C	1.325523	0.163181	0.499878
C83	C	0.885390	-0.601159	-0.000153
C84	C	1.385390	-0.101159	0.499847
C85	C	0.884315	-0.673984	-0.000171
C86	C	1.384315	-0.173984	0.499829
C87	C	0.757047	-0.656933	-0.000155
C88	C	1.257047	-0.156933	0.499845
C89	C	0.758123	-0.584110	-0.000145
C90	C	1.258123	-0.084110	0.499855
C91	C	0.822296	-0.556228	-0.000140
C92	C	1.322296	-0.056228	0.499860
C93	C	0.952163	0.087460	-0.000151
C94	C	1.452163	0.587460	0.499849
C95	C	1.029668	0.088594	-0.000167
C96	C	1.529668	0.588594	0.499833
C97	C	0.819007	0.220626	-0.000152
C98	C	1.319007	0.720626	0.499848
C99	C	0.820148	0.298131	-0.000164
C100	C	1.320148	0.798131	0.499836
N101	N	0.824479	0.092949	0.195534
N102	N	1.324479	0.592949	0.695534
N103	N	0.824516	0.092964	-0.195798
N104	N	1.324516	0.592964	0.304202
C105	C	0.872104	0.045353	0.238799
C106	C	1.372104	0.545353	0.738799
C107	C	0.872108	0.045352	0.325346
C108	C	1.372108	0.545352	0.825346
C109	C	0.824488	0.092951	0.368627
C110	C	1.324488	0.592951	0.868627
C111	C	0.776857	0.140550	0.325356
C112	C	1.276857	0.640550	0.825356
C113	C	0.776851	0.140546	0.238810
C114	C	1.276851	0.640546	0.738810
C115	C	0.776881	0.140563	0.674384
C116	C	1.276881	0.640563	1.174384
C117	C	0.776893	0.140563	0.760935
C118	C	1.276893	0.640563	1.260935
C119	C	0.872138	0.045368	0.760920
C120	C	1.372138	0.545368	1.260920
C121	C	0.872132	0.045365	0.674375
C122	C	1.372132	0.545365	1.174375
C123	C	0.824499	0.092961	0.631111
C124	C	1.324499	0.592961	1.131111
C125	C	0.824495	0.092960	0.537267
C126	C	1.324495	0.592960	1.037267
C127	C	0.824495	0.092956	0.462469
C128	C	1.324495	0.592956	0.962469
H129	H	0.036392	0.088690	0.135814
H130	H	0.536392	0.588690	0.635814
F131	F	0.697514	-0.092276	-0.000108
F132	F	1.197514	0.407724	0.499892
F133	F	0.177605	0.090778	0.154571
F134	F	0.677605	0.590778	0.654571
F135	F	0.922832	-0.005290	0.806970
F136	F	1.422832	0.494710	1.306970
H137	H	0.706747	-0.547527	-0.000137
H138	H	1.206747	-0.047527	0.499863
F139	F	0.953688	-0.571482	-0.000143
F140	F	1.453688	-0.071482	0.499857
F141	F	0.726189	0.191218	0.628346
F142	F	1.226189	0.691218	1.128346
F143	F	0.688755	-0.686612	-0.000150
F144	F	1.188755	-0.186612	0.499850
H145	H	0.738068	0.179303	0.203585
H146	H	1.238068	0.679303	0.703585
H147	H	0.935694	-0.710565	-0.000179
H148	H	1.435694	-0.210565	0.499821
F149	F	0.960232	-0.127472	-0.000124
F150	F	1.460232	0.372528	0.499876
H151	H	0.738113	0.179326	0.796173
H152	H	1.238113	0.679326	1.296173
H153	H	0.910885	0.006595	0.203566
H154	H	1.410885	0.506595	0.703566
F155	F	0.621615	0.097364	0.154623
F156	F	1.121615	0.597364	0.654623
F157	F	0.922796	-0.005305	0.371392
F158	F	1.422796	0.494695	0.871392
F159	F	0.958014	-0.277792	-0.000130
F160	F	1.458014	0.222208	0.499870
H161	H	0.711349	-0.235631	-0.000112
H162	H	1.211349	0.264369	0.499888
F163	F	0.922817	-0.005293	0.628316
F164	F	1.422817	0.494707	1.128316
H165	H	0.612593	0.097219	-0.136085
H166	H	1.112593	0.597219	0.363915
F167	F	0.471383	0.095134	-0.154838
F168	F	0.971383	0.595134	0.345162
F169	F	0.726173	0.191206	0.371419
F170	F	1.226173	0.691206	0.871419
H171	H	0.168585	0.090651	-0.136135
H172	H	0.668585	0.590651	0.363865
F173	F	0.027376	0.088569	-0.154888
F174	F	0.527376	0.588569	0.345112
F175	F	0.471292	0.095131	0.154600
F176	F	0.971292	0.595131	0.654600
