data_functionalizedCrystal
_audit_creation_method	'MofGen! by Chris Wilmer'
_symmetry_space_group_name_H-M	'P1'
_symmetry_Int_Tables_number	1
_symmetry_cell_setting	triclinic
loop_
_symmetry_equiv_pos_as_xyz
  x,y,z
_cell_length_a	14.044220
_cell_length_b	8.559649
_cell_length_c	12.503552
_cell_angle_alpha	93.024836
_cell_angle_beta	93.839891
_cell_angle_gamma	98.516229
loop_
_atom_site_label
_atom_site_type_symbol
_atom_site_fract_x
_atom_site_fract_y
_atom_site_fract_z
O1	O	1.236026	-0.372907	0.089199
O2	O	0.961060	-0.359147	0.089227
O3	O	1.122767	-0.136878	0.089210
O4	O	1.074318	-0.595176	0.089217
O5	O	1.110592	-0.153608	-0.089432
O6	O	0.948885	-0.375877	-0.089414
O7	O	1.223851	-0.389638	-0.089442
Cu8	Cu	1.085256	-0.384285	-0.105739
Cu9	Cu	1.099654	-0.364500	0.105525
O10	O	1.062143	-0.611906	-0.089425
C11	C	0.920096	-0.361489	-0.000090
C12	C	0.816179	-0.343524	-0.000080
N13	N	1.075136	-0.398201	-0.254331
C14	C	1.120352	-0.086237	-0.000109
C15	C	1.131281	0.089586	-0.000104
C16	C	0.625907	-0.310685	-0.000101
C17	C	0.558999	-0.438092	-0.000104
C18	C	0.453125	-0.419819	-0.000116
C19	C	0.731791	-0.328955	-0.000089
C20	C	1.264814	-0.387295	-0.000122
C21	C	1.368732	-0.405259	-0.000126
C22	C	1.064559	-0.662547	-0.000103
C23	C	1.053630	-0.838370	-0.000101
C24	C	1.124665	-0.330095	-0.526769
C25	C	1.060257	-0.418673	-0.473439
C26	C	1.068538	-0.407279	-0.351516
C27	C	1.116386	-0.341487	-0.648703
N28	N	1.109783	-0.350572	0.254116
H29	H	0.581231	-0.560891	-0.000097
C30	C	1.206359	-0.217507	-0.465415
C31	C	1.167737	-0.107660	-0.400812
C32	C	1.242969	-0.003955	-0.344248
H33	H	1.245745	-0.163266	-0.514773
H34	H	1.244198	-0.275920	-0.421491
H35	H	1.129915	-0.049254	-0.444733
H36	H	1.128360	-0.161856	-0.351435
H37	H	1.280807	-0.062367	-0.300324
H38	H	1.282350	0.050275	-0.393614
H39	H	1.216774	0.070579	-0.300401
H40	H	0.978788	0.088801	-0.000097
H41	H	1.206127	0.162423	-0.000121
H42	H	0.603676	-0.187896	-0.000109
C43	C	0.978537	-0.531172	-0.534838
C44	C	0.986483	-0.520301	-0.645314
C45	C	0.911234	-0.623927	-0.701912
H46	H	0.918335	-0.503511	-0.516607
H47	H	0.982317	-0.636516	-0.516532
H48	H	0.982695	-0.414981	-0.663611
H49	H	1.046670	-0.547976	-0.663576
H50	H	0.915014	-0.729271	-0.683607
H51	H	0.851037	-0.596257	-0.683673
H52	H	0.916620	-0.616576	-0.776875
