data_functionalizedCrystal
_audit_creation_method	'MofGen! by Chris Wilmer'
_symmetry_space_group_name_H-M	'P1'
_symmetry_Int_Tables_number	1
_symmetry_cell_setting	triclinic
loop_
_symmetry_equiv_pos_as_xyz
  x,y,z
_cell_length_a	23.532407
_cell_length_b	16.956984
_cell_length_c	15.455301
_cell_angle_alpha	93.164182
_cell_angle_beta	93.019577
_cell_angle_gamma	79.451048
loop_
_atom_site_label
_atom_site_type_symbol
_atom_site_fract_x
_atom_site_fract_y
_atom_site_fract_z
O1	O	0.025682	1.060949	0.072062
O2	O	0.045684	0.828633	0.072082
O3	O	-0.047551	0.951796	0.072055
O4	O	0.118917	0.937786	0.072088
O5	O	-0.051711	0.945587	-0.072208
O6	O	0.041524	0.822424	-0.072181
O7	O	0.021522	1.054740	-0.072201
Cu8	Cu	0.031143	0.938015	-0.085364
Cu9	Cu	0.036063	0.945358	0.085244
O10	O	0.114757	0.931577	-0.072175
C11	C	-0.070831	0.948334	-0.000079
C12	C	-0.134002	0.947261	-0.000085
C13	C	0.044629	0.795813	-0.000047
C14	C	0.047674	0.707268	-0.000040
C15	C	0.022577	1.087560	-0.000070
C16	C	0.019532	1.176105	-0.000072
C17	C	-0.535952	1.013421	-0.000043
C18	C	-0.595309	1.012424	-0.000037
O19	O	-0.634692	1.073754	-0.000010
N20	N	-0.614784	0.939204	-0.000031
C21	C	-0.574897	0.866975	-0.000023
O22	O	-0.596912	0.804604	-0.000017
C23	C	-0.515541	0.867973	-0.000023
C24	C	-0.496070	0.941198	-0.000038
C25	C	-0.516480	1.086640	-0.000057
C26	C	-0.457127	1.087635	-0.000065
C27	C	-0.417246	1.015412	-0.000060
C28	C	-0.436717	0.942193	-0.000046
C29	C	-0.475655	0.795745	-0.000009
C30	C	-0.416296	0.796749	-0.000009
C31	C	-0.396825	0.869974	-0.000024
C32	C	-0.337483	0.870966	-0.000049
N33	N	-0.318008	0.944186	-0.000055
C34	C	-0.357890	1.016410	-0.000060
C35	C	-0.699550	0.864887	-0.000021
C36	C	-0.758905	0.863888	-0.000026
C37	C	-0.779313	1.009338	-0.000038
C38	C	-0.719956	1.010335	-0.000039
C39	C	-0.680075	0.938107	-0.000026
C40	C	-0.233243	1.018495	-0.000078
C41	C	-0.173884	1.019485	-0.000090
C42	C	-0.153481	0.874036	-0.000074
C43	C	-0.212835	0.873046	-0.000066
C44	C	-0.252716	0.945282	-0.000066
O45	O	-0.298066	0.809669	-0.000072
O46	O	-0.335866	1.078771	-0.000055
C47	C	0.138037	0.935039	-0.000039
C48	C	0.201209	0.936112	-0.000027
N49	N	0.027682	0.932856	-0.205360
C50	C	0.070447	1.207786	-0.000061
C51	C	0.067583	1.290985	-0.000053
C52	C	0.013803	1.342500	-0.000061
C53	C	-0.037116	1.310814	-0.000069
C54	C	-0.034251	1.227617	-0.000071
C55	C	-0.000379	1.592385	-0.000050
C56	C	-0.003241	1.675587	-0.000051
C57	C	0.101458	1.655752	-0.000033
C58	C	0.104318	1.572555	-0.000041
C59	C	0.053400	1.540876	-0.000044
N60	N	0.010873	1.427542	-0.000055
N61	N	0.056330	1.455835	-0.000043
C62	C	0.058671	0.979009	-0.250748
C63	C	0.056050	0.975118	-0.341556
C64	C	0.022442	0.925070	-0.386975
C65	C	-0.008550	0.878915	-0.341581
C66	C	-0.005932	0.882811	-0.250774
C67	C	0.011145	0.908265	-0.658559
C68	C	0.008530	0.904371	-0.749372
C69	C	0.073129	1.000575	-0.749341
C70	C	0.075747	1.004463	-0.658532
C71	C	0.044753	0.958311	-0.613146
N72	N	0.019764	0.921089	-0.479796
N73	N	0.047429	0.962296	-0.520327
N74	N	0.039519	0.950523	0.205240
H75	H	-0.158035	1.079115	-0.000104
C76	C	-0.041213	0.830174	-0.480791
C77	C	-0.045491	0.823898	-0.391501
H78	H	-0.064017	0.796202	-0.511605
H79	H	-0.054759	0.884185	-0.495700
H80	H	-0.001963	0.814378	-0.495624
H81	H	-0.084742	0.839699	-0.376666
H82	H	-0.031949	0.769876	-0.376585
H83	H	-0.667080	0.806066	-0.000018
H84	H	-0.120999	0.815234	-0.000073
C85	C	-0.269894	0.784342	-0.074211
C86	C	-0.234238	0.792555	-0.000060
H87	H	-0.283099	0.734647	-0.074202
H88	H	-0.302140	0.827204	-0.074202
H89	H	-0.248617	0.785592	-0.124519
H90	H	-0.255516	0.791311	0.050249
H91	H	-0.201987	0.749681	-0.000061
C92	C	0.137243	1.096060	-0.740187
C93	C	0.107193	1.051309	-0.799230
H94	H	0.158274	1.127380	-0.770989
H95	H	0.110519	1.130470	-0.704774
H96	H	0.163323	1.060676	-0.704766
H97	H	0.081109	1.086693	-0.834647
H98	H	0.133920	1.016896	-0.834658
C99	C	-0.070042	0.787319	-0.259920
C100	C	-0.039993	0.832075	-0.200880
H101	H	-0.091068	0.755995	-0.229116
H102	H	-0.096120	0.822694	-0.295339
H103	H	-0.043312	0.752905	-0.295336
H104	H	-0.066722	0.866493	-0.165469
H105	H	-0.013912	0.796696	-0.165447
H106	H	0.081283	1.012702	-0.378507
C107	C	0.155096	1.013201	-0.556412
C108	C	0.112696	1.059474	-0.608619
H109	H	0.177912	1.047160	-0.525605
H110	H	0.137014	0.986284	-0.516382
H111	H	0.179123	0.974784	-0.591849
H112	H	0.088667	1.097887	-0.573181
H113	H	0.130779	1.086403	-0.648654
C114	C	0.170416	1.470679	0.074139
C115	C	0.163436	1.515934	-0.000021
H116	H	0.206913	1.435722	0.074145
H117	H	0.168573	1.505710	0.124436
H118	H	0.140501	1.439903	0.074120
H119	H	0.193349	1.546714	0.000001
H120	H	0.165286	1.480899	-0.050331
H121	H	-0.265708	1.077317	-0.000075
H122	H	-0.014094	0.870685	-0.621616
H123	H	-0.075711	1.201824	-0.000078
H124	H	0.114240	1.165847	-0.000061
C125	C	-0.483279	1.231301	-0.000068
C126	C	-0.435730	1.168128	-0.000070
H127	H	-0.470071	1.280996	-0.000063
H128	H	-0.507458	1.225720	-0.050372
H129	H	-0.504549	1.230037	0.050244
H130	H	-0.414463	1.169388	-0.050385
H131	H	-0.411542	1.173711	0.050240
C132	C	-0.378483	0.676272	0.074169
C133	C	-0.372459	0.717351	0.000002
H134	H	-0.351423	0.627254	0.074171
H135	H	-0.371487	0.708482	0.124461
H136	H	-0.416624	0.665210	0.074166
H137	H	-0.334320	0.728418	0.000009
H138	H	-0.379451	0.685134	-0.050303
C139	C	0.122256	1.073716	-0.259847
C140	C	0.095613	1.034025	-0.200828
H141	H	0.145059	1.107686	-0.229029
H142	H	0.146292	1.035302	-0.295261
H143	H	0.093483	1.105089	-0.295271
H144	H	0.124386	1.002648	-0.165408
H145	H	0.071575	1.072444	-0.165399
C146	C	0.158082	1.302848	0.074123
C147	C	0.123556	1.325794	-0.000039
H148	H	0.192642	1.324331	0.074130
H149	H	0.137556	1.322725	0.124418
H150	H	0.167469	1.245925	0.074108
H151	H	0.114165	1.382717	-0.000021
H152	H	0.144085	1.305922	-0.050347
C153	C	-0.592920	1.173116	0.074096
C154	C	-0.560311	1.166038	-0.000063
H155	H	-0.619974	1.222140	0.074089
H156	H	-0.613020	1.129381	0.074096
H157	H	-0.567880	1.172641	0.124399
H158	H	-0.585351	1.166508	-0.050366
H159	H	-0.540210	1.209785	-0.000071
H160	H	-0.080904	1.352764	-0.000070
C161	C	0.143557	1.774480	-0.000012
C162	C	0.157425	1.690577	-0.000016
H163	H	0.178112	1.795976	0.000007
H164	H	0.120135	1.790023	-0.050322
H165	H	0.123027	1.794340	0.050293
H166	H	0.177952	1.670716	-0.050325
H167	H	0.180857	1.675026	0.050299
H168	H	-0.018837	0.863611	-0.786350
C169	C	-0.855755	1.095780	0.074136
C170	C	-0.823156	1.088731	-0.000031
H171	H	-0.882820	1.144794	0.074142
H172	H	-0.875843	1.052032	0.074132
H173	H	-0.830711	1.095308	0.124434
H174	H	-0.848201	1.089198	-0.050329
H175	H	-0.803068	1.132491	-0.000035
C176	C	-0.746104	1.154002	-0.000045
C177	C	-0.698557	1.090826	-0.000041
H178	H	-0.732894	1.203695	-0.000038
H179	H	-0.770281	1.148422	-0.050352
H180	H	-0.767377	1.152740	0.050264
H181	H	-0.677286	1.092084	-0.050353
H182	H	-0.674370	1.096408	0.050271
H183	H	-0.774752	0.804261	-0.000029
C184	C	-0.069349	1.777462	-0.074220
C185	C	-0.062362	1.732211	-0.000057
H186	H	-0.105848	1.812414	-0.074226
H187	H	-0.039440	1.808235	-0.074212
H188	H	-0.067507	1.742422	-0.124520
H189	H	-0.064199	1.767251	0.050243
H190	H	-0.092279	1.701435	-0.000057
C191	C	-0.104156	1.620358	-0.000086
C192	C	-0.056349	1.557570	-0.000069
H193	H	-0.138710	1.598860	-0.000106
H194	H	-0.101647	1.654553	0.050221
H195	H	-0.104537	1.650235	-0.050395
H196	H	-0.055965	1.527697	0.050243
H197	H	-0.058859	1.523361	-0.050381
H198	H	-0.491497	0.736118	0.000008
