data_functionalizedCrystal
_audit_creation_method	'MofGen! by Chris Wilmer'
_symmetry_space_group_name_H-M	'P1'
_symmetry_Int_Tables_number	1
_symmetry_cell_setting	triclinic
loop_
_symmetry_equiv_pos_as_xyz
  x,y,z
_cell_length_a	16.120484
_cell_length_b	13.033293
_cell_length_c	13.032268
_cell_angle_alpha	89.079182
_cell_angle_beta	99.642751
_cell_angle_gamma	100.430752
loop_
_atom_site_label
_atom_site_type_symbol
_atom_site_fract_x
_atom_site_fract_y
_atom_site_fract_z
Zn1	Zn	-0.262705	1.479900	-0.795792
Zn2	Zn	0.237295	1.979900	-0.295792
Zn3	Zn	-0.384050	1.493069	-0.630429
Zn4	Zn	0.115950	1.993069	-0.130429
Zn5	Zn	-0.258246	1.330075	-0.601725
Zn6	Zn	0.241754	1.830075	-0.101725
Zn7	Zn	-0.419251	1.296833	-0.782387
Zn8	Zn	0.080749	1.796833	-0.282387
O9	O	-0.331063	1.399969	-0.702583
O10	O	0.168937	1.899969	-0.202583
O11	O	-0.265936	1.626475	-0.791480
O12	O	0.234064	2.126475	-0.291480
O13	O	-0.350765	1.490871	-0.481809
O14	O	0.149235	1.990871	0.018191
O15	O	-0.140673	1.358351	-0.621066
O16	O	0.359327	1.858351	-0.121066
O17	O	-0.355088	1.636150	-0.669988
O18	O	0.144912	2.136150	-0.169988
O19	O	-0.143949	1.468427	-0.763647
O20	O	0.356051	1.968427	-0.263647
O21	O	-0.258337	1.371120	-0.460720
O22	O	0.241663	1.871120	0.039280
O23	O	-0.292469	1.180838	-0.608067
O24	O	0.207531	1.680838	-0.108067
O25	O	-0.415082	1.301693	-0.928978
O26	O	0.084918	1.801693	-0.428978
O27	O	-0.410758	1.156415	-0.740799
O28	O	0.089242	1.656415	-0.240799
O29	O	-0.300069	1.436192	-0.938827
O30	O	0.199931	1.936192	-0.438827
O31	O	-0.506884	1.458637	-0.656989
O32	O	-0.006884	1.958637	-0.156989
O33	O	-0.532746	1.314463	-0.768632
O34	O	-0.032746	1.814463	-0.268632
C35	C	-0.354950	1.131074	-0.669864
C36	C	0.145050	1.631074	-0.169864
C37	C	-0.365192	1.016035	-0.655892
C38	C	0.134808	1.516035	-0.155892
C39	C	-0.325739	0.959940	-0.709877
C40	C	0.174261	1.459940	-0.209877
C41	C	-0.336324	0.841041	-0.695437
C42	C	0.163676	1.341041	-0.195437
C43	C	-0.550454	1.384397	-0.714497
C44	C	-0.050454	1.884397	-0.214497
C45	C	-0.644306	1.377825	-0.719639
C46	C	-0.144306	1.877825	-0.219639
C47	C	-0.816134	1.365829	-0.729050
C48	C	-0.316134	1.865829	-0.229050
C49	C	-0.845136	1.434293	-0.676156
C50	C	-0.345136	1.934293	-0.176156
C51	C	-0.940748	1.427618	-0.681393
C52	C	-0.440748	1.927618	-0.181393
C53	C	-0.720515	1.372502	-0.723815
C54	C	-0.220515	1.872502	-0.223815
C55	C	-0.110816	1.415628	-0.690650
C56	C	0.389184	1.915628	-0.190650
C57	C	-0.016959	1.422301	-0.685564
C58	C	0.483041	1.922301	-0.185564
C59	C	-0.361999	1.363766	-0.972500
C60	C	0.138001	1.863766	-0.472500
C61	C	-0.375183	1.348338	-1.087523
C62	C	0.124817	1.848338	-0.587523
C63	C	-0.307083	1.669915	-0.735431
C64	C	0.192917	2.169915	-0.235431
C65	C	-0.296865	1.784949	-0.749429
C66	C	0.203135	2.284949	-0.249429
C67	C	-0.324154	1.408007	-1.143677
C68	C	0.175846	1.908007	-0.643677
C69	C	-0.337778	1.392063	-1.262558
C70	C	0.162222	1.892063	-0.762558
C71	C	-0.300181	1.436096	-0.433721
C72	C	0.199819	1.936096	0.066279
C73	C	-0.286742	1.451741	-0.318710
C74	C	0.213258	1.951741	0.181290
H75	H	-0.377938	0.801046	-0.638523
H76	H	0.122062	1.301046	-0.138523
O77	O	-0.782915	1.518576	-0.610961
O78	O	-0.282915	2.018576	-0.110961
H79	H	-0.792088	1.510631	-0.528487
H80	H	-0.292088	2.010631	-0.028487
H81	H	-0.391551	1.329164	-1.302489
H82	H	0.108449	1.829164	-0.802489
O83	O	-0.878360	1.281545	-0.794225
O84	O	-0.378360	1.781545	-0.294225
H85	H	-0.869210	1.289481	-0.876709
H86	H	-0.369210	1.789481	-0.376709
O87	O	-0.215507	1.535058	-1.265833
O88	O	0.284493	2.035058	-0.765833
H89	H	-0.215987	1.534516	-1.180758
H90	H	0.284013	2.034516	-0.680758
O91	O	-0.252925	1.491322	-1.090794
O92	O	0.247075	1.991322	-0.590794
H93	H	-0.253407	1.490779	-1.005719
H94	H	0.246593	1.990779	-0.505719
H95	H	-0.255243	0.824945	-0.806336
H96	H	0.244757	1.324945	-0.306336
O97	O	-0.446412	1.265024	-1.140407
O98	O	0.053588	1.765024	-0.640407
H99	H	-0.490867	1.301729	-1.197616
H100	H	0.009133	1.801729	-0.697616
O101	O	-0.270612	1.012910	-0.785260
O102	O	0.229388	1.512910	-0.285260
H103	H	-0.270953	1.097985	-0.784776
H104	H	0.229047	1.597985	-0.284776
O105	O	-0.420317	0.963066	-0.580506
O106	O	0.079683	1.463066	-0.080506
H107	H	-0.419984	0.877989	-0.580999
H108	H	0.080016	1.377989	-0.080999
