data_functionalizedCrystal
_audit_creation_method	'MofGen! by Chris Wilmer'
_symmetry_space_group_name_H-M	'P1'
_symmetry_Int_Tables_number	1
_symmetry_cell_setting	triclinic
loop_
_symmetry_equiv_pos_as_xyz
  x,y,z
_cell_length_a	21.295418
_cell_length_b	21.295417
_cell_length_c	21.295420
_cell_angle_alpha	90.017552
_cell_angle_beta	90.034650
_cell_angle_gamma	90.046319
loop_
_atom_site_label
_atom_site_type_symbol
_atom_site_fract_x
_atom_site_fract_y
_atom_site_fract_z
Zn1	Zn	0.962299	-0.250441	0.356233
Zn2	Zn	1.212299	-0.000441	0.606233
Zn3	Zn	1.462299	0.249559	0.856233
Zn4	Zn	1.712299	0.499559	1.106233
Zn5	Zn	0.962218	-0.355685	0.250959
Zn6	Zn	1.212218	-0.105685	0.500959
Zn7	Zn	1.462218	0.144315	0.750959
Zn8	Zn	1.712218	0.394315	1.000959
Zn9	Zn	0.857039	-0.250463	0.250943
Zn10	Zn	1.107039	-0.000463	0.500943
Zn11	Zn	1.357039	0.249537	0.750943
Zn12	Zn	1.607039	0.499537	1.000943
Zn13	Zn	0.856992	-0.355705	0.356155
Zn14	Zn	1.106992	-0.105705	0.606155
Zn15	Zn	1.356992	0.144295	0.856155
Zn16	Zn	1.606992	0.394295	1.106155
O17	O	0.909637	-0.303073	0.303573
O18	O	1.159637	-0.053073	0.553573
O19	O	1.409637	0.196927	0.803573
O20	O	1.659637	0.446927	1.053573
O21	O	1.050378	-0.264384	0.342308
O22	O	1.300378	-0.014384	0.592308
O23	O	1.550378	0.235616	0.842308
O24	O	1.800378	0.485616	1.092308
O25	O	0.948252	-0.341728	0.162867
O26	O	1.198252	-0.091728	0.412867
O27	O	1.448252	0.158272	0.662867
O28	O	1.698252	0.408272	0.912867
O29	O	0.871056	-0.162370	0.264936
O30	O	1.121056	0.087630	0.514936
O31	O	1.371056	0.337630	0.764936
O32	O	1.621056	0.587630	1.014936
O33	O	1.050319	-0.341707	0.264963
O34	O	1.300319	-0.091707	0.514963
O35	O	1.550319	0.158293	0.764963
O36	O	1.800319	0.408293	1.014963
O37	O	0.948390	-0.162354	0.342293
O38	O	1.198390	0.087646	0.592293
O39	O	1.448390	0.337646	0.842293
O40	O	1.698390	0.587646	1.092293
O41	O	0.870977	-0.264422	0.162856
O42	O	1.120977	-0.014422	0.412856
O43	O	1.370977	0.235578	0.662856
O44	O	1.620977	0.485578	0.912856
O45	O	0.768943	-0.264441	0.264861
O46	O	1.018943	-0.014441	0.514861
O47	O	1.268943	0.235559	0.764861
O48	O	1.518943	0.485559	1.014861
O49	O	0.870975	-0.341741	0.444255
O50	O	1.120975	-0.091741	0.694255
O51	O	1.370975	0.158259	0.944255
O52	O	1.620975	0.408259	1.194255
O53	O	0.768909	-0.341762	0.342159
O54	O	1.018909	-0.091762	0.592159
O55	O	1.268909	0.158238	0.842159
O56	O	1.518909	0.408238	1.092159
O57	O	0.948344	-0.264403	0.444312
O58	O	1.198344	-0.014403	0.694312
O59	O	1.448344	0.235597	0.944312
O60	O	1.698344	0.485597	1.194312
O61	O	0.948206	-0.443777	0.264887
O62	O	1.198206	-0.193777	0.514887
O63	O	1.448206	0.056223	0.764887
O64	O	1.698206	0.306223	1.014887
O65	O	0.870897	-0.443792	0.342175
O66	O	1.120897	-0.193792	0.592175
O67	O	1.370897	0.056208	0.842175
O68	O	1.620897	0.306208	1.092175
C69	C	0.909555	-0.466625	0.303538
C70	C	1.159555	-0.216625	0.553538
C71	C	1.409555	0.033375	0.803538
C72	C	1.659555	0.283375	1.053538
C73	C	0.909577	-0.536593	0.303544
C74	C	1.159577	-0.286593	0.553544
C75	C	1.409577	-0.036593	0.803544
C76	C	1.659577	0.213407	1.053544
C77	C	0.746085	-0.303106	0.303500
C78	C	0.996085	-0.053106	0.553500
C79	C	1.246085	0.196894	0.803500
C80	C	1.496085	0.446894	1.053500
C81	C	0.676117	-0.303136	0.303484
C82	C	0.926117	-0.053136	0.553484
C83	C	1.176117	0.196864	0.803484
C84	C	1.426117	0.446864	1.053484
C85	C	0.949868	-0.569431	0.263342
C86	C	1.199868	-0.319431	0.513342
C87	C	1.449868	-0.069431	0.763342
C88	C	1.699868	0.180569	1.013342
C89	C	0.949897	-0.635174	0.263356
C90	C	1.199897	-0.385174	0.513356
C91	C	1.449897	-0.135174	0.763356
C92	C	1.699897	0.114826	1.013356
C93	C	0.909625	-0.668076	0.303566
C94	C	1.159625	-0.418076	0.553566
C95	C	1.409625	-0.168076	0.803566
C96	C	1.659625	0.081924	1.053566
C97	C	0.869331	-0.635230	0.343776
C98	C	1.119331	-0.385230	0.593776
C99	C	1.369331	-0.135230	0.843776
C100	C	1.619331	0.114770	1.093776
C101	C	0.869307	-0.569488	0.343765
C102	C	1.119307	-0.319488	0.593765
C103	C	1.369307	-0.069488	0.843765
C104	C	1.619307	0.180512	1.093765
N105	N	0.854557	-0.771358	0.308340
N106	N	1.104557	-0.521358	0.558340
N107	N	1.354557	-0.271358	0.808340
N108	N	1.604557	-0.021358	1.058340
N109	N	0.854581	-0.833809	0.308347
N110	N	1.104581	-0.583809	0.558347
N111	N	1.354581	-0.333809	0.808347
N112	N	1.604581	-0.083809	1.058347
C113	C	0.909695	-0.866150	0.303602
C114	C	1.159695	-0.616150	0.553602
C115	C	1.409695	-0.366150	0.803602
C116	C	1.659695	-0.116150	1.053602
N117	N	0.964785	-0.833681	0.298838
N118	N	1.214785	-0.583681	0.548838
N119	N	1.464785	-0.333681	0.798838
N120	N	1.714785	-0.083681	1.048838
N121	N	0.964760	-0.771223	0.298828
N122	N	1.214760	-0.521223	0.548828
N123	N	1.464760	-0.271223	0.798828
N124	N	1.714760	-0.021223	1.048828
C125	C	0.909646	-0.739361	0.303582
C126	C	1.159646	-0.489361	0.553582
C127	C	1.409646	-0.239361	0.803582
C128	C	1.659646	0.010639	1.053582
C129	C	0.950021	-0.970274	0.263413
C130	C	1.200021	-0.720274	0.513413
C131	C	1.450021	-0.470274	0.763413
C132	C	1.700021	-0.220274	1.013413
C133	C	0.950052	-1.036018	0.263431
C134	C	1.200052	-0.786018	0.513431
C135	C	1.450052	-0.536018	0.763431
C136	C	1.700052	-0.286018	1.013431
C137	C	0.869480	-1.036072	0.343848
C138	C	1.119480	-0.786072	0.593848
C139	C	1.369480	-0.536072	0.843848
C140	C	1.619480	-0.286072	1.093848
C141	C	0.869455	-0.970330	0.343833
C142	C	1.119455	-0.720330	0.593833
C143	C	1.369455	-0.470330	0.843833
C144	C	1.619455	-0.220330	1.093833
C145	C	0.909725	-0.937435	0.303612
C146	C	1.159725	-0.687435	0.553612
C147	C	1.409725	-0.437435	0.803612
C148	C	1.659725	-0.187435	1.053612
C149	C	0.643249	-0.343450	0.343673
C150	C	0.893249	-0.093450	0.593673
C151	C	1.143249	0.156550	0.843673
C152	C	1.393249	0.406550	1.093673
C153	C	0.577507	-0.343435	0.343702
C154	C	0.827507	-0.093435	0.593702
C155	C	1.077507	0.156565	0.843702
C156	C	1.327507	0.406565	1.093702
C157	C	0.544635	-0.303111	0.303529
C158	C	0.794635	-0.053111	0.553529
C159	C	1.044635	0.196889	0.803529
C160	C	1.294635	0.446889	1.053529
C161	C	0.577511	-0.262789	0.263337
C162	C	0.827511	-0.012789	0.513337
C163	C	1.077511	0.237211	0.763337
C164	C	1.327511	0.487211	1.013337
C165	C	0.643252	-0.262801	0.263315
C166	C	0.893252	-0.012801	0.513315
C167	C	1.143252	0.237199	0.763315
C168	C	1.393252	0.487199	1.013315
N169	N	0.441368	-0.298180	0.248472
N170	N	0.691368	-0.048180	0.498472
N171	N	0.941368	0.201820	0.748472
N172	N	1.191368	0.451820	0.998472
N173	N	0.378916	-0.298172	0.248495
N174	N	0.628916	-0.048172	0.498495
N175	N	0.878916	0.201828	0.748495
N176	N	1.128916	0.451828	0.998495
C177	C	0.346560	-0.303071	0.303596
C178	C	0.596560	-0.053071	0.553596
C179	C	0.846560	0.196929	0.803596
C180	C	1.096560	0.446929	1.053596
N181	N	0.379015	-0.307991	0.358674
N182	N	0.629015	-0.057991	0.608674
N183	N	0.879015	0.192009	0.858674
N184	N	1.129015	0.442009	1.108674
N185	N	0.441472	-0.308002	0.358650
N186	N	0.691472	-0.058002	0.608650
N187	N	0.941472	0.191998	0.858650
N188	N	1.191472	0.441998	1.108650
C189	C	0.473350	-0.303093	0.303550
C190	C	0.723350	-0.053093	0.553550
C191	C	0.973350	0.196907	0.803550
C192	C	1.223350	0.446907	1.053550
C193	C	0.242406	-0.343371	0.343820
C194	C	0.492406	-0.093371	0.593820
C195	C	0.742406	0.156629	0.843820
C196	C	0.992406	0.406629	1.093820
C197	C	0.176663	-0.343351	0.343849
C198	C	0.426663	-0.093351	0.593849
C199	C	0.676663	0.156649	0.843849
C200	C	0.926663	0.406649	1.093849
C201	C	0.176669	-0.262709	0.263479
C202	C	0.426669	-0.012709	0.513479
C203	C	0.676669	0.237291	0.763479
C204	C	0.926669	0.487291	1.013479
C205	C	0.242411	-0.262725	0.263455
C206	C	0.492411	-0.012725	0.513455
C207	C	0.742411	0.237275	0.763455
C208	C	0.992411	0.487275	1.013455
C209	C	0.275276	-0.303060	0.303625
C210	C	0.525276	-0.053060	0.553625
C211	C	0.775276	0.196940	0.803625
C212	C	1.025276	0.446940	1.053625
C213	C	1.073827	-0.303041	0.303646
C214	C	1.323827	-0.053041	0.553646
C215	C	1.573827	0.196959	0.803646
C216	C	1.823827	0.446959	1.053646
C217	C	1.143796	-0.303027	0.303677
C218	C	1.393796	-0.053027	0.553677
C219	C	1.643796	0.196973	0.803677
C220	C	1.893796	0.446973	1.053677
C221	C	0.909663	-0.303072	0.467763
C222	C	1.159663	-0.053072	0.717763
C223	C	1.409663	0.196928	0.967763
C224	C	1.659663	0.446928	1.217763
C225	C	0.909675	-0.303071	0.537731
C226	C	1.159675	-0.053071	0.787731
C227	C	1.409675	0.196929	1.037731
C228	C	1.659675	0.446929	1.287731
C229	C	0.909737	-0.138883	0.303622
C230	C	1.159737	0.111117	0.553622
C231	C	1.409737	0.361117	0.803622
C232	C	1.659737	0.611117	1.053622
C233	C	0.909780	-0.068915	0.303642
C234	C	1.159780	0.181085	0.553642
C235	C	1.409780	0.431085	0.803642
C236	C	1.659780	0.681085	1.053642
C237	C	0.869444	-0.262821	0.570582
C238	C	1.119444	-0.012821	0.820582
C239	C	1.369444	0.237179	1.070582
C240	C	1.619444	0.487179	1.320582
C241	C	0.869432	-0.262824	0.636324
C242	C	1.119432	-0.012824	0.886324
C243	C	1.369432	0.237176	1.136324
C244	C	1.619432	0.487176	1.386324
C245	C	0.909663	-0.303071	0.669214
C246	C	1.159663	-0.053071	0.919214
C247	C	1.409663	0.196929	1.169214
C248	C	1.659663	0.446929	1.419214
C249	C	0.949896	-0.343330	0.636355
C250	C	1.199896	-0.093330	0.886355
C251	C	1.449896	0.156670	1.136355
C252	C	1.699896	0.406670	1.386355
C253	C	0.949902	-0.343329	0.570614
C254	C	1.199902	-0.093329	0.820614
C255	C	1.449902	0.156671	1.070614
C256	C	1.699902	0.406671	1.320614
N257	N	0.964753	-0.307887	0.772470
N258	N	1.214753	-0.057887	1.022470
N259	N	1.464753	0.192113	1.272470
N260	N	1.714753	0.442113	1.522470
N261	N	0.964745	-0.307884	0.834922
N262	N	1.214745	-0.057884	1.084922
N263	N	1.464745	0.192116	1.334922
N264	N	1.714745	0.442116	1.584922
C265	C	0.909647	-0.303075	0.867288
C266	C	1.159647	-0.053075	1.117288
C267	C	1.409647	0.196925	1.367288
C268	C	1.659647	0.446925	1.617288
N269	N	0.854554	-0.298257	0.834844
N270	N	1.104554	-0.048257	1.084844
N271	N	1.354554	0.201743	1.334844
N272	N	1.604554	0.451743	1.584844
N273	N	0.854562	-0.298258	0.772387
N274	N	1.104562	-0.048258	1.022387
N275	N	1.354562	0.201742	1.272387
N276	N	1.604562	0.451742	1.522387
C277	C	0.909661	-0.303076	0.740499
C278	C	1.159661	-0.053076	0.990499
C279	C	1.409661	0.196924	1.240499
C280	C	1.659661	0.446924	1.490499
C281	C	0.869400	-0.262826	0.971425
C282	C	1.119400	-0.012826	1.221425
C283	C	1.369400	0.237174	1.471425
C284	C	1.619400	0.487174	1.721425
C285	C	0.869387	-0.262833	1.037168
C286	C	1.119387	-0.012833	1.287168
C287	C	1.369387	0.237167	1.537168
C288	C	1.619387	0.487167	1.787168
C289	C	0.949857	-0.343336	1.037198
C290	C	1.199857	-0.093336	1.287198
C291	C	1.449857	0.156664	1.537198
C292	C	1.699857	0.406664	1.787198
C293	C	0.949864	-0.343331	0.971455
C294	C	1.199864	-0.093331	1.221455
C295	C	1.449864	0.156669	1.471455
C296	C	1.699864	0.406669	1.721455
C297	C	0.909636	-0.303073	0.938573
C298	C	1.159636	-0.053073	1.188573
C299	C	1.409636	0.196927	1.438573
C300	C	1.659636	0.446927	1.688573
C301	C	0.909612	-0.303087	1.140021
C302	C	1.159612	-0.053087	1.390021
C303	C	1.409612	0.196913	1.640021
C304	C	1.659612	0.446913	1.890021
C305	C	0.909618	-0.303082	1.070053
C306	C	1.159618	-0.053082	1.320053
C307	C	1.409618	0.196918	1.570053
C308	C	1.659618	0.446918	1.820053
H309	H	0.982659	-0.542650	0.230593
H310	H	1.232659	-0.292650	0.480593
H311	H	1.482659	-0.042650	0.730593
H312	H	1.732659	0.207350	0.980593
H313	H	0.836497	-0.542751	0.376503
H314	H	1.086497	-0.292751	0.626503
H315	H	1.336497	-0.042751	0.876503
H316	H	1.586497	0.207249	1.126503
H317	H	0.149905	-0.229874	0.230773
H318	H	0.399905	0.020126	0.480773
H319	H	0.649905	0.270126	0.730773
H320	H	0.899905	0.520126	0.980773
H321	H	0.269173	-0.229900	0.230725
H322	H	0.519173	0.020100	0.480725
H323	H	0.769173	0.270100	0.730725
H324	H	1.019173	0.520100	0.980725
H325	H	0.550743	-0.229957	0.230630
H326	H	0.800743	0.020043	0.480630
H327	H	1.050743	0.270043	0.730630
H328	H	1.300743	0.520043	0.980630
H329	H	0.982814	-0.943490	0.230664
H330	H	1.232814	-0.693490	0.480664
H331	H	1.482814	-0.443490	0.730664
H332	H	1.732814	-0.193490	0.980664
H333	H	0.836542	-0.662023	0.376516
H334	H	1.086542	-0.412023	0.626516
H335	H	1.336542	-0.162023	0.876516
H336	H	1.586542	0.087977	1.126516
Br337	Br	1.004491	-0.397956	0.680988
Br338	Br	1.254491	-0.147956	0.930988
Br339	Br	1.504491	0.102044	1.180988
Br340	Br	1.754491	0.352044	1.430988
H341	H	0.836685	-0.230042	0.543813
H342	H	1.086685	0.019958	0.793813
H343	H	1.336685	0.269958	1.043813
H344	H	1.586685	0.519958	1.293813
H345	H	0.836672	-0.230044	0.663077
H346	H	1.086672	0.019956	0.913077
H347	H	1.336672	0.269956	1.163077
H348	H	1.586672	0.519956	1.413077
Br349	Br	1.004744	-1.080585	0.208873
Br350	Br	1.254744	-0.830585	0.458873
Br351	Br	1.504744	-0.580585	0.708873
Br352	Br	1.754744	-0.330585	0.958873
H353	H	0.269167	-0.376210	0.376531
H354	H	0.519167	-0.126210	0.626531
H355	H	0.769167	0.123790	0.876531
H356	H	1.019167	0.373790	1.126531
H357	H	0.836692	-1.062860	0.376590
H358	H	1.086692	-0.812860	0.626590
H359	H	1.336692	-0.562860	0.876590
H360	H	1.586692	-0.312860	1.126590
H361	H	0.982666	-0.376106	0.543867
H362	H	1.232666	-0.126106	0.793867
H363	H	1.482666	0.123894	1.043867
H364	H	1.732666	0.373894	1.293867
Br365	Br	1.004582	-0.679750	0.208792
Br366	Br	1.254582	-0.429750	0.458792
Br367	Br	1.504582	-0.179750	0.708792
Br368	Br	1.754582	0.070250	0.958792
Br369	Br	0.687863	-0.208083	0.208769
Br370	Br	0.937863	0.041917	0.458769
Br371	Br	1.187863	0.291917	0.708769
Br372	Br	1.437863	0.541917	0.958769
H373	H	0.836622	-0.230059	1.063914
H374	H	1.086622	0.019941	1.313914
H375	H	1.336622	0.269941	1.563914
H376	H	1.586622	0.519941	1.813914
Br377	Br	0.814804	-0.208194	0.926794
Br378	Br	1.064804	0.041806	1.176794
Br379	Br	1.314804	0.291806	1.426794
Br380	Br	1.564804	0.541806	1.676794
Br381	Br	0.532890	-0.398150	0.398250
Br382	Br	0.782890	-0.148150	0.648250
Br383	Br	1.032890	0.101850	0.898250
Br384	Br	1.282890	0.351850	1.148250
H385	H	0.670004	-0.376293	0.376384
H386	H	0.920004	-0.126293	0.626384
H387	H	1.170004	0.123707	0.876384
H388	H	1.420004	0.373707	1.126384
H389	H	0.149903	-0.376179	0.376580
H390	H	0.399903	-0.126179	0.626580
H391	H	0.649903	0.123821	0.876580
H392	H	0.899903	0.373821	1.126580
H393	H	0.982626	-0.376106	0.944708
H394	H	1.232626	-0.126106	1.194708
H395	H	1.482626	0.123894	1.444708
H396	H	1.732626	0.373894	1.694708
Br397	Br	0.814770	-0.925760	0.398395
Br398	Br	1.064770	-0.675760	0.648395
Br399	Br	1.314770	-0.425760	0.898395
Br400	Br	1.564770	-0.175760	1.148395
Br401	Br	1.004451	-0.397964	1.081826
Br402	Br	1.254451	-0.147964	1.331826
Br403	Br	1.504451	0.102036	1.581826
Br404	Br	1.754451	0.352036	1.831826
