data_functionalizedCrystal
_audit_creation_method	'MofGen! by Chris Wilmer'
_symmetry_space_group_name_H-M	'P1'
_symmetry_Int_Tables_number	1
_symmetry_cell_setting	triclinic
loop_
_symmetry_equiv_pos_as_xyz
  x,y,z
_cell_length_a	13.339070
_cell_length_b	14.519709
_cell_length_c	11.804365
_cell_angle_alpha	101.851959
_cell_angle_beta	74.875130
_cell_angle_gamma	99.654719
loop_
_atom_site_label
_atom_site_type_symbol
_atom_site_fract_x
_atom_site_fract_y
_atom_site_fract_z
O1	O	1.363544	0.449147	-0.099080
O2	O	1.863544	0.949147	0.400920
O3	O	1.068905	0.388436	-0.099072
O4	O	1.568905	0.888436	0.400928
O5	O	1.224034	0.286542	-0.099066
O6	O	1.724034	0.786542	0.400934
O7	O	1.208414	0.551041	-0.099087
O8	O	1.708414	1.051041	0.400913
O9	O	1.183194	0.313329	0.098989
O10	O	1.683194	0.813329	0.598989
O11	O	1.028065	0.415223	0.098982
O12	O	1.528065	0.915223	0.598982
O13	O	1.322704	0.475934	0.098974
O14	O	1.822704	0.975934	0.598974
Cu15	Cu	1.171656	0.448024	0.117062
Cu16	Cu	1.671656	0.948024	0.617062
Cu17	Cu	1.219953	0.416345	-0.117160
Cu18	Cu	1.719953	0.916345	0.382840
O19	O	1.167575	0.577828	0.098968
O20	O	1.667575	1.077828	0.598968
C21	C	1.010777	0.391574	-0.000044
C22	C	1.510777	0.891574	0.499956
C23	C	0.898419	0.361005	-0.000040
C24	C	1.398419	0.861005	0.499960
C25	C	0.534064	0.598691	-0.000078
C26	C	1.034064	1.098691	0.499922
C27	C	0.639630	0.627415	-0.000085
C28	C	1.139630	1.127415	0.499915
C29	C	0.704332	0.560815	-0.000073
C30	C	1.204332	1.060815	0.499927
C31	C	0.663459	0.465486	-0.000055
C32	C	1.163459	0.965486	0.499945
C33	C	0.557884	0.436759	-0.000058
C34	C	1.057884	0.936759	0.499942
C35	C	0.728152	0.398882	-0.000053
C36	C	1.228152	0.898882	0.499947
C37	C	0.687279	0.303554	-0.000035
C38	C	1.187279	0.803554	0.499965
C39	C	0.581714	0.274831	-0.000037
C40	C	1.081714	0.774831	0.499963
C41	C	0.517012	0.341431	-0.000048
C42	C	1.017012	0.841431	0.499952
C43	C	0.833727	0.427610	-0.000051
C44	C	1.333727	0.927610	0.499949
C45	C	0.857547	0.265677	-0.000031
C46	C	1.357547	0.765677	0.499969
C47	C	0.751981	0.236954	-0.000024
C48	C	1.251981	0.736954	0.499976
C49	C	1.202886	0.265390	-0.000038
C50	C	1.702886	0.765390	0.499962
C51	C	1.200704	0.162454	-0.000038
C52	C	1.700704	0.662454	0.499962
C53	C	1.192677	-0.214489	-0.000068
C54	C	1.692677	0.285511	0.499932
C55	C	1.194906	-0.109613	-0.000059
C56	C	1.694906	0.390387	0.499941
C57	C	1.196690	-0.026021	-0.000052
C58	C	1.696690	0.473979	0.499948
C59	C	1.198920	0.078862	-0.000045
C60	C	1.698920	0.578862	0.499955
C61	C	1.380832	0.472796	-0.000057
C62	C	1.880832	0.972796	0.499943
C63	C	1.493192	0.503364	-0.000068
C64	C	1.993192	1.003364	0.499932
C65	C	1.188723	0.598979	-0.000062
C66	C	1.688723	1.098979	0.499938
C67	C	1.190907	0.701915	-0.000071
C68	C	1.690907	1.201915	0.499929
N69	N	1.137693	0.470307	0.281801
N70	N	1.637693	0.970307	0.781801
N71	N	1.253924	0.394058	-0.281899
N72	N	1.753924	0.894058	0.218101
C73	C	1.335480	0.340531	0.655758
C74	C	1.835480	0.840531	1.155758
C75	C	1.361172	0.323670	0.531097
C76	C	1.861172	0.823670	1.031097
C77	C	1.305304	0.360328	0.468767
C78	C	1.805304	0.860328	0.968767
C79	C	1.223741	0.413850	0.531110
C80	C	1.723741	0.913850	1.031110
C81	C	1.198052	0.430719	0.655783
C82	C	1.698052	0.930719	1.155783
C83	C	1.167876	0.450515	0.468792
C84	C	1.667876	0.950515	0.968792
C85	C	1.086313	0.504037	0.531135
C86	C	1.586313	1.004037	1.031135
C87	C	1.060628	0.520903	0.655795
C88	C	1.560628	1.020903	1.155795
C89	C	1.116496	0.484245	0.718126
C90	C	1.616496	0.984245	1.218126
C91	C	1.193565	0.433646	0.344119
C92	C	1.693565	0.933646	0.844119
C93	C	1.056137	0.523834	0.344144
C94	C	1.556137	1.023834	0.844144
C95	C	1.030445	0.540695	0.468805
C96	C	1.530445	1.040695	0.968805
H97	H	0.548441	0.197207	-0.000035
H98	H	1.048441	0.697207	0.499965
H99	H	0.431050	0.318049	-0.000042
H100	H	0.931050	0.818049	0.499958
H101	H	1.010646	0.553686	0.293396
H102	H	1.510646	1.053686	0.793396
H103	H	1.427580	0.280094	0.480342
H104	H	1.927580	0.780094	0.980342
N105	N	1.088791	0.502432	0.852585
N106	N	1.588791	1.002432	1.352585
H107	H	1.097437	0.572956	0.882607
H108	H	1.597437	1.072956	1.382607
H109	H	1.013823	0.475388	0.882535
H110	H	1.513823	0.975388	1.382535
H111	H	1.326226	0.346597	0.367263
H112	H	1.826226	0.846597	0.867263
H113	H	0.994223	0.564492	0.706555
H114	H	1.494223	1.064492	1.206555
N115	N	1.395740	0.301008	0.722982
N116	N	1.895740	0.801008	1.222982
H117	H	1.367091	0.319820	0.811416
H118	H	1.867091	0.819820	1.311416
H119	H	1.388429	0.229609	0.701210
H120	H	1.888429	0.729609	1.201210
H121	H	0.964035	0.584274	0.519580
H122	H	1.464035	1.084274	1.019580
N123	N	0.707880	0.134141	-0.000001
N124	N	1.207880	0.634141	0.499999
H125	H	0.679749	0.108684	-0.073417
H126	H	1.179749	0.608684	0.426583
H127	H	0.764922	0.096374	0.000054
H128	H	1.264922	0.596374	0.500054
H129	H	0.910229	0.211445	-0.000026
H130	H	1.410229	0.711445	0.499974
N131	N	0.877798	0.530422	-0.000073
N132	N	1.377798	1.030422	0.499927
H133	H	0.839074	0.570750	0.073341
H134	H	1.339074	1.070750	0.573341
H135	H	0.954495	0.538438	-0.000117
H136	H	1.454495	1.038438	0.499883
N137	N	0.818191	0.591788	-0.000067
N138	N	1.318191	1.091788	0.499933
H139	H	0.854093	0.620563	-0.073488
H140	H	1.354093	1.120563	0.426512
H141	H	0.823705	0.640394	0.073398
H142	H	1.323705	1.140394	0.573398
N143	N	0.683719	0.730222	-0.000122
N144	N	1.183719	1.230222	0.499878
H145	H	0.626715	0.768054	-0.000132
H146	H	1.126715	1.268054	0.499868
H147	H	0.711865	0.755608	0.073293
H148	H	1.211865	1.255608	0.573293
N149	N	0.464286	0.670514	-0.000105
N150	N	0.964286	1.170514	0.499895
H151	H	0.391209	0.637848	-0.000108
H152	H	0.891209	1.137848	0.499892
H153	H	0.462387	0.720825	0.073310
H154	H	0.962387	1.220825	0.573310
N155	N	1.281521	0.375918	0.276872
N156	N	1.781521	0.875918	0.776872
H157	H	1.348903	0.407893	0.298544
H158	H	1.848903	0.907893	0.798544
H159	H	1.265186	0.310392	0.298603
H160	H	1.765186	0.810392	0.798603
