data_functionalizedCrystal
_audit_creation_method	'MofGen! by Chris Wilmer'
_symmetry_space_group_name_H-M	'P1'
_symmetry_Int_Tables_number	1
_symmetry_cell_setting	triclinic
loop_
_symmetry_equiv_pos_as_xyz
  x,y,z
_cell_length_a	15.944493
_cell_length_b	15.944493
_cell_length_c	14.421503
_cell_angle_alpha	90.010165
_cell_angle_beta	89.992936
_cell_angle_gamma	83.475044
loop_
_atom_site_label
_atom_site_type_symbol
_atom_site_fract_x
_atom_site_fract_y
_atom_site_fract_z
O1	O	1.114537	0.108091	-0.077087
O2	O	1.447870	0.441425	0.256246
O3	O	1.781204	0.774758	0.589580
O4	O	0.869978	0.121499	-0.077090
O5	O	1.203311	0.454832	0.256243
O6	O	1.536645	0.788166	0.589577
O7	O	0.998961	-0.007484	-0.077096
O8	O	1.332295	0.325849	0.256237
O9	O	1.665628	0.659182	0.589570
O10	O	0.985554	0.237075	-0.077081
O11	O	1.318887	0.570408	0.256252
O12	O	1.652221	0.903741	0.589586
O13	O	0.998940	-0.007465	0.077127
O14	O	1.332273	0.325868	0.410461
O15	O	1.665607	0.659202	0.743794
O16	O	0.869957	0.121518	0.077133
O17	O	1.203290	0.454851	0.410467
O18	O	1.536623	0.788185	0.743800
O19	O	1.114516	0.108111	0.077136
O20	O	1.447849	0.441444	0.410470
O21	O	1.781182	0.774777	0.743803
Cu22	Cu	0.992234	0.114816	0.091217
Cu23	Cu	1.325568	0.448149	0.424550
Cu24	Cu	1.658901	0.781483	0.757883
Cu25	Cu	0.992260	0.114793	-0.091170
Cu26	Cu	1.325593	0.448127	0.242163
Cu27	Cu	1.658926	0.781460	0.575496
O28	O	0.985532	0.237094	0.077142
O29	O	1.318866	0.570427	0.410476
O30	O	1.652199	0.903761	0.743809
C31	C	0.838673	0.120961	0.000021
C32	C	1.172006	0.454294	0.333354
C33	C	1.505339	0.787627	0.666688
C34	C	0.745424	0.119318	0.000019
C35	C	1.078758	0.452651	0.333352
C36	C	1.412091	0.785984	0.666686
C37	C	0.509649	0.195240	0.000023
C38	C	0.842982	0.528574	0.333357
C39	C	1.176315	0.861907	0.666690
C40	C	0.459088	0.154308	0.076065
C41	C	0.792422	0.487641	0.409398
C42	C	1.125755	0.820974	0.742732
C43	C	0.574704	0.116273	0.000021
C44	C	0.908037	0.449607	0.333354
C45	C	1.241371	0.782940	0.666687
C46	C	0.459114	0.154270	-0.075987
C47	C	0.792447	0.487603	0.257346
C48	C	1.125781	0.820937	0.590679
C49	C	0.409795	0.113339	0.000018
C50	C	0.743128	0.446672	0.333352
C51	C	1.076462	0.780006	0.666685
C52	C	0.525372	0.075362	0.076125
C53	C	0.858705	0.408696	0.409459
C54	C	1.192039	0.742029	0.742792
C55	C	0.525401	0.075336	-0.075995
C56	C	0.858734	0.408669	0.257338
C57	C	1.192068	0.742003	0.590671
C58	C	0.474873	0.034346	0.000065
C59	C	0.808207	0.367679	0.333398
C60	C	1.141540	0.701012	0.666732
C61	C	0.669704	0.117966	0.000023
C62	C	1.003037	0.451300	0.333356
C63	C	1.336370	0.784633	0.666690
C64	C	0.314798	0.111640	0.000023
C65	C	0.648132	0.444973	0.333356
C66	C	0.981465	0.778307	0.666689
C67	C	0.998403	-0.038769	0.000011
C68	C	1.331736	0.294564	0.333345
C69	C	1.665069	0.627897	0.666678
C70	C	0.996760	-0.132018	-0.000000
C71	C	1.330093	0.201316	0.333333
C72	C	1.663426	0.534649	0.666666
C73	C	1.072682	-0.367793	0.000018
C74	C	1.406016	-0.034460	0.333352
C75	C	1.739349	0.298873	0.666685
C76	C	1.031751	-0.418362	-0.076022
C77	C	1.365084	-0.085029	0.257311
C78	C	1.698417	0.248304	0.590645
C79	C	0.993716	-0.302738	0.000011
C80	C	1.327049	0.030595	0.333344
C81	C	1.660382	0.363929	0.666678
C82	C	1.031711	-0.418320	0.076030
C83	C	1.365045	-0.084986	0.409364
C84	C	1.698378	0.248347	0.742697
C85	C	0.990781	-0.467647	0.000026
C86	C	1.324114	-0.134314	0.333359
C87	C	1.657448	0.199020	0.666693
C88	C	0.952805	-0.352079	-0.076092
C89	C	1.286139	-0.018746	0.257241
C90	C	1.619472	0.314588	0.590575
C91	C	0.952777	-0.352033	0.076029
C92	C	1.286111	-0.018699	0.409362
C93	C	1.619444	0.314634	0.742695
C94	C	0.911788	-0.402569	-0.000030
C95	C	1.245121	-0.069235	0.333303
C96	C	1.578454	0.264098	0.666636
C97	C	0.995408	-0.207739	0.000002
C98	C	1.328742	0.125595	0.333335
C99	C	1.662075	0.458928	0.666668
C100	C	0.989082	-0.562644	0.000029
C101	C	1.322415	-0.229311	0.333362
C102	C	1.655749	0.104023	0.666695
C103	C	1.145821	0.108649	0.000023
C104	C	1.479154	0.441982	0.333357
C105	C	1.812488	0.775316	0.666690
C106	C	1.239069	0.110292	0.000019
C107	C	1.572403	0.443625	0.333352
C108	C	1.905736	0.776959	0.666686
C109	C	0.986091	0.268379	0.000033
C110	C	1.319424	0.601712	0.333366
C111	C	1.652758	0.935046	0.666699
C112	C	0.987734	0.361627	0.000038
C113	C	1.321067	0.694961	0.333372
C114	C	1.654401	1.028294	0.666705
N115	N	0.992223	0.114832	0.219498
N116	N	1.325556	0.448165	0.552831
N117	N	1.658889	0.781498	0.886165
N118	N	0.992278	0.114771	-0.219452
N119	N	1.325611	0.448105	0.113882
N120	N	1.658945	0.781438	0.447215
C121	C	0.932570	0.174447	0.469154
C122	C	1.265904	0.507780	0.802488
C123	C	1.599237	0.841113	1.135821
C124	C	1.008469	0.190739	0.530959
C125	C	1.341802	0.524072	0.864293
C126	C	1.675136	0.857405	1.197626
C127	C	0.992243	0.114812	0.408659
C128	C	1.325576	0.448145	0.741993
C129	C	1.658910	0.781478	1.075326
C130	C	0.916364	0.098539	0.530948
C131	C	1.249697	0.431873	0.864282
C132	C	1.583031	0.765206	1.197615
C133	C	0.992256	0.114794	0.591381
C134	C	1.325589	0.448127	0.924714
C135	C	1.658923	0.781461	1.258047
C136	C	1.068180	0.131141	0.469103
C137	C	1.401513	0.464475	0.802437
C138	C	1.734847	0.797808	1.135770
C139	C	0.976025	0.038909	0.469087
C140	C	1.309358	0.372242	0.802420
C141	C	1.642692	0.705576	1.135754
C142	C	1.051979	0.055169	0.530864
C143	C	1.385312	0.388502	0.864197
C144	C	1.718645	0.721835	1.197531
C145	C	0.992234	0.114824	0.303398
C146	C	1.325568	0.448157	0.636732
C147	C	1.658901	0.781490	0.970065
C148	C	0.992273	0.114781	0.696640
C149	C	1.325607	0.448115	1.029973
C150	C	1.658940	0.781448	1.363306
H151	H	0.554363	0.042005	-0.140289
H152	H	0.887696	0.375338	0.193044
H153	H	1.221029	0.708671	0.526377
H154	H	0.919448	-0.323057	0.140317
H155	H	1.252782	0.010276	0.473651
H156	H	1.586115	0.343610	0.806984
Cl157	Cl	0.414439	0.205768	-0.175229
Cl158	Cl	0.747772	0.539101	0.158105
Cl159	Cl	1.081106	0.872434	0.491438
H160	H	1.140702	-0.352179	-0.000057
H161	H	1.474035	-0.018846	0.333276
H162	H	1.807369	0.314488	0.666609
Cl163	Cl	0.817284	0.077299	0.572892
Cl164	Cl	1.150617	0.410633	0.906226
Cl165	Cl	1.483951	0.743966	1.239559
Cl166	Cl	1.083208	-0.462983	0.175278
Cl167	Cl	1.416541	-0.129650	0.508612
Cl168	Cl	1.749874	0.203684	0.841945
H169	H	1.065108	-0.447323	-0.140308
H170	H	1.398442	-0.113990	0.193025
H171	H	1.731775	0.219344	0.526358
Cl172	Cl	1.129980	-0.022709	0.572443
Cl173	Cl	1.463314	0.310625	0.905777
Cl174	Cl	1.796647	0.643958	1.239110
H175	H	0.525258	0.263261	0.000099
H176	H	0.858592	0.596595	0.333432
H177	H	1.191925	0.929928	0.666765
H178	H	1.132369	0.144974	0.442052
H179	H	1.465702	0.478307	0.775385
H180	H	1.799036	0.811640	1.108719
H181	H	0.919485	-0.323260	-0.140447
H182	H	1.252818	0.010073	0.192887
H183	H	1.586151	0.343407	0.526220
Cl184	Cl	0.806691	-0.426430	-0.000092
Cl185	Cl	1.140024	-0.093097	0.333241
Cl186	Cl	1.473358	0.240237	0.666574
Cl187	Cl	0.854739	0.252367	0.427314
Cl188	Cl	1.188073	0.585701	0.760647
Cl189	Cl	1.521406	0.919034	1.093980
Cl190	Cl	1.029668	0.289828	0.572920
Cl191	Cl	1.363001	0.623161	0.906253
Cl192	Cl	1.696335	0.956495	1.239587
Cl193	Cl	0.954791	-0.060152	0.427090
Cl194	Cl	1.288125	0.273182	0.760423
Cl195	Cl	1.621458	0.606515	1.093757
H196	H	0.430135	0.187664	0.140356
H197	H	0.763468	0.520998	0.473689
H198	H	1.096802	0.854331	0.807022
H199	H	0.554198	0.042042	0.140476
H200	H	0.887531	0.375375	0.473810
H201	H	1.220864	0.708708	0.807143
H202	H	0.459422	-0.033727	0.000104
H203	H	0.792755	0.299606	0.333438
H204	H	1.126088	0.632940	0.666771
