data_functionalizedCrystal
_audit_creation_method	'MofGen! by Chris Wilmer'
_symmetry_space_group_name_H-M	'P1'
_symmetry_Int_Tables_number	1
_symmetry_cell_setting	triclinic
loop_
_symmetry_equiv_pos_as_xyz
  x,y,z
_cell_length_a	19.288835
_cell_length_b	27.732048
_cell_length_c	18.366186
_cell_angle_alpha	89.988789
_cell_angle_beta	90.017524
_cell_angle_gamma	97.116693
loop_
_atom_site_label
_atom_site_type_symbol
_atom_site_fract_x
_atom_site_fract_y
_atom_site_fract_z
O1	O	-0.920990	0.060231	-0.060700
O2	O	-0.420990	0.560231	0.439300
O3	O	-0.718676	0.068380	-0.060671
O4	O	-0.218676	0.568380	0.439329
O5	O	-0.826117	-0.006073	-0.060673
O6	O	-0.326117	0.493927	0.439327
O7	O	-0.813550	0.134684	-0.060699
O8	O	-0.313550	0.634684	0.439301
O9	O	-0.826099	-0.006077	0.060427
O10	O	-0.326099	0.493923	0.560427
O11	O	-0.718658	0.068376	0.060428
O12	O	-0.218658	0.568376	0.560428
O13	O	-0.920972	0.060227	0.060399
O14	O	-0.420972	0.560227	0.560399
Zn15	Zn	-0.819812	0.064301	0.079641
Zn16	Zn	-0.319812	0.564301	0.579641
Zn17	Zn	-0.819836	0.064306	-0.079913
Zn18	Zn	-0.319836	0.564306	0.420087
O19	O	-0.813532	0.134680	0.060401
O20	O	-0.313532	0.634680	0.560401
C21	C	-0.692792	0.068119	-0.000118
C22	C	-0.192792	0.568119	0.499882
C23	C	-0.615692	0.067339	-0.000106
C24	C	-0.115692	0.567339	0.499894
C25	C	-0.579500	0.066966	-0.066118
C26	C	-0.079500	0.566966	0.433882
C27	C	-0.507058	0.066228	-0.066126
C28	C	-0.007058	0.566228	0.433874
C29	C	-0.470812	0.065853	-0.000117
C30	C	0.029188	0.565853	0.499883
C31	C	-0.507011	0.066228	0.065904
C32	C	-0.007011	0.566228	0.565904
C33	C	-0.579451	0.066971	0.065910
C34	C	-0.079451	0.566971	0.565910
C35	C	-0.361660	0.036361	0.050453
C36	C	0.138340	0.536361	0.550453
C37	C	-0.289222	0.035615	0.050445
C38	C	0.210778	0.535615	0.550445
C39	C	-0.247382	0.063563	-0.000130
C40	C	0.252618	0.563563	0.499870
C41	C	-0.277990	0.092251	-0.050709
C42	C	0.222010	0.592251	0.449291
C43	C	-0.350430	0.092994	-0.050704
C44	C	0.149570	0.592994	0.449296
C45	C	-0.392262	0.065047	-0.000115
C46	C	0.107738	0.565047	0.499885
C47	C	-0.132640	0.062391	-0.066155
C48	C	0.367360	0.562391	0.433845
C49	C	-0.060195	0.061655	-0.066159
C50	C	0.439805	0.561655	0.433841
C51	C	-0.060151	0.061651	0.065873
C52	C	0.439849	0.561651	0.565873
C53	C	-0.132593	0.062391	0.065875
C54	C	0.367407	0.562391	0.565875
C55	C	-0.168834	0.062758	-0.000140
C56	C	0.331166	0.562758	0.499860
C57	C	-0.825844	-0.024082	-0.000121
C58	C	-0.325844	0.475918	0.499879
C59	C	-0.825049	-0.077740	-0.000115
C60	C	-0.325049	0.422260	0.499885
C61	C	-0.883539	-0.416382	-0.000161
C62	C	-0.383539	0.083618	0.499839
C63	C	-0.880592	-0.618051	-0.000170
C64	C	-0.380592	-0.118051	0.499830
O65	O	-0.934077	-0.649149	-0.000210
O66	O	-0.434077	-0.149149	0.499790
N67	N	-0.816884	-0.637362	-0.000161
N68	N	-0.316884	-0.137362	0.499839
C69	C	-0.753908	-0.606253	-0.000153
C70	C	-0.253908	-0.106253	0.499847
O71	O	-0.699653	-0.627306	-0.000153
O72	O	-0.199653	-0.127306	0.499847
C73	C	-0.756856	-0.404586	-0.000149
C74	C	-0.256856	0.095414	0.499851
C75	C	-0.820568	-0.385277	-0.000151
C76	C	-0.320568	0.114723	0.499849
C77	C	-0.947246	-0.397073	-0.000164
C78	C	-0.447246	0.102927	0.499836
C79	C	-0.947982	-0.346659	-0.000157
C80	C	-0.447982	0.153341	0.499843
C81	C	-0.885011	-0.315554	-0.000148
C82	C	-0.385011	0.184446	0.499852
C83	C	-0.821305	-0.334863	-0.000145
C84	C	-0.321305	0.165137	0.499855
C85	C	-0.693882	-0.373477	-0.000146
C86	C	-0.193882	0.126523	0.499854
C87	C	-0.694624	-0.323058	-0.000147
C88	C	-0.194624	0.176942	0.499853
C89	C	-0.758336	-0.303750	-0.000150
C90	C	-0.258336	0.196250	0.499850
C91	C	-0.759070	-0.253344	-0.000129
C92	C	-0.259070	0.246656	0.499871
N93	N	-0.822778	-0.234032	-0.000138
N94	N	-0.322778	0.265968	0.499862
C95	C	-0.885748	-0.265138	-0.000148
C96	C	-0.385748	0.234862	0.499852
C97	C	-0.752365	-0.712132	-0.000154
C98	C	-0.252365	-0.212132	0.499846
C99	C	-0.751628	-0.762548	-0.000154
C100	C	-0.251628	-0.262548	0.499846
C101	C	-0.878312	-0.774342	-0.000173
C102	C	-0.378312	-0.274342	0.499827
C103	C	-0.879048	-0.723925	-0.000167
C104	C	-0.379048	-0.223925	0.499833
C105	C	-0.816073	-0.692820	-0.000164
C106	C	-0.316073	-0.192820	0.499836
C107	C	-0.887290	-0.159264	-0.000134
C108	C	-0.387290	0.340736	0.499866
C109	C	-0.888020	-0.108845	-0.000125
C110	C	-0.388020	0.391155	0.499875
C111	C	-0.761337	-0.097055	-0.000110
C112	C	-0.261337	0.402945	0.499890
C113	C	-0.760606	-0.147470	-0.000115
C114	C	-0.260606	0.352530	0.499885
C115	C	-0.823588	-0.178573	-0.000130
C116	C	-0.323588	0.321427	0.499870
O117	O	-0.705614	-0.222217	-0.000097
O118	O	-0.205614	0.277783	0.499903
O119	O	-0.939996	-0.244075	-0.000165
O120	O	-0.439996	0.255925	0.499835
C121	C	-0.882803	-0.466797	-0.000167
C122	C	-0.382803	0.033203	0.499833
C123	C	-0.819096	-0.486105	-0.000164
C124	C	-0.319096	0.013895	0.499836
C125	C	-0.756125	-0.455000	-0.000154
C126	C	-0.256125	0.045000	0.499846
C127	C	-0.818359	-0.536522	-0.000164
C128	C	-0.318359	-0.036522	0.499836
C129	C	-0.881330	-0.567627	-0.000173
C130	C	-0.381330	-0.067627	0.499827
C131	C	-0.945038	-0.548316	-0.000183
C132	C	-0.445038	-0.048316	0.499817
C133	C	-0.945774	-0.497902	-0.000177
C134	C	-0.445774	0.002098	0.499823
C135	C	-0.692418	-0.474312	-0.000145
C136	C	-0.192418	0.025688	0.499855
C137	C	-0.691687	-0.524726	-0.000150
C138	C	-0.191687	-0.024726	0.499850
C139	C	-0.754657	-0.555832	-0.000160
C140	C	-0.254657	-0.055832	0.499840
C141	C	0.053144	0.060492	-0.000150
C142	C	0.553144	0.560492	0.499850
C143	C	-0.023954	0.061281	-0.000149
C144	C	0.476046	0.561281	0.499851
C145	C	-0.813804	0.152689	-0.000153
C146	C	-0.313804	0.652689	0.499847
C147	C	-0.814599	0.206347	-0.000164
C148	C	-0.314599	0.706347	0.499836
N149	N	-0.819801	0.064298	0.188532
N150	N	-0.319801	0.564298	0.688532
N151	N	-0.819853	0.064306	-0.188804
N152	N	-0.319853	0.564306	0.311196
C153	C	-0.867391	0.031346	0.226632
C154	C	-0.367391	0.531346	0.726632
C155	C	-0.867395	0.031344	0.302859
C156	C	-0.367395	0.531344	0.802859
C157	C	-0.819816	0.064302	0.340985
C158	C	-0.319816	0.564302	0.840985
C159	C	-0.772217	0.097256	0.302876
C160	C	-0.272217	0.597256	0.802876
C161	C	-0.772210	0.097254	0.226649
C162	C	-0.272210	0.597254	0.726649
C163	C	-0.810243	0.108345	0.461738
C164	C	-0.310243	0.608345	0.961738
C165	C	-0.810256	0.108348	0.537963
C166	C	-0.310256	0.608348	1.037963
C167	C	-0.819836	0.064308	0.576092
C168	C	-0.319836	0.564308	1.076092
C169	C	-0.829419	0.020263	0.537987
C170	C	-0.329419	0.520263	1.037987
C171	C	-0.829411	0.020261	0.461761
C172	C	-0.329411	0.520261	0.961761
C173	C	-0.819819	0.064307	0.423639
C174	C	-0.319819	0.564307	0.923639
C175	C	-0.867434	0.031351	0.696847
C176	C	-0.367434	0.531351	1.196847
C177	C	-0.867433	0.031348	0.773076
C178	C	-0.367433	0.531348	1.273076
C179	C	-0.772258	0.097264	0.773091
C180	C	-0.272258	0.597264	1.273091
C181	C	-0.772256	0.097263	0.696863
C182	C	-0.272256	0.597263	1.196863
C183	C	-0.819847	0.064307	0.658746
C184	C	-0.319847	0.564307	1.158746
H185	H	-0.938576	-0.184583	-0.000149
H186	H	-0.438576	0.315417	0.499851
H187	H	-0.477585	0.065925	-0.119882
H188	H	0.022415	0.565925	0.380118
H189	H	-0.906141	0.004510	0.195599
H190	H	-0.406141	0.504510	0.695599
O191	O	-0.799935	0.155850	0.579061
O192	O	-0.299935	0.655850	1.079061
H193	H	-0.793263	0.186473	0.539743
H194	H	-0.293263	0.686473	1.039743
H195	H	-0.906150	0.004510	0.333886
H196	H	-0.406150	0.504510	0.833886
H197	H	-0.906183	0.004514	0.665810
H198	H	-0.406183	0.504514	1.165810
H199	H	-0.264307	0.012254	0.091626
H200	H	0.235693	0.512254	0.591626
H201	H	-0.375348	0.116353	-0.091885
H202	H	0.124652	0.616353	0.408115
O203	O	-0.720927	0.132809	0.655771
O204	O	-0.220927	0.632809	1.155771
H205	H	-0.687381	0.112522	0.621071
H206	H	-0.187381	0.612522	1.121071
O207	O	-0.839756	-0.027246	0.579091
O208	O	-0.339756	0.472754	1.079091
H209	H	-0.793398	-0.030271	0.613833
H210	H	-0.293398	0.469729	1.113833
H211	H	-0.699747	-0.778264	-0.000139
H212	H	-0.199747	-0.278264	0.499861
H213	H	-0.708726	-0.163191	-0.000093
H214	H	-0.208726	0.336809	0.499907
O215	O	-0.021012	0.061273	0.137041
O216	O	0.478988	0.561273	0.637041
H217	H	-0.041412	0.028486	0.168749
H218	H	0.458588	0.528486	0.668749
H219	H	-0.930928	-0.708208	-0.000170
H220	H	-0.430928	-0.208208	0.499830
O221	O	-0.406786	0.006218	0.105008
O222	O	0.093214	0.506218	0.605008
H223	H	-0.445095	-0.020026	0.075707
H224	H	0.054905	0.479974	0.575707
O225	O	-0.232874	0.122401	-0.105260
O226	O	0.267126	0.622401	0.394740
H227	H	-0.177359	0.117072	-0.096762
H228	H	0.322641	0.617072	0.403238
H229	H	-0.477495	0.065924	0.119649
H230	H	0.022505	0.565924	0.619649
O231	O	-0.171735	0.062796	-0.137352
O232	O	0.328265	0.562796	0.362648
H233	H	-0.134393	0.062421	-0.183257
H234	H	0.365607	0.562421	0.316743
H235	H	-0.030729	0.061355	-0.119916
H236	H	0.469271	0.561355	0.380084
H237	H	-0.162061	0.062691	0.119630
H238	H	0.337939	0.562691	0.619630
H239	H	-0.608918	0.067275	0.119666
H240	H	-0.108918	0.567275	0.619666
H241	H	-0.939904	-0.093127	-0.000125
H242	H	-0.439904	0.406873	0.499875
O243	O	-0.720884	0.132799	0.185548
O244	O	-0.220884	0.632799	0.685548
H245	H	-0.687801	0.155719	0.224862
H246	H	-0.187801	0.655719	0.724862
O247	O	-0.693422	-0.063499	-0.000102
O248	O	-0.193422	0.436501	0.499898
H249	H	-0.662898	-0.070347	0.049261
H250	H	-0.162898	0.429653	0.549261
O251	O	-1.016700	-0.325836	-0.000181
O252	O	-0.516700	0.174164	0.499819
H253	H	-1.060357	-0.355942	-0.000201
H254	H	-0.560357	0.144058	0.499799
O255	O	-1.015170	-0.430620	-0.000164
O256	O	-0.515170	0.069380	0.499836
H257	H	-1.059586	-0.408714	-0.000159
H258	H	-0.559586	0.091286	0.499841
O259	O	-1.014492	-0.477079	-0.000183
O260	O	-0.514492	0.022921	0.499817
H261	H	-1.017865	-0.454382	-0.049538
H262	H	-0.517865	0.045618	0.450462
H263	H	-0.701080	-0.686810	-0.000151
H264	H	-0.201080	-0.186810	0.499849
O265	O	-0.618589	0.067369	-0.137317
O266	O	-0.118589	0.567369	0.362683
H267	H	-0.581246	0.066990	-0.183222
H268	H	-0.081246	0.566990	0.316778
H269	H	-0.929585	-0.799677	-0.000180
H270	H	-0.429585	-0.299677	0.499820
H271	H	-0.643341	-0.297734	-0.000145
H272	H	-0.143341	0.202266	0.499855
H273	H	-0.642001	-0.389189	-0.000149
H274	H	-0.142001	0.110811	0.499851
H275	H	-0.996310	-0.573651	-0.000188
H276	H	-0.496310	-0.073651	0.499812
O277	O	-0.622964	-0.545550	-0.000146
O278	O	-0.122964	-0.045550	0.499854
H279	H	-0.579305	-0.515446	-0.000145
H280	H	-0.079305	-0.015446	0.499855
O281	O	-0.624496	-0.440765	-0.000121
O282	O	-0.124496	0.059235	0.499879
H283	H	-0.580078	-0.462668	-0.000107
H284	H	-0.080078	0.037332	0.499893
H285	H	-0.837211	-0.015602	0.430739
H286	H	-0.337211	0.484398	0.930739
O287	O	-0.918772	-0.004189	0.814176
O288	O	-0.418772	0.495811	1.314176
H289	H	-0.951868	-0.027099	0.774861
H290	H	-0.451868	0.472901	1.274861
H291	H	-0.802430	0.144210	0.430699
H292	H	-0.302430	0.644210	0.930699
O293	O	-0.720940	0.132814	0.814199
O294	O	-0.220940	0.632814	1.314199
H295	H	-0.728942	0.127283	0.873606
H296	H	-0.228942	0.627283	1.373606
H297	H	-0.733477	0.124090	0.333921
H298	H	-0.233477	0.624090	0.833921
