data_functionalizedCrystal
_audit_creation_method	'MofGen! by Chris Wilmer'
_symmetry_space_group_name_H-M	'P1'
_symmetry_Int_Tables_number	1
_symmetry_cell_setting	triclinic
loop_
_symmetry_equiv_pos_as_xyz
  x,y,z
_cell_length_a	27.440280
_cell_length_b	27.440279
_cell_length_c	19.851628
_cell_angle_alpha	60.010114
_cell_angle_beta	90.005450
_cell_angle_gamma	60.011417
loop_
_atom_site_label
_atom_site_type_symbol
_atom_site_fract_x
_atom_site_fract_y
_atom_site_fract_z
Zr1	Zr	0.469683	0.533217	-0.088153
O2	O	0.391900	0.634857	-0.195690
O3	O	0.493504	0.431576	-0.055208
O4	O	0.493541	0.533205	-0.195703
O5	O	0.391861	0.533238	0.055653
O6	O	0.573744	0.533195	-0.195689
O7	O	0.391863	0.533229	-0.055195
O8	O	0.573677	0.351400	0.055630
O9	O	0.391927	0.715033	-0.195666
O10	O	0.563546	0.473375	-0.041122
O11	O	0.503690	0.473389	0.041593
O12	O	0.503734	0.593044	-0.123821
O13	O	0.443877	0.593058	-0.041106
Zr14	Zr	0.597593	0.533217	0.088660
Zr15	Zr	0.597597	0.533202	-0.088131
Zr16	Zr	0.469679	0.533232	0.088638
Zr17	Zr	0.469726	0.661088	-0.088114
Zr18	Zr	0.597550	0.405346	0.088622
O19	O	0.573772	0.634857	0.055716
O20	O	0.573778	0.634836	-0.195658
O21	O	0.391895	0.634879	0.055684
O22	O	0.675376	0.431576	0.196197
O23	O	0.675381	0.431555	-0.055177
O24	O	0.493498	0.431597	0.196166
O25	O	0.675415	0.533195	-0.055146
O26	O	0.573735	0.533229	0.196210
O27	O	0.493532	0.533238	0.196196
O28	O	0.675413	0.533205	0.055703
O29	O	0.493602	0.715021	-0.195648
O30	O	0.573674	0.351412	0.196155
O31	O	0.675349	0.351400	0.196173
O32	O	0.675352	0.351388	0.055648
O33	O	0.391924	0.715045	-0.055140
O34	O	0.493599	0.715033	-0.055123
O35	O	0.563542	0.473389	0.124329
O36	O	0.623399	0.473375	0.041614
O37	O	0.563586	0.593044	-0.041086
O38	O	0.503730	0.593058	0.041629
C39	C	0.533584	0.373269	0.000205
C40	C	0.533566	0.318985	0.000189
C41	C	0.502386	0.084233	0.043435
C42	C	0.502374	0.135264	0.043424
O43	O	0.475814	0.161646	0.080160
N44	N	0.533610	0.160781	0.000237
C45	C	0.564865	0.135261	-0.042935
O46	O	0.591433	0.161651	-0.079669
C47	C	0.564880	0.084229	-0.042918
C48	C	0.533637	0.058718	0.000264
C49	C	0.471146	0.058723	0.086615
C50	C	0.471157	0.007697	0.086625
C51	C	0.502408	-0.017818	0.043454
C52	C	0.533648	0.007693	0.000274
C53	C	0.596138	0.058706	-0.086085
C54	C	0.596150	0.007669	-0.086064
C55	C	0.564907	-0.017841	-0.042882
C56	C	0.564910	-0.068848	-0.042887
N57	N	0.533674	-0.094366	0.000300
C58	C	0.502423	-0.068851	0.043470
C59	C	0.564832	0.242433	-0.042964
C60	C	0.564814	0.293468	-0.042986
C61	C	0.502324	0.293466	0.043375
C62	C	0.502339	0.242433	0.043391
C63	C	0.533596	0.216915	0.000223
C64	C	0.502448	-0.176008	0.043486
C65	C	0.502459	-0.227036	0.043489
C66	C	0.564952	-0.227032	-0.042867
C67	C	0.564938	-0.176006	-0.042874
C68	C	0.533684	-0.150497	0.000309
O69	O	0.591458	-0.095265	-0.079602
O70	O	0.475866	-0.095254	0.080207
C71	C	0.373637	0.533235	0.000226
C72	C	0.319334	0.533242	0.000217
C73	C	0.013858	0.470740	0.043445
C74	C	-0.037161	0.470736	0.043452
O75	O	-0.036996	0.417611	0.080190
N76	N	-0.093899	0.533201	0.000283
C77	C	-0.099618	0.595674	-0.042889
O78	O	-0.152563	0.648805	-0.079607
C79	C	-0.048600	0.595677	-0.042891
C80	C	0.008137	0.533208	0.000274
C81	C	0.070593	0.408275	0.086607
C82	C	0.121607	0.408280	0.086598
C83	C	0.115887	0.470748	0.043427
C84	C	0.059152	0.533212	0.000265
C85	C	-0.054320	0.658149	-0.086058
C86	C	-0.003296	0.658147	-0.086056
C87	C	0.053442	0.595678	-0.042891
C88	C	0.104447	0.595684	-0.042915
N89	N	0.161185	0.533219	0.000254
C90	C	0.166905	0.470751	0.043425
C91	C	-0.206757	0.595663	-0.042881
C92	C	-0.257774	0.595660	-0.042884
C93	C	-0.195313	0.470722	0.043459
C94	C	-0.144295	0.470725	0.043457
C95	C	-0.150018	0.533197	0.000288
C96	C	0.274038	0.470764	0.043403
C97	C	0.325054	0.470774	0.043388
C98	C	0.262589	0.595712	-0.042951
C99	C	0.211577	0.595702	-0.042940
C100	C	0.217305	0.533223	0.000243
O101	O	0.104328	0.648782	-0.079631
O102	O	0.219852	0.417629	0.080145
C103	C	0.693639	0.533198	0.000281
C104	C	0.747942	0.533192	0.000291
C105	C	0.533643	0.533198	-0.220885
C106	C	0.533645	0.533192	-0.295937
C107	C	0.533692	0.693164	0.000302
C108	C	0.533710	0.747449	0.000318
C109	C	0.566255	0.467958	-0.432212
C110	C	0.509986	0.500579	-0.499665
C111	C	0.533639	0.533209	-0.433369
C112	C	0.589896	0.500585	-0.499651
C113	C	0.533638	0.533222	-0.566118
C114	C	0.477337	0.565830	-0.499833
C115	C	0.557287	0.565827	-0.499808
C116	C	0.500985	0.598495	-0.567274
C117	C	0.533640	0.533200	-0.356894
C118	C	0.533631	0.533236	-0.642595
C119	C	0.533633	0.533235	0.221392
C120	C	0.533632	0.533242	0.296445
C121	C	0.693585	0.373251	0.000233
C122	C	0.747870	0.318960	0.000226
C123	C	0.533579	0.373288	0.221344
C124	C	0.533559	0.319010	0.296380
C125	C	0.693580	0.373269	0.221372
C126	C	0.747863	0.318985	0.296417
C127	C	0.373696	0.693164	-0.220864
C128	C	0.319413	0.747449	-0.295910
C129	C	0.373691	0.693183	0.000274
C130	C	0.319406	0.747474	0.000281
C131	C	0.533697	0.693145	-0.220837
C132	C	0.533717	0.747424	-0.295873
C133	C	0.742120	0.293464	-0.042972
C134	C	0.793121	0.242459	-0.042995
C135	C	0.849872	0.216947	0.000185
C136	C	0.855621	0.242447	0.043384
C137	C	0.804620	0.293455	0.043402
C138	C	0.564792	0.293520	0.374812
C139	C	0.564772	0.242527	0.445323
C140	C	0.533521	0.217021	0.437400
C141	C	0.502284	0.242516	0.358960
C142	C	0.502302	0.293511	0.288450
C143	C	0.804605	0.293485	0.288483
C144	C	0.855615	0.242486	0.358989
C145	C	0.849881	0.216984	0.437429
C146	C	0.793134	0.242489	0.445361
C147	C	0.742125	0.293491	0.374856
C148	C	0.262671	0.772955	-0.287975
C149	C	0.211662	0.823970	-0.358482
C150	C	0.217395	0.849474	-0.436922
C151	C	0.274142	0.823966	-0.444854
C152	C	0.325151	0.772955	-0.374349
C153	C	0.325156	0.772975	0.043472
C154	C	0.274155	0.823994	0.043475
C155	C	0.217404	0.849508	0.000293
C156	C	0.211655	0.824005	-0.042903
C157	C	0.262656	0.772990	-0.042911
C158	C	0.564974	0.772913	-0.287923
C159	C	0.565004	0.823907	-0.358421
C160	C	0.533774	0.849413	-0.436867
C161	C	0.502516	0.823918	-0.444815
C162	C	0.502489	0.772922	-0.374318
H163	H	0.445718	-0.013071	0.121792
H164	H	0.473364	0.653712	-0.625003
H165	H	0.577306	0.593376	-0.499090
N166	N	0.598468	0.215028	0.529922
H167	H	0.582099	0.253948	0.536530
H168	H	0.642161	0.193850	0.536468
H169	H	0.175856	0.891010	-0.494325
N170	N	0.468765	0.745444	-0.382908
H171	H	0.437321	0.754333	-0.355586
H172	H	0.497432	0.694251	-0.355602
H173	H	0.278804	0.844738	-0.508728
H174	H	0.476899	0.221666	0.078554
H175	H	0.533511	0.175497	0.494820
N176	N	0.602727	0.394880	-0.355618
H177	H	0.602781	0.395390	-0.305097
H178	H	0.645032	0.370008	-0.355514
N179	N	0.483490	0.464054	-0.500582
H180	H	0.483329	0.464722	-0.551916
H181	H	0.441249	0.488226	-0.500201
N182	N	0.468584	0.214998	0.350418
H183	H	0.437148	0.223876	0.377752
H184	H	0.497272	0.163804	0.377740
N185	N	0.386350	0.745445	-0.382912
H186	H	0.382236	0.769344	-0.443304
H187	H	0.408859	0.694245	-0.355556
N188	N	0.810798	0.320978	0.203886
H189	H	0.854487	0.297080	0.209570
H190	H	0.791004	0.372180	0.172752
N191	N	0.280359	0.851504	0.090055
H192	H	0.260575	0.842649	0.133502
H193	H	0.260615	0.902693	0.050395
N194	N	0.916818	0.214967	0.350430
H195	H	0.939389	0.223845	0.377756
H196	H	0.912659	0.238867	0.290025
N197	N	0.162396	0.904522	0.000315
H198	H	0.137849	0.946850	-0.058157
H199	H	0.174701	0.916743	0.034272
H200	H	0.165442	0.844786	-0.078061
N201	N	0.916834	0.214922	0.089954
H202	H	0.939370	0.163722	0.133387
H203	H	0.912697	0.238857	0.117276
H204	H	0.809310	0.314207	0.078584
N205	N	0.652913	0.464039	-0.500531
H206	H	0.677510	0.414750	-0.450154
H207	H	0.670984	0.488228	-0.500191
H208	H	-0.190663	0.419857	0.078608
N209	N	0.680915	0.320973	-0.089546
H210	H	0.685020	0.297078	-0.116914
H211	H	0.658402	0.372174	-0.132944
H212	H	0.257966	0.752228	-0.078079
H213	H	0.429738	0.593392	-0.499237
N214	N	0.182802	0.340905	0.133166
H215	H	0.205364	0.338111	0.093565
H216	H	0.178629	0.301373	0.160515
N217	N	0.150383	0.663082	-0.089499
H218	H	0.127830	0.665869	-0.049887
H219	H	0.127861	0.665829	-0.132951
N220	N	0.468577	0.321037	0.203857
H221	H	0.448768	0.297149	0.209545
H222	H	0.497232	0.312175	0.172674
N223	N	0.598721	0.851397	-0.349838
H224	H	0.618495	0.827502	-0.289444
H225	H	0.570056	0.902600	-0.377206
N226	N	0.468830	0.851433	-0.529426
H227	H	0.497486	0.842552	-0.560604
H228	H	0.437414	0.902627	-0.560523
H229	H	0.891420	0.175455	0.494832
H230	H	0.788474	0.221718	0.509236
H231	H	0.371360	0.752205	0.078642
N232	N	0.786914	0.214962	-0.089591
H233	H	0.743223	0.238862	-0.116933
H234	H	0.806705	0.163760	-0.049959
N235	N	0.598660	0.745410	-0.203319
H236	H	0.618465	0.769300	-0.208993
H237	H	0.630050	0.694207	-0.172190
H238	H	-0.303968	0.646529	-0.078044
N239	N	0.680926	0.320989	0.383419
H240	H	0.685040	0.297089	0.443811
H241	H	0.658396	0.312105	0.356044
H242	H	0.257942	0.646571	-0.078103
H243	H	0.891395	0.175412	0.000165
N244	N	0.533811	0.904409	-0.512899
H245	H	0.558354	0.916682	-0.495952
H246	H	0.491498	0.946706	-0.546813
H247	H	0.590241	0.314282	0.381279
N248	N	0.256479	0.745450	-0.203378
H249	H	0.212789	0.769357	-0.209063
H250	H	0.276293	0.754322	-0.172229
H251	H	0.165460	0.844730	-0.352007
H252	H	0.476997	-0.155243	0.078648
N253	N	0.468762	-0.254553	0.090069
H254	H	0.448967	-0.230646	0.117419
H255	H	0.497447	-0.305750	0.133482
H256	H	-0.100510	0.709018	-0.121207
N257	N	0.437441	0.086234	0.133187
H258	H	0.417657	0.062321	0.160540
H259	H	0.406032	0.137431	0.093537
H260	H	0.590248	0.314242	-0.078160
N261	N	0.468617	0.320990	0.089940
H262	H	0.473353	0.357187	0.083376
H263	H	0.485015	0.282047	0.150325
H264	H	0.590283	0.221662	-0.078124
H265	H	0.621579	0.079469	-0.121248
H266	H	0.621606	-0.013107	-0.121216
H267	H	0.590371	-0.155228	-0.078047
H268	H	0.371252	0.419901	0.078540
N269	N	0.598651	-0.254558	-0.089430
H270	H	0.630083	-0.305755	-0.049819
H271	H	0.618405	-0.230610	-0.116792
N272	N	0.280219	0.403378	0.089978
H273	H	0.323906	0.363813	0.117315
H274	H	0.260411	0.400649	0.050332
H275	H	-0.098100	0.419857	0.078613
N276	N	0.076766	0.340896	0.133169
H277	H	0.099302	0.313587	0.193571
H278	H	0.099281	0.313645	0.110438
N279	N	-0.212931	0.663046	-0.089457
H280	H	-0.235464	0.690363	-0.066805
H281	H	-0.235447	0.690290	-0.149847
N282	N	-0.009469	0.725529	-0.132616
H283	H	-0.053155	0.765098	-0.159958
H284	H	0.010332	0.728252	-0.176034
