data_functionalizedCrystal
_audit_creation_method	'MofGen! by Chris Wilmer'
_symmetry_space_group_name_H-M	'P1'
_symmetry_Int_Tables_number	1
_symmetry_cell_setting	triclinic
loop_
_symmetry_equiv_pos_as_xyz
  x,y,z
_cell_length_a	13.897449
_cell_length_b	12.759400
_cell_length_c	12.759393
_cell_angle_alpha	90.031564
_cell_angle_beta	89.979470
_cell_angle_gamma	89.984036
loop_
_atom_site_label
_atom_site_type_symbol
_atom_site_fract_x
_atom_site_fract_y
_atom_site_fract_z
Zn1	Zn	1.474721	0.418168	-0.594038
Zn2	Zn	1.974721	0.918168	-0.094038
Zn3	Zn	1.474624	0.593887	-0.418359
Zn4	Zn	1.974624	1.093887	0.081641
Zn5	Zn	1.313411	0.418227	-0.418372
Zn6	Zn	1.813411	0.918227	0.081628
Zn7	Zn	1.313400	0.593810	-0.593994
Zn8	Zn	1.813400	1.093810	-0.093994
O9	O	1.394039	0.506023	-0.506191
O10	O	1.894039	1.006023	-0.006191
O11	O	1.609690	0.441486	-0.570747
O12	O	2.109690	0.941486	-0.070747
O13	O	1.453202	0.570642	-0.271339
O14	O	1.953202	1.070642	0.228661
O15	O	1.334854	0.271198	-0.441698
O16	O	1.834854	0.771198	0.058302
O17	O	1.609618	0.570586	-0.441676
O18	O	2.109618	1.070586	0.058324
O19	O	1.453368	0.271155	-0.570760
O20	O	1.953368	0.771155	-0.070760
O21	O	1.334760	0.441585	-0.271349
O22	O	1.834760	0.941585	0.228651
O23	O	1.178428	0.441510	-0.441655
O24	O	1.678428	0.941510	0.058345
O25	O	1.334836	0.570454	-0.741021
O26	O	1.834836	1.070454	-0.241021
O27	O	1.178420	0.570510	-0.570684
O28	O	1.678420	1.070510	-0.070684
O29	O	1.453358	0.441411	-0.741054
O30	O	1.953358	0.941411	-0.241054
O31	O	1.453192	0.740898	-0.441633
O32	O	1.953192	1.240898	0.058367
O33	O	1.334742	0.740841	-0.570671
O34	O	1.834742	1.240841	-0.070671
C35	C	1.393982	0.778991	-0.506169
C36	C	1.893982	1.278991	-0.006169
C37	C	1.394045	0.895767	-0.506194
C38	C	1.894045	1.395767	-0.006194
C39	C	1.143425	0.506009	-0.506167
C40	C	1.643425	1.006009	-0.006167
C41	C	1.036211	0.506028	-0.506181
C42	C	1.536211	1.006028	-0.006181
C43	C	1.394106	0.505917	-0.780224
C44	C	1.894106	1.005917	-0.280224
C45	C	1.394135	0.505872	-0.897001
C46	C	1.894135	1.005872	-0.397001
C47	C	0.839915	0.506032	-0.506209
C48	C	1.339915	1.006032	-0.006209
C49	C	0.949148	0.506027	-0.506191
C50	C	1.449148	1.006027	-0.006191
C51	C	1.645632	0.506038	-0.506215
C52	C	2.145632	1.006038	-0.006215
C53	C	1.752846	0.506044	-0.506226
C54	C	2.252846	1.006044	-0.006226
C55	C	1.394123	0.231990	-0.506236
C56	C	1.894123	0.731990	-0.006236
C57	C	1.394158	0.115213	-0.506255
C58	C	1.894158	0.615213	-0.006255
C59	C	1.455791	0.950624	-0.439078
C60	C	1.955791	1.450624	0.060922
C61	C	1.455850	1.060348	-0.439111
C62	C	1.955850	1.560348	0.060889
C63	C	1.332410	1.060349	-0.573378
C64	C	1.832410	1.560349	-0.073378
C65	C	1.332356	0.950627	-0.573350
C66	C	1.832356	1.450627	-0.073350
C67	C	1.527055	0.950624	-0.361557
C68	C	2.027055	1.450624	0.138443
C69	C	1.527114	1.060348	-0.361589
C70	C	2.027114	1.560348	0.138411
C71	C	1.455858	0.438673	-0.951882
C72	C	1.955858	0.938673	-0.451882
C73	C	1.455881	0.438635	-1.061606
C74	C	1.955881	0.938635	-0.561606
C75	C	1.332456	0.573004	-1.061559
C76	C	1.832456	1.073004	-0.561559
C77	C	1.332429	0.573036	-0.951836
C78	C	1.832429	1.073036	-0.451836
C79	C	1.527119	0.361099	-0.951910
C80	C	2.027119	0.861099	-0.451910
C81	C	1.527142	0.361061	-1.061634
C82	C	2.027142	0.861061	-0.561634
C83	C	1.394027	0.506053	-0.233223
C84	C	1.894027	1.006053	0.266777
C85	C	1.394185	0.505802	-0.116447
C86	C	1.894185	1.005802	0.383553
H87	H	1.282087	0.905963	-0.628011
H88	H	1.782087	1.405963	-0.128011
Cl89	Cl	1.485749	0.898204	-0.242182
Cl90	Cl	1.985749	1.398204	0.257818
H91	H	1.601850	0.382852	-1.091415
H92	H	2.101850	0.882852	-0.591415
H93	H	1.598088	1.094291	-0.390804
H94	H	2.098088	1.594291	0.109196
H95	H	1.507133	0.279735	-0.922153
H96	H	2.007133	0.779735	-0.422153
Cl97	Cl	1.485736	0.241765	-1.114209
Cl98	Cl	1.985736	0.741765	-0.614209
H99	H	1.507157	1.090211	-0.280208
H100	H	2.007157	1.590211	0.219792
H101	H	1.282165	0.627752	-0.907157
H102	H	1.782165	1.127752	-0.407157
H103	H	1.282186	1.105029	-0.628055
H104	H	1.782186	1.605029	-0.128055
Cl105	Cl	1.642354	0.904515	-0.395299
Cl106	Cl	2.142354	1.404515	0.104701
H107	H	1.282214	0.627684	-1.106219
H108	H	1.782214	1.127684	-0.606219
Cl109	Cl	1.636651	0.406124	-0.899356
Cl110	Cl	2.136651	0.906124	-0.399356
