data_functionalizedCrystal
_audit_creation_method	'MofGen! by Chris Wilmer'
_symmetry_space_group_name_H-M	'P1'
_symmetry_Int_Tables_number	1
_symmetry_cell_setting	triclinic
loop_
_symmetry_equiv_pos_as_xyz
  x,y,z
_cell_length_a	15.995292
_cell_length_b	15.995350
_cell_length_c	14.472310
_cell_angle_alpha	89.998838
_cell_angle_beta	89.985801
_cell_angle_gamma	96.519505
loop_
_atom_site_label
_atom_site_type_symbol
_atom_site_fract_x
_atom_site_fract_y
_atom_site_fract_z
O1	O	1.111027	-0.107689	-0.076861
O2	O	1.611027	0.392311	0.423139
O3	O	0.867245	-0.121067	-0.076857
O4	O	1.367245	0.378933	0.423143
O5	O	0.995800	0.007511	-0.076858
O6	O	1.495800	0.507511	0.423142
O7	O	0.982472	-0.236267	-0.076860
O8	O	1.482472	0.263733	0.423140
O9	O	0.995767	0.007503	0.076824
O10	O	1.495767	0.507503	0.576824
O11	O	0.867212	-0.121075	0.076825
O12	O	1.367212	0.378925	0.576825
O13	O	1.110994	-0.107696	0.076821
O14	O	1.610994	0.392304	0.576821
Cu15	Cu	0.989100	-0.114386	0.090855
Cu16	Cu	1.489100	0.385614	0.590855
Cu17	Cu	0.989139	-0.114378	-0.090892
Cu18	Cu	1.489139	0.385622	0.409108
O19	O	0.982439	-0.236275	0.076822
O20	O	1.482439	0.263725	0.576822
C21	C	0.836033	-0.120527	-0.000016
C22	C	1.336033	0.379473	0.499984
C23	C	0.743080	-0.118894	-0.000014
C24	C	1.243080	0.381106	0.499986
C25	C	0.405341	-0.112893	-0.000025
C26	C	0.905341	0.387107	0.499975
C27	C	0.428654	-0.205697	-0.000368
C28	C	0.928654	0.294303	0.499632
C29	C	0.525329	-0.207461	-0.000018
C30	C	1.025329	0.292539	0.499982
C31	C	0.572897	-0.115871	-0.000020
C32	C	1.072897	0.384129	0.499980
C33	C	0.543777	-0.069477	0.087737
C34	C	1.043777	0.430523	0.587737
C35	C	0.446986	-0.068360	0.087807
C36	C	0.946986	0.431640	0.587807
C37	C	0.447168	-0.066457	-0.086958
C38	C	0.947168	0.433543	0.413042
C39	C	0.543661	-0.069896	-0.088114
C40	C	1.043661	0.430104	0.411886
C41	C	0.667593	-0.117549	-0.000014
C42	C	1.167593	0.382451	0.499986
C43	C	0.310646	-0.111212	-0.000024
C44	C	0.810646	0.388788	0.499976
C45	C	0.995232	0.038702	-0.000019
C46	C	1.495232	0.538702	0.499981
C47	C	0.993580	0.131652	-0.000024
C48	C	1.493580	0.631652	0.499976
C49	C	1.142206	-0.108237	-0.000023
C50	C	1.642206	0.391763	0.499977
C51	C	1.235159	-0.109870	-0.000030
C52	C	1.735159	0.390130	0.499970
C53	C	0.983006	-0.267466	-0.000019
C54	C	1.483006	0.232534	0.499981
C55	C	0.984658	-0.360416	-0.000020
C56	C	1.484658	0.139584	0.499980
N57	N	0.989078	-0.114392	0.218686
N58	N	1.489078	0.385608	0.718686
C59	C	0.987648	0.469398	-0.000021
C60	C	1.487648	0.969398	0.499979
C61	C	0.896094	0.421945	-0.000364
C62	C	1.396094	0.921945	0.499636
C63	C	0.897746	0.325255	-0.000018
C64	C	1.397746	0.825255	0.499982
C65	C	0.990591	0.301838	-0.000023
C66	C	1.490591	0.801838	0.499977
C67	C	1.035730	0.342921	0.087734
C68	C	1.535730	0.842921	0.587734
C69	C	1.033430	0.439556	0.087808
C70	C	1.533430	0.939556	0.587808
C71	C	1.035359	0.439923	-0.086958
C72	C	1.535359	0.939923	0.413042
C73	C	1.035337	0.342978	-0.088117
C74	C	1.535337	0.842978	0.411883
C75	C	0.992259	0.207141	-0.000021
C76	C	1.492259	0.707141	0.499979
C77	C	0.985983	0.564095	-0.000017
C78	C	1.485983	1.064095	0.499983
N79	N	0.989167	-0.114365	-0.218722
N80	N	1.489167	0.385635	0.281278
C81	C	0.989138	-0.114374	0.592777
C82	C	1.489138	0.385626	1.092777
C83	C	0.920120	-0.182943	0.553612
C84	C	1.420120	0.317057	1.053612
C85	C	0.920279	-0.183193	0.446524
C86	C	1.420279	0.316807	0.946524
C87	C	0.989108	-0.114383	0.407186
C88	C	1.489108	0.385617	0.907186
C89	C	1.076475	-0.133447	0.446022
C90	C	1.576475	0.366553	0.946022
C91	C	1.076087	-0.133934	0.553143
C92	C	1.576087	0.366066	1.053143
C93	C	0.971568	-0.026538	0.553308
C94	C	1.471568	0.473462	1.053308
C95	C	0.969564	-0.027124	0.446180
C96	C	1.469564	0.472876	0.946180
C97	C	0.989096	-0.114386	0.302298
C98	C	1.489096	0.385614	0.802298
C99	C	0.989155	-0.114373	0.697665
C100	C	1.489155	0.385627	1.197665
H101	H	0.433175	0.001854	-0.087553
H102	H	0.933175	0.501854	0.412447
H103	H	0.862262	0.296829	-0.062926
H104	H	1.362262	0.796829	0.437074
H105	H	1.092327	-0.196774	0.419184
H106	H	1.592327	0.303226	0.919184
H107	H	0.399622	-0.241273	0.062213
H108	H	0.899622	0.258727	0.562213
H109	H	1.103940	0.328809	0.090994
H110	H	1.603940	0.828809	0.590994
H111	H	0.576632	-0.003044	-0.093416
H112	H	1.076632	0.496956	0.406584
H113	H	0.432435	-0.000316	0.091792
H114	H	0.932435	0.499684	0.591792
H115	H	0.931499	-0.248375	0.420889
H116	H	1.431499	0.251625	0.920889
H117	H	1.102861	0.471698	-0.087551
H118	H	1.602861	0.971698	0.412449
H119	H	0.861997	0.297380	0.062999
H120	H	1.361997	0.797380	0.562999
H121	H	0.575644	-0.002079	0.090999
H122	H	1.075644	0.497921	0.590999
H123	H	0.562245	-0.103675	-0.153037
H124	H	1.062245	0.396325	0.346963
H125	H	1.000486	0.457847	0.153412
H126	H	1.500486	0.957847	0.653412
H127	H	1.002335	0.315725	-0.153038
H128	H	1.502335	0.815725	0.346962
H129	H	1.103045	0.327630	-0.093420
H130	H	1.603045	0.827630	0.406580
H131	H	1.129049	-0.085960	0.579049
H132	H	1.629049	0.414040	1.079049
H133	H	1.004351	0.314530	0.153044
H134	H	1.504351	0.814530	0.653044
H135	H	0.909244	-0.008203	0.580376
H136	H	1.409244	0.491797	1.080376
H137	H	1.091569	-0.197992	0.578118
H138	H	1.591569	0.302008	1.078118
H139	H	0.563822	-0.101701	0.153047
H140	H	1.063822	0.398299	0.653047
H141	H	0.418855	-0.095461	-0.153473
H142	H	0.918855	0.404539	0.346527
H143	H	0.905296	-0.012657	0.420799
H144	H	1.405296	0.487343	0.920799
H145	H	1.129060	-0.084832	0.420538
H146	H	1.629060	0.415168	0.920538
H147	H	0.855338	-0.171838	0.420269
H148	H	1.355338	0.328162	0.920269
H149	H	1.016569	0.026291	0.419406
H150	H	1.516569	0.526291	0.919406
H151	H	0.859514	0.440472	-0.063297
H152	H	1.359514	0.940472	0.436703
H153	H	1.021900	0.024488	0.578633
H154	H	1.521900	0.524488	1.078633
H155	H	0.859649	0.441528	0.062219
H156	H	1.359649	0.941528	0.562219
H157	H	0.543719	-0.244020	0.062997
H158	H	1.043719	0.255980	0.562997
H159	H	1.100647	0.471818	0.091786
H160	H	1.600647	0.971818	0.591786
H161	H	0.854968	-0.171775	0.579401
H162	H	1.354968	0.328225	1.079401
H163	H	1.005439	0.460460	-0.153473
H164	H	1.505439	0.960460	0.346527
H165	H	0.931185	-0.247758	0.580521
H166	H	1.431185	0.252242	1.080521
H167	H	0.544369	-0.243790	-0.062928
H168	H	1.044369	0.256210	0.437072
H169	H	0.400671	-0.241465	-0.063303
H170	H	0.900671	0.258535	0.436697
H171	H	0.420155	-0.100497	0.153408
H172	H	0.920155	0.399503	0.653408
