data_functionalizedCrystal
_audit_creation_method	'MofGen! by Chris Wilmer'
_symmetry_space_group_name_H-M	'P1'
_symmetry_Int_Tables_number	1
_symmetry_cell_setting	triclinic
loop_
_symmetry_equiv_pos_as_xyz
  x,y,z
_cell_length_a	23.532361
_cell_length_b	22.610064
_cell_length_c	17.038272
_cell_angle_alpha	90.004145
_cell_angle_beta	93.029388
_cell_angle_gamma	90.003897
loop_
_atom_site_label
_atom_site_type_symbol
_atom_site_fract_x
_atom_site_fract_y
_atom_site_fract_z
O1	O	0.760259	0.049126	-0.094689
O2	O	1.260259	0.549126	0.405311
O3	O	0.595115	0.049140	-0.108455
O4	O	1.095115	0.549140	0.391545
O5	O	0.676706	0.049128	0.012236
O6	O	1.176706	0.549128	0.512236
O7	O	0.678669	0.049137	-0.215380
O8	O	1.178669	0.549137	0.284620
O9	O	0.676691	-0.049241	0.012218
O10	O	1.176691	0.450759	0.512218
O11	O	0.595101	-0.049229	-0.108472
O12	O	1.095101	0.450771	0.391528
O13	O	0.760244	-0.049244	-0.094707
O14	O	1.260244	0.450756	0.405293
Zn15	Zn	0.677670	-0.064855	-0.101593
Zn16	Zn	1.177670	0.435145	0.398407
Zn17	Zn	0.677689	0.064751	-0.101569
Zn18	Zn	1.177689	0.564751	0.398431
O19	O	0.678654	-0.049232	-0.215398
O20	O	1.178654	0.450768	0.284602
C21	C	0.573873	-0.000043	-0.108119
C22	C	1.073873	0.499957	0.391881
C23	C	0.510600	-0.000038	-0.107082
C24	C	1.010600	0.499962	0.392918
C25	C	0.237126	0.053580	-0.102540
C26	C	0.737126	0.553580	0.397460
C27	C	0.296578	0.053581	-0.103521
C28	C	0.796578	0.553581	0.396479
O29	O	0.327336	0.099183	-0.103993
O30	O	0.827336	0.599183	0.396007
N31	N	0.326301	-0.000040	-0.104026
N32	N	0.826301	0.499960	0.395974
C33	C	0.296571	-0.053666	-0.103542
C34	C	0.796571	0.446334	0.396458
O35	O	0.327313	-0.099275	-0.104061
O36	O	0.827313	0.400725	0.395939
C37	C	0.237121	-0.053667	-0.102555
C38	C	0.737121	0.446333	0.397445
C39	C	0.207400	-0.000042	-0.102058
C40	C	0.707400	0.499958	0.397942
C41	C	0.207405	0.107200	-0.102041
C42	C	0.707405	0.607200	0.397959
C43	C	0.147958	0.107198	-0.101062
C44	C	0.647958	0.607198	0.398938
C45	C	0.118232	0.053576	-0.100580
C46	C	0.618232	0.553576	0.399420
C47	C	0.147953	-0.000044	-0.101079
C48	C	0.647953	0.499956	0.398921
C49	C	0.207392	-0.107293	-0.102066
C50	C	0.707392	0.392707	0.397934
C51	C	0.147938	-0.107289	-0.101078
C52	C	0.647938	0.392711	0.398922
C53	C	0.118217	-0.053664	-0.100581
C54	C	0.618217	0.446336	0.399419
C55	C	0.058779	-0.053668	-0.099617
C56	C	0.558779	0.446332	0.400383
N57	N	0.029056	-0.000047	-0.099112
N58	N	0.529056	0.499953	0.400888
C59	C	0.058782	0.053575	-0.099594
C60	C	0.558782	0.553575	0.400406
C61	C	0.421420	-0.053660	-0.105613
C62	C	0.921420	0.446340	0.394387
C63	C	0.480869	-0.053660	-0.106605
C64	C	0.980869	0.446340	0.393395
C65	C	0.480871	0.053588	-0.106582
C66	C	0.980871	0.553588	0.393418
C67	C	0.421421	0.053587	-0.105595
C68	C	0.921421	0.553587	0.394405
C69	C	0.391696	-0.000039	-0.105108
C70	C	0.891696	0.499961	0.394892
C71	C	-0.066062	0.053568	-0.097537
C72	C	0.433938	0.553568	0.402463
C73	C	-0.125515	0.053561	-0.096561
C74	C	0.374485	0.553561	0.403439
C75	C	-0.125512	-0.053686	-0.096580
C76	C	0.374488	0.446314	0.403420
C77	C	-0.066064	-0.053680	-0.097560
C78	C	0.433936	0.446320	0.402440
C79	C	-0.036341	-0.000048	-0.098036
C80	C	0.463659	0.499952	0.401964
O81	O	0.027984	-0.099246	-0.099141
O82	O	0.527984	0.400754	0.400859
O83	O	0.028034	0.099177	-0.099064
O84	O	0.528034	0.599177	0.400936
N85	N	0.677661	-0.153307	-0.101608
N86	N	1.177661	0.346693	0.398392
C87	C	0.713820	-0.561954	-0.048136
C88	C	1.213820	-0.061954	0.451864
C89	C	0.713822	-0.623874	-0.048130
C90	C	1.213822	-0.123874	0.451870
O91	O	0.744542	-0.655897	-0.002678
O92	O	1.244542	-0.155897	0.497322
N93	N	0.677688	-0.654844	-0.101553
N94	N	1.177688	-0.154844	0.398447
C95	C	0.641545	-0.623892	-0.154980
C96	C	1.141545	-0.123892	0.345020
O97	O	0.610810	-0.655920	-0.200420
O98	O	1.110810	-0.155920	0.299580
C99	C	0.641540	-0.561973	-0.154981
C100	C	1.141540	-0.061973	0.345019
C101	C	0.677680	-0.531006	-0.101560
C102	C	1.177680	-0.031006	0.398440
C103	C	0.749957	-0.530986	0.005282
C104	C	1.249957	-0.030986	0.505282
C105	C	0.749955	-0.469071	0.005275
C106	C	1.249955	0.030929	0.505275
C107	C	0.713816	-0.438122	-0.048149
C108	C	1.213816	0.061878	0.451851
C109	C	0.677678	-0.469090	-0.101567
C110	C	1.177678	0.030910	0.398433
C111	C	0.605394	-0.531022	-0.208404
C112	C	1.105394	-0.031022	0.291596
C113	C	0.605392	-0.469099	-0.208400
C114	C	1.105392	0.030901	0.291600
C115	C	0.641532	-0.438131	-0.154979
C116	C	1.141532	0.061869	0.345021
C117	C	0.641537	-0.376226	-0.154998
C118	C	1.141537	0.123774	0.345002
N119	N	0.677671	-0.345256	-0.101575
N120	N	1.177671	0.154744	0.398425
C121	C	0.713811	-0.376204	-0.048151
C122	C	1.213811	0.123796	0.451849
C123	C	0.641558	-0.753925	-0.154972
C124	C	1.141558	-0.253925	0.345028
C125	C	0.641565	-0.815843	-0.154975
C126	C	1.141565	-0.315843	0.345025
C127	C	0.713842	-0.815821	-0.048124
C128	C	1.213842	-0.315821	0.451876
C129	C	0.713837	-0.753902	-0.048125
C130	C	1.213837	-0.253902	0.451875
C131	C	0.677692	-0.722955	-0.101549
C132	C	1.177692	-0.222955	0.398451
C133	C	0.713804	-0.246176	-0.048170
C134	C	1.213804	0.253824	0.451830
C135	C	0.713800	-0.184255	-0.048183
C136	C	1.213800	0.315745	0.451817
C137	C	0.641522	-0.184283	-0.155032
C138	C	1.141522	0.315717	0.344968
C139	C	0.641527	-0.246199	-0.155021
C140	C	1.141527	0.253801	0.344979
C141	C	0.677670	-0.277144	-0.101583
C142	C	1.177670	0.222856	0.398417
O143	O	0.610832	-0.344164	-0.200425
O144	O	1.110832	0.155836	0.299575
O145	O	0.744535	-0.344167	-0.002712
O146	O	1.244535	0.155833	0.497288
C147	C	0.781486	-0.000059	-0.095043
C148	C	1.281486	0.499941	0.404957
C149	C	0.844759	-0.000061	-0.096079
C150	C	1.344759	0.499939	0.403921
C151	C	0.674913	-0.000056	0.041342
C152	C	1.174913	0.499944	0.541342
C153	C	0.669586	-0.000056	0.128094
C154	C	1.169586	0.499944	0.628094
N155	N	0.677703	0.153203	-0.101548
N156	N	1.177703	0.653203	0.398452
C157	C	0.680447	-0.000046	-0.244503
C158	C	1.180447	0.499954	0.255497
C159	C	0.685773	-0.000043	-0.331256
C160	C	1.185773	0.499957	0.168744
C161	C	0.718491	-0.000060	0.178581
C162	C	1.218491	0.499940	0.678581
C163	C	0.713483	-0.000054	0.260094
C164	C	1.213483	0.499946	0.760094
C165	C	0.659569	-0.000048	0.291117
C166	C	1.159569	0.499952	0.791117
C167	C	0.610660	-0.000041	0.240623
C168	C	1.110660	0.499959	0.740623
C169	C	0.615669	-0.000043	0.159112
C170	C	1.115669	0.499957	0.659112
C171	C	0.641873	-0.000038	0.536740
C172	C	1.141873	0.499962	1.036740
C173	C	0.636868	-0.000038	0.618257
C174	C	1.136868	0.499962	1.118257
C175	C	0.739692	-0.000050	0.637722
C176	C	1.239692	0.499950	1.137722
C177	C	0.744696	-0.000056	0.556209
C178	C	1.244696	0.499944	1.056209
C179	C	0.695787	-0.000046	0.505722
C180	C	1.195787	0.499954	1.005722
C181	C	0.654448	-0.000043	0.374435
C182	C	1.154448	0.499957	0.874435
C183	C	0.700908	-0.000046	0.422405
C184	C	1.200908	0.499954	0.922405
H185	H	0.397221	-0.097332	-0.105225
H186	H	0.897221	0.402668	0.394775
H187	H	0.231581	-0.150960	-0.102468
H188	H	0.731581	0.349040	0.397532
O189	O	0.770908	-0.000039	0.148579
O190	O	1.270908	0.499961	0.648579
C191	C	0.812998	-0.000055	0.210624
C192	C	1.312998	0.499945	0.710624
H193	H	0.794357	0.018569	0.265875
H194	H	1.294357	0.518569	0.765875
H195	H	0.850405	0.028503	0.193886
H196	H	1.350405	0.528503	0.693886
H197	H	0.828268	-0.047248	0.222283
H198	H	1.328268	0.452752	0.722283
H199	H	0.505085	0.097250	-0.106974
H200	H	1.005085	0.597250	0.393026
O201	O	0.748917	-0.845824	0.003886
O202	O	1.248917	-0.345824	0.503886
C203	C	0.735905	-0.830703	0.081187
C204	C	1.235905	-0.330703	0.581187
H205	H	0.713968	-0.785746	0.080933
H206	H	1.213968	-0.285746	0.580933
H207	H	0.776832	-0.828582	0.119988
H208	H	1.276832	-0.328582	0.619988
H209	H	0.706395	-0.865552	0.105148
H210	H	1.206395	-0.365552	0.605148
O211	O	0.509650	-0.105804	-0.107060
O212	O	1.009650	0.394196	0.392940
C213	C	0.470656	-0.153128	-0.106447
C214	C	0.970656	0.346872	0.393553
H215	H	0.429440	-0.137405	-0.080999
H216	H	0.929440	0.362595	0.419001
H217	H	0.489605	-0.190636	-0.068789
H218	H	0.989605	0.309364	0.431211
H219	H	0.461391	-0.169612	-0.169055
H220	H	0.961391	0.330388	0.330945
H221	H	0.753307	-0.000060	0.301198
H222	H	1.253307	0.499940	0.801198
H223	H	0.612143	-0.841053	-0.198484
H224	H	1.112143	-0.341053	0.301516
H225	H	-0.149726	-0.097344	-0.096191
H226	H	0.350274	0.402656	0.403809
O227	O	0.748884	-0.276167	0.003844
O228	O	1.248884	0.223833	0.503844
C229	C	0.735874	-0.261036	0.081143
C230	C	1.235874	0.238964	0.581143
H231	H	0.713929	-0.216084	0.080879
H232	H	1.213929	0.283916	0.580879
H233	H	0.776803	-0.258903	0.119939
H234	H	1.276803	0.241097	0.619939
H235	H	0.706372	-0.295887	0.105118
H236	H	1.206372	0.204113	0.605118
O237	O	-0.154443	0.105617	-0.095970
O238	O	0.345557	0.605617	0.404030
C239	C	-0.185647	0.108831	-0.027697
C240	C	0.314353	0.608831	0.472303
H241	H	-0.193501	0.062273	-0.004990
H242	H	0.306499	0.562273	0.495010
H243	H	-0.228163	0.131529	-0.042230
H244	H	0.271837	0.631529	0.457770
H245	H	-0.160510	0.135290	0.019334
H246	H	0.339490	0.635290	0.519334
O247	O	0.753291	0.000053	0.392310
O248	O	1.253291	0.500053	0.892310
C249	C	0.783361	0.050987	0.418167
C250	C	1.283361	0.550987	0.918167
H251	H	0.751913	0.086601	0.434889
H252	H	1.251913	0.586601	0.934889
H253	H	0.809974	0.068084	0.368974
H254	H	1.309974	0.568084	0.868974
H255	H	0.812513	0.039464	0.471544
H256	H	1.312513	0.539464	0.971544
H257	H	0.612126	-0.728731	-0.198483
H258	H	1.112126	-0.228731	0.301517
H259	H	0.788598	-0.000061	0.530957
H260	H	1.288598	0.499939	1.030957
H261	H	0.779386	-0.556179	0.048790
H262	H	1.279386	-0.056179	0.548790
O263	O	-0.037121	-0.105731	-0.097947
O264	O	0.462879	0.394269	0.402053
C265	C	0.000426	-0.108949	-0.030804
C266	C	0.500426	0.391051	0.469196
H267	H	0.010391	-0.062392	-0.008371
H268	H	0.510391	0.437608	0.491629
H269	H	0.041518	-0.131641	-0.046718
H270	H	0.541518	0.368359	0.453282
H271	H	-0.020268	-0.135414	0.016970
H272	H	0.479732	0.364586	0.516970
H273	H	0.566762	-0.000032	0.265888
H274	H	1.066762	0.499968	0.765888
O275	O	0.119151	-0.159436	-0.100642
O276	O	0.619151	0.340564	0.399358
C277	C	0.158138	-0.206760	-0.101271
C278	C	0.658138	0.293240	0.398729
H279	H	0.199355	-0.191036	-0.126715
H280	H	0.699355	0.308964	0.373285
H281	H	0.139182	-0.244265	-0.138941
H282	H	0.639182	0.255735	0.361059
H283	H	0.167401	-0.223248	-0.038669
H284	H	0.667401	0.276752	0.461331
O285	O	0.606337	-0.154280	-0.206893
O286	O	1.106337	0.345720	0.293107
C287	C	0.549368	-0.169403	-0.194573
C288	C	1.049368	0.330597	0.305427
H289	H	0.547982	-0.214360	-0.164448
H290	H	1.047982	0.285640	0.335552
H291	H	0.524172	-0.171524	-0.253519
H292	H	1.024172	0.328476	0.246481
H293	H	0.529884	-0.134555	-0.155790
H294	H	1.029884	0.365445	0.344210
H295	H	0.779382	-0.443860	0.048777
H296	H	1.279382	0.056140	0.548777
H297	H	0.612104	-0.271413	-0.198529
H298	H	1.112104	0.228587	0.301471
O299	O	0.584504	-0.000134	0.648428
O300	O	1.084504	0.499866	1.148428
C301	C	0.578525	-0.051073	0.695002
C302	C	1.078525	0.448927	1.195002
H303	H	0.609200	-0.086686	0.675956
H304	H	1.109200	0.413314	1.175956
H305	H	0.532994	-0.068166	0.687315
H306	H	1.032994	0.431834	1.187315
H307	H	0.588544	-0.039558	0.759395
H308	H	1.088544	0.460442	1.259395
H309	H	0.575845	-0.000039	0.118005
H310	H	1.075845	0.499961	0.618005
O311	O	0.787140	-0.000028	0.686876
O312	O	1.287140	0.499972	1.186876
C313	C	0.771162	-0.000040	0.765473
C314	C	1.271162	0.499960	1.265473
H315	H	0.726297	0.018586	0.768242
H316	H	1.226297	0.518586	1.268242
H317	H	0.802096	0.028519	0.802668
H318	H	1.302096	0.528519	1.302668
H319	H	0.772173	-0.047232	0.789062
H320	H	1.272173	0.452768	1.289062
H321	H	0.743265	-0.728692	-0.004625
H322	H	1.243265	-0.228692	0.495375
H323	H	0.602048	-0.000030	0.495642
H324	H	1.102048	0.499970	0.995642
H325	H	0.575956	-0.443905	-0.251904
H326	H	1.075956	0.056095	0.248096
H327	H	-0.041868	0.097240	-0.097926
H328	H	0.458132	0.597240	0.402074
O329	O	0.119181	0.159343	-0.100534
O330	O	0.619181	0.659343	0.399466
C331	C	0.158176	0.206665	-0.101184
C332	C	0.658176	0.706665	0.398816
H333	H	0.201713	0.190934	-0.077150
H334	H	0.701713	0.690934	0.422850
H335	H	0.142790	0.244165	-0.062935
H336	H	0.642790	0.744165	0.437065
H337	H	0.161558	0.223161	-0.163992
H338	H	0.661558	0.723161	0.336008
H339	H	0.610551	-0.000039	0.399703
H340	H	1.110551	0.499961	0.899703
O341	O	0.570232	-0.561002	-0.260327
O342	O	1.070232	-0.061002	0.239673
C343	C	0.538346	-0.520397	-0.307483
C344	C	1.038346	-0.020397	0.192517
H345	H	0.536159	-0.476259	-0.275438
H346	H	1.036159	0.023741	0.224562
H347	H	0.493458	-0.538285	-0.319729
H348	H	0.993458	-0.038285	0.180271
H349	H	0.559638	-0.513811	-0.365412
H350	H	1.059638	-0.013811	0.134588
H351	H	0.231602	0.150868	-0.102431
H352	H	0.731602	0.650868	0.397569
O353	O	0.748792	-0.154146	0.003833
O354	O	1.248792	0.345854	0.503833
C355	C	0.715910	-0.118393	0.051832
C356	C	1.215910	0.381607	0.551832
H357	H	0.672906	-0.109085	0.020303
H358	H	1.172906	0.390915	0.520303
H359	H	0.739064	-0.074864	0.064506
H360	H	1.239064	0.425136	0.564506
H361	H	0.709172	-0.142317	0.109500
H362	H	1.209172	0.357683	0.609500
H363	H	0.397226	0.097253	-0.105191
H364	H	0.897226	0.597253	0.394809
