data_functionalizedCrystal
_audit_creation_method	'MofGen! by Chris Wilmer'
_symmetry_space_group_name_H-M	'P1'
_symmetry_Int_Tables_number	1
_symmetry_cell_setting	triclinic
loop_
_symmetry_equiv_pos_as_xyz
  x,y,z
_cell_length_a	23.532355
_cell_length_b	27.732048
_cell_length_c	22.610064
_cell_angle_alpha	89.999096
_cell_angle_beta	89.997644
_cell_angle_gamma	82.735077
loop_
_atom_site_label
_atom_site_type_symbol
_atom_site_fract_x
_atom_site_fract_y
_atom_site_fract_z
O1	O	0.755158	0.058553	-0.049110
O2	O	1.088491	0.391886	0.284223
O3	O	1.421824	0.725219	0.617556
O4	O	0.589272	0.067069	-0.049130
O5	O	0.922605	0.400402	0.284203
O6	O	1.255939	0.733736	0.617537
O7	O	0.677367	-0.007579	-0.049108
O8	O	1.010700	0.325755	0.284225
O9	O	1.344033	0.659088	0.617558
O10	O	0.667063	0.133201	-0.049132
O11	O	1.000396	0.466534	0.284201
O12	O	1.333729	0.799867	0.617534
O13	O	0.677351	-0.007568	0.049261
O14	O	1.010685	0.325766	0.382594
O15	O	1.344018	0.659099	0.715927
O16	O	0.589256	0.067080	0.049239
O17	O	0.922590	0.400413	0.382572
O18	O	1.255923	0.733747	0.715906
O19	O	0.755142	0.058564	0.049259
O20	O	1.088475	0.391897	0.382592
O21	O	1.421809	0.725230	0.715925
Zn22	Zn	0.672197	0.062824	0.064867
Zn23	Zn	1.005530	0.396157	0.398200
Zn24	Zn	1.338863	0.729490	0.731534
Zn25	Zn	0.672217	0.062809	-0.064739
Zn26	Zn	1.005551	0.396142	0.268595
Zn27	Zn	1.338884	0.729476	0.601928
O28	O	0.667047	0.133211	0.049237
O29	O	1.000380	0.466545	0.382570
O30	O	1.333714	0.799878	0.715904
C31	C	0.568048	0.066862	0.000052
C32	C	0.901381	0.400195	0.333385
C33	C	1.234715	0.733528	0.666719
C34	C	0.504831	0.066222	0.000045
C35	C	0.838164	0.399555	0.333378
C36	C	1.171497	0.732888	0.666712
C37	C	0.112817	0.062206	0.053692
C38	C	0.446150	0.395539	0.387025
C39	C	0.779484	0.728873	0.720358
C40	C	0.053419	0.061597	0.053694
C41	C	0.386752	0.394931	0.387027
C42	C	0.720086	0.728264	0.720361
O43	O	0.022694	0.061271	0.099296
O44	O	0.356027	0.394604	0.432629
O45	O	0.689360	0.727938	0.765963
N46	N	0.023720	0.061289	0.000073
N47	N	0.357053	0.394623	0.333406
N48	N	0.690386	0.727956	0.666740
C49	C	0.053422	0.061585	-0.053554
C50	C	0.386755	0.394919	0.279780
C51	C	0.720089	0.728252	0.613113
O52	O	0.022706	0.061267	-0.099162
O53	O	0.356040	0.394601	0.234171
O54	O	0.689373	0.727934	0.567505
C55	C	0.112820	0.062191	-0.053555
C56	C	0.446153	0.395524	0.279778
C57	C	0.779486	0.728858	0.613111
C58	C	0.142515	0.062504	0.000069
C59	C	0.475849	0.395837	0.333402
C60	C	0.809182	0.729170	0.666736
C61	C	0.142513	0.062518	0.107311
C62	C	0.475846	0.395852	0.440645
C63	C	0.809179	0.729185	0.773978
C64	C	0.201906	0.063128	0.107309
C65	C	0.535240	0.396462	0.440642
C66	C	0.868573	0.729795	0.773976
C67	C	0.231605	0.063426	0.053686
C68	C	0.564938	0.396759	0.387020
C69	C	0.898271	0.730092	0.720353
C70	C	0.201909	0.063114	0.000066
C71	C	0.535242	0.396447	0.333400
C72	C	0.868576	0.729780	0.666733
C73	C	0.142522	0.062484	-0.107181
C74	C	0.475855	0.395817	0.226152
C75	C	0.809189	0.729150	0.559485
C76	C	0.201924	0.063089	-0.107179
C77	C	0.535257	0.396422	0.226155
C78	C	0.868590	0.729755	0.559488
C79	C	0.231619	0.063402	-0.053554
C80	C	0.564952	0.396735	0.279779
C81	C	0.898286	0.730068	0.613112
C82	C	0.291001	0.064021	-0.053559
C83	C	0.624335	0.397354	0.279775
C84	C	0.957668	0.730688	0.613108
N85	N	0.320701	0.064329	0.000062
N86	N	0.654034	0.397662	0.333395
N87	N	0.987367	0.730995	0.666729
C88	C	0.291002	0.064031	0.053685
C89	C	0.624336	0.397365	0.387018
C90	C	0.957669	0.730698	0.720351
C91	C	-0.071317	0.060313	-0.053546
C92	C	0.262017	0.393646	0.279788
C93	C	0.595350	0.726980	0.613121
C94	C	-0.130714	0.059711	-0.053545
C95	C	0.202620	0.393044	0.279789
C96	C	0.535953	0.726378	0.613122
C97	C	-0.130713	0.059722	0.053703
C98	C	0.202621	0.393055	0.387036
C99	C	0.535954	0.726389	0.720370
C100	C	-0.071315	0.060327	0.053701
C101	C	0.262018	0.393661	0.387035
C102	C	0.595352	0.726994	0.720368
C103	C	-0.041617	0.060621	0.000075
C104	C	0.291716	0.393954	0.333408
C105	C	0.625049	0.727288	0.666742
C106	C	0.415734	0.065312	0.053675
C107	C	0.749067	0.398646	0.387008
C108	C	1.082400	0.731979	0.720342
C109	C	0.475132	0.065924	0.053668
C110	C	0.808466	0.399257	0.387001
C111	C	1.141799	0.732591	0.720334
C112	C	0.475127	0.065911	-0.053580
C113	C	0.808460	0.399244	0.279754
C114	C	1.141793	0.732577	0.613087
C115	C	0.415733	0.065301	-0.053573
C116	C	0.749066	0.398635	0.279761
C117	C	1.082399	0.731968	0.613094
C118	C	0.386038	0.065001	0.000059
C119	C	0.719371	0.398334	0.333393
C120	C	1.052705	0.731667	0.666726
O121	O	0.321764	0.064346	-0.099138
O122	O	0.655098	0.397679	0.234196
O123	O	0.988431	0.731012	0.567529
O124	O	0.321726	0.064343	0.099285
O125	O	0.655060	0.397676	0.432619
O126	O	0.988393	0.731010	0.765952
C127	C	0.677143	-0.025580	0.000078
C128	C	1.010476	0.307753	0.333411
C129	C	1.343809	0.641086	0.666744
C130	C	0.676491	-0.079236	0.000083
C131	C	1.009825	0.254097	0.333416
C132	C	1.343158	0.587430	0.666749
C133	C	0.724449	-0.417985	0.000058
C134	C	1.057783	-0.084652	0.333391
C135	C	1.391116	0.248682	0.666725
C136	C	0.722033	-0.619648	0.000049
C137	C	1.055366	-0.286315	0.333383
C138	C	1.388700	0.047019	0.666716
O139	O	0.765887	-0.650843	0.000029
O140	O	1.099220	-0.317510	0.333362
O141	O	1.432554	0.015823	0.666695
N142	N	0.669796	-0.638844	0.000044
N143	N	1.003130	-0.305511	0.333377
N144	N	1.336463	0.027823	0.666710
C145	C	0.618160	-0.607621	0.000036
C146	C	0.951493	-0.274287	0.333370
C147	C	1.284827	0.059046	0.666703
O148	O	0.573674	-0.628575	0.000025
O149	O	0.907007	-0.295242	0.333359
O150	O	1.240341	0.038092	0.666692
C151	C	0.620577	-0.405959	0.000041
C152	C	0.953911	-0.072625	0.333374
C153	C	1.287244	0.260708	0.666707
C154	C	0.672817	-0.386766	0.000052
C155	C	1.006151	-0.053432	0.333386
C156	C	1.339484	0.279901	0.666719
C157	C	0.776685	-0.398792	0.000069
C158	C	1.110019	-0.065458	0.333402
C159	C	1.443352	0.267875	0.666736
C160	C	0.777289	-0.348379	0.000074
C161	C	1.110622	-0.015046	0.333408
C162	C	1.443956	0.318288	0.666741
C163	C	0.725657	-0.317160	0.000069
C164	C	1.058990	0.016174	0.333402
C165	C	1.392323	0.349507	0.666735
C166	C	0.673421	-0.336353	0.000058
C167	C	1.006754	-0.003020	0.333391
C168	C	1.340087	0.330314	0.666724
C169	C	0.568942	-0.374736	0.000029
C170	C	0.902275	-0.041403	0.333362
C171	C	1.235608	0.291930	0.666696
C172	C	0.569551	-0.324318	0.000029
C173	C	0.902884	0.009015	0.333362
C174	C	1.236217	0.342349	0.666695
C175	C	0.621791	-0.305125	0.000040
C176	C	0.955124	0.028208	0.333374
C177	C	1.288457	0.361541	0.666707
C178	C	0.622392	-0.254721	0.000057
C179	C	0.955725	0.078613	0.333391
C180	C	1.289059	0.411946	0.666724
N181	N	0.674629	-0.235525	0.000063
N182	N	1.007962	0.097808	0.333396
N183	N	1.341295	0.431142	0.666730
C184	C	0.726261	-0.266744	0.000069
C185	C	1.059594	0.066589	0.333402
C186	C	1.392928	0.399922	0.666735
C187	C	0.616895	-0.713496	0.000035
C188	C	0.950228	-0.380163	0.333369
C189	C	1.283561	-0.046830	0.666702
C190	C	0.616290	-0.763912	0.000035
C191	C	0.949624	-0.430578	0.333369
C192	C	1.282957	-0.097245	0.666702
C193	C	0.720163	-0.775936	0.000047
C194	C	1.053497	-0.442602	0.333380
C195	C	1.386830	-0.109269	0.666714
C196	C	0.720767	-0.725520	0.000051
C197	C	1.054101	-0.392186	0.333385
C198	C	1.387434	-0.058853	0.666718
C199	C	0.669131	-0.694301	0.000041
C200	C	1.002465	-0.360967	0.333374
C201	C	1.335798	-0.027634	0.666708
C202	C	0.727525	-0.160873	0.000080
C203	C	1.060858	0.172460	0.333414
C204	C	1.394191	0.505793	0.666747
C205	C	0.728124	-0.110456	0.000088
C206	C	1.061457	0.222878	0.333422
C207	C	1.394790	0.556211	0.666755
C208	C	0.624251	-0.098436	0.000073
C209	C	0.957584	0.234897	0.333406
C210	C	1.290918	0.568231	0.666740
C211	C	0.623652	-0.148849	0.000068
C212	C	0.956985	0.184484	0.333402
C213	C	1.290318	0.517817	0.666735
C214	C	0.675293	-0.180067	0.000070
C215	C	1.008626	0.153266	0.333403
C216	C	1.341960	0.486599	0.666737
O217	O	0.578561	-0.223497	0.000071
O218	O	0.911895	0.109836	0.333405
O219	O	1.245228	0.443169	0.666738
O220	O	0.770740	-0.245780	0.000067
O221	O	1.104074	0.087553	0.333400
O222	O	1.437407	0.420886	0.666733
C223	C	0.723846	-0.468398	0.000053
C224	C	1.057179	-0.135065	0.333386
C225	C	1.390513	0.198269	0.666719
C226	C	0.671610	-0.487591	0.000042
C227	C	1.004943	-0.154258	0.333375
C228	C	1.338277	0.179075	0.666708
C229	C	0.619978	-0.456372	0.000036
C230	C	0.953311	-0.123039	0.333369
C231	C	1.286645	0.210295	0.666703
C232	C	0.671006	-0.538007	0.000042
C233	C	1.004339	-0.204673	0.333375
C234	C	1.337672	0.128660	0.666708
C235	C	0.722638	-0.569226	0.000047
C236	C	1.055971	-0.235893	0.333380
C237	C	1.389305	0.097441	0.666714
C238	C	0.774875	-0.550030	0.000053
C239	C	1.108208	-0.216697	0.333386
C240	C	1.441541	0.116637	0.666719
C241	C	0.775478	-0.499617	0.000058
C242	C	1.108811	-0.166284	0.333391
C243	C	1.442145	0.167049	0.666725
C244	C	0.567741	-0.475568	0.000030
C245	C	0.901075	-0.142234	0.333364
C246	C	1.234408	0.191099	0.666697
C247	C	0.567142	-0.525981	0.000026
C248	C	0.900475	-0.192648	0.333359
C249	C	1.233809	0.140686	0.666692
C250	C	0.618774	-0.557200	0.000031
C251	C	0.952107	-0.223867	0.333365
C252	C	1.285441	0.109466	0.666698
C253	C	0.776366	0.058771	0.000075
C254	C	1.109699	0.392104	0.333409
C255	C	1.443033	0.725438	0.666742
C256	C	0.839583	0.059411	0.000078
C257	C	1.172917	0.392744	0.333412
C258	C	1.506250	0.726078	0.666745
C259	C	0.667271	0.151213	0.000050
C260	C	1.000605	0.484547	0.333383
C261	C	1.333938	0.817880	0.666716
C262	C	0.667923	0.204869	0.000041
C263	C	1.001256	0.538202	0.333374
C264	C	1.334589	0.871536	0.666708
N265	N	0.672187	0.062833	0.153320
N266	N	1.005520	0.396166	0.486653
N267	N	1.338854	0.729500	0.819986
N268	N	0.672232	0.062796	-0.153191
N269	N	1.005565	0.396129	0.180142
N270	N	1.338898	0.729462	0.513476
C271	C	0.711227	0.029760	0.561971
C272	C	1.044561	0.363093	0.895304
C273	C	1.377894	0.696427	1.228637
C274	C	0.711230	0.029757	0.623891
C275	C	1.044564	0.363090	0.957224
C276	C	1.377897	0.696423	1.290557
O277	O	0.744400	0.001644	0.655917
O278	O	1.077733	0.334977	0.989251
O279	O	1.411066	0.668311	1.322584
N280	N	0.672217	0.062799	0.654857
N281	N	1.005550	0.396132	0.988190
N282	N	1.338884	0.729466	1.321523
C283	C	0.633194	0.095844	0.623900
C284	C	0.966527	0.429177	0.957233
C285	C	1.299861	0.762511	1.290566
O286	O	0.600010	0.123949	0.655925
O287	O	0.933343	0.457282	0.989258
O288	O	1.266677	0.790615	1.322591
C289	C	0.633189	0.095845	0.561981
C290	C	0.966522	0.429178	0.895314
C291	C	1.299856	0.762512	1.228648
C292	C	0.672209	0.062803	0.531018
C293	C	1.005542	0.396137	0.864351
C294	C	1.338875	0.729470	1.197685
C295	C	0.750244	-0.003279	0.531008
C296	C	1.083577	0.330054	0.864341
C297	C	1.416910	0.663388	1.197674
C298	C	0.750241	-0.003275	0.469092
C299	C	1.083575	0.330059	0.802425
C300	C	1.416908	0.663392	1.135759
C301	C	0.711223	0.029769	0.438139
C302	C	1.044556	0.363102	0.771473
C303	C	1.377889	0.696435	1.104806
C304	C	0.672206	0.062808	0.469102
C305	C	1.005540	0.396141	0.802436
C306	C	1.338873	0.729474	1.135769
C307	C	0.594164	0.128887	0.531025
C308	C	0.927497	0.462221	0.864359
C309	C	1.260831	0.795554	1.197692
C310	C	0.594162	0.128885	0.469102
C311	C	0.927495	0.462218	0.802436
C312	C	1.260828	0.795552	1.135769
C313	C	0.633182	0.095843	0.438139
C314	C	0.966515	0.429177	0.771473
C315	C	1.299848	0.762510	1.104806
C316	C	0.633185	0.095855	0.376234
C317	C	0.966519	0.429189	0.709568
C318	C	1.299852	0.762522	1.042901
N319	N	0.672199	0.062813	0.345268
N320	N	1.005532	0.396146	0.678601
N321	N	1.338865	0.729479	1.011935
C322	C	0.711217	0.029769	0.376221
C323	C	1.044551	0.363103	0.709554
C324	C	1.377884	0.696436	1.042887
C325	C	0.633207	0.095839	0.753933
C326	C	0.966541	0.429173	1.087267
C327	C	1.299874	0.762506	1.420600
C328	C	0.633215	0.095841	0.815851
C329	C	0.966548	0.429174	1.149184
C330	C	1.299881	0.762508	1.482518
C331	C	0.711250	0.029753	0.815837
C332	C	1.044584	0.363086	1.149171
C333	C	1.377917	0.696420	1.482504
C334	C	0.711245	0.029754	0.753919
C335	C	1.044579	0.363087	1.087252
C336	C	1.377912	0.696420	1.420585
C337	C	0.672221	0.062797	0.722967
C338	C	1.005554	0.396130	1.056301
C339	C	1.338887	0.729463	1.389634
C340	C	0.711210	0.029781	0.246193
C341	C	1.044543	0.363114	0.579527
C342	C	1.377876	0.696448	0.912860
C343	C	0.711206	0.029790	0.184272
C344	C	1.044539	0.363123	0.517605
C345	C	1.377872	0.696456	0.850939
C346	C	0.633168	0.095876	0.184291
C347	C	0.966501	0.429209	0.517624
C348	C	1.299835	0.762543	0.850958
C349	C	0.633174	0.095869	0.246207
C350	C	0.966507	0.429203	0.579540
C351	C	1.299841	0.762536	0.912873
C352	C	0.672197	0.062818	0.277156
C353	C	1.005531	0.396151	0.610490
C354	C	1.338864	0.729485	0.943823
O355	O	0.600031	0.123952	0.344168
O356	O	0.933365	0.457286	0.677501
O357	O	1.266698	0.790619	1.010835
O358	O	0.744391	0.001665	0.344188
O359	O	1.077724	0.334999	0.677521
O360	O	1.411058	0.668332	1.010855
H361	H	0.391552	0.065055	-0.097238
H362	H	0.724885	0.398388	0.236095
H363	H	1.058219	0.731721	0.569429
H364	H	0.601447	0.122752	0.841057
H365	H	0.934780	0.456085	1.174390
H366	H	1.268114	0.789418	1.507724
H367	H	0.526402	-0.390354	0.000016
H368	H	0.859736	-0.057020	0.333349
H369	H	1.193069	0.276313	0.666683
H370	H	-0.154904	0.059479	0.097366
H371	H	0.178430	0.392812	0.430699
H372	H	0.511763	0.726145	0.764032
H373	H	0.742985	0.002867	0.271385
H374	H	1.076319	0.336200	0.604719
H375	H	1.409652	0.669534	0.938052
H376	H	0.601430	0.122751	0.728736
H377	H	0.934764	0.456084	1.062069
H378	H	1.268097	0.789417	1.395402
H379	H	0.818017	-0.483996	0.000067
H380	H	1.151351	-0.150662	0.333401
H381	H	1.484684	0.182671	0.666734
H382	H	0.769576	-0.186286	0.000079
H383	H	1.102910	0.147048	0.333413
H384	H	1.436243	0.480381	0.666746
Br385	Br	0.242225	0.063484	-0.179961
Br386	Br	0.575558	0.396818	0.153372
Br387	Br	0.908892	0.730151	0.486705
H388	H	-0.047141	0.060583	0.097367
H389	H	0.286192	0.393916	0.430700
H390	H	0.619526	0.727249	0.764034
H391	H	0.527501	-0.298901	0.000019
H392	H	0.860835	0.034432	0.333352
H393	H	1.194168	0.367765	0.666686
H394	H	0.226080	0.063380	0.150975
H395	H	0.559413	0.396713	0.484309
H396	H	0.892746	0.730047	0.817642
Br397	Br	0.580217	0.140720	0.142274
Br398	Br	0.913551	0.474054	0.475608
Br399	Br	1.246884	0.807387	0.808941
H400	H	-0.047141	0.060557	-0.097217
H401	H	0.286192	0.393890	0.236116
H402	H	0.619526	0.727223	0.569449
H403	H	0.499317	0.066155	-0.097238
H404	H	0.832651	0.399488	0.236095
H405	H	1.165984	0.732822	0.569429
Br406	Br	0.102236	0.062059	-0.179962
Br407	Br	0.435569	0.395392	0.153371
Br408	Br	0.768903	0.728725	0.486705
H409	H	0.782013	-0.030181	0.443885
H410	H	1.115346	0.303152	0.777219
H411	H	1.448680	0.636485	1.110552
H412	H	0.562390	0.155792	0.556227
H413	H	0.895724	0.489125	0.889560
H414	H	1.229057	0.822459	1.222893
H415	H	0.743021	0.002846	0.841050
H416	H	1.076354	0.336180	1.174384
H417	H	1.409687	0.669513	1.507717
H418	H	0.524599	-0.541602	0.000021
H419	H	0.857932	-0.208269	0.333355
H420	H	1.191265	0.125064	0.666688
H421	H	0.574844	-0.688082	0.000027
H422	H	0.908177	-0.354748	0.333360
H423	H	1.241511	-0.021415	0.666693
Br424	Br	0.799026	-0.084412	0.000105
Br425	Br	1.132359	0.248922	0.333438
Br426	Br	1.465692	0.582255	0.666771
H427	H	0.581114	-0.164477	0.000075
H428	H	0.914447	0.168857	0.333409
H429	H	1.247780	0.502190	0.666742
H430	H	0.525695	-0.450153	0.000024
H431	H	0.859028	-0.116820	0.333358
H432	H	1.192362	0.216513	0.666691
Br433	Br	0.846768	-0.441153	0.000076
Br434	Br	1.180101	-0.107819	0.333409
Br435	Br	1.513434	0.225514	0.666743
H436	H	0.763306	-0.709897	0.000060
H437	H	1.096639	-0.376563	0.333394
H438	H	1.429972	-0.043230	0.666727
H439	H	0.118339	0.062275	0.150980
H440	H	0.451672	0.395608	0.484313
H441	H	0.785005	0.728942	0.817646
H442	H	0.499308	0.066180	0.097337
H443	H	0.832641	0.399514	0.430670
H444	H	1.165974	0.732847	0.764004
Br445	Br	0.545390	-0.789952	0.000033
Br446	Br	0.878724	-0.456619	0.333367
Br447	Br	1.212057	-0.123286	0.666700
Br448	Br	0.554182	-0.056058	0.000066
Br449	Br	0.887515	0.277276	0.333399
Br450	Br	1.220849	0.610609	0.666732
Br451	Br	0.790235	-0.818314	0.000053
Br452	Br	1.123569	-0.484981	0.333387
Br453	Br	1.456902	-0.151648	0.666720
Br454	Br	0.375443	0.064902	0.126462
Br455	Br	0.708776	0.398236	0.459795
Br456	Br	1.042110	0.731569	0.793129
Br457	Br	0.541194	0.173730	0.427101
Br458	Br	0.874528	0.507063	0.760434
Br459	Br	1.207861	0.840397	1.093768
H460	H	-0.154888	0.059464	-0.097211
H461	H	0.178445	0.392798	0.236122
H462	H	0.511779	0.726131	0.569456
H463	H	0.819828	-0.332757	0.000081
H464	H	1.153161	0.000576	0.333415
H465	H	1.486495	0.333909	0.666748
Br466	Br	0.580225	0.140719	0.288226
Br467	Br	0.913558	0.474052	0.621560
Br468	Br	1.246891	0.807386	0.954893
Br469	Br	0.764167	-0.015053	0.142254
Br470	Br	1.097500	0.318280	0.475587
Br471	Br	1.430833	0.651613	0.808920
Br472	Br	0.844946	-0.592409	0.000065
Br473	Br	1.178279	-0.259076	0.333398
Br474	Br	1.511613	0.074257	0.666732
Br475	Br	0.803204	-0.048130	0.573004
Br476	Br	1.136537	0.285203	0.906337
Br477	Br	1.469870	0.618537	1.239671
H478	H	0.743018	0.002848	0.728712
H479	H	1.076351	0.336182	1.062046
H480	H	1.409685	0.669515	1.395379
