data_functionalizedCrystal
_audit_creation_method	'MofGen! by Chris Wilmer'
_symmetry_space_group_name_H-M	'P1'
_symmetry_Int_Tables_number	1
_symmetry_cell_setting	triclinic
loop_
_symmetry_equiv_pos_as_xyz
  x,y,z
_cell_length_a	16.974901
_cell_length_b	16.992695
_cell_length_c	15.455313
_cell_angle_alpha	87.152573
_cell_angle_beta	83.675219
_cell_angle_gamma	92.971814
loop_
_atom_site_label
_atom_site_type_symbol
_atom_site_fract_x
_atom_site_fract_y
_atom_site_fract_z
O1	O	-1.062054	0.093027	0.146605
O2	O	-0.831927	0.106507	0.130470
O3	O	-0.946068	-0.014371	0.138466
O4	O	-0.947913	0.213906	0.138609
O5	O	-0.939539	-0.007487	-0.006254
O6	O	-0.825398	0.113391	-0.014250
O7	O	-1.055525	0.099911	0.001886
Cu8	Cu	-0.939865	0.107280	-0.019396
Cu9	Cu	-0.947587	0.099139	0.151752
O10	O	-0.941384	0.220790	-0.006110
C11	C	-0.799081	0.109562	0.056036
C12	C	-0.710935	0.108398	0.049856
C13	C	-0.673075	0.104100	0.125832
C14	C	-0.590251	0.103020	0.120012
C15	C	-0.545289	0.106231	0.038215
C16	C	-0.583154	0.110530	-0.037767
C17	C	-0.665976	0.111617	-0.031947
C18	C	-0.297206	0.103390	0.012347
C19	C	-0.214379	0.102301	0.006532
C20	C	-0.221481	0.094791	0.164312
C21	C	-0.304305	0.095873	0.170126
C22	C	-0.342163	0.100177	0.094144
N23	N	-0.460629	0.105124	0.032264
N24	N	-0.426820	0.101290	0.100095
C25	C	-0.940430	-0.040131	0.065940
C26	C	-0.933348	-0.127145	0.065444
C27	C	-1.001678	-0.177682	0.070234
C28	C	-0.995020	-0.259440	0.069775
C29	C	-0.920030	-0.290659	0.064520
C30	C	-0.851694	-0.240116	0.059732
C31	C	-0.858354	-0.158359	0.060197
C32	C	-0.892429	-0.534137	0.062597
C33	C	-0.885774	-0.615900	0.062130
C34	C	-1.029100	-0.635219	0.072174
C35	C	-1.035753	-0.553460	0.072633
C36	C	-0.967418	-0.502924	0.067850
N37	N	-0.913222	-0.374229	0.064048
N38	N	-0.974227	-0.419356	0.068328
C39	C	-0.088372	0.096852	0.076322
C40	C	-0.176519	0.098003	0.082509
C41	C	-0.947022	0.246550	0.066418
C42	C	-0.954105	0.333563	0.066920
N43	N	-0.934441	0.113005	-0.139772
C44	C	-0.982951	0.061671	-0.181767
C45	C	-0.978856	0.066008	-0.272862
C46	C	-0.926254	0.121684	-0.321959
C47	C	-0.877739	0.173021	-0.279957
C48	C	-0.881830	0.168679	-0.188865
C49	C	-0.908593	0.140402	-0.594778
C50	C	-0.904507	0.144742	-0.685877
C51	C	-1.005623	0.037727	-0.678775
C52	C	-1.009714	0.033394	-0.587681
C53	C	-0.961195	0.084728	-0.545687
N54	N	-0.922069	0.126120	-0.415073
N55	N	-0.965377	0.080287	-0.452576
N56	N	-0.953017	0.093407	0.272127
H57	H	-0.177770	0.104938	-0.060081
O58	O	-1.102803	-0.689724	0.077334
H59	H	-1.105866	-0.730233	0.136351
O60	O	-1.057950	-0.017643	-0.724064
H61	H	-1.020288	-0.053645	-0.768086
H62	H	-0.546539	0.113150	-0.104369
H63	H	-0.696800	0.115119	-0.093815
H64	H	-0.861671	0.190083	-0.725848
H65	H	-1.050662	-0.300584	0.073674
O66	O	-1.039682	0.001617	-0.128814
H67	H	-1.072719	-0.033356	-0.173324
H68	H	-0.328020	0.106889	-0.049523
O69	O	-1.082565	-0.144019	0.075907
H70	H	-1.086375	-0.104437	0.017372
O71	O	-1.116636	-0.519788	0.078322
H72	H	-1.163034	-0.568667	0.081589
O73	O	-0.804889	-0.649577	0.056471
H74	H	-0.758489	-0.600703	0.053233
H75	H	-0.836785	-0.493000	0.058702
O76	O	-0.180656	0.090153	0.246266
H77	H	-0.139419	0.142906	0.247144
O78	O	-1.066461	-0.026649	-0.534731
H79	H	-1.061166	-0.021034	-0.464333
O80	O	-0.770808	-0.273781	0.054055
H81	H	-0.777655	-0.339121	0.054524
O82	O	-0.856273	0.195774	-0.549488
H83	H	-0.819019	0.235223	-0.598934
H84	H	-0.802711	-0.117212	0.056297
O85	O	-1.031192	0.010655	-0.318160
H86	H	-1.068468	-0.028778	-0.268715
H87	H	-0.842327	0.210481	-0.154673
O88	O	-0.721569	0.100640	0.214057
H89	H	-0.681324	0.097478	0.265909
O90	O	-0.549434	0.098349	0.201970
H91	H	-0.563361	0.150164	0.240688
O92	O	-0.352801	0.092414	0.258350
H93	H	-0.312559	0.089250	0.310205
O94	O	-0.821006	0.233077	-0.332905
H95	H	-0.826317	0.227480	-0.403303
