data_functionalizedCrystal
_audit_creation_method	'MofGen! by Chris Wilmer'
_symmetry_space_group_name_H-M	'P1'
_symmetry_Int_Tables_number	1
_symmetry_cell_setting	triclinic
loop_
_symmetry_equiv_pos_as_xyz
  x,y,z
_cell_length_a	29.839135
_cell_length_b	29.839131
_cell_length_c	29.839125
_cell_angle_alpha	89.974637
_cell_angle_beta	89.984512
_cell_angle_gamma	90.037758
loop_
_atom_site_label
_atom_site_type_symbol
_atom_site_fract_x
_atom_site_fract_y
_atom_site_fract_z
Zn1	Zn	0.686739	-0.178886	-0.254023
Zn2	Zn	0.686679	-0.253998	-0.178883
Zn3	Zn	0.611622	-0.178886	-0.178901
Zn4	Zn	0.611578	-0.253993	-0.253980
O5	O	0.649154	-0.216441	-0.216447
O6	O	0.749598	-0.188852	-0.244066
O7	O	0.676716	-0.244036	-0.116019
O8	O	0.621630	-0.116019	-0.188892
O9	O	0.749554	-0.244036	-0.188861
O10	O	0.676818	-0.116019	-0.244084
O11	O	0.621572	-0.188852	-0.116032
O12	O	0.548749	-0.188847	-0.188850
O13	O	0.621554	-0.244028	-0.316853
O14	O	0.548716	-0.244028	-0.244010
O15	O	0.676775	-0.188847	-0.316885
O16	O	0.676673	-0.316864	-0.188819
O17	O	0.621497	-0.316861	-0.243993
C18	C	0.532432	-0.216437	-0.216428
C19	C	0.482497	-0.216447	-0.216430
C20	C	0.172874	-0.187750	-0.245235
C21	C	-0.014799	-0.187753	-0.245247
O22	O	-0.039047	-0.163344	-0.269717
N23	N	-0.038288	-0.216441	-0.216464
C24	C	-0.014855	-0.245129	-0.187672
O25	O	-0.039140	-0.269527	-0.163187
C26	C	0.172817	-0.245123	-0.187658
C27	C	0.196303	-0.216436	-0.216447
C28	C	0.196360	-0.159065	-0.274021
C29	C	0.243275	-0.159066	-0.274019
C30	C	0.266705	-0.187752	-0.245231
C31	C	0.243219	-0.216437	-0.216445
C32	C	0.196249	-0.273808	-0.158864
C33	C	0.243170	-0.273803	-0.158862
C34	C	0.266656	-0.245116	-0.187651
C35	C	0.313563	-0.245125	-0.187655
N36	N	0.337052	-0.216437	-0.216439
C37	C	0.313623	-0.187750	-0.245227
C38	C	-0.113386	-0.245130	-0.187683
C39	C	-0.160304	-0.245133	-0.187687
C40	C	-0.160244	-0.187756	-0.245262
C41	C	-0.113326	-0.187756	-0.245259
C42	C	-0.089897	-0.216442	-0.216467
C43	C	0.412148	-0.187755	-0.245221
C44	C	0.459068	-0.187760	-0.245218
C45	C	0.459005	-0.245135	-0.187642
C46	C	0.412089	-0.245132	-0.187647
C47	C	0.388662	-0.216438	-0.216438
O48	O	0.337840	-0.269518	-0.163195
O49	O	0.337915	-0.163349	-0.269702
C50	C	0.125958	-0.187749	-0.245236
C51	C	0.102472	-0.216434	-0.216450
C52	C	0.125902	-0.245120	-0.187662
C53	C	0.055554	-0.216436	-0.216454
C54	C	0.032125	-0.187749	-0.245242
C55	C	0.055614	-0.159061	-0.274026
C56	C	0.102529	-0.159062	-0.274025
C57	C	0.102413	-0.273808	-0.158878
C58	C	0.055498	-0.273805	-0.158883
C59	C	0.032068	-0.245119	-0.187671
C60	C	0.649086	-0.333163	-0.216409
C61	C	0.649098	-0.383098	-0.216408
C62	C	0.677885	-0.692706	-0.245226
C63	C	0.677933	-0.880379	-0.245253
O64	O	0.702342	-0.904614	-0.269728
N65	N	0.649231	-0.903883	-0.216497
C66	C	0.620512	-0.880465	-0.187734
O67	O	0.596096	-0.904763	-0.163279
C68	C	0.620461	-0.692793	-0.187709
C69	C	0.649169	-0.669292	-0.216464
C70	C	0.706590	-0.669205	-0.273979
C71	C	0.706579	-0.622290	-0.273971
C72	C	0.677863	-0.598875	-0.245209
C73	C	0.649158	-0.622377	-0.216456
C74	C	0.591740	-0.669376	-0.158949
C75	C	0.591729	-0.622455	-0.158946
C76	C	0.620437	-0.598954	-0.187701
C77	C	0.620431	-0.552047	-0.187685
N78	N	0.649134	-0.528543	-0.216441
C79	C	0.677850	-0.551957	-0.245203
C80	C	0.620541	-0.978996	-0.187748
C81	C	0.620554	-1.025914	-0.187753
C82	C	0.677975	-1.025824	-0.245274
C83	C	0.677964	-0.978906	-0.245266
C84	C	0.649244	-0.955492	-0.216504
C85	C	0.677826	-0.453432	-0.245183
C86	C	0.677814	-0.406512	-0.245170
C87	C	0.620391	-0.406605	-0.187651
C88	C	0.620404	-0.453521	-0.187662
C89	C	0.649123	-0.476933	-0.216431
O90	O	0.596032	-0.527783	-0.163227
O91	O	0.702255	-0.527652	-0.269662
C92	C	0.677895	-0.739622	-0.245235
C93	C	0.649190	-0.763123	-0.216482
C94	C	0.620474	-0.739709	-0.187720
C95	C	0.649203	-0.810041	-0.216487
C96	C	0.677919	-0.833455	-0.245249
C97	C	0.706622	-0.809951	-0.274006
C98	C	0.706611	-0.763036	-0.273997
C99	C	0.591772	-0.763212	-0.158964
C100	C	0.591785	-0.810128	-0.158974
C101	C	0.620501	-0.833542	-0.187736
C102	C	0.766333	-0.216445	-0.216467
C103	C	0.816267	-0.216446	-0.216475
C104	C	0.649167	-0.216437	-0.333625
C105	C	0.649172	-0.216435	-0.383560
C106	C	0.649235	-0.099262	-0.216495
C107	C	0.649270	-0.049328	-0.216515
C108	C	0.677955	-0.187627	-0.693223
C109	C	0.677978	-0.187589	-0.880896
O110	O	0.702417	-0.163138	-0.905177
N111	N	0.649231	-0.216315	-0.904345
C112	C	0.620475	-0.245050	-0.880873
O113	O	0.596022	-0.269479	-0.905124
C114	C	0.620451	-0.245086	-0.693201
C115	C	0.649202	-0.216361	-0.669754
C116	C	0.706704	-0.158905	-0.669776
C117	C	0.706700	-0.158916	-0.622861
C118	C	0.677947	-0.187650	-0.599392
C119	C	0.649198	-0.216373	-0.622839
C120	C	0.591693	-0.273819	-0.669730
C121	C	0.591689	-0.273824	-0.622809
C122	C	0.620440	-0.245100	-0.599362
C123	C	0.620441	-0.245119	-0.552455
N124	N	0.649188	-0.216393	-0.529005
C125	C	0.677941	-0.187659	-0.552474
C126	C	0.620491	-0.245030	-0.979404
C127	C	0.620497	-0.245022	-1.026322
C128	C	0.677999	-0.187560	-1.026341
C129	C	0.677994	-0.187571	-0.979423
C130	C	0.649237	-0.216304	-0.955955
C131	C	0.677930	-0.187685	-0.453948
C132	C	0.677925	-0.187701	-0.407029
C133	C	0.620421	-0.245161	-0.407013
C134	C	0.620428	-0.245147	-0.453929
C135	C	0.649184	-0.216406	-0.477395
O136	O	0.596011	-0.269553	-0.528144
O137	O	0.702383	-0.163226	-0.528215
C138	C	0.677960	-0.187616	-0.740138
C139	C	0.649211	-0.216338	-0.763585
C140	C	0.620458	-0.245072	-0.740116
C141	C	0.649217	-0.216330	-0.810503
C142	C	0.677970	-0.187596	-0.833972
C143	C	0.706717	-0.158870	-0.810523
C144	C	0.706712	-0.158881	-0.763607
C145	C	0.591711	-0.273798	-0.763566
C146	C	0.591718	-0.273785	-0.810481
C147	C	0.620471	-0.245050	-0.833950
C148	C	0.649168	-0.216412	-0.099725
C149	C	0.649250	-0.216288	-0.049790
H150	H	-0.179329	-0.164398	-0.268702
H151	H	0.729954	-0.603158	-0.297387
H152	H	0.730112	-0.135525	-0.603775
N153	N	0.707312	-0.158335	-0.477913
N154	N	0.735935	-0.174137	-0.504091
H155	H	0.756688	-0.153411	-0.521017
H156	H	0.177289	-0.135702	-0.297464
N157	N	0.591137	-0.274367	-1.050276
N158	N	0.606924	-0.302992	-1.076451
H159	H	0.586187	-0.323716	-1.093368
N160	N	-0.089451	-0.274431	-0.158271
N161	N	-0.063272	-0.258584	-0.129669
H162	H	-0.046370	-0.279278	-0.108897
N163	N	0.736078	-0.129546	-0.693737
N164	N	0.761741	-0.103905	-0.672788
H165	H	0.782490	-0.083169	-0.689707
H166	H	0.701411	-0.164164	-1.045458
N167	N	0.126523	-0.129762	-0.303429
N168	N	0.152703	-0.145608	-0.332027
H169	H	0.169647	-0.124913	-0.352795
H170	H	0.701406	-0.164180	-0.960335
H171	H	0.597020	-0.268541	-0.473020
H172	H	0.701339	-0.164310	-0.387940
N173	N	0.031683	-0.129755	-0.303436
N174	N	0.052653	-0.104142	-0.329138
H175	H	0.035751	-0.083446	-0.349908
N176	N	0.562452	-0.834130	-0.129606
N177	N	0.533816	-0.860322	-0.145392
H178	H	0.513097	-0.877272	-0.124654
H179	H	0.597153	-0.959936	-0.164326
N180	N	0.562333	-0.303146	-0.739598
N181	N	0.520882	-0.300164	-0.744836
H182	H	0.500132	-0.320894	-0.727911
N183	N	0.562391	-0.598533	-0.129571
N184	N	0.533746	-0.572369	-0.145347
H185	H	0.513027	-0.555473	-0.124601
H186	H	-0.094206	-0.164396	-0.268701
H187	H	0.597073	-0.268431	-0.960301
N188	N	0.735940	-0.739041	-0.303372
N189	N	0.761575	-0.759960	-0.329047
H190	H	0.782290	-0.743016	-0.349795
H191	H	-0.179422	-0.268497	-0.164249
H192	H	0.597032	-0.472657	-0.164244
H193	H	0.177135	-0.297168	-0.135421
H194	H	0.568306	-0.297180	-0.829567
H195	H	0.262243	-0.297163	-0.135415
H196	H	0.597012	-0.387534	-0.164232
N197	N	0.388103	-0.274442	-0.158242
N198	N	0.409030	-0.300054	-0.132543
H199	H	0.392093	-0.320753	-0.111772
N200	N	0.562329	-0.303172	-0.693665
N201	N	0.536664	-0.328824	-0.672696
H202	H	0.515925	-0.349559	-0.689600
H203	H	0.701340	-0.959774	-0.268681
N204	N	0.562307	-0.303176	-0.598845
N205	N	0.536640	-0.328817	-0.619789
H206	H	0.515889	-0.349547	-0.602865
N207	N	0.591059	-0.274512	-0.383028
N208	N	0.591062	-0.274514	-0.341138
H209	H	0.570323	-0.295242	-0.324197
N210	N	0.482949	-0.274436	-0.158243
N211	N	0.524840	-0.274429	-0.158248
H212	H	0.541752	-0.295121	-0.137483
H213	H	0.701208	-0.472488	-0.268612
N214	N	0.736086	-0.129538	-0.739668
N215	N	0.761754	-0.103887	-0.760635
H216	H	0.782500	-0.083161	-0.743731
H217	H	0.730130	-0.135475	-0.829639
H218	H	0.036379	-0.297170	-0.135440
H219	H	0.478188	-0.164399	-0.268663
H220	H	0.393080	-0.164389	-0.268665
N221	N	0.735956	-0.833880	-0.303380
N222	N	0.735958	-0.875771	-0.303377
H223	H	0.756672	-0.892673	-0.324122
H224	H	0.262394	-0.135705	-0.297462
N225	N	0.126335	-0.303114	-0.129466
N226	N	0.105352	-0.328723	-0.103770
H227	H	0.122245	-0.349424	-0.082997
H228	H	0.701192	-0.387379	-0.268586
N229	N	0.735926	-0.693110	-0.303367
N230	N	0.761549	-0.672113	-0.329035
H231	H	0.782272	-0.688992	-0.349791
H232	H	0.701358	-1.044896	-0.268692
N233	N	0.591235	-1.049910	-0.158370
N234	N	0.565600	-1.028993	-0.132693
H235	H	0.544891	-1.045938	-0.111940
N236	N	0.562413	-0.693371	-0.129575
N237	N	0.565410	-0.688149	-0.088122
H238	H	0.544694	-0.705094	-0.067377
N239	N	0.562433	-0.739306	-0.129581
N240	N	0.536809	-0.760302	-0.103911
H241	H	0.516088	-0.743420	-0.083156
