data_functionalizedCrystal
_audit_creation_method	'MofGen! by Chris Wilmer'
_symmetry_space_group_name_H-M	'P1'
_symmetry_Int_Tables_number	1
_symmetry_cell_setting	triclinic
loop_
_symmetry_equiv_pos_as_xyz
  x,y,z
_cell_length_a	16.109301
_cell_length_b	23.532407
_cell_length_c	15.186229
_cell_angle_alpha	89.991614
_cell_angle_beta	89.999362
_cell_angle_gamma	83.155079
loop_
_atom_site_label
_atom_site_type_symbol
_atom_site_fract_x
_atom_site_fract_y
_atom_site_fract_z
O1	O	1.102555	0.073202	-0.073182
O2	O	0.860421	0.082312	-0.073197
O3	O	0.988790	-0.005148	-0.073173
O4	O	0.974187	0.160662	-0.073206
O5	O	0.988781	-0.005149	0.073284
O6	O	0.860413	0.082311	0.073260
O7	O	1.102547	0.073201	0.073275
Zn8	Zn	0.981478	0.077755	0.096521
Zn9	Zn	0.981490	0.077757	-0.096443
O10	O	0.974178	0.160660	0.073251
C11	C	0.829445	0.081942	0.000030
C12	C	0.737159	0.080836	0.000025
C13	C	0.988414	-0.026366	0.000058
C14	C	0.987296	-0.089587	0.000064
C15	C	0.514498	0.130160	0.000025
C16	C	0.427786	0.129116	0.000031
C17	C	0.448476	0.025348	0.000048
C18	C	0.535187	0.026393	0.000048
C19	C	0.568195	0.078801	0.000032
C20	C	0.394773	0.076712	0.000038
C21	C	0.300755	0.075580	0.000044
C22	C	0.662218	0.079933	0.000028
C23	C	1.056249	-0.488436	0.000021
C24	C	1.055210	-0.547840	0.000014
O25	O	1.119130	-0.584349	-0.000015
N26	N	0.978895	-0.570748	0.000010
C27	C	0.903614	-0.534248	0.000003
O28	O	0.838607	-0.559187	-0.000002
C29	C	0.904654	-0.474845	0.000004
C30	C	0.980973	-0.451941	0.000017
C31	C	1.132562	-0.465531	0.000033
C32	C	1.133601	-0.406131	0.000041
C33	C	1.058325	-0.369636	0.000037
C34	C	0.982012	-0.392541	0.000025
C35	C	0.829373	-0.438346	-0.000009
C36	C	0.830419	-0.378940	-0.000009
C37	C	0.906739	-0.356036	0.000004
C38	C	0.907774	-0.296645	0.000030
N39	N	0.984089	-0.273738	0.000034
C40	C	1.059365	-0.310233	0.000038
C41	C	0.901437	-0.658998	0.000001
C42	C	0.900396	-0.718400	0.000007
C43	C	1.051993	-0.731988	0.000016
C44	C	1.053032	-0.672585	0.000016
C45	C	0.977752	-0.636091	0.000005
C46	C	1.061539	-0.185488	0.000056
C47	C	1.062571	-0.126082	0.000068
C48	C	0.910975	-0.112499	0.000055
C49	C	0.909943	-0.171900	0.000047
C50	C	0.985232	-0.208394	0.000045
O51	O	0.843888	-0.260102	0.000055
O52	O	1.124361	-0.285285	0.000031
C53	C	1.133523	0.073570	0.000046
C54	C	1.225809	0.074677	0.000046
C55	C	0.974554	0.181878	0.000018
C56	C	0.975672	0.245100	0.000006
N57	N	0.981477	0.077754	0.228214
N58	N	0.981498	0.077754	-0.228136
C59	C	1.038337	0.039040	0.453947
C60	C	1.038340	0.039039	0.546137
C61	C	0.924631	0.116470	0.546124
C62	C	0.924625	0.116468	0.453936
C63	C	0.981483	0.077754	0.407850
C64	C	0.981492	0.077754	0.592228
C65	C	0.981494	0.077753	0.692184
C66	C	0.981480	0.077754	0.307888
H67	H	0.384069	0.170939	0.000027
C68	C	0.680466	-0.371480	-0.000028
C69	C	0.747666	-0.338825	-0.000018
H70	H	0.629380	-0.346715	-0.000026
H71	H	0.683222	-0.394923	-0.051100
H72	H	0.683217	-0.394940	0.051046
H73	H	0.744918	-0.315368	-0.051095
H74	H	0.744908	-0.315372	0.051060
C75	C	1.148350	-0.260155	-0.075234
C76	C	1.144298	-0.225595	0.000057
H77	H	1.199444	-0.284913	-0.075230
H78	H	1.102764	-0.282304	-0.075236
H79	H	1.145604	-0.236687	-0.126299
H80	H	1.147038	-0.249064	0.051123
H81	H	1.189896	-0.203445	0.000068
H82	H	1.084635	0.007514	0.583666
H83	H	0.840130	-0.629287	-0.000001
H84	H	0.878323	0.147994	0.416402
C85	C	0.760201	-0.152499	0.000030
C86	C	0.826052	-0.197080	0.000032
H87	H	0.708411	-0.168042	0.000007
H88	H	0.763751	-0.129626	0.051109
H89	H	0.763775	-0.129600	-0.051037
H90	H	0.822481	-0.219976	0.051103
H91	H	0.822500	-0.219963	-0.051052
C92	C	0.638232	0.177839	0.000006
C93	C	0.550783	0.187765	0.000011
H94	H	0.660629	0.213404	-0.000007
H95	H	0.656689	0.156696	0.051080
H96	H	0.656684	0.156693	-0.051067
H97	H	0.532331	0.208908	0.051088
H98	H	0.532319	0.208917	-0.051068
H99	H	0.578910	-0.015433	0.000057
C100	C	0.324742	-0.022329	0.000046
C101	C	0.412190	-0.032256	0.000054
H102	H	0.302343	-0.057893	0.000042
H103	H	0.306284	-0.001189	0.051113
H104	H	0.306291	-0.001179	-0.051034
H105	H	0.430641	-0.053403	0.051137
H106	H	0.430655	-0.053405	-0.051018
H107	H	0.767225	-0.456984	-0.000025
H108	H	1.124722	-0.107437	0.000081
C109	C	0.845273	-0.015401	0.000047
C110	C	0.828235	-0.072376	0.000045
H111	H	0.794191	0.009369	0.000031
H112	H	0.876573	-0.008469	0.051123
H113	H	0.876598	-0.008463	-0.051023
H114	H	0.796914	-0.079316	0.051119
H115	H	0.796921	-0.079311	-0.051037
H116	H	1.084633	0.007515	0.416426
H117	H	1.195748	-0.387488	0.000048
C118	C	1.198308	-0.562623	0.000032
C119	C	1.215315	-0.505641	0.000036
H120	H	1.249401	-0.587381	0.000032
H121	H	1.166999	-0.569572	0.051098
H122	H	1.167001	-0.569561	-0.051048
H123	H	1.246616	-0.498702	0.051119
H124	H	1.246637	-0.498689	-0.051036
H125	H	0.878340	0.147991	0.583657
H126	H	1.113286	-0.761714	0.000015
C127	C	1.202771	-0.691997	0.000019
C128	C	1.136925	-0.647412	0.000017
H129	H	1.254564	-0.676457	0.000011
H130	H	1.199209	-0.714883	0.051091
H131	H	1.199202	-0.714881	-0.051055
H132	H	1.140490	-0.624530	0.051094
H133	H	1.140488	-0.624516	-0.051061
H134	H	0.838249	-0.737043	0.000011
