data_functionalizedCrystal
_audit_creation_method	'MofGen! by Chris Wilmer'
_symmetry_space_group_name_H-M	'P1'
_symmetry_Int_Tables_number	1
_symmetry_cell_setting	triclinic
loop_
_symmetry_equiv_pos_as_xyz
  x,y,z
_cell_length_a	31.640172
_cell_length_b	23.096457
_cell_length_c	23.096457
_cell_angle_alpha	60.008701
_cell_angle_beta	90.017156
_cell_angle_gamma	59.998714
loop_
_atom_site_label
_atom_site_type_symbol
_atom_site_fract_x
_atom_site_fract_y
_atom_site_fract_z
Zr1	Zr	0.407181	0.633660	-0.075881
O2	O	0.339677	0.754459	-0.168338
O3	O	0.427872	0.512870	-0.047541
O4	O	0.427854	0.633658	-0.168327
O5	O	0.339712	0.633670	0.047730
O6	O	0.497411	0.633646	-0.168314
O7	O	0.339696	0.633671	-0.047552
O8	O	0.497444	0.417579	0.047749
O9	O	0.339679	0.849737	-0.168334
O10	O	0.488609	0.562541	-0.035441
O11	O	0.436711	0.562548	0.035657
O12	O	0.436689	0.704760	-0.106552
O13	O	0.384792	0.704768	-0.035454
Zr14	Zr	0.518142	0.633638	0.076103
Zr15	Zr	0.518116	0.633641	-0.075861
Zr16	Zr	0.407207	0.633658	0.076083
Zr17	Zr	0.407183	0.785617	-0.075874
Zr18	Zr	0.518140	0.481681	0.076097
O19	O	0.497450	0.754428	0.047764
O20	O	0.497413	0.754432	-0.168309
O21	O	0.339715	0.754456	0.047735
O22	O	0.585646	0.512839	0.168560
O23	O	0.585608	0.512843	-0.047512
O24	O	0.427910	0.512867	0.168532
O25	O	0.585611	0.633629	-0.047507
O26	O	0.497469	0.633640	0.168549
O27	O	0.427912	0.633652	0.168537
O28	O	0.585627	0.633627	0.047775
O29	O	0.427858	0.849722	-0.168318
O30	O	0.497465	0.417577	0.168540
O31	O	0.585644	0.417561	0.168556
O32	O	0.585623	0.417563	0.047766
O33	O	0.339700	0.849735	-0.047543
O34	O	0.427879	0.849720	-0.047527
O35	O	0.488633	0.562538	0.106775
O36	O	0.540531	0.562530	0.035676
O37	O	0.488611	0.704750	-0.035435
O38	O	0.436714	0.704758	0.035663
C39	C	0.462658	0.443574	0.000103
C40	C	0.462657	0.379064	0.000100
C41	C	0.323898	0.633673	0.000086
C42	C	0.276803	0.633681	0.000077
C43	C	0.489743	0.348759	-0.037015
C44	C	0.489748	0.288137	-0.037009
C45	C	0.462657	0.257833	0.000102
C46	C	0.435569	0.288142	0.037226
C47	C	0.435569	0.348758	0.037225
N48	N	0.418559	0.195445	-0.005052
N49	N	0.418560	0.137865	-0.005055
C50	C	0.462656	0.075201	0.000109
N51	N	0.506750	0.072301	0.005263
N52	N	0.506748	0.129890	0.005262
C53	C	0.462654	0.192106	0.000108
C54	C	0.489751	-0.020838	-0.037002
C55	C	0.489757	-0.081465	-0.036991
C56	C	0.435573	-0.081453	0.037239
C57	C	0.435572	-0.020832	0.037233
C58	C	0.462659	0.009474	0.000109
C59	C	0.011898	0.559404	0.037245
C60	C	-0.165087	0.559390	0.037259
O61	O	-0.164924	0.496253	0.068853
N62	N	-0.214318	0.633627	0.000139
C63	C	-0.219302	0.707872	-0.036984
O64	O	-0.265237	0.771015	-0.068551
C65	C	-0.042317	0.707886	-0.036994
C66	C	0.006913	0.633644	0.000123
C67	C	0.061127	0.485169	0.074359
C68	C	0.105370	0.485173	0.074352
C69	C	0.100385	0.559413	0.037231
C70	C	0.051157	0.633648	0.000116
C71	C	-0.047302	0.782131	-0.074112
C72	C	-0.003050	0.782127	-0.074109
C73	C	0.046180	0.707886	-0.036992
C74	C	0.090415	0.707893	-0.037012
N75	N	0.139646	0.633656	0.000108
C76	C	0.144631	0.559416	0.037230
C77	C	-0.312219	0.707860	-0.036978
C78	C	-0.356465	0.707857	-0.036976
C79	C	-0.302247	0.559374	0.037268
C80	C	-0.258000	0.559378	0.037262
C81	C	-0.262988	0.633623	0.000143
C82	C	0.237543	0.559431	0.037212
C83	C	0.281788	0.559441	0.037199
C84	C	0.227566	0.707924	-0.037042
C85	C	0.183325	0.707913	-0.037033
C86	C	0.188317	0.633660	0.000099
O87	O	0.090292	0.770996	-0.068584
O88	O	0.190570	0.496283	0.068805
C89	C	-0.032345	0.559400	0.037252
C90	C	-0.081573	0.633636	0.000137
C91	C	-0.086558	0.707875	-0.036984
C92	C	-0.125819	0.633632	0.000139
C93	C	-0.120834	0.559393	0.037260
C94	C	-0.071603	0.485156	0.074381
C95	C	-0.027360	0.485160	0.074374
C96	C	-0.135789	0.782112	-0.074104
C97	C	-0.180031	0.782102	-0.074095
C98	C	-0.175046	0.707862	-0.036973
C99	C	0.601425	0.633625	0.000137
C100	C	0.648520	0.633617	0.000145
C101	C	0.462628	0.633652	-0.189972
C102	C	0.462617	0.633654	-0.254485
C103	C	0.462665	0.823725	0.000119
C104	C	0.462666	0.888235	0.000122
C105	C	0.435519	0.707889	-0.321908
C106	C	0.435532	0.707890	-0.382524
C107	C	0.462637	0.633652	-0.375714
C108	C	0.489741	0.559407	-0.308278
C109	C	0.489732	0.559408	-0.247664
N110	N	0.458896	0.578396	-0.443272
N111	N	0.458903	0.578400	-0.500856
C112	C	0.462668	0.633644	-0.558339
N113	N	0.466418	0.688896	-0.556070
N114	N	0.466408	0.688895	-0.498482
C115	C	0.462650	0.633642	-0.441436
C116	C	0.435583	0.707886	-0.691492
C117	C	0.435600	0.707884	-0.752108
C118	C	0.489806	0.559399	-0.677860
C119	C	0.489792	0.559403	-0.617246
C120	C	0.462678	0.633649	-0.624067
C121	C	0.462694	0.633646	0.190195
C122	C	0.462706	0.633645	0.254707
C123	C	0.601421	0.443550	0.000129
C124	C	0.648515	0.379032	0.000134
C125	C	0.462691	0.443571	0.190187
C126	C	0.462701	0.379060	0.254697
C127	C	0.601454	0.443547	0.190212
C128	C	0.648559	0.379028	0.254731
C129	C	0.323869	0.823752	-0.189990
C130	C	0.276764	0.888271	-0.254508
C131	C	0.323902	0.823749	0.000094
C132	C	0.276808	0.888267	0.000088
C133	C	0.462632	0.823728	-0.189964
C134	C	0.462622	0.888239	-0.254474
C135	C	0.643528	0.348739	-0.036992
C136	C	0.687773	0.288126	-0.037000
C137	C	0.737005	0.257803	0.000122
C138	C	0.741991	0.288102	0.037249
C139	C	0.697746	0.348718	0.037253
C140	C	0.489808	0.348759	0.322120
C141	C	0.489816	0.288153	0.382740
C142	C	0.462718	0.257844	0.375934
C143	C	0.435608	0.288150	0.308504
C144	C	0.435598	0.348759	0.247886
C145	C	0.697775	0.348725	0.247916
C146	C	0.742039	0.288111	0.308533
C147	C	0.737087	0.257796	0.375962
C148	C	0.687866	0.288105	0.382775
C149	C	0.643603	0.348722	0.322159
C150	C	0.227548	0.918581	-0.247694
C151	C	0.183284	0.979214	-0.308310
C152	C	0.188236	1.009532	-0.375740
C153	C	0.237457	0.979219	-0.382552
C154	C	0.281720	0.918591	-0.321937
C155	C	0.281795	0.918566	0.037208
C156	C	0.237549	0.979196	0.037200
C157	C	0.188318	1.009521	0.000076
C158	C	0.183332	0.979219	-0.037049
C159	C	0.227576	0.918595	-0.037044
C160	C	0.489725	0.918529	-0.247646
C161	C	0.489725	0.979136	-0.308254
C162	C	0.462620	1.009456	-0.375690
C163	C	0.435517	0.979160	-0.382516
C164	C	0.435519	0.918550	-0.321909
H165	H	0.511801	0.373430	-0.067242
H166	H	0.143211	1.003885	-0.302749
H167	H	0.511797	0.893852	-0.192742
H168	H	0.152190	1.058898	-0.425091
C169	C	-0.101446	0.863804	-0.114927
C170	C	-0.117742	0.925077	-0.195553
C171	C	-0.171886	1.006759	-0.236365
C172	C	-0.209734	1.027168	-0.196551
C173	C	-0.193440	0.965893	-0.115920
C174	C	-0.139295	0.884212	-0.075108
H175	H	-0.089723	0.909971	-0.225030
H176	H	-0.183948	1.052118	-0.296053
H177	H	-0.249815	1.087633	-0.226762
H178	H	-0.221458	0.981000	-0.086443
H179	H	-0.127233	0.838852	-0.015420
C180	C	0.242899	1.012570	-0.456728
C181	C	0.194207	1.079253	-0.523397
C182	C	0.199647	1.112602	-0.597574
C183	C	0.253780	1.079268	-0.605083
C184	C	0.302477	1.012582	-0.538413
C185	C	0.297036	0.979233	-0.464235
H186	H	0.154131	1.103931	-0.517840
H187	H	0.163599	1.161968	-0.646928
H188	H	0.257808	1.103956	-0.659994
H189	H	0.342553	0.987903	-0.543969
H190	H	0.333084	0.929867	-0.414881
C191	C	-0.066124	0.403490	0.115216
C192	C	-0.037668	0.342243	0.195845
C193	C	-0.032193	0.260582	0.236682
C194	C	-0.055174	0.240168	0.196888
C195	C	-0.083632	0.301417	0.116254
C196	C	-0.089107	0.383078	0.075418
H197	H	-0.020654	0.357353	0.225307
H198	H	-0.011126	0.215242	0.296373
H199	H	-0.051121	0.179718	0.227118
H200	H	-0.100646	0.286307	0.086793
H201	H	-0.110174	0.428418	0.015727
C202	C	0.519557	0.477743	-0.300783
C203	C	0.549366	0.396082	-0.226614
C204	C	0.579185	0.314415	-0.219116
C205	C	0.579194	0.314410	-0.285787
C206	C	0.549383	0.396075	-0.359962
C207	C	0.519565	0.477741	-0.367460
H208	H	0.549360	0.396083	-0.177255
H209	H	0.601252	0.253962	-0.164206
H210	H	0.601267	0.253956	-0.280236
H211	H	0.549389	0.396074	-0.409320
H212	H	0.497497	0.538195	-0.422369
C213	C	0.243042	1.012513	0.078045
C214	C	0.194380	1.079200	0.078047
C215	C	0.199874	1.112514	0.118893
C216	C	0.254030	1.079141	0.159738
C217	C	0.302695	1.012450	0.159738
C218	C	0.297201	0.979136	0.118892
H219	H	0.154288	1.103908	0.047809
H220	H	0.163849	1.161883	0.118892
H221	H	0.258097	1.103802	0.189975
H222	H	0.342788	0.987742	0.189975
H223	H	0.333227	0.929767	0.118892
C224	C	0.139651	1.076204	0.000081
C225	C	0.130221	1.159539	-0.029499
C226	C	0.081557	1.226218	-0.029488
C227	C	0.042322	1.209562	0.000103
C228	C	0.051751	1.126223	0.029686
C229	C	0.100415	1.059544	0.029675
H230	H	0.159266	1.171872	-0.051407
H231	H	0.074577	1.287911	-0.051388
H232	H	0.006298	1.258922	0.000111
H233	H	0.022706	1.113890	0.051593
H234	H	0.107394	0.997851	0.051574
H235	H	0.603531	0.373387	0.327717
H236	H	0.773028	0.208444	0.000113
H237	H	0.143241	1.003919	-0.067274
C238	C	0.405699	1.012524	-0.456700
C239	C	0.434743	1.004197	-0.508577
C240	C	0.404923	1.037569	-0.582762
C241	C	0.346058	1.079267	-0.605071
C242	C	0.317011	1.087596	-0.553193
C243	C	0.346831	1.054224	-0.479007
H244	H	0.478321	0.973328	-0.492064
H245	H	0.426426	1.031403	-0.621166
H246	H	0.323983	1.103971	-0.659987
H247	H	0.273433	1.118466	-0.569706
H248	H	0.325328	1.060390	-0.440604
H249	H	0.603445	0.373427	-0.067230
H250	H	0.511809	0.003836	-0.067228
H251	H	0.511817	-0.106144	-0.067212
C252	C	-0.296768	0.477709	0.078107
C253	C	-0.345440	0.477715	0.078108
C254	C	-0.339965	0.396054	0.118949
C255	C	-0.285818	0.314387	0.159790
C256	C	-0.237141	0.314377	0.159791
C257	C	-0.242616	0.396038	0.118949
H258	H	-0.385527	0.538173	0.047874
H259	H	-0.375999	0.396061	0.118949
H260	H	-0.281765	0.253937	0.190024
H261	H	-0.197055	0.253920	0.190025
H262	H	-0.206583	0.396031	0.118950
C263	C	0.682427	0.254744	0.456952
C264	C	0.654001	0.313060	0.479266
C265	C	0.648564	0.279690	0.553446
C266	C	0.671554	0.188005	0.605312
C267	C	0.699982	0.129684	0.583000
C268	C	0.705419	0.163053	0.508820
H269	H	0.636980	0.380936	0.440870
H270	H	0.627520	0.322863	0.569962
H271	H	0.667530	0.163302	0.660225
H272	H	0.717003	0.061808	0.621396
H273	H	0.726463	0.119880	0.492304
H274	H	0.413515	-0.106125	0.067456
H275	H	0.223509	0.893927	-0.067270
C276	C	0.796177	0.254774	0.301026
C277	C	0.834057	0.163095	0.332491
C278	C	0.888193	0.129760	0.324982
C279	C	0.904448	0.188105	0.286009
C280	C	0.866567	0.279790	0.254542
C281	C	0.812431	0.313124	0.262051
H282	H	0.822025	0.119900	0.361343
H283	H	0.916235	0.061889	0.348276
H284	H	0.944523	0.163429	0.280451
H285	H	0.878600	0.322985	0.225690
H286	H	0.784389	0.380996	0.238757
H287	H	0.413546	0.263463	0.302973
H288	H	0.773133	0.208438	0.425313
H289	H	0.223506	0.893900	-0.192795
C290	C	0.519536	1.012459	-0.300734
C291	C	0.549340	0.979116	-0.226555
C292	C	0.579149	1.012438	-0.219032
C293	C	0.579154	1.079105	-0.285690
C294	C	0.549349	1.112452	-0.359875
C295	C	0.519539	1.079130	-0.367397
H296	H	0.549338	0.929762	-0.177206
H297	H	0.601214	0.987752	-0.164116
H298	H	0.601221	1.103772	-0.280122
H299	H	0.549351	1.161806	-0.409223
H300	H	0.497475	1.103816	-0.422314
H301	H	0.683704	0.263464	-0.067234
C302	C	0.405766	0.789551	-0.698986
C303	C	0.419918	0.850786	-0.737909
C304	C	0.390102	0.932451	-0.745404
C305	C	0.346134	0.952881	-0.713976
C306	C	0.331981	0.891644	-0.675050
C307	C	0.361796	0.809979	-0.667555
H308	H	0.452467	0.835665	-0.761177
H309	H	0.400580	0.977783	-0.774220
H310	H	0.324063	1.013334	-0.719524
H311	H	0.299431	0.906766	-0.651783
H312	H	0.351318	0.764648	-0.638739
C313	C	-0.317713	0.789538	-0.077819
C314	C	-0.346175	0.850777	-0.158448
C315	C	-0.351672	0.932455	-0.199293
C316	C	-0.328708	0.952895	-0.159509
C317	C	-0.300244	0.891654	-0.078876
C318	C	-0.294747	0.809976	-0.038031
H319	H	-0.363176	0.835648	-0.187902
H320	H	-0.372743	0.977789	-0.258983
H321	H	-0.332777	1.013358	-0.189745
H322	H	-0.283243	0.906783	-0.049422
H323	H	-0.273676	0.764642	0.021659
C324	C	0.519629	0.477734	-0.670359
C325	C	0.519647	0.477728	-0.737030
C326	C	0.549477	0.396061	-0.729531
C327	C	0.579288	0.314400	-0.655361
C328	C	0.579271	0.314403	-0.588685
C329	C	0.549442	0.396070	-0.596184
H330	H	0.497578	0.538181	-0.791939
H331	H	0.549489	0.396059	-0.778889
H332	H	0.601370	0.253945	-0.649810
H333	H	0.601341	0.253950	-0.533775
H334	H	0.549430	0.396072	-0.546825
H335	H	0.462731	0.208492	0.425299
C336	C	0.519596	0.477741	-0.543076
C337	C	0.563549	0.457313	-0.491165
C338	C	0.593356	0.375646	-0.416994
C339	C	0.579211	0.314407	-0.394733
C340	C	0.535256	0.334833	-0.446645
C341	C	0.505449	0.416500	-0.520817
H342	H	0.574023	0.502647	-0.507643
H343	H	0.625895	0.360525	-0.378565
H344	H	0.601276	0.253952	-0.339827
H345	H	0.524782	0.289500	-0.430167
H346	H	0.472910	0.431621	-0.559245
H347	H	0.511806	0.263457	-0.067234
C348	C	0.796150	0.254730	0.078089
C349	C	0.834020	0.263043	0.038303
C350	C	0.888180	0.229663	0.079149
C351	C	0.904469	0.187970	0.159781
C352	C	0.866598	0.179655	0.199572
C353	C	0.812438	0.213035	0.158726
H354	H	0.821963	0.293909	-0.021390
H355	H	0.916215	0.235819	0.049692
H356	H	0.944562	0.163260	0.190017
H357	H	0.878656	0.148790	0.259265
H358	H	0.784403	0.206880	0.188182
H359	H	0.701814	0.373375	0.067490
C360	C	0.519644	0.254819	0.456907
C361	C	0.578507	0.213138	0.479192
C362	C	0.608335	0.179807	0.553356
C363	C	0.579300	0.188156	0.605235
C364	C	0.520434	0.229840	0.582951
C365	C	0.490606	0.263171	0.508787
H366	H	0.600003	0.206955	0.440787
H367	H	0.651911	0.148950	0.569852
H368	H	0.601380	0.163482	0.660136
H369	H	0.498937	0.236022	0.621356
H370	H	0.447029	0.294028	0.492291
H371	H	0.012723	0.424705	0.104599
H372	H	0.413512	0.263465	0.067443
H373	H	0.511874	0.373430	0.327675
H374	H	0.413513	0.003845	0.067454
H375	H	0.321792	0.893913	-0.327494
H376	H	0.413447	0.893895	-0.327478
H377	H	0.413511	0.373433	0.067449
H378	H	0.413525	0.373422	0.192989
H379	H	0.701817	0.373398	0.193017
C380	C	0.335943	0.477771	0.078033
C381	C	0.341422	0.396110	0.118869
C382	C	0.395574	0.314443	0.159703
C383	C	0.444246	0.314436	0.159700
C384	C	0.438769	0.396100	0.118862
C385	C	0.384617	0.477767	0.078029
H386	H	0.305390	0.396113	0.118872
H387	H	0.399628	0.253990	0.189934
H388	H	0.484333	0.253981	0.189928
H389	H	0.474801	0.396098	0.118859
H390	H	0.380563	0.538220	0.047798
H391	H	0.413534	0.768338	-0.807008
C392	C	0.243038	0.477754	0.078050
C393	C	0.271473	0.416519	0.058656
C394	C	0.276966	0.334844	0.099488
C395	C	0.254025	0.314403	0.159713
C396	C	0.225588	0.375639	0.179109
C397	C	0.220094	0.457314	0.138277
H398	H	0.288457	0.431650	0.014072
H399	H	0.298017	0.289513	0.085129
H400	H	0.258092	0.253941	0.189939
H401	H	0.208604	0.360508	0.223694
H402	H	0.199043	0.502645	0.152636
C403	C	0.066621	0.403494	0.115199
C404	C	0.095063	0.342254	0.095814
C405	C	0.100564	0.260573	0.136653
C406	C	0.077623	0.240131	0.196878
C407	C	0.049179	0.301373	0.216267
C408	C	0.043678	0.383054	0.175427
H409	H	0.112047	0.357384	0.051229
H410	H	0.121620	0.215238	0.122300
H411	H	0.081695	0.179666	0.227110
H412	H	0.032195	0.286243	0.260852
H413	H	0.022622	0.428390	0.189781
C414	C	-0.008538	0.863800	-0.114945
C415	C	-0.037001	0.925049	-0.195573
C416	C	-0.042489	1.006721	-0.236409
C417	C	-0.019515	1.027143	-0.196617
C418	C	0.008950	0.965892	-0.115985
C419	C	0.014438	0.884221	-0.075148
H420	H	-0.054010	0.909933	-0.225033
H421	H	-0.063561	1.052063	-0.296099
H422	H	-0.023578	1.087601	-0.226847
H423	H	0.025958	0.981008	-0.086524
H424	H	0.035509	0.838879	-0.015459
H425	H	0.145453	0.424718	0.104574
H426	H	-0.217917	0.498924	0.067492
H427	H	0.321878	0.893880	0.067443
H428	H	0.462622	1.058808	-0.425034
H429	H	0.143238	0.768367	-0.067266
C430	C	0.222089	0.789585	-0.077873
C431	C	0.167941	0.871251	-0.118701
C432	C	0.162465	0.952913	-0.159528
C433	C	0.211137	0.952908	-0.159525
C434	C	0.265289	0.871239	-0.118695
C435	C	0.270765	0.789577	-0.077869
H436	H	0.131908	0.871258	-0.118705
H437	H	0.122378	1.013370	-0.189753
H438	H	0.207083	1.013359	-0.189747
H439	H	0.301322	0.871232	-0.118691
H440	H	0.310852	0.729120	-0.047643
C441	C	0.405714	0.789550	-0.456704
C442	C	0.434760	0.809973	-0.508569
C443	C	0.404940	0.891631	-0.582747
C444	C	0.346073	0.952866	-0.605059
C445	C	0.317024	0.932444	-0.553193
C446	C	0.346844	0.850786	-0.479015
H447	H	0.478340	0.764642	-0.492053
H448	H	0.426445	0.906748	-0.621142
H449	H	0.323999	1.013314	-0.659970
H450	H	0.273444	0.977775	-0.569709
H451	H	0.325339	0.835669	-0.440620
H452	H	-0.396548	0.768312	-0.067210
H453	H	-0.220115	0.842563	-0.104327
H454	H	-0.139856	0.842569	-0.104335
H455	H	0.511799	0.498955	-0.192763
H456	H	0.413442	0.768346	-0.327468
