data_functionalizedCrystal
_audit_creation_method	'MofGen! by Chris Wilmer'
_symmetry_space_group_name_H-M	'P1'
_symmetry_Int_Tables_number	1
_symmetry_cell_setting	triclinic
loop_
_symmetry_equiv_pos_as_xyz
  x,y,z
_cell_length_a	29.839134
_cell_length_b	21.295417
_cell_length_c	29.839126
_cell_angle_alpha	89.976722
_cell_angle_beta	90.035740
_cell_angle_gamma	89.974633
loop_
_atom_site_label
_atom_site_type_symbol
_atom_site_fract_x
_atom_site_fract_y
_atom_site_fract_z
Zn1	Zn	0.686815	0.250757	0.254121
Zn2	Zn	0.686743	0.356012	0.178989
Zn3	Zn	0.611679	0.250751	0.178991
Zn4	Zn	0.611660	0.355983	0.254078
O5	O	0.649224	0.303376	0.216545
O6	O	0.749672	0.264734	0.244172
O7	O	0.676764	0.342058	0.116122
O8	O	0.621685	0.162662	0.188976
O9	O	0.749620	0.342064	0.188973
O10	O	0.676886	0.162667	0.244174
O11	O	0.621615	0.264724	0.116123
O12	O	0.548810	0.264696	0.188933
O13	O	0.621651	0.342015	0.316951
O14	O	0.548795	0.342009	0.244100
O15	O	0.676867	0.264706	0.316982
O16	O	0.676745	0.444097	0.188931
O17	O	0.621581	0.444076	0.244098
C18	C	0.649165	0.466927	0.216520
C19	C	0.649181	0.536895	0.216524
C20	C	0.532502	0.303349	0.216512
C21	C	0.482567	0.303353	0.216509
C22	C	0.649265	0.303358	0.333723
C23	C	0.649282	0.303350	0.383658
C24	C	0.172926	0.343692	0.245235
C25	C	-0.014747	0.343710	0.245254
O26	O	-0.039011	0.377979	0.269659
N27	N	-0.038218	0.303399	0.216579
C28	C	-0.014767	0.263077	0.187898
O29	O	-0.039037	0.228786	0.163511
C30	C	0.172905	0.263057	0.187880
C31	C	0.196373	0.303375	0.216555
C32	C	0.196394	0.384007	0.273907
C33	C	0.243309	0.384004	0.273900
C34	C	0.266757	0.343687	0.245220
C35	C	0.243289	0.303373	0.216548
C36	C	0.196355	0.222733	0.159202
C37	C	0.243276	0.222730	0.159201
C38	C	0.266744	0.263048	0.187876
C39	C	0.313651	0.263053	0.187861
N40	N	0.337122	0.303365	0.216537
C41	C	0.313674	0.343682	0.245217
C42	C	-0.113298	0.263092	0.187908
C43	C	-0.160216	0.263098	0.187912
C44	C	-0.160193	0.343730	0.245269
C45	C	-0.113274	0.343727	0.245263
C46	C	-0.089827	0.303403	0.216584
C47	C	0.412200	0.343674	0.245200
C48	C	0.459120	0.343670	0.245189
C49	C	0.459093	0.263036	0.187833
C50	C	0.412177	0.263042	0.187842
C51	C	0.388732	0.303363	0.216529
O52	O	0.337943	0.228798	0.163473
O53	O	0.337952	0.377958	0.269607
C54	C	0.126010	0.343695	0.245242
C55	C	0.102542	0.303380	0.216569
C56	C	0.125990	0.263063	0.187889
C57	C	0.055624	0.303386	0.216573
C58	C	0.032177	0.343703	0.245252
C59	C	0.055647	0.384014	0.273928
C60	C	0.102563	0.384012	0.273921
C61	C	0.102519	0.222752	0.159213
C62	C	0.055604	0.222758	0.159222
C63	C	0.032156	0.263075	0.187902
C64	C	0.766403	0.303403	0.216577
C65	C	0.816337	0.303415	0.216591
C66	C	0.649296	0.139185	0.216580
C67	C	0.649326	0.069217	0.216594
C68	C	0.677930	0.569752	0.187828
C69	C	0.677951	0.635495	0.187838
C70	C	0.649215	0.668378	0.216540
C71	C	0.620464	0.635513	0.245241
C72	C	0.620447	0.569772	0.245234
N73	N	0.609915	0.771639	0.219954
N74	N	0.609933	0.834091	0.219958
C75	C	0.649266	0.866453	0.216565
N76	N	0.688581	0.834004	0.213159
N77	N	0.688563	0.771546	0.213152
C78	C	0.649231	0.739663	0.216551
C79	C	0.678040	0.970595	0.187879
C80	C	0.678062	1.036339	0.187892
C81	C	0.620571	1.036356	0.245293
C82	C	0.620553	0.970613	0.245282
C83	C	0.649287	0.937737	0.216573
C84	C	0.649210	0.303348	0.099822
C85	C	0.649280	0.303179	0.049888
C86	C	0.677992	0.343534	0.740247
C87	C	0.677992	0.343578	0.552574
O88	O	0.702398	0.377843	0.528312
N89	N	0.649280	0.303320	0.529103
C90	C	0.620563	0.263050	0.552552
O91	O	0.596137	0.228814	0.528282
C92	C	0.620560	0.263010	0.740225
C93	C	0.649278	0.303267	0.763694
C94	C	0.706707	0.383788	0.763716
C95	C	0.706708	0.383774	0.810632
C96	C	0.677994	0.343507	0.834078
C97	C	0.649279	0.303253	0.810609
C98	C	0.591841	0.222745	0.763673
C99	C	0.591842	0.222739	0.810595
C100	C	0.620560	0.262996	0.834064
C101	C	0.620566	0.262972	0.880971
N102	N	0.649279	0.303230	0.904443
C103	C	0.677993	0.343498	0.880996
C104	C	0.620567	0.263073	0.454022
C105	C	0.620568	0.263083	0.407104
C106	C	0.677997	0.343611	0.407129
C107	C	0.677998	0.343599	0.454048
C108	C	0.649279	0.303332	0.477493
C109	C	0.677994	0.343465	0.979522
C110	C	0.677994	0.343446	1.026442
C111	C	0.620563	0.262920	1.026413
C112	C	0.620564	0.262937	0.979497
C113	C	0.649281	0.303214	0.956053
O114	O	0.596170	0.228730	0.905262
O115	O	0.702408	0.377739	0.905274
C116	C	0.677990	0.343548	0.693332
C117	C	0.649275	0.303294	0.669863
C118	C	0.620561	0.263027	0.693309
C119	C	0.649276	0.303303	0.622945
C120	C	0.677990	0.343571	0.599499
C121	C	0.706703	0.383829	0.622970
C122	C	0.706704	0.383816	0.669886
C123	C	0.591849	0.222768	0.669838
C124	C	0.591850	0.222785	0.622922
C125	C	0.620564	0.263052	0.599476
H126	H	0.478225	0.376504	0.268539
H127	H	0.262364	0.189889	0.135849
O128	O	0.386861	0.219559	0.156915
H129	H	0.411049	0.191522	0.136972
O130	O	0.560881	0.179326	0.695121
H131	H	0.538006	0.207480	0.716478
O132	O	0.127873	0.427492	0.304853
H133	H	0.103680	0.455518	0.324798
O134	O	-0.185530	0.219622	0.156980
H135	H	-0.176509	0.170231	0.164752
H136	H	0.730092	0.416557	0.829736
H137	H	0.701381	0.376228	1.045548
O138	O	0.030370	0.427546	0.304843
H139	H	0.039401	0.416858	0.340122
O140	O	-0.087968	0.387205	0.276200
H141	H	-0.066572	0.359068	0.299091
O142	O	0.484386	0.219548	0.156902
H143	H	0.520953	0.226318	0.161722
H144	H	0.701476	1.063090	0.164525
O145	O	0.708925	0.534296	0.156865
H146	H	0.704082	0.483061	0.161677
H147	H	0.036500	0.189927	0.135868
O148	O	0.386916	0.387208	0.276106
H149	H	0.411123	0.415258	0.296026
O150	O	0.708959	0.670954	0.156890
H151	H	0.701264	0.658385	0.121619
O152	O	0.127806	0.179279	0.128269
H153	H	0.103599	0.151259	0.108327
O154	O	0.560878	0.179357	0.597610
H155	H	0.540912	0.151359	0.621801
O156	O	0.589535	0.935178	0.276229
H157	H	0.609620	0.905188	0.299110
H158	H	0.597068	0.662291	0.268611
O159	O	0.589573	1.071815	0.276247
H160	H	0.609677	1.101730	0.299128
O161	O	0.708972	0.386898	0.954239
H162	H	0.728941	0.414877	0.978447
H163	H	0.701382	0.376379	0.473153
H164	H	0.730090	0.416582	0.744631
O165	O	0.589430	0.534327	0.276177
H166	H	0.569447	0.568234	0.296134
H167	H	0.262413	0.416835	0.297251
O168	O	0.171107	0.427568	0.304791
H169	H	0.195316	0.455624	0.324704
H170	H	0.597186	0.230148	0.960387
H171	H	0.701378	0.376398	0.388031
H172	H	0.597188	0.230294	0.387999
H173	H	0.597179	0.230282	0.473107
H174	H	0.597186	0.230133	1.045511
H175	H	0.568455	0.189964	0.744573
H176	H	0.568455	0.189948	0.829681
H177	H	-0.179291	0.376557	0.268622
O178	O	0.737670	0.427247	0.695197
H179	H	0.757628	0.455253	0.671004
H180	H	0.730085	0.416614	0.603872
H181	H	0.701439	0.943826	0.164503
H182	H	-0.094212	0.230255	0.164552
H183	H	0.177255	0.189903	0.135851
