data_functionalizedCrystal
_audit_creation_method	'MofGen! by Chris Wilmer'
_symmetry_space_group_name_H-M	'P1'
_symmetry_Int_Tables_number	1
_symmetry_cell_setting	triclinic
loop_
_symmetry_equiv_pos_as_xyz
  x,y,z
_cell_length_a	16.625548
_cell_length_b	16.625546
_cell_length_c	10.685880
_cell_angle_alpha	94.335175
_cell_angle_beta	85.603426
_cell_angle_gamma	90.023536
loop_
_atom_site_label
_atom_site_type_symbol
_atom_site_fract_x
_atom_site_fract_y
_atom_site_fract_z
Zn1	Zn	1.267656	-0.355868	-0.713450
Zn2	Zn	1.767656	0.144132	-0.213450
Zn3	Zn	1.257214	-0.480392	-0.502437
Zn4	Zn	1.757214	0.019608	-0.002437
Zn5	Zn	1.122474	-0.345581	-0.502466
Zn6	Zn	1.622474	0.154419	-0.002466
Zn7	Zn	1.132784	-0.490661	-0.713375
Zn8	Zn	1.632784	0.009339	-0.213375
O9	O	1.195032	-0.418125	-0.607932
O10	O	1.695032	0.081875	-0.107932
O11	O	1.379104	-0.372394	-0.685478
O12	O	1.879104	0.127606	-0.185478
O13	O	1.230657	-0.453906	-0.325866
O14	O	1.730657	0.046094	0.174134
O15	O	1.141788	-0.234115	-0.530497
O16	O	1.641788	0.265885	-0.030497
O17	O	1.371433	-0.463881	-0.530448
O18	O	1.871433	0.036119	-0.030448
O19	O	1.248452	-0.241673	-0.685505
O20	O	1.748452	0.258327	-0.185505
O21	O	1.131664	-0.354860	-0.325887
O22	O	1.631664	0.145140	0.174113
O23	O	1.011009	-0.364818	-0.530424
O24	O	1.511009	0.135182	-0.030424
O25	O	1.159359	-0.481383	-0.889960
O26	O	1.659359	0.018617	-0.389960
O27	O	1.018583	-0.471408	-0.685378
O28	O	1.518583	0.028592	-0.185378
O29	O	1.258449	-0.382351	-0.890015
O30	O	1.758449	0.117649	-0.390015
O31	O	1.240653	-0.594584	-0.530375
O32	O	1.740653	-0.094584	-0.030375
O33	O	1.149235	-0.602129	-0.685350
O34	O	1.649235	-0.102129	-0.185350
C35	C	0.985540	-0.418112	-0.607897
C36	C	1.485540	0.081888	-0.107897
C37	C	0.895919	-0.418127	-0.607911
C38	C	1.395919	0.081873	-0.107911
C39	C	1.194953	-0.627614	-0.607879
C40	C	1.694953	-0.127614	-0.107879
C41	C	1.194995	-0.717236	-0.607899
C42	C	1.694995	-0.217236	-0.107899
C43	C	1.195142	-1.045418	-0.608030
C44	C	1.695142	-0.545418	-0.108030
C45	C	1.195099	-0.954107	-0.607997
C46	C	1.695099	-0.454107	-0.107997
C47	C	1.195068	-0.881329	-0.607964
C48	C	1.695068	-0.381329	-0.107964
C49	C	1.195026	-0.790014	-0.607932
C50	C	1.695026	-0.290014	-0.107932
C51	C	0.567746	-0.418135	-0.607965
C52	C	1.067746	0.081865	-0.107965
C53	C	0.659054	-0.418130	-0.607946
C54	C	1.159054	0.081870	-0.107946
C55	C	0.731830	-0.418132	-0.607937
C56	C	1.231830	0.081868	-0.107937
C57	C	0.823143	-0.418126	-0.607920
C58	C	1.323143	0.081874	-0.107920
C59	C	1.405343	-0.418139	-0.607968
C60	C	1.905343	0.081861	-0.107968
C61	C	1.494965	-0.418145	-0.607983
C62	C	1.994965	0.081855	-0.107983
C63	C	1.211219	-0.434160	-0.937052
C64	C	1.711219	0.065840	-0.437052
C65	C	1.218117	-0.440994	-1.077303
C66	C	1.718117	0.059006	-0.577303
C67	C	1.195135	-0.207820	-0.608013
C68	C	1.695135	0.292180	-0.108013
C69	C	1.195178	-0.118201	-0.608047
C70	C	1.695178	0.381799	-0.108047
C71	C	1.178955	-0.402094	-0.280093
C72	C	1.678955	0.097906	0.219907
C73	C	1.172213	-0.395034	-0.139842
C74	C	1.672213	0.104966	0.360158
H75	H	1.127630	-0.350460	-1.086089
H76	H	1.627630	0.149540	-0.586089
Cl77	Cl	1.286947	-0.509827	-1.160295
Cl78	Cl	1.786947	-0.009827	-0.660295
