data_functionalizedCrystal
_audit_creation_method	'MofGen! by Chris Wilmer'
_symmetry_space_group_name_H-M	'P1'
_symmetry_Int_Tables_number	1
_symmetry_cell_setting	triclinic
loop_
_symmetry_equiv_pos_as_xyz
  x,y,z
_cell_length_a	16.109301
_cell_length_b	7.540329
_cell_length_c	16.109311
_cell_angle_alpha	89.995101
_cell_angle_beta	83.463594
_cell_angle_gamma	89.999760
loop_
_atom_site_label
_atom_site_type_symbol
_atom_site_fract_x
_atom_site_fract_y
_atom_site_fract_z
O1	O	1.103134	-0.147375	0.106865
O2	O	0.861073	-0.147404	0.120165
O3	O	0.988749	-0.147372	-0.007515
O4	O	0.975458	-0.147408	0.234545
O5	O	0.988741	0.147593	-0.007517
O6	O	0.861065	0.147561	0.120163
O7	O	1.103127	0.147590	0.106864
Cu8	Cu	0.982095	0.174508	0.113513
Cu9	Cu	0.982104	-0.174323	0.113515
O10	O	0.975451	0.147557	0.234544
C11	C	0.830094	0.000075	0.119625
C12	C	0.737799	0.000064	0.118010
N13	N	0.982095	0.419856	0.113512
C14	C	0.988205	0.000112	-0.038491
C15	C	0.986586	0.000114	-0.130786
C16	C	0.515529	0.000074	0.190017
C17	C	0.428808	0.000086	0.188493
C18	C	0.448677	0.000101	0.037005
C19	C	0.535396	0.000102	0.038530
C20	C	0.568819	0.000080	0.115039
C21	C	0.395380	0.000090	0.111990
C22	C	0.301354	0.000103	0.110337
C23	C	0.662851	0.000070	0.116692
C24	C	1.134105	0.000107	0.107403
C25	C	1.226401	0.000105	0.109018
N26	N	0.982111	-0.419671	0.113510
C27	C	0.975994	0.000070	0.265519
C28	C	0.977613	0.000056	0.357814
C29	C	0.982870	-0.160697	0.656887
C30	C	0.981347	-0.160708	0.570166
C31	C	0.981326	0.160879	0.570148
C32	C	0.982844	0.160888	0.656868
C33	C	0.983620	0.000095	0.700234
C34	C	0.980579	0.000075	0.526794
C35	C	0.978926	0.000064	0.432768
C36	C	0.985271	0.000105	0.794267
H37	H	0.542739	0.000069	0.252315
H38	H	0.421453	0.000130	-0.025285
H39	H	0.578788	0.000112	-0.022530
H40	H	0.983500	-0.291625	0.692193
H41	H	0.980734	-0.291641	0.534876
H42	H	0.980696	0.291791	0.534829
H43	H	0.385422	0.000085	0.249549
H44	H	0.983450	0.291833	0.692163
