data_functionalizedCrystal
_audit_creation_method	'MofGen! by Chris Wilmer'
_symmetry_space_group_name_H-M	'P1'
_symmetry_Int_Tables_number	1
_symmetry_cell_setting	triclinic
loop_
_symmetry_equiv_pos_as_xyz
  x,y,z
_cell_length_a	12.811457
_cell_length_b	10.540539
_cell_length_c	11.295483
_cell_angle_alpha	94.138588
_cell_angle_beta	91.289320
_cell_angle_gamma	84.283253
loop_
_atom_site_label
_atom_site_type_symbol
_atom_site_fract_x
_atom_site_fract_y
_atom_site_fract_z
O1	O	1.390323	0.175360	0.051126
O2	O	1.087198	0.191141	0.018389
O3	O	1.245676	-0.001432	0.035505
O4	O	1.231845	0.367932	0.034009
O5	O	1.231756	0.015456	0.232053
O6	O	1.073278	0.208028	0.214936
O7	O	1.376403	0.192248	0.247673
Cu8	Cu	1.223569	0.201680	0.249251
Cu9	Cu	1.240031	0.181708	0.016811
O10	O	1.217925	0.384820	0.230556
C11	C	1.041423	0.198183	0.112470
C12	C	0.925767	0.193991	0.099979
C13	C	0.693260	0.204502	0.290808
C14	C	0.584591	0.200563	0.279077
C15	C	0.599757	0.182165	0.064789
C16	C	0.708426	0.186104	0.076520
C17	C	0.755174	0.197275	0.189533
C18	C	0.863845	0.201222	0.201262
C19	C	0.879009	0.182815	-0.013025
C20	C	0.770340	0.178876	-0.024755
C21	C	1.237679	-0.040295	0.133665
C22	C	1.234576	-0.181254	0.133323
C23	C	1.115694	-0.365141	0.120040
C24	C	1.118809	-0.218473	0.120822
C25	C	1.282339	-0.233071	0.251579
C26	C	1.278382	-0.379621	0.251246
C27	C	1.296566	-0.399335	0.027990
C28	C	1.297737	-0.252477	0.026621
C29	C	1.422178	0.185205	0.153589
C30	C	1.537835	0.189397	0.166072
C31	C	1.225922	0.423683	0.132394
C32	C	1.229025	0.564642	0.132728
N33	N	1.211999	0.215726	0.412737
N34	N	1.251610	0.167652	-0.146675
C35	C	1.334901	0.066468	0.675301
C36	C	1.326165	0.077092	0.799021
C37	C	1.185785	0.247591	0.783899
C38	C	1.194521	0.236967	0.660179
C39	C	1.269083	0.146404	0.605885
C40	C	1.277824	0.135787	0.482163
C41	C	1.137440	0.306279	0.467043
C42	C	1.128703	0.316903	0.590763
H43	H	0.929431	0.176938	-0.095491
H44	H	0.731321	0.213614	0.382827
H45	H	1.231266	-0.400758	0.330700
Br46	Br	1.055242	-0.159239	-0.021169
Br47	Br	1.084585	0.370475	0.857595
Br48	Br	1.379018	0.012888	0.408480
H49	H	1.067994	0.390635	0.634983
Br50	Br	0.500568	0.210364	0.416528
H51	H	1.075664	-0.400819	0.034613
Br52	Br	1.030140	-0.404938	0.244809
Br53	Br	1.436103	-0.056418	0.601614
H54	H	1.379759	0.011999	0.855537
H55	H	1.068956	-0.169949	0.196645
Br56	Br	1.048121	0.414780	0.372825
Br57	Br	1.416543	-0.458356	0.274734
Br58	Br	0.536309	0.166867	-0.088571
H59	H	1.367060	-0.210056	0.264933
H60	H	0.732263	0.169775	-0.116767
Br61	Br	0.927287	0.216390	0.354633
Br62	Br	1.207980	-0.150342	0.383830
Br63	Br	1.244149	-0.464310	-0.120546
Br64	Br	1.240177	-0.195685	-0.119069
H65	H	1.382620	-0.228539	0.028959
H66	H	1.380237	-0.446329	0.036265
