data_functionalizedCrystal
_audit_creation_method	'MofGen! by Chris Wilmer'
_symmetry_space_group_name_H-M	'P1'
_symmetry_Int_Tables_number	1
_symmetry_cell_setting	triclinic
loop_
_symmetry_equiv_pos_as_xyz
  x,y,z
_cell_length_a	10.968094
_cell_length_b	19.188930
_cell_length_c	9.482900
_cell_angle_alpha	99.297616
_cell_angle_beta	92.548310
_cell_angle_gamma	83.945588
loop_
_atom_site_label
_atom_site_type_symbol
_atom_site_fract_x
_atom_site_fract_y
_atom_site_fract_z
O1	O	1.609542	0.123206	0.282272
O2	O	1.260325	0.124742	0.194790
O3	O	1.445007	0.022615	0.241083
O4	O	1.424860	0.225333	0.235979
O5	O	1.407493	0.043447	0.473472
O6	O	1.222812	0.145573	0.427179
O7	O	1.572028	0.144038	0.514661
Cu8	Cu	1.393995	0.146708	0.492139
Cu9	Cu	1.438359	0.122072	0.217312
O10	O	1.387347	0.246164	0.468368
C11	C	1.196891	0.133473	0.299793
C12	C	1.063766	0.128444	0.266445
C13	C	0.847384	0.131788	0.337487
C14	C	0.984973	0.136992	0.371967
C15	C	1.425597	0.007001	0.357118
C16	C	1.423636	-0.070560	0.356639
C17	C	1.532002	-0.112318	0.383793
C18	C	1.530165	-0.185197	0.383309
C19	C	1.419951	-0.216313	0.355699
C20	C	1.311571	-0.174546	0.328533
C21	C	1.313414	-0.101669	0.329004
N22	N	1.322938	-0.319689	0.413681
N23	N	1.321195	-0.388919	0.413239
C24	C	1.414393	-0.435887	0.354277
N25	N	1.509416	-0.411008	0.295796
N26	N	1.511162	-0.341771	0.296245
C27	C	1.417941	-0.295335	0.355185
C28	C	1.520776	-0.556670	0.380906
C29	C	1.518935	-0.629551	0.380413
C30	C	1.300336	-0.618897	0.325651
C31	C	1.302182	-0.546018	0.326131
C32	C	1.412404	-0.514909	0.353766
C33	C	1.635463	0.135307	0.409655
C34	C	1.768590	0.140334	0.442994
C35	C	1.406758	0.261778	0.352330
C36	C	1.408720	0.339338	0.352800
N37	N	1.362800	0.164035	0.685440
N38	N	1.469563	0.104739	0.024014
C39	C	1.429150	0.127179	0.774271
C40	C	1.403204	0.141601	0.935184
H41	H	0.812982	0.120615	0.221632
C42	C	0.786276	0.101547	0.672064
C43	C	0.815020	0.155410	0.599400
H44	H	0.814946	0.110853	0.768622
H45	H	0.699914	0.100035	0.669413
H46	H	0.824495	0.057224	0.627447
H47	H	0.776794	0.199733	0.644011
H48	H	0.901399	0.156929	0.602060
H49	H	1.610526	-0.531340	0.403402
C50	C	1.747890	-0.130175	0.437882
C51	C	1.653159	-0.078125	0.414154
H52	H	1.822687	-0.109063	0.456615
H53	H	1.729540	-0.151118	0.517594
H54	H	1.755699	-0.165637	0.355513
H55	H	1.645344	-0.042665	0.496527
H56	H	1.671513	-0.057170	0.334434
H57	H	1.607185	-0.663551	0.402518
C58	C	1.628568	0.016402	1.078794
C59	C	1.572184	0.047722	0.965888
H60	H	1.691915	-0.018800	1.042904
H61	H	1.662552	0.051670	1.146649
H62	H	1.569477	-0.004917	1.123384
H63	H	1.631274	0.069045	0.921304
H64	H	1.538201	0.012448	0.898007
H65	H	1.029371	0.117275	0.150581
C66	C	1.254346	0.224301	0.891733
C67	C	1.260185	0.221048	0.743578
H68	H	1.190998	0.259502	0.927620
H69	H	1.237501	0.179515	0.912391
H70	H	1.330577	0.236102	0.935665
H71	H	1.183956	0.209241	0.699645
H72	H	1.277021	0.265843	0.722908
C73	C	1.200450	-0.725877	0.300613
C74	C	1.179185	-0.653091	0.295296
H75	H	1.125652	-0.746987	0.281875
H76	H	1.258130	-0.747259	0.230751
H77	H	1.231971	-0.732746	0.392831
H78	H	1.147672	-0.646222	0.203073
H79	H	1.121484	-0.631703	0.365161
H80	H	1.618414	-0.219204	0.405416
C81	C	1.158166	-0.447181	0.414356
C82	C	1.183061	-0.500108	0.296298
H83	H	1.084627	-0.418836	0.395926
H84	H	1.148901	-0.468577	0.496332
H85	H	1.224081	-0.418228	0.430858
H86	H	1.117150	-0.529064	0.279802
H87	H	1.192317	-0.478711	0.214297
C88	C	1.002653	0.098205	0.601045
C89	C	1.031397	0.152068	0.528381
H90	H	1.031322	0.107511	0.697603
H91	H	0.916291	0.096693	0.598394
H92	H	1.040872	0.053881	0.556428
H93	H	0.993170	0.196391	0.572992
H94	H	1.117775	0.153587	0.531041
C95	C	1.211684	-0.281530	0.303520
C96	C	1.190420	-0.208745	0.298189
H97	H	1.136886	-0.302640	0.284789
H98	H	1.269363	-0.302914	0.233658
H99	H	1.243208	-0.288394	0.395740
H100	H	1.158905	-0.201880	0.205965
H101	H	1.132721	-0.187353	0.368054
C102	C	1.097155	-0.098460	0.274827
C103	C	1.194286	-0.055762	0.299168
H104	H	1.023610	-0.070115	0.256419
H105	H	1.114062	-0.134357	0.194744
H106	H	1.087908	-0.119854	0.356826
H107	H	1.203538	-0.034372	0.217165
H108	H	1.177375	-0.019851	0.379259
H109	H	1.505158	0.084945	0.731195
H110	H	1.327182	0.183832	0.978253
