data_functionalizedCrystal
_audit_creation_method	'MofGen! by Chris Wilmer'
_symmetry_space_group_name_H-M	'P1'
_symmetry_Int_Tables_number	1
_symmetry_cell_setting	triclinic
loop_
_symmetry_equiv_pos_as_xyz
  x,y,z
_cell_length_a	16.109295
_cell_length_b	15.186229
_cell_length_c	16.109301
_cell_angle_alpha	90.005167
_cell_angle_beta	96.539666
_cell_angle_gamma	89.999572
loop_
_atom_site_label
_atom_site_type_symbol
_atom_site_fract_x
_atom_site_fract_y
_atom_site_fract_z
O1	O	-1.103134	0.073171	0.106844
O2	O	-0.861071	0.073187	0.120148
O3	O	-0.988752	0.073170	-0.007535
O4	O	-0.975453	0.073188	0.234527
O5	O	-0.988743	-0.073288	-0.007537
O6	O	-0.861062	-0.073271	0.120146
O7	O	-1.103125	-0.073286	0.106842
Zn8	Zn	-0.982092	-0.096531	0.113494
Zn9	Zn	-0.982104	0.096432	0.113496
O10	O	-0.975444	-0.073269	0.234525
C11	C	-0.830092	-0.000040	0.119609
C12	C	-0.737796	-0.000035	0.117996
N13	N	-0.982091	-0.228224	0.113492
C14	C	-0.515523	-0.000038	0.190008
C15	C	-0.428803	-0.000044	0.188486
C16	C	-0.448677	-0.000052	0.036996
C17	C	-0.535396	-0.000053	0.038520
C18	C	-0.568816	-0.000041	0.115028
C19	C	-0.395377	-0.000046	0.111982
C20	C	-0.301351	-0.000052	0.110331
C21	C	-0.662849	-0.000037	0.116679
C22	C	-1.038647	-0.453955	0.056973
C23	C	-1.038650	-0.546144	0.056971
C24	C	-0.925549	-0.546138	0.170014
C25	C	-0.925543	-0.453950	0.170011
C26	C	-0.982097	-0.407861	0.113491
C27	C	-0.982106	-0.592238	0.113492
C28	C	-0.982108	-0.692195	0.113490
C29	C	-0.982094	-0.307898	0.113492
C30	C	-0.134104	-0.000056	0.107386
C31	C	-0.226397	-0.000053	0.109014
C32	C	-0.988209	-0.000059	-0.038511
C33	C	-0.986594	-0.000061	-0.130806
N34	N	-0.982112	0.228125	0.113492
C35	C	-1.058602	-0.000051	-0.353080
C36	C	-1.057078	-0.000044	-0.439800
C37	C	-0.905588	-0.000038	-0.419923
C38	C	-0.907113	-0.000039	-0.333204
C39	C	-0.983622	-0.000050	-0.299785
C40	C	-0.980573	-0.000042	-0.473225
C41	C	-0.978920	-0.000034	-0.567251
C42	C	-0.985276	-0.000056	-0.205754
C43	C	-0.975987	-0.000038	0.265501
C44	C	-0.977602	-0.000031	0.357796
H45	H	-0.542731	-0.000036	0.252306
H46	H	-0.846052	-0.000035	-0.289809
H47	H	-0.385414	-0.000043	0.249542
H48	H	-0.578790	-0.000058	-0.022542
H49	H	-1.120900	-0.000058	-0.325874
H50	H	-1.118133	-0.000043	-0.483190
H51	H	-1.084695	-0.416431	0.010950
H52	H	-0.879489	-0.416418	0.216036
H53	H	-1.084697	-0.583671	0.010947
H54	H	-0.879506	-0.583673	0.216032
Cl55	Cl	-0.406656	-0.000060	-0.059180
H56	H	-0.843297	-0.000030	-0.447144
