data_functionalizedCrystal
_audit_creation_method	'MofGen! by Chris Wilmer'
_symmetry_space_group_name_H-M	'P1'
_symmetry_Int_Tables_number	1
_symmetry_cell_setting	triclinic
loop_
_symmetry_equiv_pos_as_xyz
  x,y,z
_cell_length_a	17.699083
_cell_length_b	10.540539
_cell_length_c	16.176319
_cell_angle_alpha	89.995366
_cell_angle_beta	89.998611
_cell_angle_gamma	83.904253
loop_
_atom_site_label
_atom_site_type_symbol
_atom_site_fract_x
_atom_site_fract_y
_atom_site_fract_z
O1	O	1.005122	0.160521	-0.068627
O2	O	1.505122	0.660521	0.431373
O3	O	0.784880	0.181405	-0.068653
O4	O	1.284880	0.681405	0.431347
O5	O	0.900026	-0.013836	-0.068638
O6	O	1.400026	0.486164	0.431362
O7	O	0.889976	0.355761	-0.068642
O8	O	1.389976	0.855761	0.431358
O9	O	0.900010	-0.013848	0.068855
O10	O	1.400010	0.486152	0.568855
O11	O	0.784864	0.181392	0.068840
O12	O	1.284864	0.681392	0.568840
O13	O	1.005106	0.160508	0.068866
O14	O	1.505106	0.660508	0.568866
Cu15	Cu	0.894984	0.170949	0.081407
Cu16	Cu	1.394984	0.670949	0.581407
Cu17	Cu	0.895003	0.170964	-0.081194
Cu18	Cu	1.395003	0.670964	0.418806
O19	O	0.889960	0.355749	0.068852
O20	O	1.389960	0.855749	0.568852
C21	C	0.756670	0.180650	0.000090
C22	C	1.256670	0.680650	0.500090
C23	C	0.672637	0.178405	0.000080
C24	C	1.172637	0.678405	0.500080
C25	C	0.624761	0.293007	0.000079
C26	C	1.124761	0.793007	0.500079
C27	C	0.545804	0.290890	0.000090
C28	C	1.045804	0.790890	0.500090
C29	C	0.514725	0.174170	0.000095
C30	C	1.014725	0.674170	0.500095
C31	C	0.562607	0.059559	0.000098
C32	C	1.062607	0.559559	0.500098
C33	C	0.641562	0.061677	0.000094
C34	C	1.141562	0.561677	0.500094
C35	C	0.244188	0.051014	0.000119
C36	C	0.744188	0.551014	0.500119
C37	C	0.165226	0.048904	0.000121
C38	C	0.665226	0.548904	0.500121
C39	C	0.148430	0.280227	0.000115
C40	C	0.648430	0.780227	0.500115
C41	C	0.227386	0.282345	0.000110
C42	C	0.727386	0.782345	0.500110
C43	C	0.275261	0.167735	0.000118
C44	C	0.775261	0.667735	0.500118
C45	C	0.360875	0.170032	0.000108
C46	C	0.860875	0.670032	0.500108
C47	C	0.429112	0.171872	0.000099
C48	C	0.929112	0.671872	0.500099
C49	C	0.899264	-0.061131	0.000107
C50	C	1.399264	0.438869	0.500107
C51	C	0.897009	-0.202038	0.000102
C52	C	1.397009	0.297962	0.500102
C53	C	0.810610	-0.383885	-0.000217
C54	C	1.310610	0.116115	0.499783
C55	C	0.812896	-0.237308	0.000093
C56	C	1.312896	0.262692	0.500093
C57	C	0.937479	-0.264443	0.078622
C58	C	1.437479	0.235557	0.578622
C59	C	0.934609	-0.410935	0.078688
C60	C	1.434609	0.089065	0.578688
C61	C	0.936338	-0.411471	-0.077667
C62	C	1.436338	0.088529	0.422333
C63	C	0.937113	-0.264503	-0.078705
C64	C	1.437113	0.235497	0.421295
C65	C	1.033316	0.161263	0.000122
C66	C	1.533316	0.661263	0.500122
C67	C	1.117349	0.163508	0.000126
C68	C	1.617349	0.663508	0.500126
C69	C	0.890722	0.403044	0.000105
C70	C	1.390722	0.903044	0.500105
C71	C	0.892977	0.543951	0.000104
C72	C	1.392977	1.043951	0.500104
N73	N	0.894976	0.170938	0.195773
N74	N	1.394976	0.670938	0.695773
N75	N	0.895016	0.170965	-0.195559
N76	N	1.395016	0.670965	0.304441
C77	C	0.945978	0.084521	0.239043
C78	C	1.445978	0.584521	0.739043
C79	C	0.945982	0.084519	0.325591
C80	C	1.445982	0.584519	0.825591
C81	C	0.894987	0.170942	0.368865
C82	C	1.394987	0.670942	0.868865
C83	C	0.843979	0.257364	0.325588
C84	C	1.343979	0.757364	0.825588
C85	C	0.843972	0.257358	0.239043
C86	C	1.343972	0.757358	0.739043
C87	C	0.844005	0.257387	0.674617
C88	C	1.344005	0.757387	1.174617
C89	C	0.844017	0.257389	0.761168
C90	C	1.344017	0.757389	1.261168
C91	C	0.946015	0.084549	0.761164
C92	C	1.446015	0.584549	1.261164
C93	C	0.946008	0.084543	0.674619
C94	C	1.446008	0.584543	1.174619
C95	C	0.894998	0.170959	0.631349
C96	C	1.394998	0.670959	1.131349
C97	C	0.894993	0.170958	0.537505
C98	C	1.394993	0.670958	1.037505
C99	C	0.894994	0.170951	0.462708
C100	C	1.394994	0.670951	0.962708
H101	H	0.506826	0.384211	0.000088
H102	H	1.006826	0.884211	0.500088
H103	H	0.252686	0.377390	0.000102
H104	H	0.752686	0.877390	0.500102
C105	C	1.016322	-0.477244	0.083532
C106	C	1.516322	0.022756	0.583532
H107	H	1.015123	-0.567139	0.083603
H108	H	1.515123	-0.067139	0.583603
H109	H	1.039766	-0.452155	0.132867
H110	H	1.539766	0.047845	0.632867
H111	H	1.044486	-0.453355	0.037105
H112	H	1.544486	0.046645	0.537105
C113	C	1.002078	-0.010534	0.191445
C114	C	1.502078	0.489466	0.691445
H115	H	0.994777	0.001847	0.133704
H116	H	1.494777	0.501847	0.633704
H117	H	0.993411	-0.095236	0.205634
H118	H	1.493411	0.404764	0.705634
H119	H	1.052663	0.003164	0.205625
H120	H	1.552663	0.503164	0.705625
H121	H	0.680543	-0.031644	0.000094
H122	H	1.180543	0.468356	0.500094
H123	H	0.283159	-0.042309	0.000126
H124	H	0.783159	0.457691	0.500126
C125	C	0.787917	0.352471	0.627027
C126	C	1.287917	0.852471	1.127027
H127	H	0.795212	0.340095	0.569286
H128	H	1.295212	0.840095	1.069286
H129	H	0.796608	0.437160	0.641212
H130	H	1.296608	0.937160	1.141212
H131	H	0.737327	0.338809	0.641214
H132	H	1.237327	0.838809	1.141214
H133	H	0.997092	-0.459808	-0.078188
H134	H	1.497092	0.040192	0.421812
C135	C	0.095766	0.406298	0.000118
C136	C	0.595766	0.906298	0.500118
H137	H	0.044291	0.388326	0.000131
H138	H	0.544291	0.888326	0.500131
H139	H	0.105252	0.454171	-0.047832
H140	H	0.605252	0.954171	0.452168
H141	H	0.105259	0.454163	0.048068
H142	H	0.605259	0.954163	0.548068
H143	H	0.987536	0.014174	0.639387
H144	H	1.487536	0.514174	1.139387
H145	H	0.987511	0.014151	0.360821
H146	H	1.487511	0.514151	0.860821
H147	H	0.999250	-0.243219	0.081549
H148	H	1.499250	0.256781	0.581549
C149	C	1.002118	-0.010522	0.808763
C150	C	1.502118	0.489478	1.308763
H151	H	0.994816	0.001844	0.866504
H152	H	1.494816	0.501844	1.366504
H153	H	1.052700	0.003158	0.794573
H154	H	1.552700	0.503158	1.294573
H155	H	0.993438	-0.095225	0.794583
H156	H	1.493438	0.404775	1.294583
H157	H	0.139925	-0.046149	0.000127
H158	H	0.639925	0.453851	0.500127
H159	H	0.780815	-0.194971	0.056466
H160	H	1.280815	0.305029	0.556466
C161	C	0.899479	-0.206230	0.157551
C162	C	1.399479	0.293770	0.657551
H163	H	0.858957	-0.143911	0.142822
H164	H	1.358957	0.356089	0.642822
H165	H	0.935830	-0.167325	0.189325
H166	H	1.435830	0.332675	0.689325
H167	H	0.880188	-0.271551	0.189195
H168	H	1.380188	0.228449	0.689195
H169	H	0.909121	-0.442520	-0.137180
H170	H	1.409121	0.057480	0.362820
C171	C	0.787918	0.352450	0.808773
C172	C	1.287918	0.852450	1.308773
H173	H	0.795235	0.340083	0.866513
H174	H	1.295235	0.840083	1.366513
H175	H	0.737333	0.338765	0.794602
H176	H	1.237333	0.838765	1.294602
H177	H	0.796590	0.437156	0.794581
H178	H	1.296590	0.937156	1.294581
C179	C	0.769867	-0.178952	-0.075936
C180	C	1.269867	0.321048	0.424064
H181	H	0.750827	-0.244819	-0.107289
H182	H	1.250827	0.255181	0.392711
H183	H	0.803452	-0.136163	-0.109154
H184	H	1.303452	0.363837	0.390846
H185	H	0.728759	-0.119886	-0.058265
H186	H	1.228759	0.380114	0.441735
H187	H	0.537295	-0.035477	0.000115
H188	H	1.037295	0.464523	0.500115
C189	C	0.787886	0.352429	0.373188
C190	C	1.287886	0.852429	0.873188
H191	H	0.795200	0.340067	0.430929
H192	H	1.295200	0.840067	0.930929
H193	H	0.737301	0.338752	0.359015
H194	H	1.237301	0.838752	0.859015
H195	H	0.796565	0.437131	0.358994
H196	H	1.296565	0.937131	0.858994
H197	H	0.907501	-0.223097	-0.136792
H198	H	1.407501	0.276903	0.363208
H199	H	0.802440	0.327726	0.203813
H200	H	1.302440	0.827726	0.703813
H201	H	0.777390	-0.411872	-0.056526
H202	H	1.277390	0.088128	0.443474
H203	H	0.904686	-0.438593	0.137376
H204	H	1.404686	0.061407	0.637376
C205	C	0.658942	0.421401	0.000072
C206	C	1.158942	0.921401	0.500072
H207	H	0.619118	0.489350	0.000081
H208	H	1.119118	0.989350	0.500081
H209	H	0.689392	0.427044	-0.047876
H210	H	1.189392	0.927044	0.452124
H211	H	0.689394	0.427031	0.048024
H212	H	1.189394	0.927031	0.548024
C213	C	0.765897	-0.423862	0.075417
C214	C	1.265897	0.076138	0.575417
H215	H	0.797208	-0.484338	0.107191
H216	H	1.297208	0.015662	0.607191
H217	H	0.722131	-0.460936	0.057361
H218	H	1.222131	0.039064	0.557361
H219	H	0.750780	-0.350970	0.108372
H220	H	1.250780	0.149030	0.608372
H221	H	0.998438	-0.241403	-0.083439
H222	H	1.498438	0.258597	0.416561
