data_functionalizedCrystal
_audit_creation_method	'MofGen! by Chris Wilmer'
_symmetry_space_group_name_H-M	'P1'
_symmetry_Int_Tables_number	1
_symmetry_cell_setting	triclinic
loop_
_symmetry_equiv_pos_as_xyz
  x,y,z
_cell_length_a	17.699083
_cell_length_b	10.654551
_cell_length_c	16.776229
_cell_angle_alpha	89.996205
_cell_angle_beta	89.998886
_cell_angle_gamma	83.884188
loop_
_atom_site_label
_atom_site_type_symbol
_atom_site_fract_x
_atom_site_fract_y
_atom_site_fract_z
O1	O	1.005088	0.158809	-0.066171
O2	O	1.505088	0.658809	0.433829
O3	O	0.784841	0.179470	-0.066197
O4	O	1.284841	0.679470	0.433803
O5	O	0.900028	-0.013689	-0.066184
O6	O	1.400028	0.486311	0.433816
O7	O	0.889902	0.351967	-0.066184
O8	O	1.389902	0.851967	0.433816
O9	O	0.900013	-0.013700	0.066393
O10	O	1.400013	0.486300	0.566393
O11	O	0.784826	0.179458	0.066380
O12	O	1.284826	0.679458	0.566380
O13	O	1.005073	0.158797	0.066405
O14	O	1.505073	0.658797	0.566405
Zn15	Zn	0.894947	0.169126	0.087442
Zn16	Zn	1.394947	0.669126	0.587442
Zn17	Zn	0.894967	0.169141	-0.087234
Zn18	Zn	1.394967	0.669141	0.412766
O19	O	0.889886	0.351955	0.066392
O20	O	1.389886	0.851955	0.566392
C21	C	0.756632	0.178724	0.000088
C22	C	1.256632	0.678724	0.500088
C23	C	0.672600	0.176503	0.000078
C24	C	1.172600	0.676503	0.500078
C25	C	0.899277	-0.060479	0.000102
C26	C	1.399277	0.439521	0.500102
C27	C	0.897052	-0.199884	0.000097
C28	C	1.397052	0.300116	0.500097
C29	C	0.624700	0.289883	0.000078
C30	C	1.124700	0.789883	0.500078
C31	C	0.545743	0.287788	0.000089
C32	C	1.045743	0.787788	0.500089
C33	C	0.514688	0.172313	0.000093
C34	C	1.014688	0.672313	0.500093
C35	C	0.562594	0.058924	0.000095
C36	C	1.062594	0.558924	0.500095
C37	C	0.641549	0.061020	0.000091
C38	C	1.141549	0.561020	0.500091
C39	C	0.244177	0.050470	0.000115
C40	C	0.744177	0.550470	0.500115
C41	C	0.165216	0.048383	0.000117
C42	C	0.665216	0.548383	0.500117
C43	C	0.148371	0.277238	0.000113
C44	C	0.648371	0.777238	0.500113
C45	C	0.227327	0.279334	0.000108
C46	C	0.727327	0.779334	0.500108
C47	C	0.275226	0.165946	0.000115
C48	C	0.775226	0.665946	0.500115
C49	C	0.360839	0.168218	0.000105
C50	C	0.860839	0.668218	0.500105
C51	C	0.429076	0.170039	0.000097
C52	C	0.929076	0.670039	0.500097
C53	C	0.896016	-0.265371	-0.072169
C54	C	1.396016	0.234629	0.427831
C55	C	0.893919	-0.396355	-0.072166
C56	C	1.393919	0.103645	0.427834
C57	C	0.893896	-0.396353	0.072376
C58	C	1.393896	0.103647	0.572376
C59	C	0.895988	-0.265370	0.072372
C60	C	1.395988	0.234630	0.572372
C61	C	0.897080	-0.199884	-0.144445
C62	C	1.397080	0.300116	0.355555
C63	C	0.896046	-0.265372	-0.216717
C64	C	1.396046	0.234628	0.283283
C65	C	0.893949	-0.396355	-0.216713
C66	C	1.393949	0.103645	0.283287
C67	C	0.892886	-0.461851	-0.144438
C68	C	1.392886	0.038149	0.355562
C69	C	1.033282	0.159543	0.000118
C70	C	1.533282	0.659543	0.500118
C71	C	1.117315	0.161764	0.000123
C72	C	1.617315	0.661764	0.500123
C73	C	0.890638	0.398746	0.000104
C74	C	1.390638	0.898746	0.500104
C75	C	0.892863	0.538150	0.000104
C76	C	1.392863	1.038150	0.500104
N77	N	0.894939	0.169114	0.206653
N78	N	1.394939	0.669114	0.706653
N79	N	0.894982	0.169143	-0.206445
N80	N	1.394982	0.669143	0.293555
C81	C	0.945959	0.083619	0.248376
C82	C	1.445959	0.583619	0.748376
C83	C	0.945964	0.083618	0.331828
C84	C	1.445964	0.583618	0.831828
C85	C	0.894950	0.169119	0.373556
C86	C	1.394950	0.669119	0.873556
C87	C	0.843924	0.254619	0.331827
C88	C	1.343924	0.754619	0.831827
C89	C	0.843917	0.254613	0.248377
C90	C	1.343917	0.754613	0.748377
C91	C	0.843951	0.254643	0.668374
C92	C	1.343951	0.754643	1.168374
C93	C	0.843964	0.254645	0.751831
C94	C	1.343964	0.754645	1.251831
C95	C	0.945998	0.083648	0.751826
C96	C	1.445998	0.583648	1.251826
C97	C	0.945991	0.083642	0.668375
C98	C	1.445991	0.583642	1.168375
C99	C	0.894963	0.169137	0.626654
C100	C	1.394963	0.669137	1.126654
C101	C	0.894958	0.169135	0.536165
C102	C	1.394958	0.669135	1.036165
C103	C	0.894958	0.169127	0.464043
C104	C	1.394958	0.669127	0.964043
H105	H	0.506746	0.380114	0.000088
H106	H	1.006746	0.880114	0.500088
H107	H	0.893031	-0.449690	0.131219
H108	H	1.393031	0.050310	0.631219
O109	O	0.260824	0.403881	0.000115
O110	O	0.760824	0.903881	0.500115
H111	H	0.214251	0.482372	0.000128
H112	H	0.714251	0.982372	0.500128
O113	O	0.788874	0.346810	0.203376
O114	O	1.288874	0.846810	0.703376
H115	H	0.797428	0.332426	0.138337
H116	H	1.297428	0.832426	0.638337
O117	O	1.001008	-0.008583	0.623366
O118	O	1.501008	0.491417	1.123366
H119	H	1.036481	-0.068045	0.666400
H120	H	1.536481	0.431955	1.166400
H121	H	0.891167	-0.568505	-0.144441
H122	H	1.391167	-0.068505	0.355559
H123	H	0.898790	-0.093231	-0.144455
H124	H	1.398790	0.406769	0.355545
H125	H	0.680549	-0.031306	0.000090
H126	H	1.180549	0.468694	0.500090
H127	H	0.896815	-0.212046	0.131217
H128	H	1.396815	0.287954	0.631217
H129	H	0.283168	-0.041858	0.000121
H130	H	0.783168	0.458142	0.500121
H131	H	0.896904	-0.212035	-0.275561
H132	H	1.396904	0.287965	0.224439
O133	O	0.892807	-0.466990	-0.294658
O134	O	1.392807	0.033010	0.205342
H135	H	0.893896	-0.399443	-0.344912
H136	H	1.393896	0.100557	0.155088
O137	O	0.096706	0.399539	0.000124
O138	O	0.596706	0.899539	0.500124
H139	H	0.060320	0.404063	-0.053903
H140	H	0.560320	0.904063	0.446097
H141	H	0.649978	0.383916	0.000074
H142	H	1.149978	0.883916	0.500074
O143	O	1.000978	-0.008606	0.203370
O144	O	1.500978	0.491394	0.703370
H145	H	1.036450	-0.068066	0.246406
H146	H	1.536450	0.431934	0.746406
H147	H	0.139935	-0.045657	0.000122
H148	H	0.639935	0.454343	0.500122
H149	H	0.802384	0.324231	0.365807
H150	H	1.302384	0.824231	0.865807
O151	O	0.529105	-0.065630	0.000103
O152	O	1.029105	0.434370	0.500103
H153	H	0.466155	-0.048042	0.000099
H154	H	0.966155	0.451958	0.500099
H155	H	0.987508	0.014000	0.365798
H156	H	1.487508	0.514000	0.865798
H157	H	0.987546	0.014030	0.785804
H158	H	1.487546	0.514030	1.285804
H159	H	0.802420	0.324273	0.785804
H160	H	1.302420	0.824273	1.285804
O161	O	0.788924	0.346862	0.623379
O162	O	1.288924	0.846862	1.123379
H163	H	0.753461	0.406325	0.666417
H164	H	1.253461	0.906325	1.166417
