data_functionalizedCrystal
_audit_creation_method	'MofGen! by Chris Wilmer'
_symmetry_space_group_name_H-M	'P1'
_symmetry_Int_Tables_number	1
_symmetry_cell_setting	triclinic
loop_
_symmetry_equiv_pos_as_xyz
  x,y,z
_cell_length_a	12.759401
_cell_length_b	16.625545
_cell_length_c	12.759393
_cell_angle_alpha	89.967170
_cell_angle_beta	89.979062
_cell_angle_gamma	90.027083
loop_
_atom_site_label
_atom_site_type_symbol
_atom_site_fract_x
_atom_site_fract_y
_atom_site_fract_z
Zn1	Zn	1.606187	-0.320930	-0.594003
Zn2	Zn	2.106187	0.179070	-0.094003
Zn3	Zn	1.606045	-0.455784	-0.418316
Zn4	Zn	2.106045	0.044216	0.081684
Zn5	Zn	1.430486	-0.320973	-0.418338
Zn6	Zn	1.930486	0.179027	0.081662
Zn7	Zn	1.430444	-0.455728	-0.593953
Zn8	Zn	1.930444	0.044272	-0.093953
O9	O	1.518291	-0.388354	-0.506153
O10	O	2.018291	0.111646	-0.006153
O11	O	1.753189	-0.338824	-0.570709
O12	O	2.253189	0.161176	-0.070709
O13	O	1.582714	-0.437943	-0.271298
O14	O	2.082714	0.062057	0.228702
O15	O	1.453870	-0.208135	-0.441671
O16	O	1.953870	0.291865	0.058329
O17	O	1.753085	-0.437901	-0.441633
O18	O	2.253085	0.062099	0.058367
O19	O	1.582957	-0.208103	-0.570731
O20	O	2.082957	0.291897	-0.070731
O21	O	1.453732	-0.338897	-0.271314
O22	O	1.953732	0.161103	0.228686
O23	O	1.283459	-0.338843	-0.441622
O24	O	1.783459	0.161157	0.058378
O25	O	1.453799	-0.437805	-0.740981
O26	O	1.953799	0.062195	-0.240981
O27	O	1.283429	-0.437847	-0.570646
O28	O	1.783429	0.062153	-0.070646
O29	O	1.582917	-0.338770	-0.741018
O30	O	2.082917	0.161230	-0.241018
O31	O	1.582674	-0.568609	-0.441585
O32	O	2.082674	-0.068609	0.058415
O33	O	1.453661	-0.568568	-0.570624
O34	O	1.953661	-0.068568	-0.070624
C35	C	1.245323	-0.388344	-0.506132
C36	C	1.745323	0.111656	-0.006132
C37	C	1.128547	-0.388359	-0.506148
C38	C	1.628547	0.111641	-0.006148
C39	C	1.073696	-0.439989	-0.573225
C40	C	1.573696	0.060011	-0.073225
C41	C	0.963972	-0.439992	-0.573245
C42	C	1.463972	0.060008	-0.073245
C43	C	0.963958	-0.336733	-0.439104
C44	C	1.463958	0.163267	0.060896
C45	C	1.073680	-0.336727	-0.439089
C46	C	1.573680	0.163273	0.060911
C47	C	1.518176	-0.597844	-0.506120
C48	C	2.018176	-0.097844	-0.006120
C49	C	1.518224	-0.687466	-0.506141
C50	C	2.018224	-0.187466	-0.006141
C51	C	1.518265	-0.760248	-0.506161
C52	C	2.018265	-0.260248	-0.006161
C53	C	1.518326	-0.851556	-0.506185
C54	C	2.018326	-0.351556	-0.006185
C55	C	1.518380	-0.924333	-0.506198
C56	C	2.018380	-0.424333	-0.006198
C57	C	1.518440	-1.015647	-0.506219
C58	C	2.018440	-0.515647	-0.006219
C59	C	1.792324	-0.388364	-0.506174
C60	C	2.292324	0.111636	-0.006174
C61	C	1.909100	-0.388369	-0.506183
C62	C	2.409100	0.111631	-0.006183
C63	C	1.518369	-0.388276	-0.780186
C64	C	2.018369	0.111724	-0.280186
C65	C	1.518403	-0.388243	-0.896963
C66	C	2.018403	0.111757	-0.396963
C67	C	1.518434	-0.178045	-0.506209
C68	C	2.018434	0.321955	-0.006209
C69	C	1.518495	-0.088424	-0.506233
C70	C	2.018495	0.411576	-0.006233
C71	C	1.585639	-0.336667	-0.951846
C72	C	2.085639	0.163333	-0.451846
C73	C	1.585657	-0.336632	-1.061570
C74	C	2.085657	0.163368	-0.561570
C75	C	1.451199	-0.439757	-1.061519
C76	C	1.951199	0.060243	-0.561519
C77	C	1.451177	-0.439787	-0.951797
C78	C	1.951177	0.060213	-0.451797
C79	C	1.518273	-0.388373	-0.233185
C80	C	2.018273	0.111627	0.266815
C81	C	1.518443	-0.388178	-0.116409
C82	C	2.018443	0.111822	0.383591
H83	H	1.640376	-0.294695	-0.907203
H84	H	2.140376	0.205305	-0.407203
O85	O	1.132841	-0.281045	-0.366719
O86	O	1.632841	0.218955	0.133281
H87	H	1.111820	-0.217779	-0.384872
H88	H	1.611820	0.282221	0.115128
H89	H	1.640406	-0.294633	-1.106250
H90	H	2.140406	0.205367	-0.606250
H91	H	1.396468	-0.481723	-1.106178
H92	H	1.896468	0.018277	-0.606178
H93	H	1.396417	-0.481785	-0.907110
H94	H	1.896417	0.018215	-0.407110
H95	H	0.919318	-0.482033	-0.627868
H96	H	1.419318	0.017967	-0.127868
O97	O	1.132879	-0.495665	-0.645561
O98	O	1.632879	0.004335	-0.145561
H99	H	1.076299	-0.531560	-0.692215
H100	H	1.576299	-0.031560	-0.192215
O101	O	0.904793	-0.281049	-0.366764
O102	O	1.404793	0.218951	0.133236
H103	H	0.925825	-0.294803	-0.284279
H104	H	1.425825	0.205197	0.215721
