data_functionalizedCrystal
_audit_creation_method	'MofGen! by Chris Wilmer'
_symmetry_space_group_name_H-M	'P1'
_symmetry_Int_Tables_number	1
_symmetry_cell_setting	triclinic
loop_
_symmetry_equiv_pos_as_xyz
  x,y,z
_cell_length_a	11.026607
_cell_length_b	14.519731
_cell_length_c	10.065918
_cell_angle_alpha	99.802130
_cell_angle_beta	97.708363
_cell_angle_gamma	96.137435
loop_
_atom_site_label
_atom_site_type_symbol
_atom_site_fract_x
_atom_site_fract_y
_atom_site_fract_z
O1	O	1.627001	0.401010	0.113514
O2	O	2.127001	0.901010	0.613514
O3	O	1.273595	0.357020	0.113514
O4	O	1.773595	0.857020	0.613514
O5	O	1.459652	0.246318	0.113502
O6	O	1.959652	0.746318	0.613502
O7	O	1.440943	0.511712	0.113526
O8	O	1.940943	1.011712	0.613526
O9	O	1.427721	0.216945	-0.113489
O10	O	1.927721	0.716945	0.386511
O11	O	1.241664	0.327646	-0.113477
O12	O	1.741664	0.827646	0.386523
O13	O	1.595070	0.371637	-0.113477
O14	O	2.095070	0.871637	0.386523
Zn15	Zn	1.413297	0.344978	-0.149516
Zn16	Zn	1.913297	0.844978	0.350484
Zn17	Zn	1.455367	0.383679	0.149554
Zn18	Zn	1.955367	0.883679	0.649554
O19	O	1.409012	0.482339	-0.113464
O20	O	1.909012	0.982339	0.386536
C21	C	1.212400	0.334217	0.000018
C22	C	1.712400	0.834217	0.500018
C23	C	1.077631	0.310025	0.000018
C24	C	1.577631	0.810025	0.500018
C25	C	1.003978	0.376826	0.000025
C26	C	1.503978	0.876826	0.500025
C27	C	0.864687	0.351823	0.000024
C28	C	1.364687	0.851823	0.500024
C29	C	1.442810	0.197127	0.000006
C30	C	1.942810	0.697127	0.500006
C31	C	1.440182	0.094314	0.000005
C32	C	1.940182	0.594314	0.500005
C33	C	1.438048	0.010819	0.000008
C34	C	1.938048	0.510819	0.500008
C35	C	1.435382	-0.093928	0.000019
C36	C	1.935382	0.406072	0.500019
C37	C	1.433266	-0.177415	0.000027
C38	C	1.933266	0.322585	0.500027
C39	C	1.430599	-0.282169	0.000035
C40	C	1.930599	0.217831	0.500035
C41	C	1.656265	0.394440	0.000022
C42	C	2.156265	0.894440	0.500022
C43	C	1.791035	0.418634	0.000031
C44	C	2.291035	0.918634	0.500031
C45	C	1.425855	0.531530	0.000034
C46	C	1.925855	1.031530	0.500034
C47	C	1.428483	0.634344	0.000044
C48	C	1.928483	1.134344	0.500044
N49	N	1.384594	0.318567	-0.353624
N50	N	1.884594	0.818567	0.146376
C51	C	1.445373	0.374488	-0.421399
C52	C	1.945373	0.874488	0.078601
C53	C	1.423292	0.354154	-0.578568
C54	C	1.923292	0.854154	-0.078568
N55	N	1.484080	0.410084	0.353661
N56	N	1.984080	0.910084	0.853661
H57	H	0.831091	0.494339	0.000029
H58	H	1.331091	0.994339	0.500029
Cl59	Cl	0.802846	0.234937	0.000004
Cl60	Cl	1.302846	0.734937	0.500004
Cl61	Cl	1.065822	0.493705	0.000032
Cl62	Cl	1.565822	0.993705	0.500032
H63	H	1.316215	0.255634	-0.411956
H64	H	1.816215	0.755634	0.088044
Cl65	Cl	1.015784	0.193143	-0.000003
Cl66	Cl	1.515784	0.693143	0.499997
Cl67	Cl	1.317716	0.256983	-0.668610
Cl68	Cl	1.817716	0.756983	-0.168610
H69	H	1.513759	0.437416	-0.363067
H70	H	2.013759	0.937416	0.136933
H71	H	1.552469	0.473018	-0.588014
H72	H	2.052469	0.973018	-0.088014
