data_functionalizedCrystal
_audit_creation_method	'MofGen! by Chris Wilmer'
_symmetry_space_group_name_H-M	'P1'
_symmetry_Int_Tables_number	1
_symmetry_cell_setting	triclinic
loop_
_symmetry_equiv_pos_as_xyz
  x,y,z
_cell_length_a	14.044220
_cell_length_b	16.109301
_cell_length_c	14.586319
_cell_angle_alpha	89.994786
_cell_angle_beta	90.001391
_cell_angle_gamma	88.325179
loop_
_atom_site_label
_atom_site_type_symbol
_atom_site_fract_x
_atom_site_fract_y
_atom_site_fract_z
O1	O	1.257643	0.200436	-0.076149
O2	O	0.981677	0.193203	-0.076172
O3	O	1.127241	0.076352	-0.076150
O4	O	1.112079	0.317286	-0.076170
O5	O	1.127231	0.076350	0.076331
O6	O	0.981666	0.193200	0.076309
O7	O	1.257633	0.200433	0.076332
Cu8	Cu	1.119649	0.196816	0.090243
Cu9	Cu	1.119661	0.196820	-0.090083
O10	O	1.112069	0.317284	0.076311
C11	C	1.126622	0.045330	0.000091
C12	C	1.124781	-0.047102	0.000092
C13	C	0.946358	0.190036	0.000066
C14	C	0.841135	0.180592	0.000058
C15	C	1.206874	-0.263266	0.000084
C16	C	1.205137	-0.350116	0.000076
C17	C	1.032429	-0.343091	0.000066
C18	C	1.034168	-0.256243	0.000067
C19	C	1.121393	-0.216333	0.000081
C20	C	1.117917	-0.390031	0.000072
C21	C	1.116032	-0.484197	0.000064
C22	C	1.123278	-0.122161	0.000087
C23	C	0.648479	0.163326	0.000077
C24	C	0.590825	0.230306	0.000075
C25	C	0.483625	0.220699	0.000086
C26	C	0.755690	0.172932	0.000066
C27	C	1.292952	0.203600	0.000093
C28	C	1.398175	0.213044	0.000095
C29	C	1.112688	0.348306	0.000068
C30	C	1.114529	0.440738	0.000061
N31	N	1.119647	0.196814	0.217075
N32	N	1.119670	0.196816	-0.216915
C33	C	1.184125	0.145093	0.452091
C34	C	1.184128	0.145092	0.548072
C35	C	1.055186	0.248539	0.548063
C36	C	1.055179	0.248536	0.452083
C37	C	1.119654	0.196814	0.404100
C38	C	1.119663	0.196816	0.596061
C39	C	1.119666	0.196814	0.700128
C40	C	1.119651	0.196815	0.300026
H41	H	1.274744	-0.388326	0.000077
O42	O	0.992599	0.298899	0.594572
C43	C	0.937045	0.439320	0.623957
C44	C	1.007963	0.382380	0.571217
H45	H	0.949455	0.506827	0.605109
H46	H	0.861114	0.422884	0.605071
H47	H	0.948107	0.430399	0.700797
H48	H	0.996988	0.391271	0.494366
H49	H	1.083869	0.398830	0.590179
O50	O	0.947786	-0.381994	0.000102
C51	C	0.868564	-0.512674	0.000048
C52	C	0.964490	-0.468726	0.000025
H53	H	0.882037	-0.582804	-0.000034
H54	H	0.826308	-0.493931	0.063874
H55	H	0.826324	-0.493812	-0.063752
H56	H	1.006807	-0.487566	0.063781
H57	H	1.006674	-0.487470	-0.063844
H58	H	0.617330	0.098774	0.000087
O59	O	0.951038	-0.210772	0.000105
C60	C	0.779552	-0.212961	0.000036
C61	C	0.873618	-0.264558	0.000020
H62	H	0.716934	-0.256426	-0.000052
H63	H	0.775982	-0.172150	0.063863
H64	H	0.776108	-0.172101	-0.063763
H65	H	0.877126	-0.305466	0.063776
H66	H	0.877150	-0.305316	-0.063849
O67	O	0.628019	0.307310	-0.000118
C68	C	0.726693	0.404099	-0.079150
C69	C	0.684616	0.316878	-0.079042
H70	H	0.772477	0.411857	-0.142943
H71	H	0.666403	0.453048	-0.079218
H72	H	0.772403	0.411943	-0.015320
H73	H	0.638916	0.308953	-0.142861
H74	H	0.744951	0.267974	-0.078927
H75	H	1.277898	-0.230774	0.000094
H76	H	1.236623	0.102977	0.413025
O77	O	1.246848	0.094827	0.594549
C78	C	1.374704	-0.007813	0.584423
C79	C	1.303738	0.049089	0.531675
H80	H	1.420704	-0.044820	0.533613
H81	H	1.422108	0.031579	0.629328
H82	H	1.333782	-0.052366	0.629388
H83	H	1.344582	0.093652	0.486661
H84	H	1.256335	0.009645	0.486828
O85	O	0.992681	0.298828	0.405359
C86	C	0.972466	0.410896	0.297020
C87	C	1.043347	0.353987	0.349861
H88	H	1.013402	0.455517	0.252152
H89	H	0.925139	0.371511	0.252030
H90	H	0.926374	0.447829	0.347819
H91	H	1.089502	0.317043	0.299128
H92	H	1.090609	0.393418	0.394865
