data_functionalizedCrystal
_audit_creation_method	'MofGen! by Chris Wilmer'
_symmetry_space_group_name_H-M	'P1'
_symmetry_Int_Tables_number	1
_symmetry_cell_setting	triclinic
loop_
_symmetry_equiv_pos_as_xyz
  x,y,z
_cell_length_a	15.698487
_cell_length_b	18.760492
_cell_length_c	18.760487
_cell_angle_alpha	90.032206
_cell_angle_beta	60.019852
_cell_angle_gamma	59.999370
loop_
_atom_site_label
_atom_site_type_symbol
_atom_site_fract_x
_atom_site_fract_y
_atom_site_fract_z
Zr1	Zr	0.932397	-0.093102	0.686687
O2	O	1.110108	-0.206985	0.572876
O3	O	0.754686	-0.058193	0.721576
O4	O	0.932397	-0.206897	0.721584
O5	O	0.932397	0.059022	0.572862
O6	O	0.932397	-0.206825	0.838886
O7	O	0.932397	-0.058281	0.572869
O8	O	0.614504	0.059179	0.838873
O9	O	1.250289	-0.206982	0.572876
O10	O	0.827781	-0.043248	0.823998
O11	O	0.827781	0.044240	0.736451
O12	O	1.037013	-0.130840	0.736460
O13	O	1.037013	-0.043352	0.648914
Zr14	Zr	0.932396	0.094098	0.873762
Zr15	Zr	0.932397	-0.092987	0.873771
Zr16	Zr	0.932397	0.093983	0.686677
Zr17	Zr	1.155970	-0.093098	0.686687
Zr18	Zr	0.708823	0.094093	0.873762
O19	O	1.110107	0.059189	0.838872
O20	O	1.110108	-0.206821	0.838886
O21	O	1.110108	0.059025	0.572862
O22	O	0.754685	0.207981	0.987572
O23	O	0.754686	-0.058029	0.987586
O24	O	0.754686	0.207817	0.721562
O25	O	0.932396	-0.058026	0.987586
O26	O	0.932396	0.207893	0.838865
O27	O	0.932396	0.207820	0.721562
O28	O	0.932396	0.059277	0.987580
O29	O	1.250289	-0.206891	0.721583
O30	O	0.614504	0.207886	0.838865
O31	O	0.614504	0.207978	0.987573
O32	O	0.614504	0.059271	0.987580
O33	O	1.250289	-0.058275	0.572868
O34	O	1.250289	-0.058184	0.721576
O35	O	0.827781	0.131835	0.823988
O36	O	0.827781	0.044348	0.911535
O37	O	1.037012	-0.043244	0.823997
O38	O	1.037012	0.044244	0.736451
C39	C	0.652741	0.000492	0.780225
C40	C	0.557828	0.000491	0.780225
C41	C	0.932397	0.000354	0.546210
C42	C	0.932397	0.000305	0.466788
C43	C	0.932396	0.234512	0.780212
C44	C	0.932396	0.313934	0.780208
C45	C	0.384046	0.000506	0.780222
C46	C	0.480750	0.000500	0.780222
C47	C	1.212052	0.000503	0.780224
C48	C	1.306965	0.000505	0.780224
C49	C	0.932397	-0.233516	0.780236
C50	C	0.932397	-0.312939	0.780241
C51	C	0.823176	0.695473	0.825933
C52	C	1.041617	0.604022	0.734543
C53	C	1.041619	0.529400	0.734534
C54	C	0.932397	0.537812	0.780227
C55	C	0.823174	0.620846	0.825928
C56	C	1.150840	0.446361	0.688841
C57	C	1.150847	0.371732	0.688831
C58	C	1.041624	0.380143	0.734519
C59	C	0.932396	0.463184	0.780222
C60	C	0.823174	0.471596	0.825914
C61	C	0.713945	0.554636	0.871612
C62	C	0.713951	0.629257	0.871616
C63	C	1.041618	0.305522	0.734515
C64	C	0.823173	0.396968	0.825909
C65	C	1.041618	-0.045072	0.085277
C66	C	0.823176	0.046375	0.176672
C67	C	0.823174	0.046300	0.251294
C68	C	0.932396	0.000537	0.242910
C69	C	1.041619	-0.045151	0.159905
C70	C	0.713953	0.091980	0.334305
C71	C	0.713947	0.091906	0.408933
C72	C	0.823170	0.046147	0.400550
C73	C	0.932397	0.000459	0.317538
C74	C	1.041619	-0.045304	0.309154
C75	C	1.150848	-0.090989	0.226143
C76	C	1.150842	-0.090909	0.151522
C77	C	0.823176	0.046068	0.475171
C78	C	1.041621	-0.045383	0.383782
C79	C	0.932396	0.000642	1.014239
C80	C	0.932396	0.000691	1.093661
C81	C	0.652741	0.000636	1.014239
C82	C	0.557828	0.000684	1.093661
C83	C	0.652741	0.234507	0.780212
C84	C	0.557828	0.313927	0.780208
C85	C	0.652740	0.234651	1.014227
C86	C	0.557827	0.314120	1.093645
C87	C	1.212053	-0.233655	0.546222
C88	C	1.306966	-0.313124	0.466804
C89	C	1.212053	0.000359	0.546210
C90	C	1.306965	0.000312	0.466787
C91	C	1.212053	-0.233511	0.780236
C92	C	1.306965	-0.312932	0.780240
C93	C	0.513256	-0.045026	1.085265
C94	C	0.424088	-0.045000	1.159884
C95	C	0.379487	0.000743	1.242898
C96	C	0.424068	0.046454	1.251292
C97	C	0.513240	0.046421	1.176674
C98	C	0.513256	0.396956	0.825900
C99	C	0.424088	0.471587	0.825893
C100	C	0.379487	0.463187	0.780199
C101	C	0.424068	0.380150	0.734502
C102	C	0.513241	0.305521	0.734504
C103	C	0.513255	0.305772	1.176647
C104	C	0.424087	0.380435	1.251276
C105	C	0.379486	0.463445	1.242901
C106	C	0.424067	0.471791	1.159891
C107	C	0.513240	0.397129	1.085264
C108	C	1.351549	-0.304776	0.383802
C109	C	1.440745	-0.379439	0.309173
C110	C	1.485350	-0.462449	0.317547
C111	C	1.440764	-0.470795	0.400558
C112	C	1.351575	-0.396134	0.475185
C113	C	1.351547	0.046014	0.475183
C114	C	1.440739	0.045967	0.400565
C115	C	1.485343	0.000222	0.317551
C116	C	1.440759	-0.045486	0.309157
C117	C	1.351573	-0.045443	0.383774
C118	C	1.351538	-0.304504	0.825943
C119	C	1.440706	-0.379121	0.825964
C120	C	1.485307	-0.462164	0.780276
C121	C	1.440726	-0.470590	0.734572
C122	C	1.351553	-0.395974	0.734556
H123	H	0.625017	0.561475	0.908819
O124	O	0.283296	0.543967	1.323399
H125	H	0.202034	0.583370	1.323350
O126	O	1.159407	-0.094788	0.374765
H127	H	1.164674	-0.048725	0.406661
O128	O	0.375957	0.371088	0.685223
H129	H	0.335329	0.334869	0.711639
O130	O	0.283287	0.543684	0.780215
H131	H	0.259779	0.602827	0.819679
H132	H	1.130550	0.237915	0.697312
H133	H	1.130549	-0.082264	0.017687
H134	H	1.557973	-0.523236	0.256774
H135	H	0.549560	0.403811	0.863110
O136	O	0.561298	0.215971	0.685224
H137	H	0.630804	0.165480	0.692891
O138	O	0.375993	0.561142	0.875198
H139	H	0.421973	0.554437	0.906987
O140	O	0.596176	0.718834	0.920914
H141	H	0.543769	0.726461	0.894520
O142	O	1.488797	0.095282	0.409636
H143	H	1.558316	0.087566	0.343808
H144	H	0.549556	0.238188	1.183482
O145	O	0.375999	0.371423	1.340803
H146	H	0.421981	0.301157	1.334081
H147	H	0.387740	0.539388	1.153085
O148	O	0.561280	0.406146	0.995743
H149	H	0.601893	0.442390	0.988150
O150	O	1.303455	-0.215248	0.374759
H151	H	1.349464	-0.222001	0.304499
H152	H	1.239776	-0.128253	0.219326
O153	O	1.488804	-0.370428	0.219646
H154	H	1.442776	-0.300161	0.226368
O155	O	1.268647	-0.140197	0.061993
H156	H	1.250294	-0.132466	0.011513
H157	H	1.477093	-0.538391	0.407366
H158	H	1.315277	-0.402941	0.542767
O159	O	0.376004	-0.094296	1.150821
H160	H	0.421988	-0.126092	1.080559
H161	H	0.306876	0.000763	1.303649
H162	H	1.315237	-0.236893	0.863148
H163	H	0.625031	0.129237	0.341123
O164	O	1.268656	0.282176	0.639537
H165	H	1.273889	0.246013	0.685668
H166	H	1.476995	-0.372244	0.863181
H167	H	1.315237	0.083271	0.542770
O168	O	1.581503	0.000207	0.237072
H169	H	1.604983	0.039691	0.256865
H170	H	0.387741	0.083695	1.318892
H171	H	0.625006	0.129104	0.476518
H172	H	1.557918	-0.522914	0.780295
H173	H	0.549519	0.083649	1.183523
O174	O	1.488871	-0.094824	0.219618
H175	H	1.558367	-0.087162	0.169150
H176	H	1.315278	-0.082656	0.376926
H177	H	1.477054	-0.538214	0.697374
H178	H	1.315272	-0.402848	0.697336
H179	H	0.734244	0.763087	0.863137
O180	O	0.705368	0.406042	0.875215
H181	H	0.629422	0.476319	0.907002
H182	H	1.239763	0.439520	0.651647
O183	O	1.159418	0.594944	0.685255
H184	H	1.141069	0.660785	0.692931
H185	H	0.734253	0.083630	0.183492
O186	O	0.705383	0.095329	0.564702
H187	H	0.653004	0.165592	0.572376
O188	O	0.561364	-0.094375	0.995733
H189	H	0.515390	-0.126161	1.002445
