data_functionalizedCrystal
_audit_creation_method	'MofGen! by Chris Wilmer'
_symmetry_space_group_name_H-M	'P1'
_symmetry_Int_Tables_number	1
_symmetry_cell_setting	triclinic
loop_
_symmetry_equiv_pos_as_xyz
  x,y,z
_cell_length_a	21.295418
_cell_length_b	21.295417
_cell_length_c	21.295411
_cell_angle_alpha	90.021644
_cell_angle_beta	90.043738
_cell_angle_gamma	90.046319
loop_
_atom_site_label
_atom_site_type_symbol
_atom_site_fract_x
_atom_site_fract_y
_atom_site_fract_z
Zn1	Zn	0.962356	-0.250415	0.356234
Zn2	Zn	0.962258	-0.355667	0.250959
Zn3	Zn	0.857079	-0.250445	0.250943
Zn4	Zn	0.857048	-0.355680	0.356155
O5	O	0.909685	-0.303052	0.303573
O6	O	1.050432	-0.264360	0.342308
O7	O	0.948278	-0.341716	0.162867
O8	O	0.871098	-0.162351	0.264937
O9	O	1.050361	-0.341688	0.264963
O10	O	0.948444	-0.162330	0.342293
O11	O	0.871003	-0.264410	0.162856
O12	O	0.768985	-0.264422	0.264861
O13	O	0.871046	-0.341709	0.444255
O14	O	0.768963	-0.341738	0.342160
O15	O	0.948415	-0.264372	0.444313
O16	O	0.948248	-0.443758	0.264887
O17	O	0.870951	-0.443767	0.342175
C18	C	0.746134	-0.303085	0.303500
C19	C	0.676166	-0.303114	0.303484
C20	C	0.643304	-0.343426	0.343674
C21	C	0.577561	-0.343410	0.343702
C22	C	0.544683	-0.303090	0.303530
C23	C	0.577553	-0.262770	0.263337
C24	C	0.643294	-0.262783	0.263315
N25	N	0.441407	-0.298163	0.248472
N26	N	0.378956	-0.298155	0.248495
C27	C	0.346608	-0.303050	0.303596
N28	N	0.379072	-0.307965	0.358675
N29	N	0.441529	-0.307976	0.358650
C30	C	0.473398	-0.303072	0.303550
C31	C	0.242461	-0.343346	0.343820
C32	C	0.176717	-0.343326	0.343849
C33	C	0.176710	-0.262690	0.263479
C34	C	0.242453	-0.262707	0.263455
C35	C	0.275324	-0.303038	0.303625
C36	C	0.909603	-0.466603	0.303538
C37	C	0.909625	-0.536571	0.303544
C38	C	0.949910	-0.569412	0.263342
C39	C	0.949939	-0.635155	0.263356
C40	C	0.909673	-0.668054	0.303566
C41	C	0.869386	-0.635205	0.343776
C42	C	0.869362	-0.569464	0.343765
N43	N	0.854606	-0.771336	0.308340
N44	N	0.854630	-0.833787	0.308347
C45	C	0.909743	-0.866129	0.303602
N46	N	0.964832	-0.833659	0.298838
N47	N	0.964807	-0.771202	0.298828
C48	C	0.909695	-0.739339	0.303582
C49	C	0.950063	-0.970255	0.263413
C50	C	0.950094	-1.035999	0.263431
C51	C	0.869535	-1.036048	0.343848
C52	C	0.869510	-0.970305	0.343833
C53	C	0.909773	-0.937413	0.303612
C54	C	1.073876	-0.303019	0.303646
C55	C	1.143844	-0.303005	0.303677
C56	C	0.909738	-0.303038	0.467763
C57	C	0.909760	-0.303033	0.537731
C58	C	0.909785	-0.138861	0.303622
C59	C	0.909828	-0.068893	0.303642
C60	C	0.909670	-0.303019	0.140021
C61	C	0.909769	-0.302848	0.070054
C62	C	0.950044	-0.262761	0.570629
C63	C	0.950043	-0.262734	0.636371
C64	C	0.909765	-0.302989	0.669214
C65	C	0.869473	-0.343263	0.636308
C66	C	0.869470	-0.343285	0.570567
N67	N	0.904908	-0.358058	0.772428
N68	N	0.904914	-0.358036	0.834879
C69	C	0.909769	-0.302926	0.867289
N70	N	0.914629	-0.247837	0.834888
N71	N	0.914627	-0.247860	0.772430
C72	C	0.909763	-0.302970	0.740499
C73	C	0.950054	-0.262621	0.971472
C74	C	0.950049	-0.262593	1.037216
C75	C	0.869482	-0.343128	1.037151
C76	C	0.869484	-0.343151	0.971409
C77	C	0.909773	-0.302898	0.938573
H78	H	0.982696	-0.542633	0.230593
C79	C	0.994249	-0.671288	0.219127
H80	H	1.018221	-0.642282	0.195169
H81	H	1.021675	-0.696892	0.243240
H82	H	0.970180	-0.696973	0.191675
H83	H	0.269226	-0.376183	0.376531
H84	H	0.982846	-0.229937	0.663162
C85	C	0.825243	-1.072226	0.388081
H86	H	0.801249	-1.043248	0.412025
H87	H	0.797837	-1.097919	0.363974
H88	H	0.849325	-1.097825	0.415547
C89	C	0.140569	-0.387680	0.388051
H90	H	0.169564	-0.411707	0.411962
H91	H	0.114974	-0.363647	0.415538
H92	H	0.114873	-0.415064	0.363914
H93	H	0.982857	-0.229842	0.944736
C94	C	0.140552	-0.218330	0.219298
H95	H	0.096692	-0.224096	0.225067
H96	H	0.151384	-0.176054	0.228591
H97	H	0.151266	-0.227481	0.176977
H98	H	0.836676	-0.376038	0.663053
C99	C	0.825093	-0.671391	0.388004
H100	H	0.830872	-0.715248	0.382249
H101	H	0.834280	-0.660585	0.430310
H102	H	0.782796	-0.660670	0.378733
C103	C	0.278606	-0.218369	0.219243
H104	H	0.322467	-0.224147	0.224986
H105	H	0.267776	-0.227515	0.176934
H106	H	0.267884	-0.176083	0.228543
H107	H	0.836663	-0.376078	0.543782
C108	C	0.825044	-0.533337	0.387986
H109	H	0.801064	-0.562344	0.411935
H110	H	0.849099	-0.507645	0.415438
H111	H	0.797615	-0.507740	0.363861
C112	C	0.994364	-0.218292	1.073403
H113	H	1.018361	-0.194329	1.044429
H114	H	0.970306	-0.190858	1.099032
H115	H	1.021777	-0.242366	1.099068
C116	C	0.825180	-0.387412	1.073270
H117	H	0.830954	-0.381636	1.117136
H118	H	0.782889	-0.378217	1.062467
H119	H	0.834376	-0.429710	1.062499
C120	C	0.994357	-0.934071	0.219180
H121	H	1.018361	-0.963048	0.195245
H122	H	0.970283	-0.908469	0.191715
H123	H	1.021764	-0.908380	0.243295
C124	C	0.825175	-0.387454	0.935220
H125	H	0.801189	-0.411429	0.964193
H126	H	0.797762	-0.363388	0.909555
H127	H	0.849241	-0.414889	0.909591
H128	H	0.670063	-0.376266	0.376384
C129	C	0.994409	-1.072124	0.219206
H130	H	1.018378	-1.043116	0.195248
H131	H	1.021837	-1.097724	0.243321
H132	H	0.970345	-1.097813	0.191754
H133	H	0.550779	-0.229940	0.230630
C134	C	0.541405	-0.387718	0.387948
H135	H	0.570398	-0.411730	0.411878
H136	H	0.515832	-0.363640	0.415417
H137	H	0.515688	-0.415118	0.363854
H138	H	0.670050	-0.229954	0.230588
H139	H	0.836704	-0.943564	0.376567
C140	C	0.994356	-0.218481	0.534513
H141	H	1.018344	-0.194489	0.563525
H142	H	1.021767	-0.242562	0.508884
H143	H	0.970288	-0.191062	0.508854
