data_functionalizedCrystal
_audit_creation_method	'MofGen! by Chris Wilmer'
_symmetry_space_group_name_H-M	'P1'
_symmetry_Int_Tables_number	1
_symmetry_cell_setting	triclinic
loop_
_symmetry_equiv_pos_as_xyz
  x,y,z
_cell_length_a	21.295418
_cell_length_b	25.639239
_cell_length_c	21.295420
_cell_angle_alpha	90.004828
_cell_angle_beta	90.036164
_cell_angle_gamma	90.054499
loop_
_atom_site_label
_atom_site_type_symbol
_atom_site_fract_x
_atom_site_fract_y
_atom_site_fract_z
Zn1	Zn	0.962273	-0.208066	0.356243
Zn2	Zn	0.962174	-0.295463	0.250972
Zn3	Zn	0.857010	-0.208068	0.250952
Zn4	Zn	0.856950	-0.295496	0.356168
O5	O	0.909602	-0.251773	0.303584
O6	O	1.050349	-0.219644	0.342317
O7	O	0.948208	-0.283857	0.162880
O8	O	0.871040	-0.134902	0.264942
O9	O	1.050277	-0.283855	0.264976
O10	O	0.948376	-0.134901	0.342299
O11	O	0.870944	-0.219648	0.162866
O12	O	0.768913	-0.219680	0.264870
O13	O	0.870938	-0.283911	0.444268
O14	O	0.768869	-0.283913	0.342172
O15	O	0.948318	-0.219676	0.444322
O16	O	0.948150	-0.368633	0.264904
O17	O	0.870842	-0.368657	0.342191
C18	C	0.746050	-0.251801	0.303511
C19	C	0.676082	-0.251825	0.303495
C20	C	0.643209	-0.285315	0.343686
C21	C	0.577467	-0.285303	0.343714
C22	C	0.544600	-0.251805	0.303541
C23	C	0.577480	-0.218308	0.263347
C24	C	0.643222	-0.218318	0.263324
N25	N	0.441332	-0.247701	0.248483
N26	N	0.378880	-0.247694	0.248506
C27	C	0.346525	-0.251771	0.303607
N28	N	0.378980	-0.255866	0.358686
N29	N	0.441438	-0.255875	0.358662
C30	C	0.473314	-0.251790	0.303561
C31	C	0.242366	-0.285250	0.343832
C32	C	0.176623	-0.285233	0.343862
C33	C	0.176638	-0.218241	0.263489
C34	C	0.242380	-0.218255	0.263465
C35	C	0.275241	-0.251762	0.303636
C36	C	0.909496	-0.387616	0.303555
C37	C	0.909508	-0.445730	0.303564
C38	C	0.949961	-0.806068	0.263409
C39	C	0.949985	-0.860672	0.263417
O40	O	0.984270	-0.888887	0.229245
N41	N	0.909712	-0.888012	0.303626
C42	C	0.869417	-0.860745	0.343833
O43	O	0.835165	-0.889014	0.378034
C44	C	0.869396	-0.806142	0.343827
C45	C	0.909667	-0.778805	0.303611
C46	C	0.990229	-0.778730	0.223197
C47	C	0.990204	-0.724130	0.223188
C48	C	0.949910	-0.696867	0.263391
C49	C	0.909642	-0.724204	0.303602
C50	C	0.829105	-0.778876	0.384036
C51	C	0.829088	-0.724269	0.384028
C52	C	0.869359	-0.696932	0.343812
C53	C	0.869323	-0.642340	0.343796
N54	N	0.909596	-0.615000	0.303588
C55	C	0.949889	-0.642263	0.263385
C56	C	0.869465	-0.975416	0.343842
C57	C	0.869482	-1.030018	0.343845
C58	C	0.950051	-1.029941	0.263431
C59	C	0.950030	-0.975338	0.263425
C60	C	0.909737	-0.948076	0.303634
C61	C	0.949833	-0.527598	0.263369
C62	C	0.949802	-0.472993	0.263361
C63	C	0.869235	-0.473075	0.343778
C64	C	0.869264	-0.527675	0.343783
C65	C	0.909567	-0.554936	0.303576
O66	O	0.835058	-0.614090	0.377953
O67	O	0.984142	-0.613988	0.229195
C68	C	1.073792	-0.251746	0.303657
C69	C	1.143760	-0.251734	0.303688
C70	C	0.909632	-0.251797	0.467774
C71	C	0.909645	-0.251807	0.537742
C72	C	0.909725	-0.115400	0.303627
C73	C	0.909778	-0.057286	0.303645
C74	C	0.949931	-0.218366	0.570638
C75	C	0.949921	-0.218357	0.636381
C76	C	0.909633	-0.251799	0.669225
C77	C	0.869339	-0.285243	0.636321
C78	C	0.869346	-0.285247	0.570579
N79	N	0.904755	-0.297561	0.772440
N80	N	0.904752	-0.297555	0.834892
C81	C	0.909611	-0.251789	0.867299
N82	N	0.914484	-0.206026	0.834896
N83	N	0.914489	-0.206032	0.772439
C84	C	0.909621	-0.251798	0.740510
C85	C	0.949888	-0.218335	0.971481
C86	C	0.949874	-0.218325	1.037225
C87	C	0.869295	-0.285216	1.037163
C88	C	0.869306	-0.285221	0.971421
C89	C	0.909606	-0.251781	0.938584
C90	C	0.909574	-0.251765	1.140032
C91	C	0.909584	-0.251767	1.070064
H92	H	0.149878	-0.190964	0.230781
H93	H	0.149859	-0.312504	0.376594
H94	H	0.836648	-0.953222	0.376583
Br95	Br	0.532877	-0.172842	0.208830
H96	H	0.669987	-0.191044	0.230596
Br97	Br	0.774454	-0.815963	0.438625
Br98	Br	1.004562	-0.172944	1.081871
Br99	Br	0.687803	-0.330788	0.398205
Br100	Br	0.814657	-0.330626	0.680893
Br101	Br	0.814609	-0.330596	1.081730
Br102	Br	1.004583	-0.172956	0.681036
Br103	Br	0.814631	-0.330609	0.926773
H104	H	0.269146	-0.190986	0.230734
H105	H	0.836537	-0.312479	0.543796
H106	H	0.796277	-0.702075	0.416773
H107	H	0.982595	-0.450736	0.230611
H108	H	0.550696	-0.312574	0.376445
Br109	Br	1.004577	-0.172952	0.926912
Br110	Br	1.004531	-0.564586	0.208802
H111	H	0.836474	-0.549935	0.376532
H112	H	0.269123	-0.312530	0.376545
H113	H	1.022997	-0.701875	0.190443
H114	H	1.023044	-0.800922	0.190459
H115	H	0.982822	-0.953083	0.230679
H116	H	0.836683	-1.052272	0.376587
Br117	Br	1.004733	-1.066952	0.208867
H118	H	0.836427	-0.450869	0.376508
H119	H	0.982745	-0.191136	0.543906
