data_functionalizedCrystal
_audit_creation_method	'MofGen! by Chris Wilmer'
_symmetry_space_group_name_H-M	'P1'
_symmetry_Int_Tables_number	1
_symmetry_cell_setting	triclinic
loop_
_symmetry_equiv_pos_as_xyz
  x,y,z
_cell_length_a	12.827893
_cell_length_b	16.120484
_cell_length_c	12.827885
_cell_angle_alpha	92.863938
_cell_angle_beta	89.980538
_cell_angle_gamma	92.925431
loop_
_atom_site_label
_atom_site_type_symbol
_atom_site_fract_x
_atom_site_fract_y
_atom_site_fract_z
Zn1	Zn	1.576506	-0.331866	-0.611895
Zn2	Zn	1.826506	-0.081866	-0.361895
Zn3	Zn	2.076506	0.168134	-0.111895
Zn4	Zn	2.326506	0.418134	0.138105
Zn5	Zn	1.567506	-0.471301	-0.445998
Zn6	Zn	1.817506	-0.221301	-0.195998
Zn7	Zn	2.067506	0.028699	0.054002
Zn8	Zn	2.317506	0.278699	0.304002
Zn9	Zn	1.401744	-0.331907	-0.437171
Zn10	Zn	1.651744	-0.081907	-0.187171
Zn11	Zn	1.901744	0.168093	0.062829
Zn12	Zn	2.151744	0.418093	0.312829
Zn13	Zn	1.392843	-0.471239	-0.620694
Zn14	Zn	1.642843	-0.221239	-0.370694
Zn15	Zn	1.892843	0.028761	-0.120694
Zn16	Zn	2.142843	0.278761	0.129306
O17	O	1.484650	-0.401579	-0.528940
O18	O	1.734650	-0.151579	-0.278940
O19	O	1.984650	0.098421	-0.028940
O20	O	2.234650	0.348421	0.221060
O21	O	1.721547	-0.350372	-0.589900
O22	O	1.971547	-0.100372	-0.339900
O23	O	2.221547	0.149628	-0.089900
O24	O	2.471547	0.399628	0.160100
O25	O	1.545476	-0.452853	-0.298594
O26	O	1.795476	-0.202853	-0.048594
O27	O	2.045476	0.047147	0.201406
O28	O	2.295476	0.297147	0.451406
O29	O	1.432418	-0.215236	-0.452972
O30	O	1.682418	0.034764	-0.202972
O31	O	1.932418	0.284764	0.047028
O32	O	2.182418	0.534764	0.297028
O33	O	1.714936	-0.452814	-0.468017
O34	O	1.964936	-0.202814	-0.218017
O35	O	2.214936	0.047186	0.031983
O36	O	2.464936	0.297186	0.281983
O37	O	1.560814	-0.215206	-0.581341
O38	O	1.810814	0.034794	-0.331341
O39	O	2.060814	0.284794	-0.081341
O40	O	2.310814	0.534794	0.168659
O41	O	1.423691	-0.350441	-0.292109
O42	O	1.673691	-0.100441	-0.042109
O43	O	1.923691	0.149559	0.207891
O44	O	2.173691	0.399559	0.457891
O45	O	1.254328	-0.350381	-0.461505
O46	O	1.504328	-0.100381	-0.211505
O47	O	1.754328	0.149619	0.038495
O48	O	2.004328	0.399619	0.288495
O49	O	1.417248	-0.452708	-0.765761
O50	O	1.667248	-0.202708	-0.515761
O51	O	1.917248	0.047292	-0.265761
O52	O	2.167248	0.297292	-0.015761
O53	O	1.247789	-0.452748	-0.596338
O54	O	1.497789	-0.202748	-0.346338
O55	O	1.747789	0.047252	-0.096338
O56	O	1.997789	0.297252	0.153662
O57	O	1.552184	-0.350311	-0.759296
O58	O	1.802184	-0.100311	-0.509296
O59	O	2.052184	0.149689	-0.259296
O60	O	2.302184	0.399689	-0.009296
O61	O	1.536846	-0.587959	-0.476549
O62	O	1.786846	-0.337959	-0.226549
O63	O	2.036846	-0.087959	0.023451
O64	O	2.286846	0.162041	0.273451
O65	O	1.408522	-0.587913	-0.604897
O66	O	1.658522	-0.337913	-0.354897
O67	O	1.908522	-0.087913	-0.104897
O68	O	2.158522	0.162087	0.145103
C69	C	1.213141	-0.401562	-0.528919
C70	C	1.463141	-0.151562	-0.278919
C71	C	1.713141	0.098438	-0.028919
C72	C	1.963141	0.348438	0.221081
C73	C	1.096987	-0.401576	-0.528936
C74	C	1.346987	-0.151576	-0.278936
C75	C	1.596987	0.098424	-0.028936
C76	C	1.846987	0.348424	0.221064
C77	C	1.041989	-0.452309	-0.595563
C78	C	1.291989	-0.202309	-0.345563
C79	C	1.541989	0.047691	-0.095563
C80	C	1.791989	0.297691	0.154437
C81	C	0.921938	-0.452324	-0.595582
C82	C	1.171938	-0.202324	-0.345582
C83	C	1.421938	0.047676	-0.095582
C84	C	1.671938	0.297676	0.154418
C85	C	1.470770	-0.618186	-0.542658
C86	C	1.720770	-0.368186	-0.292658
C87	C	1.970770	-0.118186	-0.042658
C88	C	2.220770	0.131814	0.207342
C89	C	1.464927	-0.710851	-0.548562
C90	C	1.714927	-0.460851	-0.298562
C91	C	1.964927	-0.210851	-0.048562
C92	C	2.214927	0.039149	0.201438
C93	C	1.454267	-0.880512	-0.559362
C94	C	1.704267	-0.630512	-0.309362
C95	C	1.954267	-0.380512	-0.059362
C96	C	2.204267	-0.130512	0.190638
C97	C	1.515220	-0.921804	-0.498534
C98	C	1.765220	-0.671804	-0.248534
C99	C	2.015220	-0.421804	0.001466
C100	C	2.265220	-0.171804	0.251466
C101	C	1.509289	-1.016209	-0.504544
C102	C	1.759289	-0.766209	-0.254544
C103	C	2.009289	-0.516209	-0.004544
C104	C	2.259289	-0.266209	0.245456
C105	C	1.460197	-0.786099	-0.553355
C106	C	1.710197	-0.536099	-0.303355
C107	C	1.960197	-0.286099	-0.053355
C108	C	2.210197	-0.036099	0.196645
C109	C	1.757219	-0.401595	-0.528962
C110	C	2.007219	-0.151595	-0.278962
C111	C	2.257219	0.098405	-0.028962
C112	C	2.507219	0.348405	0.221038
C113	C	1.873372	-0.401602	-0.528971
C114	C	2.123372	-0.151602	-0.278971
C115	C	2.373372	0.098398	-0.028971
C116	C	2.623372	0.348398	0.221029
C117	C	1.484727	-0.401498	-0.801505
C118	C	1.734727	-0.151498	-0.551505
C119	C	1.984727	0.098502	-0.301505
C120	C	2.234727	0.348502	-0.051505
C121	C	1.484760	-0.401464	-0.917656
C122	C	1.734760	-0.151464	-0.667656
C123	C	1.984760	0.098536	-0.417656
C124	C	2.234760	0.348536	-0.167656
C125	C	1.498613	-0.184125	-0.515191
C126	C	1.748613	0.065875	-0.265191
C127	C	1.998613	0.315875	-0.015191
C128	C	2.248613	0.565875	0.234809
C129	C	1.504563	-0.091460	-0.509332
C130	C	1.754563	0.158540	-0.259332
C131	C	2.004563	0.408540	-0.009332
C132	C	2.254563	0.658540	0.240668
C133	C	1.424518	-0.350777	-0.966231
C134	C	1.674518	-0.100777	-0.716231
C135	C	1.924518	0.149223	-0.466231
C136	C	2.174518	0.399223	-0.216231
C137	C	1.424550	-0.350741	-1.086279
C138	C	1.674550	-0.100741	-0.836279
C139	C	1.924550	0.149259	-0.586279
C140	C	2.174550	0.399259	-0.336279
C141	C	1.484637	-0.401598	-0.257431
C142	C	1.734637	-0.151598	-0.007431
C143	C	1.984637	0.098402	0.242569
C144	C	2.234637	0.348402	0.492569
C145	C	1.484822	-0.401397	-0.141266
C146	C	1.734822	-0.151397	0.108734
C147	C	1.984822	0.098603	0.358734
C148	C	2.234822	0.348603	0.608734
H149	H	1.083781	-0.495730	-0.652594
H150	H	1.333781	-0.245730	-0.402594
H151	H	1.583781	0.004270	-0.152594
H152	H	1.833781	0.254270	0.097406
C153	C	0.937241	-0.342917	-0.451907
C154	C	1.187241	-0.092917	-0.201907
C155	C	1.437241	0.157083	0.048093
C156	C	1.687241	0.407083	0.298093
N157	N	0.985356	-0.298713	-0.393864
N158	N	1.235356	-0.048713	-0.143864
N159	N	1.485356	0.201287	0.106136
N160	N	1.735356	0.451287	0.356136
H161	H	1.571858	-0.886255	-0.441944
H162	H	1.821858	-0.636255	-0.191944
H163	H	2.071858	-0.386255	0.058056
H164	H	2.321858	-0.136255	0.308056
H165	H	1.372914	-0.307413	-0.918943
H166	H	1.622914	-0.057413	-0.668943
H167	H	1.872914	0.192587	-0.418943
H168	H	2.122914	0.442587	-0.168943
C169	C	1.377744	-0.928536	-0.635797
C170	C	1.627744	-0.678536	-0.385797
C171	C	1.877744	-0.428536	-0.135797
C172	C	2.127744	-0.178536	0.114203
N173	N	1.320103	-0.964716	-0.693362
N174	N	1.570103	-0.714716	-0.443362
N175	N	1.820103	-0.464716	-0.193362
N176	N	2.070103	-0.214716	0.056638
C177	C	1.354872	-0.292113	-1.142727
C178	C	1.604872	-0.042113	-0.892727
C179	C	1.854872	0.207887	-0.642727
C180	C	2.104872	0.457887	-0.392727
N181	N	1.302387	-0.247954	-1.185246
N182	N	1.552387	0.002046	-0.935246
N183	N	1.802387	0.252046	-0.685246
N184	N	2.052387	0.502046	-0.435246
H185	H	0.874653	-0.495761	-0.652621
H186	H	1.124653	-0.245761	-0.402621
H187	H	1.374653	0.004239	-0.152621
H188	H	1.624653	0.254239	0.097379
H189	H	1.055196	-0.358148	-0.471913
H190	H	1.305196	-0.108148	-0.221913
H191	H	1.555196	0.141852	0.028087
H192	H	1.805196	0.391852	0.278087
C193	C	1.554503	-0.460027	-1.084825
C194	C	1.804503	-0.210027	-0.834825
C195	C	2.054503	0.039973	-0.584825
C196	C	2.304503	0.289973	-0.334825
N197	N	1.606986	-0.504188	-1.042307
N198	N	1.856986	-0.254188	-0.792307
N199	N	2.106986	-0.004188	-0.542307
N200	N	2.356986	0.245812	-0.292307
H201	H	1.536358	-0.444833	-0.964944
H202	H	1.786358	-0.194833	-0.714944
H203	H	2.036358	0.055167	-0.464944
H204	H	2.286358	0.305167	-0.214944
