data_functionalizedCrystal
_audit_creation_method	'MofGen! by Chris Wilmer'
_symmetry_space_group_name_H-M	'P1'
_symmetry_Int_Tables_number	1
_symmetry_cell_setting	triclinic
loop_
_symmetry_equiv_pos_as_xyz
  x,y,z
_cell_length_a	19.188930
_cell_length_b	9.065218
_cell_length_c	8.140239
_cell_angle_alpha	89.998449
_cell_angle_beta	89.991748
_cell_angle_gamma	84.080333
loop_
_atom_site_label
_atom_site_type_symbol
_atom_site_fract_x
_atom_site_fract_y
_atom_site_fract_z
O1	O	0.102369	1.956844	-0.136639
O2	O	0.110766	1.527268	-0.136643
O3	O	0.005008	1.754452	-0.136609
O4	O	0.208127	1.729659	-0.136674
O5	O	0.005008	1.754445	0.136618
O6	O	0.110765	1.527260	0.136584
O7	O	0.102368	1.956837	0.136588
Zn8	Zn	0.106567	1.742047	0.179966
Zn9	Zn	0.106568	1.742057	-0.180022
O10	O	0.208126	1.729652	0.136553
C11	C	0.109959	1.472305	-0.000030
C12	C	0.107546	1.308546	-0.000030
C13	C	-0.021009	1.753646	0.000009
C14	C	-0.098533	1.751236	0.000023
C15	C	-0.142421	1.884540	0.000032
C16	C	-0.215262	1.882276	0.000006
C17	C	-0.244212	1.746699	0.000003
C18	C	-0.200314	1.613377	-0.000015
C19	C	-0.127474	1.615646	-0.000005
N20	N	-0.353023	1.643065	0.092987
N21	N	-0.422218	1.640920	0.092981
C22	C	-0.463674	1.739858	-0.000030
N23	N	-0.433322	1.841045	-0.093014
N24	N	-0.364121	1.843195	-0.093001
C25	C	-0.323194	1.744225	-0.000008
C26	C	-0.586546	1.870716	-0.000052
C27	C	-0.659388	1.868446	-0.000088
C28	C	-0.644438	1.599544	-0.000092
C29	C	-0.571598	1.601818	-0.000072
C30	C	-0.542656	1.737408	-0.000044
C31	C	0.234144	1.730458	-0.000068
C32	C	0.311667	1.732869	-0.000093
C33	C	0.103176	2.011799	-0.000029
C34	C	0.105589	2.175558	-0.000040
N35	N	0.106566	1.742052	0.425649
N36	N	0.106563	1.742064	-0.425705
H37	H	-0.251003	1.990832	0.000007
C38	C	-0.305336	1.490507	-0.000006
C39	C	-0.232133	1.464349	-0.000011
H40	H	-0.324977	1.398497	0.000001
H41	H	-0.320333	1.545370	-0.095279
H42	H	-0.320343	1.545375	0.095282
H43	H	-0.217126	1.409489	-0.095306
H44	H	-0.217130	1.409462	0.095272
C45	C	-0.481019	1.448382	0.140392
C46	C	-0.523347	1.455287	-0.000065
H47	H	-0.451229	1.357919	0.140383
H48	H	-0.509753	1.453071	0.235651
H49	H	-0.453361	1.529462	0.140381
H50	H	-0.551010	1.374212	-0.000048
H51	H	-0.494610	1.450583	-0.095348
C52	C	-0.749951	2.021914	-0.140563
C53	C	-0.707632	2.014990	-0.000091
H54	H	-0.779730	2.112391	-0.140567
H55	H	-0.777614	1.940858	-0.140567
H56	H	-0.721205	2.017213	-0.235821
H57	H	-0.736377	2.019680	0.095169
H58	H	-0.679965	2.096069	-0.000071
H59	H	-0.118862	1.994948	0.000050
H60	H	-0.668009	1.489155	-0.000103
C61	C	-0.513323	2.029280	0.140426
C62	C	-0.554730	2.019756	-0.000042
H63	H	-0.493688	2.121296	0.140432
H64	H	-0.476759	1.950225	0.140425
H65	H	-0.541446	2.022803	0.235688
H66	H	-0.526606	2.026222	-0.095304
H67	H	-0.591299	2.098833	-0.000055
C68	C	-0.120015	1.349622	-0.000009
C69	C	-0.079227	1.469106	0.000001
H70	H	-0.090227	1.259156	0.000007
H71	H	-0.148724	1.354330	-0.095293
H72	H	-0.148749	1.354337	0.095269
H73	H	-0.050497	1.464398	-0.095284
H74	H	-0.050507	1.464396	0.095294
