data_functionalizedCrystal
_audit_creation_method	'MofGen! by Chris Wilmer'
_symmetry_space_group_name_H-M	'P1'
_symmetry_Int_Tables_number	1
_symmetry_cell_setting	triclinic
loop_
_symmetry_equiv_pos_as_xyz
  x,y,z
_cell_length_a	23.532355
_cell_length_b	23.532357
_cell_length_c	18.266242
_cell_angle_alpha	89.988103
_cell_angle_beta	89.996779
_cell_angle_gamma	82.827896
loop_
_atom_site_label
_atom_site_type_symbol
_atom_site_fract_x
_atom_site_fract_y
_atom_site_fract_z
O1	O	0.755270	0.068997	-0.060790
O2	O	0.589401	0.079031	-0.060815
O3	O	0.677352	-0.008921	-0.060787
O4	O	0.667319	0.156949	-0.060818
O5	O	0.677337	-0.008925	0.060975
O6	O	0.589386	0.079027	0.060947
O7	O	0.755255	0.068992	0.060972
Zn8	Zn	0.672318	0.074009	0.080292
Zn9	Zn	0.672338	0.074015	-0.080135
O10	O	0.667304	0.156944	0.060944
C11	C	0.568177	0.078778	0.000063
C12	C	0.504958	0.078024	0.000055
C13	C	0.677094	-0.030140	0.000097
C14	C	0.676339	-0.093358	0.000103
C15	C	0.112937	0.073283	0.066459
C16	C	0.053538	0.072566	0.066462
O17	O	0.022812	0.072173	0.122908
N18	N	0.023837	0.072212	0.000090
C19	C	0.053540	0.072571	-0.066290
O20	O	0.022824	0.072204	-0.122744
C21	C	0.112939	0.073284	-0.066292
C22	C	0.142636	0.073643	0.000084
C23	C	0.142634	0.073642	0.132830
C24	C	0.202029	0.074360	0.132827
C25	C	0.231727	0.074720	0.066452
C26	C	0.202031	0.074362	0.000081
C27	C	0.142641	0.073638	-0.132671
C28	C	0.202044	0.074351	-0.132667
C29	C	0.231741	0.074711	-0.066291
C30	C	0.291124	0.075440	-0.066296
N31	N	0.320824	0.075794	0.000076
C32	C	0.291126	0.075434	0.066450
C33	C	-0.071201	0.071072	-0.066280
C34	C	-0.130599	0.070362	-0.066279
C35	C	-0.130597	0.070356	0.066473
C36	C	-0.071199	0.071070	0.066471
C37	C	-0.041501	0.071425	0.000092
C38	C	0.415860	0.076943	0.066438
C39	C	0.475260	0.077664	0.066429
C40	C	0.475253	0.077667	-0.066322
C41	C	0.415858	0.076949	-0.066314
C42	C	0.386163	0.076585	0.000073
O43	O	0.321887	0.075831	-0.122714
O44	O	0.321851	0.075793	0.122895
C45	C	0.671610	-0.485366	-0.066309
C46	C	0.670893	-0.544765	-0.066314
O47	O	0.670510	-0.575479	-0.122761
N48	N	0.670529	-0.574479	0.000058
C49	C	0.670877	-0.544789	0.066438
O50	O	0.670501	-0.575517	0.122892
C51	C	0.671590	-0.485390	0.066442
C52	C	0.671960	-0.455681	0.000066
C53	C	0.671979	-0.455656	-0.132680
C54	C	0.672697	-0.396261	-0.132675
C55	C	0.673047	-0.366576	-0.066300
C56	C	0.672678	-0.396286	0.000070
C57	C	0.671934	-0.455701	0.132821
C58	C	0.672646	-0.396298	0.132819
C59	C	0.673016	-0.366589	0.066443
C60	C	0.673746	-0.307205	0.066450
N61	N	0.674109	-0.277492	0.000078
C62	C	0.673760	-0.307177	-0.066297
C63	C	0.669378	-0.669530	0.066426
C64	C	0.668669	-0.728929	0.066423
C65	C	0.668684	-0.728901	-0.066329
C66	C	0.669397	-0.669502	-0.066326
C67	C	0.669742	-0.639817	0.000054
C68	C	0.675269	-0.182443	-0.066282
C69	C	0.675990	-0.123043	-0.066272
C70	C	0.675972	-0.123076	0.066480
C71	C	0.675254	-0.182471	0.066470
C72	C	0.674901	-0.212153	0.000083
O73	O	0.674127	-0.276453	0.122868
O74	O	0.674128	-0.276441	-0.122741
C75	C	0.776479	0.069245	0.000092
C76	C	0.839698	0.069999	0.000096
C77	C	0.667562	0.178163	0.000059
C78	C	0.668317	0.241381	0.000047
N79	N	0.672309	0.074004	0.189779
N80	N	0.672351	0.074014	-0.189622
C81	C	0.711266	0.035078	0.228100
C82	C	0.711270	0.035076	0.304745
C83	C	0.672322	0.074009	0.343066
C84	C	0.633357	0.112938	0.304735
C85	C	0.633351	0.112936	0.228092
N86	N	0.664778	0.124446	0.463388
N87	N	0.664788	0.124447	0.536196
C88	C	0.672338	0.074017	0.573988
N89	N	0.679889	0.023585	0.536222
N90	N	0.679882	0.023586	0.463407
C91	C	0.672324	0.074015	0.426173
C92	C	0.711301	0.035085	0.695417
C93	C	0.711301	0.035081	0.772063
C94	C	0.633390	0.112949	0.772052
C95	C	0.633388	0.112947	0.695407
C96	C	0.672346	0.074016	0.657094
H97	H	0.499436	0.077958	0.120483
C98	C	0.590572	0.155811	0.653252
N99	N	0.558334	0.188110	0.621501
C100	C	0.671619	-0.488304	-0.205704
N101	N	0.671361	-0.512892	-0.260711
C102	C	0.668268	-0.761603	0.139441
N103	N	0.667962	-0.786211	0.194442
H104	H	0.742987	0.003377	0.196908
C105	C	0.109974	0.073254	0.205854
N106	N	0.085377	0.072968	0.260860
C107	C	-0.038537	0.071459	0.139489
N108	N	-0.013939	0.071750	0.194490
H109	H	0.391677	0.076666	-0.120363
H110	H	0.742995	0.003376	0.335952
H111	H	0.601644	0.144637	0.335940
H112	H	0.668398	-0.753081	-0.120375
C113	C	0.754150	-0.007752	0.814216
N114	N	0.786422	-0.040018	0.845967
H115	H	0.499444	0.077962	-0.120363
C116	C	0.383203	0.076549	0.139466
N117	N	0.358606	0.076256	0.194471
H118	H	-0.047025	0.071366	-0.120337
H119	H	0.674978	-0.206603	-0.120341
C120	C	0.669766	-0.636884	0.139453
N121	N	0.670059	-0.612297	0.194458
H122	H	0.743022	0.003383	0.664221
H123	H	0.676259	-0.098896	0.120521
H124	H	-0.154774	0.070079	-0.120329
C125	C	0.676394	-0.090366	-0.139293
N126	N	0.676697	-0.065755	-0.194292
C127	C	0.234688	0.074747	0.205847
N128	N	0.259284	0.075035	0.260849
C129	C	-0.163276	0.069954	0.139487
N130	N	-0.187892	0.069651	0.194477
H131	H	0.671634	-0.479881	0.186871
H132	H	0.118473	0.073345	-0.186722
C133	C	0.234708	0.074744	-0.205691
N134	N	0.259309	0.075042	-0.260693
C135	C	0.673028	-0.363649	0.205844
N136	N	0.673317	-0.339059	0.260846
C137	C	0.669799	-0.636826	-0.139343
N138	N	0.670099	-0.612217	-0.194344
H139	H	0.672996	-0.372076	-0.186725
H140	H	0.601676	0.144647	0.803252
C141	C	0.674853	-0.215154	0.139486
N142	N	0.674545	-0.239765	0.194484
H143	H	0.601626	0.144635	0.196890
