data_functionalizedCrystal
_audit_creation_method	'MofGen! by Chris Wilmer'
_symmetry_space_group_name_H-M	'P1'
_symmetry_Int_Tables_number	1
_symmetry_cell_setting	triclinic
loop_
_symmetry_equiv_pos_as_xyz
  x,y,z
_cell_length_a	14.853567
_cell_length_b	13.339070
_cell_length_c	12.376457
_cell_angle_alpha	75.601917
_cell_angle_beta	101.306251
_cell_angle_gamma	99.632113
loop_
_atom_site_label
_atom_site_type_symbol
_atom_site_fract_x
_atom_site_fract_y
_atom_site_fract_z
O1	O	-1.241699	-0.112768	-0.093921
O2	O	-0.983161	-0.128503	-0.093939
O3	O	-1.082758	0.026670	-0.093929
O4	O	-1.142102	-0.267940	-0.093931
O5	O	-1.057858	-0.012070	0.094081
O6	O	-0.958261	-0.167243	0.094070
O7	O	-1.216799	-0.151508	0.094089
Zn8	Zn	-1.083577	-0.165526	0.123930
Zn9	Zn	-1.116384	-0.114484	-0.123781
O10	O	-1.117202	-0.306680	0.094078
C11	C	-0.936945	-0.147159	0.000063
C12	C	-0.836330	-0.145021	0.000056
C13	C	-1.060284	0.045003	0.000074
C14	C	-1.030404	0.157349	0.000067
C15	C	-1.263015	-0.132851	0.000084
C16	C	-1.363631	-0.134988	0.000084
C17	C	-0.398589	-0.043815	0.000082
C18	C	-0.423217	-0.228166	0.000079
C19	C	-0.517751	-0.230174	0.000075
C20	C	-0.552709	-0.139002	0.000073
C21	C	-0.493133	-0.045820	0.000075
C22	C	-0.577336	-0.323352	0.000063
C23	C	-0.671877	-0.325364	0.000058
C24	C	-0.706836	-0.234192	0.000064
C25	C	-0.647253	-0.141007	0.000066
C26	C	-0.682210	-0.049834	0.000064
C27	C	-0.622628	0.043350	0.000075
C28	C	-0.528091	0.045352	0.000081
C29	C	-0.801373	-0.236193	0.000058
C30	C	-0.776754	-0.051839	0.000057
C31	C	-1.139677	-0.325013	0.000073
C32	C	-1.169557	-0.437357	0.000073
N33	N	-1.061193	-0.200360	0.292986
C34	C	-1.262736	0.521812	0.000084
C35	C	-1.290811	0.416257	0.000097
C36	C	-1.225712	0.351525	0.000089
C37	C	-1.132532	0.392357	0.000069
C38	C	-1.104453	0.497921	0.000066
C39	C	-1.067429	0.327634	0.000070
C40	C	-0.974250	0.368467	0.000050
C41	C	-0.946176	0.474020	0.000046
C42	C	-1.011275	0.538752	0.000054
C43	C	-1.095508	0.222071	0.000074
C44	C	-0.937226	0.198180	0.000055
C45	C	-0.909151	0.303735	0.000043
N46	N	-1.138772	-0.079642	-0.292837
C47	C	-1.190726	0.001239	0.647985
C48	C	-1.206387	0.025620	0.529647
C49	C	-1.170090	-0.030873	0.470476
C50	C	-1.118129	-0.111751	0.529654
C51	C	-1.102473	-0.136139	0.648004
C52	C	-1.081836	-0.168252	0.470495
C53	C	-1.029876	-0.249130	0.529674
C54	C	-1.014221	-0.273513	0.648012
C55	C	-1.050519	-0.217021	0.707183
C56	C	-1.097493	-0.143863	0.352145
C57	C	-1.009239	-0.281242	0.352165
C58	C	-0.993578	-0.305622	0.470503
H59	H	-0.651104	0.117584	0.000065
N60	N	-0.808651	0.347780	0.000043
H61	H	-0.771666	0.290762	0.000040
H62	H	-0.802787	0.405416	-0.069656
N63	N	-1.332932	0.591631	0.000108
H64	H	-1.334042	0.650323	-0.069585
H65	H	-1.396185	0.549677	0.000162
H66	H	-0.849880	-0.312063	0.000051
N67	N	-0.539625	-0.421666	0.000028
H68	H	-0.570681	-0.447925	-0.069686
H69	H	-0.470696	-0.406159	0.000070
N70	N	-0.736131	-0.425869	0.000068
H71	H	-0.801325	-0.413310	0.000069
H72	H	-0.734212	-0.451414	-0.069627
N73	N	-1.196003	0.178041	0.000088
H74	H	-1.203917	0.101348	0.000093
H75	H	-1.216414	0.187353	0.069792
N76	N	-1.391308	0.372235	0.000101
H77	H	-1.415716	0.343332	-0.069593
H78	H	-1.397189	0.314655	0.069843
N79	N	-0.867001	0.128372	0.000061
H80	H	-0.898927	0.055307	0.000065
H81	H	-0.836761	0.155960	-0.069637
H82	H	-0.479567	0.121212	0.000116
H83	H	-0.350072	0.032052	0.000095
H84	H	-1.220281	0.047223	0.696169
N85	N	-0.385516	-0.326495	0.000074
H86	H	-0.416578	-0.352776	-0.069625
H87	H	-0.316587	-0.311006	0.000116
N88	N	-0.814447	0.046505	0.000054
H89	H	-0.862343	0.064148	-0.069645
H90	H	-0.843850	0.035353	0.069791
H91	H	-1.248576	0.265578	0.000100
N92	N	-0.937534	-0.392851	0.534336
H93	H	-0.933126	-0.399723	0.618282
H94	H	-0.968640	-0.460405	0.513652
N95	N	-0.958178	-0.360744	0.711840
H96	H	-0.953769	-0.367621	0.795787
H97	H	-0.989285	-0.428295	0.691151
H98	H	-0.988421	0.624705	0.000039
H99	H	-0.870302	0.507260	0.000038
N100	N	-1.153524	-0.056633	0.288311
H101	H	-1.217731	-0.072660	0.308891
H102	H	-1.122375	0.010931	0.308934
N103	N	-1.186968	-0.004581	0.342840
H104	H	-1.255703	-0.013557	0.314316
H105	H	-1.160371	0.070072	0.314432
N106	N	-1.262427	0.112843	0.465820
H107	H	-1.283044	0.144933	0.521258
H108	H	-1.223205	0.167772	0.416724
N109	N	-1.033625	-0.243319	0.834823
H110	H	-1.064501	-0.195254	0.863322
H111	H	-1.060163	-0.317995	0.863236
N112	N	-0.970089	-0.342185	0.288361
H113	H	-0.987889	-0.314461	0.204411
H114	H	-0.900442	-0.334628	0.309057
