data_functionalizedCrystal
_audit_creation_method	'MofGen! by Chris Wilmer'
_symmetry_space_group_name_H-M	'P1'
_symmetry_Int_Tables_number	1
_symmetry_cell_setting	triclinic
loop_
_symmetry_equiv_pos_as_xyz
  x,y,z
_cell_length_a	16.625547
_cell_length_b	16.625539
_cell_length_c	16.959454
_cell_angle_alpha	89.976948
_cell_angle_beta	90.020013
_cell_angle_gamma	89.978691
loop_
_atom_site_label
_atom_site_type_symbol
_atom_site_fract_x
_atom_site_fract_y
_atom_site_fract_z
Zn1	Zn	1.232666	-0.456020	-0.314696
Zn2	Zn	1.232583	-0.321195	-0.446880
Zn3	Zn	1.097836	-0.321190	-0.314719
Zn4	Zn	1.097804	-0.455975	-0.446836
O5	O	1.165222	-0.388595	-0.380783
O6	O	1.345487	-0.438156	-0.332239
O7	O	1.214687	-0.208362	-0.429376
O8	O	1.115770	-0.339093	-0.204105
O9	O	1.345426	-0.339101	-0.429354
O10	O	1.214829	-0.438151	-0.204088
O11	O	1.115689	-0.208359	-0.332279
O12	O	0.984999	-0.339049	-0.332236
O13	O	1.115715	-0.568813	-0.429280
O14	O	0.984976	-0.438075	-0.429302
O15	O	1.214797	-0.568846	-0.332197
O16	O	1.214656	-0.339057	-0.557485
O17	O	1.115634	-0.438079	-0.557453
C18	C	0.955731	-0.388557	-0.380767
C19	C	0.866110	-0.388560	-0.380780
C20	C	0.793328	-0.388570	-0.380781
C21	C	0.702019	-0.388590	-0.380786
C22	C	0.629243	-0.388610	-0.380793
C23	C	0.537929	-0.388630	-0.380798
C24	C	1.165262	-0.598904	-0.380731
C25	C	1.165279	-0.688525	-0.380708
C26	C	1.165292	-0.761308	-0.380691
C27	C	1.165311	-0.852616	-0.380661
C28	C	1.165330	-0.925393	-0.380634
C29	C	1.165350	-1.016707	-0.380605
C30	C	1.375531	-0.388634	-0.380799
C31	C	1.465152	-0.388650	-0.380806
C32	C	1.165155	-0.388581	-0.586149
C33	C	1.165200	-0.388602	-0.674006
C34	C	1.165229	-0.179104	-0.380778
C35	C	1.165369	-0.089484	-0.380577
C36	C	1.113736	-0.440150	-1.045494
C37	C	1.216933	-0.337122	-1.045468
C38	C	1.216904	-0.337114	-0.962922
C39	C	1.165291	-0.388625	-0.921659
C40	C	1.113705	-0.440143	-0.962941
C41	C	1.268483	-0.285592	-0.921634
C42	C	1.268457	-0.285582	-0.839083
C43	C	1.216846	-0.337097	-0.797818
C44	C	1.165259	-0.388617	-0.839105
C45	C	1.113645	-0.440128	-0.797842
C46	C	1.062062	-0.491653	-0.839127
C47	C	1.062095	-0.491658	-0.921676
C48	C	1.216813	-0.337092	-0.715269
C49	C	1.113614	-0.440120	-0.715288
C50	C	1.165312	-0.388626	-0.174615
C51	C	1.165350	-0.388640	-0.086758
H52	H	1.071586	-0.482070	-0.681696
Br53	Br	1.286802	-0.267160	-0.659241
H54	H	1.310499	-0.243649	-0.955236
H55	H	1.310459	-0.243628	-0.805473
Br56	Br	0.992095	-0.561578	-0.977711
H57	H	1.020034	-0.533590	-0.805521
Br58	Br	1.043739	-0.510080	-1.101521
H59	H	1.258949	-0.295180	-1.079070
