data_functionalizedCrystal
_audit_creation_method	'MofGen! by Chris Wilmer'
_symmetry_space_group_name_H-M	'P1'
_symmetry_Int_Tables_number	1
_symmetry_cell_setting	triclinic
loop_
_symmetry_equiv_pos_as_xyz
  x,y,z
_cell_length_a	17.640112
_cell_length_b	16.625546
_cell_length_c	17.638773
_cell_angle_alpha	101.188125
_cell_angle_beta	87.800676
_cell_angle_gamma	101.247770
loop_
_atom_site_label
_atom_site_type_symbol
_atom_site_fract_x
_atom_site_fract_y
_atom_site_fract_z
Zn1	Zn	1.247749	-0.103654	-0.195073
Zn2	Zn	1.221998	-0.217615	-0.068089
Zn3	Zn	1.095096	-0.114286	-0.093720
Zn4	Zn	1.120716	-0.269954	-0.220666
O5	O	1.171390	-0.176377	-0.144387
O6	O	1.350606	-0.092417	-0.156790
O7	O	1.183665	-0.186453	0.034782
O8	O	1.115401	-0.000036	-0.107181
O9	O	1.331686	-0.176144	-0.063496
O10	O	1.227555	0.007776	-0.181644
O11	O	1.090431	-0.110538	0.015950
O12	O	0.992222	-0.161290	-0.131998
O13	O	1.159066	-0.265349	-0.323542
O14	O	1.011045	-0.275659	-0.225264
O15	O	1.252397	-0.143169	-0.304738
O16	O	1.208507	-0.337398	-0.088313
O17	O	1.134096	-0.375852	-0.200410
C18	C	0.974078	-0.225308	-0.184190
C19	C	0.889671	-0.246263	-0.201236
C20	C	1.171312	-0.385881	-0.144370
C21	C	1.171353	-0.475494	-0.144374
C22	C	0.563037	-0.017170	-0.014897
C23	C	0.483726	-0.036879	-0.030925
C24	C	0.503346	-0.156085	-0.127876
C25	C	0.582661	-0.136384	-0.111859
C26	C	0.612500	-0.066927	-0.055368
C27	C	0.632124	-0.186141	-0.152330
C28	C	0.711432	-0.166443	-0.136311
C29	C	0.741276	-0.096990	-0.079822
C30	C	0.691807	-0.047229	-0.039350
C31	C	0.602284	-0.255602	-0.208817
C32	C	0.651747	-0.305358	-0.249288
C33	C	0.731056	-0.285658	-0.233273
C34	C	0.760901	-0.216204	-0.176784
C35	C	0.780525	-0.335418	-0.273745
C36	C	0.859833	-0.315721	-0.257727
C37	C	0.840208	-0.196507	-0.160765
C38	C	1.171501	-0.803650	-0.144426
C39	C	1.171458	-0.712348	-0.144414
C40	C	1.171426	-0.639575	-0.144400
C41	C	1.171384	-0.548267	-0.144388
C42	C	1.369472	-0.127256	-0.104429
C43	C	1.453883	-0.106324	-0.087401
C44	C	1.211462	-0.208911	-0.342465
C45	C	1.228539	-0.222775	-0.426874
C46	C	1.171492	0.033947	-0.144417
C47	C	1.171536	0.123574	-0.144430
C48	C	1.301145	-0.281837	-0.536043
C49	C	1.285093	-0.268805	-0.456729
C50	C	1.188016	-0.189756	-0.476329
C51	C	1.204062	-0.202777	-0.555645
C52	C	1.260627	-0.248819	-0.585496
C53	C	1.163544	-0.169760	-0.605099
C54	C	1.179586	-0.182784	-0.684409
C55	C	1.236147	-0.228826	-0.714266
C56	C	1.276669	-0.261843	-0.664806
C57	C	1.106975	-0.123723	-0.575247
C58	C	1.066457	-0.090705	-0.624700
C59	C	1.082503	-0.103725	-0.704012
C60	C	1.139064	-0.149767	-0.733869
C61	C	1.041981	-0.070707	-0.753471
C62	C	1.058023	-0.083731	-0.832782
C63	C	1.155106	-0.162791	-0.813179
C64	C	1.131517	-0.143901	0.052929
C65	C	1.114588	-0.129773	0.137368
H66	H	0.864506	-0.139937	-0.114776
C67	C	0.828515	-0.075317	-0.062198
C68	C	0.868141	-0.138698	-0.033705
C69	C	0.955379	-0.117023	-0.016081
C70	C	1.002991	-0.031967	-0.026948
C71	C	0.963366	0.031420	-0.055442
C72	C	0.876128	0.009746	-0.073067
H73	H	0.832895	-0.201667	-0.025659
H74	H	0.984712	-0.163947	0.005012
H75	H	1.067570	-0.015922	-0.013902
H76	H	0.998612	0.094389	-0.063488
H77	H	0.846795	0.056669	-0.094160
C78	C	1.338879	-0.312502	-0.697663
C79	C	1.330414	-0.403923	-0.688008
C80	C	1.392612	-0.454587	-0.720873
C81	C	1.463276	-0.413831	-0.763392
C82	C	1.471744	-0.322406	-0.773050
C83	C	1.409546	-0.271742	-0.740185
H84	H	1.278102	-0.434097	-0.656530
H85	H	1.386343	-0.522266	-0.713723
H86	H	1.509319	-0.451336	-0.787721
H87	H	1.524057	-0.292232	-0.804527
H88	H	1.415815	-0.204063	-0.747334
H89	H	0.627440	-0.361912	-0.295280
C90	C	1.089324	-0.109392	-0.488005
C91	C	1.153482	-0.063363	-0.429665
C92	C	1.135830	-0.049031	-0.342424
C93	C	1.054019	-0.080730	-0.313523
C94	C	0.989855	-0.126763	-0.371865
C95	C	1.007508	-0.141094	-0.459106
H96	H	1.214048	-0.039895	-0.451058
H97	H	1.183329	-0.014955	-0.299236
H98	H	1.040952	-0.070121	-0.248942
H99	H	0.929289	-0.150231	-0.350472
H100	H	0.960009	-0.175170	-0.502294
H101	H	1.347212	-0.319320	-0.560347
C102	C	0.515044	-0.277277	-0.226439
C103	C	0.456635	-0.296763	-0.162242
C104	C	0.369396	-0.318440	-0.179863
C105	C	0.340567	-0.320632	-0.261681
C106	C	0.398977	-0.301146	-0.325884
C107	C	0.486216	-0.279468	-0.308262
H108	H	0.477975	-0.295141	-0.101670
H109	H	0.326157	-0.332865	-0.132336
H110	H	0.275987	-0.336679	-0.274726
H111	H	0.377637	-0.302768	-0.386455
H112	H	0.529455	-0.265043	-0.355789
H113	H	0.756217	-0.391975	-0.319734
H114	H	1.020400	-0.053221	-0.600385
H115	H	0.479040	-0.212640	-0.173868
H116	H	0.716105	0.009340	0.006639
C117	C	0.979757	-0.020069	-0.720629
C118	C	1.001662	0.060349	-0.659469
C119	C	0.939437	0.110986	-0.626627
C120	C	0.855307	0.081205	-0.654947
C121	C	0.833398	0.000784	-0.716111
C122	C	0.895623	-0.049853	-0.748952
H123	H	1.063944	0.082397	-0.638502
H124	H	0.955656	0.170519	-0.581350
H125	H	0.809245	0.118690	-0.630636
H126	H	0.771116	-0.021265	-0.737077
H127	H	0.879404	-0.109387	-0.794230
C128	C	0.595863	0.059241	0.047239
C129	C	0.638292	0.047748	0.117931
C130	C	0.671117	0.124157	0.180063
C131	C	0.661511	0.212058	0.171504
C132	C	0.619080	0.223554	0.100809
C133	C	0.586255	0.147146	0.038676
H134	H	0.645405	-0.017325	0.124270
H135	H	0.702528	0.115646	0.232396
H136	H	0.685810	0.268620	0.217498
H137	H	0.611967	0.288627	0.094470
H138	H	0.554845	0.155657	-0.013657
H139	H	1.141959	-0.152271	-0.452013
H140	H	0.443455	0.003649	0.002031
C141	C	0.914247	-0.370450	-0.302248
C142	C	0.980864	-0.331860	-0.350907
C143	C	1.035278	-0.386592	-0.395428
C144	C	1.023075	-0.479914	-0.391288
C145	C	0.956455	-0.518509	-0.342626
C146	C	0.902041	-0.463777	-0.298106
H147	H	0.989900	-0.262772	-0.353974
H148	H	1.084594	-0.358021	-0.431450
H149	H	1.063355	-0.520430	-0.424245
H150	H	0.947419	-0.587596	-0.339560
H151	H	0.852725	-0.492348	-0.262083
H152	H	1.201173	-0.200275	-0.837483
C153	C	1.253799	-0.243156	-0.801508
C154	C	1.189639	-0.289176	-0.859850
C155	C	1.207293	-0.303506	-0.947090
C156	C	1.289106	-0.271815	-0.975989
C157	C	1.353272	-0.225791	-0.917646
C158	C	1.335618	-0.211462	-0.830405
H159	H	1.129071	-0.312638	-0.838458
H160	H	1.159793	-0.337576	-0.990280
H161	H	1.302175	-0.282422	-1.040570
H162	H	1.413840	-0.202329	-0.939038
H163	H	1.383118	-0.177392	-0.787216
H164	H	1.318105	-0.295678	-0.416462
H165	H	1.025031	-0.056842	-0.873048
