data_functionalizedCrystal
_audit_creation_method	'MofGen! by Chris Wilmer'
_symmetry_space_group_name_H-M	'P1'
_symmetry_Int_Tables_number	1
_symmetry_cell_setting	triclinic
loop_
_symmetry_equiv_pos_as_xyz
  x,y,z
_cell_length_a	16.992697
_cell_length_b	23.532409
_cell_length_c	16.053802
_cell_angle_alpha	87.447601
_cell_angle_beta	92.750118
_cell_angle_gamma	86.759005
loop_
_atom_site_label
_atom_site_type_symbol
_atom_site_fract_x
_atom_site_fract_y
_atom_site_fract_z
O1	O	-1.042771	-0.118474	-0.069299
O2	O	-0.542771	0.381526	0.430701
O3	O	-0.814498	-0.117149	-0.069327
O4	O	-0.314498	0.382851	0.430673
O5	O	-0.935517	-0.035221	-0.069313
O6	O	-0.435517	0.464779	0.430687
O7	O	-0.921752	-0.200401	-0.069313
O8	O	-0.421752	0.299599	0.430687
O9	O	-0.928856	-0.039711	0.069545
O10	O	-0.428856	0.460289	0.569545
O11	O	-0.807837	-0.121638	0.069531
O12	O	-0.307837	0.378362	0.569531
O13	O	-1.036110	-0.122964	0.069559
O14	O	-0.536110	0.377036	0.569559
Zn15	Zn	-0.920916	-0.123014	0.091592
Zn16	Zn	-0.420916	0.376986	0.591592
Zn17	Zn	-0.929692	-0.117099	-0.091360
Zn18	Zn	-0.429692	0.382901	0.408640
O19	O	-0.915091	-0.204891	0.069545
O20	O	-0.415091	0.295109	0.569545
C21	C	-0.781968	-0.117690	0.000098
C22	C	-0.281968	0.382310	0.500098
C23	C	-0.694964	-0.112606	0.000087
C24	C	-0.194964	0.387394	0.500087
C25	C	-0.644342	-0.161652	0.000087
C26	C	-0.144342	0.338348	0.500087
C27	C	-0.562592	-0.156873	0.000097
C28	C	-0.062592	0.343127	0.500097
C29	C	-0.531466	-0.103046	0.000102
C30	C	-0.031466	0.396954	0.500102
C31	C	-0.582094	-0.053997	0.000104
C32	C	-0.082094	0.446003	0.500104
C33	C	-0.663842	-0.058777	0.000100
C34	C	-0.163842	0.441223	0.500100
C35	C	-0.288022	-0.083235	0.000120
C36	C	0.211978	0.416765	0.500120
C37	C	-0.206267	-0.078458	0.000122
C38	C	0.293733	0.421542	0.500122
C39	C	-0.186770	-0.181335	0.000117
C40	C	0.313230	0.318665	0.500117
C41	C	-0.268521	-0.186110	0.000107
C42	C	0.231479	0.313890	0.500107
C43	C	-0.319142	-0.137061	0.000114
C44	C	0.180858	0.362939	0.500114
N45	N	-0.447905	-0.098160	0.000109
N46	N	0.052095	0.401840	0.500109
N47	N	-0.402701	-0.141948	0.000112
N48	N	0.097299	0.358052	0.500112
C49	C	-0.068640	-0.122422	0.000128
C50	C	0.431360	0.377578	0.500128
C51	C	-0.155645	-0.127504	0.000122
C52	C	0.344355	0.372496	0.500122
C53	C	-0.931836	-0.016233	0.000114
C54	C	-0.431836	0.483767	0.500114
C55	C	-0.930782	0.047037	0.000107
C56	C	-0.430782	0.547037	0.500107
C57	C	-0.918772	-0.223880	0.000116
C58	C	-0.418772	0.276120	0.500116
C59	C	-0.919827	-0.287149	0.000117
C60	C	-0.419827	0.212851	0.500117
C61	C	-0.929927	0.322952	-0.075588
C62	C	-0.429927	0.822952	0.424412
C63	C	-0.930907	0.263503	-0.075588
C64	C	-0.430907	0.763503	0.424412
O65	O	-0.934529	0.234833	-0.139959
O66	O	-0.434529	0.734833	0.360041
N67	N	-0.927761	0.231330	0.000104
N68	N	-0.427761	0.731330	0.500104
C69	C	-0.923643	0.258608	0.075802
C70	C	-0.423643	0.758608	0.575802
O71	O	-0.921057	0.225783	0.140185
O72	O	-0.421057	0.725783	0.640185
C73	C	-0.922669	0.318056	0.075802
C74	C	-0.422669	0.818056	0.575802
C75	C	-0.925807	0.350226	0.000104
C76	C	-0.425807	0.850226	0.500104
C77	C	-0.933067	0.355122	-0.151280
C78	C	-0.433067	0.855122	0.348720
C79	C	-0.932086	0.414567	-0.151280
C80	C	-0.432086	0.914567	0.348720
C81	C	-0.927966	0.441841	-0.075588
C82	C	-0.427966	0.941841	0.424412
C83	C	-0.924827	0.409671	0.000104
C84	C	-0.424827	0.909671	0.500104
C85	C	-0.918557	0.345334	0.151499
C86	C	-0.418557	0.845334	0.651499
C87	C	-0.917584	0.404786	0.151491
C88	C	-0.417584	0.904786	0.651491
C89	C	-0.920722	0.436956	0.075793
C90	C	-0.420722	0.936956	0.575793
C91	C	-0.919726	0.496390	0.075796
C92	C	-0.419726	0.996390	0.575796
N93	N	-0.922872	0.528564	0.000104
N94	N	-0.422872	1.028564	0.500104
C95	C	-0.926992	0.501289	-0.075588
C96	C	-0.426992	1.001289	0.424412
C97	C	-0.925689	0.133763	0.075798
C98	C	-0.425689	0.633763	0.575798
C99	C	-0.926657	0.074316	0.075800
C100	C	-0.426657	0.574316	0.575800
C101	C	-0.933923	0.079215	-0.075591
C102	C	-0.433923	0.579215	0.424409
C103	C	-0.932949	0.138663	-0.075592
C104	C	-0.432949	0.638663	0.424408
C105	C	-0.928835	0.165937	0.000105
C106	C	-0.428835	0.665937	0.500105
C107	C	-0.924931	0.626127	-0.075582
C108	C	-0.424931	1.126127	0.424418
C109	C	-0.923947	0.685576	-0.075575
C110	C	-0.423947	1.185576	0.424425
C111	C	-0.916685	0.680672	0.075816
C112	C	-0.416685	1.180672	0.575816
C113	C	-0.917665	0.621228	0.075809
C114	C	-0.417665	1.121228	0.575809
C115	C	-0.921791	0.593957	0.000104
C116	C	-0.421791	1.093957	0.500104
O117	O	-0.916108	0.525099	0.140134
O118	O	-0.416108	1.025099	0.640134
O119	O	-0.929587	0.534121	-0.139960
O120	O	-0.429587	1.034121	0.360040
N121	N	-0.914932	-0.127051	0.216451
N122	N	-0.414932	0.372949	0.716451
N123	N	-0.935682	-0.113057	-0.216219
N124	N	-0.435682	0.386943	0.283781
C125	C	-0.966444	-0.092205	0.260151
C126	C	-0.466444	0.407795	0.760151
C127	C	-0.962266	-0.095034	0.347558
C128	C	-0.462266	0.404966	0.847558
C129	C	-0.906578	-0.132714	0.391262
C130	C	-0.406578	0.367286	0.891262
C131	C	-0.855060	-0.167561	0.347556
C132	C	-0.355060	0.332439	0.847556
C133	C	-0.859235	-0.164728	0.260152
C134	C	-0.359235	0.335272	0.760152
C135	C	-0.888339	-0.145072	0.652670
C136	C	-0.388339	0.354928	1.152670
C137	C	-0.884170	-0.147903	0.740081
C138	C	-0.384170	0.352097	1.240081
C139	C	-0.991375	-0.075376	0.740076
C140	C	-0.491375	0.424624	1.240076
C141	C	-0.995549	-0.072549	0.652669
C142	C	-0.495549	0.427451	1.152669
C143	C	-0.944028	-0.107394	0.608971
C144	C	-0.444028	0.392606	1.108971
N145	N	-0.902307	-0.135608	0.480606
N146	N	-0.402307	0.364392	0.980606
N147	N	-0.948295	-0.104496	0.519629
N148	N	-0.448295	0.395504	1.019629
H149	H	-0.329228	-0.043295	0.000126
H150	H	0.170772	0.456705	0.500126
N151	N	-1.043993	-0.039772	0.784700
N152	N	-0.543993	0.460228	1.284700
N153	N	-1.093707	-0.006130	0.745668
N154	N	-0.593707	0.493870	1.245668
H155	H	-1.130869	0.019020	0.777182
H156	H	-0.630869	0.519020	1.277182
H157	H	-0.935503	0.164853	-0.137232
H158	H	-0.435503	0.664853	0.362768
N159	N	-0.929124	0.598276	-0.152913
N160	N	-0.429124	1.098276	0.347087
N161	N	-0.875220	0.562926	-0.169813
N162	N	-0.375220	1.062926	0.330187
H163	H	-0.878175	0.543256	-0.224428
H164	H	-0.378175	1.043256	0.275572
H165	H	-0.915079	0.595032	0.137448
H166	H	-0.415079	1.095032	0.637448
N167	N	-0.912492	0.708538	0.153131
N168	N	-0.412492	1.208538	0.653131
N169	N	-0.965431	0.702992	0.203816
N170	N	-0.465431	1.202992	0.703816
H171	H	-0.962474	0.722673	0.258422
H172	H	-0.462474	1.222673	0.758422
N173	N	-0.921481	0.161629	0.153119
N174	N	-0.421481	0.661629	0.653119
N175	N	-0.975380	0.196982	0.170025
N176	N	-0.475380	0.696982	0.670025
H177	H	-0.972410	0.216661	0.224632
H178	H	-0.472410	0.716661	0.724632
N179	N	-0.915350	0.312491	0.228831
N180	N	-0.415350	0.812491	0.728831
N181	N	-0.911679	0.336863	0.296400
N182	N	-0.411679	0.836863	0.796400
H183	H	-0.909415	0.313669	0.351022
H184	H	-0.409415	0.813669	0.851022
H185	H	-0.838819	-0.178589	0.775661
H186	H	-0.338819	0.321411	1.275661
N187	N	-0.676131	-0.216636	0.000101
N188	N	-0.176131	0.283364	0.500101
N189	N	-0.716770	-0.232672	0.058635
N190	N	-0.216770	0.267328	0.558635
H191	H	-0.739220	-0.271506	0.058649
H192	H	-0.239220	0.228494	0.558649
N193	N	-0.550289	0.000982	0.000117
N194	N	-0.050289	0.500982	0.500117
N195	N	-0.477300	0.005244	0.000120
N196	N	0.022700	0.505244	0.500120
H197	H	-0.454837	0.044073	0.000128
H198	H	0.045163	0.544073	0.500128
H199	H	-0.914234	0.426989	0.213135
H200	H	-0.414234	0.926989	0.713135
H201	H	-0.846391	-0.173446	0.617098
H202	H	-0.346391	0.326554	1.117098
N203	N	-1.023292	-0.053681	0.215525
N204	N	-0.523292	0.446319	0.715525
N205	N	-1.069249	-0.022546	0.254557
N206	N	-0.569249	0.477454	0.754557
H207	H	-1.109381	0.004677	0.223043
H208	H	-0.609381	0.504677	0.723043
N209	N	-1.014888	-0.059434	0.392183
N210	N	-0.514888	0.440566	0.892183
N211	N	-1.064608	-0.025796	0.353151
N212	N	-0.564608	0.474204	0.853151
H213	H	-1.101774	-0.000650	0.384666
H214	H	-0.601774	0.499350	0.884666
N215	N	-0.715543	-0.008672	0.000109
N216	N	-0.215543	0.491328	0.500109
N217	N	-0.687744	0.039385	0.000117
N218	N	-0.187744	0.539385	0.500117
H219	H	-0.724256	0.074773	0.000128
H220	H	-0.224256	0.574773	0.500128
N221	N	-1.052570	-0.034160	0.608042
N222	N	-0.552570	0.465840	1.108042
N223	N	-1.098648	-0.003119	0.647071
N224	N	-0.598648	0.496881	1.147071
H225	H	-1.138973	0.023954	0.615553
H226	H	-0.638973	0.523954	1.115553
H227	H	-0.926500	0.711767	-0.137220
H228	H	-0.426500	1.211767	0.362780
H229	H	-0.817287	-0.193103	0.224572
H230	H	-0.317287	0.306897	0.724572
N231	N	-0.798174	-0.206042	0.392210
N232	N	-0.298174	0.293958	0.892210
N233	N	-0.794453	-0.208567	0.470249
N234	N	-0.294453	0.291433	0.970249
H235	H	-0.754277	-0.235746	0.501786
H236	H	-0.254277	0.264254	1.001786
N237	N	-0.938148	0.051359	-0.152919
N238	N	-0.438148	0.551359	0.347081
N239	N	-0.940960	0.080084	-0.220502
N240	N	-0.440960	0.580084	0.279498
H241	H	-0.943944	0.060410	-0.275112
H242	H	-0.443944	0.560410	0.224888
N243	N	-0.174482	-0.023470	0.000140
N244	N	0.325518	0.476530	0.500140
N245	N	-0.187335	0.008541	0.058678
N246	N	0.312665	0.508541	0.558678
H247	H	-0.164886	0.047375	0.058691
H248	H	0.335114	0.547375	0.558691
H249	H	-0.936424	0.332922	-0.212921
H250	H	-0.436424	0.832922	0.287079
H251	H	-0.521378	-0.196812	0.000096
H252	H	-0.021378	0.303188	0.500096
N253	N	-0.923433	0.041467	0.153131
N254	N	-0.423433	0.541467	0.653131
N255	N	-0.919750	0.065833	0.220704
N256	N	-0.419750	0.565833	0.720704
H257	H	-0.917475	0.042635	0.275323
H258	H	-0.417475	0.542635	0.775323
N259	N	-0.935293	0.447415	-0.228612
N260	N	-0.435293	0.947415	0.271388
N261	N	-0.938973	0.423045	-0.296182
N262	N	-0.438973	0.923045	0.203818
H263	H	-0.941241	0.446240	-0.350802
H264	H	-0.441241	0.946240	0.149198
N265	N	-0.300331	-0.241087	0.000102
N266	N	0.199669	0.258913	0.500102
N267	N	-0.346575	-0.253334	-0.058432
N268	N	0.153425	0.246666	0.441568
H269	H	-0.369044	-0.292161	-0.058438
H270	H	0.130956	0.207839	0.441562
N271	N	-0.135052	-0.231429	0.000109
N272	N	0.364948	0.268571	0.500109
N273	N	-0.062064	-0.227157	0.000112
N274	N	0.437936	0.272843	0.500112
H275	H	-0.025536	-0.262538	0.000108
H276	H	0.474464	0.237462	0.500108
