data_functionalizedCrystal
_audit_creation_method	'MofGen! by Chris Wilmer'
_symmetry_space_group_name_H-M	'P1'
_symmetry_Int_Tables_number	1
_symmetry_cell_setting	triclinic
loop_
_symmetry_equiv_pos_as_xyz
  x,y,z
_cell_length_a	10.654550
_cell_length_b	10.654551
_cell_length_c	9.130313
_cell_angle_alpha	89.999948
_cell_angle_beta	89.993276
_cell_angle_gamma	95.514868
loop_
_atom_site_label
_atom_site_type_symbol
_atom_site_fract_x
_atom_site_fract_y
_atom_site_fract_z
O1	O	-1.667840	0.176395	0.121910
O2	O	-1.302361	0.193201	0.121885
O3	O	-1.493503	0.002059	0.121899
O4	O	-1.476698	0.367537	0.121896
O5	O	-1.493490	0.002060	-0.121700
O6	O	-1.302349	0.193202	-0.121713
O7	O	-1.667827	0.176396	-0.121689
Cu8	Cu	-1.485087	0.184799	-0.143944
Cu9	Cu	-1.485102	0.184798	0.144140
O10	O	-1.476686	0.367538	-0.121703
C11	C	-1.255557	0.191968	0.000083
C12	C	-1.116114	0.188276	0.000074
C13	C	-1.714632	0.177629	0.000117
C14	C	-1.854075	0.181321	0.000135
C15	C	-1.492263	-0.044739	0.000103
C16	C	-1.488570	-0.184182	0.000112
C17	C	-1.036629	0.300817	0.000095
C18	C	-0.905608	0.297341	0.000120
C19	C	-0.933570	0.068771	0.000110
C20	C	-1.064589	0.072249	0.000074
C21	C	-1.088154	0.416844	0.000094
C22	C	-1.008667	0.529395	0.000116
C23	C	-0.877647	0.525918	0.000142
C24	C	-0.826112	0.409891	0.000145
C25	C	-1.486845	-0.249694	0.132895
C26	C	-1.483365	-0.380714	0.132888
C27	C	-1.483340	-0.380699	-0.132696
C28	C	-1.486812	-0.249680	-0.132688
C29	C	-1.488603	-0.184196	0.265696
C30	C	-1.486879	-0.249708	0.398490
C31	C	-1.483399	-0.380729	0.398483
C32	C	-1.481643	-0.446236	0.265682
C33	C	-1.477926	0.414336	0.000097
C34	C	-1.481619	0.553779	0.000097
N35	N	-1.485086	0.184799	-0.346566
C36	C	-1.569760	0.100182	-0.576550
C37	C	-1.569749	0.100189	-0.423213
C38	C	-1.400435	0.269415	-0.423264
C39	C	-1.400452	0.269412	-0.576598
C40	C	-1.654420	0.015558	-0.653189
C41	C	-1.739073	-0.069057	-0.576502
C42	C	-1.739063	-0.069049	-0.423165
C43	C	-1.654400	0.015574	-0.346516
N44	N	-1.485113	0.184788	0.346763
H45	H	-1.194836	0.419687	0.000080
N46	N	-0.684797	0.406142	0.000176
H47	H	-0.664215	0.315565	0.000182
H48	H	-0.647818	0.450235	-0.090124
H49	H	-1.481983	-0.434064	0.506609
N50	N	-0.877993	-0.056365	0.000108
H51	H	-0.782932	-0.041490	0.000135
H52	H	-0.907025	-0.105669	0.090404
H53	H	-1.050636	0.623860	0.000101
N54	N	-1.150324	-0.049135	0.000047
H55	H	-1.133669	-0.099708	0.090354
H56	H	-1.241105	-0.029221	-0.000038
N57	N	-1.309110	0.360661	-0.340594
H58	H	-1.255486	0.414259	-0.412444
H59	H	-1.357657	0.416633	-0.276956
H60	H	-1.481911	-0.434046	-0.240816
H61	H	-1.491441	-0.077513	0.265716
N62	N	-1.488665	-0.179008	-0.275900
H63	H	-1.487033	-0.240381	-0.360029
H64	H	-1.567821	-0.134147	-0.281678
N65	N	-1.654427	0.015558	-0.818571
H66	H	-1.635415	-0.069942	-0.855509
H67	H	-1.739932	0.034669	-0.855372
H68	H	-1.808010	-0.137947	-0.638918
H69	H	-0.812931	0.617562	0.000145
H70	H	-1.488297	-0.196362	0.506611
N71	N	-1.309164	0.360670	-0.659324
H72	H	-1.255524	0.414274	-0.587509
H73	H	-1.253236	0.312074	-0.722964
H74	H	-1.478791	-0.552920	0.265687
N75	N	-1.654379	0.015600	-0.181131
H76	H	-1.739858	0.034668	-0.144171
H77	H	-1.635312	-0.069914	-0.144308
H78	H	-1.807998	-0.137937	-0.360728
