data_functionalizedCrystal
_audit_creation_method	'MofGen! by Chris Wilmer'
_symmetry_space_group_name_H-M	'P1'
_symmetry_Int_Tables_number	1
_symmetry_cell_setting	triclinic
loop_
_symmetry_equiv_pos_as_xyz
  x,y,z
_cell_length_a	13.032721
_cell_length_b	13.897449
_cell_length_c	13.032268
_cell_angle_alpha	97.163294
_cell_angle_beta	103.289627
_cell_angle_gamma	97.205670
loop_
_atom_site_label
_atom_site_type_symbol
_atom_site_fract_x
_atom_site_fract_y
_atom_site_fract_z
Zn1	Zn	-0.499048	1.339434	-0.654185
Zn2	Zn	-0.654133	1.339329	-0.499133
Zn3	Zn	-0.476547	1.201593	-0.476607
Zn4	Zn	-0.676611	1.154642	-0.676677
O5	O	-0.576585	1.258750	-0.576651
O6	O	-0.519630	1.474399	-0.633632
O7	O	-0.611751	1.340663	-0.347525
O8	O	-0.330901	1.239572	-0.481323
O9	O	-0.633570	1.474321	-0.519716
O10	O	-0.347432	1.340843	-0.611789
O11	O	-0.481279	1.239470	-0.330975
O12	O	-0.503076	1.060386	-0.503132
O13	O	-0.671881	1.159550	-0.822314
O14	O	-0.650062	1.025891	-0.650123
O15	O	-0.541427	1.295316	-0.805789
O16	O	-0.805745	1.295136	-0.541525
O17	O	-0.822260	1.159448	-0.671966
C18	C	-0.576567	1.008140	-0.576625
C19	C	-0.576589	0.900922	-0.576642
C20	C	-0.852544	1.222209	-0.611654
C21	C	-0.970605	1.206660	-0.626664
C22	C	-1.015041	1.266909	-0.568865
C23	C	-1.137063	1.250841	-0.584377
C24	C	-0.576596	0.704623	-0.576670
C25	C	-0.576588	0.813858	-0.576651
C26	C	-0.299551	1.295456	-0.541534
C27	C	-0.181495	1.311098	-0.526569
C28	C	-0.611671	1.222207	-0.853665
C29	C	-0.626623	1.206635	-0.971711
C30	C	-0.576603	1.510337	-0.576677
C31	C	-0.576611	1.617549	-0.576689
C32	C	-0.568743	1.266867	-1.016164
C33	C	-0.584195	1.250774	-1.138171
C34	C	-0.541558	1.295215	-0.300705
C35	C	-0.526307	1.311014	-0.182621
H36	H	-0.962750	1.330391	-0.507900
N37	N	-0.707424	1.122543	-1.040925
H38	H	-0.688500	1.058334	-1.019575
H39	H	-0.706980	1.123049	-1.118249
N40	N	-1.039855	1.122566	-0.707421
H41	H	-1.030177	1.129999	-0.780885
H42	H	-1.117177	1.123048	-0.706964
H43	H	-0.645185	1.187283	-1.190435
H44	H	-1.189354	1.187362	-0.645353
H45	H	-0.507746	1.330345	-0.963896
N46	N	-0.445499	1.395104	-1.113404
H47	H	-0.445910	1.394682	-1.036057
H48	H	-0.464465	1.459271	-1.134836
H49	H	-1.129207	1.374584	-0.465601
