data_functionalizedCrystal
_audit_creation_method	'MofGen! by Chris Wilmer'
_symmetry_space_group_name_H-M	'P1'
_symmetry_Int_Tables_number	1
_symmetry_cell_setting	triclinic
loop_
_symmetry_equiv_pos_as_xyz
  x,y,z
_cell_length_a	6.817900
_cell_length_b	11.168121
_cell_length_c	12.200875
_cell_angle_alpha	92.527554
_cell_angle_beta	107.143593
_cell_angle_gamma	108.508496
loop_
_atom_site_label
_atom_site_type_symbol
_atom_site_fract_x
_atom_site_fract_y
_atom_site_fract_z
V1	V	-4.093962	-0.174991	-0.357670
O2	O	-4.053850	0.008114	-0.350852
O3	O	-4.070358	-0.346695	-0.355234
O4	O	-4.063310	-0.172429	-0.513659
O5	O	-4.060947	-0.167358	-0.191330
V6	V	-4.572077	-0.153075	-0.337774
O7	O	-4.367083	-0.223068	-0.401316
O8	O	-4.749154	-0.104998	-0.294129
O9	O	-4.372475	0.018629	-0.340210
O10	O	-4.729586	-0.336180	-0.344592
O11	O	-4.722489	-0.160708	-0.504114
O12	O	-4.379523	-0.155637	-0.181786
C13	C	-3.920817	-0.388548	-0.349594
C14	C	-3.982923	-0.528919	-0.348641
C15	C	-3.911825	-0.166254	-0.551679
C16	C	-3.968211	-0.165295	-0.679200
C17	C	-4.185209	-0.597615	-0.353657
C18	C	-4.249403	-0.742696	-0.352673
C19	C	-4.071405	-0.163541	-0.912674
C20	C	-4.013972	-0.164516	-0.782752
C21	C	-4.185359	0.060476	-0.345847
C22	C	-4.102492	0.200845	-0.346807
C23	C	-4.194350	-0.161817	-0.143759
C24	C	-4.117202	-0.162769	-0.016237
H25	H	-4.310872	-0.549023	-0.358687
O26	O	-4.455993	-0.813240	-0.357630
C27	C	-4.682532	-0.952481	-0.263367
C28	C	-4.448446	-0.872664	-0.257621
H29	H	-4.676511	-1.000525	-0.182509
H30	H	-4.761273	-1.028543	-0.343825
H31	H	-4.783133	-0.887380	-0.267990
H32	H	-4.347668	-0.937663	-0.252954
H33	H	-4.369877	-0.796591	-0.177176
H34	H	-3.929195	-0.740108	-0.342509
H35	H	-3.857267	-0.577514	-0.343624
