data_functionalizedCrystal
_audit_creation_method	'MofGen! by Chris Wilmer'
_symmetry_space_group_name_H-M	'P1'
_symmetry_Int_Tables_number	1
_symmetry_cell_setting	triclinic
loop_
_symmetry_equiv_pos_as_xyz
  x,y,z
_cell_length_a	21.295420
_cell_length_b	21.295417
_cell_length_c	21.295411
_cell_angle_alpha	89.978356
_cell_angle_beta	90.024693
_cell_angle_gamma	89.971243
loop_
_atom_site_label
_atom_site_type_symbol
_atom_site_fract_x
_atom_site_fract_y
_atom_site_fract_z
Zn1	Zn	0.962355	0.250710	0.355914
Zn2	Zn	1.462355	0.750710	0.855914
Zn3	Zn	0.962258	0.355962	0.250639
Zn4	Zn	1.462258	0.855962	0.750639
Zn5	Zn	0.857079	0.250708	0.250658
Zn6	Zn	1.357079	0.750708	0.750658
Zn7	Zn	0.857048	0.355942	0.355870
Zn8	Zn	1.357048	0.855942	0.855870
O9	O	0.909685	0.303331	0.303270
O10	O	1.409685	0.803331	0.803270
O11	O	1.050432	0.264682	0.341959
O12	O	1.550432	0.764682	0.841959
O13	O	0.948277	0.342007	0.162552
O14	O	1.448277	0.842007	0.662552
O15	O	0.871097	0.162619	0.264647
O16	O	1.371097	0.662619	0.764647
O17	O	1.050360	0.342010	0.264614
O18	O	1.550360	0.842010	0.764614
O19	O	0.948444	0.162621	0.341977
O20	O	1.448444	0.662621	0.841977
O21	O	0.871003	0.264677	0.162566
O22	O	1.371003	0.764677	0.662566
O23	O	0.768985	0.264658	0.264605
O24	O	1.268985	0.764658	0.764605
O25	O	0.871045	0.341976	0.443966
O26	O	1.371045	0.841976	0.943966
O27	O	0.768963	0.341973	0.341904
O28	O	1.268963	0.841973	0.841904
O29	O	0.948414	0.264662	0.443997
O30	O	1.448414	0.764662	0.943997
O31	O	0.948248	0.444049	0.264572
O32	O	1.448248	0.944049	0.764572
O33	O	0.870951	0.444034	0.341885
O34	O	1.370951	0.944034	0.841885
C35	C	0.746133	0.303314	0.303252
C36	C	1.246133	0.803314	0.803252
C37	C	0.676165	0.303321	0.303260
C38	C	1.176165	0.803321	0.803260
C39	C	0.176712	0.343663	0.343481
C40	C	0.676712	0.843663	0.843481
C41	C	0.242454	0.343663	0.343474
C42	C	0.742454	0.843663	0.843474
C43	C	0.275326	0.303345	0.303290
C44	C	0.775326	0.803345	0.803290
C45	C	0.242449	0.263035	0.263098
C46	C	0.742449	0.763035	0.763098
C47	C	0.176708	0.263040	0.263102
C48	C	0.676708	0.763040	0.763102
N49	N	0.378566	0.248227	0.298558
N50	N	0.878566	0.748227	0.798558
N51	N	0.441018	0.248224	0.298558
N52	N	0.941018	0.748224	0.798558
C53	C	0.473400	0.303327	0.303277
C54	C	0.973400	0.803327	0.803277
N55	N	0.440972	0.358435	0.308007
N56	N	0.940972	0.858435	0.808007
N57	N	0.378515	0.358438	0.308010
N58	N	0.878515	0.858438	0.808010
C59	C	0.346611	0.303335	0.303282
C60	C	0.846611	0.803335	0.803282
C61	C	0.577555	0.343638	0.343456
C62	C	1.077555	0.843638	0.843456
C63	C	0.643298	0.343639	0.343445
C64	C	1.143298	0.843639	0.843445
C65	C	0.643292	0.263005	0.263072
C66	C	1.143292	0.763005	0.763072
C67	C	0.577549	0.263010	0.263080
C68	C	1.077549	0.763010	0.763080
C69	C	0.544685	0.303325	0.303275
C70	C	1.044685	0.803325	0.803275
C71	C	0.909602	0.466882	0.303236
C72	C	1.409602	0.966882	0.803236
C73	C	0.909625	0.536850	0.303242
C74	C	1.409625	1.036850	0.803242
C75	C	0.909737	0.303317	0.467461
C76	C	1.409737	0.803317	0.967461
C77	C	0.909759	0.303312	0.537429
C78	C	1.409759	0.803312	1.037429
C79	C	1.073875	0.303348	0.303289
C80	C	1.573875	0.803348	0.803289
C81	C	1.143843	0.303356	0.303297
C82	C	1.643843	0.803356	0.803297
C83	C	0.909785	0.139140	0.303319
C84	C	1.409785	0.639140	0.803319
C85	C	0.909827	0.069172	0.303340
C86	C	1.409827	0.569172	0.803340
C87	C	0.949909	0.569704	0.263026
C88	C	1.449909	1.069704	0.763026
C89	C	0.949939	0.635446	0.263040
C90	C	1.449939	1.135446	0.763040
C91	C	0.909672	0.668333	0.303263
C92	C	1.409672	1.168333	0.803263
C93	C	0.869385	0.635472	0.343487
C94	C	1.369385	1.135472	0.843487
C95	C	0.869361	0.569730	0.343476
C96	C	1.369361	1.069730	0.843476
N97	N	0.854605	0.771598	0.308056
N98	N	1.354605	1.271598	0.808056
N99	N	0.854630	0.834049	0.308063
N100	N	1.354630	1.334049	0.808063
C101	C	0.909743	0.866407	0.303299
C102	C	1.409743	1.366407	0.803299
N103	N	0.964832	0.833955	0.298517
N104	N	1.464832	1.333955	0.798517
N105	N	0.964807	0.771498	0.298507
N106	N	1.464807	1.271498	0.798507
C107	C	0.909694	0.739618	0.303280
C108	C	1.409694	1.239618	0.803280
C109	C	0.950063	0.970546	0.263097
C110	C	1.450063	1.470546	0.763097
C111	C	0.950093	1.036290	0.263116
C112	C	1.450093	1.536290	0.763116
C113	C	0.869534	1.036314	0.343559
C114	C	1.369534	1.536314	0.843559
C115	C	0.869509	0.970572	0.343544
C116	C	1.369509	1.470572	0.843544
C117	C	0.909773	0.937692	0.303309
C118	C	1.409773	1.437692	0.803309
C119	C	0.909669	0.303298	0.139719
C120	C	1.409669	0.803298	0.639719
C121	C	0.909769	0.303127	0.069751
C122	C	1.409769	0.803127	0.569751
C123	C	0.950044	0.263053	0.570313
C124	C	1.450044	0.763053	1.070313
C125	C	0.950043	0.263025	0.636056
C126	C	1.450043	0.763025	1.136056
C127	C	0.909764	0.303268	0.668911
C128	C	1.409764	0.803268	1.168911
C129	C	0.869472	0.343530	0.636019
C130	C	1.369472	0.843530	1.136019
C131	C	0.869470	0.343552	0.570278
C132	C	1.369470	0.843552	1.070278
N133	N	0.904908	0.358336	0.772127
N134	N	1.404908	0.858336	1.272127
N135	N	0.904914	0.358314	0.834578
N136	N	1.404914	0.858314	1.334578
C137	C	0.909768	0.303204	0.866986
C138	C	1.409768	0.803204	1.366986
N139	N	0.914629	0.248117	0.834584
N140	N	1.414629	0.748117	1.334584
N141	N	0.914626	0.248141	0.772126
N142	N	1.414626	0.748141	1.272126
C143	C	0.909762	0.303249	0.740197
C144	C	1.409762	0.803249	1.240197
C145	C	0.950054	0.262913	0.971156
C146	C	1.450054	0.762913	1.471156
C147	C	0.950048	0.262884	1.036900
C148	C	1.450048	0.762884	1.536900
C149	C	0.869481	0.343395	1.036862
C150	C	1.369481	0.843395	1.536862
C151	C	0.869483	0.343417	0.971120
C152	C	1.369483	0.843417	1.471120
C153	C	0.909773	0.303177	0.938271
C154	C	1.409773	0.803177	1.438271
H155	H	0.269221	0.376486	0.376199
H156	H	0.769221	0.876486	0.876199
C157	C	0.825090	0.671648	0.387730
C158	C	1.325090	1.171648	0.887730
N159	N	0.791726	0.698896	0.421056
N160	N	1.291726	1.198896	0.921056
H161	H	0.982695	0.542935	0.230266
H162	H	1.482695	1.042935	0.730266
H163	H	0.982745	0.662201	0.230292
H164	H	1.482745	1.162201	0.730292
H165	H	0.982902	1.063038	0.230368
H166	H	1.482902	1.563038	0.730368
C167	C	0.825163	0.387795	0.672162
C168	C	1.325163	0.887795	1.172162
N169	N	0.791785	0.421134	0.699385
N170	N	1.291785	0.921134	1.199385
H171	H	0.836556	0.542981	0.376225
H172	H	1.336556	1.042981	0.876225
C173	C	0.994366	0.218592	1.073072
C174	C	1.494366	0.718592	1.573072
N175	N	1.027747	0.185232	1.100318
N176	N	1.527747	0.685232	1.600318
C177	C	0.825169	0.387709	0.934946
C178	C	1.325169	0.887709	1.434946
N179	N	0.791788	0.421069	0.907700
N180	N	1.291788	0.921069	1.407700
H181	H	0.982850	0.943774	0.230338
H182	H	1.482850	1.443774	0.730338
C183	C	0.825242	1.072486	0.387806
C184	C	1.325242	1.572486	0.887806
N185	N	0.791881	1.099733	0.421136
N186	N	1.291881	1.599733	0.921136
C187	C	0.825205	0.934432	0.387798
C188	C	1.325205	1.434432	0.887798
N189	N	0.791841	0.907211	0.421139
N190	N	1.291841	1.407211	0.921139
C191	C	0.825175	0.387663	1.073000
C192	C	1.325175	0.887663	1.573000
N193	N	0.791801	0.421007	1.100222
N194	N	1.291801	0.921007	1.600222
H195	H	0.550787	0.230185	0.230360
H196	H	1.050787	0.730185	0.730360
H197	H	0.982850	0.230285	0.543571
H198	H	1.482850	0.730285	1.043571
C199	C	0.278609	0.218681	0.218900
C200	C	0.778609	0.718681	0.718900
N201	N	0.305844	0.185272	0.185608
N202	N	0.805844	0.685272	0.685608
C203	C	0.679446	0.218656	0.218867
C204	C	1.179446	0.718656	0.718867
N205	N	0.706681	0.185253	0.185570
N206	N	1.206681	0.685253	0.685570
H207	H	0.982846	0.230238	0.662835
H208	H	1.482846	0.730238	1.162835
H209	H	0.550795	0.376466	0.376184
H210	H	1.050795	0.876466	0.876184
H211	H	0.149958	0.376493	0.376209
H212	H	0.649958	0.876493	0.876209
C213	C	0.825153	0.387843	0.534104
C214	C	1.325153	0.887843	1.034104
N215	N	0.791775	0.421205	0.506857
N216	N	1.291775	0.921205	1.006857
H217	H	0.982856	0.230143	0.944409
H218	H	1.482856	0.730143	1.444409
C219	C	0.679454	0.387986	0.387650
C220	C	1.179454	0.887986	0.887650
N221	N	0.706687	0.421389	0.420946
N222	N	1.206687	0.921389	0.920946
H223	H	0.149946	0.230215	0.230379
H224	H	0.649946	0.730215	0.730379
