data_functionalizedCrystal
_audit_creation_method	'MofGen! by Chris Wilmer'
_symmetry_space_group_name_H-M	'P1'
_symmetry_Int_Tables_number	1
_symmetry_cell_setting	triclinic
loop_
_symmetry_equiv_pos_as_xyz
  x,y,z
_cell_length_a	22.863218
_cell_length_b	22.862586
_cell_length_c	22.858745
_cell_angle_alpha	60.006856
_cell_angle_beta	60.013818
_cell_angle_gamma	59.991795
loop_
_atom_site_label
_atom_site_type_symbol
_atom_site_fract_x
_atom_site_fract_y
_atom_site_fract_z
O1	O	0.081006	-0.854581	0.714630
O2	O	0.030492	-0.665350	0.575795
O3	O	0.150314	-0.785089	0.575706
O4	O	-0.038816	-0.734841	0.714718
O5	O	0.190066	-0.745348	0.615369
O6	O	0.070244	-0.625609	0.615458
O7	O	0.120758	-0.814840	0.754293
Zn8	Zn	0.101812	-0.713914	0.691173
Zn9	Zn	0.049438	-0.766275	0.638915
O10	O	0.000936	-0.695100	0.754381
N11	N	0.137558	-0.678184	0.726840
N12	N	0.013698	-0.802011	0.603247
C13	C	0.187224	-0.518558	0.776483
C14	C	0.187235	-0.628552	0.776467
C15	C	0.214753	-0.601061	0.803961
C16	C	0.334724	-0.580392	0.740801
C17	C	0.409718	-0.605392	0.715784
C18	C	0.409746	-0.726732	0.762051
C19	C	0.334754	-0.701730	0.787070
C20	C	0.205297	-0.481049	0.702756
C21	C	0.180267	-0.406048	0.677779
C22	C	0.119099	-0.406071	0.800259
C23	C	0.144128	-0.481071	0.825236
C24	C	0.113501	-0.610437	0.794610
C25	C	0.088492	-0.635428	0.769607
C26	C	0.210943	-0.696652	0.708337
C27	C	0.235956	-0.671660	0.733331
C28	C	0.113585	-0.610461	0.923980
C29	C	0.088635	-0.635476	0.998978
C30	C	0.211128	-0.696714	0.998930
C31	C	0.236077	-0.671700	0.923930
C32	C	0.187303	-0.628571	0.886457
C33	C	0.297246	-0.628559	0.776441
C34	C	-0.117796	-0.823430	0.581283
C35	C	-0.007671	-0.823587	0.471446
C36	C	-0.007879	-0.933535	0.581483
C37	C	-0.007861	-0.823583	0.581554
C38	C	-0.035301	-0.851035	0.553942
N39	N	0.446162	-0.678198	0.726752
O40	O	0.691234	-0.690164	0.550341
O41	O	0.691462	-0.829422	0.739388
O42	O	0.691373	-0.829102	0.619485
O43	O	0.691323	-0.690484	0.670244
O44	O	0.572233	-0.789455	0.659278
O45	O	0.572322	-0.789775	0.779181
O46	O	0.572094	-0.650517	0.590134
Zn47	Zn	0.553292	-0.713851	0.690976
Zn48	Zn	0.710264	-0.766088	0.638547
O49	O	0.572183	-0.650837	0.710037
N50	N	0.817394	-0.801741	0.602763
N51	N	0.137538	-0.369628	0.726874
O52	O	-0.038795	-0.124419	0.714761
O53	O	0.150256	-0.124417	0.575522
O54	O	0.030331	-0.124432	0.575860
O55	O	0.081131	-0.124404	0.714423
O56	O	0.070086	-0.243584	0.615573
O57	O	0.190011	-0.243569	0.615236
O58	O	0.000960	-0.243571	0.754474
Zn59	Zn	0.101797	-0.262488	0.691160
Zn60	Zn	0.049419	-0.105500	0.638836
O61	O	0.120885	-0.243556	0.754137
N62	N	0.013669	0.001640	0.603123
N63	N	0.137749	-0.678230	1.035381
O64	O	0.125655	-0.854547	1.280566
O65	O	-0.013567	-0.665426	1.280590
O66	O	-0.013245	-0.785328	1.280537
O67	O	0.125333	-0.734644	1.280618
O68	O	0.026456	-0.745599	1.161392
O69	O	0.026134	-0.625697	1.161444
O70	O	0.165355	-0.814817	1.161420
Zn71	Zn	0.102048	-0.713949	1.142516
Zn72	Zn	0.049740	-0.766294	1.299495
O73	O	0.165033	-0.694915	1.161473
N74	N	0.014038	-0.802020	1.406629
C75	C	0.045634	-0.621635	0.576499
C76	C	0.194019	-0.769918	0.576389
C77	C	0.105616	-0.858555	0.753588
C78	C	-0.042769	-0.710272	0.753698
C79	C	0.631920	-0.828776	0.783102
C80	C	0.631811	-0.828380	0.634616
C81	C	0.631633	-0.651162	0.546422
C82	C	0.631745	-0.651559	0.694907
C83	C	0.193900	-0.183846	0.576155
C84	C	0.045437	-0.184012	0.576622
C85	C	-0.042734	-0.183994	0.753792
C86	C	0.105780	-0.183977	0.753375
C87	C	-0.012889	-0.621735	1.221020
C88	C	-0.012483	-0.770211	1.220931
C89	C	0.164678	-0.858508	1.220991
C90	C	0.164280	-0.710023	1.221052
H91	H	0.073862	-0.575336	0.893474
H92	H	0.034845	-0.567275	0.532897
H93	H	-0.097093	-0.699562	0.797349
H94	H	0.631832	-0.871926	0.623751
O95	O	0.017003	-0.617900	1.035341
C96	C	-0.014160	-0.643552	1.017036
H97	H	0.021372	-0.650899	0.962577
H98	H	-0.019719	-0.697149	1.059239
C99	C	-0.132329	-0.580221	1.080484
C100	C	-0.088692	-0.589239	1.013593
H101	H	-0.178305	-0.546721	1.078363
H102	H	-0.111335	-0.562941	1.092819
H103	H	-0.136954	-0.624889	1.115646
H104	H	-0.084061	-0.544573	0.978434
H105	H	-0.109687	-0.606511	1.001252
H106	H	0.440232	-0.566167	0.686761
H107	H	0.248339	-0.780632	0.532734
H108	H	0.248082	-0.183515	0.532333
O109	O	-0.107558	-0.183949	0.805852
C110	C	-0.152153	-0.183972	0.780079
H111	H	-0.132769	-0.161432	0.719055
H112	H	-0.150219	-0.241134	0.798305
C113	C	-0.253474	-0.164911	0.884687
C114	C	-0.229669	-0.137221	0.809737
H115	H	-0.301290	-0.136076	0.902984
H116	H	-0.223429	-0.164899	0.902052
H117	H	-0.251856	-0.212546	0.899866
H118	H	-0.231280	-0.089591	0.794560
H119	H	-0.259717	-0.137225	0.792370
H120	H	0.116407	-0.912913	0.797192
O121	O	0.216915	-0.923254	1.220952
C122	C	0.278564	-0.923261	1.220998
H123	H	0.277711	-0.865796	1.198461
H124	H	0.279407	-0.948874	1.278164
C125	C	0.346967	-1.036874	1.201950
C126	C	0.345923	-0.966295	1.174264
H127	H	0.388518	-1.063421	1.173125
H128	H	0.305433	-1.036871	1.201922
H129	H	0.347667	-1.058209	1.249588
H130	H	0.345214	-0.944958	1.126630
H131	H	0.387459	-0.966295	1.174283
H132	H	0.116656	-0.183968	0.796904
O133	O	0.631643	-0.598975	0.481651
C134	C	0.693321	-0.579712	0.449907
H135	H	0.713939	-0.594224	0.493331
H136	H	0.736518	-0.609761	0.410790
C137	C	0.649168	-0.480650	0.356082
C138	C	0.674488	-0.498469	0.409417
H139	H	0.637553	-0.430536	0.331102
H140	H	0.607616	-0.493629	0.377466
H141	H	0.685170	-0.505697	0.323491
H142	H	0.638483	-0.473429	0.442011
H143	H	0.716034	-0.485484	0.388037
O144	O	-0.064377	-0.783234	1.220937
C145	C	-0.080866	-0.841235	1.282617
H146	H	-0.033538	-0.875558	1.303238
H147	H	-0.130102	-0.819989	1.325815
C148	C	-0.154432	-0.844771	1.238457
C149	C	-0.096300	-0.886931	1.263781
H150	H	-0.163955	-0.872957	1.226840
H151	H	-0.143325	-0.805693	1.196903
H152	H	-0.195455	-0.827069	1.274459
H153	H	-0.055276	-0.904625	1.227775
H154	H	-0.107400	-0.926013	1.305328
H155	H	0.631735	-0.608016	0.705768
H156	H	-0.056598	-0.567419	1.221026
O157	O	0.632025	-0.880867	0.847903
C158	C	0.632020	-0.855067	0.892496
H159	H	0.654525	-0.809057	0.858055
H160	H	0.574872	-0.835202	0.928701
C161	C	0.651168	-0.972381	0.981124
C162	C	0.678815	-0.915875	0.938823
H163	H	0.680031	-1.009890	1.009704
H164	H	0.651169	-0.989763	0.951083
H165	H	0.603546	-0.955818	1.011289
H166	H	0.726433	-0.932436	0.908653
H167	H	0.678823	-0.898497	0.968861
O168	O	0.216242	-0.697016	1.220944
C169	C	0.232669	-0.638993	1.159258
H170	H	0.216928	-0.633343	1.116118
H171	H	0.201759	-0.587625	1.173222
C172	C	0.332965	-0.659573	1.184274
C173	C	0.313637	-0.652637	1.131287
H174	H	0.382909	-0.667987	1.167021
H175	H	0.321896	-0.698663	1.225834
H176	H	0.307201	-0.616764	1.195906
H177	H	0.339394	-0.695449	1.119662
H178	H	0.324712	-0.613555	1.089724
O179	O	0.258605	-0.738615	1.035214
C180	C	0.329020	-0.749213	0.986009
H181	H	0.328850	-0.740828	0.932556
H182	H	0.350495	-0.709289	0.978028
C183	C	0.377369	-0.836345	1.080899
C184	C	0.377161	-0.826052	1.015248
H185	H	0.407065	-0.883741	1.098936
H186	H	0.329929	-0.829203	1.114050
H187	H	0.395262	-0.803070	1.074240
H188	H	0.359259	-0.859320	1.021910
H189	H	0.424599	-0.833201	0.982099
O190	O	0.066143	-0.568458	0.836401
C191	C	0.022740	-0.505559	0.798559
H192	H	0.051668	-0.495120	0.738554
H193	H	-0.029946	-0.512370	0.814535
C194	C	-0.028107	-0.454569	0.890397
C195	C	0.007426	-0.441746	0.816698
H196	H	-0.037557	-0.415207	0.901587
H197	H	0.001133	-0.496947	0.915893
H198	H	-0.072008	-0.460247	0.903701
H199	H	0.051330	-0.436077	0.803396
H200	H	-0.021807	-0.399366	0.791199
H201	H	0.034558	-0.184014	0.533090
H202	H	0.028452	-0.620662	0.784363
H203	H	0.250621	-0.731757	0.673222
O204	O	0.307604	-0.689327	0.715651
C205	C	0.345246	-0.732707	0.672192
H206	H	0.309496	-0.759994	0.681780
H207	H	0.361349	-0.698084	0.613454
C208	C	0.456815	-0.756493	0.679335
C209	C	0.412908	-0.790011	0.691116
H210	H	0.498554	-0.791838	0.691005
H211	H	0.431456	-0.727264	0.708612
H212	H	0.470227	-0.727641	0.630386
H213	H	0.399490	-0.818855	0.740065
H214	H	0.438266	-0.819246	0.661847
H215	H	0.304240	-0.740958	0.816091
O216	O	0.446264	-0.797808	0.772411
C217	C	0.489663	-0.823806	0.813200
H218	H	0.500896	-0.777511	0.807324
H219	H	0.460790	-0.849642	0.871972
C220	C	0.547100	-0.936703	0.793517
C221	C	0.560902	-0.879843	0.786296
H222	H	0.591042	-0.971271	0.776924
H223	H	0.517860	-0.919189	0.766039
H224	H	0.523038	-0.958224	0.842495
H225	H	0.584955	-0.858317	0.737318
H226	H	0.590148	-0.897355	0.813765
O227	O	0.298370	-0.509286	0.730351
C228	C	0.316641	-0.470591	0.656303
H229	H	0.371084	-0.503363	0.626762
H230	H	0.274413	-0.459397	0.635876
C231	C	0.253233	-0.358921	0.679202
C232	C	0.320103	-0.399170	0.642919
H233	H	0.255366	-0.314864	0.670945
H234	H	0.240920	-0.384990	0.729090
H235	H	0.218050	-0.349601	0.662176
H236	H	0.355283	-0.408497	0.659952
H237	H	0.332422	-0.373101	0.593034
O238	O	0.247122	-0.517353	0.655304
C239	C	0.257712	-0.468161	0.584873
H240	H	0.212487	-0.414701	0.585028
H241	H	0.311132	-0.460181	0.563367
C242	C	0.313755	-0.563081	0.536588
C243	C	0.258205	-0.497423	0.536778
H244	H	0.314063	-0.581131	0.506919
H245	H	0.306623	-0.596224	0.584039
H246	H	0.358265	-0.556422	0.518668
H247	H	0.213695	-0.504084	0.554706
H248	H	0.265330	-0.464282	0.489329
H249	H	0.296108	-0.686456	0.893383
H250	H	0.194981	-0.375507	0.617742
H251	H	0.129402	-0.511613	0.885274
O252	O	0.077225	-0.369763	0.847712
C253	C	0.066668	-0.418953	0.918144
H254	H	0.075053	-0.472415	0.918009
H255	H	0.106610	-0.426927	0.939606
C256	C	-0.020441	-0.324031	0.966439
C257	C	-0.010149	-0.389692	0.966273
H258	H	-0.067825	-0.305981	0.996129
H259	H	-0.013328	-0.290890	0.918988
H260	H	0.012848	-0.330685	0.984322
H261	H	-0.043433	-0.383035	0.948382
H262	H	-0.017270	-0.422832	1.013723
