data_functionalizedCrystal
_audit_creation_method	'MofGen! by Chris Wilmer'
_symmetry_space_group_name_H-M	'P1'
_symmetry_Int_Tables_number	1
_symmetry_cell_setting	triclinic
loop_
_symmetry_equiv_pos_as_xyz
  x,y,z
_cell_length_a	16.704494
_cell_length_b	12.970454
_cell_length_c	12.970454
_cell_angle_alpha	59.999776
_cell_angle_beta	90.000252
_cell_angle_gamma	56.632329
loop_
_atom_site_label
_atom_site_type_symbol
_atom_site_fract_x
_atom_site_fract_y
_atom_site_fract_z
Zr1	Zr	0.815199	1.020729	-0.081400
O2	O	0.680082	1.253685	-0.254960
O3	O	0.856620	0.800162	-0.028194
O4	O	0.856621	1.015251	-0.243285
O5	O	0.680080	1.038597	0.129798
O6	O	0.995877	0.996838	-0.234077
O7	O	0.680081	1.038596	-0.039869
O8	O	0.995875	0.612082	0.150681
O9	O	0.680082	1.423352	-0.254960
O10	O	0.978211	0.872554	0.001369
O11	O	0.874284	0.886297	0.121117
O12	O	0.874286	1.139537	-0.132125
O13	O	0.770359	1.153279	-0.012377
Zr14	Zr	1.037296	0.991363	0.203884
Zr15	Zr	1.037297	0.991362	-0.066714
Zr16	Zr	0.815198	1.020731	0.189198
Zr17	Zr	0.815199	1.291329	-0.081402
Zr18	Zr	1.037296	0.720764	0.203886
O19	O	0.995875	1.211931	0.150678
O20	O	0.995877	1.211929	-0.234078
O21	O	0.680080	1.253687	0.129797
O22	O	1.172412	0.758407	0.377444
O23	O	1.172415	0.758405	-0.007312
O24	O	0.856617	0.800164	0.356562
O25	O	1.172415	0.973496	-0.007313
O26	O	0.995874	0.996841	0.365769
O27	O	0.856617	1.015255	0.356561
O28	O	1.172414	0.973497	0.162353
O29	O	0.856621	1.400009	-0.243287
O30	O	0.995874	0.612083	0.365771
O31	O	1.172412	0.588740	0.377445
O32	O	1.172414	0.588739	0.162355
O33	O	0.680081	1.423354	-0.039871
O34	O	0.856620	1.400011	-0.028197
O35	O	0.978209	0.872556	0.254609
O36	O	1.082135	0.858813	0.134861
O37	O	0.978211	1.125796	0.001367
O38	O	0.874284	1.139538	0.121116
C39	C	0.926247	0.667567	0.061244
C40	C	0.926247	0.552690	0.061244
C41	C	0.648436	1.042780	0.042872
C42	C	0.554150	1.055247	0.036637
C43	C	0.485481	0.799920	0.164320
C44	C	0.396894	0.811627	0.158465
C45	C	0.288386	1.090367	0.019082
C46	C	0.376974	1.078660	0.024936
C47	C	0.475520	0.933431	0.097556
C48	C	0.564109	0.921726	0.103403
C49	C	0.455600	1.200464	-0.035973
C50	C	0.367012	1.212171	-0.041827
C51	C	1.204058	0.969312	0.079612
C52	C	1.298345	0.956845	0.085847
C53	C	0.926249	1.006044	-0.277235
C54	C	0.926250	1.006044	-0.392111
C55	C	0.926247	1.344525	0.061240
C56	C	0.926247	1.459402	0.061240
C57	C	0.926245	1.006048	0.399719
C58	C	0.926245	1.006049	0.514596
C59	C	1.204058	0.630833	0.079614
C60	C	1.298345	0.503489	0.085849
C61	C	0.926245	0.667569	0.399721
C62	C	0.926245	0.552693	0.514598
C63	C	1.204056	0.630835	0.418091
C64	C	1.298342	0.503492	0.539203
C65	C	0.648438	1.381257	-0.295607
C66	C	0.554153	1.508601	-0.416719
C67	C	0.648437	1.381260	0.042870
C68	C	0.554150	1.508603	0.036635
C69	C	0.926249	1.344523	-0.277237
C70	C	0.926250	1.459399	-0.392114
C71	C	1.288375	0.450860	0.019085
C72	C	1.376959	0.331223	0.024917
C73	C	1.475511	0.264210	0.097523
C74	C	1.485479	0.316850	0.164290
C75	C	1.396896	0.436492	0.158449
C76	C	1.396878	0.436515	0.533571
C77	C	1.485478	0.316877	0.647358
C78	C	1.475540	0.264210	0.766776
C79	C	1.376994	0.331198	0.772404
C80	C	1.288396	0.450842	0.658618
C81	C	0.455617	1.575590	-0.411087
C82	C	0.367017	1.695262	-0.524874
C83	C	0.376955	1.747935	-0.644292
C84	C	0.475501	1.680940	-0.649920
C85	C	0.564098	1.561277	-0.536134
C86	C	0.564120	1.561244	0.103388
C87	C	0.475536	1.680911	0.097526
C88	C	0.376984	1.747928	0.024916
C89	C	0.367016	1.695282	-0.041845
C90	C	0.455599	1.575625	-0.035989
H91	H	0.565721	0.681669	0.223458
O92	O	0.446091	1.524339	-0.100787
C93	C	0.545400	1.404320	-0.080028
H94	H	0.604140	1.414260	-0.051825
H95	H	0.544404	1.413202	-0.172087
H96	H	0.567959	1.288451	0.000609
O97	O	0.659754	1.496472	-0.541792
C98	C	0.671103	1.610165	-0.607609
H99	H	0.591348	1.728683	-0.672419
H100	H	0.717666	1.587765	-0.668729
H101	H	0.713471	1.605982	-0.534905
H102	H	1.208137	0.505420	-0.040054
O103	O	1.406773	0.487367	0.223444
C104	C	1.512756	0.402576	0.288751
H105	H	1.559985	0.286943	0.304930
H106	H	1.525124	0.382306	0.385595
H107	H	1.538860	0.469913	0.228540
O108	O	1.406361	0.487806	0.417472
C109	C	1.307042	0.607800	0.318231
H110	H	1.248319	0.597834	0.356403
H111	H	1.308029	0.598910	0.235059
H112	H	1.284465	0.723683	0.282980
O113	O	1.192603	0.516101	0.663868
C114	C	1.116522	0.632969	0.537841
H115	H	1.151020	0.675646	0.468554
H116	H	1.048206	0.732787	0.534536
H117	H	1.088820	0.584979	0.508525
O118	O	0.659793	1.496139	0.174104
C119	C	0.671156	1.432183	0.303879
H120	H	0.591408	1.491494	0.309418
H121	H	0.717754	1.449693	0.347446
H122	H	0.713494	1.303647	0.359712
H123	H	0.483580	1.723842	-0.747163
O124	O	0.290911	1.864351	0.019014
C125	C	0.231542	1.997070	-0.109975
H126	H	0.283543	1.990053	-0.167455
H127	H	0.195676	2.103824	-0.113669
H128	H	0.167398	2.004655	-0.153106
O129	O	1.581274	0.251706	0.642104
C130	C	1.657353	0.134800	0.768132
H131	H	1.622839	0.157066	0.837410
H132	H	1.725648	0.134577	0.771427
H133	H	1.685091	0.018224	0.797471
H134	H	1.547690	0.166787	0.859418
O135	O	0.445765	1.524682	-0.295201
C136	C	0.339788	1.609474	-0.314657
H137	H	0.292550	1.725117	-0.414106
H138	H	0.327445	1.629723	-0.238070
H139	H	0.313673	1.542148	-0.307528
H140	H	1.368918	0.288298	0.869649
O141	O	0.271276	1.760549	-0.519455
C142	C	0.216770	1.919001	-0.581534
H143	H	0.274248	1.940956	-0.582720
H144	H	0.167802	1.956474	-0.527509
H145	H	0.164186	1.987702	-0.684568
O146	O	1.561631	0.147831	0.103435
C147	C	1.620971	0.015090	0.232417
H148	H	1.601617	0.050232	0.299349
H149	H	1.706910	-0.048534	0.250613
H150	H	1.602373	-0.063767	0.251588
H151	H	0.644348	0.803474	0.162541
O152	O	0.271303	1.760509	-0.112564
C153	C	0.259927	1.824423	-0.242338
H154	H	0.316020	1.849409	-0.262055
H155	H	0.177055	1.936175	-0.307589
H156	H	0.277504	1.739373	-0.262309
H157	H	1.368822	0.288379	-0.029453
H158	H	0.405012	0.702908	0.212832
H159	H	0.208137	1.208604	-0.040024
H160	H	0.286766	1.330411	-0.100948
H161	H	0.447495	1.309180	-0.090341
H162	H	0.304804	1.845373	-0.736934
H163	H	1.565732	0.262271	0.223403
H164	H	0.483672	1.723754	0.151897
