data_functionalizedCrystal
_audit_creation_method	'MofGen! by Chris Wilmer'
_symmetry_space_group_name_H-M	'P1'
_symmetry_Int_Tables_number	1
_symmetry_cell_setting	triclinic
loop_
_symmetry_equiv_pos_as_xyz
  x,y,z
_cell_length_a	14.044220
_cell_length_b	15.995350
_cell_length_c	13.101039
_cell_angle_alpha	93.364563
_cell_angle_beta	86.340132
_cell_angle_gamma	88.340626
loop_
_atom_site_label
_atom_site_type_symbol
_atom_site_fract_x
_atom_site_fract_y
_atom_site_fract_z
O1	O	1.262914	0.197637	-0.085096
O2	O	0.986946	0.190352	-0.085122
O3	O	1.132474	0.072670	-0.085107
O4	O	1.117386	0.315319	-0.085111
O5	O	1.122032	0.081129	0.085321
O6	O	0.976505	0.198810	0.085307
O7	O	1.252472	0.206096	0.085333
Zn8	Zn	1.112831	0.203796	0.112379
Zn9	Zn	1.126588	0.192651	-0.112168
O10	O	1.106945	0.323777	0.085318
C11	C	0.946411	0.191392	0.000089
C12	C	0.841186	0.181881	0.000079
C13	C	0.648524	0.164494	0.000099
C14	C	0.590890	0.231950	0.000102
C15	C	0.483686	0.222275	0.000114
C16	C	0.755738	0.174167	0.000088
C17	C	1.126629	0.045658	0.000105
C18	C	1.124760	-0.047432	0.000099
C19	C	1.118044	-0.385681	0.000102
C20	C	1.014425	-0.346007	-0.000290
C21	C	1.016272	-0.249158	0.000094
C22	C	1.121375	-0.217872	0.000100
C23	C	1.166533	-0.250301	0.097426
C24	C	1.163924	-0.347127	0.097507
C25	C	1.177939	-0.356944	-0.096302
C26	C	1.177993	-0.260065	-0.097588
C27	C	1.123263	-0.123033	0.000102
C28	C	1.116159	-0.480519	0.000106
C29	C	1.293008	0.205055	0.000120
C30	C	1.398233	0.214566	0.000123
C31	C	1.112789	0.350789	0.000103
C32	C	1.114659	0.443879	0.000103
N33	N	1.103449	0.211402	0.265626
N34	N	1.135977	0.185039	-0.265416
C35	C	1.090685	0.221758	0.474668
C36	C	1.148739	0.174686	0.525549
C37	C	1.141636	0.180448	0.641867
C38	C	1.097786	0.215997	0.358340
H39	H	0.980363	-0.227200	-0.069674
Br40	Br	0.998960	0.296138	0.547658
H41	H	0.617354	0.099482	0.000106
H42	H	0.622062	0.296967	0.000097
Br43	Br	0.952501	-0.387821	-0.116623
Br44	Br	1.240870	0.100687	0.452559
H45	H	0.971537	-0.220847	0.069973
Br46	Br	0.938423	-0.378489	0.115024
H47	H	1.122190	-0.364602	0.170256
Br48	Br	1.290293	-0.391042	0.104887
Br49	Br	1.099963	-0.201429	0.218140
Br50	Br	1.294864	-0.216850	0.103472
H51	H	1.145029	-0.239181	-0.169587
Br52	Br	1.128985	-0.401487	-0.219254
H53	H	1.254999	-0.239269	-0.103460
Br54	Br	1.305368	-0.400421	-0.097388
