data_functionalizedCrystal
_audit_creation_method	'MofGen! by Chris Wilmer'
_symmetry_space_group_name_H-M	'P1'
_symmetry_Int_Tables_number	1
_symmetry_cell_setting	triclinic
loop_
_symmetry_equiv_pos_as_xyz
  x,y,z
_cell_length_a	19.188925
_cell_length_b	19.188930
_cell_length_c	15.455313
_cell_angle_alpha	92.650876
_cell_angle_beta	87.326905
_cell_angle_gamma	83.143665
loop_
_atom_site_label
_atom_site_type_symbol
_atom_site_fract_x
_atom_site_fract_y
_atom_site_fract_z
O1	O	0.929218	0.084085	-0.072159
O2	O	1.262551	0.417418	0.261174
O3	O	1.595885	0.750752	0.594508
O4	O	0.725906	0.095823	-0.072158
O5	O	1.059240	0.429156	0.261175
O6	O	1.392573	0.762490	0.594509
O7	O	0.833429	-0.011701	-0.072141
O8	O	1.166762	0.321632	0.261192
O9	O	1.500095	0.654966	0.594525
O10	O	0.821696	0.191609	-0.072175
O11	O	1.155029	0.524942	0.261158
O12	O	1.488362	0.858276	0.594491
O13	O	0.827280	-0.005578	0.072120
O14	O	1.160613	0.327756	0.405453
O15	O	1.493947	0.661089	0.738786
O16	O	0.719758	0.101947	0.072103
O17	O	1.053091	0.435280	0.405437
O18	O	1.386424	0.768613	0.738770
O19	O	0.923070	0.090208	0.072102
O20	O	1.256403	0.423542	0.405436
O21	O	1.589736	0.756875	0.738769
Cu22	Cu	0.820852	0.096637	0.085275
Cu23	Cu	1.154186	0.429970	0.418608
Cu24	Cu	1.487519	0.763303	0.751942
Cu25	Cu	0.828124	0.089395	-0.085331
Cu26	Cu	1.161457	0.422728	0.248003
Cu27	Cu	1.494790	0.756062	0.581336
O28	O	0.815547	0.197733	0.072086
O29	O	1.148880	0.531066	0.405419
O30	O	1.482214	0.864399	0.738753
C31	C	0.696821	0.098505	-0.000027
C32	C	1.030154	0.431839	0.333306
C33	C	1.363487	0.765172	0.666640
C34	C	0.619316	0.097366	-0.000026
C35	C	0.952649	0.430700	0.333308
C36	C	1.285983	0.764033	0.666641
C37	C	0.057546	0.152830	-0.000037
C38	C	0.390880	0.486163	0.333296
C39	C	0.724213	0.819496	0.666630
C40	C	0.130370	0.153906	-0.000042
C41	C	0.463703	0.487239	0.333291
C42	C	0.797036	0.820573	0.666625
C43	C	0.175304	0.090814	-0.000030
C44	C	0.508637	0.424148	0.333304
C45	C	0.841970	0.757481	0.666637
C46	C	0.147410	0.026641	-0.000035
C47	C	0.480743	0.359974	0.333298
C48	C	0.814076	0.693307	0.666632
C49	C	0.074588	0.025566	-0.000039
C50	C	0.407921	0.358899	0.333294
C51	C	0.741255	0.692233	0.666628
N52	N	0.293887	0.047223	0.049085
N53	N	0.627221	0.380556	0.382419
N54	N	0.960554	0.713890	0.715752
N55	N	0.363065	0.048249	0.049091
N56	N	0.696398	0.381582	0.382424
N57	N	1.029731	0.714915	0.715757
C58	C	0.394712	0.094049	-0.000020
C59	C	0.728046	0.427382	0.333313
C60	C	1.061379	0.760716	0.666647
N61	N	0.354568	0.138796	-0.049126
N62	N	0.687901	0.472130	0.284207
N63	N	1.021235	0.805463	0.617541
N64	N	0.285384	0.137773	-0.049127
N65	N	0.618717	0.471106	0.284206
N66	N	0.952051	0.804440	0.617539
C67	C	0.254268	0.091973	-0.000026
C68	C	0.587601	0.425306	0.333307
C69	C	0.920934	0.758640	0.666641
C70	C	0.501562	0.159385	-0.000026
C71	C	0.834895	0.492719	0.333307
C72	C	1.168228	0.826052	0.666641
C73	C	0.574387	0.160459	-0.000036
C74	C	0.907720	0.493792	0.333297
C75	C	1.241054	0.827125	0.666630
C76	C	0.591426	0.033192	-0.000021
C77	C	0.924759	0.366525	0.333312
C78	C	1.258092	0.699859	0.666646
C79	C	0.518602	0.032120	-0.000019
C80	C	0.851935	0.365453	0.333314
C81	C	1.185268	0.698787	0.666647
C82	C	0.473674	0.095219	-0.000018
C83	C	0.807007	0.428552	0.333315
C84	C	1.140340	0.761885	0.666649
C85	C	0.829974	-0.034650	-0.000008
C86	C	1.163307	0.298683	0.333325
C87	C	1.496641	0.632016	0.666658
C88	C	0.828833	-0.112154	-0.000001
C89	C	1.162166	0.221179	0.333332
C90	C	1.495500	0.554512	0.666666
C91	C	0.891924	-0.157079	0.000003
C92	C	1.225257	0.176254	0.333336
C93	C	1.558591	0.509587	0.666670
C94	C	0.890853	-0.229904	-0.000011
C95	C	1.224186	0.103430	0.333322
C96	C	1.557520	0.436763	0.666656
C97	C	0.826687	-0.257799	-0.000011
C98	C	1.160020	0.075534	0.333322
C99	C	1.493353	0.408868	0.666655
C100	C	0.763588	-0.212864	-0.000020
C101	C	1.096921	0.120469	0.333313
C102	C	1.430254	0.453802	0.666647
C103	C	0.764661	-0.140042	-0.000015
C104	C	1.097994	0.193291	0.333319
C105	C	1.431328	0.526625	0.666652
N106	N	0.775547	-0.363719	0.049084
N107	N	1.108880	-0.030386	0.382417
N108	N	1.442213	0.302947	0.715750
N109	N	0.774531	-0.432898	0.049081
N110	N	1.107865	-0.099565	0.382414
N111	N	1.441198	0.233769	0.715747
C112	C	0.823449	-0.477208	-0.000029
C113	C	1.156783	-0.143875	0.333305
C114	C	1.490116	0.189458	0.666638
N115	N	0.873431	-0.449728	-0.049124
N116	N	1.206764	-0.116394	0.284209
N117	N	1.540098	0.216939	0.617542
N118	N	0.874448	-0.380543	-0.049117
N119	N	1.207782	-0.047209	0.284216
N120	N	1.541115	0.286124	0.617549
C121	C	0.825516	-0.336762	-0.000017
C122	C	1.158849	-0.003429	0.333316
C123	C	1.492183	0.329905	0.666649
C124	C	0.885383	-0.601099	-0.000041
C125	C	1.218716	-0.267765	0.333292
C126	C	1.552050	0.065568	0.666625
C127	C	0.884310	-0.673924	-0.000061
C128	C	1.217643	-0.340591	0.333273
C129	C	1.550976	-0.007257	0.666606
C130	C	0.757042	-0.656883	-0.000061
C131	C	1.090376	-0.323549	0.333273
C132	C	1.423709	0.009784	0.666606
C133	C	0.758118	-0.584059	-0.000050
C134	C	1.091451	-0.250726	0.333283
C135	C	1.424785	0.082607	0.666616
C136	C	0.822290	-0.556172	-0.000036
C137	C	1.155623	-0.222838	0.333297
C138	C	1.488957	0.110495	0.666630
C139	C	0.952155	0.087526	-0.000031
C140	C	1.285488	0.420859	0.333303
C141	C	1.618822	0.754193	0.666636
C142	C	1.029660	0.088665	-0.000037
C143	C	1.362993	0.421998	0.333296
C144	C	1.696327	0.755332	0.666629
C145	C	0.819002	0.220682	-0.000049
C146	C	1.152335	0.554015	0.333284
C147	C	1.485668	0.887348	0.666618
C148	C	0.820143	0.298186	-0.000062
C149	C	1.153476	0.631519	0.333271
C150	C	1.486810	0.964852	0.666604
N151	N	0.815743	0.101730	0.205270
N152	N	1.149076	0.435063	0.538603
N153	N	1.482410	0.768396	0.871936
N154	N	0.833238	0.084296	-0.205325
N155	N	1.166572	0.417630	0.128008
N156	N	1.499905	0.750963	0.461341
C157	C	0.861438	0.056066	0.250671
C158	C	1.194771	0.389400	0.584004
C159	C	1.528105	0.722733	0.917337
C160	C	0.857581	0.059924	0.341478
C161	C	1.190914	0.393258	0.674811
C162	C	1.524247	0.726591	1.008145
C163	C	0.808031	0.109449	0.386883
C164	C	1.141364	0.442783	0.720216
C165	C	1.474698	0.776116	1.053549
C166	C	0.762331	0.155115	0.341475
C167	C	1.095664	0.488448	0.674809
C168	C	1.428998	0.821781	1.008142
C169	C	0.766186	0.151253	0.250670
C170	C	1.099519	0.484586	0.584003
C171	C	1.432852	0.817920	0.917336
C172	C	0.791393	0.126100	0.658462
C173	C	1.124726	0.459433	0.991795
C174	C	1.458060	0.792767	1.325128
C175	C	0.787543	0.129960	0.749274
C176	C	1.120877	0.463293	1.082607
C177	C	1.454210	0.796626	1.415940
C178	C	0.882792	0.034768	0.749270
C179	C	1.216126	0.368101	1.082604
C180	C	1.549459	0.701434	1.415937
C181	C	0.886645	0.030913	0.658463
C182	C	1.219979	0.364246	0.991796
C183	C	1.553312	0.697580	1.325129
C184	C	0.840943	0.076576	0.613063
C185	C	1.174276	0.409909	0.946397
C186	C	1.507610	0.743243	1.279730
N187	N	0.804088	0.113396	0.479702
N188	N	1.137422	0.446729	0.813036
N189	N	1.470755	0.780062	1.146369
N190	N	0.844883	0.072626	0.520245
N191	N	1.178216	0.405959	0.853579
N192	N	1.511550	0.739293	1.186912
H193	H	0.495897	-0.020130	-0.000015
H194	H	0.829230	0.313203	0.333319
H195	H	1.162564	0.646537	0.666652
H196	H	0.728975	0.188436	0.213705
H197	H	1.062308	0.521769	0.547038
H198	H	1.395642	0.855103	0.880372
F199	F	0.709592	0.207821	0.389799
F200	F	1.042926	0.541154	0.723132
F201	F	1.376259	0.874488	1.056466
H202	H	0.920000	-0.002410	0.786243
H203	H	1.253334	0.330924	1.119576
H204	H	1.586667	0.664257	1.452909
H205	H	0.051884	-0.026686	-0.000040
H206	H	0.385218	0.306647	0.333294
H207	H	0.718551	0.639980	0.666627
H208	H	0.153079	0.206159	-0.000033
H209	H	0.486412	0.539492	0.333300
H210	H	0.819746	0.872826	0.666633
F211	F	0.951464	-0.721738	-0.000062
F212	F	1.284797	-0.388404	0.333271
F213	F	1.618130	-0.055071	0.666605
F214	F	0.009735	0.219985	-0.000044
F215	F	0.343068	0.553319	0.333289
F216	F	0.676402	0.886652	0.666623
H217	H	0.597090	0.212711	-0.000043
H218	H	0.930423	0.546045	0.333290
H219	H	1.263757	0.879378	0.666623
H220	H	0.628010	-0.018179	-0.000018
H221	H	0.961344	0.315155	0.333316
H222	H	1.294677	0.648488	0.666649
H223	H	0.894789	0.022741	0.378443
H224	H	1.228122	0.356074	0.711777
H225	H	1.561455	0.689408	1.045110
F226	F	0.195233	-0.040506	-0.000025
F227	F	0.528566	0.292828	0.333308
F228	F	0.861899	0.626161	0.666641
H229	H	0.926993	-0.009414	0.621496
H230	H	1.260326	0.323919	0.954830
H231	H	1.593659	0.657252	1.288163
F232	F	0.695298	-0.242554	-0.000026
F233	F	1.028631	0.090780	0.333307
F234	F	1.361964	0.424113	0.666641
F235	F	0.734803	0.182676	0.797591
F236	F	1.068136	0.516009	1.130924
F237	F	1.401470	0.849343	1.464258
H238	H	0.464979	0.210764	-0.000027
H239	H	0.798313	0.544097	0.333307
H240	H	1.131646	0.877431	0.666640
F241	F	0.742756	0.174699	0.610151
F242	F	1.076089	0.508032	0.943484
F243	F	1.409422	0.841366	1.276818
F244	F	0.697508	-0.092227	-0.000019
F245	F	1.030841	0.241106	0.333314
F246	F	1.364175	0.574439	0.666647
F247	F	0.958006	-0.277725	-0.000008
F248	F	1.291339	0.055608	0.333325
F249	F	1.624672	0.388942	0.666658
F250	F	0.960223	-0.127404	-0.000001
F251	F	1.293556	0.205929	0.333332
F252	F	1.626889	0.539262	0.666666
F253	F	0.688751	-0.686566	-0.000066
F254	F	1.022085	-0.353233	0.333268
F255	F	1.355418	-0.019900	0.666601
F256	F	0.953680	-0.571416	-0.000022
F257	F	1.287013	-0.238082	0.333311
F258	F	1.620346	0.095251	0.666644
H259	H	0.706742	-0.547480	-0.000048
H260	H	1.040076	-0.214146	0.333285
H261	H	1.373409	0.119187	0.666618
F262	F	0.914180	0.003357	0.202356
F263	F	1.247513	0.336691	0.535690
F264	F	1.580846	0.670024	0.869023
