data_functionalizedCrystal
_audit_creation_method	'MofGen! by Chris Wilmer'
_symmetry_space_group_name_H-M	'P1'
_symmetry_Int_Tables_number	1
_symmetry_cell_setting	triclinic
loop_
_symmetry_equiv_pos_as_xyz
  x,y,z
_cell_length_a	21.295420
_cell_length_b	21.295417
_cell_length_c	16.959455
_cell_angle_alpha	90.017994
_cell_angle_beta	90.002746
_cell_angle_gamma	90.025484
loop_
_atom_site_label
_atom_site_type_symbol
_atom_site_fract_x
_atom_site_fract_y
_atom_site_fract_z
Zn1	Zn	0.962223	-0.250768	0.446912
Zn2	Zn	0.962167	-0.356015	0.314725
Zn3	Zn	0.856986	-0.250756	0.314747
Zn4	Zn	0.856917	-0.355996	0.446861
O5	O	0.909573	-0.303384	0.380811
O6	O	1.050305	-0.264742	0.429390
O7	O	0.948220	-0.342055	0.204117
O8	O	0.870999	-0.162668	0.332310
O9	O	1.050264	-0.342067	0.332272
O10	O	0.948316	-0.162677	0.429411
O11	O	0.870944	-0.264722	0.204133
O12	O	0.768888	-0.264703	0.332260
O13	O	0.870881	-0.342034	0.557478
O14	O	0.768837	-0.342022	0.429323
O15	O	0.948248	-0.264724	0.557516
O16	O	0.948153	-0.444102	0.332222
O17	O	0.870826	-0.444087	0.429302
C18	C	0.746022	-0.303360	0.380789
C19	C	0.676054	-0.303364	0.380798
C20	C	0.176617	-0.263216	0.431474
C21	C	0.242359	-0.263211	0.431474
C22	C	0.275214	-0.303403	0.380830
C23	C	0.242322	-0.343614	0.330196
C24	C	0.176580	-0.343622	0.330203
N25	N	0.378425	-0.308136	0.311618
N26	N	0.440877	-0.308125	0.311613
C27	C	0.473289	-0.303382	0.380806
N28	N	0.440891	-0.298639	0.450006
N29	N	0.378433	-0.298647	0.450009
C30	C	0.346500	-0.303399	0.380817
C31	C	0.577459	-0.263172	0.431441
C32	C	0.643203	-0.263171	0.431442
C33	C	0.643164	-0.343571	0.330157
C34	C	0.577422	-0.343574	0.330162
C35	C	0.544573	-0.303371	0.380803
C36	C	0.909493	-0.466935	0.380771
C37	C	0.909517	-0.536903	0.380781
C38	C	0.949752	-0.569717	0.431377
C39	C	0.949775	-0.635460	0.431397
C40	C	0.909568	-0.668386	0.380805
C41	C	0.869324	-0.635564	0.330205
C42	C	0.869298	-0.569823	0.330193
N43	N	0.904829	-0.771635	0.311629
N44	N	0.904857	-0.834087	0.311644
C45	C	0.909641	-0.866461	0.380841
N46	N	0.914408	-0.834024	0.450026
N47	N	0.914384	-0.771566	0.450011
C48	C	0.909590	-0.739671	0.380814
C49	C	0.949903	-0.970560	0.431463
C50	C	0.949921	-1.036304	0.431484
C51	C	0.869474	-1.036406	0.330285
C52	C	0.869452	-0.970664	0.330272
C53	C	0.909671	-0.937745	0.380859
C54	C	1.073764	-0.303408	0.380834
C55	C	1.143732	-0.303419	0.380844
C56	C	0.909563	-0.303378	0.586979
C57	C	0.909559	-0.303375	0.674836
C58	C	0.909671	-0.139193	0.380869
C59	C	0.909713	-0.069225	0.380893
C60	C	0.869286	-0.343644	1.046294
C61	C	0.949850	-0.263141	1.046329
C62	C	0.949848	-0.263135	0.963783
C63	C	0.909565	-0.303386	0.922489
C64	C	0.869284	-0.343642	0.963741
C65	C	0.990132	-0.222885	0.922525
C66	C	0.990132	-0.222879	0.839974
C67	C	0.949846	-0.263126	0.798678
C68	C	0.909563	-0.303383	0.839935
C69	C	0.869280	-0.343634	0.798641
C70	C	0.828993	-0.383888	0.839897
C71	C	0.828998	-0.383889	0.922445
C72	C	0.949842	-0.263125	0.716130
C73	C	0.869278	-0.343631	0.716088
C74	C	0.909575	-0.303400	1.175445
C75	C	0.909569	-0.303394	1.087588
H76	H	0.550647	-0.376309	0.288930
C77	C	1.034439	-0.178597	0.794600
H78	H	1.058427	-0.154623	0.831017
H79	H	1.061852	-0.202675	0.762382
H80	H	1.010368	-0.151161	0.762415
H81	H	0.269139	-0.230470	0.472703
H82	H	0.982650	-0.230374	1.079955
H83	H	0.669977	-0.230435	0.472677
H84	H	0.982499	-0.542917	0.472571
C85	C	0.278460	-0.387822	0.274486
H86	H	0.322323	-0.382054	0.281727
H87	H	0.267675	-0.430132	0.285959
H88	H	0.267681	-0.378544	0.221397
H89	H	0.982644	-0.230352	0.682543
C90	C	0.994042	-0.671563	0.487047
H91	H	1.017994	-0.642542	0.517168
H92	H	0.969955	-0.697220	0.521466
H93	H	1.021499	-0.697193	0.456831
C94	C	0.140406	-0.387843	0.274502
H95	H	0.169386	-0.411778	0.244335
H96	H	0.114751	-0.415307	0.304677
H97	H	0.114768	-0.363719	0.240114
C98	C	0.679294	-0.387784	0.274449
H99	H	0.650290	-0.411731	0.244297
H100	H	0.704947	-0.363663	0.240061
H101	H	0.704931	-0.415247	0.304628
C102	C	0.825243	-1.072617	0.274640
H103	H	0.831021	-1.116470	0.281892
H104	H	0.782937	-1.061871	0.286159
H105	H	0.834490	-1.061857	0.221536
C106	C	0.824974	-0.387922	1.091666
H107	H	0.800981	-0.411889	1.055248
H108	H	0.849035	-0.415354	1.123860
H109	H	0.797557	-0.363835	1.123874
H110	H	0.982686	-1.063020	0.472690
H111	H	0.550713	-0.230436	0.472676
H112	H	0.836586	-0.662376	0.289015
H113	H	0.149875	-0.230482	0.472714
C114	C	1.034431	-0.178606	0.967948
H115	H	1.028653	-0.184365	1.023019
H116	H	1.076724	-0.187816	0.954427
H117	H	1.025232	-0.136309	0.954431
H118	H	0.836469	-0.376403	0.682472
C119	C	0.825041	-0.533726	0.274529
H120	H	0.801099	-0.562748	0.244397
H121	H	0.797584	-0.508088	0.304726
H122	H	0.849142	-0.508077	0.240108
C123	C	0.994134	-0.934343	0.487111
H124	H	0.988363	-0.890490	0.479849
H125	H	0.984889	-0.945103	0.540211
H126	H	1.036443	-0.945089	0.475590
C127	C	0.825200	-0.934567	0.274605
H128	H	0.801261	-0.963590	0.244472
H129	H	0.797741	-0.908931	0.304801
H130	H	0.849301	-0.908916	0.240186
H131	H	0.796198	-0.416663	0.806265
C132	C	0.784691	-0.428170	0.967823
H133	H	0.760695	-0.452138	0.931410
H134	H	0.808759	-0.455601	1.000012
H135	H	0.757277	-0.404084	1.000038
