data_functionalizedCrystal
_audit_creation_method	'MofGen! by Chris Wilmer'
_symmetry_space_group_name_H-M	'P1'
_symmetry_Int_Tables_number	1
_symmetry_cell_setting	triclinic
loop_
_symmetry_equiv_pos_as_xyz
  x,y,z
_cell_length_a	23.532361
_cell_length_b	23.532407
_cell_length_c	16.776229
_cell_angle_alpha	89.988688
_cell_angle_beta	89.997131
_cell_angle_gamma	82.839173
loop_
_atom_site_label
_atom_site_type_symbol
_atom_site_fract_x
_atom_site_fract_y
_atom_site_fract_z
O1	O	0.755279	0.069010	-0.066216
O2	O	1.255279	0.569010	0.433784
O3	O	0.589412	0.079041	-0.066237
O4	O	1.089412	0.579041	0.433763
O5	O	0.677347	-0.008907	-0.066211
O6	O	1.177347	0.491093	0.433789
O7	O	0.667343	0.156958	-0.066242
O8	O	1.167343	0.656958	0.433758
O9	O	0.677335	-0.008913	0.066365
O10	O	1.177335	0.491087	0.566365
O11	O	0.589400	0.079035	0.066340
O12	O	1.089400	0.579035	0.566340
O13	O	0.755267	0.069005	0.066360
O14	O	1.255267	0.569005	0.566360
Zn15	Zn	0.672332	0.074019	0.087399
Zn16	Zn	1.172332	0.574019	0.587399
Zn17	Zn	0.672347	0.074026	-0.087276
Zn18	Zn	1.172347	0.574026	0.412724
O19	O	0.667332	0.156953	0.066335
O20	O	1.167332	0.656953	0.566335
C21	C	0.568189	0.078787	0.000049
C22	C	1.068189	0.578787	0.500049
C23	C	0.504971	0.078032	0.000042
C24	C	1.004971	0.578032	0.500042
C25	C	0.231733	0.074731	-0.072220
C26	C	0.731733	0.574731	0.427780
C27	C	0.291133	0.075446	-0.072222
C28	C	0.791133	0.575446	0.427778
O29	O	0.321864	0.075799	-0.133681
O30	O	0.821864	0.575799	0.366319
N31	N	0.320832	0.075804	0.000046
N32	N	0.820832	0.575804	0.500046
C33	C	0.291130	0.075442	0.072320
C34	C	0.791130	0.575442	0.572320
O35	O	0.321846	0.075812	0.133789
O36	O	0.821846	0.575812	0.633789
C37	C	0.231732	0.074723	0.072322
C38	C	0.731732	0.574723	0.572322
C39	C	0.202035	0.074370	0.000049
C40	C	0.702035	0.574370	0.500049
C41	C	0.202036	0.074378	-0.144486
C42	C	0.702036	0.574378	0.355514
C43	C	0.142641	0.073664	-0.144484
C44	C	0.642641	0.573664	0.355516
C45	C	0.112942	0.073303	-0.072215
C46	C	0.612942	0.573303	0.427785
C47	C	0.142639	0.073657	0.000051
C48	C	0.642639	0.573657	0.500051
C49	C	0.202031	0.074356	0.144595
C50	C	0.702031	0.574356	0.644595
C51	C	0.142629	0.073637	0.144590
C52	C	0.642629	0.573637	0.644590
C53	C	0.112931	0.073284	0.072318
C54	C	0.612931	0.573284	0.572318
C55	C	0.053544	0.072582	0.072323
C56	C	0.553544	0.572582	0.572323
N57	N	0.023845	0.072224	0.000055
N58	N	0.523845	0.572224	0.500055
C59	C	0.053544	0.072584	-0.072214
C60	C	0.553544	0.572584	0.427786
C61	C	0.415870	0.076951	0.072312
C62	C	0.915870	0.576951	0.572312
C63	C	0.475266	0.077674	0.072312
C64	C	0.975266	0.577674	0.572312
C65	C	0.475266	0.077677	-0.072231
C66	C	0.975266	0.577677	0.427769
C67	C	0.415868	0.076958	-0.072230
C68	C	0.915868	0.576958	0.427770
C69	C	0.386171	0.076593	0.000044
C70	C	0.886171	0.576593	0.500044
C71	C	-0.071192	0.071086	-0.072203
C72	C	0.428808	0.571086	0.427797
C73	C	-0.130593	0.070374	-0.072195
C74	C	0.369407	0.570374	0.427805
C75	C	-0.130587	0.070368	0.072347
C76	C	0.369413	0.570368	0.572347
C77	C	-0.071191	0.071083	0.072339
C78	C	0.428809	0.571083	0.572339
C79	C	-0.041495	0.071440	0.000057
C80	C	0.458505	0.571440	0.500057
O81	O	0.022776	0.072227	0.133751
O82	O	0.522776	0.572227	0.633751
O83	O	0.022821	0.072207	-0.133673
O84	O	0.522821	0.572207	0.366327
C85	C	0.677086	-0.030126	0.000079
C86	C	1.177086	0.469874	0.500079
C87	C	0.676320	-0.093343	0.000085
C88	C	1.176320	0.406657	0.500085
C89	C	0.723555	-0.492454	0.000047
C90	C	1.223555	0.007546	0.500047
C91	C	0.722844	-0.551854	0.000041
C92	C	1.222844	-0.051854	0.500041
O93	O	0.766630	-0.588606	0.000017
O94	O	1.266630	-0.088606	0.500017
N95	N	0.670566	-0.574471	0.000035
N96	N	1.170566	-0.074471	0.500035
C97	C	0.618997	-0.537685	0.000027
C98	C	1.118997	-0.037685	0.500027
O99	O	0.574465	-0.562377	0.000021
O100	O	1.074465	-0.062377	0.500021
C101	C	0.619709	-0.478286	0.000028
C102	C	1.119709	0.021714	0.500028
C103	C	0.671990	-0.455672	0.000042
C104	C	1.171990	0.044328	0.500042
C105	C	0.775832	-0.469839	0.000060
C106	C	1.275832	0.030161	0.500060
C107	C	0.776543	-0.410443	0.000068
C108	C	1.276543	0.089557	0.500068
C109	C	0.724977	-0.373662	0.000062
C110	C	1.224977	0.126338	0.500062
C111	C	0.672701	-0.396276	0.000049
C112	C	1.172701	0.103724	0.500049
C113	C	0.568140	-0.441501	0.000014
C114	C	1.068140	0.058499	0.500014
C115	C	0.568857	-0.382099	0.000014
C116	C	1.068857	0.117901	0.500014
C117	C	0.621137	-0.359485	0.000028
C118	C	1.121137	0.140515	0.500028
C119	C	0.621847	-0.300099	0.000052
C120	C	1.121847	0.199901	0.500052
N121	N	0.674124	-0.277481	0.000057
N122	N	1.174124	0.222519	0.500057
C123	C	0.725690	-0.314263	0.000063
C124	C	1.225690	0.185737	0.500063
C125	C	0.617505	-0.662427	0.000025
C126	C	1.117505	-0.162427	0.500025
C127	C	0.616793	-0.721825	0.000030
C128	C	1.116793	-0.221825	0.500030
C129	C	0.720640	-0.735990	0.000042
C130	C	1.220640	-0.235990	0.500042
C131	C	0.721352	-0.676591	0.000043
C132	C	1.221352	-0.176591	0.500043
C133	C	0.669783	-0.639810	0.000031
C134	C	1.169783	-0.139810	0.500031
C135	C	0.727179	-0.189526	0.000080
C136	C	1.227179	0.310474	0.500080
C137	C	0.727886	-0.130124	0.000090
C138	C	1.227886	0.369876	0.500090
C139	C	0.624039	-0.115965	0.000074
C140	C	1.124039	0.384035	0.500074
C141	C	0.623332	-0.175361	0.000067
C142	C	1.123332	0.324639	0.500067
C143	C	0.674907	-0.212141	0.000067
C144	C	1.174907	0.287859	0.500067
O145	O	0.578083	-0.263312	0.000072
O146	O	1.078083	0.236688	0.500072
O147	O	0.770214	-0.289562	0.000059
O148	O	1.270214	0.210438	0.500059
C149	C	0.776489	0.069258	0.000073
C150	C	1.276489	0.569258	0.500073
C151	C	0.839708	0.070014	0.000074
C152	C	1.339708	0.570014	0.500074
C153	C	0.667592	0.178171	0.000043
C154	C	1.167592	0.678171	0.500043
C155	C	0.668358	0.241388	0.000032
C156	C	1.168358	0.741388	0.500032
N157	N	0.672325	0.074014	0.206611
N158	N	1.172325	0.574014	0.706611
N159	N	0.672358	0.074027	-0.206487
N160	N	1.172358	0.574027	0.293513
C161	C	0.711275	0.035086	0.248339
C162	C	1.211275	0.535086	0.748339
C163	C	0.711278	0.035086	0.331791
C164	C	1.211278	0.535086	0.831791
C165	C	0.672334	0.074016	0.373514
C166	C	1.172334	0.574016	0.873514
C167	C	0.633380	0.112946	0.331779
C168	C	1.133380	0.612946	0.831779
C169	C	0.633375	0.112943	0.248329
C170	C	1.133375	0.612943	0.748329
C171	C	0.633401	0.112957	0.668327
C172	C	1.133401	0.612957	1.168327
C173	C	0.633411	0.112957	0.751783
C174	C	1.133411	0.612957	1.251783
C175	C	0.711304	0.035100	0.751789
C176	C	1.211304	0.535100	1.251789
C177	C	0.711299	0.035097	0.668338
C178	C	1.211299	0.535097	1.168338
C179	C	0.672343	0.074024	0.626612
C180	C	1.172343	0.574024	1.126612
C181	C	0.672340	0.074024	0.536123
C182	C	1.172340	0.574024	1.036123
C183	C	0.672340	0.074020	0.464000
C184	C	1.172340	0.574020	0.964000
H185	H	0.118467	0.073375	-0.203336
H186	H	0.618467	0.573375	0.296664
C187	C	0.556384	0.189910	0.256700
C188	C	1.056384	0.689910	0.756700
C189	C	0.590563	0.155736	0.202458
C190	C	1.090563	0.655736	0.702458
H191	H	0.529954	0.216330	0.228380
H192	H	1.029954	0.716330	0.728380
H193	H	0.536037	0.166311	0.289259
H194	H	1.036037	0.666311	0.789259
H195	H	0.579981	0.210272	0.289238
H196	H	1.079981	0.710272	0.789238
H197	H	0.566966	0.135371	0.169923
H198	H	1.066966	0.635371	0.669923
H199	H	0.610911	0.179338	0.169885
H200	H	1.110911	0.679338	0.669885
H201	H	0.391692	0.076671	-0.131080
H202	H	0.891692	0.576671	0.368920
C203	C	0.555732	-0.780409	0.068173
C204	C	1.055732	-0.280409	0.568173
C205	C	0.559324	-0.746678	0.000024
C206	C	1.059324	-0.246678	0.500024
H207	H	0.520250	-0.795747	0.068166
H208	H	1.020250	-0.295747	0.568166
H209	H	0.586333	-0.810817	0.068168
H210	H	1.086333	-0.310817	0.568168
H211	H	0.558167	-0.757535	0.114403
H212	H	1.058167	-0.257535	0.614403
H213	H	0.556893	-0.769553	-0.046206
H214	H	1.056893	-0.269553	0.453794
H215	H	0.528714	-0.716265	0.000022
H216	H	1.028714	-0.216265	0.500022
C217	C	-0.124618	0.070447	-0.215072
C218	C	0.375382	0.570447	0.284928
C219	C	-0.163235	0.069984	-0.151642
C220	C	0.336765	0.569984	0.348358
H221	H	-0.144769	0.070202	-0.264117
H222	H	0.355231	0.570202	0.235883
H223	H	-0.105985	0.103939	-0.212073
H224	H	0.394015	0.603939	0.287927
H225	H	-0.096916	0.037508	-0.212050
H226	H	0.403084	0.537508	0.287950
H227	H	-0.190935	0.102925	-0.154660
H228	H	0.309065	0.602925	0.345340
H229	H	-0.181877	0.036488	-0.154643
H230	H	0.318123	0.536488	0.345357
C231	C	0.355766	0.027177	0.156201
C232	C	0.855766	0.527177	0.656201
C233	C	0.383231	0.076555	0.151765
C234	C	0.883231	0.576555	0.651765
H235	H	0.335622	0.026931	0.205254
H236	H	0.835622	0.526931	0.705254
H237	H	0.329574	0.026865	0.113174
H238	H	0.829574	0.526865	0.613174
H239	H	0.383479	-0.005754	0.153196
H240	H	0.883479	0.494246	0.653196
H241	H	0.355517	0.109486	0.154763
H242	H	0.855517	0.609486	0.654763
H243	H	0.409425	0.076872	0.194804
H244	H	0.909425	0.576872	0.694804
H245	H	0.601695	0.144660	0.785752
H246	H	1.101695	0.644660	1.285752
C247	C	0.835301	-0.544840	-0.068085
C248	C	1.335301	-0.044840	0.431915
C249	C	0.832520	-0.510262	0.000066
C250	C	1.332520	-0.010262	0.500066
H251	H	0.870303	-0.569789	-0.068078
H252	H	1.370303	-0.069789	0.431922
H253	H	0.804075	-0.566817	-0.068085
H254	H	1.304075	-0.066817	0.431915
H255	H	0.833420	-0.521362	-0.114313
H256	H	1.333420	-0.021362	0.385687
H257	H	0.834397	-0.533741	0.046295
H258	H	1.334397	-0.033741	0.546295
H259	H	0.863754	-0.488283	0.000074
H260	H	1.363754	0.011717	0.500074
C261	C	0.555815	0.125711	0.425647
C262	C	1.055815	0.625711	0.925647
C263	C	0.590573	0.155738	0.377643
C264	C	1.090573	0.655738	0.877643
H265	H	0.529390	0.152131	0.453964
H266	H	1.029390	0.652131	0.953964
H267	H	0.535462	0.102116	0.393105
H268	H	1.035462	0.602116	0.893105
H269	H	0.579020	0.102529	0.462438
H270	H	1.079020	0.602529	0.962438
H271	H	0.567367	0.178917	0.340847
H272	H	1.067367	0.678917	0.840847
H273	H	0.610926	0.179342	0.410187
H274	H	1.110926	0.679342	0.910187
H275	H	-0.047020	0.071377	-0.131062
H276	H	0.452980	0.571377	0.368938
C277	C	0.788302	-0.041866	0.743411
C278	C	1.288302	0.458134	1.243411
C279	C	0.754120	-0.007698	0.797657
C280	C	1.254120	0.492302	1.297657
H281	H	0.814735	-0.068284	0.771728
H282	H	1.314735	0.431716	1.271728
H283	H	0.764710	-0.062225	0.710873
H284	H	1.264710	0.437775	1.210873
H285	H	0.808649	-0.018259	0.710852
H286	H	1.308649	0.481741	1.210852
H287	H	0.733769	-0.031305	0.830212
H288	H	1.233769	0.468695	1.330212
H289	H	0.777714	0.012663	0.830208
H290	H	1.277714	0.512663	1.330208
H291	H	0.226211	0.074670	-0.203340
H292	H	0.726211	0.574670	0.296660
H293	H	0.526862	-0.352154	0.000003
H294	H	1.026862	0.147846	0.500003
H295	H	0.763923	-0.658183	0.000054
H296	H	1.263923	-0.158183	0.500054
H297	H	0.762627	-0.765949	0.000044
H298	H	1.262627	-0.265949	0.500044
C299	C	0.724037	-0.042513	0.154560
C300	C	1.224037	0.457487	0.654560
C301	C	0.754070	-0.007734	0.202501
C302	C	1.254070	0.492266	0.702501
H303	H	0.750454	-0.068956	0.126267
H304	H	1.250454	0.431044	0.626267
H305	H	0.700440	-0.062845	0.187143
H306	H	1.200440	0.437155	0.687143
H307	H	0.700857	-0.019324	0.117749
H308	H	1.200857	0.480676	0.617749
H309	H	0.777247	-0.030923	0.239317
H310	H	1.277247	0.469077	0.739317
H311	H	0.777677	0.012599	0.169916
H312	H	1.277677	0.512599	0.669916
H313	H	0.499457	0.077970	-0.131076
H314	H	0.999457	0.577970	0.368924
C315	C	0.196042	0.074263	0.287463
C316	C	0.696042	0.574263	0.787463
C317	C	0.234664	0.074738	0.224041
C318	C	0.734664	0.574738	0.724041
H319	H	0.216189	0.074494	0.336512
H320	H	0.716189	0.574494	0.836512
H321	H	0.168344	0.107199	0.284451
H322	H	0.668344	0.607199	0.784451
H323	H	0.177406	0.040767	0.284444
H324	H	0.677406	0.540767	0.784444
H325	H	0.253296	0.108236	0.227057
H326	H	0.753296	0.608236	0.727057
H327	H	0.262372	0.041799	0.227054
H328	H	0.762372	0.541799	0.727054
C329	C	0.598806	0.147535	0.540408
C330	C	1.098806	0.647535	1.040408
C331	C	0.590591	0.155754	0.622466
C332	C	1.090591	0.655754	1.122466
H333	H	0.572375	0.173958	0.512095
H334	H	1.072375	0.673958	1.012095
H335	H	0.636775	0.153516	0.526727
H336	H	1.136775	0.653516	1.026727
H337	H	0.592829	0.109558	0.526749
H338	H	1.092829	0.609558	1.026749
H339	H	0.596573	0.193730	0.636126
H340	H	1.096573	0.693730	1.136126
H341	H	0.552613	0.149777	0.636152
H342	H	1.052613	0.649777	1.136152
C343	C	0.002291	0.022920	0.156197
C344	C	0.502291	0.522920	0.656197
C345	C	-0.038542	0.071476	0.151778
C346	C	0.461458	0.571476	0.651778
H347	H	0.022447	0.023162	0.205238
H348	H	0.522447	0.523162	0.705238
H349	H	-0.016352	-0.010566	0.153205
H350	H	0.483648	0.489434	0.653205
H351	H	0.028477	0.023241	0.113151
H352	H	0.528477	0.523241	0.613151
H353	H	-0.064730	0.071153	0.194821
H354	H	0.435270	0.571153	0.694821
H355	H	-0.019898	0.104970	0.154778
H356	H	0.480102	0.604970	0.654778
C357	C	0.788854	0.022334	0.425635
C358	C	1.288854	0.522334	0.925635
C359	C	0.754093	-0.007700	0.377666
C360	C	1.254093	0.492300	0.877666
H361	H	0.815284	-0.004082	0.453961
H362	H	1.315284	0.495918	0.953961
H363	H	0.809200	0.045929	0.393068
H364	H	1.309200	0.545929	0.893068
H365	H	0.765651	0.045517	0.462418
H366	H	1.265651	0.545517	0.962418
H367	H	0.777296	-0.030880	0.340879
H368	H	1.277296	0.469120	0.840879
H369	H	0.733746	-0.031304	0.410237
H370	H	1.233746	0.468696	0.910237
H371	H	0.118452	0.073344	0.203446
H372	H	0.618452	0.573344	0.703446
C373	C	0.723964	-0.042566	0.574684
C374	C	1.223964	0.457434	1.074684
C375	C	0.754055	-0.007796	0.622555
C376	C	1.254055	0.492204	1.122555
H377	H	0.750345	-0.069075	0.546441
H378	H	1.250345	0.430925	1.046441
H379	H	0.700325	-0.062822	0.607307
H380	H	1.200325	0.437178	1.107307
H381	H	0.700820	-0.019381	0.537829
H382	H	1.200820	0.480619	1.037829
H383	H	0.777195	-0.030981	0.659415
H384	H	1.277195	0.469019	1.159415
H385	H	0.777703	0.012461	0.589929
H386	H	1.277703	0.512461	1.089929
H387	H	-0.154779	0.070077	0.131187
H388	H	0.345221	0.570077	0.631187
C389	C	0.469286	0.077597	0.215183
C390	C	0.969286	0.577597	0.715183
C391	C	0.507905	0.078066	0.151756
C392	C	1.007905	0.578066	0.651756
H393	H	0.489436	0.077833	0.264229
H394	H	0.989436	0.577833	0.764229
H395	H	0.441588	0.110533	0.212168
H396	H	0.941588	0.610533	0.712168
H397	H	0.450650	0.044101	0.212173
H398	H	0.950650	0.544101	0.712173
H399	H	0.526538	0.111564	0.154762
H400	H	1.026538	0.611564	0.654762
H401	H	0.535613	0.045127	0.154772
H402	H	1.035613	0.545127	0.654772
H403	H	0.575509	-0.632483	0.000022
H404	H	1.075509	-0.132483	0.500022
H405	H	0.525567	-0.459902	-0.000002
H406	H	1.025567	0.040098	0.499998
H407	H	0.582056	-0.086007	0.000073
H408	H	1.082056	0.413993	0.500073
C409	C	0.830465	-0.150101	0.000096
C410	C	1.330465	0.349899	0.500096
C411	C	0.785357	-0.105269	0.000099
C412	C	1.285357	0.394731	0.500099
H413	H	0.865944	-0.134757	0.000094
H414	H	1.365944	0.365243	0.500094
H415	H	0.828024	-0.172981	0.046323
H416	H	1.328024	0.327019	0.546323
H417	H	0.828024	-0.172966	-0.046142
H418	H	1.328024	0.327034	0.453858
H419	H	0.787796	-0.082406	0.046340
H420	H	1.287796	0.417594	0.546340
H421	H	0.787799	-0.082379	-0.046133
H422	H	1.287799	0.417621	0.453867
C423	C	0.562296	-0.233931	-0.068100
C424	C	1.062296	0.266069	0.431900
C425	C	0.565867	-0.200226	0.000059
C426	C	1.065867	0.299774	0.500059
H427	H	0.526820	-0.249282	-0.068106
H428	H	1.026820	0.250718	0.431894
H429	H	0.564733	-0.211041	-0.114318
H430	H	1.064733	0.288959	0.385682
H431	H	0.592908	-0.264336	-0.068093
H432	H	1.092908	0.235664	0.431907
H433	H	0.535257	-0.169819	0.000049
H434	H	1.035257	0.330181	0.500049
H435	H	0.563425	-0.223118	0.046289
H436	H	1.063425	0.276882	0.546289
C437	C	0.786649	-0.264522	-0.068073
C438	C	1.286649	0.235478	0.431927
C439	C	0.783871	-0.229948	0.000083
C440	C	1.283871	0.270052	0.500083
H441	H	0.821650	-0.289473	-0.068068
H442	H	1.321650	0.210527	0.431932
H443	H	0.755422	-0.286496	-0.068076
H444	H	1.255422	0.213504	0.431924
H445	H	0.784770	-0.241041	-0.114298
H446	H	1.284770	0.258959	0.385702
H447	H	0.785746	-0.253429	0.046308
H448	H	1.285746	0.246571	0.546308
H449	H	0.815107	-0.207972	0.000093
H450	H	1.315107	0.292028	0.500093
H451	H	0.819115	-0.392037	0.000076
H452	H	1.319115	0.107963	0.500076
