data_functionalizedCrystal
_audit_creation_method	'MofGen! by Chris Wilmer'
_symmetry_space_group_name_H-M	'P1'
_symmetry_Int_Tables_number	1
_symmetry_cell_setting	triclinic
loop_
_symmetry_equiv_pos_as_xyz
  x,y,z
_cell_length_a	27.732048
_cell_length_b	16.992694
_cell_length_c	15.455313
_cell_angle_alpha	92.857794
_cell_angle_beta	92.637842
_cell_angle_gamma	93.344561
loop_
_atom_site_label
_atom_site_type_symbol
_atom_site_fract_x
_atom_site_fract_y
_atom_site_fract_z
O1	O	0.100467	-1.042606	-0.072038
O2	O	0.099342	-0.814336	-0.072063
O3	O	0.029815	-0.935560	-0.072033
O4	O	0.169994	-0.921382	-0.072068
O5	O	0.033773	-0.928628	0.072227
O6	O	0.103301	-0.807404	0.072197
O7	O	0.104425	-1.035674	0.072223
Cu8	Cu	0.104225	-0.920906	0.085382
Cu9	Cu	0.099543	-0.929104	-0.085222
O10	O	0.173953	-0.914450	0.072193
C11	C	0.099876	-0.781675	0.000064
C12	C	0.095561	-0.694684	0.000055
C13	C	0.013774	-0.931796	0.000100
C14	C	-0.039919	-0.930900	0.000107
C15	C	0.103892	-1.068335	0.000094
C16	C	0.108206	-1.155327	0.000097
C17	C	-0.375882	-0.996895	0.000069
C18	C	-0.577686	-0.993571	0.000057
O19	O	-0.606333	-1.053919	0.000026
N20	N	-0.599917	-0.921689	0.000050
C21	C	-0.571695	-0.850634	0.000040
O22	O	-0.595235	-0.789419	0.000025
C23	C	-0.369892	-0.853960	0.000046
C24	C	-0.347663	-0.925846	0.000062
C25	C	-0.353652	-1.068775	0.000084
C26	C	-0.303204	-1.069605	0.000092
C27	C	-0.274986	-0.998556	0.000085
C28	C	-0.297215	-0.926676	0.000070
C29	C	-0.341671	-0.782906	0.000030
C30	C	-0.291218	-0.783744	0.000030
C31	C	-0.268989	-0.855630	0.000046
C32	C	-0.218549	-0.856457	0.000071
N33	N	-0.196317	-0.928338	0.000078
C34	C	-0.224535	-0.999387	0.000085
C35	C	-0.677644	-0.848893	0.000038
C36	C	-0.728095	-0.848061	0.000038
C37	C	-0.734082	-0.990998	0.000054
C38	C	-0.683630	-0.991829	0.000060
C39	C	-0.655413	-0.920775	0.000046
C40	C	-0.118591	-1.001126	0.000102
C41	C	-0.068138	-1.001949	0.000114
C42	C	-0.062155	-0.859013	0.000094
C43	C	-0.112603	-0.858189	0.000087
C44	C	-0.140820	-0.929251	0.000088
O45	O	-0.189872	-0.796141	0.000092
O46	O	-0.200987	-1.060595	0.000081
C47	C	-0.426330	-0.996065	0.000062
C48	C	-0.448559	-0.924185	0.000047
C49	C	-0.420341	-0.853136	0.000039
C50	C	-0.499010	-0.923354	0.000047
C51	C	-0.527228	-0.994403	0.000054
C52	C	-0.504997	-1.066285	0.000061
C53	C	-0.454549	-1.067115	0.000069
C54	C	-0.442573	-0.781254	0.000032
C55	C	-0.493021	-0.780430	0.000025
C56	C	-0.521240	-0.851480	0.000033
C57	C	0.189993	-0.918214	0.000058
C58	C	0.243687	-0.919111	0.000046
N59	N	0.107517	-0.915146	0.205376
C60	C	0.137184	-0.643939	0.000046
C61	C	0.133129	-0.562201	0.000059
C62	C	0.087449	-0.531209	0.000075
C63	C	0.045823	-0.581960	0.000087
C64	C	0.049880	-0.663696	0.000080
C65	C	0.070637	-0.287814	0.000102
C66	C	0.066583	-0.206071	0.000106
C67	C	0.153889	-0.186318	0.000080
C68	C	0.157941	-0.268057	0.000068
C69	C	0.116315	-0.318800	0.000084
N70	N	0.083302	-0.447660	0.000086
N71	N	0.120463	-0.402347	0.000080
N72	N	0.096247	-0.934870	-0.205217
C73	C	0.077992	-0.966664	0.250783
C74	C	0.080486	-0.962315	0.341590
C75	C	0.112509	-0.906451	0.386988
C76	C	0.142036	-0.854928	0.341575
C77	C	0.139538	-0.859274	0.250770
C78	C	0.123276	-0.887693	0.658565
C79	C	0.125773	-0.883353	0.749377
C80	C	0.064222	-0.990739	0.749385
C81	C	0.061730	-0.995083	0.658578
C82	C	0.091254	-0.943557	0.613173
N83	N	0.115061	-0.902006	0.479807
N84	N	0.088700	-0.947999	0.520356
H85	H	-0.050041	-1.060489	0.000129
O86	O	0.001420	-0.551955	-0.000014
C87	C	-0.026190	-0.581503	-0.074733
H88	H	-0.011517	-0.639235	-0.099647
H89	H	-0.065524	-0.592531	-0.057920
H90	H	-0.023857	-0.536640	-0.127050
H91	H	0.015986	-0.705012	0.000088
O92	O	0.046842	-1.020955	0.206822
C93	C	0.021326	-1.065504	0.266376
H94	H	0.021309	-1.030281	0.331109
H95	H	-0.017513	-1.079186	0.240157
H96	H	0.039549	-1.123069	0.276018
H97	H	-0.376623	-1.126636	0.000087
H98	H	0.056444	-1.004264	0.378560
O99	O	0.030222	-0.337127	0.000261
C100	C	0.032009	-0.381434	0.074960
H101	H	0.056989	-0.348695	0.127180
H102	H	-0.005866	-0.389897	0.100043
H103	H	0.046347	-0.441535	0.058061
O104	O	0.030579	-1.049371	0.614616
C105	C	0.005061	-1.093924	0.674166
H106	H	0.005042	-1.058703	0.738901
H107	H	-0.033777	-1.107606	0.647944
H108	H	0.023285	-1.151488	0.683807
O109	O	0.156888	-0.829006	0.793344
C110	C	0.182418	-0.784468	0.733797
H111	H	0.160798	-0.786926	0.669075
H112	H	0.188061	-0.720536	0.760043
H113	H	0.219040	-0.809925	0.724124
O114	O	0.151890	-0.837580	0.614422
C115	C	0.122692	-0.792069	0.561896
H116	H	0.085292	-0.789889	0.589276
H117	H	0.139954	-0.729592	0.560862
H118	H	0.119223	-0.819924	0.493075
O119	O	-0.145923	-1.070224	0.000145
C120	C	-0.115476	-1.133838	0.000139
H121	H	-0.077890	-1.112155	0.027450
H122	H	-0.130997	-1.181571	0.042030
H123	H	-0.112921	-1.159229	-0.069065
H124	H	-0.436454	-1.125651	0.000081
O125	O	-0.761474	-1.060030	0.000208
C126	C	-0.748923	-1.100146	0.074909
H127	H	-0.731870	-1.056061	0.127134
H128	H	-0.782778	-1.130806	0.099982
H129	H	-0.721973	-1.146008	0.058017
H130	H	0.040184	-1.032688	0.786363
O131	O	0.022215	-0.175932	-0.000025
C132	C	0.015210	-0.132808	-0.074725
H133	H	0.039766	-0.154345	-0.126958
H134	H	-0.024134	-0.141812	-0.099786
H135	H	0.024333	-0.067400	-0.057836
H136	H	0.167023	-0.520888	0.000050
H137	H	0.168108	-0.809439	0.378544
H138	H	0.163580	-0.817322	0.213800
O139	O	-0.532340	-1.135373	0.000103
C140	C	-0.501908	-1.199006	0.000089
H141	H	-0.464320	-1.177347	0.027407
H142	H	-0.517441	-1.246737	0.041970
H143	H	-0.499356	-1.224391	-0.069118
O144	O	-0.514592	-0.710582	-0.000143
C145	C	-0.502468	-0.670900	-0.074854
H146	H	-0.491780	-0.715462	-0.127060
H147	H	-0.534969	-0.639137	-0.099949
H148	H	-0.470852	-0.626014	-0.057965
O149	O	-0.281693	-1.139507	0.000062
C150	C	-0.317426	-1.202029	0.000087
H151	H	-0.353255	-1.181786	-0.027227
H152	H	-0.306095	-1.254268	-0.041791
H153	H	-0.321821	-1.220591	0.069298
O154	O	-0.661987	-1.061614	-0.000048
C155	C	-0.635041	-1.069975	-0.074775
H156	H	-0.625561	-1.009248	-0.099691
H157	H	-0.600373	-1.100006	-0.057971
H158	H	-0.657397	-1.107432	-0.127087
O159	O	-0.749608	-0.778164	-0.000006
C160	C	-0.713877	-0.715637	0.000008
H161	H	-0.679541	-0.738501	-0.027299
H162	H	-0.727501	-0.667424	-0.041883
H163	H	-0.705696	-0.690425	0.069214
H164	H	-0.654674	-0.791029	0.000027
H165	H	-0.359761	-0.724370	0.000012
H166	H	-0.268245	-0.725882	0.000017
H167	H	-0.039170	-0.801166	0.000091
O168	O	-0.134123	-0.788294	0.000036
C169	C	-0.098395	-0.725761	0.000057
H170	H	-0.064054	-0.748621	-0.027236
H171	H	-0.112017	-0.677553	-0.041842
H172	H	-0.090222	-0.700544	0.069263
H173	H	-0.419602	-0.723396	0.000024
O174	O	0.181596	-0.673909	0.000067
C175	C	0.217463	-0.611589	0.000041
H176	H	0.202523	-0.554914	0.027361
H177	H	0.250315	-0.626289	0.041914
H178	H	0.228554	-0.603173	-0.069171
H179	H	0.187778	-0.144995	0.000068
O180	O	0.202353	-0.298027	0.000095
C181	C	0.238222	-0.235711	0.000068
H182	H	0.223283	-0.179034	0.027388
H183	H	0.271073	-0.250413	0.041941
H184	H	0.249313	-0.227297	-0.069144
