data_functionalizedCrystal
_audit_creation_method	'MofGen! by Chris Wilmer'
_symmetry_space_group_name_H-M	'P1'
_symmetry_Int_Tables_number	1
_symmetry_cell_setting	triclinic
loop_
_symmetry_equiv_pos_as_xyz
  x,y,z
_cell_length_a	21.606444
_cell_length_b	21.606444
_cell_length_c	18.878441
_cell_angle_alpha	90.000758
_cell_angle_beta	59.999589
_cell_angle_gamma	60.001331
loop_
_atom_site_label
_atom_site_type_symbol
_atom_site_fract_x
_atom_site_fract_y
_atom_site_fract_z
Zr1	Zr	0.677472	-0.081221	0.682367
O2	O	0.806591	-0.180040	0.569256
O3	O	0.548354	-0.050930	0.717042
O4	O	0.677478	-0.180049	0.717033
O5	O	0.677463	0.050932	0.569271
O6	O	0.677481	-0.180052	0.833601
O7	O	0.677467	-0.050922	0.569265
O8	O	0.446502	0.050917	0.833617
O9	O	0.908442	-0.180037	0.569255
O10	O	0.601465	-0.038011	0.818823
O11	O	0.601459	0.038004	0.731834
O12	O	0.753485	-0.114016	0.731824
O13	O	0.753479	-0.038001	0.644835
Zr14	Zr	0.677471	0.081219	0.868289
Zr15	Zr	0.677478	-0.081226	0.868279
Zr16	Zr	0.677465	0.081225	0.682376
Zr17	Zr	0.839913	-0.081216	0.682365
Zr18	Zr	0.515031	0.081214	0.868290
O19	O	0.806590	0.050929	0.833613
O20	O	0.806600	-0.180048	0.833600
O21	O	0.806581	0.050936	0.569270
O22	O	0.548352	0.180038	0.981399
O23	O	0.548362	-0.050938	0.981386
O24	O	0.548344	0.180046	0.717056
O25	O	0.677480	-0.050934	0.981384
O26	O	0.677466	0.180047	0.833622
O27	O	0.677462	0.180050	0.717054
O28	O	0.677476	0.050920	0.981390
O29	O	0.908447	-0.180041	0.717031
O30	O	0.446497	0.180039	0.833625
O31	O	0.446501	0.180035	0.981400
O32	O	0.446507	0.050913	0.981393
O33	O	0.908437	-0.050914	0.569263
O34	O	0.908441	-0.050919	0.717038
O35	O	0.601458	0.114014	0.818832
O36	O	0.601464	0.037999	0.905821
O37	O	0.753485	-0.038006	0.818821
O38	O	0.753479	0.038009	0.731832
C39	C	0.474284	-0.000008	0.775330
C40	C	0.405324	-0.000010	0.775331
C41	C	0.677480	-0.203196	0.775316
C42	C	0.677483	-0.272158	0.775312
C43	C	0.677464	0.000006	0.542780
C44	C	0.677462	0.000008	0.463855
C45	C	0.372929	-0.039690	0.820736
C46	C	0.308129	-0.039685	0.820739
C47	C	0.275729	-0.000004	0.775332
C48	C	0.308126	0.039682	0.729925
C49	C	0.372921	0.039680	0.729927
C50	C	0.046817	0.039688	0.729915
C51	C	-0.017980	0.039684	0.729913
C52	C	-0.017975	-0.039677	0.820727
C53	C	0.046820	-0.039679	0.820729
C54	C	0.079208	0.000010	0.775327
C55	C	0.149470	0.000005	0.775325
C56	C	0.205472	-0.000003	0.775327
C57	C	0.880660	0.000006	0.775325
C58	C	0.949620	0.000008	0.775324
C59	C	0.756836	-0.344230	0.729899
C60	C	0.756834	-0.409025	0.729906
C61	C	0.677478	-0.401746	0.775322
C62	C	0.598119	-0.329666	0.820741
C63	C	0.598122	-0.264873	0.820738
C64	C	0.598104	-0.590969	0.820755
C65	C	0.598106	-0.655770	0.820752
C66	C	0.756815	-0.735122	0.729923
C67	C	0.756818	-0.670328	0.729920
C68	C	0.677460	-0.598254	0.775342
C69	C	0.677464	-0.527997	0.775335
C70	C	0.677473	-0.472002	0.775325
C71	C	0.677463	0.203194	0.775339
C72	C	0.677460	0.272156	0.775343
C73	C	0.598110	0.039679	0.472187
C74	C	0.598112	0.039680	0.398026
C75	C	0.677469	0.000004	0.315534
C76	C	0.756827	-0.039668	0.307204
C77	C	0.756823	-0.039663	0.381364
C78	C	0.756830	-0.039676	0.152634
C79	C	0.756834	-0.039681	0.078469
C80	C	0.598119	0.039668	0.169296
C81	C	0.598115	0.039672	0.243456
C82	C	0.677474	-0.000001	0.235121
C83	C	0.677479	-0.000008	1.007876
C84	C	0.677481	-0.000010	1.086800
C85	C	0.474291	-0.000014	1.007878
C86	C	0.405333	-0.000019	1.086803
C87	C	0.474275	0.203187	0.775342
C88	C	0.405312	0.272147	0.775347
C89	C	0.474282	0.203180	1.007890
C90	C	0.405322	0.272138	1.086819
C91	C	0.880661	-0.203182	0.542766
C92	C	0.949622	-0.272140	0.463836
C93	C	0.880652	0.000013	0.542777
C94	C	0.949610	0.000017	0.463852
C95	C	0.880668	-0.203189	0.775313
C96	C	0.949632	-0.272149	0.775309
C97	C	0.372950	-0.039704	1.078456
C98	C	0.308166	-0.039724	1.152607
C99	C	0.275762	-0.000053	1.235106
C100	C	0.308151	0.039634	1.243452
C101	C	0.372938	0.039648	1.169301
C102	C	0.372926	0.344215	0.820761
C103	C	0.308137	0.409016	0.820762
C104	C	0.275730	0.401749	0.775354
C105	C	0.308123	0.329673	0.729934
C106	C	0.372915	0.264874	0.729928
C107	C	0.372940	0.264842	1.169300
C108	C	0.308153	0.329629	1.243470
C109	C	0.275745	0.401711	1.235157
C110	C	0.308133	0.409006	1.152667
C111	C	0.372923	0.344219	1.078499
C112	C	0.982011	-0.264844	0.381355
C113	C	1.046818	-0.329631	0.307185
C114	C	1.079230	-0.401713	0.315499
C115	C	1.046838	-0.409007	0.397989
C116	C	0.982037	-0.344221	0.472156
C117	C	0.982000	0.039696	0.472200
C118	C	1.046802	0.039697	0.398048
C119	C	1.079209	0.000024	0.315549
C120	C	1.046816	-0.039659	0.307203
C121	C	0.982020	-0.039665	0.381354
C122	C	0.982017	-0.264857	0.820726
C123	C	1.046807	-0.329646	0.820738
C124	C	1.079214	-0.401727	0.775328
C125	C	1.046822	-0.409017	0.729909
C126	C	0.982029	-0.344229	0.729902
H127	H	0.399309	-0.072007	0.857708
Br128	Br	0.264188	0.506823	0.882409
H129	H	0.281728	0.323767	0.692964
H130	H	0.533485	-0.532291	0.857741
H131	H	0.399279	0.350170	1.011342
Br132	Br	0.864520	-0.680212	0.668266
Br133	Br	0.938092	-0.354139	0.668251
H134	H	1.073181	-0.323677	0.240026
H135	H	0.533502	0.071966	0.176080
H136	H	0.533496	0.071985	0.404817
Br137	Br	0.187814	0.489629	1.335823
H138	H	0.821457	-0.350167	0.692910
Br139	Br	0.416913	0.167025	1.180607
H140	H	0.399298	0.071990	0.692951
Br141	Br	0.264210	0.319712	1.355409
Br142	Br	1.090833	-0.506839	0.409256
Br143	Br	0.864532	-0.093515	0.141321
Br144	Br	1.167149	-0.489647	0.775345
Br145	Br	0.416887	0.354099	0.882399
H146	H	0.821441	-0.071968	0.240033
Br147	Br	0.864531	-0.506838	0.668271
H148	H	0.281753	-0.071995	0.857712
H149	H	0.955666	-0.350171	0.539314
Br150	Br	0.938035	-0.167027	0.370048
H151	H	0.821453	-0.071989	0.011302
Br152	Br	0.090794	-0.093540	0.882349
Br153	Br	0.264140	0.506837	1.141399
H154	H	0.821432	-0.793814	0.692940
H155	H	1.131995	-0.454460	0.255099
H156	H	0.955619	0.072007	0.539367
Br157	Br	0.490425	-0.167057	0.882387
Br158	Br	0.416875	0.093517	1.180646
H159	H	0.281737	0.071995	0.692958
Br160	Br	0.416856	0.167070	0.668292
H161	H	1.073165	0.072015	0.404860
H162	H	1.131970	0.000035	0.255178
H163	H	0.222972	0.454519	0.775366
Br164	Br	1.090804	-0.093496	0.195234
Br165	Br	0.938066	-0.093516	0.370009
Br166	Br	0.938051	-0.167042	0.882361
H167	H	1.073174	-0.323695	0.857722
H168	H	0.533481	-0.649834	0.857738
Br169	Br	1.090820	-0.506847	0.668276
Br170	Br	0.864520	-0.093499	0.370056
Br171	Br	0.490406	0.093521	0.584136
Br172	Br	-0.061935	-0.093540	0.882347
H173	H	-0.044359	0.072000	0.692935
H174	H	0.533506	-0.323744	0.857725
H175	H	0.533496	0.071972	0.310623
Br176	Br	0.090759	0.093556	0.668303
H177	H	0.399333	-0.072018	1.011288
Br178	Br	0.264221	-0.093586	1.141260
Br179	Br	0.187835	-0.000081	1.335732
Br180	Br	0.264162	0.093472	1.355421
