data_functionalizedCrystal
_audit_creation_method	'MofGen! by Chris Wilmer'
_symmetry_space_group_name_H-M	'P1'
_symmetry_Int_Tables_number	1
_symmetry_cell_setting	triclinic
loop_
_symmetry_equiv_pos_as_xyz
  x,y,z
_cell_length_a	23.532407
_cell_length_b	23.532353
_cell_length_c	10.868271
_cell_angle_alpha	90.010957
_cell_angle_beta	90.001021
_cell_angle_gamma	97.162402
loop_
_atom_site_label
_atom_site_type_symbol
_atom_site_fract_x
_atom_site_fract_y
_atom_site_fract_z
O1	O	0.755246	-0.069137	-0.102184
O2	O	0.589381	-0.079140	-0.102222
O3	O	0.677331	0.008795	-0.102176
O4	O	0.667295	-0.157073	-0.102231
O5	O	0.677324	0.008799	0.102469
O6	O	0.589373	-0.079137	0.102422
O7	O	0.755239	-0.069134	0.102461
Zn8	Zn	0.672305	-0.074135	0.134933
Zn9	Zn	0.672314	-0.074139	-0.134695
O10	O	0.667288	-0.157069	0.102414
C11	C	0.568161	-0.078884	0.000095
C12	C	0.504944	-0.078118	0.000082
C13	C	0.677077	0.030013	0.000150
C14	C	0.676323	0.093232	0.000163
N15	N	0.672303	-0.074131	0.318947
C16	C	0.105832	-0.125353	0.000122
C17	C	0.046432	-0.124641	0.000130
O18	O	0.009679	-0.168428	0.000160
N19	N	0.023816	-0.072364	0.000145
C20	C	0.060603	-0.020794	0.000165
O21	O	0.035912	0.023738	0.000180
C22	C	0.120002	-0.021506	0.000166
C23	C	0.142615	-0.073787	0.000138
C24	C	0.128445	-0.177630	0.000096
C25	C	0.187841	-0.178341	0.000086
C26	C	0.224624	-0.126775	0.000102
C27	C	0.202011	-0.074498	0.000128
C28	C	0.156789	0.030063	0.000195
C29	C	0.216191	0.029346	0.000197
C30	C	0.238804	-0.022935	0.000169
C31	C	0.298190	-0.023644	0.000134
N32	N	0.320806	-0.075922	0.000119
C33	C	0.284023	-0.127487	0.000103
C34	C	-0.064139	-0.019303	0.000165
C35	C	-0.123537	-0.018590	0.000155
C36	C	-0.137704	-0.122438	0.000122
C37	C	-0.078305	-0.123150	0.000123
C38	C	-0.041523	-0.071580	0.000150
C39	C	0.408759	-0.128977	0.000081
C40	C	0.468161	-0.129684	0.000066
C41	C	0.482323	-0.025837	0.000105
C42	C	0.422927	-0.025130	0.000114
C43	C	0.386145	-0.076705	0.000106
O44	O	0.334977	0.020120	0.000109
O45	O	0.308722	-0.172012	0.000104
C46	C	0.776458	-0.069390	0.000140
C47	C	0.839675	-0.070156	0.000145
C48	C	0.671597	0.485242	-0.111452
C49	C	0.670880	0.544642	-0.111459
O50	O	0.670494	0.575357	-0.206329
N51	N	0.670521	0.574355	0.000092
C52	C	0.670873	0.544665	0.111656
O53	O	0.670501	0.575392	0.206538
C54	C	0.671585	0.485266	0.111661
C55	C	0.671950	0.455557	0.000103
C56	C	0.671961	0.455533	-0.223001
C57	C	0.672678	0.396138	-0.222994
C58	C	0.673031	0.366452	-0.111438
C59	C	0.672667	0.396161	0.000110
C60	C	0.671932	0.455576	0.223224
C61	C	0.672644	0.396173	0.223220
C62	C	0.673009	0.366464	0.111662
C63	C	0.673737	0.307080	0.111673
N64	N	0.674097	0.277367	0.000122
C65	C	0.673743	0.307053	-0.111433
C66	C	0.669376	0.669407	0.111636
C67	C	0.668668	0.728805	0.111632
C68	C	0.668674	0.728778	-0.111483
C69	C	0.669387	0.669379	-0.111478
C70	C	0.669735	0.639694	0.000086
C71	C	0.675250	0.182318	-0.111410
C72	C	0.675970	0.122918	-0.111393
C73	C	0.675960	0.122950	0.111721
C74	C	0.675244	0.182345	0.111705
C75	C	0.674887	0.212028	0.000129
O76	O	0.674122	0.276327	0.206495
O77	O	0.674108	0.276317	-0.206299
C78	C	0.667546	0.821713	0.000088
C79	C	0.668312	0.758496	0.000076
N80	N	0.672321	-0.074138	-0.318709
C81	C	0.672311	-0.074138	0.569953
C82	C	0.672305	-0.074136	0.430276
H83	H	0.378818	-0.170974	0.000078
N84	N	-0.177370	-0.178066	0.000177
H85	H	-0.170142	-0.200908	-0.075673
H86	H	-0.218417	-0.169646	0.000251
H87	H	0.671636	0.479755	0.314067
H88	H	0.206246	-0.220914	0.000063
N89	N	0.398533	0.031257	0.000120
H90	H	0.430851	0.063815	0.000123
H91	H	0.374203	0.033817	0.075993
H92	H	0.674952	0.206537	0.202545
H93	H	0.669661	0.645240	0.202490
H94	H	0.668379	0.752991	0.202474
H95	H	0.676269	0.098732	-0.202241
N96	N	0.492548	-0.186076	0.000051
H97	H	0.535758	-0.178706	0.000046
H98	H	0.479066	-0.208627	-0.075817
N99	N	0.255864	0.084969	0.000233
H100	H	0.232521	0.118192	0.000252
H101	H	0.280816	0.086939	-0.075632
N102	N	0.088792	-0.233262	0.000084
H103	H	0.063829	-0.235297	-0.075776
H104	H	0.063870	-0.235260	0.075997
H105	H	0.674957	0.206479	-0.202266
N106	N	-0.053924	-0.179541	0.000105
H107	H	-0.029597	-0.182154	0.075968
H108	H	-0.029624	-0.182122	-0.075806
H109	H	-0.141942	0.023982	0.000158
H110	H	0.672919	0.372005	0.314070
H111	H	0.672973	0.371954	-0.313836
N112	N	0.676347	0.090927	0.232038
H113	H	0.676855	0.048790	0.215104
H114	H	0.640908	0.096490	0.280742
N115	N	-0.024468	0.036322	0.000187
H116	H	-0.047813	0.069544	0.000196
H117	H	0.000486	0.038291	-0.075676
N118	N	0.522002	0.029779	0.000123
H119	H	0.563061	0.021390	0.000120
H120	H	0.514716	0.052574	0.076002
H121	H	0.669683	0.645194	-0.202318
H122	H	0.138389	0.072636	0.000218
H123	H	0.671671	0.479697	-0.313848
H124	H	0.668385	0.752959	-0.202318
