data_functionalizedCrystal
_audit_creation_method	'MofGen! by Chris Wilmer'
_symmetry_space_group_name_H-M	'P1'
_symmetry_Int_Tables_number	1
_symmetry_cell_setting	triclinic
loop_
_symmetry_equiv_pos_as_xyz
  x,y,z
_cell_length_a	11.792241
_cell_length_b	14.971486
_cell_length_c	14.048226
_cell_angle_alpha	89.997111
_cell_angle_beta	89.999502
_cell_angle_gamma	83.903772
loop_
_atom_site_label
_atom_site_type_symbol
_atom_site_fract_x
_atom_site_fract_y
_atom_site_fract_z
O1	O	-1.506119	-0.122594	0.079069
O2	O	-1.175696	-0.135229	0.079091
O3	O	-1.349763	0.001253	0.079072
O4	O	-1.332051	-0.259076	0.079087
O5	O	-1.349747	0.001252	-0.079249
O6	O	-1.175680	-0.135230	-0.079230
O7	O	-1.506102	-0.122595	-0.079253
Zn8	Zn	-1.340888	-0.128913	-0.104378
Zn9	Zn	-1.340910	-0.128912	0.104217
O10	O	-1.332035	-0.259078	-0.079234
C11	C	-1.348963	0.034580	-0.000088
C12	C	-1.346589	0.133887	-0.000087
C13	C	-1.133402	-0.134436	-0.000067
C14	C	-1.007404	-0.132061	-0.000059
C15	C	-1.548396	-0.123389	-0.000093
C16	C	-1.674395	-0.125764	-0.000095
C17	C	-0.776720	-0.127692	-0.000086
C18	C	-0.905089	-0.130120	-0.000071
C19	C	-1.332835	-0.292405	-0.000072
C20	C	-1.335209	-0.391711	-0.000066
N21	N	-1.340882	-0.128914	-0.246739
C22	C	-1.448849	0.190702	-0.000094
C23	C	-1.446612	0.284011	-0.000085
C24	C	-1.342114	0.320502	-0.000074
C25	C	-1.239846	0.263679	-0.000064
C26	C	-1.242084	0.170372	-0.000067
C27	C	-1.235188	0.458160	-0.000060
C28	C	-1.232949	0.551473	-0.000059
C29	C	-1.439715	0.571798	-0.000078
C30	C	-1.441954	0.478492	-0.000081
C31	C	-1.339685	0.421675	-0.000072
C32	C	-1.272021	-0.074288	-0.703605
C33	C	-1.272017	-0.074285	-0.603947
C34	C	-1.340912	-0.128904	-0.554109
C35	C	-1.409824	-0.183523	-0.603934
C36	C	-1.409833	-0.183520	-0.703590
C37	C	-1.409797	-0.183526	-0.396220
C38	C	-1.409786	-0.183530	-0.296557
C39	C	-1.271980	-0.074291	-0.296577
C40	C	-1.271990	-0.074288	-0.396233
C41	C	-1.340901	-0.128908	-0.446051
N42	N	-1.340925	-0.128904	0.246577
H43	H	-1.529883	0.330267	-0.000093
C44	C	-1.124240	0.396367	-0.000201
C45	C	-1.119491	0.342196	-0.081643
C46	C	-1.017314	0.285254	-0.081804
H47	H	-1.061591	0.431351	-0.000246
H48	H	-1.120809	0.359489	0.054980
H49	H	-1.122911	0.379070	-0.136809
H50	H	-1.182116	0.307194	-0.081615
H51	H	-1.013883	0.248376	-0.026624
H52	H	-0.954673	0.320245	-0.081847
H53	H	-1.014083	0.248487	-0.137057
C54	C	-1.197090	-0.015153	-0.549753
C55	C	-1.120319	-0.068998	-0.492541
C56	C	-1.051272	-0.014560	-0.442602
H57	H	-1.155948	0.017375	-0.593610
H58	H	-1.243477	0.025764	-0.510812
H59	H	-1.073937	-0.109899	-0.531479
H60	H	-1.161429	-0.101525	-0.448666
H61	H	-1.097659	0.026357	-0.403660
H62	H	-1.010138	0.017966	-0.486466
H63	H	-0.999181	-0.051085	-0.403771
C64	C	-1.484795	-0.242664	-0.757732
C65	C	-1.561610	-0.188833	-0.814919
C66	C	-1.630699	-0.243282	-0.864798
H67	H	-1.438476	-0.283593	-0.796690
H68	H	-1.525893	-0.275177	-0.713810
H69	H	-1.520516	-0.156336	-0.858837
H70	H	-1.607955	-0.147906	-0.775985
H71	H	-1.671797	-0.275795	-0.820876
H72	H	-1.584371	-0.284209	-0.903750
H73	H	-1.682833	-0.206766	-0.903598
C74	C	-1.197064	-0.015143	-0.242384
C75	C	-1.120292	-0.068981	-0.185166
C76	C	-1.051260	-0.014536	-0.135221
H77	H	-1.155923	0.017389	-0.286238
H78	H	-1.243461	0.025770	-0.203446
H79	H	-1.073901	-0.109879	-0.224100
H80	H	-1.161402	-0.101513	-0.141294
H81	H	-1.097657	0.026377	-0.096283
H82	H	-1.010126	0.017994	-0.179082
H83	H	-0.999169	-0.051056	-0.096387
C84	C	-1.484713	-0.242856	-0.242616
C85	C	-1.545094	-0.290666	-0.307571
C86	C	-1.614138	-0.345318	-0.257916
H87	H	-1.438374	-0.283851	-0.203741
H88	H	-1.536948	-0.206494	-0.203756
H89	H	-1.492865	-0.327026	-0.346415
H90	H	-1.591454	-0.249694	-0.346449
H91	H	-1.666373	-0.308956	-0.219056
H92	H	-1.567790	-0.386307	-0.219043
H93	H	-1.655123	-0.377757	-0.301981
C94	C	-1.484764	-0.242674	-0.450361
C95	C	-1.561581	-0.188849	-0.507553
C96	C	-1.630660	-0.243305	-0.557432
H97	H	-1.438438	-0.283601	-0.489316
H98	H	-1.525860	-0.275188	-0.406439
H99	H	-1.520488	-0.156349	-0.551469
H100	H	-1.607931	-0.147923	-0.468621
H101	H	-1.671756	-0.275819	-0.513511
H102	H	-1.584325	-0.284229	-0.596382
H103	H	-1.682795	-0.206792	-0.596236
H104	H	-1.533944	0.160999	-0.000109
H105	H	-1.527045	0.448784	-0.000096
H106	H	-1.522986	0.618063	-0.000082
C107	C	-1.197405	-0.014926	-0.757831
C108	C	-1.266145	0.045268	-0.815060
C109	C	-1.197448	0.099961	-0.865032
H110	H	-1.156350	0.017687	-0.713993
H111	H	-1.145240	-0.051275	-0.796764
H112	H	-1.318290	0.081612	-0.776131
H113	H	-1.307200	0.012680	-0.858915
H114	H	-1.145283	0.063612	-0.903965
H115	H	-1.156396	0.132567	-0.821187
H116	H	-1.244077	0.140803	-0.903874
H117	H	-1.154761	0.293397	-0.000049
C118	C	-1.119380	0.590922	0.000018
C119	C	-1.030296	0.521196	0.000064
C120	C	-0.925660	0.557501	0.000152
H121	H	-1.114028	0.626890	-0.055173
H122	H	-1.114174	0.626869	0.055255
H123	H	-1.035499	0.485264	-0.055167
H124	H	-1.035610	0.485222	0.055251
H125	H	-0.920454	0.593449	0.055389
H126	H	-0.920320	0.593470	-0.055040
H127	H	-0.865204	0.510199	0.000192
H128	H	-1.465925	-0.227990	-0.563348
H129	H	-1.158814	0.124113	-0.000060
H130	H	-1.215884	-0.029817	-0.436808
