data_functionalizedCrystal
_audit_creation_method	'MofGen! by Chris Wilmer'
_symmetry_space_group_name_H-M	'P1'
_symmetry_Int_Tables_number	1
_symmetry_cell_setting	triclinic
loop_
_symmetry_equiv_pos_as_xyz
  x,y,z
_cell_length_a	12.759399
_cell_length_b	12.759401
_cell_length_c	12.759393
_cell_angle_alpha	90.019676
_cell_angle_beta	90.030906
_cell_angle_gamma	90.015542
loop_
_atom_site_label
_atom_site_type_symbol
_atom_site_fract_x
_atom_site_fract_y
_atom_site_fract_z
Zn1	Zn	-0.418204	1.606263	0.593982
Zn2	Zn	0.081796	2.106263	1.093982
Zn3	Zn	-0.593919	1.606153	0.418301
Zn4	Zn	-0.093919	2.106153	0.918301
Zn5	Zn	-0.418256	1.430562	0.418321
Zn6	Zn	0.081744	1.930562	0.918321
Zn7	Zn	-0.593842	1.430553	0.593942
Zn8	Zn	-0.093842	1.930553	1.093942
O9	O	-0.506055	1.518383	0.506136
O10	O	-0.006055	2.018383	1.006136
O11	O	-0.441523	1.753270	0.570686
O12	O	0.058477	2.253270	1.070686
O13	O	-0.570671	1.582818	0.271282
O14	O	-0.070671	2.082818	0.771282
O15	O	-0.271228	1.453919	0.441648
O16	O	0.228772	1.953919	0.941648
O17	O	-0.570620	1.753189	0.441613
O18	O	-0.070620	2.253189	0.941613
O19	O	-0.271189	1.583006	0.570705
O20	O	0.228811	2.083006	1.070705
O21	O	-0.441612	1.453812	0.271297
O22	O	0.058388	1.953812	0.771297
O23	O	-0.441538	1.283540	0.441609
O24	O	0.058462	1.783540	0.941609
O25	O	-0.570489	1.453903	0.740968
O26	O	-0.070489	1.953903	1.240968
O27	O	-0.570540	1.283533	0.570637
O28	O	-0.070540	1.783533	1.070637
O29	O	-0.441448	1.582997	0.740998
O30	O	0.058552	2.082997	1.240998
O31	O	-0.740930	1.582809	0.441575
O32	O	-0.240930	2.082809	0.941575
O33	O	-0.740874	1.453796	0.570617
O34	O	-0.240874	1.953796	1.070617
C35	C	-0.506037	1.245415	0.506121
C36	C	-0.006037	1.745415	1.006121
C37	C	-0.506055	1.128639	0.506140
C38	C	-0.006055	1.628639	1.006140
C39	C	-0.438955	1.073820	0.573451
C40	C	0.061045	1.573820	1.073451
C41	C	-0.438966	0.964096	0.573458
C42	C	0.061034	1.464096	1.073458
C43	C	-0.573185	0.964020	0.438839
C44	C	-0.073185	1.464020	0.938839
C45	C	-0.573168	1.073742	0.438828
C46	C	-0.073168	1.573742	0.938828
C47	C	-0.779023	1.518318	0.506112
C48	C	-0.279023	2.018318	1.006112
C49	C	-0.895799	1.518387	0.506137
C50	C	-0.395799	2.018387	1.006137
C51	C	-0.950656	1.585641	0.439021
C52	C	-0.450656	2.085641	0.939021
C53	C	-1.060380	1.585708	0.439056
C54	C	-0.560380	2.085708	0.939056
C55	C	-1.060381	1.451259	0.573327
C56	C	-0.560381	1.951259	1.073327
C57	C	-0.950659	1.451198	0.573296
C58	C	-0.450659	1.951198	1.073296
C59	C	-0.232022	1.518476	0.506183
C60	C	0.267978	2.018476	1.006183
C61	C	-0.115245	1.518516	0.506203
C62	C	0.384755	2.018516	1.006203
C63	C	-0.505954	1.518461	0.780170
C64	C	-0.005954	2.018461	1.280170
C65	C	-0.505911	1.518495	0.896946
C66	C	-0.005911	2.018495	1.396946
C67	C	-0.506074	1.792416	0.506152
C68	C	-0.006074	2.292416	1.006152
C69	C	-0.506082	1.909193	0.506158
C70	C	-0.006082	2.409193	1.006158
C71	C	-0.506080	1.518365	0.233169
C72	C	-0.006080	2.018365	0.733169
C73	C	-0.505827	1.518535	0.116393
C74	C	-0.005827	2.018535	0.616393
C75	C	-0.438709	1.585719	0.951825
C76	C	0.061291	2.085719	1.451825
C77	C	-0.438664	1.585737	1.061550
C78	C	0.061336	2.085737	1.561550
C79	C	-0.573032	1.451303	1.061506
C80	C	-0.073032	1.951303	1.561506
C81	C	-0.573072	1.451281	0.951784
C82	C	-0.073072	1.951281	1.451784
H83	H	-0.627810	1.118377	0.384009
H84	H	-0.127810	1.618377	0.884009
Br85	Br	-0.664272	1.360032	0.877298
Br86	Br	-0.164272	1.860032	1.377298
H87	H	-0.627827	0.919309	0.384037
H88	H	-0.127827	1.419309	0.884037
Br89	Br	-0.347894	0.889702	0.664810
Br90	Br	0.152106	1.389702	1.164810
H91	H	-0.383939	1.640476	1.106227
H92	H	0.116061	2.140476	1.606227
H93	H	-0.384304	1.118514	0.628258
H94	H	0.115696	1.618514	1.128258
H95	H	-0.905991	1.640352	0.384338
H96	H	-0.405991	2.140352	0.884338
H97	H	-1.105039	1.640474	0.384405
H98	H	-0.605039	2.140474	0.884405
Br99	Br	-1.134840	1.360077	0.664465
Br100	Br	-0.634840	1.860077	1.164465
Br101	Br	-0.347562	1.676935	0.877406
Br102	Br	0.152438	2.176935	1.377406
Br103	Br	-0.876204	1.359927	0.664398
Br104	Br	-0.376204	1.859927	1.164398
H105	H	-0.627714	1.396583	1.106168
H106	H	-0.127714	1.896583	1.606168
