data_functionalizedCrystal
_audit_creation_method	'MofGen! by Chris Wilmer'
_symmetry_space_group_name_H-M	'P1'
_symmetry_Int_Tables_number	1
_symmetry_cell_setting	triclinic
loop_
_symmetry_equiv_pos_as_xyz
  x,y,z
_cell_length_a	10.540539
_cell_length_b	10.723023
_cell_length_c	9.798715
_cell_angle_alpha	90.002993
_cell_angle_beta	90.001248
_cell_angle_gamma	84.496520
loop_
_atom_site_label
_atom_site_type_symbol
_atom_site_fract_x
_atom_site_fract_y
_atom_site_fract_z
O1	O	0.178042	1.657276	0.113470
O2	O	0.195085	1.294132	0.113475
O3	O	0.001853	1.483989	0.113471
O4	O	0.371274	1.467419	0.113474
O5	O	0.001851	1.483975	-0.113511
O6	O	0.195084	1.294119	-0.113507
O7	O	0.178040	1.657263	-0.113512
Zn8	Zn	0.186562	1.475688	-0.149548
Zn9	Zn	0.186564	1.475706	0.149511
O10	O	0.371273	1.467406	-0.113508
C11	C	0.193844	1.247625	-0.000015
C12	C	0.190134	1.109069	-0.000013
C13	C	-0.045450	1.482739	-0.000018
C14	C	-0.186397	1.479022	-0.000010
C15	C	0.188479	1.047289	-0.117596
C16	C	0.184644	0.904084	-0.117596
C17	C	-0.369750	1.336564	0.000501
C18	C	-0.223134	1.340333	-0.000010
C19	C	-0.248090	1.545758	-0.129629
C20	C	-0.394632	1.541024	-0.129738
C21	C	-0.395150	1.543860	0.128383
C22	C	-0.248168	1.545138	0.130096
C23	C	0.418576	1.468655	-0.000016
C24	C	0.559522	1.472373	-0.000015
C25	C	0.179281	1.703769	-0.000019
C26	C	0.182991	1.842326	-0.000012
N27	N	0.186560	1.475686	-0.353648
C28	C	0.105251	1.555599	-0.578581
C29	C	0.105252	1.555582	-0.421418
N30	N	0.186556	1.475719	0.353611
H31	H	0.183228	0.850954	-0.218263
H32	H	0.188709	1.055942	0.100653
H33	H	-0.205467	1.499388	-0.226086
H34	H	0.256167	1.407289	-0.411951
H35	H	-0.180503	1.287821	0.092906
H36	H	0.256170	1.407322	-0.588092
H37	H	-0.223999	1.646253	0.137922
H38	H	-0.398321	1.281784	0.093453
H39	H	0.035645	1.624005	-0.636877
H40	H	0.184422	0.895446	0.100660
H41	H	0.035639	1.623966	-0.363106
H42	H	-0.426679	1.498979	0.226625
H43	H	-0.399930	1.281996	-0.091929
H44	H	0.189894	1.100417	-0.218262
O45	O	-0.173412	1.277078	-0.111000
C46	C	-0.202880	1.151681	-0.105136
H47	H	-0.290504	1.145441	-0.038202
H48	H	-0.223235	1.117619	-0.212423
H49	H	-0.118732	1.090586	-0.060043
H50	H	-0.422806	1.491692	-0.226630
H51	H	-0.442652	1.640767	-0.135620
H52	H	-0.207284	1.496308	0.225985
O53	O	-0.221320	1.667219	-0.135219
C54	C	-0.146272	1.693751	-0.021662
H55	H	-0.094752	1.602943	0.018892
H56	H	-0.073269	1.759953	-0.053730
H57	H	-0.210105	1.739810	0.061674
O58	O	-0.451706	1.663309	0.129260
C59	C	-0.531809	1.682292	0.014407
H60	H	-0.560283	1.588221	-0.022941
H61	H	-0.620940	1.745334	0.043602
H62	H	-0.478982	1.728672	-0.070312
