data_functionalizedCrystal
_audit_creation_method	'MofGen! by Chris Wilmer'
_symmetry_space_group_name_H-M	'P1'
_symmetry_Int_Tables_number	1
_symmetry_cell_setting	triclinic
loop_
_symmetry_equiv_pos_as_xyz
  x,y,z
_cell_length_a	10.723024
_cell_length_b	10.723024
_cell_length_c	9.798715
_cell_angle_alpha	90.005416
_cell_angle_beta	90.000214
_cell_angle_gamma	84.467869
loop_
_atom_site_label
_atom_site_type_symbol
_atom_site_fract_x
_atom_site_fract_y
_atom_site_fract_z
O1	O	-1.657181	-0.175031	-0.113478
O2	O	-1.157181	0.324969	0.386522
O3	O	-1.294029	-0.191785	-0.113483
O4	O	-0.794029	0.308215	0.386517
O5	O	-1.483981	-0.001832	-0.113475
O6	O	-0.983981	0.498168	0.386525
O7	O	-1.467228	-0.364984	-0.113486
O8	O	-0.967228	0.135016	0.386514
O9	O	-1.483980	-0.001818	0.113507
O10	O	-0.983980	0.498182	0.613507
O11	O	-1.294027	-0.191770	0.113499
O12	O	-0.794027	0.308230	0.613499
O13	O	-1.657179	-0.175017	0.113504
O14	O	-1.157179	0.324983	0.613504
Zn15	Zn	-1.475603	-0.183392	0.149540
Zn16	Zn	-0.975603	0.316608	0.649540
Zn17	Zn	-1.475605	-0.183410	-0.149519
Zn18	Zn	-0.975605	0.316590	0.350481
O19	O	-1.467227	-0.364970	0.113496
O20	O	-0.967227	0.135030	0.613496
C21	C	-1.247528	-0.190558	0.000008
C22	C	-0.747528	0.309442	0.500008
C23	C	-1.108974	-0.186911	0.000006
C24	C	-0.608974	0.313089	0.500006
N25	N	-1.475607	-0.183414	-0.353619
N26	N	-0.975607	0.316586	0.146381
C27	C	-1.482762	0.044675	0.000014
C28	C	-0.982762	0.544675	0.500014
C29	C	-1.479114	0.183229	0.000009
C30	C	-0.979114	0.683229	0.500009
C31	C	-1.703680	-0.176243	0.000010
C32	C	-1.203680	0.323757	0.500010
C33	C	-1.842234	-0.179891	0.000003
C34	C	-1.342234	0.320109	0.500003
C35	C	-1.033991	-0.293198	0.000002
C36	C	-0.533991	0.206802	0.500002
C37	C	-0.890788	-0.289431	0.000001
C38	C	-0.390788	0.210569	0.500001
C39	C	-1.468447	-0.411477	0.000004
C40	C	-0.968447	0.088523	0.500004
C41	C	-1.472094	-0.550031	-0.000000
C42	C	-0.972094	-0.050031	0.500000
C43	C	-1.585401	0.258212	0.000009
C44	C	-1.085401	0.758212	0.500009
C45	C	-1.581634	0.401415	0.000004
C46	C	-1.081634	0.901415	0.500004
C47	C	-1.547994	-0.256122	-0.578584
C48	C	-1.047994	0.243878	-0.078584
C49	C	-1.547992	-0.256142	-0.421421
C50	C	-1.047992	0.243858	0.078579
N51	N	-1.475611	-0.183378	0.353640
N52	N	-0.975611	0.316622	0.853640
H53	H	-1.075814	-0.386984	0.000007
H54	H	-0.575814	0.113016	0.500007
H55	H	-1.067152	-0.093125	-0.000026
H56	H	-0.567152	0.406875	0.499974
H57	H	-0.906659	-0.088896	-0.000002
H58	H	-0.406659	0.411104	0.499998
H59	H	-0.826355	-0.380421	-0.000008
H60	H	-0.326355	0.119579	0.499992
H61	H	-1.609969	-0.318380	-0.636910
H62	H	-1.109969	0.181620	-0.136910
H63	H	-1.679187	0.216390	0.000018
H64	H	-1.179187	0.716390	0.500018
H65	H	-1.672624	0.465848	0.000009
H66	H	-1.172624	0.965848	0.500009
H67	H	-1.381099	0.385544	0.000010
H68	H	-0.881099	0.885544	0.500010
C69	C	-1.391880	-0.099274	-0.432332
C70	C	-0.891880	0.400726	0.067668
H71	H	-1.346460	-0.053656	-0.369405
H72	H	-0.846460	0.446344	0.130595
H73	H	-1.442666	-0.042433	-0.488065
H74	H	-0.942666	0.457567	0.011935
H75	H	-1.334839	-0.149837	-0.488081
H76	H	-0.834839	0.350163	0.011919
H77	H	-1.385328	0.225051	-0.000001
H78	H	-0.885328	0.725051	0.499999
H79	H	-1.609955	-0.318427	-0.363135
H80	H	-1.109955	0.181573	0.136865
H81	H	-1.413644	-0.121111	-0.588034
H82	H	-0.913644	0.378889	-0.088034
