data_functionalizedCrystal
_audit_creation_method	'MofGen! by Chris Wilmer'
_symmetry_space_group_name_H-M	'P1'
_symmetry_Int_Tables_number	1
_symmetry_cell_setting	triclinic
loop_
_symmetry_equiv_pos_as_xyz
  x,y,z
_cell_length_a	25.639242
_cell_length_b	29.839125
_cell_length_c	25.639239
_cell_angle_alpha	89.983129
_cell_angle_beta	90.033587
_cell_angle_gamma	89.979564
loop_
_atom_site_label
_atom_site_type_symbol
_atom_site_fract_x
_atom_site_fract_y
_atom_site_fract_z
Zn1	Zn	0.799219	-0.254109	-0.208295
Zn2	Zn	1.049219	-0.004109	0.041705
Zn3	Zn	1.299219	0.245891	0.291705
Zn4	Zn	1.549219	0.495891	0.541705
Zn5	Zn	0.799144	-0.178980	-0.295711
Zn6	Zn	1.049144	0.071020	-0.045711
Zn7	Zn	1.299144	0.321020	0.204289
Zn8	Zn	1.549144	0.571020	0.454289
Zn9	Zn	0.711797	-0.178981	-0.208284
Zn10	Zn	0.961797	0.071019	0.041716
Zn11	Zn	1.211797	0.321019	0.291716
Zn12	Zn	1.461797	0.571019	0.541716
Zn13	Zn	0.711741	-0.254071	-0.295694
Zn14	Zn	0.961741	-0.004071	-0.045694
Zn15	Zn	1.211741	0.245929	0.204306
Zn16	Zn	1.461741	0.495929	0.454306
O17	O	0.755475	-0.216535	-0.251996
O18	O	1.005475	0.033465	-0.001996
O19	O	1.255475	0.283465	0.248004
O20	O	1.505475	0.533465	0.498004
O21	O	0.872374	-0.244159	-0.219903
O22	O	1.122374	0.005841	0.030097
O23	O	1.372374	0.255841	0.280097
O24	O	1.622374	0.505841	0.530097
O25	O	0.787550	-0.116113	-0.284116
O26	O	1.037550	0.133887	-0.034116
O27	O	1.287550	0.383887	0.215884
O28	O	1.537550	0.633887	0.465884
O29	O	0.723449	-0.188963	-0.135120
O30	O	0.973449	0.061037	0.114880
O31	O	1.223449	0.311037	0.364880
O32	O	1.473449	0.561037	0.614880
O33	O	0.872319	-0.188962	-0.284127
O34	O	1.122319	0.061038	-0.034127
O35	O	1.372319	0.311038	0.215873
O36	O	1.622319	0.561038	0.465873
O37	O	0.787677	-0.244160	-0.135128
O38	O	1.037677	0.005840	0.114872
O39	O	1.287677	0.255840	0.364872
O40	O	1.537677	0.505840	0.614872
O41	O	0.723376	-0.116114	-0.219884
O42	O	0.973376	0.133886	0.030116
O43	O	1.223376	0.383886	0.280116
O44	O	1.473376	0.633886	0.530116
O45	O	0.638624	-0.188926	-0.219867
O46	O	0.888624	0.061074	0.030133
O47	O	1.138624	0.311074	0.280133
O48	O	1.388624	0.561074	0.530133
O49	O	0.723352	-0.316943	-0.284098
O50	O	0.973352	-0.066943	-0.034098
O51	O	1.223352	0.183057	0.215902
O52	O	1.473352	0.433057	0.465902
O53	O	0.638583	-0.244094	-0.284086
O54	O	0.888583	0.005906	-0.034086
O55	O	1.138583	0.255906	0.215914
O56	O	1.388583	0.505906	0.465914
O57	O	0.787622	-0.316971	-0.219886
O58	O	1.037622	-0.066971	0.030114
O59	O	1.287622	0.183029	0.280114
O60	O	1.537622	0.433029	0.530114
O61	O	0.787495	-0.188925	-0.368874
O62	O	1.037495	0.061075	-0.118874
O63	O	1.287495	0.311075	0.131126
O64	O	1.537495	0.561075	0.381126
O65	O	0.723280	-0.244093	-0.368861
O66	O	0.973280	0.005907	-0.118861
O67	O	1.223280	0.255907	0.131139
O68	O	1.473280	0.505907	0.381139
C69	C	0.619633	-0.216506	-0.251974
C70	C	0.869633	0.033494	-0.001974
C71	C	1.119633	0.283494	0.248026
C72	C	1.369633	0.533494	0.498026
C73	C	0.561519	-0.216504	-0.251977
C74	C	0.811519	0.033496	-0.001977
C75	C	1.061519	0.283496	0.248023
C76	C	1.311519	0.533496	0.498023
C77	C	0.755489	-0.333714	-0.251991
C78	C	1.005489	-0.083714	-0.001991
C79	C	1.255489	0.166286	0.248009
C80	C	1.505489	0.416286	0.498009
C81	C	0.755495	-0.383648	-0.251989
C82	C	1.005495	-0.133648	-0.001989
C83	C	1.255495	0.116352	0.248011
C84	C	1.505495	0.366352	0.498011
C85	C	0.310338	-0.187859	-0.218501
C86	C	0.560338	0.062141	0.031499
C87	C	0.810338	0.312141	0.281499
C88	C	1.060338	0.562141	0.531499
C89	C	0.364942	-0.187853	-0.218496
C90	C	0.614942	0.062147	0.031504
C91	C	0.864942	0.312147	0.281504
C92	C	1.114942	0.562147	0.531504
O93	O	0.393190	-0.163473	-0.190003
O94	O	0.643190	0.086527	0.059997
O95	O	0.893190	0.336527	0.309997
O96	O	1.143190	0.586527	0.559997
N97	N	0.392245	-0.216527	-0.251983
N98	N	0.642245	0.033473	-0.001983
N99	N	0.892245	0.283473	0.248017
N100	N	1.142245	0.533473	0.498017
C101	C	0.364940	-0.245211	-0.285474
C102	C	0.614940	0.004789	-0.035474
C103	C	0.864940	0.254789	0.214526
C104	C	1.114940	0.504789	0.464526
O105	O	0.393177	-0.269600	-0.313957
O106	O	0.643177	-0.019600	-0.063957
O107	O	0.893177	0.230400	0.186043
O108	O	1.143177	0.480400	0.436043
C109	C	0.310337	-0.245219	-0.285476
C110	C	0.560337	0.004781	-0.035476
C111	C	0.810337	0.254781	0.214524
C112	C	1.060337	0.504781	0.464524
C113	C	0.283037	-0.216540	-0.251990
C114	C	0.533037	0.033460	-0.001990
C115	C	0.783037	0.283460	0.248010
C116	C	1.033037	0.533460	0.498010
C117	C	0.283039	-0.159183	-0.185017
C118	C	0.533039	0.090817	0.064983
C119	C	0.783039	0.340817	0.314983
C120	C	1.033039	0.590817	0.564983
C121	C	0.228438	-0.159188	-0.185023
C122	C	0.478438	0.090812	0.064977
C123	C	0.728438	0.340812	0.314977
C124	C	0.978438	0.590812	0.564977
C125	C	0.201137	-0.187869	-0.218512
C126	C	0.451137	0.062131	0.031488
C127	C	0.701137	0.312131	0.281488
C128	C	0.951137	0.562131	0.531488
C129	C	0.228437	-0.216545	-0.251996
C130	C	0.478437	0.033455	-0.001996
C131	C	0.728437	0.283455	0.248004
C132	C	0.978437	0.533455	0.498004
C133	C	0.283033	-0.273905	-0.318964
C134	C	0.533033	-0.023905	-0.068964
C135	C	0.783033	0.226095	0.181036
C136	C	1.033033	0.476095	0.431036
C137	C	0.228426	-0.273911	-0.318962
C138	C	0.478426	-0.023911	-0.068962
C139	C	0.728426	0.226089	0.181038
C140	C	0.978426	0.476089	0.431038
C141	C	0.201126	-0.245232	-0.285476
C142	C	0.451126	0.004768	-0.035476
C143	C	0.701126	0.254768	0.214524
C144	C	0.951126	0.504768	0.464524
C145	C	0.146535	-0.245232	-0.285491
C146	C	0.396535	0.004768	-0.035491
C147	C	0.646535	0.254768	0.214509
C148	C	0.896535	0.504768	0.464509
N149	N	0.119233	-0.216558	-0.252003
N150	N	0.369233	0.033442	-0.002003
N151	N	0.619233	0.283442	0.247997
N152	N	0.869233	0.533442	0.497997
C153	C	0.146534	-0.187877	-0.218514
C154	C	0.396534	0.062123	0.031486
C155	C	0.646534	0.312123	0.281486
C156	C	0.896534	0.562123	0.531486
C157	C	0.479611	-0.245193	-0.285467
C158	C	0.729611	0.004807	-0.035467
C159	C	0.979611	0.254807	0.214533
C160	C	1.229611	0.504807	0.464533
C161	C	0.534213	-0.245184	-0.285468
C162	C	0.784213	0.004816	-0.035468
C163	C	1.034213	0.254816	0.214532
C164	C	1.284213	0.504816	0.464532
C165	C	0.534212	-0.187826	-0.218490
C166	C	0.784212	0.062174	0.031510
C167	C	1.034212	0.312174	0.281510
C168	C	1.284212	0.562174	0.531510
C169	C	0.479608	-0.187834	-0.218491
C170	C	0.729608	0.062166	0.031509
C171	C	0.979608	0.312166	0.281509
C172	C	1.229608	0.562166	0.531509
C173	C	0.452308	-0.216520	-0.251980
C174	C	0.702308	0.033480	-0.001980
C175	C	0.952308	0.283480	0.248020
C176	C	1.202308	0.533480	0.498020
C177	C	0.031869	-0.187890	-0.218529
C178	C	0.281869	0.062110	0.031471
C179	C	0.531869	0.312110	0.281471
C180	C	0.781869	0.562110	0.531471
C181	C	-0.022737	-0.187896	-0.218539
C182	C	0.227263	0.062104	0.031461
C183	C	0.477263	0.312104	0.281461
C184	C	0.727263	0.562104	0.531461
C185	C	-0.022731	-0.245255	-0.285516
C186	C	0.227269	0.004745	-0.035516
C187	C	0.477269	0.254745	0.214484
C188	C	0.727269	0.504745	0.464484
C189	C	0.031870	-0.245247	-0.285508
C190	C	0.281870	0.004753	-0.035508
C191	C	0.531870	0.254753	0.214492
C192	C	0.781870	0.504753	0.464492
C193	C	0.059168	-0.216563	-0.252010
C194	C	0.309168	0.033437	-0.002010
C195	C	0.559168	0.283437	0.247990
C196	C	0.809168	0.533437	0.497990
O197	O	0.118253	-0.269601	-0.313968
O198	O	0.368253	-0.019601	-0.063968
O199	O	0.618253	0.230399	0.186032
O200	O	0.868253	0.480399	0.436032
O201	O	0.118290	-0.163496	-0.190031
O202	O	0.368290	0.086504	0.059969
O203	O	0.618290	0.336504	0.309969
O204	O	0.868290	0.586504	0.559969
C205	C	0.788996	-0.693309	-0.218467
C206	C	1.038996	-0.443309	0.031533
C207	C	1.288996	-0.193309	0.281533
C208	C	1.538996	0.056691	0.531533
C209	C	0.789022	-0.880982	-0.218422
C210	C	1.039022	-0.630982	0.031578
C211	C	1.289022	-0.380982	0.281578
C212	C	1.539022	-0.130982	0.531578
O213	O	0.817467	-0.905262	-0.189970
O214	O	1.067467	-0.655262	0.060030
O215	O	1.317467	-0.405262	0.310030
O216	O	1.567467	-0.155262	0.560030
N217	N	0.755565	-0.904433	-0.251849
N218	N	1.005565	-0.654433	-0.001849
N219	N	1.255565	-0.404433	0.248151
N220	N	1.505565	-0.154433	0.498151
C221	C	0.722096	-0.880963	-0.285287
C222	C	0.972096	-0.630963	-0.035287
C223	C	1.222096	-0.380963	0.214713
C224	C	1.472096	-0.130963	0.464713
O225	O	0.693636	-0.905216	-0.313714
O226	O	0.943636	-0.655216	-0.063714
O227	O	1.193636	-0.405216	0.186286
O228	O	1.443636	-0.155216	0.436286
C229	C	0.722068	-0.693291	-0.285329
C230	C	0.972068	-0.443291	-0.035329
C231	C	1.222068	-0.193291	0.214671
C232	C	1.472068	0.056709	0.464671
C233	C	0.755531	-0.669842	-0.251903
C234	C	1.005531	-0.419842	-0.001903
C235	C	1.255531	-0.169842	0.248097
C236	C	1.505531	0.080158	0.498097
C237	C	0.822456	-0.669861	-0.185044
C238	C	1.072456	-0.419861	0.064956
C239	C	1.322456	-0.169861	0.314956
C240	C	1.572456	0.080139	0.564956
C241	C	0.822451	-0.622945	-0.185057
C242	C	1.072451	-0.372945	0.064943
C243	C	1.322451	-0.122945	0.314943
C244	C	1.572451	0.127055	0.564943
C245	C	0.788987	-0.599478	-0.218494
C246	C	1.038987	-0.349478	0.031506
C247	C	1.288987	-0.099478	0.281506
C248	C	1.538987	0.150522	0.531506
C249	C	0.755526	-0.622927	-0.251917
C250	C	1.005526	-0.372927	-0.001917
C251	C	1.255526	-0.122927	0.248083
C252	C	1.505526	0.127073	0.498083
C253	C	0.688597	-0.669821	-0.318764
C254	C	0.938597	-0.419821	-0.068764
C255	C	1.188597	-0.169821	0.181236
C256	C	1.438597	0.080179	0.431236
C257	C	0.688592	-0.622900	-0.318770
C258	C	0.938592	-0.372900	-0.068770
C259	C	1.188592	-0.122900	0.181230
C260	C	1.438592	0.127100	0.431230
C261	C	0.722055	-0.599452	-0.285345
C262	C	0.972055	-0.349452	-0.035345
C263	C	1.222055	-0.099452	0.214655
C264	C	1.472055	0.150548	0.464655
C265	C	0.722057	-0.552544	-0.285367
C266	C	0.972057	-0.302544	-0.035367
C267	C	1.222057	-0.052544	0.214633
C268	C	1.472057	0.197456	0.464633
N269	N	0.755514	-0.529093	-0.251940
N270	N	1.005514	-0.279093	-0.001940
N271	N	1.255514	-0.029093	0.248060
N272	N	1.505514	0.220907	0.498060
C273	C	0.788979	-0.552560	-0.218503
C274	C	1.038979	-0.302560	0.031497
C275	C	1.288979	-0.052560	0.281497
C276	C	1.538979	0.197440	0.531497
C277	C	0.722114	-0.979494	-0.285264
C278	C	0.972114	-0.729494	-0.035264
C279	C	1.222114	-0.479494	0.214736
C280	C	1.472114	-0.229494	0.464736
C281	C	0.722122	-1.026412	-0.285254
C282	C	0.972122	-0.776412	-0.035254
C283	C	1.222122	-0.526412	0.214746
C284	C	1.472122	-0.276412	0.464746
C285	C	0.789047	-1.026428	-0.218388
C286	C	1.039047	-0.776428	0.031612
C287	C	1.289047	-0.526428	0.281612
C288	C	1.539047	-0.276428	0.531612
C289	C	0.789042	-0.979509	-0.218401
C290	C	1.039042	-0.729509	0.031599
C291	C	1.289042	-0.479509	0.281599
C292	C	1.539042	-0.229509	0.531599
C293	C	0.755571	-0.956043	-0.251837
C294	C	1.005571	-0.706043	-0.001837
C295	C	1.255571	-0.456043	0.248163
C296	C	1.505571	-0.206043	0.498163
C297	C	0.788967	-0.454035	-0.218535
C298	C	1.038967	-0.204035	0.031465
C299	C	1.288967	0.045965	0.281465
C300	C	1.538967	0.295965	0.531465
C301	C	0.788960	-0.407115	-0.218553
C302	C	1.038960	-0.157115	0.031447
C303	C	1.288960	0.092885	0.281447
C304	C	1.538960	0.342885	0.531447
C305	C	0.722033	-0.407103	-0.285416
C306	C	0.972033	-0.157103	-0.035416
C307	C	1.222033	0.092897	0.214584
C308	C	1.472033	0.342897	0.464584
C309	C	0.722041	-0.454018	-0.285400
C310	C	0.972041	-0.204018	-0.035400
C311	C	1.222041	0.045982	0.214600
C312	C	1.472041	0.295982	0.464600
C313	C	0.755510	-0.477483	-0.251955
C314	C	1.005510	-0.227483	-0.001955
C315	C	1.255510	0.022517	0.248045
C316	C	1.505510	0.272517	0.498045
O317	O	0.693623	-0.528236	-0.313800
O318	O	0.943623	-0.278236	-0.063800
O319	O	1.193623	-0.028236	0.186200
O320	O	1.443623	0.221764	0.436200
O321	O	0.817427	-0.528300	-0.190073
O322	O	1.067427	-0.278300	0.059927
O323	O	1.317427	-0.028300	0.309927
O324	O	1.567427	0.221700	0.559927
C325	C	0.789001	-0.740225	-0.218453
C326	C	1.039001	-0.490225	0.031547
C327	C	1.289001	-0.240225	0.281547
C328	C	1.539001	0.009775	0.531547
C329	C	0.755541	-0.763673	-0.251876
C330	C	1.005541	-0.513673	-0.001876
C331	C	1.255541	-0.263673	0.248124
C332	C	1.505541	-0.013673	0.498124
C333	C	0.722076	-0.740206	-0.285313
C334	C	0.972076	-0.490206	-0.035313
C335	C	1.222076	-0.240206	0.214687
C336	C	1.472076	0.009794	0.464687
C337	C	0.755549	-0.810591	-0.251867
C338	C	1.005549	-0.560591	-0.001867
C339	C	1.255549	-0.310591	0.248133
C340	C	1.505549	-0.060591	0.498133
C341	C	0.789013	-0.834058	-0.218430
C342	C	1.039013	-0.584058	0.031570
C343	C	1.289013	-0.334058	0.281570
C344	C	1.539013	-0.084058	0.531570
C345	C	0.822471	-0.810607	-0.185003
C346	C	1.072471	-0.560607	0.064997
C347	C	1.322471	-0.310607	0.314997
C348	C	1.572471	-0.060607	0.564997
C349	C	0.822466	-0.763692	-0.185017
C350	C	1.072466	-0.513692	0.064983
C351	C	1.322466	-0.263692	0.314983
C352	C	1.572466	-0.013692	0.564983
C353	C	0.688619	-0.763657	-0.318740
C354	C	0.938619	-0.513657	-0.068740
C355	C	1.188619	-0.263657	0.181260
C356	C	1.438619	-0.013657	0.431260
C357	C	0.688627	-0.810573	-0.318724
C358	C	0.938627	-0.560573	-0.068724
C359	C	1.188627	-0.310573	0.181276
C360	C	1.438627	-0.060573	0.431276
C361	C	0.722092	-0.834040	-0.285288
C362	C	0.972092	-0.584040	-0.035288
C363	C	1.222092	-0.334040	0.214712
C364	C	1.472092	-0.084040	0.464712
C365	C	0.891848	-0.216565	-0.252018
C366	C	1.141848	0.033435	-0.002018
C367	C	1.391848	0.283435	0.247982
C368	C	1.641848	0.533435	0.497982
C369	C	0.949962	-0.216577	-0.252028
C370	C	1.199962	0.033423	-0.002028
C371	C	1.449962	0.283423	0.247972
C372	C	1.699962	0.533423	0.497972
C373	C	0.755387	-0.216515	-0.387839
C374	C	1.005387	0.033485	-0.137839
C375	C	1.255387	0.283485	0.112161
C376	C	1.505387	0.533485	0.362161
C377	C	0.755398	-0.216521	-0.445953
C378	C	1.005398	0.033479	-0.195953
C379	C	1.255398	0.283479	0.054047
C380	C	1.505398	0.533479	0.304047
C381	C	0.755491	-0.099813	-0.251963
C382	C	1.005491	0.150187	-0.001963
C383	C	1.255491	0.400187	0.248037
C384	C	1.505491	0.650187	0.498037
C385	C	0.755587	-0.049879	-0.251818
C386	C	1.005587	0.200121	-0.001818
C387	C	1.255587	0.450121	0.248182
C388	C	1.505587	0.700121	0.498182
C389	C	0.788999	-0.187858	-0.806310
C390	C	1.038999	0.062142	-0.556310
C391	C	1.288999	0.312142	-0.306310
C392	C	1.538999	0.562142	-0.056310
C393	C	0.789020	-0.187864	-0.860914
C394	C	1.039020	0.062136	-0.610914
C395	C	1.289020	0.312136	-0.360914
C396	C	1.539020	0.562136	-0.110914
O397	O	0.817498	-0.163471	-0.889146
O398	O	1.067498	0.086529	-0.639146
O399	O	1.317498	0.336529	-0.389146
O400	O	1.567498	0.586529	-0.139146
N401	N	0.755567	-0.216565	-0.888235
N402	N	1.005567	0.033435	-0.638235
N403	N	1.255567	0.283435	-0.388235
N404	N	1.505567	0.533435	-0.138235
C405	C	0.722096	-0.245265	-0.860949
C406	C	0.972096	0.004735	-0.610949
C407	C	1.222096	0.254735	-0.360949
C408	C	1.472096	0.504735	-0.110949
O409	O	0.693644	-0.269679	-0.889201
O410	O	0.943644	-0.019679	-0.639201
O411	O	1.193644	0.230321	-0.389201
O412	O	1.443644	0.480321	-0.139201
C413	C	0.722079	-0.245261	-0.806345
C414	C	0.972079	0.004739	-0.556345
C415	C	1.222079	0.254739	-0.306345
C416	C	1.472079	0.504739	-0.056345
C417	C	0.755530	-0.216555	-0.779027
C418	C	1.005530	0.033445	-0.529027
C419	C	1.255530	0.283445	-0.279027
C420	C	1.505530	0.533445	-0.029027
C421	C	0.822448	-0.159154	-0.778991
C422	C	1.072448	0.090846	-0.528991
C423	C	1.322448	0.340846	-0.278991
C424	C	1.572448	0.590846	-0.028991
C425	C	0.822427	-0.159148	-0.724391
C426	C	1.072427	0.090852	-0.474391
C427	C	1.322427	0.340852	-0.224391
C428	C	1.572427	0.590852	0.025609
C429	C	0.788957	-0.187845	-0.697109
C430	C	1.038957	0.062155	-0.447109
C431	C	1.288957	0.312155	-0.197109
C432	C	1.538957	0.562155	0.052891
C433	C	0.755509	-0.216548	-0.724427
C434	C	1.005509	0.033452	-0.474427
C435	C	1.255509	0.283452	-0.224427
C436	C	1.505509	0.533452	0.025573
C437	C	0.688611	-0.273963	-0.779060
C438	C	0.938611	-0.023963	-0.529060
C439	C	1.188611	0.226037	-0.279060
C440	C	1.438611	0.476037	-0.029060
C441	C	0.688597	-0.273957	-0.724453
C442	C	0.938597	-0.023957	-0.474453
C443	C	1.188597	0.226043	-0.224453
C444	C	1.438597	0.476043	0.025547
C445	C	0.722047	-0.245251	-0.697135
C446	C	0.972047	0.004749	-0.447135
C447	C	1.222047	0.254749	-0.197135
C448	C	1.472047	0.504749	0.052865
C449	C	0.722018	-0.245239	-0.642544
C450	C	0.972018	0.004761	-0.392544
C451	C	1.222018	0.254761	-0.142544
C452	C	1.472018	0.504761	0.107456
N453	N	0.755470	-0.216538	-0.615223
N454	N	1.005470	0.033462	-0.365223
N455	N	1.255470	0.283462	-0.115223
N456	N	1.505470	0.533462	0.134777
C457	C	0.788940	-0.187841	-0.642505
C458	C	1.038940	0.062159	-0.392505
C459	C	1.288940	0.312159	-0.142505
C460	C	1.538940	0.562159	0.107495
C461	C	0.722135	-0.245272	-0.975619
C462	C	0.972135	0.004728	-0.725619
C463	C	1.222135	0.254728	-0.475619
C464	C	1.472135	0.504728	-0.225619
C465	C	0.722150	-0.245274	-1.030222
C466	C	0.972150	0.004726	-0.780222
C467	C	1.222150	0.254726	-0.530222
C468	C	1.472150	0.504726	-0.280222
C469	C	0.789074	-0.187873	-1.030183
C470	C	1.039074	0.062127	-0.780183
C471	C	1.289074	0.312127	-0.530183
C472	C	1.539074	0.562127	-0.280183
C473	C	0.789057	-0.187869	-0.975580
C474	C	1.039057	0.062131	-0.725580
C475	C	1.289057	0.312131	-0.475580
C476	C	1.539057	0.562131	-0.225580
C477	C	0.755588	-0.216571	-0.948298
C478	C	1.005588	0.033429	-0.698298
C479	C	1.255588	0.283429	-0.448298
C480	C	1.505588	0.533429	-0.198298
C481	C	0.788893	-0.187829	-0.527840
C482	C	1.038893	0.062171	-0.277840
C483	C	1.288893	0.312171	-0.027840
C484	C	1.538893	0.562171	0.222160
C485	C	0.788867	-0.187824	-0.473235
C486	C	1.038867	0.062176	-0.223235
C487	C	1.288867	0.312176	0.026765
C488	C	1.538867	0.562176	0.276765
C489	C	0.721945	-0.245226	-0.473278
C490	C	0.971945	0.004774	-0.223278
C491	C	1.221945	0.254774	0.026722
C492	C	1.471945	0.504774	0.276722
C493	C	0.721968	-0.245230	-0.527879
C494	C	0.971968	0.004770	-0.277879
C495	C	1.221968	0.254770	-0.027879
C496	C	1.471968	0.504770	0.222121
C497	C	0.755447	-0.216530	-0.555158
C498	C	1.005447	0.033470	-0.305158
C499	C	1.255447	0.283470	-0.055158
C500	C	1.505447	0.533470	0.194842
O501	O	0.693556	-0.269621	-0.614278
O502	O	0.943556	-0.019621	-0.364278
O503	O	1.193556	0.230379	-0.114278
O504	O	1.443556	0.480379	0.135722
O505	O	0.817392	-0.163436	-0.614246
O506	O	1.067392	0.086564	-0.364246
O507	O	1.317392	0.336564	-0.114246
O508	O	1.567392	0.586564	0.135754
C509	C	0.755578	-0.216566	-0.115623
C510	C	1.005578	0.033434	0.134377
C511	C	1.255578	0.283434	0.384377
C512	C	1.505578	0.533434	0.634377
C513	C	0.755621	-0.216579	-0.057509
C514	C	1.005621	0.033421	0.192491
C515	C	1.255621	0.283421	0.442491
C516	C	1.505621	0.533421	0.692491
H517	H	-0.044962	-0.164541	-0.191270
H518	H	0.205038	0.085459	0.058730
H519	H	0.455038	0.335459	0.308730
H520	H	0.705038	0.585459	0.558730
Cl521	Cl	0.317350	-0.123122	-0.142910
Cl522	Cl	0.567350	0.126878	0.107090
Cl523	Cl	0.817350	0.376878	0.357090
Cl524	Cl	1.067350	0.626878	0.607090
Cl525	Cl	0.066178	-0.151828	-0.176418
Cl526	Cl	0.316178	0.098172	0.073582
Cl527	Cl	0.566178	0.348172	0.323582
Cl528	Cl	0.816178	0.598172	0.573582
Cl529	Cl	0.194127	-0.123138	-0.142918
Cl530	Cl	0.444127	0.126862	0.107082
Cl531	Cl	0.694127	0.376862	0.357082
Cl532	Cl	0.944127	0.626862	0.607082
Cl533	Cl	0.831110	-0.950036	-0.176378
Cl534	Cl	1.081110	-0.700036	0.073622
Cl535	Cl	1.331110	-0.450036	0.323622
Cl536	Cl	1.581110	-0.200036	0.573622
Cl537	Cl	0.194109	-0.309976	-0.361064
Cl538	Cl	0.444109	-0.059976	-0.111064
Cl539	Cl	0.694109	0.190024	0.138936
Cl540	Cl	0.944109	0.440024	0.388936
H541	H	0.457385	-0.164483	-0.191222
H542	H	0.707385	0.085517	0.058778
H543	H	0.957385	0.335517	0.308778
H544	H	1.207385	0.585517	0.558778
Cl545	Cl	0.864535	-0.734221	-0.142993
Cl546	Cl	1.114535	-0.484221	0.107007
Cl547	Cl	1.364535	-0.234221	0.357007
Cl548	Cl	1.614535	0.015779	0.607007
Cl549	Cl	0.646561	-0.310059	-0.813390
Cl550	Cl	0.896561	-0.060059	-0.563390
Cl551	Cl	1.146561	0.189941	-0.313390
Cl552	Cl	1.396561	0.439941	-0.063390
Cl553	Cl	0.680089	-0.281358	-1.064558
Cl554	Cl	0.930089	-0.031358	-0.814558
Cl555	Cl	1.180089	0.218642	-0.564558
Cl556	Cl	1.430089	0.468642	-0.314558
H557	H	0.849721	-0.829722	-0.157780
H558	H	1.099721	-0.579722	0.092220
H559	H	1.349721	-0.329722	0.342220
H560	H	1.599721	-0.079722	0.592220
H561	H	0.054098	-0.268596	-0.312778
H562	H	0.304098	-0.018596	-0.062778
H563	H	0.554098	0.231404	0.187222
H564	H	0.804098	0.481404	0.437222
H565	H	0.694859	-0.960392	-0.312495
H566	H	0.944859	-0.710392	-0.062495
H567	H	1.194859	-0.460392	0.187505
H568	H	1.444859	-0.210392	0.437505
Cl569	Cl	0.317339	-0.309962	-0.361062
Cl570	Cl	0.567339	-0.059962	-0.111062
Cl571	Cl	0.817339	0.190038	0.138938
Cl572	Cl	1.067339	0.440038	0.388938
Cl573	Cl	0.680051	-0.281354	-0.941328
Cl574	Cl	0.930051	-0.031354	-0.691328
Cl575	Cl	1.180051	0.218646	-0.441328
Cl576	Cl	1.430051	0.468646	-0.191328
H577	H	0.556450	-0.164473	-0.191220
H578	H	0.806450	0.085527	0.058780
H579	H	1.056450	0.335527	0.308780
H580	H	1.306450	0.585527	0.558780
H581	H	0.849707	-0.688963	-0.157813
H582	H	1.099707	-0.438963	0.092187
H583	H	1.349707	-0.188963	0.342187
H584	H	1.599707	0.061037	0.592187
H585	H	0.816296	-0.164495	-0.953341
H586	H	1.066296	0.085505	-0.703341
H587	H	1.316296	0.335505	-0.453341
H588	H	1.566296	0.585505	-0.203341
Cl589	Cl	0.680060	-1.055884	-0.327285
Cl590	Cl	0.930060	-0.805884	-0.077285
Cl591	Cl	1.180060	-0.555884	0.172715
Cl592	Cl	1.430060	-0.305884	0.422715
Cl593	Cl	0.568526	-0.281232	-0.327574
Cl594	Cl	0.818526	-0.031232	-0.077574
Cl595	Cl	1.068526	0.218768	0.172426
Cl596	Cl	1.318526	0.468768	0.422426
H597	H	0.661348	-0.688905	-0.345982
H598	H	0.911348	-0.438905	-0.095982
H599	H	1.161348	-0.188905	0.154018
H600	H	1.411348	0.061095	0.404018
H601	H	0.661343	-0.297331	-0.702243
H602	H	0.911343	-0.047331	-0.452243
H603	H	1.161343	0.202669	-0.202243
H604	H	1.411343	0.452669	0.047757
H605	H	0.816296	-1.045542	-0.191163
H606	H	1.066296	-0.795542	0.058837
H607	H	1.316296	-0.545542	0.308837
H608	H	1.566296	-0.295542	0.558837
Cl609	Cl	0.679964	-0.377593	-0.327447
Cl610	Cl	0.929964	-0.127593	-0.077447
Cl611	Cl	1.179964	0.122407	0.172553
Cl612	Cl	1.429964	0.372407	0.422553
H613	H	0.661331	-0.603797	-0.345993
H614	H	0.911331	-0.353797	-0.095993
H615	H	1.161331	-0.103797	0.154007
H616	H	1.411331	0.146203	0.404007
Cl617	Cl	-0.057062	-0.281304	-0.327620
Cl618	Cl	0.192938	-0.031304	-0.077620
Cl619	Cl	0.442938	0.218696	0.172380
Cl620	Cl	0.692938	0.468696	0.422380
Cl621	Cl	0.445296	-0.281256	-0.327576
Cl622	Cl	0.695296	-0.031256	-0.077576
Cl623	Cl	0.945296	0.218744	0.172424
Cl624	Cl	1.195296	0.468744	0.422424
H625	H	0.661378	-0.829660	-0.345948
H626	H	0.911378	-0.579660	-0.095948
H627	H	1.161378	-0.329660	0.154052
H628	H	1.411378	-0.079660	0.404052
Cl629	Cl	0.831032	-0.377640	-0.176530
Cl630	Cl	1.081032	-0.127640	0.073470
Cl631	Cl	1.331032	0.122360	0.323470
Cl632	Cl	1.581032	0.372360	0.573470
Cl633	Cl	0.646544	-0.734163	-0.360779
Cl634	Cl	0.896544	-0.484163	-0.110779
Cl635	Cl	1.146544	-0.234163	0.139221
Cl636	Cl	1.396544	0.015837	0.389221
Cl637	Cl	0.830923	-0.151733	-0.438895
Cl638	Cl	1.080923	0.098267	-0.188895
Cl639	Cl	1.330923	0.348267	0.061105
Cl640	Cl	1.580923	0.598267	0.311105
Cl641	Cl	0.830979	-0.151748	-0.562126
Cl642	Cl	1.080979	0.098252	-0.312126
Cl643	Cl	1.330979	0.348252	-0.062126
Cl644	Cl	1.580979	0.598252	0.187874
Cl645	Cl	0.864490	-0.123065	-0.690056
Cl646	Cl	1.114490	0.126935	-0.440056
Cl647	Cl	1.364490	0.376935	-0.190056
Cl648	Cl	1.614490	0.626935	0.059944
H649	H	0.816329	-0.164508	-1.052406
H650	H	1.066329	0.085492	-0.802406
H651	H	1.316329	0.335492	-0.552406
H652	H	1.566329	0.585492	-0.302406
H653	H	0.849706	-0.135786	-0.801199
H654	H	1.099706	0.114214	-0.551199
H655	H	1.349706	0.364214	-0.301199
H656	H	1.599706	0.614214	-0.051199
H657	H	0.816218	-0.473134	-0.191299
H658	H	1.066218	-0.223134	0.058701
H659	H	1.316218	0.026866	0.308701
H660	H	1.566218	0.276866	0.558701
Cl661	Cl	0.679874	-0.281303	-0.438970
Cl662	Cl	0.929874	-0.031303	-0.188970
Cl663	Cl	1.179874	0.218697	0.061030
Cl664	Cl	1.429874	0.468697	0.311030
Cl665	Cl	0.864518	-0.593474	-0.143031
Cl666	Cl	1.114518	-0.343474	0.106969
Cl667	Cl	1.364518	-0.093474	0.356969
Cl668	Cl	1.614518	0.156526	0.606969
Cl669	Cl	0.679976	-0.483497	-0.327424
Cl670	Cl	0.929976	-0.233497	-0.077424
Cl671	Cl	1.179976	0.016503	0.172576
Cl672	Cl	1.429976	0.266503	0.422576
Cl673	Cl	0.679905	-0.281309	-0.562223
Cl674	Cl	0.929905	-0.031309	-0.312223
Cl675	Cl	1.179905	0.218691	-0.062223
Cl676	Cl	1.429905	0.468691	0.187777
