data_functionalizedCrystal
_audit_creation_method	'MofGen! by Chris Wilmer'
_symmetry_space_group_name_H-M	'P1'
_symmetry_Int_Tables_number	1
_symmetry_cell_setting	triclinic
loop_
_symmetry_equiv_pos_as_xyz
  x,y,z
_cell_length_a	14.044202
_cell_length_b	13.101039
_cell_length_c	14.044220
_cell_angle_alpha	86.332523
_cell_angle_beta	93.190789
_cell_angle_gamma	93.662388
loop_
_atom_site_label
_atom_site_type_symbol
_atom_site_fract_x
_atom_site_fract_y
_atom_site_fract_z
O1	O	-1.281976	-0.085167	-0.225388
O2	O	-0.781976	0.414833	0.274612
O3	O	-1.005304	-0.085180	-0.217072
O4	O	-0.505304	0.414820	0.282928
O5	O	-1.139487	-0.085164	-0.082895
O6	O	-0.639487	0.414836	0.417105
O7	O	-1.147793	-0.085184	-0.359565
O8	O	-0.647793	0.414816	0.140435
O9	O	-1.129861	0.085265	-0.092539
O10	O	-0.629861	0.585265	0.407461
O11	O	-0.995678	0.085248	-0.226717
O12	O	-0.495678	0.585248	0.273283
O13	O	-1.272350	0.085262	-0.235032
O14	O	-0.772350	0.585262	0.264968
Zn15	Zn	-1.132486	0.112314	-0.232406
Zn16	Zn	-0.632486	0.612314	0.267594
Zn17	Zn	-1.145168	-0.112233	-0.219699
Zn18	Zn	-0.645168	0.387767	0.280301
O19	O	-1.138167	0.085245	-0.369210
O20	O	-0.638167	0.585245	0.130790
C21	C	-0.964869	0.000032	-0.218257
C22	C	-0.464869	0.500032	0.281743
C23	C	-0.858727	0.000028	-0.207409
C24	C	-0.358727	0.500028	0.292591
N25	N	-1.123837	0.265562	-0.241078
N26	N	-0.623837	0.765562	0.258922
N27	N	-1.153824	-0.265480	-0.211020
N28	N	-0.653824	0.234520	0.288980
C29	C	-0.613268	0.000033	-0.264508
C30	C	-0.113268	0.500033	0.235492
C31	C	-0.664393	0.000037	-0.187592
C32	C	-0.164393	0.500037	0.312408
C33	C	-0.772530	0.000032	-0.198621
C34	C	-0.272530	0.500032	0.301379
C35	C	-0.505121	0.000039	-0.253481
C36	C	-0.005121	0.500039	0.246519
C37	C	-0.312785	0.000046	-0.233845
C38	C	0.187215	0.500046	0.266155
C39	C	-0.418928	0.000043	-0.244687
C40	C	0.081072	0.500043	0.255313
C41	C	-1.131038	0.000051	-0.052095
C42	C	-0.631038	0.500051	0.447905
C43	C	-1.120193	0.000051	0.054048
C44	C	-0.620193	0.500051	0.554048
C45	C	-1.112071	0.474603	-0.252886
C46	C	-0.612071	0.974603	0.247114
C47	C	-1.165587	0.525485	-0.199215
C48	C	-0.665587	1.025485	0.300785
C49	C	-1.159040	0.641803	-0.205785
C50	C	-0.659040	1.141803	0.294215
C51	C	-1.118617	0.358275	-0.246317
C52	C	-0.618617	0.858275	0.253683
C53	C	-1.146616	0.000028	-0.400009
C54	C	-0.646616	0.500028	0.099991
C55	C	-1.157461	0.000021	-0.506152
C56	C	-0.657461	0.500021	-0.006152
C57	C	-1.100368	0.000036	0.248387
C58	C	-0.600368	0.500036	0.748387
C59	C	-1.177282	0.000036	0.299515
C60	C	-0.677282	0.500036	0.799515
C61	C	-1.166251	0.000028	0.407652
C62	C	-0.666251	0.500028	0.907652
C63	C	-1.111398	0.000045	0.140240
C64	C	-0.611398	0.500045	0.640240
H65	H	-0.626953	-0.000030	-0.113456
H66	H	-0.126953	0.499970	0.386544
N67	N	-1.232803	0.467480	-0.131826
N68	N	-0.732803	0.967480	0.368174
H69	H	-1.267610	0.517646	-0.096925
H70	H	-0.767610	1.017646	0.403075
H71	H	-1.195086	0.422965	-0.084093
H72	H	-0.695086	0.922965	0.415907
H73	H	-1.251420	-0.000029	0.262077
H74	H	-0.751420	0.499971	0.762077
H75	H	-0.650710	0.000025	-0.338634
H76	H	-0.150710	0.500025	0.161366
N77	N	-1.044871	0.532604	-0.320283
N78	N	-0.544871	1.032604	0.179717
H79	H	-1.049664	0.608679	-0.315481
H80	H	-0.549664	1.108679	0.184519
H81	H	-1.062779	0.513913	-0.387890
H82	H	-0.562779	1.013913	0.112110
H83	H	-1.026240	0.000030	0.285827
H84	H	-0.526240	0.500030	0.785827
