data_functionalizedCrystal
_audit_creation_method	'MofGen! by Chris Wilmer'
_symmetry_space_group_name_H-M	'P1'
_symmetry_Int_Tables_number	1
_symmetry_cell_setting	triclinic
loop_
_symmetry_equiv_pos_as_xyz
  x,y,z
_cell_length_a	11.792241
_cell_length_b	10.654541
_cell_length_c	9.730217
_cell_angle_alpha	90.000068
_cell_angle_beta	89.996588
_cell_angle_gamma	95.661328
loop_
_atom_site_label
_atom_site_type_symbol
_atom_site_fract_x
_atom_site_fract_y
_atom_site_fract_z
O1	O	0.159405	-1.667388	-0.114248
O2	O	0.174596	-1.301866	-0.114261
O3	O	0.001850	-1.493497	-0.114245
O4	O	0.332151	-1.475756	-0.114264
O5	O	0.001849	-1.493491	0.114336
O6	O	0.174595	-1.301860	0.114320
O7	O	0.159403	-1.667382	0.114332
Zn8	Zn	0.166999	-1.484620	0.150618
Zn9	Zn	0.167001	-1.484628	-0.150547
O10	O	0.332149	-1.475750	0.114316
C11	C	0.173481	-1.255068	0.000028
C12	C	0.170145	-1.115634	0.000024
N13	N	0.166997	-1.484624	0.356154
C14	C	-0.040444	-1.492380	0.000045
C15	C	-0.166465	-1.489044	0.000044
C16	C	-0.397192	-1.482911	0.000020
C17	C	-0.268799	-1.486319	0.000033
C18	C	0.374443	-1.476868	0.000023
C19	C	0.500465	-1.480203	0.000015
C20	C	0.160519	-1.714180	0.000040
C21	C	0.163854	-1.853614	0.000035
C22	C	0.376710	-1.087078	-0.000006
C23	C	0.478420	-1.007297	-0.000026
C24	C	0.475279	-0.876287	-0.000027
C25	C	0.370416	-0.825059	-0.000004
C26	C	0.268706	-0.904841	0.000016
C27	C	0.271858	-1.035851	0.000013
C28	C	0.062144	-0.933396	0.000056
C29	C	0.065282	-1.064405	0.000047
C30	C	-0.042719	-0.882167	0.000079
C31	C	-0.144432	-0.961949	0.000089
C32	C	-0.141286	-1.092966	0.000089
C33	C	-0.036428	-1.144187	0.000067
N34	N	0.166994	-1.484634	-0.356083
C35	C	0.014075	-1.654383	0.356159
C36	C	-0.062382	-1.739271	0.428101
C37	C	-0.062383	-1.739283	0.571981
C38	C	0.014080	-1.654397	0.643922
C39	C	0.090537	-1.569509	0.571979
C40	C	0.090532	-1.569508	0.428096
C41	C	0.243451	-1.399746	0.571975
C42	C	0.243459	-1.399737	0.428095
C43	C	0.319914	-1.314859	0.643916
C44	C	0.396379	-1.229975	0.571973
C45	C	0.396377	-1.229966	0.428085
C46	C	0.319917	-1.314849	0.356153
H47	H	0.563797	-1.049022	-0.000041
H48	H	-0.229803	-0.920227	0.000107
H49	H	-0.224112	-1.157918	0.000111
C50	C	0.479203	-1.137758	0.650258
C51	C	0.418080	-1.060507	0.732886
C52	C	0.494340	-0.975554	0.805041
H53	H	0.524776	-1.087080	0.586970
H54	H	0.526813	-1.183218	0.706466
H55	H	0.370489	-1.015051	0.676683
H56	H	0.372510	-1.111151	0.796200
H57	H	0.541950	-1.021014	0.861250
H58	H	0.539909	-0.924884	0.741744
H59	H	0.452879	-0.923137	0.861123
C60	C	0.319780	-1.315108	0.800128
C61	C	0.236481	-1.407640	0.847739
C62	C	0.236341	-1.407918	0.991635
H63	H	0.303520	-1.234822	0.832860
H64	H	0.392454	-1.332839	0.832712
H65	H	0.163824	-1.389901	0.815170
H66	H	0.252723	-1.487940	0.815045
H67	H	0.309015	-1.425649	1.024218
H68	H	0.220083	-1.327627	1.024353
H69	H	0.179832	-1.470707	1.023957
C70	C	0.585830	-0.789869	-0.000122
C71	C	0.678337	-0.862764	-0.000173
C72	C	0.780192	-0.783200	-0.000280
H73	H	0.589062	-0.738137	0.079564
H74	H	0.588947	-0.738192	-0.079868
H75	H	0.675221	-0.914419	0.079565
H76	H	0.675142	-0.914494	-0.079853
H77	H	0.783309	-0.731523	-0.080027
H78	H	0.783412	-0.731472	0.079407
H79	H	0.842969	-0.832647	-0.000328
C80	C	-0.145393	-1.831265	0.349778
C81	C	-0.215433	-1.763958	0.267112
C82	C	-0.291880	-1.848673	0.194916
H83	H	-0.191041	-1.881890	0.413041
H84	H	-0.104086	-1.883753	0.293592
H85	H	-0.256736	-1.711492	0.323293
H86	H	-0.169816	-1.713337	0.203823
H87	H	-0.250573	-1.901161	0.138730
H88	H	-0.337520	-1.899293	0.258189
H89	H	-0.339404	-1.803018	0.138810
C90	C	-0.145449	-1.831577	0.649850
C91	C	-0.212399	-1.905930	0.556062
C92	C	-0.288924	-1.990971	0.627744
H93	H	-0.193182	-1.786227	0.705989
H94	H	-0.104205	-1.884199	0.705943
H95	H	-0.253640	-1.853315	0.499992
H96	H	-0.164698	-1.951307	0.499920
H97	H	-0.247680	-2.043592	0.683837
H98	H	-0.336649	-1.945610	0.683880
H99	H	-0.334352	-2.041437	0.564120
H100	H	0.014077	-1.654391	0.239004
H101	H	-0.045269	-0.775491	0.000086
C102	C	0.479518	-1.137744	0.350229
C103	C	0.546491	-1.063436	0.444033
C104	C	0.623104	-0.978478	0.372369
H105	H	0.438377	-1.085076	0.294100
H106	H	0.527218	-1.183197	0.294127
H107	H	0.498797	-1.017986	0.500111
H108	H	0.587657	-1.116070	0.500165
H109	H	0.670804	-1.023930	0.316267
H110	H	0.581953	-0.925818	0.316243
H111	H	0.668561	-0.928057	0.436004
H112	H	-0.033857	-1.250860	0.000051
H113	H	0.014065	-1.654402	0.761076
H114	H	0.379277	-1.193752	-0.000035
H115	H	0.367868	-0.718383	0.000012
H116	H	0.319913	-1.314854	0.238998
