data_functionalizedCrystal
_audit_creation_method	'MofGen! by Chris Wilmer'
_symmetry_space_group_name_H-M	'P1'
_symmetry_Int_Tables_number	1
_symmetry_cell_setting	triclinic
loop_
_symmetry_equiv_pos_as_xyz
  x,y,z
_cell_length_a	23.532407
_cell_length_b	23.532407
_cell_length_c	16.176319
_cell_angle_alpha	90.011464
_cell_angle_beta	90.002085
_cell_angle_gamma	82.848678
loop_
_atom_site_label
_atom_site_type_symbol
_atom_site_fract_x
_atom_site_fract_y
_atom_site_fract_z
O1	O	0.755262	0.069136	0.068652
O2	O	1.255262	0.569136	0.568652
O3	O	0.589398	0.079139	0.068677
O4	O	1.089398	0.579139	0.568677
O5	O	0.677332	-0.008794	0.068649
O6	O	1.177332	0.491206	0.568649
O7	O	0.667328	0.157070	0.068680
O8	O	1.167328	0.657070	0.568680
O9	O	0.677320	-0.008799	-0.068845
O10	O	1.177320	0.491201	0.431155
O11	O	0.589386	0.079134	-0.068816
O12	O	1.089386	0.579134	0.431184
O13	O	0.755250	0.069131	-0.068841
O14	O	1.255250	0.569131	0.431159
Cu15	Cu	0.672317	0.074132	-0.081383
Cu16	Cu	1.172317	0.574132	0.418617
Cu17	Cu	0.672331	0.074138	0.081219
Cu18	Cu	1.172331	0.574138	0.581219
O19	O	0.667316	0.157064	-0.068813
O20	O	1.167316	0.657064	0.431187
C21	C	0.568176	0.078882	-0.000066
C22	C	1.068176	0.578882	0.499934
C23	C	0.504959	0.078116	-0.000057
C24	C	1.004959	0.578116	0.499943
C25	C	0.105856	0.125350	-0.000086
C26	C	0.605856	0.625350	0.499914
C27	C	0.046456	0.124638	-0.000091
C28	C	0.546456	0.624638	0.499909
O29	O	0.009711	0.168424	-0.000113
O30	O	0.509711	0.668424	0.499887
N31	N	0.023830	0.072362	-0.000100
N32	N	0.523830	0.572362	0.499900
C33	C	0.060607	0.020794	-0.000111
C34	C	0.560607	0.520794	0.499889
O35	O	0.035908	-0.023737	-0.000120
O36	O	0.535908	0.476263	0.499880
C37	C	0.120006	0.021506	-0.000112
C38	C	0.620006	0.521506	0.499888
C39	C	0.142629	0.073785	-0.000095
C40	C	0.642629	0.573785	0.499905
C41	C	0.128479	0.177625	-0.000070
C42	C	0.628479	0.677625	0.499930
C43	C	0.187876	0.178336	-0.000063
C44	C	0.687876	0.678336	0.499937
C45	C	0.224649	0.126772	-0.000072
C46	C	0.724649	0.626772	0.499928
C47	C	0.202025	0.074496	-0.000088
C48	C	0.702025	0.574496	0.499912
C49	C	0.156783	-0.030062	-0.000130
C50	C	0.656783	0.469938	0.499870
C51	C	0.216185	-0.029345	-0.000131
C52	C	0.716185	0.470655	0.499869
C53	C	0.238808	0.022934	-0.000114
C54	C	0.738808	0.522934	0.499886
C55	C	0.298194	0.023643	-0.000091
C56	C	0.798194	0.523643	0.499909
N57	N	0.320820	0.075920	-0.000082
N58	N	0.820820	0.575920	0.499918
C59	C	0.284048	0.127484	-0.000073
C60	C	0.784048	0.627484	0.499927
C61	C	-0.064135	0.019302	-0.000111
C62	C	0.435865	0.519302	0.499889
C63	C	-0.123533	0.018589	-0.000105
C64	C	0.376467	0.518589	0.499895
C65	C	-0.137680	0.122434	-0.000086
C66	C	0.362320	0.622434	0.499914
C67	C	-0.078281	0.123146	-0.000087
C68	C	0.421719	0.623146	0.499913
C69	C	-0.041509	0.071578	-0.000103
C70	C	0.458491	0.571578	0.499897
C71	C	0.408784	0.128974	-0.000058
C72	C	0.908784	0.628974	0.499942
C73	C	0.468186	0.129680	-0.000048
C74	C	0.968186	0.629680	0.499952
C75	C	0.482329	0.025836	-0.000071
C76	C	0.982329	0.525836	0.499929
C77	C	0.422932	0.025129	-0.000077
C78	C	0.922932	0.525129	0.499923
C79	C	0.386160	0.076702	-0.000073
C80	C	0.886160	0.576702	0.499927
O81	O	0.334974	-0.020119	-0.000073
O82	O	0.834974	0.479881	0.499927
O83	O	0.308755	0.172007	-0.000075
O84	O	0.808755	0.672007	0.499925
C85	C	0.677071	-0.030013	-0.000100
C86	C	1.177071	0.469987	0.499900
C87	C	0.676305	-0.093230	-0.000106
C88	C	1.176305	0.406770	0.499894
C89	C	0.776472	0.069388	-0.000096
C90	C	1.276472	0.569388	0.499904
C91	C	0.839689	0.070154	-0.000100
C92	C	1.339689	0.570154	0.499900
C93	C	0.723539	-0.492333	-0.000068
C94	C	1.223539	0.007667	0.499932
C95	C	0.722827	-0.551733	-0.000062
C96	C	1.222827	-0.051733	0.499938
O97	O	0.766613	-0.588478	-0.000038
O98	O	1.266613	-0.088478	0.499962
N99	N	0.670551	-0.574359	-0.000055
N100	N	1.170551	-0.074359	0.499945
C101	C	0.618983	-0.537582	-0.000045
C102	C	1.118983	-0.037582	0.499955
O103	O	0.574452	-0.562281	-0.000037
O104	O	1.074452	-0.062281	0.499963
C105	C	0.619695	-0.478182	-0.000046
C106	C	1.119695	0.021818	0.499954
C107	C	0.671974	-0.455560	-0.000061
C108	C	1.171974	0.044440	0.499939
C109	C	0.775814	-0.469710	-0.000083
C110	C	1.275814	0.030290	0.499917
C111	C	0.776525	-0.410313	-0.000091
C112	C	1.276525	0.089687	0.499909
C113	C	0.724961	-0.373540	-0.000084
C114	C	1.224961	0.126460	0.499916
C115	C	0.672685	-0.396164	-0.000069
C116	C	1.172685	0.103836	0.499931
C117	C	0.568127	-0.441406	-0.000030
C118	C	1.068127	0.058594	0.499970
C119	C	0.568844	-0.382004	-0.000030
C120	C	1.068844	0.117996	0.499970
C121	C	0.621123	-0.359381	-0.000046
C122	C	1.121123	0.140619	0.499954
C123	C	0.621832	-0.299995	-0.000070
C124	C	1.121832	0.200005	0.499930
N125	N	0.674109	-0.277368	-0.000078
N126	N	1.174109	0.222632	0.499922
C127	C	0.725673	-0.314141	-0.000085
C128	C	1.225673	0.185859	0.499915
C129	C	0.617491	-0.662324	-0.000043
C130	C	1.117491	-0.162324	0.499957
C131	C	0.616778	-0.721722	-0.000048
C132	C	1.116778	-0.221722	0.499952
C133	C	0.720623	-0.735869	-0.000063
C134	C	1.220623	-0.235869	0.499937
C135	C	0.721335	-0.676470	-0.000064
C136	C	1.221335	-0.176470	0.499936
C137	C	0.669767	-0.639698	-0.000050
C138	C	1.169767	-0.139698	0.499950
C139	C	0.727163	-0.189405	-0.000102
C140	C	1.227163	0.310595	0.499898
C141	C	0.727869	-0.130003	-0.000113
C142	C	1.227869	0.369997	0.499887
C143	C	0.624025	-0.115860	-0.000094
C144	C	1.124025	0.384140	0.499906
C145	C	0.623318	-0.175257	-0.000087
C146	C	1.123318	0.324743	0.499913
C147	C	0.674891	-0.212029	-0.000088
C148	C	1.174891	0.287971	0.499912
O149	O	0.578070	-0.263215	-0.000091
O150	O	1.078070	0.236785	0.499909
O151	O	0.770196	-0.289433	-0.000081
O152	O	1.270196	0.210567	0.499919
C153	C	0.667577	0.178283	-0.000062
C154	C	1.167577	0.678283	0.499938
C155	C	0.668343	0.241500	-0.000051
C156	C	1.168343	0.741500	0.499949
N157	N	0.672311	0.074127	-0.195748
N158	N	1.172311	0.574127	0.304252
C159	C	0.711260	0.035206	-0.239025
C160	C	1.211260	0.535206	0.260975
C161	C	0.711262	0.035205	-0.325572
C162	C	1.211262	0.535205	0.174428
C163	C	0.672319	0.074129	-0.368841
C164	C	1.172319	0.574129	0.131159
C165	C	0.633367	0.113052	-0.325558
C166	C	1.133367	0.613052	0.174442
C167	C	0.633361	0.113049	-0.239012
C168	C	1.133361	0.613049	0.260988
C169	C	0.633386	0.113062	-0.674586
C170	C	1.133386	0.613062	-0.174586
C171	C	0.633395	0.113063	-0.761138
C172	C	1.133395	0.613063	-0.261138
C173	C	0.711287	0.035218	-0.761146
C174	C	1.211287	0.535218	-0.261146
C175	C	0.711282	0.035216	-0.674600
C176	C	1.211282	0.535216	-0.174600
C177	C	0.672328	0.074136	-0.631325
C178	C	1.172328	0.574136	-0.131325
C179	C	0.672324	0.074136	-0.537481
C180	C	1.172324	0.574136	-0.037481
C181	C	0.672325	0.074132	-0.462683
C182	C	1.172325	0.574132	0.037317
N183	N	0.672342	0.074139	0.195584
N184	N	1.172342	0.574139	0.695584
H185	H	-0.167632	0.164421	-0.000082
H186	H	0.332368	0.664421	0.499918
Cl187	Cl	0.760242	-0.013717	-0.620209
Cl188	Cl	1.260242	0.486283	-0.120209
H189	H	0.742974	0.003512	-0.203801
H190	H	1.242974	0.503512	0.296199
H191	H	0.206289	0.220908	-0.000049
H192	H	0.706289	0.720908	0.499951
H193	H	-0.141947	-0.023982	-0.000106
H194	H	0.358053	0.476018	0.499894
Cl195	Cl	0.528568	-0.038984	-0.000087
Cl196	Cl	1.028568	0.461016	0.499913
H197	H	0.582043	-0.085909	-0.000091
H198	H	1.082043	0.414091	0.499909
H199	H	0.580748	-0.193677	-0.000097
H200	H	1.080748	0.306323	0.499903
Cl201	Cl	0.785447	-0.782109	-0.000066
Cl202	Cl	1.285447	-0.282109	0.499934
H203	H	0.601669	0.144754	-0.639358
H204	H	1.101669	0.644754	-0.139358
H205	H	0.819097	-0.391900	-0.000101
H206	H	1.319097	0.108100	0.499899
H207	H	0.404512	-0.017441	-0.000079
H208	H	0.904512	0.482559	0.499921
Cl209	Cl	0.551053	-0.750154	-0.000044
Cl210	Cl	1.051053	-0.250154	0.499956
Cl211	Cl	0.760226	-0.013726	-0.379979
Cl212	Cl	1.260226	0.486274	0.120021
Cl213	Cl	0.584406	0.161983	-0.379951
Cl214	Cl	1.084406	0.661983	0.120049
Cl215	Cl	0.840647	-0.515929	-0.000093
Cl216	Cl	1.340647	-0.015929	0.499907
H217	H	0.601645	0.144742	-0.203777
H218	H	1.101645	0.644742	0.296223
Cl219	Cl	0.791999	-0.235622	-0.000105
Cl220	Cl	1.291999	0.264378	0.499895
Cl221	Cl	0.496622	0.195408	-0.000024
Cl222	Cl	0.996622	0.695408	0.499976
Cl223	Cl	0.760257	-0.013714	-0.815554
Cl224	Cl	1.260257	0.486286	-0.315554
Cl225	Cl	0.584433	0.161999	-0.815532
Cl226	Cl	1.084433	0.661999	-0.315532
H227	H	0.378851	0.170970	-0.000058
H228	H	0.878851	0.670970	0.499942
Cl229	Cl	0.552656	-0.616101	-0.000035
Cl230	Cl	1.052656	-0.116101	0.499965
Cl231	Cl	-0.049848	0.188872	-0.000068
Cl232	Cl	0.450152	0.688872	0.499932
Cl233	Cl	-0.017912	-0.045533	-0.000122
Cl234	Cl	0.482088	0.454467	0.499878
Cl235	Cl	0.082260	0.242458	-0.000056
Cl236	Cl	0.582260	0.742458	0.499944
Cl237	Cl	0.787061	-0.648037	-0.000083
Cl238	Cl	1.287061	-0.148037	0.499917
Cl239	Cl	0.128358	-0.095789	-0.000138
Cl240	Cl	0.628358	0.404211	0.499862
H241	H	0.246123	-0.071339	-0.000145
H242	H	0.746123	0.428661	0.499855
H243	H	0.526850	-0.352066	-0.000018
H244	H	1.026850	0.147934	0.499982
Cl245	Cl	0.793597	-0.101567	-0.000132
Cl246	Cl	1.293597	0.398433	0.499868
Cl247	Cl	0.502400	-0.469831	-0.000005
Cl248	Cl	1.002400	0.030169	0.499995
