data_functionalizedCrystal
_audit_creation_method	'MofGen! by Chris Wilmer'
_symmetry_space_group_name_H-M	'P1'
_symmetry_Int_Tables_number	1
_symmetry_cell_setting	triclinic
loop_
_symmetry_equiv_pos_as_xyz
  x,y,z
_cell_length_a	15.944545
_cell_length_b	15.944551
_cell_length_c	13.330367
_cell_angle_alpha	89.994404
_cell_angle_beta	89.995231
_cell_angle_gamma	83.497455
loop_
_atom_site_label
_atom_site_type_symbol
_atom_site_fract_x
_atom_site_fract_y
_atom_site_fract_z
O1	O	1.114531	0.108306	-0.083361
O2	O	0.869981	0.121668	-0.083377
O3	O	0.998934	-0.007288	-0.083360
O4	O	0.985578	0.237262	-0.083378
O5	O	0.998915	-0.007291	0.083488
O6	O	0.869962	0.121665	0.083470
O7	O	1.114513	0.108304	0.083486
Cu8	Cu	0.992236	0.114984	0.098713
Cu9	Cu	0.992258	0.114988	-0.098603
O10	O	0.985559	0.237259	0.083469
C11	C	0.838677	0.121113	0.000044
C12	C	0.745431	0.119453	0.000038
C13	C	0.474798	0.034559	0.000055
C14	C	0.525371	0.075487	0.082319
C15	C	0.409787	0.113532	0.000056
C16	C	0.525370	0.075511	-0.082179
C17	C	0.574701	0.116437	0.000046
C18	C	0.459131	0.154438	0.082387
C19	C	0.459127	0.154451	-0.082185
C20	C	0.509667	0.195436	0.000099
C21	C	0.314785	0.111856	0.000063
C22	C	0.669700	0.118119	0.000046
C23	C	0.998370	-0.038583	0.000064
C24	C	0.996708	-0.131829	0.000065
C25	C	0.912803	-0.346684	0.000045
C26	C	0.951757	-0.407703	0.082314
C27	C	0.993701	-0.302555	0.000057
C28	C	0.951794	-0.407684	-0.082185
C29	C	0.990790	-0.467468	0.000045
C30	C	1.032676	-0.362346	0.082393
C31	C	1.032702	-0.362321	-0.082179
C32	C	1.071715	-0.423322	0.000109
C33	C	0.995375	-0.207553	0.000064
C34	C	0.989122	-0.562469	0.000044
C35	C	1.145816	0.108859	0.000063
C36	C	1.239062	0.110519	0.000062
C37	C	0.986123	0.268555	0.000043
C38	C	0.987785	0.361801	0.000036
N39	N	0.992226	0.114981	0.237494
N40	N	0.992274	0.114984	-0.237385
C41	C	0.935155	0.172067	0.710109
C42	C	1.049383	0.057902	0.710093
C43	C	1.049374	0.057899	0.605074
C44	C	0.992255	0.114982	0.552569
C45	C	0.935145	0.172068	0.605081
C46	C	1.106488	0.000820	0.552554
C47	C	1.106482	0.000816	0.447529
C48	C	1.049358	0.057896	0.395022
C49	C	0.992245	0.114983	0.447541
C50	C	0.935126	0.172066	0.395035
C51	C	0.878009	0.229150	0.447552
C52	C	0.878021	0.229147	0.552573
C53	C	1.049345	0.057898	0.290000
C54	C	0.935117	0.172067	0.290007
H55	H	0.430189	0.187775	-0.151740
H56	H	0.831519	0.275624	0.595339
H57	H	0.525159	0.263501	0.000142
Cl58	Cl	0.863301	0.243828	0.224008
H59	H	1.066856	-0.342358	0.152021
H60	H	1.138922	-0.456483	0.000160
Cl61	Cl	0.806210	0.300914	0.381533
H62	H	0.917533	-0.427812	0.151860
H63	H	0.554295	0.042146	-0.151722
Cl64	Cl	0.809133	-0.295257	0.000158
H65	H	1.066897	-0.342190	-0.151730
Cl66	Cl	0.414645	0.205891	0.189881
Cl67	Cl	1.121193	-0.013852	0.776097
H68	H	0.917575	-0.427759	-0.151741
Cl69	Cl	0.863350	0.243823	0.776125
Cl70	Cl	0.450626	-0.070444	0.000183
H71	H	1.152997	-0.045651	0.595308
Cl72	Cl	1.178281	-0.070947	0.381515
H73	H	0.554294	0.042133	0.151872
Cl74	Cl	1.121149	-0.013854	0.223985
