data_functionalizedCrystal
_audit_creation_method	'MofGen! by Chris Wilmer'
_symmetry_space_group_name_H-M	'P1'
_symmetry_Int_Tables_number	1
_symmetry_cell_setting	triclinic
loop_
_symmetry_equiv_pos_as_xyz
  x,y,z
_cell_length_a	19.188929
_cell_length_b	19.188925
_cell_length_c	9.798715
_cell_angle_alpha	90.004381
_cell_angle_beta	89.975087
_cell_angle_gamma	96.856335
loop_
_atom_site_label
_atom_site_type_symbol
_atom_site_fract_x
_atom_site_fract_y
_atom_site_fract_z
O1	O	-0.087148	0.926146	0.113585
O2	O	0.412852	1.426146	0.613585
O3	O	-0.098886	0.722834	0.113590
O4	O	0.401114	1.222834	0.613590
O5	O	0.008639	0.830358	0.113503
O6	O	0.508639	1.330358	0.613503
O7	O	-0.194673	0.818623	0.113672
O8	O	0.305327	1.318623	0.613672
O9	O	0.008639	0.830350	-0.113479
O10	O	0.508639	1.330350	0.386521
O11	O	-0.098886	0.722827	-0.113392
O12	O	0.401114	1.222827	0.386608
O13	O	-0.087148	0.926139	-0.113397
O14	O	0.412852	1.426139	0.386603
Zn15	Zn	-0.093017	0.824482	-0.149433
Zn16	Zn	0.406983	1.324482	0.350567
Zn17	Zn	-0.093017	0.824492	0.149626
Zn18	Zn	0.406983	1.324492	0.649626
O19	O	-0.194673	0.818616	-0.113310
O20	O	0.305327	1.318616	0.386690
C21	C	-0.098507	0.696820	0.000098
C22	C	0.401493	1.196820	0.500098
C23	C	-0.097367	0.619315	0.000096
C24	C	0.402633	1.119315	0.500096
C25	C	-0.152831	0.057545	0.000145
C26	C	0.347169	0.557545	0.500145
C27	C	-0.153908	0.130368	0.000154
C28	C	0.346092	0.630368	0.500154
C29	C	-0.090816	0.175302	0.000099
C30	C	0.409184	0.675302	0.500099
C31	C	-0.026642	0.147408	0.000070
C32	C	0.473358	0.647408	0.500070
C33	C	-0.025568	0.074586	0.000076
C34	C	0.474432	0.574586	0.500076
N35	N	-0.045139	0.295977	-0.077206
N36	N	0.454861	0.795977	0.422794
N37	N	-0.046165	0.365154	-0.077214
N38	N	0.453835	0.865154	0.422786
C39	C	-0.094050	0.394712	0.000085
C40	C	0.405950	0.894712	0.500085
N41	N	-0.140882	0.352477	0.077375
N42	N	0.359118	0.852477	0.577375
N43	N	-0.139858	0.283293	0.077377
N44	N	0.360142	0.783293	0.577377
C45	C	-0.091974	0.254267	0.000094
C46	C	0.408026	0.754267	0.500094
C47	C	-0.159386	0.501561	0.000132
C48	C	0.340614	1.001561	0.500132
C49	C	-0.160460	0.574385	0.000149
C50	C	0.339540	1.074385	0.500149
C51	C	-0.033193	0.591425	0.000052
C52	C	0.466807	1.091425	0.500052
C53	C	-0.032121	0.518601	0.000049
C54	C	0.467879	1.018601	0.500049
C55	C	-0.095220	0.473673	0.000082
C56	C	0.404780	0.973673	0.500082
C57	C	-0.220684	0.819000	0.000203
C58	C	0.279316	1.319000	0.500203
C59	C	-0.298188	0.820140	0.000268
C60	C	0.201812	1.320140	0.500268
C61	C	-0.343113	0.757049	0.000242
C62	C	0.156887	1.257049	0.500242
C63	C	-0.415937	0.758121	0.000211
C64	C	0.084063	1.258121	0.500211
C65	C	-0.443833	0.822287	0.000179
C66	C	0.056167	1.322287	0.500179
C67	C	-0.398897	0.885386	0.000212
C68	C	0.101103	1.385386	0.500212
C69	C	-0.326075	0.884313	0.000257
C70	C	0.173925	1.384313	0.500257
N71	N	-0.551800	0.871332	-0.077156
N72	N	-0.051800	1.371332	0.422844
N73	N	-0.620978	0.872347	-0.077201
N74	N	-0.120978	1.372347	0.422799
C75	C	-0.663241	0.825525	0.000047
C76	C	-0.163241	1.325525	0.500047
N77	N	-0.633713	0.777639	0.077326
N78	N	-0.133713	1.277639	0.577326
N79	N	-0.564528	0.776622	0.077365
N80	N	-0.064528	1.276622	0.577365
C81	C	-0.522795	0.823458	0.000131
C82	C	-0.022795	1.323458	0.500131
C83	C	-0.787131	0.763592	-0.000010
C84	C	-0.287131	1.263592	0.499990
C85	C	-0.859955	0.764666	-0.000032
C86	C	-0.359955	1.264666	0.499968
C87	C	-0.842914	0.891934	-0.000045
C88	C	-0.342914	1.391934	0.499955
C89	C	-0.770091	0.890857	-0.000009
C90	C	-0.270091	1.390857	0.499991
C91	C	-0.742204	0.826685	0.000002
C92	C	-0.242204	1.326685	0.500002
C93	C	0.034650	0.829974	-0.000007
C94	C	0.534650	1.329974	0.499993
C95	C	0.112154	0.828833	-0.000062
C96	C	0.612154	1.328833	0.499938
C97	C	-0.087527	0.952154	0.000098
C98	C	0.412473	1.452154	0.500098
C99	C	-0.088666	1.029658	0.000109
C100	C	0.411334	1.529658	0.500109
N101	N	-0.093016	0.824480	-0.353532
N102	N	0.406984	1.324480	0.146468
C103	C	-0.052998	0.784243	-0.421376
C104	C	0.447002	1.284243	0.078624
C105	C	-0.052996	0.784253	-0.578539
C106	C	0.447004	1.284253	-0.078539
N107	N	-0.093012	0.824499	0.353726
N108	N	0.406988	1.324499	0.853726
H109	H	0.024728	0.183999	0.000030
H110	H	0.524728	0.683999	0.500030
Br111	Br	-0.305270	0.669958	0.000268
Br112	Br	0.194730	1.169958	0.500268
H113	H	-0.212713	0.597088	0.000189
H114	H	0.287287	1.097088	0.500189
Br115	Br	0.054965	0.480752	0.000011
Br116	Br	0.554965	0.980752	0.500011
Br117	Br	-0.238465	-0.003426	0.000206
Br118	Br	0.261535	0.496574	0.500206
Br119	Br	-0.150115	0.881926	-0.549050
Br120	Br	0.349885	1.381926	-0.049050
H121	H	-0.206160	0.153078	0.000170
H122	H	0.293840	0.653078	0.500170
H123	H	0.026685	0.051883	0.000047
H124	H	0.526685	0.551883	0.500047
Br125	Br	-0.920928	0.679035	-0.000044
Br126	Br	-0.420928	1.179035	0.499956
Br127	Br	-0.880764	0.979018	-0.000068
Br128	Br	-0.380764	1.479018	0.499932
H129	H	0.018178	0.628010	0.000018
H130	H	0.518178	1.128010	0.500018
Br131	Br	0.004117	0.726840	-0.675772
Br132	Br	0.504117	1.226840	-0.175772
Br133	Br	-0.476919	0.672491	0.000173
Br134	Br	0.023081	1.172491	0.500173
H135	H	-0.210765	0.464978	0.000162
H136	H	0.289235	0.964978	0.500162
H137	H	-0.733512	0.942233	0.000004
H138	H	-0.233512	1.442233	0.500004
Br139	Br	-0.749279	0.676503	0.000009
Br140	Br	-0.249279	1.176503	0.500009
Br141	Br	-0.436753	0.972470	0.000184
Br142	Br	0.063247	1.472470	0.500184
H143	H	-0.127279	0.858932	-0.411801
H144	H	0.372721	1.358932	0.088199
Br145	Br	0.004099	0.726806	-0.324272
Br146	Br	0.504099	1.226806	0.175728
H147	H	-0.289496	0.935691	0.000279
H148	H	0.210504	1.435691	0.500279
