data_functionalizedCrystal
_audit_creation_method	'MofGen! by Chris Wilmer'
_symmetry_space_group_name_H-M	'P1'
_symmetry_Int_Tables_number	1
_symmetry_cell_setting	triclinic
loop_
_symmetry_equiv_pos_as_xyz
  x,y,z
_cell_length_a	18.215407
_cell_length_b	10.686685
_cell_length_c	18.215399
_cell_angle_alpha	94.351788
_cell_angle_beta	89.983176
_cell_angle_gamma	85.640488
loop_
_atom_site_label
_atom_site_type_symbol
_atom_site_fract_x
_atom_site_fract_y
_atom_site_fract_z
Zn1	Zn	1.147585	-0.502265	-0.438637
Zn2	Zn	1.397585	-0.252265	-0.188637
Zn3	Zn	1.647585	-0.002265	0.061363
Zn4	Zn	1.897585	0.247735	0.311363
Zn5	Zn	1.156968	-0.713269	-0.325032
Zn6	Zn	1.406968	-0.463269	-0.075032
Zn7	Zn	1.656968	-0.213269	0.174968
Zn8	Zn	1.906968	0.036731	0.424968
Zn9	Zn	1.024527	-0.502315	-0.315587
Zn10	Zn	1.274527	-0.252315	-0.065587
Zn11	Zn	1.524527	-0.002315	0.184413
Zn12	Zn	1.774527	0.247685	0.434413
Zn13	Zn	1.033948	-0.713190	-0.448054
Zn14	Zn	1.283948	-0.463190	-0.198054
Zn15	Zn	1.533948	-0.213190	0.051946
Zn16	Zn	1.783948	0.036810	0.301946
O17	O	1.090757	-0.607759	-0.381828
O18	O	1.340757	-0.357759	-0.131828
O19	O	1.590757	-0.107759	0.118172
O20	O	1.840757	0.142241	0.368172
O21	O	1.251815	-0.530267	-0.423580
O22	O	1.501815	-0.280267	-0.173580
O23	O	1.751815	-0.030267	0.076420
O24	O	2.001815	0.219733	0.326420
O25	O	1.139383	-0.685339	-0.220798
O26	O	1.389383	-0.435339	0.029202
O27	O	1.639383	-0.185339	0.279202
O28	O	1.889383	0.064661	0.529202
O29	O	1.032982	-0.325750	-0.324016
O30	O	1.282982	-0.075750	-0.074016
O31	O	1.532982	0.174250	0.175984
O32	O	1.782982	0.424250	0.425984
O33	O	1.258708	-0.685291	-0.340115
O34	O	1.508708	-0.435291	-0.090115
O35	O	1.758708	-0.185291	0.159885
O36	O	2.008708	0.064709	0.409885
O37	O	1.123392	-0.325713	-0.414421
O38	O	1.373392	-0.075713	-0.164421
O39	O	1.623392	0.174287	0.085579
O40	O	1.873392	0.424287	0.335579
O41	O	1.042079	-0.530352	-0.213858
O42	O	1.292079	-0.280352	0.036142
O43	O	1.542079	-0.030352	0.286142
O44	O	1.792079	0.219648	0.536142
O45	O	0.922792	-0.530276	-0.333147
O46	O	1.172792	-0.280276	-0.083147
O47	O	1.422792	-0.030276	0.166853
O48	O	1.672792	0.219724	0.416853
O49	O	1.049038	-0.685156	-0.549787
O50	O	1.299038	-0.435156	-0.299787
O51	O	1.549038	-0.185156	-0.049787
O52	O	1.799038	0.064844	0.200213
O53	O	0.929713	-0.685205	-0.430470
O54	O	1.179713	-0.435205	-0.180470
O55	O	1.429713	-0.185205	0.069530
O56	O	1.679713	0.064795	0.319530
O57	O	1.132527	-0.530190	-0.542868
O58	O	1.382527	-0.280190	-0.292868
O59	O	1.632527	-0.030190	-0.042868
O60	O	1.882527	0.219810	0.207132
O61	O	1.148518	-0.889816	-0.349245
O62	O	1.398518	-0.639816	-0.099245
O63	O	1.648518	-0.389816	0.150755
O64	O	1.898518	-0.139816	0.400755
O65	O	1.058136	-0.889758	-0.439629
O66	O	1.308136	-0.639758	-0.189629
O67	O	1.558136	-0.389758	0.060371
O68	O	1.808136	-0.139758	0.310371
C69	C	0.899550	-0.607738	-0.381806
C70	C	1.149550	-0.357738	-0.131806
C71	C	1.399550	-0.107738	0.118194
C72	C	1.649550	0.142262	0.368194
C73	C	0.817752	-0.607759	-0.381815
C74	C	1.067752	-0.357759	-0.131815
C75	C	1.317752	-0.107759	0.118185
C76	C	1.567752	0.142241	0.368185
C77	C	1.105387	-0.935566	-0.396500
C78	C	1.355387	-0.685566	-0.146500
C79	C	1.605387	-0.435566	0.103500
C80	C	1.855387	-0.185566	0.353500
C81	C	1.111713	-1.075804	-0.402801
C82	C	1.361713	-0.825804	-0.152801
C83	C	1.611713	-0.575804	0.097199
C84	C	1.861713	-0.325804	0.347199
C85	C	0.633187	-0.688557	-0.432438
C86	C	0.883187	-0.438557	-0.182438
C87	C	1.133187	-0.188557	0.067562
C88	C	1.383187	0.061443	0.317562
C89	C	0.556328	-0.688561	-0.432447
C90	C	0.806328	-0.438561	-0.182447
C91	C	1.056328	-0.188561	0.067553
C92	C	1.306328	0.061439	0.317553
C93	C	0.549080	-0.526984	-0.331235
C94	C	0.799080	-0.276984	-0.081235
C95	C	1.049080	-0.026984	0.168765
C96	C	1.299080	0.223016	0.418765
C97	C	0.625937	-0.526975	-0.331229
C98	C	0.875937	-0.276975	-0.081229
C99	C	1.125937	-0.026975	0.168771
C100	C	1.375937	0.223025	0.418771
C101	C	0.667989	-0.607769	-0.381830
C102	C	0.917989	-0.357769	-0.131830
C103	C	1.167989	-0.107769	0.118170
C104	C	1.417989	0.142231	0.368170
C105	C	0.514273	-0.607782	-0.381845
C106	C	0.764273	-0.357782	-0.131845
C107	C	1.014273	-0.107782	0.118155
C108	C	1.264273	0.142218	0.368155
C109	C	0.430940	-0.607786	-0.381855
C110	C	0.680940	-0.357786	-0.131855
C111	C	0.930940	-0.107786	0.118145
C112	C	1.180940	0.142214	0.368145
C113	C	0.751327	-0.607764	-0.381821
C114	C	1.001327	-0.357764	-0.131821
C115	C	1.251327	-0.107764	0.118179
C116	C	1.501327	0.142236	0.368179
C117	C	1.282711	-0.607782	-0.381850
C118	C	1.532711	-0.357782	-0.131850
C119	C	1.782711	-0.107782	0.118150
C120	C	2.032711	0.142218	0.368150
C121	C	1.364510	-0.607792	-0.381860
C122	C	1.614510	-0.357792	-0.131860
C123	C	1.864510	-0.107792	0.118140
C124	C	2.114510	0.142208	0.368140
C125	C	1.090787	-0.607659	-0.573776
C126	C	1.340787	-0.357659	-0.323776
C127	C	1.590787	-0.107659	-0.073776
C128	C	1.840787	0.142341	0.176224
C129	C	1.090800	-0.607616	-0.655573
C130	C	1.340800	-0.357616	-0.405573
C131	C	1.590800	-0.107616	-0.155573
C132	C	1.840800	0.142384	0.094427
C133	C	1.076090	-0.278672	-0.367114
C134	C	1.326090	-0.028672	-0.117114
C135	C	1.576090	0.221328	0.132886
C136	C	1.826090	0.471328	0.382886
C137	C	1.069839	-0.138435	-0.360844
C138	C	1.319839	0.111565	-0.110844
C139	C	1.569839	0.361565	0.139156
C140	C	1.819839	0.611565	0.389156
C141	C	1.040171	-0.526860	-0.840152
C142	C	1.290171	-0.276860	-0.590152
C143	C	1.540171	-0.026860	-0.340152
C144	C	1.790171	0.223140	-0.090152
C145	C	1.040183	-0.526834	-0.917010
C146	C	1.290183	-0.276834	-0.667010
C147	C	1.540183	-0.026834	-0.417010
C148	C	1.790183	0.223166	-0.167010
C149	C	1.141510	-0.688221	-0.924225
C150	C	1.391510	-0.438221	-0.674225
C151	C	1.641510	-0.188221	-0.424225
C152	C	1.891510	0.061779	-0.174225
C153	C	1.141494	-0.688252	-0.847369
C154	C	1.391494	-0.438252	-0.597369
C155	C	1.641494	-0.188252	-0.347369
C156	C	1.891494	0.061748	-0.097369
C157	C	1.090826	-0.607564	-0.805334
C158	C	1.340826	-0.357564	-0.555334
C159	C	1.590826	-0.107564	-0.305334
C160	C	1.840826	0.142436	-0.055334
C161	C	1.090853	-0.607508	-0.959048
C162	C	1.340853	-0.357508	-0.709048
C163	C	1.590853	-0.107508	-0.459048
C164	C	1.840853	0.142492	-0.209048
C165	C	1.090866	-0.607481	-1.042381
C166	C	1.340866	-0.357481	-0.792381
C167	C	1.590866	-0.107481	-0.542381
C168	C	1.840866	0.142519	-0.292381
C169	C	1.090812	-0.607592	-0.721997
C170	C	1.340812	-0.357592	-0.471997
C171	C	1.590812	-0.107592	-0.221997
C172	C	1.840812	0.142408	0.028003
C173	C	1.090765	-0.607769	-0.190622
C174	C	1.340765	-0.357769	0.059378
C175	C	1.590765	-0.107769	0.309378
C176	C	1.840765	0.142231	0.559378
C177	C	1.090879	-0.607456	-0.108809
C178	C	1.340879	-0.357456	0.141191
C179	C	1.590879	-0.107456	0.391191
C180	C	1.840879	0.142544	0.641191
H181	H	0.667423	-0.754342	-0.473642
H182	H	0.917423	-0.504342	-0.223642
H183	H	1.167423	-0.254342	0.026358
H184	H	1.417423	-0.004342	0.276358
H185	H	0.654273	-0.461179	-0.290018
H186	H	0.904273	-0.211179	-0.040018
H187	H	1.154273	0.038821	0.209982
H188	H	1.404273	0.288821	0.459982
F189	F	0.986262	-0.440951	-0.954063
F190	F	1.236262	-0.190951	-0.704063
F191	F	1.486262	0.059049	-0.454063
F192	F	1.736262	0.309049	-0.204063
F193	F	0.519293	-0.774545	-0.486312
F194	F	0.769293	-0.524545	-0.236312
F195	F	1.019293	-0.274545	0.013688
F196	F	1.269293	-0.024545	0.263688
F197	F	0.986244	-0.440988	-0.795418
F198	F	1.236244	-0.190988	-0.545418
F199	F	1.486244	0.059012	-0.295418
F200	F	1.736244	0.309012	-0.045418
H201	H	0.514832	-0.461207	-0.290037
H202	H	0.764832	-0.211207	-0.040037
H203	H	1.014832	0.038793	0.209963
H204	H	1.264832	0.288793	0.459963
F205	F	1.164902	-1.145944	-0.456046
F206	F	1.414902	-0.895944	-0.206046
F207	F	1.664902	-0.645944	0.043954
F208	F	1.914902	-0.395944	0.293954
F209	F	1.016655	-1.068289	-0.307589
F210	F	1.266655	-0.818289	-0.057589
F211	F	1.516655	-0.568289	0.192411
F212	F	1.766655	-0.318289	0.442411
F213	F	1.195433	-0.774089	-0.968968
F214	F	1.445433	-0.524089	-0.718968
F215	F	1.695433	-0.274089	-0.468968
F216	F	1.945433	-0.024089	-0.218968
F217	F	1.195408	-0.774158	-0.810312
F218	F	1.445408	-0.524158	-0.560312
F219	F	1.695408	-0.274158	-0.310312
F220	F	1.945408	-0.024158	-0.060312
