data_functionalizedCrystal
_audit_creation_method	'MofGen! by Chris Wilmer'
_symmetry_space_group_name_H-M	'P1'
_symmetry_Int_Tables_number	1
_symmetry_cell_setting	triclinic
loop_
_symmetry_equiv_pos_as_xyz
  x,y,z
_cell_length_a	15.995350
_cell_length_b	15.995300
_cell_length_c	9.130313
_cell_angle_alpha	90.003298
_cell_angle_beta	90.003412
_cell_angle_gamma	83.482091
loop_
_atom_site_label
_atom_site_type_symbol
_atom_site_fract_x
_atom_site_fract_y
_atom_site_fract_z
O1	O	1.110961	0.107925	-0.121660
O2	O	0.867184	0.121253	-0.121689
O3	O	0.995758	-0.007301	-0.121681
O4	O	0.982387	0.236480	-0.121668
O5	O	0.995757	-0.007298	0.121918
O6	O	0.867182	0.121257	0.121910
O7	O	1.110960	0.107929	0.121939
Cu8	Cu	0.989071	0.114593	0.144167
Cu9	Cu	0.989073	0.114589	-0.143917
O10	O	0.982385	0.236483	0.121931
C11	C	0.835988	0.120704	0.000107
C12	C	0.743038	0.119052	0.000095
C13	C	0.995212	-0.038495	0.000113
C14	C	0.993577	-0.131448	0.000098
C15	C	0.990558	-0.301631	0.000112
C16	C	1.082105	-0.349096	0.000120
C17	C	1.080435	-0.445784	0.000679
C18	C	0.987586	-0.469187	0.000125
C19	C	0.942165	-0.428051	0.138951
C20	C	0.944481	-0.331417	0.139063
C21	C	0.943128	-0.331146	-0.137965
C22	C	0.943136	-0.428090	-0.139784
C23	C	0.985901	-0.563883	0.000136
C24	C	0.992239	-0.206935	0.000111
C25	C	0.405292	0.113120	0.000126
C26	C	0.452742	0.021566	0.000664
C27	C	0.549432	0.023218	0.000105
C28	C	0.572852	0.116062	0.000112
C29	C	0.531757	0.161218	-0.138987
C30	C	0.435122	0.158918	-0.139094
C31	C	0.434781	0.160814	0.137924
C32	C	0.531726	0.160792	0.139752
C33	C	0.667549	0.117730	0.000099
C34	C	0.310594	0.111455	0.000129
C35	C	1.142155	0.108478	0.000140
C36	C	1.235105	0.110130	0.000142
C37	C	0.982931	0.267677	0.000133
C38	C	0.984566	0.360630	0.000139
N39	N	0.989076	0.114595	0.346790
N40	N	0.989074	0.114580	-0.346540
C41	C	1.046023	0.057691	0.423445
C42	C	1.046021	0.057681	0.576782
C43	C	0.932121	0.171487	0.576794
C44	C	0.932120	0.171493	0.423460
C45	C	1.102978	0.000793	0.346774
C46	C	1.159931	-0.056115	0.423430
C47	C	1.159929	-0.056125	0.576767
C48	C	1.102974	0.000773	0.653448
H49	H	1.116126	-0.474250	-0.098814
C50	C	0.984079	-0.303793	-0.280167
H51	H	1.030463	-0.274074	-0.256653
H52	H	0.943983	-0.268341	-0.335153
H53	H	1.003147	-0.352195	-0.336412
H54	H	0.873941	-0.442150	0.143717
H55	H	1.102971	0.000755	0.778305
H56	H	0.547079	0.228497	0.148159
C57	C	0.869485	0.234077	0.661140
H58	H	0.877648	0.225929	0.763439
H59	H	0.813607	0.224955	0.636010
H60	H	0.878571	0.289969	0.636021
C61	C	0.407056	0.120383	0.280362
H62	H	0.425477	0.150105	0.362177
H63	H	0.431130	0.063346	0.284629
H64	H	0.347450	0.122764	0.282157
C65	C	0.869484	0.234091	0.339134
H66	H	0.835572	0.267984	0.406754
H67	H	0.834640	0.203951	0.279306
H68	H	0.899601	0.268968	0.279332
H69	H	1.102987	0.000798	0.221920
C70	C	0.410389	0.114428	-0.279557
H71	H	0.351229	0.112636	-0.280864
H72	H	0.438198	0.058716	-0.281730
H73	H	0.426473	0.144496	-0.362742
H74	H	1.206296	-0.102468	0.639178
C75	C	1.222579	-0.118695	0.339088
H76	H	1.214432	-0.110534	0.236788
H77	H	1.213508	-0.174588	0.364193
H78	H	1.278454	-0.109556	0.364235
H79	H	1.118892	-0.330620	-0.099432
C80	C	0.391536	0.249717	-0.147654
H81	H	0.432914	0.287844	-0.151061
H82	H	0.357018	0.261276	-0.063778
H83	H	0.357801	0.256048	-0.233442
C84	C	0.984258	-0.466352	0.279061
H85	H	1.029506	-0.507401	0.253252
H86	H	0.944153	-0.492058	0.335105
H87	H	1.005104	-0.423221	0.335252
H88	H	0.560138	0.129852	-0.242512
C89	C	0.391860	0.252001	0.139217
H90	H	0.409932	0.280503	0.222724
H91	H	0.332544	0.251684	0.142796
H92	H	0.406638	0.280077	0.052922
H93	H	1.118372	-0.329427	0.099459
C94	C	1.128432	-0.483406	0.135916
H95	H	1.149021	-0.439588	0.190736
H96	H	1.174309	-0.522402	0.105184
H97	H	1.091566	-0.511427	0.195285
H98	H	0.559048	0.127829	0.242657
C99	C	0.853672	-0.287815	0.147058
H100	H	0.815530	-0.329184	0.150237
H101	H	0.842291	-0.253320	0.063104
H102	H	0.847169	-0.254052	0.232799
H103	H	0.977214	-0.313096	0.243240
H104	H	0.545870	0.229428	-0.144155
H105	H	0.976305	-0.455433	-0.242490
C106	C	0.851949	-0.288211	-0.139800
H107	H	0.823607	-0.306299	-0.223474
H108	H	0.852282	-0.228897	-0.143382
H109	H	0.823702	-0.302963	-0.053670
H110	H	0.875445	-0.443435	-0.148592
C111	C	0.587855	-0.024739	0.134791
H112	H	0.647134	-0.023790	0.134630
H113	H	0.575371	-0.081367	0.131338
H114	H	0.564769	0.001363	0.221505
C115	C	0.427723	-0.027879	0.135408
H116	H	0.457043	-0.082958	0.133685
H117	H	0.368844	-0.031381	0.133559
H118	H	0.441857	0.000193	0.222119
C119	C	0.426282	-0.027654	-0.133344
H120	H	0.386445	0.007351	-0.189623
H121	H	0.401748	-0.075852	-0.101357
H122	H	0.474332	-0.044811	-0.191744
C123	C	0.587080	-0.025050	-0.134843
H124	H	0.543271	-0.045738	-0.189544
H125	H	0.626061	-0.070872	-0.103835
H126	H	0.615124	0.011693	-0.194428
