data_functionalizedCrystal
_audit_creation_method	'MofGen! by Chris Wilmer'
_symmetry_space_group_name_H-M	'P1'
_symmetry_Int_Tables_number	1
_symmetry_cell_setting	triclinic
loop_
_symmetry_equiv_pos_as_xyz
  x,y,z
_cell_length_a	16.120807
_cell_length_b	18.215407
_cell_length_c	18.215399
_cell_angle_alpha	89.983176
_cell_angle_beta	92.922316
_cell_angle_gamma	87.099733
loop_
_atom_site_label
_atom_site_type_symbol
_atom_site_fract_x
_atom_site_fract_y
_atom_site_fract_z
Zn1	Zn	0.331888	1.110314	-0.401292
Zn2	Zn	0.581888	1.360314	-0.151292
Zn3	Zn	0.831888	1.610314	0.098708
Zn4	Zn	1.081888	1.860314	0.348708
Zn5	Zn	0.471317	1.104038	-0.271998
Zn6	Zn	0.721317	1.354038	-0.021998
Zn7	Zn	0.971317	1.604038	0.228002
Zn8	Zn	1.221317	1.854038	0.478002
Zn9	Zn	0.331922	0.987251	-0.278238
Zn10	Zn	0.581922	1.237251	-0.028238
Zn11	Zn	0.831922	1.487251	0.221762
Zn12	Zn	1.081922	1.737251	0.471762
Zn13	Zn	0.471264	0.981023	-0.395026
Zn14	Zn	0.721264	1.231023	-0.145026
Zn15	Zn	0.971264	1.481023	0.104974
Zn16	Zn	1.221264	1.731023	0.354974
O17	O	0.401598	1.045656	-0.336639
O18	O	0.651598	1.295656	-0.086639
O19	O	0.901598	1.545656	0.163361
O20	O	1.151598	1.795656	0.413361
O21	O	0.350392	1.212465	-0.384152
O22	O	0.600392	1.462465	-0.134152
O23	O	0.850392	1.712465	0.115848
O24	O	1.100392	1.962465	0.365848
O25	O	0.452861	1.088525	-0.169840
O26	O	0.702861	1.338525	0.080160
O27	O	0.952861	1.588525	0.330160
O28	O	1.202861	1.838525	0.580160
O29	O	0.215251	1.008808	-0.299795
O30	O	0.465251	1.258808	-0.049795
O31	O	0.715251	1.508808	0.200205
O32	O	0.965251	1.758808	0.450205
O33	O	0.452829	1.207854	-0.289161
O34	O	0.702829	1.457854	-0.039161
O35	O	0.952829	1.707854	0.210839
O36	O	1.202829	1.957854	0.460839
O37	O	0.215226	1.099222	-0.390203
O38	O	0.465226	1.349222	-0.140203
O39	O	0.715226	1.599222	0.109797
O40	O	0.965226	1.849222	0.359797
O41	O	0.350448	1.002723	-0.174424
O42	O	0.600448	1.252723	0.075576
O43	O	0.850448	1.502723	0.325576
O44	O	1.100448	1.752723	0.575576
O45	O	0.350398	0.883441	-0.293719
O46	O	0.600398	1.133441	-0.043719
O47	O	0.850398	1.383441	0.206281
O48	O	1.100398	1.633441	0.456281
O49	O	0.452740	0.998194	-0.498843
O50	O	0.702740	1.248194	-0.248843
O51	O	0.952740	1.498194	0.001157
O52	O	1.202740	1.748194	0.251157
O53	O	0.452772	0.878866	-0.379522
O54	O	0.702772	1.128866	-0.129522
O55	O	0.952772	1.378866	0.120478
O56	O	1.202772	1.628866	0.370478
O57	O	0.350341	1.093183	-0.503447
O58	O	0.600341	1.343183	-0.253447
O59	O	0.850341	1.593183	-0.003447
O60	O	1.100341	1.843183	0.246553
O61	O	0.587976	1.082487	-0.283084
O62	O	0.837976	1.332487	-0.033084
O63	O	1.087976	1.582487	0.216916
O64	O	1.337976	1.832487	0.466916
O65	O	0.587938	0.992109	-0.373472
O66	O	0.837938	1.242109	-0.123472
O67	O	1.087938	1.492109	0.126528
O68	O	1.337938	1.742109	0.376528
C69	C	0.401583	0.854451	-0.336618
C70	C	0.651583	1.104451	-0.086618
C71	C	0.901583	1.354451	0.163382
C72	C	1.151583	1.604451	0.413382
C73	C	0.401597	0.772651	-0.336626
C74	C	0.651597	1.022651	-0.086626
C75	C	0.901597	1.272651	0.163374
C76	C	1.151597	1.522651	0.413374
C77	C	0.184142	1.055410	-0.346394
C78	C	0.434142	1.305410	-0.096394
C79	C	0.684142	1.555410	0.153606
C80	C	0.934142	1.805410	0.403606
C81	C	0.091476	1.059566	-0.350551
C82	C	0.341476	1.309566	-0.100551
C83	C	0.591476	1.559566	0.149449
C84	C	0.841476	1.809566	0.399449
C85	C	0.454988	0.582090	-0.381241
C86	C	0.704988	0.832090	-0.131241
C87	C	0.954988	1.082090	0.118759
C88	C	1.204988	1.332090	0.368759
C89	C	0.454990	0.505232	-0.381250
C90	C	0.704990	0.755232	-0.131250
C91	C	0.954990	1.005232	0.118750
C92	C	1.204990	1.255232	0.368750
C93	C	0.348223	0.509974	-0.292052
C94	C	0.598223	0.759974	-0.042052
C95	C	0.848223	1.009974	0.207948
C96	C	1.098223	1.259974	0.457948
C97	C	0.348217	0.586831	-0.292047
C98	C	0.598217	0.836831	-0.042047
C99	C	0.848217	1.086831	0.207953
C100	C	1.098217	1.336831	0.457953
C101	C	0.401604	0.622887	-0.336640
C102	C	0.651604	0.872887	-0.086640
C103	C	0.901604	1.122887	0.163360
C104	C	1.151604	1.372887	0.413360
C105	C	0.401613	0.469171	-0.336654
C106	C	0.651613	0.719171	-0.086654
C107	C	0.901613	0.969171	0.163346
C108	C	1.151613	1.219171	0.413346
C109	C	0.401615	0.385837	-0.336663
C110	C	0.651615	0.635837	-0.086663
C111	C	0.901615	0.885837	0.163337
C112	C	1.151615	1.135837	0.413337
C113	C	0.401600	0.706227	-0.336632
C114	C	0.651600	0.956227	-0.086632
C115	C	0.901600	1.206227	0.163368
C116	C	1.151600	1.456227	0.413368
C117	C	-0.119463	1.024279	-0.315235
C118	C	0.130537	1.274279	-0.065235
C119	C	0.380537	1.524279	0.184765
C120	C	0.630537	1.774279	0.434765
C121	C	-0.078182	1.067165	-0.358125
C122	C	0.171818	1.317165	-0.108125
C123	C	0.421818	1.567165	0.141875
C124	C	0.671818	1.817165	0.391875
C125	C	0.016224	1.062936	-0.353910
C126	C	0.266224	1.312936	-0.103910
C127	C	0.516224	1.562936	0.146090
C128	C	0.766224	1.812936	0.396090
C129	C	-0.213878	1.028507	-0.319450
C130	C	0.036122	1.278507	-0.069450
C131	C	0.286122	1.528507	0.180550
C132	C	0.536122	1.778507	0.430550
C133	C	0.618207	1.035961	-0.326937
C134	C	0.868207	1.285961	-0.076937
C135	C	1.118207	1.535961	0.173063
C136	C	1.368207	1.785961	0.423063
C137	C	0.710874	1.031880	-0.322811
C138	C	0.960874	1.281880	-0.072811
C139	C	1.210874	1.531880	0.177189
C140	C	1.460874	1.781880	0.427189
C141	C	0.401531	1.045694	-0.528594
C142	C	0.651531	1.295694	-0.278594
C143	C	0.901531	1.545694	-0.028594
C144	C	1.151531	1.795694	0.221406
C145	C	0.401503	1.045710	-0.610395
C146	C	0.651503	1.295710	-0.360395
C147	C	0.901503	1.545710	-0.110395
C148	C	1.151503	1.795710	0.139605
C149	C	0.401613	1.237609	-0.336659
C150	C	0.651613	1.487609	-0.086659
C151	C	0.901613	1.737609	0.163341
C152	C	1.151613	1.987609	0.413341
C153	C	0.401619	1.319407	-0.336668
C154	C	0.651619	1.569407	-0.086668
C155	C	0.901619	1.819407	0.163332
C156	C	1.151619	2.069407	0.413332
C157	C	0.348140	1.001074	-0.800978
C158	C	0.598140	1.251074	-0.550978
C159	C	0.848140	1.501074	-0.300978
C160	C	1.098140	1.751074	-0.050978
C161	C	0.348123	1.001088	-0.877838
C162	C	0.598123	1.251088	-0.627838
C163	C	0.848123	1.501088	-0.377838
C164	C	1.098123	1.751088	-0.127838
C165	C	0.454766	1.090439	-0.873053
C166	C	0.704766	1.340439	-0.623053
C167	C	0.954766	1.590439	-0.373053
C168	C	1.204766	1.840439	-0.123053
C169	C	0.454786	1.090421	-0.796195
C170	C	0.704786	1.340421	-0.546195
C171	C	0.954786	1.590421	-0.296195
C172	C	1.204786	1.840421	-0.046195
C173	C	0.401469	1.045740	-0.760160
C174	C	0.651469	1.295740	-0.510160
C175	C	0.901469	1.545740	-0.260160
C176	C	1.151469	1.795740	-0.010160
C177	C	0.401431	1.045771	-0.913878
C178	C	0.651431	1.295771	-0.663878
C179	C	0.901431	1.545771	-0.413878
C180	C	1.151431	1.795771	-0.163878
C181	C	0.401414	1.045786	-0.997212
C182	C	0.651414	1.295786	-0.747212
C183	C	0.901414	1.545786	-0.497212
C184	C	1.151414	1.795786	-0.247212
C185	C	0.401487	1.045724	-0.676820
C186	C	0.651487	1.295724	-0.426820
C187	C	0.901487	1.545724	-0.176820
C188	C	1.151487	1.795724	0.073180
C189	C	0.401604	1.045664	-0.145432
C190	C	0.651604	1.295664	0.104568
C191	C	0.901604	1.545664	0.354568
C192	C	1.151604	1.795664	0.604568
C193	C	0.401397	1.045801	-0.063643
C194	C	0.651397	1.295801	0.186357
C195	C	0.901397	1.545801	0.436357
C196	C	1.151397	1.795801	0.686357
H197	H	0.498457	0.611445	-0.417553
H198	H	0.748457	0.861445	-0.167553
H199	H	0.998457	1.111445	0.082447
H200	H	1.248457	1.361445	0.332447
H201	H	0.498216	1.126794	-0.762960
H202	H	0.748216	1.376794	-0.512960
H203	H	0.998216	1.626794	-0.262960
H204	H	1.248216	1.876794	-0.012960
O205	O	0.290662	0.471069	-0.243950
O206	O	0.540662	0.721069	0.006050
O207	O	0.790662	0.971069	0.256050
O208	O	1.040662	1.221069	0.506050
H209	H	0.225240	0.488736	-0.259590
H210	H	0.475240	0.738736	-0.009590
H211	H	0.725240	0.988736	0.240410
H212	H	0.975240	1.238736	0.490410
O213	O	0.290636	0.630845	-0.243941
O214	O	0.540636	0.880845	0.006059
O215	O	0.790636	1.130845	0.256059
O216	O	1.040636	1.380845	0.506059
H217	H	0.327902	0.664186	-0.204784
H218	H	0.577902	0.914186	0.045216
H219	H	0.827902	1.164186	0.295216
H220	H	1.077902	1.414186	0.545216
H221	H	0.498459	0.472018	-0.417569
H222	H	0.748459	0.722018	-0.167569
H223	H	0.998459	0.972018	0.082431
H224	H	1.248459	1.222018	0.332431
H225	H	-0.113741	1.107059	-0.398009
H226	H	0.136259	1.357059	-0.148009
H227	H	0.386259	1.607059	0.101991
H228	H	0.636259	1.857059	0.351991
O229	O	-0.072372	0.971451	-0.262390
O230	O	0.177628	1.221451	-0.012390
O231	O	0.427628	1.471451	0.237610
O232	O	0.677628	1.721451	0.487610
H233	H	-0.004538	0.976392	-0.267323
H234	H	0.245462	1.226392	-0.017323
H235	H	0.495462	1.476392	0.232677
H236	H	0.745462	1.726392	0.482677
O237	O	0.290635	0.952884	-0.762112
O238	O	0.540635	1.202884	-0.512112
O239	O	0.790635	1.452884	-0.262112
O240	O	1.040635	1.702884	-0.012112
H241	H	0.327954	0.913764	-0.725410
H242	H	0.577954	1.163764	-0.475410
H243	H	0.827954	1.413764	-0.225410
H244	H	1.077954	1.663764	0.024590
H245	H	0.304699	0.964716	-0.911069
H246	H	0.554699	1.214716	-0.661069
H247	H	0.804699	1.464716	-0.411069
H248	H	1.054699	1.714716	-0.161069
O249	O	0.512263	1.138637	-0.911919
O250	O	0.762263	1.388637	-0.661919
O251	O	1.012263	1.638637	-0.411919
O252	O	1.262263	1.888637	-0.161919
H253	H	0.503284	1.131153	-0.972222
H254	H	0.753284	1.381153	-0.722222
H255	H	1.003284	1.631153	-0.472222
H256	H	1.253284	1.881153	-0.222222
