data_functionalizedCrystal
_audit_creation_method	'MofGen! by Chris Wilmer'
_symmetry_space_group_name_H-M	'P1'
_symmetry_Int_Tables_number	1
_symmetry_cell_setting	triclinic
loop_
_symmetry_equiv_pos_as_xyz
  x,y,z
_cell_length_a	12.811457
_cell_length_b	23.532357
_cell_length_c	11.295483
_cell_angle_alpha	94.062867
_cell_angle_beta	91.289320
_cell_angle_gamma	83.439233
loop_
_atom_site_label
_atom_site_type_symbol
_atom_site_fract_x
_atom_site_fract_y
_atom_site_fract_z
O1	O	1.388180	0.078663	0.050872
O2	O	1.084862	0.085742	0.018113
O3	O	1.245693	-0.000642	0.035508
O4	O	1.227349	0.165047	0.033477
O5	O	1.231567	0.006933	0.232030
O6	O	1.070736	0.093317	0.214635
O7	O	1.374054	0.086238	0.247395
Cu8	Cu	1.221105	0.090469	0.248960
Cu9	Cu	1.237811	0.081510	0.016548
O10	O	1.213223	0.172622	0.230000
C11	C	1.039002	0.088901	0.112184
C12	C	0.923397	0.087020	0.099699
C13	C	0.690762	0.091735	0.290512
C14	C	0.582140	0.089968	0.278788
C15	C	0.597531	0.081715	0.064526
C16	C	0.706153	0.083482	0.076251
C17	C	0.752764	0.088493	0.189248
C18	C	0.861386	0.090264	0.200971
C19	C	0.876776	0.082007	-0.013289
C20	C	0.768154	0.080240	-0.025014
C21	C	1.238171	-0.018075	0.133723
C22	C	1.236790	-0.081307	0.133585
C23	C	1.235833	-0.477533	0.025461
C24	C	1.234522	-0.536946	0.025313
O25	O	1.240357	-0.571181	-0.065870
N26	N	1.226171	-0.562534	0.132366
C27	C	1.219121	-0.528706	0.239573
O28	O	1.211897	-0.555926	0.330616
C29	C	1.220425	-0.469294	0.239719
C30	C	1.228786	-0.443710	0.132660
C31	C	1.244193	-0.451949	-0.081589
C32	C	1.245506	-0.392541	-0.081440
C33	C	1.238459	-0.358717	0.025759
C34	C	1.230099	-0.384302	0.132810
C35	C	1.213367	-0.435466	0.346924
C36	C	1.214671	-0.376051	0.347062
C37	C	1.223032	-0.350467	0.240003
C38	C	1.224366	-0.291070	0.240158
N39	N	1.232716	-0.265482	0.133105
C40	C	1.239763	-0.299305	0.025906
C41	C	1.216382	-0.653474	0.239257
C42	C	1.215086	-0.712885	0.239113
C43	C	1.230485	-0.721121	0.024852
C44	C	1.231788	-0.661710	0.024998
C45	C	1.224732	-0.627886	0.132204
C46	C	1.242520	-0.174544	0.026227
C47	C	1.243837	-0.115130	0.026386
C48	C	1.228433	-0.106899	0.240645
C49	C	1.227121	-0.166308	0.240488
C50	C	1.234162	-0.200129	0.133268
O51	O	1.218531	-0.256799	0.331293
O52	O	1.246972	-0.272077	-0.065124
C53	C	1.419915	0.083079	0.153321
C54	C	1.535521	0.084959	0.165798
C55	C	1.220746	0.190055	0.131782
C56	C	1.222127	0.253286	0.131912
N57	N	1.209363	0.096770	0.412426
N58	N	1.249562	0.075205	-0.146917
C59	C	1.334089	0.029816	0.675205
C60	C	1.325223	0.034582	0.798910
C61	C	1.182760	0.111064	0.783542
C62	C	1.191626	0.106298	0.659837
C63	C	1.267294	0.065674	0.605674
C64	C	1.276165	0.060911	0.481967
C65	C	1.133698	0.137390	0.466601
C66	C	1.124831	0.142156	0.590305
H67	H	0.927269	0.079370	-0.095746
H68	H	1.079312	0.166590	0.409973
O69	O	1.240788	-0.634115	-0.090471
H70	H	1.245461	-0.667621	-0.165033
H71	H	1.395708	-0.003258	0.631106
O72	O	1.397275	-0.004086	0.873912
H73	H	1.451386	-0.033129	0.815462
O74	O	1.252841	-0.087534	-0.089090
H75	H	1.257505	-0.121037	-0.163655
O76	O	1.208787	-0.616996	0.354896
H77	H	1.280005	-0.594343	0.367752
H78	H	0.728711	0.095823	0.382518
O79	O	0.515215	0.093688	0.388006
H80	H	0.431833	0.091694	0.360871
O81	O	0.717882	0.074830	-0.146885
H82	H	0.732730	0.111916	-0.197064
O83	O	0.911666	0.095674	0.322839
H84	H	0.850300	0.097628	0.391283
O85	O	0.547244	0.076307	-0.057338
H86	H	0.562084	0.113394	-0.107519
O87	O	1.250105	-0.211018	-0.089413
H88	H	1.256142	-0.183238	-0.163817
O89	O	1.254496	-0.364947	-0.196913
H90	H	1.259159	-0.398455	-0.271472
O91	O	1.251768	-0.488425	-0.197223
H92	H	1.257795	-0.460643	-0.271625
O93	O	1.238069	-0.757606	-0.090779
H94	H	1.235743	-0.803215	-0.072887
H95	H	1.121146	0.144136	0.827657
H96	H	1.208293	-0.733712	0.326293
H97	H	1.206560	-0.456286	0.434104
H98	H	1.208909	-0.348513	0.434362
O99	O	1.043227	0.185975	0.648726
H100	H	1.048287	0.183269	0.746428
O101	O	1.218107	-0.193909	0.355953
H102	H	1.213423	-0.160405	0.430519
H103	H	1.222700	-0.079350	0.327925
O104	O	1.357767	0.017094	0.423538
H105	H	1.402715	-0.007044	0.492675
