data_functionalizedCrystal
_audit_creation_method	'MofGen! by Chris Wilmer'
_symmetry_space_group_name_H-M	'P1'
_symmetry_Int_Tables_number	1
_symmetry_cell_setting	triclinic
loop_
_symmetry_equiv_pos_as_xyz
  x,y,z
_cell_length_a	16.109302
_cell_length_b	10.967829
_cell_length_c	14.586319
_cell_angle_alpha	77.868327
_cell_angle_beta	89.994552
_cell_angle_gamma	84.099565
loop_
_atom_site_label
_atom_site_type_symbol
_atom_site_fract_x
_atom_site_fract_y
_atom_site_fract_z
O1	O	1.104075	0.160397	-0.101620
O2	O	0.862131	0.180357	-0.104766
O3	O	0.988683	-0.011276	-0.074491
O4	O	0.977524	0.352029	-0.131896
O5	O	0.988674	-0.011278	0.077990
O6	O	0.862122	0.180354	0.047715
O7	O	1.104067	0.160394	0.050861
Cu8	Cu	0.983094	0.170374	0.063211
Cu9	Cu	0.983104	0.170377	-0.117116
O10	O	0.977515	0.352026	0.020585
C11	C	0.831147	0.179547	-0.028397
C12	C	0.738837	0.177122	-0.028011
C13	C	0.526459	0.171514	0.055983
C14	C	0.439725	0.169223	0.056342
C15	C	0.439745	0.169233	-0.109902
C16	C	0.526478	0.171515	-0.110259
C17	C	0.569832	0.172662	-0.027314
C18	C	0.396366	0.168088	-0.026599
C19	C	0.302325	0.165604	-0.026211
C20	C	0.663878	0.175145	-0.027702
C21	C	0.987866	-0.057766	0.009094
C22	C	0.985434	-0.196290	0.030976
C23	C	0.984355	-0.258041	-0.038259
C24	C	0.981842	-0.401212	-0.015644
C25	C	1.135051	0.161204	-0.025510
C26	C	1.227360	0.163629	-0.025902
C27	C	0.978332	0.398517	-0.063001
C28	C	0.980763	0.537041	-0.084889
N29	N	0.983092	0.170371	0.190043
N30	N	0.983112	0.170370	-0.243947
C31	C	1.039148	0.085544	0.438451
C32	C	1.039151	0.085541	0.534433
C33	C	0.927050	0.255201	0.507638
C34	C	0.927044	0.255197	0.411659
C35	C	0.983098	0.170370	0.377068
C36	C	0.983106	0.170371	0.569028
C37	C	0.983108	0.170368	0.673096
C38	C	0.983095	0.170371	0.272994
H39	H	0.404414	0.168289	0.124171
H40	H	0.985288	-0.204913	-0.114276
H41	H	0.561755	0.172449	0.123522
Cl42	Cl	0.980390	-0.483219	0.101729
Cl43	Cl	0.385240	0.167760	-0.214165
H44	H	0.984493	-0.249416	0.106992
Cl45	Cl	0.982176	-0.380948	-0.202264
H46	H	0.561794	0.172446	-0.178093
Cl47	Cl	1.109615	-0.021104	0.611598
H48	H	1.084789	0.016471	0.410290
Cl49	Cl	0.856589	0.361840	0.551128
Cl50	Cl	0.856572	0.361837	0.334485
