data_functionalizedCrystal
_audit_creation_method	'MofGen! by Chris Wilmer'
_symmetry_space_group_name_H-M	'P1'
_symmetry_Int_Tables_number	1
_symmetry_cell_setting	triclinic
loop_
_symmetry_equiv_pos_as_xyz
  x,y,z
_cell_length_a	13.897449
_cell_length_b	17.640968
_cell_length_c	17.640280
_cell_angle_alpha	65.682561
_cell_angle_beta	78.801782
_cell_angle_gamma	78.776635
loop_
_atom_site_label
_atom_site_type_symbol
_atom_site_fract_x
_atom_site_fract_y
_atom_site_fract_z
Zn1	Zn	1.631024	-0.399710	-0.233822
Zn2	Zn	1.630945	-0.234071	-0.399491
Zn3	Zn	1.442602	-0.261909	-0.261713
Zn4	Zn	1.496826	-0.371849	-0.371590
O5	O	1.550349	-0.316885	-0.316654
O6	O	1.765999	-0.377746	-0.255803
O7	O	1.583235	-0.122433	-0.404563
O8	O	1.444936	-0.303499	-0.142696
O9	O	1.765941	-0.256052	-0.377519
O10	O	1.583370	-0.404740	-0.122205
O11	O	1.444860	-0.142886	-0.303338
O12	O	1.314810	-0.276484	-0.276284
O13	O	1.537354	-0.490876	-0.329966
O14	O	1.354648	-0.357256	-0.357011
O15	O	1.635949	-0.511344	-0.228749
O16	O	1.635814	-0.229037	-0.511107
O17	O	1.537277	-0.330262	-0.490608
C18	C	1.299729	-0.316868	-0.316647
C19	C	1.192520	-0.316877	-0.316660
C20	C	1.592451	-0.273624	-0.530754
C21	C	1.610556	-0.255144	-0.622342
C22	C	1.592709	-0.531850	-0.273134
C23	C	1.610760	-0.623456	-0.254588
C24	C	0.996230	-0.316898	-0.316658
C25	C	1.105459	-0.316884	-0.316657
C26	C	1.801948	-0.316902	-0.316662
C27	C	1.909165	-0.316909	-0.316665
C28	C	1.413500	-0.871447	-0.457094
C29	C	1.430480	-0.957527	-0.439658
C30	C	1.533138	-0.978829	-0.334269
C31	C	1.516163	-0.892750	-0.351694
C32	C	1.456344	-0.839066	-0.413108
C33	C	1.559007	-0.860368	-0.307708
C34	C	1.542037	-0.774296	-0.325135
C35	C	1.482223	-0.720606	-0.386548
C36	C	1.439374	-0.752994	-0.430535
C37	C	1.618831	-0.914053	-0.246298
C38	C	1.661675	-0.881672	-0.202311
C39	C	1.644699	-0.795599	-0.219734
C40	C	1.584886	-0.741909	-0.281147
C41	C	1.687549	-0.763212	-0.175747
C42	C	1.670579	-0.677140	-0.193174
C43	C	1.567916	-0.655837	-0.298575
C44	C	1.508199	-0.102768	-0.359945
C45	C	1.490289	-0.011210	-0.378258
C46	C	1.413263	-0.457573	-0.870399
C47	C	1.430272	-0.440182	-0.956464
C48	C	1.532976	-0.334883	-0.977722
C49	C	1.515980	-0.352268	-0.891656
C50	C	1.456122	-0.413613	-0.838001
C51	C	1.558838	-0.308308	-0.859258
C52	C	1.541838	-0.325688	-0.773200
C53	C	1.481981	-0.387029	-0.719540
C54	C	1.439122	-0.430993	-0.751943
C55	C	1.618690	-0.246959	-0.912916
C56	C	1.661549	-0.202999	-0.880518
C57	C	1.644555	-0.220383	-0.794458
C58	C	1.584697	-0.281724	-0.740798
C59	C	1.687414	-0.176418	-0.762055
C60	C	1.670414	-0.193799	-0.675997
C61	C	1.567697	-0.299104	-0.654740
C62	C	1.508113	-0.360333	-0.101714
C63	C	1.490115	-0.378848	-0.010119
H64	H	1.468412	-0.650521	-0.400739
H65	H	1.390636	-0.709284	-0.480525
H66	H	1.364762	-0.827738	-0.507085
C67	C	1.637373	-0.227870	-1.007575
C68	C	1.743565	-0.239630	-1.050542
C69	C	1.762238	-0.220558	-1.145198
C70	C	1.674718	-0.189726	-1.196886
C71	C	1.568518	-0.177965	-1.153919
C72	C	1.549845	-0.197037	-1.059264
H73	H	1.808360	-0.262455	-1.012280
H74	H	1.840855	-0.229264	-1.177004
H75	H	1.688540	-0.175607	-1.266955
H76	H	1.503724	-0.155140	-1.192182
H77	H	1.471229	-0.188330	-1.027457
H78	H	1.736261	-0.806933	-0.125749
H79	H	1.395587	-0.983887	-0.475481
C80	C	1.727470	-0.940730	-0.134756
C81	C	1.821885	-0.992685	-0.158481
C82	C	1.887679	-1.051743	-0.090923
C83	C	1.859057	-1.058845	0.000362
C84	C	1.764637	-1.006887	0.024092
C85	C	1.698844	-0.947830	-0.043467
H86	H	1.843077	-0.987430	-0.226059
H87	H	1.957574	-1.090205	-0.108490
H88	H	1.907761	-1.102562	0.050373
H89	H	1.743445	-1.012143	0.091670
H90	H	1.628948	-0.909368	-0.025900
C91	C	1.717558	-0.145449	-0.640349
C92	C	1.693662	-0.049357	-0.671168
C93	C	1.740803	-0.001004	-0.635519
C94	C	1.811840	-0.048743	-0.569051
C95	C	1.835740	-0.144840	-0.538228
C96	C	1.788599	-0.193193	-0.573877
H97	H	1.641073	-0.014013	-0.720376
H98	H	1.723110	0.070134	-0.658337
H99	H	1.846737	-0.012949	-0.542662
H100	H	1.888330	-0.180185	-0.489021
H101	H	1.806292	-0.264331	-0.551060
H102	H	1.519178	-0.612128	-0.348565
C103	C	1.717701	-0.641511	-0.144790
C104	C	1.693747	-0.672272	-0.048714
C105	C	1.740874	-0.636641	-0.000333
C106	C	1.811954	-0.570250	-0.048027
C107	C	1.835911	-0.539486	-0.144108
C108	C	1.788784	-0.575117	-0.192489
H109	H	1.641127	-0.721422	-0.013403
H110	H	1.723139	-0.659415	0.070793
H111	H	1.846840	-0.543875	-0.012212
H112	H	1.888532	-0.490337	-0.179419
H113	H	1.806519	-0.552343	-0.263615
C114	C	1.383130	-0.488552	-0.992097
C115	C	1.449303	-0.541352	-1.038109
C116	C	1.402161	-0.589721	-1.073739
C117	C	1.288848	-0.585290	-1.063358
C118	C	1.222669	-0.532488	-1.017344
C119	C	1.269811	-0.484119	-0.981713
H120	H	1.533190	-0.544634	-1.045796
H121	H	1.451152	-0.628809	-1.107802
H122	H	1.253952	-0.621096	-1.089734
H123	H	1.138782	-0.529206	-1.009657
H124	H	1.220820	-0.445031	-0.947650
H125	H	1.581846	-1.022549	-0.284267
H126	H	1.632648	-0.984138	-0.232113
H127	H	1.518963	-0.349064	-0.611049
H128	H	1.710282	-0.153049	-0.924216
C129	C	1.463349	-0.406154	-0.624874
C130	C	1.550917	-0.437010	-0.573236
C131	C	1.532320	-0.456136	-0.478570
C132	C	1.426154	-0.444406	-0.435541
C133	C	1.338579	-0.413548	-0.487179
C134	C	1.357176	-0.394422	-0.581845
H135	H	1.629514	-0.445695	-0.605089
H136	H	1.597149	-0.478980	-0.440345
H137	H	1.412387	-0.458565	-0.365463
H138	H	1.259982	-0.404864	-0.455326
H139	H	1.292347	-0.371579	-0.620070
H140	H	1.736142	-0.126466	-0.805755
H141	H	1.390388	-0.480953	-0.708252
H142	H	1.364529	-0.507532	-0.826708
H143	H	1.581710	-0.284933	-1.021420
