data_functionalizedCrystal
_audit_creation_method	'MofGen! by Chris Wilmer'
_symmetry_space_group_name_H-M	'P1'
_symmetry_Int_Tables_number	1
_symmetry_cell_setting	triclinic
loop_
_symmetry_equiv_pos_as_xyz
  x,y,z
_cell_length_a	18.215407
_cell_length_b	19.076808
_cell_length_c	18.215399
_cell_angle_alpha	87.671240
_cell_angle_beta	89.983115
_cell_angle_gamma	92.320961
loop_
_atom_site_label
_atom_site_type_symbol
_atom_site_fract_x
_atom_site_fract_y
_atom_site_fract_z
Zn1	Zn	1.113292	-0.280269	-0.404282
Zn2	Zn	1.108256	-0.397977	-0.276266
Zn3	Zn	0.990225	-0.280286	-0.281234
Zn4	Zn	0.985247	-0.397931	-0.399299
O5	O	1.049255	-0.339116	-0.340270
O6	O	1.215608	-0.295895	-0.387307
O7	O	1.092575	-0.382392	-0.173940
O8	O	1.010741	-0.181788	-0.301722
O9	O	1.211908	-0.382375	-0.293255
O10	O	1.101158	-0.181775	-0.392124
O11	O	1.005858	-0.295925	-0.177590
O12	O	0.886581	-0.295880	-0.296889
O13	O	1.002257	-0.382296	-0.502945
O14	O	0.882923	-0.382313	-0.383630
O15	O	1.096331	-0.295850	-0.506607
O16	O	1.087747	-0.496468	-0.288422
O17	O	0.997373	-0.496434	-0.378813
C18	C	0.858050	-0.339094	-0.340258
C19	C	0.776250	-0.339102	-0.340270
C20	C	0.589978	-0.294164	-0.389314
C21	C	0.513119	-0.294170	-0.389316
C22	C	0.509283	-0.384087	-0.291239
C23	C	0.586141	-0.384077	-0.291234
C24	C	0.626486	-0.339117	-0.340275
C25	C	0.472770	-0.339133	-0.340283
C26	C	0.389436	-0.339140	-0.340285
C27	C	0.709826	-0.339109	-0.340273
C28	C	1.041493	-0.521990	-0.332554
C29	C	1.038240	-0.600224	-0.329277
C30	C	1.083752	-0.636911	-0.374844
C31	C	1.080692	-0.710420	-0.371767
C32	C	1.032124	-0.747241	-0.323118
C33	C	0.986608	-0.710549	-0.277550
C34	C	0.989664	-0.637041	-0.280631
C35	C	1.017936	-0.967094	-0.308854
C36	C	1.014884	-1.040607	-0.305774
C37	C	1.108968	-1.040473	-0.399993
C38	C	1.112024	-0.966964	-0.403067
C39	C	1.066504	-0.930278	-0.357501
N40	N	1.028997	-0.822379	-0.319970
N41	N	1.069628	-0.855141	-0.360654
C42	C	1.241207	-0.339138	-0.340283
C43	C	1.323005	-0.339148	-0.340288
C44	C	1.049300	-0.339066	-0.532225
C45	C	1.049320	-0.339045	-0.614025
C46	C	1.057067	-0.155528	-0.348033
C47	C	1.060396	-0.077294	-0.351341
C48	C	1.098334	-0.293972	-0.880993
C49	C	1.098324	-0.293991	-0.804134
C50	C	1.000369	-0.384016	-0.800310
C51	C	1.000383	-0.384000	-0.877168
C52	C	1.049364	-0.338974	-0.917508
C53	C	1.049341	-0.339009	-0.763790
C54	C	1.049331	-0.339030	-0.680456
C55	C	1.049376	-0.338954	-1.000848
C56	C	1.049254	-0.339115	-0.149064
C57	C	1.049386	-0.338938	-0.067273
H58	H	0.476424	-0.420693	-0.251312
Br59	Br	1.164789	-0.232917	-0.754580
Br60	Br	0.933894	-0.445116	-0.745559
H61	H	1.138217	-0.257308	-0.913836
Br62	Br	1.142448	-0.760208	-0.433623
Br63	Br	0.463575	-0.233158	-0.455868
Br64	Br	0.920683	-0.760519	-0.211536
Br65	Br	1.149675	-0.586947	-0.440864
H66	H	0.622826	-0.257553	-0.429244
Br67	Br	0.635693	-0.445078	-0.224667
Br68	Br	0.933927	-0.445086	-0.926729
H69	H	1.151572	-0.936986	-0.442680
H70	H	0.975331	-1.070584	-0.266159
Br71	Br	0.956150	-0.917315	-0.247024
Br72	Br	1.170739	-1.090265	-0.461830
H73	H	0.952603	-0.607171	-0.243527
