data_functionalizedCrystal
_audit_creation_method	'MofGen! by Chris Wilmer'
_symmetry_space_group_name_H-M	'P1'
_symmetry_Int_Tables_number	1
_symmetry_cell_setting	triclinic
loop_
_symmetry_equiv_pos_as_xyz
  x,y,z
_cell_length_a	17.639617
_cell_length_b	18.101397
_cell_length_c	17.640968
_cell_angle_alpha	78.764690
_cell_angle_beta	70.333968
_cell_angle_gamma	101.204936
loop_
_atom_site_label
_atom_site_type_symbol
_atom_site_fract_x
_atom_site_fract_y
_atom_site_fract_z
Zn1	Zn	1.354385	0.097957	-0.721254
Zn2	Zn	1.326418	-0.057296	-0.583395
Zn3	Zn	1.188675	0.035195	-0.555518
Zn4	Zn	1.216507	-0.057224	-0.693278
O5	O	1.271496	0.004658	-0.638361
O6	O	1.466023	0.103598	-0.726341
O7	O	1.284794	-0.071323	-0.464350
O8	O	1.210713	0.147172	-0.577545
O9	O	1.445476	-0.010465	-0.625057
O10	O	1.332459	0.193283	-0.699310
O11	O	1.183595	-0.003371	-0.443869
O12	O	1.077019	-0.003301	-0.550418
O13	O	1.258149	-0.010342	-0.812336
O14	O	1.097467	-0.071200	-0.651629
O15	O	1.359447	0.103668	-0.832890
O16	O	1.311782	-0.160938	-0.597930
O17	O	1.231031	-0.160885	-0.678661
C18	C	1.057335	-0.044054	-0.594963
C19	C	0.965719	-0.064906	-0.576417
C20	C	0.717944	0.163134	-0.779460
C21	C	0.631854	0.143517	-0.762016
C22	C	0.610449	0.024865	-0.656397
C23	C	0.696540	0.044470	-0.673835
C24	C	0.750281	0.113606	-0.735366
C25	C	0.728876	-0.005058	-0.629741
C26	C	0.814959	0.014547	-0.647175
C27	C	0.868704	0.083681	-0.708702
C28	C	0.836363	0.133211	-0.752800
C29	C	0.675133	-0.074191	-0.568206
C30	C	0.707470	-0.123719	-0.524113
C31	C	0.793555	-0.104117	-0.541550
C32	C	0.847300	-0.034983	-0.603077
C33	C	0.825896	-0.153647	-0.497452
C34	C	0.911978	-0.134042	-0.514886
C35	C	0.933383	-0.015378	-0.620511
C36	C	1.271418	-0.187778	-0.638307
C37	C	1.271465	-0.270079	-0.638327
C38	C	1.271585	-0.569129	-0.638423
C39	C	1.322179	-0.537886	-0.587423
C40	C	1.322433	-0.452179	-0.587633
C41	C	1.271526	-0.420767	-0.638375
C42	C	1.312643	-0.426635	-0.730024
C43	C	1.313064	-0.512247	-0.729776
C44	C	1.179856	-0.562552	-0.598491
C45	C	1.179895	-0.477246	-0.596639
C46	C	1.271491	-0.336918	-0.638352
C47	C	1.271623	-0.652976	-0.638452
C48	C	1.486494	0.053559	-0.681929
C49	C	1.578114	0.074398	-0.700495
C50	C	1.315023	0.053672	-0.853357
C51	C	1.333571	0.074559	-0.944976
C52	C	1.271601	0.197854	-0.638438
C53	C	1.271646	0.280183	-0.638471
C54	C	1.130903	-0.153542	-1.192798
C55	C	1.148349	-0.133903	-1.278891
C56	C	1.253822	-0.015194	-1.300281
C57	C	1.236382	-0.034821	-1.214188
C58	C	1.174922	-0.103997	-1.160453
C59	C	1.280401	0.014724	-1.181842
C60	C	1.262964	-0.004905	-1.095757
C61	C	1.201509	-0.074079	-1.042017
C62	C	1.157486	-0.123626	-1.074367
C63	C	1.341864	0.083896	-1.235580
C64	C	1.385883	0.133442	-1.203234
C65	C	1.368443	0.113816	-1.117147
C66	C	1.306988	0.044642	-1.063407
C67	C	1.412467	0.163363	-1.084796
C68	C	1.395031	0.143735	-0.998711
C69	C	1.289552	0.025014	-0.977321
C70	C	1.228187	-0.044101	-0.424211
C71	C	1.209798	-0.064743	-0.332626
H72	H	0.605036	-0.090139	-0.553996
C73	C	1.089893	-0.199726	-1.015242
C74	C	1.013216	-0.195854	-0.942949
C75	C	0.945635	-0.271953	-0.883821
C76	C	0.954731	-0.351925	-0.896986
C77	C	1.031411	-0.355800	-0.969282
C78	C	1.098992	-0.279700	-1.028410
H79	H	1.006480	-0.136651	-0.933201
H80	H	0.888872	-0.269084	-0.830303
H81	H	0.904704	-0.408258	-0.853216
H82	H	1.038147	-0.415002	-0.979030
H83	H	1.155755	-0.282569	-1.081928
H84	H	1.435926	0.189763	-1.246997
C85	C	1.182322	-0.095675	-0.947320
C86	C	1.151540	-0.040125	-0.895699
C87	C	1.132351	-0.061721	-0.801003
C88	C	1.143943	-0.138867	-0.757927
C89	C	1.174727	-0.194421	-0.809548
C90	C	1.193916	-0.172825	-0.904245
H91	H	1.142957	0.016988	-0.927586
H92	H	1.109562	-0.020595	-0.762789
H93	H	1.129738	-0.154853	-0.687827
H94	H	1.183310	-0.251534	-0.777661
H95	H	1.216704	-0.213951	-0.942458
C96	C	1.480073	0.239451	-1.143912
C97	C	1.556756	0.235561	-1.216185
C98	C	1.624363	0.311650	-1.275301
C99	C	1.615289	0.391628	-1.262143
C100	C	1.538603	0.395521	-1.189867
C101	C	1.470995	0.319433	-1.130751
H102	H	1.563476	0.176354	-1.225928
H103	H	1.681131	0.308767	-1.328805
H104	H	1.665336	0.447953	-1.305904
H105	H	1.531882	0.454728	-1.180124
H106	H	1.414227	0.322315	-1.077248
H107	H	1.141944	-0.582991	-0.635422
C108	C	0.777072	0.239185	-0.847140
C109	C	0.849353	0.235225	-0.923770
C110	C	0.908483	0.311275	-0.991442
C111	C	0.895331	0.391284	-0.982485
C112	C	0.823047	0.395247	-0.905852
C113	C	0.763917	0.319198	-0.838180
H114	H	0.859092	0.175995	-0.930403
H115	H	0.961993	0.308341	-1.048171
H116	H	0.939102	0.447581	-1.032580
H117	H	0.813308	0.454478	-0.899219
H118	H	0.710407	0.322132	-0.781451
C119	C	0.766776	-0.229691	-0.429765
C120	C	0.779926	-0.309703	-0.438712
C121	C	0.720808	-0.385747	-0.371023
C122	C	0.648540	-0.381778	-0.294387
C123	C	0.635387	-0.301763	-0.285437
C124	C	0.694505	-0.225719	-0.353126
H125	H	0.833426	-0.312643	-0.495446
H126	H	0.730544	-0.444980	-0.377649
H127	H	0.604777	-0.438071	-0.244280
H128	H	0.581887	-0.298822	-0.228703
H129	H	0.684768	-0.166486	-0.346500
C130	C	0.963397	0.105249	-0.727882
C131	C	1.026777	0.114907	-0.816643
C132	C	1.121469	0.136476	-0.835823
C133	C	1.152781	0.148386	-0.766242
C134	C	1.089399	0.138728	-0.677476
C135	C	0.994707	0.117160	-0.658295
H136	H	1.003599	0.106091	-0.868156
H137	H	1.168388	0.143625	-0.901534
H138	H	1.222878	0.164352	-0.780440
H139	H	1.112577	0.147545	-0.625963
H140	H	0.947788	0.110010	-0.592584
H141	H	1.080837	-0.209859	-1.149039
C142	C	0.947555	-0.188521	-0.466385
C143	C	0.888445	-0.264567	-0.398705
C144	C	0.924022	-0.319045	-0.350199
C145	C	1.018708	-0.297476	-0.369372
C146	C	1.077824	-0.221426	-0.437055
C147	C	1.042248	-0.166948	-0.485561
H148	H	0.818347	-0.280537	-0.384509
H149	H	0.880260	-0.375342	-0.300095
H150	H	1.045044	-0.337803	-0.333465
H151	H	1.147922	-0.205456	-0.451251
H152	H	1.086010	-0.110651	-0.535665
H153	H	1.112499	-0.174254	-1.305222
C154	C	1.284873	-0.590127	-0.496154
C155	C	1.251425	-0.554694	-0.423248
C156	C	1.214112	-0.606942	-0.331975
C157	C	1.210247	-0.694623	-0.313608
C158	C	1.243696	-0.730061	-0.386515
C159	C	1.281009	-0.677813	-0.477788
H160	H	1.254285	-0.489782	-0.436843
H161	H	1.189351	-0.580707	-0.278005
H162	H	1.182626	-0.733300	-0.246042
H163	H	1.240836	-0.794973	-0.372920
H164	H	1.305770	-0.704048	-0.531759
H165	H	1.303865	0.041128	-1.344044
H166	H	1.239485	-0.031303	-0.933562
C167	C	1.361052	0.105492	-1.330277
C168	C	1.391825	0.049937	-1.381895
C169	C	1.411016	0.071532	-1.476591
C170	C	1.399434	0.148682	-1.519671
C171	C	1.368659	0.204242	-1.468053
C172	C	1.349468	0.182647	-1.373356
H173	H	1.400401	-0.007179	-1.350005
H174	H	1.433798	0.030402	-1.514802
H175	H	1.413640	0.164668	-1.589771
H176	H	1.360083	0.261357	-1.499942
H177	H	1.326687	0.223776	-1.335145
H178	H	0.663702	-0.180007	-0.474011
H179	H	1.389384	-0.541419	-0.615001
C180	C	0.596275	0.198004	-0.810513
C181	C	0.550179	0.167094	-0.863174
C182	C	0.514595	0.221580	-0.911661
C183	C	0.525108	0.306976	-0.907488
C184	C	0.571206	0.337890	-0.854825
C185	C	0.606790	0.283404	-0.806338
H186	H	0.542395	0.103875	-0.866265
H187	H	0.480470	0.198695	-0.950646
H188	H	0.498767	0.347310	-0.943381
H189	H	0.578990	0.401109	-0.851734
H190	H	0.640915	0.306289	-0.767353
C191	C	1.133905	-0.617539	-0.508524
C192	C	1.100911	-0.583392	-0.434442
C193	C	1.054969	-0.638377	-0.344474
C194	C	1.042022	-0.727511	-0.328589
C195	C	1.075017	-0.761662	-0.402673
C196	C	1.120959	-0.706677	-0.492641
H197	H	1.110495	-0.517406	-0.446199
H198	H	1.030544	-0.613095	-0.289632
H199	H	1.008014	-0.768214	-0.261989
H200	H	1.065434	-0.827648	-0.390916
H201	H	1.145384	-0.731958	-0.547484
H202	H	0.977143	0.040917	-0.670619
H203	H	1.149209	-0.475585	-0.529106
C204	C	1.413742	-0.400026	-0.625218
C205	C	1.444026	-0.330621	-0.704499
C206	C	1.535339	-0.278466	-0.742088
C207	C	1.596367	-0.295715	-0.700396
C208	C	1.566084	-0.365123	-0.621111
C209	C	1.474771	-0.417279	-0.583522
H210	H	1.398848	-0.317849	-0.735366
H211	H	1.557756	-0.227085	-0.800781
H212	H	1.663962	-0.257107	-0.728222
H213	H	1.611262	-0.377895	-0.590244
H214	H	1.452354	-0.468659	-0.524829
C215	C	1.124302	-0.450427	-0.641229
C216	C	1.161302	-0.376444	-0.716657
C217	C	1.105714	-0.349624	-0.761256
C218	C	1.013125	-0.396787	-0.730426
C219	C	0.976120	-0.470775	-0.654994
C220	C	1.031709	-0.497595	-0.610395
H221	H	1.229846	-0.341526	-0.739483
H222	H	1.133108	-0.294853	-0.817096
H223	H	0.971976	-0.376934	-0.763441
H224	H	0.907576	-0.505693	-0.632168
H225	H	1.004315	-0.552366	-0.554555
H226	H	0.880123	0.189506	-0.802908
C227	C	1.284944	-0.448215	-0.496569
C228	C	1.326408	-0.472688	-0.435288
C229	C	1.288926	-0.468735	-0.344216
C230	C	1.209981	-0.440310	-0.314426
C231	C	1.168514	-0.415835	-0.375709
C232	C	1.205995	-0.419788	-0.466781
H233	H	1.384851	-0.493731	-0.457339
H234	H	1.319624	-0.486854	-0.298851
H235	H	1.182235	-0.437385	-0.247010
H236	H	1.110070	-0.394792	-0.353658
H237	H	1.175297	-0.401669	-0.512146
C238	C	0.551330	-0.051182	-0.588716
C239	C	0.544185	-0.063681	-0.497417
C240	C	0.485067	-0.139730	-0.429737
C241	C	0.433094	-0.203280	-0.453355
C242	C	0.440237	-0.190783	-0.544658
C243	C	0.499355	-0.114734	-0.612338
H244	H	0.582660	-0.016635	-0.479930
H245	H	0.479780	-0.148981	-0.362148
H246	H	0.389332	-0.259576	-0.403254
H247	H	0.401762	-0.237828	-0.562146
H248	H	0.504643	-0.105483	-0.679927
C249	C	1.404349	-0.513767	-0.772692
C250	C	1.469638	-0.486477	-0.736584
C251	C	1.560926	-0.487992	-0.779499
C252	C	1.586924	-0.516798	-0.858521
C253	C	1.521633	-0.544090	-0.894633
C254	C	1.430346	-0.542575	-0.851718
H255	H	1.450394	-0.465152	-0.678083
H256	H	1.609258	-0.467789	-0.752766
H257	H	1.654500	-0.517920	-0.890289
H258	H	1.540877	-0.565416	-0.953134
H259	H	1.382014	-0.562779	-0.878451
H260	H	1.278788	-0.531828	-0.770040
H261	H	1.277682	-0.405351	-0.769804
H262	H	1.379566	-0.386418	-0.761972
H263	H	1.430874	0.184080	-0.972375
