data_functionalizedCrystal
_audit_creation_method	'MofGen! by Chris Wilmer'
_symmetry_space_group_name_H-M	'P1'
_symmetry_Int_Tables_number	1
_symmetry_cell_setting	triclinic
loop_
_symmetry_equiv_pos_as_xyz
  x,y,z
_cell_length_a	16.992694
_cell_length_b	9.065218
_cell_length_c	8.140239
_cell_angle_alpha	90.001686
_cell_angle_beta	90.002898
_cell_angle_gamma	92.157946
loop_
_atom_site_label
_atom_site_type_symbol
_atom_site_fract_x
_atom_site_fract_y
_atom_site_fract_z
O1	O	1.042613	-0.313082	-0.136397
O2	O	1.375946	0.020251	0.196937
O3	O	1.709280	0.353584	0.530270
O4	O	0.814303	-0.309648	-0.136445
O5	O	1.147637	0.023686	0.196888
O6	O	1.480970	0.357019	0.530221
O7	O	0.933177	-0.097160	-0.136417
O8	O	1.266510	0.236173	0.196917
O9	O	1.599844	0.569506	0.530250
O10	O	0.923739	-0.525570	-0.136425
O11	O	1.257072	-0.192236	0.196908
O12	O	1.590406	0.141097	0.530241
O13	O	0.933170	-0.097157	0.136810
O14	O	1.266504	0.236176	0.470144
O15	O	1.599837	0.569510	0.803477
O16	O	0.814297	-0.309644	0.136782
O17	O	1.147630	0.023689	0.470115
O18	O	1.480963	0.357022	0.803449
O19	O	1.042606	-0.313079	0.136830
O20	O	1.375940	0.020254	0.470164
O21	O	1.709273	0.353588	0.803497
Zn22	Zn	0.928450	-0.311361	0.180187
Zn23	Zn	1.261784	0.021972	0.513520
Zn24	Zn	1.595117	0.355305	0.846854
Zn25	Zn	0.928459	-0.311366	-0.179802
Zn26	Zn	1.261792	0.021968	0.153532
Zn27	Zn	1.595126	0.355301	0.486865
O28	O	0.923732	-0.525566	0.136802
O29	O	1.257066	-0.192233	0.470135
O30	O	1.590399	0.141100	0.803468
C31	C	0.785056	-0.305227	0.000162
C32	C	1.118389	0.028106	0.333495
C33	C	1.451723	0.361439	0.666829
C34	C	0.697918	-0.292043	0.000143
C35	C	1.031251	0.041290	0.333477
C36	C	1.364585	0.374623	0.666810
C37	C	0.648581	-0.419249	0.000142
C38	C	0.981914	-0.085916	0.333475
C39	C	1.315248	0.247417	0.666809
C40	C	0.566706	-0.406853	0.000165
C41	C	0.900040	-0.073520	0.333498
C42	C	1.233373	0.259814	0.666832
C43	C	0.534170	-0.267249	0.000177
C44	C	0.867504	0.066084	0.333511
C45	C	1.200837	0.399417	0.666844
C46	C	0.583514	-0.140034	0.000184
C47	C	0.916847	0.193299	0.333517
C48	C	1.250181	0.526633	0.666850
C49	C	0.665387	-0.152432	0.000173
C50	C	0.998720	0.180902	0.333506
C51	C	1.332054	0.514235	0.666839
C52	C	0.290208	-0.215866	0.000222
C53	C	0.623541	0.117468	0.333556
C54	C	0.956874	0.450801	0.666889
C55	C	0.208328	-0.203477	0.000229
C56	C	0.541662	0.129856	0.333562
C57	C	0.874995	0.463189	0.666895
C58	C	0.191526	-0.470298	0.000213
C59	C	0.524860	-0.136964	0.333546
C60	C	0.858193	0.196369	0.666880
C61	C	0.273402	-0.482683	0.000192
C62	C	0.606735	-0.149350	0.333525
C63	C	0.940069	0.183983	0.666859
C64	C	0.322738	-0.355468	0.000207
C65	C	0.656071	-0.022134	0.333540
C66	C	0.989405	0.311199	0.666874
N67	N	0.450482	-0.254575	0.000196
N68	N	0.783815	0.078758	0.333529
N69	N	1.117148	0.412092	0.666862
N70	N	0.406425	-0.368144	0.000200
N71	N	0.739759	-0.034810	0.333534
N72	N	1.073092	0.298523	0.666867
C73	C	0.932267	-0.042088	0.000194
C74	C	1.265600	0.291245	0.333527
C75	C	1.598933	0.624579	0.666861
C76	C	0.929555	0.122007	0.000186
C77	C	1.262888	0.455340	0.333519
C78	C	1.596221	0.788673	0.666852
C79	C	1.071853	-0.317499	0.000220
C80	C	1.405187	0.015834	0.333553
C81	C	1.738520	0.349167	0.666886
C82	C	1.158991	-0.330683	0.000227
C83	C	1.492325	0.002650	0.333561
C84	C	1.825658	0.335983	0.666894
C85	C	0.924643	-0.580639	0.000187
C86	C	1.257976	-0.247305	0.333521
C87	C	1.591309	0.086028	0.666854
C88	C	0.927355	-0.744733	0.000185
C89	C	1.260688	-0.411400	0.333518
C90	C	1.594022	-0.078067	0.666852
N91	N	0.928450	-0.311358	0.425869
N92	N	1.261783	0.021975	0.759203
N93	N	1.595117	0.355309	1.092536
N94	N	0.928465	-0.311358	-0.425484
N95	N	1.261799	0.021976	-0.092151
N96	N	1.595132	0.355309	0.241182
H97	H	0.705557	-0.048847	0.000173
H98	H	1.038890	0.284487	0.333506
H99	H	1.372224	0.617820	0.666839
Br100	Br	0.357154	-0.043214	0.000247
Br101	Br	0.690487	0.290119	0.333580
Br102	Br	1.023821	0.623452	0.666913
Br103	Br	0.692728	-0.608721	0.000108
Br104	Br	1.026062	-0.275387	0.333442
Br105	Br	1.359395	0.057946	0.666775
H106	H	0.557017	-0.026365	0.000217
H107	H	0.890350	0.306968	0.333551
H108	H	1.223683	0.640301	0.666884
H109	H	0.526539	-0.510438	0.000162
H110	H	0.859872	-0.177105	0.333495
H111	H	1.193206	0.156229	0.666829
H112	H	0.299886	-0.596363	0.000163
H113	H	0.633220	-0.263030	0.333496
H114	H	0.966553	0.070304	0.666830
H115	H	0.181841	-0.089790	0.000237
H116	H	0.515175	0.243544	0.333570
H117	H	0.848508	0.576877	0.666904
H118	H	0.151349	-0.573869	0.000204
H119	H	0.484682	-0.240536	0.333538
H120	H	0.818015	0.092798	0.666871
