data_functionalizedCrystal
_audit_creation_method	'MofGen! by Chris Wilmer'
_symmetry_space_group_name_H-M	'P1'
_symmetry_Int_Tables_number	1
_symmetry_cell_setting	triclinic
loop_
_symmetry_equiv_pos_as_xyz
  x,y,z
_cell_length_a	11.026607
_cell_length_b	19.188930
_cell_length_c	9.482900
_cell_angle_alpha	99.297616
_cell_angle_beta	78.636152
_cell_angle_gamma	95.865399
loop_
_atom_site_label
_atom_site_type_symbol
_atom_site_fract_x
_atom_site_fract_y
_atom_site_fract_z
O1	O	1.627581	0.283622	-0.120957
O2	O	2.127581	0.783622	0.379043
O3	O	1.274451	0.250352	-0.120952
O4	O	1.774451	0.750352	0.379048
O5	O	1.461202	0.166632	-0.120926
O6	O	1.961202	0.666632	0.379074
O7	O	1.440830	0.367342	-0.120983
O8	O	1.940830	0.867342	0.379017
O9	O	1.423268	0.183725	0.120861
O10	O	1.923268	0.683725	0.620861
O11	O	1.236517	0.267445	0.120835
O12	O	1.736517	0.767445	0.620835
O13	O	1.589648	0.300715	0.120830
O14	O	2.089648	0.800715	0.620830
Cu15	Cu	1.409619	0.285641	0.142910
Cu16	Cu	1.909619	0.785641	0.642910
Cu17	Cu	1.454480	0.265426	-0.143032
Cu18	Cu	1.954480	0.765426	0.356968
O19	O	1.402896	0.384435	0.120804
O20	O	1.902896	0.884435	0.620804
C21	C	1.210306	0.252761	-0.000057
C22	C	1.710306	0.752761	0.499943
C23	C	1.075688	0.234464	-0.000054
C24	C	1.575688	0.734464	0.499946
C25	C	1.001617	0.284984	-0.000069
C26	C	1.501617	0.784984	0.499931
C27	C	0.862482	0.266075	-0.000066
C28	C	1.362482	0.766075	0.499934
C29	C	1.441575	0.149084	-0.000029
C30	C	1.941575	0.649084	0.499971
C31	C	1.439592	0.071328	-0.000016
C32	C	1.939592	0.571328	0.499984
C33	C	1.549173	0.040370	-0.000011
C34	C	2.049173	0.540370	0.499989
C35	C	1.547315	-0.032693	-0.000034
C36	C	2.047315	0.467307	0.499966
C37	C	1.435865	-0.074793	-0.000033
C38	C	1.935865	0.425207	0.499967
C39	C	1.326271	-0.043828	-0.000047
C40	C	1.826271	0.456172	0.499953
C41	C	1.328134	0.029233	-0.000038
C42	C	1.828134	0.529233	0.499962
N43	N	1.337766	-0.187838	0.082253
N44	N	1.837766	0.312162	0.582253
N45	N	1.336003	-0.257242	0.082248
N46	N	1.836003	0.242758	0.582248
C47	C	1.430246	-0.294921	-0.000063
C48	C	1.930246	0.205079	0.499937
N49	N	1.526334	-0.260572	-0.082349
N50	N	2.026334	0.239428	0.417651
N51	N	1.528099	-0.191161	-0.082338
N52	N	2.028099	0.308839	0.417662
C53	C	1.433833	-0.154016	-0.000044
C54	C	1.933833	0.345984	0.499956
C55	C	1.537820	-0.405101	-0.000085
C56	C	2.037820	0.094899	0.499915
C57	C	1.535959	-0.478166	-0.000117
C58	C	2.035959	0.021834	0.499883
C59	C	1.314910	-0.489299	-0.000115
C60	C	1.814910	0.010701	0.499885
C61	C	1.316776	-0.416236	-0.000098
C62	C	1.816776	0.083764	0.499902
C63	C	1.428234	-0.374141	-0.000075
C64	C	1.928234	0.125859	0.499925
C65	C	1.653793	0.298306	-0.000068
C66	C	2.153793	0.798306	0.499932
C67	C	1.788412	0.316602	-0.000081
C68	C	2.288412	0.816602	0.499919
C69	C	1.422524	0.401983	-0.000097
C70	C	1.922524	0.901983	0.499903
C71	C	1.424509	0.479738	-0.000119
C72	C	1.924509	0.979738	0.499881
N73	N	1.378075	0.299859	0.344025
N74	N	1.878075	0.799859	0.844025
N75	N	1.486034	0.251204	-0.344148
N76	N	1.986034	0.751204	0.155852
C77	C	1.445167	0.269615	0.416234
C78	C	1.945167	0.769615	0.916234
C79	C	1.418931	0.281452	0.583648
C80	C	1.918931	0.781452	1.083648
H81	H	1.636553	-0.057905	-0.000036
H82	H	2.136553	0.442095	0.499964
C83	C	1.022224	0.157122	-0.000032
C84	C	1.522224	0.657122	0.499968
H85	H	1.086736	0.127879	-0.000013
H86	H	1.586736	0.627879	0.499987
H87	H	0.986707	0.141923	-0.084344
H88	H	1.486707	0.641923	0.415656
H89	H	0.960256	0.153847	0.084300
H90	H	1.460256	0.653847	0.584300
H91	H	1.224167	-0.523576	-0.000122
H92	H	1.724167	-0.023576	0.499878
H93	H	1.639931	0.074639	0.000002
H94	H	2.139931	0.574639	0.500002
H95	H	0.822904	0.208818	-0.000087
H96	H	1.322904	0.708818	0.499913
H97	H	1.342057	0.316106	0.645762
H98	H	1.842057	0.816106	1.145762
H99	H	1.522028	0.234957	0.354116
H100	H	2.022028	0.734957	0.854116
H101	H	1.227542	-0.391030	-0.000094
H102	H	1.727542	0.108970	0.499906
H103	H	0.827994	0.373857	-0.000087
H104	H	1.327994	0.873857	0.499913
C105	C	1.203679	-0.090134	-0.000041
C106	C	1.703679	0.409866	0.499959
H107	H	1.218261	-0.138080	-0.000030
H108	H	1.718261	0.361920	0.499970
H109	H	1.171800	-0.086403	-0.084356
H110	H	1.671800	0.413597	0.415644
H111	H	1.145346	-0.074492	0.084288
H112	H	1.645346	0.425508	0.584288
C113	C	1.207588	0.063289	-0.000030
C114	C	1.707588	0.563289	0.499970
H115	H	1.140942	0.027755	-0.000027
H116	H	1.640942	0.527755	0.499973
H117	H	1.216947	0.085610	-0.084338
H118	H	1.716947	0.585610	0.415662
H119	H	1.190492	0.097508	0.084306
H120	H	1.690492	0.597508	0.584306
H121	H	1.562899	0.216543	0.593739
H122	H	2.062899	0.716543	1.093739
C123	C	1.660415	-0.358793	-0.000079
C124	C	2.160415	0.141207	0.499921
H125	H	1.645828	-0.310845	-0.000054
H126	H	2.145828	0.189155	0.499946
H127	H	1.718749	-0.374429	-0.084398
H128	H	2.218749	0.125571	0.415602
H129	H	1.692289	-0.362528	0.084245
H130	H	2.192289	0.137472	0.584245
C131	C	1.055087	0.362325	-0.000093
C132	C	1.555087	0.862325	0.499907
H133	H	1.141589	0.364887	-0.000102
H134	H	1.641589	0.864887	0.499898
H135	H	1.015108	0.390863	0.084214
H136	H	1.515108	0.890863	0.584214
H137	H	1.041568	0.378936	-0.084430
H138	H	1.541568	0.878936	0.415570
C139	C	1.656505	-0.512220	-0.000109
C140	C	2.156505	-0.012220	0.499891
H141	H	1.723144	-0.476682	-0.000080
H142	H	2.223144	0.023318	0.499920
H143	H	1.673612	-0.546441	-0.084429
H144	H	2.173612	-0.046441	0.415571
H145	H	1.647131	-0.534536	0.084215
H146	H	2.147131	-0.034536	0.584215
H147	H	1.301206	0.334511	0.406145
H148	H	1.801206	0.834511	0.906145
