data_functionalizedCrystal
_audit_creation_method	'MofGen! by Chris Wilmer'
_symmetry_space_group_name_H-M	'P1'
_symmetry_Int_Tables_number	1
_symmetry_cell_setting	triclinic
loop_
_symmetry_equiv_pos_as_xyz
  x,y,z
_cell_length_a	10.723024
_cell_length_b	13.596369
_cell_length_c	10.723023
_cell_angle_alpha	90.004968
_cell_angle_beta	84.467709
_cell_angle_gamma	90.005008
loop_
_atom_site_label
_atom_site_type_symbol
_atom_site_fract_x
_atom_site_fract_y
_atom_site_fract_z
O1	O	1.657189	0.081783	0.175029
O2	O	1.990523	0.415116	0.508363
O3	O	2.323856	0.748449	0.841696
O4	O	1.294037	0.081786	0.191783
O5	O	1.627370	0.415119	0.525116
O6	O	1.960704	0.748453	0.858449
O7	O	1.483990	0.081780	0.001830
O8	O	1.817324	0.415114	0.335163
O9	O	2.150657	0.748447	0.668496
O10	O	1.467236	0.081788	0.364982
O11	O	1.800569	0.415122	0.698316
O12	O	2.133903	0.748455	1.031649
O13	O	1.483971	-0.081803	0.001820
O14	O	1.817304	0.251531	0.335153
O15	O	2.150638	0.584864	0.668486
O16	O	1.294018	-0.081797	0.191772
O17	O	1.627351	0.251536	0.525106
O18	O	1.960684	0.584870	0.858439
O19	O	1.657170	-0.081800	0.175019
O20	O	1.990503	0.251533	0.508352
O21	O	2.323837	0.584866	0.841686
Zn22	Zn	1.475591	-0.107771	0.183394
Zn23	Zn	1.808924	0.225562	0.516727
Zn24	Zn	2.142258	0.558896	0.850061
Zn25	Zn	1.475616	0.107757	0.183408
Zn26	Zn	1.808949	0.441090	0.516741
Zn27	Zn	2.142283	0.774423	0.850074
O28	O	1.467217	-0.081795	0.364972
O29	O	1.800550	0.251539	0.698305
O30	O	2.133883	0.584872	1.031639
C31	C	1.247528	-0.000005	0.190558
C32	C	1.580861	0.333328	0.523892
C33	C	1.914194	0.666661	0.857225
C34	C	1.108973	-0.000004	0.186911
C35	C	1.442307	0.333329	0.520244
C36	C	1.775640	0.666663	0.853577
N37	N	1.475583	-0.254863	0.183384
N38	N	1.808916	0.078471	0.516718
N39	N	2.142249	0.411804	0.850051
C40	C	1.033991	-0.000001	0.293198
C41	C	1.367324	0.333332	0.626532
C42	C	1.700657	0.666666	0.959865
C43	C	0.890787	0.000000	0.289431
C44	C	1.224120	0.333334	0.622764
C45	C	1.557454	0.666667	0.956097
C46	C	1.475614	-0.656154	0.183409
C47	C	1.808948	-0.322820	0.516742
C48	C	2.142281	0.010513	0.850076
C49	C	1.475602	-0.544502	0.183406
C50	C	1.808935	-0.211169	0.516740
C51	C	2.142269	0.122164	0.850073
C52	C	1.475599	-0.455512	0.183398
C53	C	1.808933	-0.122178	0.516731
C54	C	2.142266	0.211155	0.850064
C55	C	1.475586	-0.343853	0.183393
C56	C	1.808919	-0.010520	0.516726
C57	C	2.142252	0.322813	0.850060
C58	C	1.703679	-0.000007	0.176243
C59	C	2.037013	0.333326	0.509577
C60	C	2.370346	0.666660	0.842910
C61	C	1.842234	-0.000002	0.179891
C62	C	2.175567	0.333332	0.513224
C63	C	2.508900	0.666665	0.846558
C64	C	1.482762	-0.000010	-0.044675
C65	C	1.816095	0.333323	0.288658
C66	C	2.149428	0.666656	0.621992
C67	C	1.479114	-0.000007	-0.183229
C68	C	1.812448	0.333326	0.150104
C69	C	2.145781	0.666660	0.483437
N70	N	1.475634	0.254848	0.183408
N71	N	1.808967	0.588182	0.516741
N72	N	2.142301	0.921515	0.850075
C73	C	1.477498	0.084735	-0.244990
C74	C	1.810832	0.418068	0.088344
C75	C	2.144165	0.751402	0.421677
C76	C	1.473729	0.084740	-0.388193
C77	C	1.807062	0.418074	-0.054859
C78	C	2.140395	0.751407	0.278474
C79	C	1.468445	-0.000002	0.411477
C80	C	1.801779	0.333331	0.744810
C81	C	2.135112	0.666665	1.078143
C82	C	1.472093	0.000001	0.550031
C83	C	1.805426	0.333335	0.883364
C84	C	2.138759	0.666668	1.216698
H85	H	1.075812	-0.000004	0.386984
H86	H	1.409146	0.333329	0.720318
H87	H	1.742479	0.666662	1.053651
H88	H	0.906659	0.000002	0.088896
H89	H	1.239992	0.333335	0.422229
H90	H	1.573326	0.666669	0.755562
N91	N	1.479253	0.175760	-0.178357
N92	N	1.812586	0.509094	0.154976
N93	N	2.145920	0.842427	0.488309
N94	N	1.391071	0.235485	-0.182048
N95	N	1.724405	0.568818	0.151285
N96	N	2.057738	0.902152	0.484618
H97	H	1.392310	0.299776	-0.134994
H98	H	1.725643	0.633110	0.198339
H99	H	2.058977	0.966443	0.531672
N100	N	1.477335	-0.091031	-0.249861
N101	N	1.810668	0.242302	0.083472
N102	N	2.144001	0.575636	0.416805
N103	N	1.389896	-0.150751	-0.224671
N104	N	1.723229	0.182583	0.108662
N105	N	2.056563	0.515916	0.441995
H106	H	1.388637	-0.215041	-0.271726
H107	H	1.721970	0.118293	0.061607
H108	H	2.055304	0.451626	0.394941
N109	N	1.472006	0.175752	-0.454832
N110	N	1.805339	0.509085	-0.121499
N111	N	2.138673	0.842418	0.211834
N112	N	1.468957	0.175627	-0.571068
N113	N	1.802290	0.508961	-0.237735
N114	N	2.135623	0.842294	0.095599
H115	H	1.467744	0.239907	-0.618137
H116	H	1.801077	0.573240	-0.284804
H117	H	2.134411	0.906573	0.048529
N118	N	1.473819	-0.091031	-0.383376
N119	N	1.807152	0.242302	-0.050043
N120	N	2.140486	0.575635	0.283290
N121	N	1.472275	-0.170698	-0.441392
N122	N	1.805609	0.162635	-0.108059
N123	N	2.138942	0.495968	0.225274
H124	H	1.473493	-0.234992	-0.394355
H125	H	1.806826	0.098342	-0.061022
H126	H	2.140159	0.431675	0.272312
H127	H	1.067152	0.000019	0.093125
H128	H	1.400485	0.333352	0.426458
H129	H	1.733818	0.666686	0.759792
H130	H	0.826354	0.000007	0.380421
H131	H	1.159688	0.333340	0.713755
H132	H	1.493021	0.666673	1.047088
