data_functionalizedCrystal
_audit_creation_method	'MofGen! by Chris Wilmer'
_symmetry_space_group_name_H-M	'P1'
_symmetry_Int_Tables_number	1
_symmetry_cell_setting	triclinic
loop_
_symmetry_equiv_pos_as_xyz
  x,y,z
_cell_length_a	25.639243
_cell_length_b	25.639239
_cell_length_c	19.805407
_cell_angle_alpha	90.014465
_cell_angle_beta	90.010838
_cell_angle_gamma	90.041410
loop_
_atom_site_label
_atom_site_type_symbol
_atom_site_fract_x
_atom_site_fract_y
_atom_site_fract_z
Zn1	Zn	0.799199	-0.208199	0.382743
Zn2	Zn	0.799130	-0.295611	0.269553
Zn3	Zn	0.711783	-0.208195	0.269565
Zn4	Zn	0.711720	-0.295609	0.382696
O5	O	0.755458	-0.251903	0.326139
O6	O	0.872355	-0.219796	0.367743
O7	O	0.787541	-0.284014	0.174838
O8	O	0.723434	-0.135031	0.284603
O9	O	0.872304	-0.284017	0.284582
O10	O	0.787658	-0.135033	0.367755
O11	O	0.723367	-0.219791	0.174847
O12	O	0.638609	-0.219789	0.284557
O13	O	0.723327	-0.284014	0.477419
O14	O	0.638563	-0.284011	0.367674
O15	O	0.787597	-0.219794	0.477454
O16	O	0.787480	-0.368776	0.284537
O17	O	0.723260	-0.368774	0.367663
C18	C	0.619615	-0.251900	0.326112
C19	C	0.561501	-0.251911	0.326117
C20	C	0.201159	-0.218516	0.369513
C21	C	0.146555	-0.218515	0.369517
O22	O	0.118335	-0.190112	0.406381
N23	N	0.119219	-0.251902	0.326158
C24	C	0.146490	-0.285287	0.282786
O25	O	0.118225	-0.313685	0.245906
C26	C	0.201093	-0.285285	0.282779
C27	C	0.228426	-0.251900	0.326147
C28	C	0.228492	-0.185133	0.412876
C29	C	0.283092	-0.185135	0.412873
C30	C	0.310360	-0.218518	0.369506
C31	C	0.283027	-0.251901	0.326143
C32	C	0.228364	-0.318667	0.239405
C33	C	0.282971	-0.318661	0.239401
C34	C	0.310304	-0.285276	0.282769
C35	C	0.364895	-0.285286	0.282773
N36	N	0.392231	-0.251900	0.326133
C37	C	0.364963	-0.218516	0.369499
C38	C	0.031819	-0.285289	0.282804
C39	C	-0.022783	-0.285295	0.282814
C40	C	-0.022715	-0.218522	0.369544
C41	C	0.031889	-0.218520	0.369537
C42	C	0.059155	-0.251903	0.326163
C43	C	0.479628	-0.218521	0.369489
C44	C	0.534234	-0.218527	0.369484
C45	C	0.534161	-0.285297	0.282751
C46	C	0.479560	-0.285294	0.282759
C47	C	0.452295	-0.251902	0.326130
O48	O	0.393149	-0.313674	0.245926
O49	O	0.393235	-0.190118	0.406367
C50	C	0.755370	-0.387746	0.326108
C51	C	0.755380	-0.445860	0.326118
C52	C	0.788984	-0.806211	0.282929
C53	C	0.789004	-0.860815	0.282938
O54	O	0.817485	-0.889042	0.246184
N55	N	0.755550	-0.888142	0.326184
C56	C	0.722076	-0.860862	0.369428
O57	O	0.693623	-0.889120	0.406214
C58	C	0.722059	-0.806259	0.369422
C59	C	0.755512	-0.778935	0.326169
C60	C	0.822435	-0.778887	0.239680
C61	C	0.822414	-0.724286	0.239670
C62	C	0.788942	-0.697010	0.282910
C63	C	0.755491	-0.724334	0.326159
C64	C	0.688589	-0.778980	0.412670
C65	C	0.688574	-0.724373	0.412660
C66	C	0.722028	-0.697049	0.369407
C67	C	0.721998	-0.642457	0.369389
N68	N	0.755453	-0.615130	0.326143
C69	C	0.788925	-0.642407	0.282904
C70	C	0.722116	-0.975533	0.369439
C71	C	0.722130	-1.030135	0.369442
C72	C	0.789059	-1.030085	0.282953
C73	C	0.789042	-0.975481	0.282947
C74	C	0.755570	-0.948206	0.326193
C75	C	0.788878	-0.527742	0.282886
C76	C	0.788852	-0.473136	0.282878
C77	C	0.721925	-0.473192	0.369370
C78	C	0.721949	-0.527792	0.369375
C79	C	0.755429	-0.555066	0.326131
O80	O	0.693534	-0.614196	0.406126
O81	O	0.817379	-0.614142	0.246131
C82	C	0.891831	-0.251907	0.326167
C83	C	0.949945	-0.251909	0.326178
C84	C	0.755463	-0.251904	0.502682
C85	C	0.755464	-0.251905	0.577914
C86	C	0.755560	-0.115530	0.326185
C87	C	0.755604	-0.057416	0.326205
C88	C	0.788926	-0.218471	0.613277
C89	C	0.788921	-0.218469	0.683966
C90	C	0.755458	-0.251905	0.719290
C91	C	0.721993	-0.285340	0.683921
C92	C	0.721995	-0.285339	0.613234
C93	C	0.721982	-0.285347	0.968995
C94	C	0.721984	-0.285347	1.039687
C95	C	0.788909	-0.218477	1.039726
C96	C	0.788911	-0.218475	0.969039
C97	C	0.755444	-0.251909	0.933677
C98	C	0.755449	-0.251909	0.857028
C99	C	0.755455	-0.251907	0.795937
C100	C	0.755448	-0.251913	1.150283
C101	C	0.755443	-0.251909	1.075051
H102	H	-0.044926	-0.191338	0.404854
H103	H	-0.045033	-0.312486	0.247508
C104	C	0.825655	-0.443081	0.235298
C105	C	0.821439	-0.450621	0.158350
C106	C	0.858241	-0.420568	0.110772
C107	C	0.899258	-0.382976	0.140144
C108	C	0.903476	-0.375434	0.217097
C109	C	0.866674	-0.405487	0.264674
H110	H	0.791074	-0.478450	0.136603
H111	H	0.855119	-0.426151	0.053807
H112	H	0.926501	-0.360729	0.104924
H113	H	0.933841	-0.347605	0.238843
H114	H	0.869796	-0.399904	0.321639
H115	H	0.816142	-0.549942	0.247674
H116	H	0.556372	-0.312479	0.247445
C117	C	0.859217	-0.694237	0.192093
C118	C	0.836589	-0.656741	0.138909
C119	C	0.873395	-0.626697	0.091330
C120	C	0.932831	-0.634148	0.096933
C121	C	0.955463	-0.671646	0.150118
C122	C	0.918656	-0.701690	0.197698
H123	H	0.792588	-0.651223	0.134760
H124	H	0.856642	-0.598939	0.051958
H125	H	0.960077	-0.611908	0.061711
H126	H	0.999463	-0.677163	0.154268
H127	H	0.935410	-0.729448	0.237069
H128	H	0.816162	-0.191250	0.940282
H129	H	0.849695	-0.801090	0.204469
H130	H	0.816282	-0.953237	0.247726
H131	H	0.206119	-0.345852	0.204090
C132	C	0.825728	-0.181689	0.722865
C133	C	0.862539	-0.144912	0.684011
C134	C	0.899345	-0.108129	0.722911
C135	C	0.899341	-0.108123	0.800664
C136	C	0.862529	-0.144901	0.839522
C137	C	0.825723	-0.181684	0.800623
H138	H	0.862543	-0.144916	0.626450
H139	H	0.926596	-0.080903	0.694145
H140	H	0.926588	-0.080893	0.829459
H141	H	0.862525	-0.144898	0.897083
H142	H	0.798472	-0.208910	0.829388
C143	C	0.564298	-0.181800	0.417189
C144	C	0.556797	-0.186158	0.494124
C145	C	0.586859	-0.149431	0.541827
C146	C	0.624422	-0.108347	0.512595
C147	C	0.631925	-0.103987	0.435656
C148	C	0.601863	-0.140714	0.387953
H149	H	0.528989	-0.216573	0.515767
H150	H	0.581304	-0.152659	0.598782
H151	H	0.646676	-0.081160	0.547908
H152	H	0.659733	-0.073572	0.414013
H153	H	0.607418	-0.137486	0.330998
H154	H	0.816177	-0.191245	0.584521
H155	H	0.054017	-0.312479	0.247486
C156	C	0.825883	-1.060095	0.235392
C157	C	0.825902	-1.120157	0.235408
C158	C	0.862723	-1.150169	0.187849
C159	C	0.899525	-1.120120	0.140275
C160	C	0.899508	-1.060055	0.140257
C161	C	0.862687	-1.030043	0.187815
H162	H	0.798657	-1.142404	0.270627
H163	H	0.862736	-1.194633	0.187863
H164	H	0.926783	-1.142337	0.105069
H165	H	0.926752	-1.037808	0.105037
H166	H	0.862674	-0.985579	0.187801
C167	C	0.685186	-0.322129	0.722770
C168	C	0.625751	-0.317869	0.713038
C169	C	0.588947	-0.354663	0.751882
C170	C	0.611578	-0.395717	0.800458
C171	C	0.671016	-0.399978	0.810192
C172	C	0.707820	-0.363184	0.771348
H173	H	0.608996	-0.287477	0.677077
H174	H	0.544947	-0.351508	0.744676
H175	H	0.584333	-0.422954	0.829213
H176	H	0.687771	-0.430370	0.846153
H177	H	0.751820	-0.366339	0.778555
H178	H	0.694884	-1.052378	0.404657
H179	H	0.661319	-0.702168	0.447879
H180	H	0.694742	-0.312559	0.584442
H181	H	0.694855	-0.953328	0.404653
C182	C	0.449492	-0.322021	0.235059
C183	C	0.411927	-0.363105	0.264288
C184	C	0.381865	-0.399829	0.216583
C185	C	0.389367	-0.395469	0.139648
C186	C	0.426934	-0.354384	0.110415
C187	C	0.456997	-0.317659	0.158121
H188	H	0.406371	-0.366334	0.321243
H189	H	0.354055	-0.430244	0.238223
H190	H	0.367113	-0.422655	0.104334
H191	H	0.432490	-0.351155	0.053460
H192	H	0.484806	-0.287245	0.136480
C193	C	0.651791	-0.809024	0.460255
C194	C	0.592355	-0.801572	0.454667
C195	C	0.555555	-0.831614	0.502258
C196	C	0.578191	-0.869109	0.555437
C197	C	0.637630	-0.876562	0.561028
C198	C	0.674430	-0.846520	0.513437
H199	H	0.575595	-0.773815	0.415298
H200	H	0.511554	-0.826096	0.498119
H201	H	0.550950	-0.891348	0.590667
H202	H	0.654390	-0.904319	0.600397
H203	H	0.718431	-0.852038	0.517576
H204	H	0.694671	-0.450975	0.404573
C205	C	0.685167	-0.322124	1.078545
C206	C	0.648352	-0.358898	1.039650
C207	C	0.611538	-0.395673	1.078509
C208	C	0.611539	-0.395674	1.156262
C209	C	0.648356	-0.358899	1.195161
C210	C	0.685170	-0.322124	1.156302
H211	H	0.648351	-0.358898	0.982089
H212	H	0.584285	-0.422896	1.049713
H213	H	0.584287	-0.422897	1.185027
H214	H	0.648358	-0.358899	1.252722
H215	H	0.712424	-0.294901	1.185098
C216	C	0.685149	-0.557855	0.416949
C217	C	0.625711	-0.550419	0.411353
C218	C	0.588916	-0.580478	0.458932
C219	C	0.611558	-0.617973	0.512107
C220	C	0.670999	-0.625410	0.517705
C221	C	0.707795	-0.595351	0.470126
H222	H	0.608947	-0.522662	0.371987
H223	H	0.544914	-0.574973	0.454787
H224	H	0.584320	-0.640224	0.547328
H225	H	0.687763	-0.653167	0.557070
H226	H	0.751797	-0.600856	0.474271
H227	H	0.305168	-0.345846	0.204080
C228	C	0.449643	-0.181792	0.417200
C229	C	0.412132	-0.140700	0.387980
C230	C	0.382147	-0.103974	0.435694
C231	C	0.389674	-0.108338	0.512627
C232	C	0.427187	-0.149431	0.541850
C233	C	0.457171	-0.186158	0.494136
H234	H	0.406559	-0.137468	0.331026
H235	H	0.354378	-0.073554	0.414060
H236	H	0.367477	-0.081151	0.547947
H237	H	0.432760	-0.152663	0.598804
H238	H	0.484941	-0.216577	0.515770
H239	H	0.305342	-0.157948	0.448186
H240	H	0.816157	-0.191252	1.068526
H241	H	0.206296	-0.157945	0.448191
H242	H	0.054140	-0.191334	0.404849
H243	H	0.694739	-0.312578	0.940211
