data_functionalizedCrystal
_audit_creation_method	'MofGen! by Chris Wilmer'
_symmetry_space_group_name_H-M	'P1'
_symmetry_Int_Tables_number	1
_symmetry_cell_setting	triclinic
loop_
_symmetry_equiv_pos_as_xyz
  x,y,z
_cell_length_a	26.210047
_cell_length_b	12.837943
_cell_length_c	12.837942
_cell_angle_alpha	94.828940
_cell_angle_beta	90.005638
_cell_angle_gamma	89.991209
loop_
_atom_site_label
_atom_site_type_symbol
_atom_site_fract_x
_atom_site_fract_y
_atom_site_fract_z
O1	O	0.042419	-1.402343	-0.272126
O2	O	0.042422	-1.099209	-0.258683
O3	O	0.042418	-1.244054	-0.113838
O4	O	0.042424	-1.257498	-0.416971
O5	O	-0.042440	-1.244026	-0.113860
O6	O	-0.042436	-1.099181	-0.258705
O7	O	-0.042439	-1.402314	-0.272148
Cu8	Cu	-0.050185	-1.250745	-0.265429
Cu9	Cu	0.050169	-1.250779	-0.265403
O10	O	-0.042434	-1.257469	-0.416993
C11	C	-0.000006	-1.060126	-0.254153
C12	C	-0.000005	-0.943711	-0.240608
C13	C	-0.000011	-1.239499	-0.074780
C14	C	-0.000010	-1.225954	0.041635
N15	N	-0.120769	-1.250729	-0.265447
C16	C	-0.473285	-1.314910	-0.201281
C17	C	-0.686944	-1.314932	-0.201268
O18	O	-0.714568	-1.369462	-0.146712
N19	N	-0.713663	-1.250782	-0.265380
C20	C	-0.686964	-1.186617	-0.329495
O21	O	-0.714593	-1.132046	-0.384017
C22	C	-0.473307	-1.186591	-0.329501
C23	C	-0.446590	-1.250753	-0.265392
C24	C	-0.446569	-1.379066	-0.137177
C25	C	-0.393157	-1.379065	-0.137185
C26	C	-0.366462	-1.314907	-0.201296
C27	C	-0.393179	-1.250751	-0.265400
C28	C	-0.446609	-1.122421	-0.393609
C29	C	-0.393191	-1.122418	-0.393603
C30	C	-0.366475	-1.186580	-0.329494
C31	C	-0.313073	-1.186591	-0.329520
N32	N	-0.286353	-1.250741	-0.265408
C33	C	-0.313048	-1.314899	-0.201296
C34	C	-0.799138	-1.186637	-0.329488
C35	C	-0.852552	-1.186645	-0.329489
C36	C	-0.852528	-1.314959	-0.201260
C37	C	-0.799113	-1.314956	-0.201267
C38	C	-0.772419	-1.250787	-0.265377
C39	C	-0.200880	-1.314891	-0.201318
C40	C	-0.147464	-1.314887	-0.201335
C41	C	-0.147493	-1.186569	-0.329559
C42	C	-0.200905	-1.186577	-0.329546
C43	C	-0.227597	-1.250741	-0.265418
O44	O	-0.285416	-1.132081	-0.384039
O45	O	-0.285410	-1.369445	-0.146764
C46	C	-0.526697	-1.314912	-0.201273
C47	C	-0.553413	-1.250756	-0.265376
C48	C	-0.526718	-1.186599	-0.329488
C49	C	-0.606827	-1.250764	-0.265377
C50	C	-0.633522	-1.314922	-0.201265
C51	C	-0.606803	-1.379072	-0.137153
C52	C	-0.553392	-1.379070	-0.137161
C53	C	-0.553438	-1.122448	-0.393600
C54	C	-0.606849	-1.122456	-0.393588
C55	C	-0.633544	-1.186614	-0.329476
N56	N	0.120753	-1.250802	-0.265377
C57	C	-0.000009	-1.441398	-0.276679
C58	C	-0.000007	-1.557813	-0.290223
C59	C	-0.000009	-0.718837	-0.403437
C60	C	-0.000008	-0.609454	-0.390716
C61	C	-0.000007	-0.615562	-0.202445
C62	C	-0.000007	-0.724944	-0.215166
C63	C	-0.000008	-0.776578	-0.315666
C64	C	-0.000005	-0.885962	-0.328386
C65	C	-0.000007	-0.892067	-0.140116
C66	C	-0.000006	-0.782685	-0.127395
C67	C	-0.000004	-1.262025	-0.456052
C68	C	-0.000002	-1.275569	-0.572467
C69	C	-0.000001	-1.388784	0.266510
C70	C	0.000000	-1.376062	0.375892
C71	C	-0.000003	-1.187791	0.369785
C72	C	-0.000004	-1.200513	0.260402
C73	C	-0.000004	-1.301012	0.208769
C74	C	-0.000008	-1.313732	0.099384
C75	C	-0.000008	-1.125462	0.093279
C76	C	-0.000007	-1.112741	0.202661
H77	H	-0.125713	-1.367139	-0.149131
H78	H	-0.777363	-1.367201	-0.149064
Cl79	Cl	-0.000003	-0.783751	-0.529775
Cl80	Cl	-0.359637	-1.041741	-0.474202
H81	H	-0.000011	-0.562446	-0.462189
Cl82	Cl	-0.234490	-1.105926	-0.410154
H83	H	-0.000049	-0.573502	-0.120623
H84	H	-0.222607	-1.367138	-0.149098
H85	H	-0.628547	-1.431316	-0.084954
H86	H	-0.874272	-1.367200	-0.149060
H87	H	-0.125750	-1.134336	-0.381761
H88	H	-0.468354	-1.070174	-0.445811
H89	H	-0.000006	-0.928000	-0.410218
Cl90	Cl	-0.000007	-0.717764	-0.001059
Cl91	Cl	0.000011	-1.061460	0.434714
Cl92	Cl	0.000003	-0.964662	-0.029768
Cl93	Cl	-0.000011	-1.440073	0.034474
H94	H	-0.000005	-1.470614	0.224469
H95	H	-0.531643	-1.431317	-0.084958
Cl96	Cl	0.000005	-1.486409	0.448478
H97	H	-0.000006	-1.030917	0.244717
H98	H	-0.000015	-1.053992	0.046254
H99	H	-0.468299	-1.431311	-0.084964
Cl100	Cl	-0.359577	-1.459721	-0.056581
H101	H	-0.777407	-1.134382	-0.381697
Cl102	Cl	-0.640430	-1.041792	-0.474194
Cl103	Cl	-0.886132	-1.105996	-0.410100
H104	H	-0.531707	-1.070202	-0.445806
