data_functionalizedCrystal
_audit_creation_method	'MofGen! by Chris Wilmer'
_symmetry_space_group_name_H-M	'P1'
_symmetry_Int_Tables_number	1
_symmetry_cell_setting	triclinic
loop_
_symmetry_equiv_pos_as_xyz
  x,y,z
_cell_length_a	11.295443
_cell_length_b	16.109301
_cell_length_c	16.109301
_cell_angle_alpha	96.538519
_cell_angle_beta	85.395346
_cell_angle_gamma	94.596936
loop_
_atom_site_label
_atom_site_type_symbol
_atom_site_fract_x
_atom_site_fract_y
_atom_site_fract_z
O1	O	-0.098955	-1.108122	0.111862
O2	O	-0.098974	-0.866061	0.125162
O3	O	-0.098952	-0.993740	-0.002520
O4	O	-0.098977	-0.980442	0.239543
O5	O	0.099101	-0.983742	-0.012520
O6	O	0.099079	-0.856063	0.115162
O7	O	0.099098	-1.098124	0.101861
Cu8	Cu	0.117172	-0.976180	0.107598
Cu9	Cu	-0.117048	-0.988004	0.119425
O10	O	0.099076	-0.970444	0.229543
C11	C	0.000050	-0.830087	0.119623
C12	C	0.000043	-0.737792	0.118008
N13	N	0.281910	-0.967870	0.099280
N14	N	-0.281786	-0.996321	0.127737
C15	C	0.468942	-0.908054	0.039410
C16	C	0.344277	-0.914327	0.045694
C17	C	0.344217	-1.015145	0.146584
C18	C	0.468882	-1.008872	0.140300
C19	C	0.531240	-0.955323	0.086712
C20	C	0.655907	-0.949046	0.080433
C21	C	0.655845	-1.049868	0.181318
C22	C	0.531180	-1.056141	0.187602
C23	C	0.000075	-0.988203	-0.038495
C24	C	0.000077	-0.986587	-0.130790
C25	C	0.000071	-1.134098	0.107400
C26	C	0.000070	-1.226393	0.109015
C27	C	0.000049	-0.515519	0.190016
C28	C	0.000057	-0.428799	0.188491
C29	C	0.000068	-0.448672	0.037002
C30	C	0.000068	-0.535391	0.038527
C31	C	0.000053	-0.568812	0.115037
C32	C	0.000060	-0.395373	0.111987
C33	C	0.000069	-0.301346	0.110334
C34	C	0.000047	-0.662845	0.116690
C35	C	0.000064	-1.058596	-0.353062
C36	C	0.000054	-1.057072	-0.439782
C37	C	0.000046	-0.905584	-0.419907
C38	C	0.000048	-0.907109	-0.333188
C39	C	0.000062	-0.983617	-0.299769
C40	C	0.000051	-0.980568	-0.473207
C41	C	0.000040	-0.978916	-0.567233
C42	C	0.000071	-0.985270	-0.205737
C43	C	0.000046	-0.975982	0.265518
C44	C	0.000037	-0.977598	0.357814
H45	H	0.706677	-0.905442	0.036802
C46	C	-0.000127	-1.138553	-0.497535
C47	C	-0.101999	-1.189772	-0.477265
C48	C	-0.102200	-1.264846	-0.530441
H49	H	-0.000195	-1.126814	-0.553994
H50	H	0.068907	-1.166484	-0.490884
H51	H	-0.171015	-1.161846	-0.483924
H52	H	-0.101952	-1.201534	-0.420816
H53	H	-0.033166	-1.292777	-0.523790
H54	H	-0.102264	-1.253099	-0.586897
H55	H	-0.171312	-1.299610	-0.516691
H56	H	0.000075	-0.578785	-0.022534
C57	C	-0.000141	-0.551700	0.273150
C58	C	-0.102020	-0.529729	0.323633
C59	C	-0.102224	-0.563030	0.400228
H60	H	-0.000204	-0.610979	0.263446
H61	H	0.068889	-0.529898	0.300577
H62	H	-0.171032	-0.551535	0.296212
H63	H	-0.101979	-0.470455	0.333361
H64	H	-0.033194	-0.541228	0.427655
H65	H	-0.102283	-0.622309	0.390515
H66	H	-0.171341	-0.548122	0.434493
H67	H	0.000056	-0.385410	0.249547
H68	H	0.293423	-1.058749	0.190205
C69	C	0.723328	-1.101341	0.232632
C70	C	0.692967	-1.186650	0.211269
C71	C	0.755095	-1.234087	0.258532
H72	H	0.806524	-1.090048	0.221266
H73	H	0.702851	-1.086953	0.290556
H74	H	0.713452	-1.201033	0.153359
H75	H	0.609781	-1.197969	0.222638
H76	H	0.734618	-1.219700	0.316456
H77	H	0.838288	-1.222787	0.247162
H78	H	0.734495	-1.291974	0.244050
H79	H	0.000087	-0.421450	-0.025290
H80	H	0.000043	-0.846048	-0.289794
H81	H	0.000037	-0.843293	-0.447128
C82	C	0.536437	-0.849899	-0.018843
C83	C	0.455194	-0.809855	-0.058935
C84	C	0.517325	-0.756284	-0.112612
H85	H	0.585074	-0.809114	0.012679
H86	H	0.585046	-0.881516	-0.059592
H87	H	0.406606	-0.778240	-0.018191
H88	H	0.406555	-0.850619	-0.090473
H89	H	0.565934	-0.787901	-0.153362
H90	H	0.565960	-0.715504	-0.081084
H91	H	0.462212	-0.729113	-0.139827
C92	C	0.463256	-1.114197	0.245766
C93	C	0.340745	-1.109561	0.241160
C94	C	0.278140	-1.163021	0.294739
H95	H	0.483534	-1.170096	0.229368
H96	H	0.483603	-1.097695	0.301641
H97	H	0.320407	-1.126068	0.185297
H98	H	0.320432	-1.053675	0.257565
H99	H	0.298486	-1.146519	0.350615
H100	H	0.298427	-1.218916	0.278337
H101	H	0.195010	-1.159877	0.291628
H102	H	0.293558	-0.875835	0.007175
H103	H	0.000073	-1.120894	-0.325855
