data_functionalizedCrystal
_audit_creation_method	'MofGen! by Chris Wilmer'
_symmetry_space_group_name_H-M	'P1'
_symmetry_Int_Tables_number	1
_symmetry_cell_setting	triclinic
loop_
_symmetry_equiv_pos_as_xyz
  x,y,z
_cell_length_a	18.426585
_cell_length_b	31.640172
_cell_length_c	31.640172
_cell_angle_alpha	120.007200
_cell_angle_beta	89.989521
_cell_angle_gamma	60.002025
loop_
_atom_site_label
_atom_site_type_symbol
_atom_site_fract_x
_atom_site_fract_y
_atom_site_fract_z
Zr1	Zr	0.699052	0.462696	0.055559
O2	O	0.583138	0.550888	0.123063
O3	O	0.734590	0.374511	0.034854
O4	O	0.734543	0.462709	0.123050
O5	O	0.583217	0.462678	-0.034691
O6	O	0.853968	0.462712	0.123052
O7	O	0.583185	0.462690	0.034867
O8	O	0.854053	0.304942	-0.034714
O9	O	0.583133	0.620448	0.123075
O10	O	0.838867	0.410783	0.026038
O11	O	0.749765	0.410772	-0.025874
O12	O	0.749710	0.514613	0.077965
O13	O	0.660608	0.514602	0.026053
Zr14	Zr	0.889574	0.462682	-0.055376
Zr15	Zr	0.889522	0.462701	0.055561
Zr16	Zr	0.699103	0.462678	-0.055379
Zr17	Zr	0.699044	0.573637	0.055578
Zr18	Zr	0.889582	0.351742	-0.055395
O19	O	0.854036	0.550868	-0.034672
O20	O	0.853962	0.550894	0.123067
O21	O	0.583211	0.550861	-0.034676
O22	O	1.005488	0.374491	-0.122881
O23	O	1.005414	0.374518	0.034858
O24	O	0.734663	0.374485	-0.122885
O25	O	1.005408	0.462701	0.034873
O26	O	0.854083	0.462670	-0.122868
O27	O	0.734657	0.462667	-0.122870
O28	O	1.005441	0.462689	-0.034685
O29	O	0.734531	0.620451	0.123077
O30	O	0.854094	0.304927	-0.122895
O31	O	1.005493	0.304931	-0.122893
O32	O	1.005452	0.304946	-0.034712
O33	O	0.583174	0.620433	0.034894
O34	O	0.734572	0.620437	0.034896
O35	O	0.838916	0.410766	-0.077783
O36	O	0.928018	0.410776	-0.025871
O37	O	0.838860	0.514607	0.026056
O38	O	0.749758	0.514596	-0.025856
C39	C	0.556063	0.462684	0.000088
C40	C	0.475204	0.462682	0.000086
C41	C	0.794323	0.323920	0.000067
C42	C	0.794326	0.276823	0.000059
C43	C	0.179089	0.462700	0.000095
C44	C	0.261475	0.462697	0.000094
C45	C	0.327143	0.462691	0.000091
C46	C	0.409535	0.462688	0.000089
C47	C	0.728501	0.023154	0.038426
C48	C	0.728494	-0.153828	0.038441
O49	O	0.672544	-0.144117	0.071050
N50	N	0.794307	-0.214284	0.000114
C51	C	0.860129	-0.230496	-0.038216
O52	O	0.916112	-0.285979	-0.070812
C53	C	0.860139	-0.053515	-0.038228
C54	C	0.794317	0.006942	0.000098
C55	C	0.662685	0.083608	0.076749
C56	C	0.662685	0.127850	0.076744
C57	C	0.728500	0.111638	0.038415
C58	C	0.794316	0.051184	0.000092
C59	C	0.925964	-0.069727	-0.076556
C60	C	0.925962	-0.025476	-0.076555
C61	C	0.860140	0.034981	-0.038229
C62	C	0.860132	0.079214	-0.038242
N63	N	0.794319	0.139671	0.000084
C64	C	0.728504	0.155883	0.038413
C65	C	0.860118	-0.323411	-0.038208
C66	C	0.860115	-0.367656	-0.038206
C67	C	0.728481	-0.290984	0.038452
C68	C	0.728481	-0.246739	0.038447
C69	C	0.794306	-0.262954	0.000118
C70	C	0.728507	0.248792	0.038398
C71	C	0.728511	0.293035	0.038388
C72	C	0.860147	0.216359	-0.038268
C73	C	0.860141	0.172120	-0.038260
C74	C	0.794317	0.188341	0.000078
O75	O	0.916058	0.069548	-0.070831
O76	O	0.672541	0.211369	0.071010
C77	C	0.728502	-0.021089	0.038432
C78	C	0.794318	-0.081543	0.000109
C79	C	0.860133	-0.097755	-0.038220
C80	C	0.794314	-0.125788	0.000111
C81	C	0.728499	-0.109576	0.038440
C82	C	0.662687	-0.049119	0.076766
C83	C	0.662686	-0.004877	0.076761
C84	C	0.925946	-0.158211	-0.076546
C85	C	0.925940	-0.202451	-0.076537
C86	C	0.860124	-0.186239	-0.038209
C87	C	1.032562	0.462695	0.000095
C88	C	1.113422	0.462697	0.000096
C89	C	0.794248	0.462713	0.138857
C90	C	0.794226	0.462721	0.185953
C91	C	0.794303	0.601459	0.000115
C92	C	0.794299	0.648556	0.000123
C93	C	0.728506	0.462689	0.522229
C94	C	0.728468	0.462703	0.345246
O95	O	0.672530	0.462679	0.322352
N96	N	0.794257	0.462706	0.323112
C97	C	0.860065	0.462702	0.345225
O98	O	0.916027	0.462699	0.322335
C99	C	0.860105	0.462684	0.522206
C100	C	0.794306	0.462687	0.544340
C101	C	0.662712	0.462691	0.544363
C102	C	0.662720	0.462691	0.588608
C103	C	0.728520	0.462688	0.610718
C104	C	0.794313	0.462687	0.588585
C105	C	0.925915	0.462676	0.544316
C106	C	0.925921	0.462670	0.588563
C107	C	0.860122	0.462672	0.610697
C108	C	0.860121	0.462684	0.654940
N109	N	0.794332	0.462681	0.677074
C110	C	0.728531	0.462683	0.654963
C111	C	0.860038	0.462713	0.252309
C112	C	0.860027	0.462719	0.208064
C113	C	0.728431	0.462718	0.208087
C114	C	0.728439	0.462717	0.252334
C115	C	0.794248	0.462710	0.274442
C116	C	0.728551	0.462683	0.747880
C117	C	0.728562	0.462685	0.792130
C118	C	0.860160	0.462683	0.792102
C119	C	0.860147	0.462684	0.747858
C120	C	0.794338	0.462682	0.725747
O121	O	0.916036	0.462701	0.677858
O122	O	0.672588	0.462672	0.677854
C123	C	0.728498	0.462689	0.477984
C124	C	0.794291	0.462687	0.455850
C125	C	0.860092	0.462685	0.477961
C126	C	0.794281	0.462693	0.411606
C127	C	0.728480	0.462695	0.389495
C128	C	0.662690	0.462691	0.411628
C129	C	0.662698	0.462691	0.455873
C130	C	0.925882	0.462689	0.455828
C131	C	0.925868	0.462689	0.411583
C132	C	0.860068	0.462692	0.389472
C133	C	0.794368	0.462672	0.861328
C134	C	0.794362	0.462683	0.814241
C135	C	1.032572	0.323926	0.000071
C136	C	1.113435	0.276831	0.000064
C137	C	0.794387	0.323897	-0.138699
C138	C	0.794413	0.276792	-0.185803
C139	C	1.032637	0.323903	-0.138695
C140	C	1.113522	0.276800	-0.185798
C141	C	0.555989	0.601476	0.138878
C142	C	0.475104	0.648579	0.185980
C143	C	0.556053	0.601453	0.000111
C144	C	0.475190	0.648548	0.000118
C145	C	0.794238	0.601482	0.138881
C146	C	0.794213	0.648587	0.185985
C147	C	1.104874	0.254718	0.027162
C148	C	1.180846	0.210473	0.027165
C149	C	1.265379	0.188339	0.000068
C150	C	1.273939	0.210457	-0.027030
C151	C	1.197967	0.254704	-0.027031
C152	C	0.840960	0.254667	-0.235024
C153	C	0.840981	0.210413	-0.279288
C154	C	0.794458	0.188282	-0.274329
C155	C	0.747905	0.210410	-0.225102
C156	C	0.747880	0.254667	-0.180840
C157	C	1.198025	0.254685	-0.180821
C158	C	1.274032	0.210433	-0.225075
C159	C	1.265535	0.188293	-0.274306
C160	C	1.181023	0.210412	-0.279282
C161	C	1.105018	0.254666	-0.235029
C162	C	0.390601	0.670699	0.181003
C163	C	0.314593	0.714965	0.225257
C164	C	0.323091	0.737107	0.274488
C165	C	0.407602	0.714986	0.279464
C166	C	0.483608	0.670724	0.235211
C167	C	0.483752	0.670666	-0.026975
C168	C	0.407779	0.714922	-0.026966
C169	C	0.323247	0.737058	0.000132
C170	C	0.314687	0.714939	0.027228
C171	C	0.390658	0.670686	0.027223
C172	C	0.840744	0.670705	0.181010
C173	C	0.840738	0.714959	0.225265
C174	C	0.794194	0.737098	0.274495
C175	C	0.747661	0.714976	0.279469
C176	C	0.747674	0.670719	0.235215
H177	H	0.674905	0.342263	0.069597
H178	H	0.383675	0.652679	0.049284
H179	H	0.383665	0.652673	0.140921
Cl180	Cl	0.208361	0.742763	0.218989
H181	H	1.173859	0.192471	0.049232
Cl182	Cl	0.998788	0.282458	-0.241295
H183	H	0.878845	0.272682	-0.239072
Cl184	Cl	1.380215	0.182622	-0.061095
H185	H	0.245850	0.732968	0.049291
Cl186	Cl	0.227531	0.792751	0.330117
H187	H	1.204960	0.272705	-0.140738
H188	H	0.414511	0.733020	0.319553
H189	H	0.552576	0.652646	-0.049045
Cl190	Cl	0.227747	0.792690	0.000133
Cl191	Cl	0.589837	0.642917	0.241478
H192	H	0.878629	0.732966	0.221204
Cl193	Cl	0.794185	0.792737	0.330125
H194	H	0.878646	0.652686	0.140928
H195	H	0.979465	0.462686	0.473826
H196	H	0.674852	0.462721	0.190078
H197	H	0.414766	0.732925	-0.049033
H198	H	0.609086	0.044347	0.107969
H199	H	0.913732	0.462684	0.810113
H200	H	0.709978	0.272674	-0.140763
H201	H	0.878893	0.192401	-0.319366
Cl202	Cl	1.170356	0.182571	-0.341177
H203	H	0.674879	-0.197514	0.069653
Cl204	Cl	1.380264	0.182633	-0.218807
Cl205	Cl	1.361095	0.132657	-0.329934
H206	H	0.709778	0.652716	0.239273
H207	H	0.709767	0.733008	0.319559
H208	H	0.674909	0.262008	0.069617
Cl209	Cl	0.579933	0.104003	0.124940
Cl210	Cl	0.579935	0.203849	0.124929
H211	H	0.674892	-0.277790	0.069661
H212	H	0.913706	-0.416880	-0.069419
H213	H	0.913723	-0.336624	-0.069422
H214	H	1.036050	0.272739	0.049234
Cl215	Cl	0.689426	0.182580	-0.218877
H216	H	0.979566	-0.038686	-0.107767
Cl217	Cl	1.008716	-0.145723	-0.124741
H218	H	0.913730	0.122892	-0.069472
H219	H	0.609095	-0.035926	0.107974
Cl220	Cl	0.942879	0.195990	-0.086451
Cl221	Cl	1.008693	-0.278454	-0.124726
H222	H	0.979543	-0.171421	-0.107758
H223	H	0.794486	0.152245	-0.310375
H224	H	0.674964	0.462680	0.729882
Cl225	Cl	0.580003	0.462688	0.616426
Cl226	Cl	0.579980	0.462694	0.516574
Cl227	Cl	0.645836	0.462690	0.819954
H228	H	0.674860	0.462718	0.270353
H229	H	0.913629	0.462708	0.270306
Cl230	Cl	1.008640	0.462671	0.516498
Cl231	Cl	0.942738	0.462727	0.180249
H232	H	0.979513	0.462662	0.606560
Cl233	Cl	1.008593	0.462690	0.383764
Cl234	Cl	0.579976	0.462693	0.483692
Cl235	Cl	0.942861	0.462690	0.720038
H236	H	0.609110	0.462696	0.393620
H237	H	1.327232	0.152310	0.000073
H238	H	1.204951	0.272702	-0.049100
