data_functionalizedCrystal
_audit_creation_method	'MofGen! by Chris Wilmer'
_symmetry_space_group_name_H-M	'P1'
_symmetry_Int_Tables_number	1
_symmetry_cell_setting	triclinic
loop_
_symmetry_equiv_pos_as_xyz
  x,y,z
_cell_length_a	9.065215
_cell_length_b	27.731996
_cell_length_c	8.140239
_cell_angle_alpha	89.990537
_cell_angle_beta	89.997810
_cell_angle_gamma	83.818042
loop_
_atom_site_label
_atom_site_type_symbol
_atom_site_fract_x
_atom_site_fract_y
_atom_site_fract_z
O1	O	1.955854	0.070861	-0.136620
O2	O	1.526195	0.076676	-0.136629
O3	O	1.754409	0.003461	-0.136589
O4	O	1.727640	0.144076	-0.136660
O5	O	1.754396	0.003460	0.136639
O6	O	1.526183	0.076675	0.136598
O7	O	1.955841	0.070860	0.136607
Zn8	Zn	1.741010	0.073768	0.179983
Zn9	Zn	1.741027	0.073769	-0.180005
O10	O	1.727628	0.144075	0.136567
C11	C	1.471238	0.076117	-0.000016
C12	C	1.307502	0.074447	-0.000018
C13	C	1.753853	-0.014550	0.000031
C14	C	1.752196	-0.068218	0.000047
C15	C	1.741783	-0.401005	-0.148969
C16	C	1.735493	-0.602706	-0.148998
O17	O	1.734622	-0.628782	-0.275664
N18	N	1.734705	-0.627929	-0.000064
C19	C	1.735480	-0.602723	0.148889
O20	O	1.734650	-0.628804	0.275566
C21	C	1.741759	-0.401022	0.148916
C22	C	1.742562	-0.375803	-0.000028
C23	C	1.742584	-0.375785	-0.297902
C24	C	1.744164	-0.325363	-0.297893
C25	C	1.744943	-0.300161	-0.148952
C26	C	1.744142	-0.325381	-0.000019
C27	C	1.742523	-0.375817	0.297867
C28	C	1.744089	-0.325389	0.297861
C29	C	1.744892	-0.300169	0.148916
C30	C	1.746502	-0.249757	0.148930
N31	N	1.747290	-0.224534	-0.000004
C32	C	1.746510	-0.249736	-0.148945
C33	C	1.732186	-0.708619	0.148864
C34	C	1.730619	-0.759044	0.148858
C35	C	1.730630	-0.759023	-0.149030
C36	C	1.732207	-0.708598	-0.149022
C37	C	1.732974	-0.683396	-0.000071
C38	C	1.749831	-0.143846	-0.148916
C39	C	1.751417	-0.093420	-0.148894
C40	C	1.751399	-0.093445	0.148993
C41	C	1.749820	-0.143867	0.148972
C42	C	1.749031	-0.169066	0.000004
O43	O	1.747357	-0.223649	0.275529
O44	O	1.747308	-0.223645	-0.275604
C45	C	1.740202	-0.451427	-0.148978
C46	C	1.739401	-0.476647	-0.000046
C47	C	1.740180	-0.451444	0.148895
C48	C	1.737834	-0.527072	-0.000052
C49	C	1.737055	-0.552274	-0.148993
C50	C	1.737843	-0.527051	-0.297928
C51	C	1.739423	-0.476629	-0.297919
C52	C	1.739392	-0.476667	0.297830
C53	C	1.737813	-0.527089	0.297809
C54	C	1.737034	-0.552292	0.148868
C55	C	2.010798	0.071419	-0.000009
C56	C	2.174534	0.073089	-0.000018
C57	C	1.728184	0.162086	-0.000056
C58	C	1.729840	0.215754	-0.000083
N59	N	1.741010	0.073766	0.425666
N60	N	1.741039	0.073766	-0.425688
H61	H	1.752074	-0.072888	-0.270187
H62	H	1.740029	-0.456153	0.419118
O63	O	1.732749	-0.684044	-0.293610
C64	C	1.605811	-0.649974	-0.302533
H65	H	1.563459	-0.640780	-0.173213
H66	H	1.515710	-0.665972	-0.375991
C67	C	1.698093	-0.614860	-0.546574
C68	C	1.646082	-0.603565	-0.387740
H69	H	1.722930	-0.586233	-0.599140
H70	H	1.783611	-0.637814	-0.540568
H71	H	1.623000	-0.628192	-0.607769
H72	H	1.721181	-0.590238	-0.326543
H73	H	1.560577	-0.580607	-0.393738
H74	H	1.749181	-0.164357	-0.270219
O75	O	1.729600	-0.783521	-0.293671
C76	C	1.600902	-0.807778	-0.302536
H77	H	1.512057	-0.789144	-0.218009
H78	H	1.628608	-0.847107	-0.262509
C79	C	1.652031	-0.829205	-0.584286
C80	C	1.542905	-0.806316	-0.480480
H81	H	1.616257	-0.828306	-0.694050
H82	H	1.738740	-0.812864	-0.578313
H83	H	1.675109	-0.861977	-0.550910
H84	H	1.519842	-0.773544	-0.513843
H85	H	1.456190	-0.822652	-0.486462
O86	O	1.752389	-0.068993	0.293718
C87	C	1.879763	-0.086241	0.384397
H88	H	1.968698	-0.103532	0.297286
H89	H	1.849935	-0.114405	0.477249
C90	C	1.829826	-0.022440	0.582687
C91	C	1.939061	-0.043675	0.475693
H92	H	1.866401	0.003815	0.639009
H93	H	1.744008	-0.010821	0.521599
H94	H	1.804979	-0.045915	0.660048
H95	H	1.963892	-0.020202	0.398322
H96	H	2.024885	-0.055289	0.536770
O97	O	1.748797	-0.168341	0.293689
C98	C	1.621399	-0.151095	0.384322
H99	H	1.532508	-0.133784	0.297183
H100	H	1.651215	-0.122947	0.477204
C101	C	1.671212	-0.214924	0.582595
C102	C	1.562031	-0.193667	0.475567
H103	H	1.634594	-0.241184	0.638885
H104	H	1.757046	-0.226543	0.521538
H105	H	1.696050	-0.191463	0.659982
H106	H	1.537209	-0.217126	0.398170
H107	H	1.476191	-0.182054	0.536613
H108	H	1.744813	-0.304833	-0.419179
H109	H	1.741944	-0.396299	-0.419194
H110	H	1.729988	-0.779574	0.270143
H111	H	1.732818	-0.688105	0.270165
H112	H	1.741872	-0.396342	0.419154
H113	H	1.744691	-0.304871	0.419158
H114	H	1.740076	-0.456099	-0.419205
H115	H	1.737215	-0.547579	-0.419201
H116	H	1.737171	-0.547620	0.419107
