data_functionalizedCrystal
_audit_creation_method	'MofGen! by Chris Wilmer'
_symmetry_space_group_name_H-M	'P1'
_symmetry_Int_Tables_number	1
_symmetry_cell_setting	triclinic
loop_
_symmetry_equiv_pos_as_xyz
  x,y,z
_cell_length_a	18.101398
_cell_length_b	18.101397
_cell_length_c	21.395355
_cell_angle_alpha	89.980066
_cell_angle_beta	89.980111
_cell_angle_gamma	90.018618
loop_
_atom_site_label
_atom_site_type_symbol
_atom_site_fract_x
_atom_site_fract_y
_atom_site_fract_z
Zn1	Zn	1.132216	-0.294952	-0.354177
Zn2	Zn	1.632216	0.205048	0.145823
Zn3	Zn	1.132123	-0.418775	-0.249397
Zn4	Zn	1.632123	0.081225	0.250603
Zn5	Zn	1.008363	-0.294948	-0.249423
Zn6	Zn	1.508363	0.205052	0.250577
Zn7	Zn	1.008349	-0.418752	-0.354146
Zn8	Zn	1.508349	0.081248	0.145854
O9	O	1.070263	-0.356857	-0.301786
O10	O	1.570263	0.143143	0.198214
O11	O	1.235837	-0.311389	-0.340281
O12	O	1.735837	0.188611	0.159719
O13	O	1.115673	-0.402357	-0.161723
O14	O	1.615673	0.097643	0.338277
O15	O	1.024837	-0.191316	-0.263342
O16	O	1.524837	0.308684	0.236658
O17	O	1.235768	-0.402361	-0.263299
O18	O	1.735768	0.097639	0.236701
O19	O	1.115832	-0.191318	-0.340305
O20	O	1.615832	0.308682	0.159695
O21	O	1.024747	-0.311382	-0.161741
O22	O	1.524747	0.188618	0.338259
O23	O	0.904728	-0.311360	-0.263312
O24	O	1.404728	0.188640	0.236688
O25	O	1.024813	-0.402322	-0.441828
O26	O	1.524813	0.097678	0.058172
O27	O	0.904718	-0.402318	-0.340252
O28	O	1.404718	0.097682	0.159748
O29	O	1.115818	-0.311366	-0.441851
O30	O	1.615818	0.188634	0.058149
O31	O	1.115659	-0.522405	-0.263269
O32	O	1.615659	-0.022405	0.236731
O33	O	1.024723	-0.522388	-0.340227
O34	O	1.524723	-0.022388	0.159773
C35	C	0.877852	-0.356836	-0.301781
C36	C	1.377852	0.143164	0.198219
C37	C	0.795538	-0.356846	-0.301794
C38	C	1.295538	0.143154	0.198206
C39	C	0.644830	-0.356859	-0.301793
C40	C	1.144830	0.143141	0.198207
C41	C	0.613494	-0.414176	-0.350127
C42	C	1.113494	0.085824	0.149873
C43	C	0.527876	-0.414408	-0.349984
C44	C	1.027876	0.085592	0.150016
C45	C	0.496447	-0.356873	-0.301793
C46	C	0.996447	0.143127	0.198207
C47	C	0.527496	-0.377685	-0.235681
C48	C	1.027496	0.122315	0.264319
C49	C	0.613141	-0.378093	-0.235961
C50	C	1.113141	0.121907	0.264039
C51	C	0.613296	-0.278589	-0.318995
C52	C	1.113296	0.221411	0.181005
C53	C	0.527646	-0.279018	-0.320451
C54	C	1.027646	0.220982	0.179549
C55	C	0.412588	-0.356879	-0.301789
C56	C	0.912588	0.143121	0.198211
C57	C	0.728689	-0.356855	-0.301793
C58	C	1.228689	0.143145	0.198207
C59	C	1.070199	-0.549267	-0.301755
C60	C	1.570199	-0.049267	0.198245
C61	C	1.070240	-0.631581	-0.301763
C62	C	1.570240	-0.131581	0.198237
C63	C	1.070335	-0.930672	-0.301821
C64	C	1.570335	-0.430672	0.198179
C65	C	1.127390	-0.899327	-0.253271
C66	C	1.627390	-0.399327	0.246729
C67	C	1.127587	-0.813708	-0.253396
C68	C	1.627587	-0.313708	0.246604
C69	C	1.070288	-0.782290	-0.301792
C70	C	1.570288	-0.282290	0.198208
C71	C	1.091451	-0.813312	-0.367833
C72	C	1.591451	-0.313312	0.132167
C73	C	1.091893	-0.898957	-0.367568
C74	C	1.591893	-0.398957	0.132432
C75	C	0.991964	-0.899175	-0.284901
C76	C	1.491964	-0.399175	0.215099
C77	C	0.992351	-0.813525	-0.283426
C78	C	1.492351	-0.313525	0.216574
C79	C	1.070260	-0.698430	-0.301779
C80	C	1.570260	-0.198430	0.198221
C81	C	1.070364	-1.014532	-0.301837
C82	C	1.570364	-0.514532	0.198163
C83	C	1.263425	-0.356878	-0.301790
C84	C	1.763425	0.143122	0.198210
C85	C	1.345739	-0.356887	-0.301792
C86	C	1.845739	0.143113	0.198208
C87	C	1.070324	-0.356842	-0.465209
C88	C	1.570324	0.143158	0.034791
C89	C	1.070350	-0.356835	-0.534850
C90	C	1.570350	0.143165	-0.034850
C91	C	1.070347	-0.163695	-0.301830
C92	C	1.570347	0.336305	0.198170
C93	C	1.070382	-0.081381	-0.301849
C94	C	1.570382	0.418619	0.198151
C95	C	1.117735	-0.309473	-0.567576
C96	C	1.617735	0.190527	-0.067576
C97	C	1.117734	-0.309441	-0.633012
C98	C	1.617734	0.190559	-0.133012
C99	C	1.070356	-0.356785	-0.665719
C100	C	1.570356	0.143215	-0.165719
C101	C	1.022963	-0.404151	-0.632985
C102	C	1.522963	0.095849	-0.132985
C103	C	1.022960	-0.404176	-0.567551
C104	C	1.522960	0.095824	-0.067551
C105	C	1.064487	-0.423466	-0.769383
C106	C	1.564487	0.076534	-0.269383
C107	C	1.064495	-0.423442	-0.834816
C108	C	1.564495	0.076558	-0.334816
C109	C	1.070361	-0.356707	-0.867540
C110	C	1.570361	0.143293	-0.367540
C111	C	1.076234	-0.289993	-0.834822
C112	C	1.576234	0.210007	-0.334822
C113	C	1.076231	-0.290018	-0.769388
C114	C	1.576231	0.209982	-0.269388
C115	C	1.070354	-0.356763	-0.736671
C116	C	1.570354	0.143237	-0.236671
C117	C	1.117746	-0.309306	-0.971218
C118	C	1.617746	0.190694	-0.471218
C119	C	1.117740	-0.309273	-1.036655
C120	C	1.617740	0.190727	-0.536655
C121	C	1.022973	-0.403989	-1.036627
C122	C	1.522973	0.096011	-0.536627
C123	C	1.022976	-0.404015	-0.971191
C124	C	1.522976	0.095985	-0.471191
C125	C	1.070366	-0.356675	-0.938491
C126	C	1.570366	0.143325	-0.438491
C127	C	1.070244	-0.356818	-0.138998
C128	C	1.570244	0.143182	0.361002
C129	C	1.070361	-0.356616	-0.069357
C130	C	1.570361	0.143384	0.430643
H131	H	1.114346	-0.792736	-0.204428
H132	H	1.614346	-0.292736	0.295572
H133	H	1.148096	-0.791810	-0.382408
H134	H	1.648096	-0.291810	0.117592
H135	H	0.634992	-0.471845	-0.338852
H136	H	1.134992	0.028155	0.161148
O137	O	0.977029	-0.450135	-0.939427
O138	O	1.477029	0.049865	-0.439427
C139	C	0.993168	-0.523940	-0.955431
C140	C	1.493168	-0.023940	-0.455431
H141	H	1.052330	-0.527681	-0.973433
H142	H	1.552330	-0.027681	-0.473433
H143	H	0.986769	-0.560544	-0.912397
H144	H	1.486769	-0.060544	-0.412397
H145	H	0.953458	-0.543277	-0.993403
H146	H	1.453458	-0.043277	-0.493403
H147	H	1.059717	-0.477764	-0.861450
H148	H	1.559717	0.022236	-0.361450
O149	O	0.938950	-0.788104	-0.322605
O150	O	1.438950	-0.288104	0.177395
C151	C	0.955165	-0.810160	-0.384297
C152	C	1.455165	-0.310160	0.115703
H153	H	0.992579	-0.860792	-0.383260
H154	H	1.492579	-0.360792	0.116740
H155	H	0.901654	-0.824330	-0.409695
H156	H	1.401654	-0.324330	0.090305
H157	H	0.984372	-0.763194	-0.409822
H158	H	1.484372	-0.263194	0.090178
O159	O	0.969120	-0.925039	-0.228422
O160	O	1.469120	-0.425039	0.271578
C161	C	1.023648	-0.972076	-0.203333
C162	C	1.523648	-0.472076	0.296667
H163	H	1.079493	-0.958240	-0.225034
H164	H	1.579493	-0.458240	0.274966
H165	H	1.026623	-0.964055	-0.150547
H166	H	1.526623	-0.464055	0.349453
H167	H	1.008923	-1.031966	-0.214128
H168	H	1.508923	-0.531966	0.285872
H169	H	0.633869	-0.338129	-0.198713
H170	H	1.133869	0.161871	0.301287
H171	H	1.059512	-0.477796	-0.742746
H172	H	1.559512	0.022204	-0.242746
H173	H	1.052157	-0.919691	-0.404988
H174	H	1.552157	-0.419691	0.095012
H175	H	1.185125	-0.920799	-0.264336
H176	H	1.685125	-0.420799	0.235664
H177	H	0.976393	-0.793256	-0.234825
H178	H	1.476393	-0.293256	0.265175
H179	H	1.156325	-0.270700	-1.063299
H180	H	1.656325	0.229300	-0.563299
O181	O	1.196892	-0.789289	-0.266682
O182	O	1.696892	-0.289289	0.233318
C183	C	1.246496	-0.815518	-0.220989
C184	C	1.746496	-0.315518	0.279011
H185	H	1.222548	-0.867007	-0.197916
H186	H	1.722548	-0.367007	0.302084
H187	H	1.301491	-0.829780	-0.243984
H188	H	1.801491	-0.329780	0.256016
H189	H	1.255561	-0.770977	-0.184119
H190	H	1.755561	-0.270977	0.315881
H191	H	0.506026	-0.434265	-0.220896
H192	H	1.006026	0.065735	0.279104
O193	O	0.976854	-0.450085	-0.535730
O194	O	1.476854	0.049915	-0.035730
C195	C	0.929053	-0.407936	-0.497853
C196	C	1.429053	0.092064	0.002147
H197	H	0.924502	-0.349599	-0.517569
H198	H	1.424502	0.150401	-0.017569
H199	H	0.872049	-0.434715	-0.497093
H200	H	1.372049	0.065285	0.002907
H201	H	0.951953	-0.405409	-0.448268
H202	H	1.451953	0.094591	0.051732
O203	O	0.941336	-0.923443	-0.327125
O204	O	1.441336	-0.423443	0.172875
C205	C	0.976520	-0.968637	-0.371775
C206	C	1.476520	-0.468637	0.128225
H207	H	1.029627	-0.992014	-0.351086
H208	H	1.529627	-0.492014	0.148914
H209	H	0.938167	-1.015963	-0.385309
H210	H	1.438167	-0.515963	0.114691
H211	H	0.990214	-0.934481	-0.415034
H212	H	1.490214	-0.434481	0.084966
H213	H	0.634924	-0.259572	-0.366392
H214	H	1.134924	0.240428	0.133608
H215	H	1.114308	-0.919959	-0.204155
H216	H	1.614308	-0.419959	0.295845
H217	H	1.156323	-0.270924	-0.540956
H218	H	1.656323	0.229076	-0.040956
H219	H	1.051166	-0.792960	-0.404979
H220	H	1.551166	-0.292960	0.095021
H221	H	1.156318	-0.270869	-0.659663
H222	H	1.656318	0.229131	-0.159663
H223	H	1.081012	-0.235698	-0.742752
H224	H	1.581012	0.264302	-0.242752
O225	O	1.082059	-0.225155	-0.866577
O226	O	1.582059	0.274845	-0.366577
C227	C	1.149011	-0.190109	-0.850603
C228	C	1.649011	0.309891	-0.350603
H229	H	1.189889	-0.233035	-0.832626
H230	H	1.689889	0.266965	-0.332626
H231	H	1.172944	-0.161694	-0.893647
H232	H	1.672944	0.338306	-0.393647
H233	H	1.138339	-0.147261	-0.812622
H234	H	1.638339	0.352739	-0.312622
H235	H	0.507138	-0.337217	-0.198680
H236	H	1.007138	0.162783	0.301320
O237	O	1.163796	-0.263246	-0.939546
O238	O	1.663796	0.236754	-0.439546
C239	C	1.205628	-0.221441	-0.982466
C240	C	1.705628	0.278559	-0.482466
H241	H	1.175295	-0.218854	-1.029101
H242	H	1.675295	0.281146	-0.529101
H243	H	1.213551	-0.163101	-0.963562
H244	H	1.713551	0.336899	-0.463562
H245	H	1.261862	-0.248561	-0.989442
H246	H	1.761862	0.251439	-0.489442
H247	H	0.506884	-0.401427	-0.398997
H248	H	1.006884	0.098573	0.101003
H249	H	0.634118	-0.401346	-0.399292
H250	H	1.134118	0.098654	0.100708
O251	O	0.503345	-0.260379	-0.378488
O252	O	1.003345	0.239621	0.121512
C253	C	0.458362	-0.317477	-0.402162
C254	C	0.958362	0.182523	0.097838
H255	H	0.435088	-0.351246	-0.361705
H256	H	0.935088	0.148754	0.138295
H257	H	0.410958	-0.292535	-0.430168
H258	H	0.910958	0.207465	0.069832
H259	H	0.492663	-0.354822	-0.433755
H260	H	0.992663	0.145178	0.066245
H261	H	1.149178	-0.918881	-0.381901
H262	H	1.649178	-0.418881	0.118099
H263	H	0.984390	-0.442530	-1.063256
H264	H	1.484390	0.057470	-0.563256
O265	O	0.502095	-0.225477	-0.281471
O266	O	1.002095	0.274523	0.218529
C267	C	0.455193	-0.257386	-0.236282
C268	C	0.955193	0.242614	0.263718
H269	H	0.468900	-0.318543	-0.231084
H270	H	0.968900	0.181457	0.268916
H271	H	0.463509	-0.228366	-0.189529
H272	H	0.963509	0.271634	0.310471
H273	H	0.395244	-0.251050	-0.251691
H274	H	0.895244	0.248950	0.248309
H275	H	0.984386	-0.442696	-0.659619
H276	H	1.484386	0.057304	-0.159619
H277	H	0.507363	-0.472411	-0.338571
H278	H	1.007363	0.027589	0.161429
H279	H	0.633561	-0.235889	-0.283795
H280	H	1.133561	0.264111	0.216205
H281	H	0.633092	-0.435297	-0.221423
H282	H	1.133092	0.064703	0.278577
