data_functionalizedCrystal
_audit_creation_method	'MofGen! by Chris Wilmer'
_symmetry_space_group_name_H-M	'P1'
_symmetry_Int_Tables_number	1
_symmetry_cell_setting	triclinic
loop_
_symmetry_equiv_pos_as_xyz
  x,y,z
_cell_length_a	18.101398
_cell_length_b	18.101397
_cell_length_c	12.759393
_cell_angle_alpha	90.037652
_cell_angle_beta	90.017030
_cell_angle_gamma	90.018618
loop_
_atom_site_label
_atom_site_type_symbol
_atom_site_fract_x
_atom_site_fract_y
_atom_site_fract_z
Zn1	Zn	1.132195	-0.294822	0.593896
Zn2	Zn	1.132108	-0.418684	0.418197
Zn3	Zn	1.008348	-0.294857	0.418240
Zn4	Zn	1.008328	-0.418623	0.593843
O5	O	1.070245	-0.356747	0.506044
O6	O	1.235817	-0.311264	0.570593
O7	O	1.115664	-0.402298	0.271182
O8	O	1.024822	-0.191219	0.441581
O9	O	1.235753	-0.402265	0.441508
O10	O	1.115812	-0.191194	0.570634
O11	O	1.024738	-0.311323	0.271213
O12	O	0.904713	-0.311263	0.441530
O13	O	1.024787	-0.402160	0.740871
O14	O	0.904698	-0.402194	0.570545
O15	O	1.115792	-0.311205	0.740910
O16	O	1.115644	-0.522309	0.441457
O17	O	1.024703	-0.522264	0.570504
C18	C	0.877835	-0.356726	0.506037
C19	C	0.795520	-0.356735	0.506059
C20	C	0.644812	-0.356749	0.506057
C21	C	0.613474	-0.414048	0.587104
C22	C	0.527855	-0.414280	0.586864
C23	C	0.496429	-0.356763	0.506057
C24	C	0.527482	-0.377598	0.395198
C25	C	0.613127	-0.378006	0.395667
C26	C	0.613277	-0.278472	0.534901
C27	C	0.527627	-0.278901	0.537342
C28	C	0.412570	-0.356769	0.506050
C29	C	0.728671	-0.356744	0.506056
C30	C	1.070182	-0.549157	0.505993
C31	C	1.070222	-0.631471	0.506006
C32	C	1.070317	-0.930562	0.506102
C33	C	1.127375	-0.899234	0.424692
C34	C	1.127573	-0.813616	0.424903
C35	C	1.070270	-0.782180	0.506054
C36	C	1.091430	-0.813178	0.616794
C37	C	1.091871	-0.898823	0.616350
C38	C	0.991947	-0.899071	0.477731
C39	C	0.992334	-0.813422	0.475259
C40	C	1.070242	-0.698320	0.506033
C41	C	1.070346	-1.014422	0.506130
C42	C	1.263407	-0.356768	0.506052
C43	C	1.345721	-0.356776	0.506055
C44	C	1.070297	-0.356672	0.780077
C45	C	1.070319	-0.356640	0.896854
C46	C	1.070329	-0.163585	0.506118
C47	C	1.070365	-0.081270	0.506150
C48	C	1.070236	-0.356767	0.233077
C49	C	1.070357	-0.356591	0.116300
C50	C	1.117712	-0.309275	0.951738
C51	C	1.117729	-0.309248	1.061462
C52	C	1.022959	-0.403958	1.061409
C53	C	1.022939	-0.403980	0.951687
C54	C	1.172429	-0.254597	0.951770
C55	C	1.172446	-0.254570	1.061494
H56	H	0.633079	-0.435216	0.371289
Br57	Br	1.223606	-0.935012	0.455614
H58	H	1.226894	-0.275160	0.917729
H59	H	0.633857	-0.338056	0.333208
H60	H	0.507334	-0.263183	0.618929
H61	H	1.151930	-0.200076	1.095551
Br62	Br	1.268041	-0.280162	1.111129
H63	H	1.052133	-0.919543	0.679097
H64	H	1.148073	-0.791670	0.641234
Br65	Br	0.491695	-0.471908	0.353864
H66	H	0.506236	-0.233956	0.482663
H67	H	1.185624	-0.793073	0.443674
Br68	Br	0.492859	-0.392617	0.723847
Br69	Br	0.649319	-0.246746	0.667368
H70	H	0.634094	-0.401200	0.669546
H71	H	1.149156	-0.918742	0.640384
H72	H	0.633544	-0.235785	0.475876
H73	H	1.114334	-0.792661	0.342791
H74	H	1.114296	-0.919884	0.342334
H75	H	1.051142	-0.792812	0.679081
H76	H	0.634972	-0.471722	0.568199
Br77	Br	0.959862	-0.935185	0.345475
H78	H	0.976379	-0.793170	0.393763
H79	H	0.947535	-0.792030	0.530212
H80	H	0.507343	-0.472287	0.567727
Br81	Br	0.921089	-0.932837	0.576555
Br82	Br	0.958659	-0.468201	1.135831
Br83	Br	0.493559	-0.310174	0.291779
Br84	Br	0.958603	-0.468249	0.877204
Br85	Br	1.146865	-0.159009	0.902179
