data_functionalizedCrystal
_audit_creation_method	'MofGen! by Chris Wilmer'
_symmetry_space_group_name_H-M	'P1'
_symmetry_Int_Tables_number	1
_symmetry_cell_setting	triclinic
loop_
_symmetry_equiv_pos_as_xyz
  x,y,z
_cell_length_a	19.288864
_cell_length_b	17.699083
_cell_length_c	18.366186
_cell_angle_alpha	89.992864
_cell_angle_beta	89.977106
_cell_angle_gamma	83.209630
loop_
_atom_site_label
_atom_site_type_symbol
_atom_site_fract_x
_atom_site_fract_y
_atom_site_fract_z
O1	O	0.921465	0.094417	-0.060785
O2	O	1.421465	0.594417	0.439215
O3	O	0.719219	0.107154	-0.060735
O4	O	1.219219	0.607154	0.439265
O5	O	0.826056	-0.009412	-0.060755
O6	O	1.326056	0.490588	0.439245
O7	O	0.814628	0.210983	-0.060765
O8	O	1.314628	0.710983	0.439235
O9	O	0.826038	-0.009417	0.060345
O10	O	1.326038	0.490583	0.560345
O11	O	0.719201	0.107148	0.060364
O12	O	1.219201	0.607148	0.560364
O13	O	0.921446	0.094412	0.060315
O14	O	1.421446	0.594412	0.560315
Zn15	Zn	0.820321	0.100779	0.079567
Zn16	Zn	1.320321	0.600779	0.579567
Zn17	Zn	0.820345	0.100786	-0.079987
Zn18	Zn	1.320345	0.600786	0.420013
O19	O	0.814610	0.210977	0.060335
O20	O	1.314610	0.710977	0.560335
C21	C	0.693333	0.106741	-0.000179
C22	C	1.193333	0.606741	0.499821
C23	C	0.616228	0.105511	-0.000160
C24	C	1.116228	0.605511	0.499840
C25	C	0.825637	-0.037611	-0.000205
C26	C	1.325637	0.462389	0.499795
C27	C	0.824409	-0.121627	-0.000204
C28	C	1.324409	0.378373	0.499796
C29	C	0.571613	0.173906	-0.000174
C30	C	1.071613	0.673906	0.499826
C31	C	0.499164	0.172751	-0.000182
C32	C	0.999164	0.672751	0.499818
C33	C	0.471334	0.103196	-0.000190
C34	C	0.971334	0.603196	0.499810
C35	C	0.515959	0.034791	-0.000172
C36	C	1.015959	0.534791	0.499828
C37	C	0.588406	0.035949	-0.000156
C38	C	1.088406	0.535949	0.499844
C39	C	0.363014	0.048520	-0.042639
C40	C	0.863014	0.548520	0.457361
C41	C	0.290568	0.047365	-0.042659
C42	C	0.790568	0.547365	0.457341
C43	C	0.247884	0.099622	-0.000234
C44	C	0.747884	0.599622	0.499766
C45	C	0.277654	0.153047	0.042200
C46	C	0.777654	0.653047	0.542200
C47	C	0.350101	0.154205	0.042216
C48	C	0.850101	0.654205	0.542216
C49	C	0.392779	0.101932	-0.000206
C50	C	0.892779	0.601932	0.499794
C51	C	0.124712	0.166769	-0.000256
C52	C	0.624712	0.666769	0.499744
C53	C	0.052262	0.165610	-0.000260
C54	C	0.552262	0.665610	0.499740
C55	C	0.069059	0.027649	-0.000257
C56	C	0.569059	0.527649	0.499743
C57	C	0.141507	0.028809	-0.000246
C58	C	0.641507	0.528809	0.499754
C59	C	0.169329	0.098371	-0.000249
C60	C	0.669329	0.598371	0.499751
C61	C	0.887120	-0.170336	-0.000219
C62	C	1.387120	0.329664	0.499781
C63	C	0.885961	-0.249278	-0.000225
C64	C	1.385961	0.250722	0.499775
C65	C	0.822091	-0.279509	-0.000211
C66	C	1.322091	0.220491	0.499789
C67	C	0.759375	-0.230794	-0.000199
C68	C	1.259375	0.269206	0.499801
C69	C	0.760535	-0.151854	-0.000198
C70	C	1.260535	0.348146	0.499802
C71	C	0.754699	-0.549150	-0.000204
C72	C	1.254699	-0.049150	0.499796
C73	C	0.753545	-0.628097	-0.000203
C74	C	1.253545	-0.128097	0.499797
C75	C	0.880126	-0.646575	-0.000230
C76	C	1.380126	-0.146575	0.499770
C77	C	0.881285	-0.567635	-0.000230
C78	C	1.381285	-0.067635	0.499770
C79	C	0.818570	-0.518926	-0.000221
C80	C	1.318570	-0.018926	0.499779
C81	C	0.819827	-0.433329	-0.000216
C82	C	1.319827	0.066671	0.499784
C83	C	0.820834	-0.365105	-0.000211
C84	C	1.320834	0.134895	0.499789
C85	C	0.947332	0.094824	-0.000243
C86	C	1.447332	0.594824	0.499757
C87	C	1.024437	0.096054	-0.000267
C88	C	1.524437	0.596054	0.499733
C89	C	0.815028	0.239176	-0.000217
C90	C	1.315028	0.739176	0.499783
C91	C	0.816257	0.323193	-0.000222
C92	C	1.316257	0.823193	0.499778
N93	N	0.820310	0.100773	0.188458
N94	N	1.320310	0.600773	0.688458
N95	N	0.820361	0.100786	-0.188878
N96	N	1.320361	0.600786	0.311122
C97	C	0.867632	0.049183	0.226550
C98	C	1.367632	0.549183	0.726550
C99	C	0.867637	0.049180	0.302777
C100	C	1.367637	0.549180	0.802777
C101	C	0.820325	0.100780	0.340911
C102	C	1.320325	0.600780	0.840911
C103	C	0.772993	0.152373	0.302810
C104	C	1.272993	0.652373	0.802810
C105	C	0.772986	0.152370	0.226583
C106	C	1.272986	0.652370	0.726583
C107	C	0.811108	0.169742	0.461669
C108	C	1.311108	0.669742	0.961669
C109	C	0.811121	0.169746	0.537894
C110	C	1.311121	0.669746	1.037894
C111	C	0.820345	0.100789	0.576018
C112	C	1.320345	0.600789	1.076018
C113	C	0.829571	0.031825	0.537908
C114	C	1.329571	0.531825	1.037908
C115	C	0.829563	0.031822	0.461681
C116	C	1.329563	0.531822	0.961681
C117	C	0.820328	0.100788	0.423565
C118	C	1.320328	0.600788	0.923565
C119	C	0.867675	0.049191	0.696765
C120	C	1.367675	0.549191	1.196765
C121	C	0.867674	0.049187	0.772994
C122	C	1.367674	0.549187	1.272994
C123	C	0.773034	0.152387	0.773025
C124	C	1.273034	0.652387	1.273025
C125	C	0.773031	0.152385	0.696797
C126	C	1.273031	0.652385	1.196797
C127	C	0.820355	0.100788	0.658672
C128	C	1.320355	0.600788	1.158672
H129	H	0.594260	0.230549	-0.000178
H130	H	1.094260	0.730549	0.499822
H131	H	0.803585	0.225898	0.430635
H132	H	1.303585	0.725898	0.930635
Br133	Br	0.708756	0.222390	0.174883
Br134	Br	1.208756	0.722390	0.674883
H135	H	0.242902	0.195599	0.076747
H136	H	0.742902	0.695599	0.576747
H137	H	0.709469	-0.112195	-0.000187
H138	H	1.209469	0.387805	0.499813
Br139	Br	-0.008290	0.258441	-0.000273
Br140	Br	0.491710	0.758441	0.499727
Br141	Br	0.973805	-0.129317	-0.000226
Br142	Br	1.473805	0.370683	0.499774
H143	H	0.933295	-0.543025	-0.000237
H144	H	1.433295	-0.043025	0.499763
H145	H	0.462831	0.228448	-0.000192
H146	H	0.962831	0.728448	0.499808
Br147	Br	0.420935	-0.022409	-0.100218
Br148	Br	0.920935	0.477591	0.399782
H149	H	0.701531	-0.652707	-0.000190
H150	H	1.201531	-0.152707	0.499810
H151	H	0.707371	-0.255414	-0.000193
H152	H	1.207371	0.244586	0.499807
Br153	Br	0.971073	-0.315381	-0.000244
Br154	Br	1.471073	0.184619	0.499756
Br155	Br	0.669585	-0.483056	-0.000197
Br156	Br	1.169585	0.016944	0.499803
H157	H	0.734510	0.194397	0.804072
H158	H	1.234510	0.694397	1.304072
Br159	Br	0.202061	-0.064018	-0.000228
Br160	Br	0.702061	0.435982	0.499772
Br161	Br	0.031298	-0.066749	-0.000255
Br162	Br	0.531298	0.433251	0.499745
H163	H	0.931192	-0.686243	-0.000241
H164	H	1.431192	-0.186243	0.499759
Br165	Br	0.931853	-0.020841	0.174807
Br166	Br	1.431853	0.479159	0.674807
H167	H	0.906174	0.007168	0.333797
H168	H	1.406174	0.507168	0.833797
Br169	Br	0.162474	0.261172	-0.000256
Br170	Br	0.662474	0.761172	0.499744
H171	H	0.837073	-0.024330	0.430655
H172	H	1.337073	0.475670	0.930655
H173	H	0.266335	0.003866	-0.077214
H174	H	0.766335	0.503866	0.422786
Br175	Br	0.708807	0.222405	0.645095
Br176	Br	1.208807	0.722405	1.145095
Br177	Br	0.842098	-0.061766	0.589637
Br178	Br	1.342098	0.438234	1.089637
H179	H	0.906207	0.007175	0.665722
H180	H	1.406207	0.507175	1.165722
H181	H	0.493296	-0.021841	-0.000188
H182	H	0.993296	0.478159	0.499812
H183	H	0.374336	0.197703	0.076770
H184	H	0.874336	0.697703	0.576770
Br185	Br	0.931897	-0.020840	0.824694
Br186	Br	1.431897	0.479160	1.324694
Br187	Br	0.798608	0.263338	0.589608
Br188	Br	1.298608	0.763338	1.089608
Br189	Br	0.648960	-0.056881	-0.000135
Br190	Br	1.148960	0.443119	0.499865
Br191	Br	0.708779	0.222397	0.354559
Br192	Br	1.208779	0.722397	0.854559
