data_functionalizedCrystal
_audit_creation_method	'MofGen! by Chris Wilmer'
_symmetry_space_group_name_H-M	'P1'
_symmetry_Int_Tables_number	1
_symmetry_cell_setting	triclinic
loop_
_symmetry_equiv_pos_as_xyz
  x,y,z
_cell_length_a	14.853568
_cell_length_b	10.489741
_cell_length_c	13.930277
_cell_angle_alpha	90.002131
_cell_angle_beta	90.002897
_cell_angle_gamma	95.912819
loop_
_atom_site_label
_atom_site_type_symbol
_atom_site_fract_x
_atom_site_fract_y
_atom_site_fract_z
O1	O	-0.127191	1.692628	0.079761
O2	O	-0.139130	1.321298	0.079775
O3	O	-0.001987	1.516881	0.079772
O4	O	-0.264335	1.497044	0.079763
O5	O	-0.001990	1.516862	-0.079890
O6	O	-0.139134	1.321279	-0.079887
O7	O	-0.127195	1.692608	-0.079901
Zn8	Zn	-0.133165	1.506940	-0.105244
Zn9	Zn	-0.133160	1.506966	0.105117
O10	O	-0.264339	1.497025	-0.079899
C11	C	0.031605	1.515973	-0.000055
C12	C	0.131704	1.513279	-0.000046
C13	C	-0.138230	1.273767	-0.000054
C14	C	-0.135533	1.132168	-0.000049
C15	C	0.544953	1.385710	-0.000053
C16	C	0.564931	1.618068	-0.000061
C17	C	0.470883	1.620601	-0.000057
C18	C	0.413866	1.505687	-0.000052
C19	C	0.450896	1.388240	-0.000052
C20	C	0.433846	1.738046	-0.000068
C21	C	0.339792	1.740584	-0.000065
C22	C	0.282773	1.625668	-0.000053
C23	C	0.319809	1.508216	-0.000051
C24	C	0.262791	1.393302	-0.000046
C25	C	0.299825	1.275849	-0.000038
C26	C	0.393877	1.273324	-0.000040
C27	C	0.188722	1.628193	-0.000050
C28	C	0.168734	1.395832	-0.000045
C29	C	-0.048272	1.065007	-0.000055
C30	C	-0.089491	0.972427	0.078664
C31	C	-0.089516	0.972441	-0.078750
C32	C	-0.176788	1.041453	0.078735
C33	C	-0.176800	1.041477	-0.078750
C34	C	-0.218082	0.948924	-0.000013
C35	C	0.702070	1.497933	-0.000065
C36	C	0.601971	1.500624	-0.000058
C37	C	-0.128095	1.740140	-0.000070
C38	C	-0.130792	1.881739	-0.000069
N39	N	-0.133168	1.506932	-0.248810
C40	C	-0.193876	1.420316	-0.299072
C41	C	-0.072456	1.593556	-0.299053
C42	C	-0.072452	1.593570	-0.399549
C43	C	-0.133161	1.506954	-0.449811
C44	C	-0.193873	1.420325	-0.399577
C45	C	-0.011735	1.680189	-0.449790
C46	C	-0.011729	1.680205	-0.550291
C47	C	-0.072442	1.593594	-0.600555
C48	C	-0.133157	1.506962	-0.550316
C49	C	-0.193866	1.420346	-0.600578
C50	C	-0.254586	1.333719	-0.550340
C51	C	-0.254586	1.333714	-0.449841
C52	C	-0.072442	1.593600	-0.701054
C53	C	-0.193862	1.420355	-0.701083
N54	N	-0.133150	1.506984	0.248684
H55	H	0.122316	1.302253	-0.000037
H56	H	0.611360	1.711626	-0.000073
H57	H	-0.243302	1.349825	-0.742000
N58	N	0.299855	1.867259	-0.000055
H59	H	0.231622	1.851429	-0.000048
H60	H	0.320649	1.917549	-0.059244
N61	N	-0.320063	1.240272	-0.395660
H62	H	-0.384152	1.255071	-0.413146
H63	H	-0.310769	1.253452	-0.324385
H64	H	-0.243316	1.349789	-0.258166
N65	N	-0.225642	1.081752	0.166994
H66	H	-0.192925	1.056055	0.226377
H67	H	-0.289588	1.038398	0.167180
N68	N	-0.006953	1.686935	-0.244848
H69	H	-0.016159	1.673772	-0.173559
H70	H	-0.017966	1.777451	-0.262390
N71	N	0.046764	1.131830	0.000051
H72	H	0.055896	1.187831	0.058946
H73	H	0.056313	1.186537	-0.059462
H74	H	-0.052580	0.941870	-0.145301
H75	H	0.037696	1.750703	-0.408863
H76	H	-0.052568	0.941835	0.145218
N77	N	-0.313197	0.882376	0.000034
H78	H	-0.346026	0.907448	0.059521
H79	H	-0.310780	0.786511	-0.000570
N80	N	0.053737	1.773661	-0.604473
H81	H	0.092188	1.828538	-0.557381
H82	H	0.018812	1.830101	-0.646153
N83	N	0.148777	1.754857	-0.000071
H84	H	0.169514	1.805229	0.059108
H85	H	0.080551	1.738913	-0.000106
H86	H	0.480276	1.831603	-0.000081
H87	H	-0.213693	1.072101	-0.145307
H88	H	-0.023000	1.664125	-0.741953
H89	H	-0.304011	1.263190	-0.591275
N90	N	0.584892	1.259036	-0.000055
H91	H	0.534498	1.186626	-0.000054
H92	H	0.623482	1.252926	0.059134
H93	H	0.253389	1.182286	-0.000040
N94	N	0.433815	1.146649	-0.000040
H95	H	0.472402	1.140427	0.059143
H96	H	0.472339	1.140497	-0.059270
