data_functionalizedCrystal
_audit_creation_method	'MofGen! by Chris Wilmer'
_symmetry_space_group_name_H-M	'P1'
_symmetry_Int_Tables_number	1
_symmetry_cell_setting	triclinic
loop_
_symmetry_equiv_pos_as_xyz
  x,y,z
_cell_length_a	14.908782
_cell_length_b	14.908178
_cell_length_c	17.077396
_cell_angle_alpha	86.672472
_cell_angle_beta	93.284696
_cell_angle_gamma	90.210875
loop_
_atom_site_label
_atom_site_type_symbol
_atom_site_fract_x
_atom_site_fract_y
_atom_site_fract_z
Zn1	Zn	1.353920	-0.437257	-0.353760
Zn2	Zn	1.853920	0.062743	0.146240
Zn3	Zn	1.345155	-0.587637	-0.215380
Zn4	Zn	1.845155	-0.087637	0.284620
Zn5	Zn	1.203567	-0.428620	-0.230506
Zn6	Zn	1.703567	0.071380	0.269494
Zn7	Zn	1.194865	-0.578914	-0.354603
Zn8	Zn	1.694865	-0.078914	0.145397
O9	O	1.274377	-0.508107	-0.288562
O10	O	1.774377	-0.008107	0.211438
O11	O	1.478577	-0.464471	-0.328721
O12	O	1.978577	0.035529	0.171279
O13	O	1.326347	-0.566579	-0.107539
O14	O	1.826347	-0.066579	0.392461
O15	O	1.230821	-0.303932	-0.252834
O16	O	1.730821	0.196068	0.247166
O17	O	1.472138	-0.574954	-0.227054
O18	O	1.972138	-0.074954	0.272946
O19	O	1.341285	-0.310278	-0.343388
O20	O	1.841285	0.189722	0.156612
O21	O	1.222322	-0.449750	-0.118652
O22	O	1.722322	0.050250	0.381348
O23	O	1.076593	-0.441291	-0.253651
O24	O	1.576593	0.058709	0.246349
O25	O	1.215991	-0.560087	-0.464339
O26	O	1.715991	-0.060087	0.035661
O27	O	1.070200	-0.551712	-0.344824
O28	O	1.570200	-0.051712	0.155176
O29	O	1.332847	-0.456012	-0.463720
O30	O	1.832847	0.043988	0.036280
O31	O	1.317910	-0.712313	-0.227871
O32	O	1.817910	-0.212313	0.272129
O33	O	1.207492	-0.705904	-0.330157
O34	O	1.707492	-0.205904	0.169843
C35	C	1.040772	-0.494618	-0.300971
C36	C	1.540772	0.005382	0.199029
C37	C	0.940834	-0.488870	-0.306297
C38	C	1.440834	0.011130	0.193703
C39	C	0.746342	-0.592956	-0.210293
C40	C	1.246342	-0.092956	0.289707
C41	C	0.652441	-0.587557	-0.215294
C42	C	1.152441	-0.087557	0.284706
C43	C	0.659129	-0.472679	-0.321305
C44	C	1.159129	0.027321	0.178695
C45	C	0.753030	-0.478078	-0.316303
C46	C	1.253030	0.021922	0.183697
C47	C	0.796633	-0.538217	-0.260795
C48	C	1.296633	-0.038217	0.239205
C49	C	0.890536	-0.543610	-0.255790
C50	C	1.390536	-0.043610	0.244210
C51	C	0.897222	-0.428737	-0.361803
C52	C	1.397222	0.071263	0.138197
C53	C	0.803321	-0.423339	-0.366805
C54	C	1.303321	0.076661	0.133195
C55	C	1.260830	-0.741737	-0.277480
C56	C	1.760830	-0.241737	0.222520
C57	C	1.255117	-0.841690	-0.272760
C58	C	1.755117	-0.341690	0.227240
C59	C	1.359320	-1.035965	-0.358298
C60	C	1.859320	-0.535965	0.141702
C61	C	1.353955	-1.129879	-0.353866
C62	C	1.853955	-0.629879	0.146134
C63	C	1.239018	-1.123436	-0.259469
C64	C	1.739018	-0.623436	0.240531
C65	C	1.244383	-1.029521	-0.263901
C66	C	1.744383	-0.529521	0.236099
C67	C	1.304537	-0.985789	-0.313316
C68	C	1.804537	-0.485789	0.186684
C69	C	1.309906	-0.891873	-0.317743
C70	C	1.809906	-0.391873	0.182257
C71	C	1.194965	-0.885431	-0.223351
C72	C	1.694965	-0.385431	0.276649
C73	C	1.189600	-0.979345	-0.218919
C74	C	1.689600	-0.479345	0.281081
C75	C	1.508894	-0.521649	-0.276106
C76	C	2.008894	-0.021649	0.223894
C77	C	1.608831	-0.527420	-0.270798
C78	C	2.108831	-0.027420	0.229202
C79	C	1.274426	-0.508040	-0.493308
C80	C	1.774426	-0.008040	0.006692
C81	C	1.274447	-0.508011	-0.580558
C82	C	1.774447	-0.008011	-0.080558
C83	C	1.288001	-0.273566	-0.299705
C84	C	1.788001	0.226434	0.200295
C85	C	1.293807	-0.173618	-0.304453
C86	C	1.793807	0.326382	0.195547
C87	C	1.220299	-0.447173	-0.627334
C88	C	1.720299	0.052827	-0.127334
C89	C	1.220315	-0.447153	-0.709314
C90	C	1.720315	0.052847	-0.209314
C91	C	1.274484	-0.507969	-0.744518
C92	C	1.774484	-0.007969	-0.244518
C93	C	1.328634	-0.568814	-0.697736
C94	C	1.828634	-0.068814	-0.197736
C95	C	1.328613	-0.568837	-0.615757
C96	C	1.828613	-0.068837	-0.115757
C97	C	1.328676	-0.568760	-0.868607
C98	C	1.828676	-0.068760	-0.368607
C99	C	1.328699	-0.568736	-0.950591
C100	C	1.828699	-0.068736	-0.450591
C101	C	1.220379	-0.447076	-0.962164
C102	C	1.720379	0.052924	-0.462164
C103	C	1.220357	-0.447099	-0.880185
C104	C	1.720357	0.052901	-0.380185
C105	C	1.274509	-0.507944	-0.833409
C106	C	1.774509	-0.007944	-0.333409
C107	C	1.274383	-0.508112	-0.084614
C108	C	1.774383	-0.008112	0.415386
C109	C	1.274551	-0.507897	0.002633
C110	C	1.774551	-0.007897	0.502633
H111	H	0.767806	-0.374378	-0.412001
H112	H	1.267806	0.125622	0.087999
H113	H	1.372780	-0.618299	-0.830523
H114	H	1.872780	-0.118299	-0.330523
H115	H	1.140623	-1.014965	-0.178689
H116	H	1.640623	-0.514965	0.321311
H117	H	1.150360	-0.844567	-0.186721
H118	H	1.650360	-0.344567	0.313279
H119	H	1.176253	-0.397574	-0.851525
H120	H	1.676253	0.102426	-0.351525
H121	H	1.372808	-0.618258	-0.979251
H122	H	1.872808	-0.118258	-0.479251
H123	H	1.358888	-0.856267	-0.357978
H124	H	1.858888	-0.356267	0.142022
H125	H	1.372712	-0.618372	-0.577673
H126	H	1.872712	-0.118372	-0.077673
H127	H	1.190040	-1.159059	-0.219242
H128	H	1.690040	-0.659059	0.280758
H129	H	0.926036	-0.592577	-0.210590
H130	H	1.426036	-0.092577	0.289410
H131	H	0.781844	-0.641918	-0.165091
H132	H	1.281844	-0.141918	0.334909
H133	H	0.611497	-0.632133	-0.174172
H134	H	1.111497	-0.132133	0.325828
H135	H	1.176194	-0.397644	-0.598677
H136	H	1.676194	0.102356	-0.098677
H137	H	1.176219	-0.397615	-0.747396
H138	H	1.676219	0.102385	-0.247396
H139	H	0.623610	-0.423724	-0.366503
H140	H	1.123610	0.076276	0.133497
H141	H	1.372734	-0.618336	-0.726405
H142	H	1.872734	-0.118336	-0.226405
H143	H	0.938180	-0.384161	-0.402922
H144	H	1.438180	0.115839	0.097078
H145	H	1.176288	-0.397533	-1.000253
H146	H	1.676288	0.102467	-0.500253
H147	H	1.408306	-1.000358	-0.398528
H148	H	1.908306	-0.500358	0.101472
H149	H	1.398560	-1.170729	-0.390499
H150	H	1.898560	-0.670729	0.109501
