data_functionalizedCrystal
_audit_creation_method	'MofGen! by Chris Wilmer'
_symmetry_space_group_name_H-M	'P1'
_symmetry_Int_Tables_number	1
_symmetry_cell_setting	triclinic
loop_
_symmetry_equiv_pos_as_xyz
  x,y,z
_cell_length_a	15.995300
_cell_length_b	15.995292
_cell_length_c	10.268362
_cell_angle_alpha	89.997908
_cell_angle_beta	89.993829
_cell_angle_gamma	83.470212
loop_
_atom_site_label
_atom_site_type_symbol
_atom_site_fract_x
_atom_site_fract_y
_atom_site_fract_z
O1	O	1.110989	0.107729	-0.108339
O2	O	0.867206	0.121101	-0.108330
O3	O	0.995787	-0.007477	-0.108336
O4	O	0.982408	0.236308	-0.108332
O5	O	0.995776	-0.007482	0.108264
O6	O	0.867194	0.121096	0.108271
O7	O	1.110978	0.107724	0.108262
Cu8	Cu	0.989085	0.114410	0.128044
Cu9	Cu	0.989098	0.114416	-0.128111
O10	O	0.982397	0.236302	0.108269
C11	C	0.836005	0.120553	-0.000028
C12	C	0.743052	0.118918	-0.000025
C13	C	0.995237	-0.038675	-0.000039
C14	C	0.993604	-0.131627	-0.000049
C15	C	0.572870	0.115899	-0.000035
C16	C	0.525385	0.207449	-0.000031
C17	C	0.428698	0.205779	-0.000526
C18	C	0.405314	0.112927	-0.000044
C19	C	0.446462	0.067508	-0.123490
C20	C	0.543095	0.069825	-0.123590
C21	C	0.543362	0.068464	0.122734
C22	C	0.446418	0.068472	0.124353
C23	C	0.310619	0.111242	-0.000053
C24	C	0.667565	0.117580	-0.000035
C25	C	0.987603	-0.469365	-0.000037
C26	C	1.080409	-0.446069	0.000444
C27	C	1.082173	-0.349394	-0.000049
C28	C	0.990581	-0.301809	-0.000042
C29	C	0.944188	-0.330899	-0.123726
C30	C	0.943071	-0.427689	-0.123825
C31	C	0.941163	-0.427552	0.122491
C32	C	0.944602	-0.331060	0.124121
C33	C	0.992259	-0.207114	-0.000049
C34	C	0.985922	-0.564060	-0.000038
C35	C	1.142179	0.108272	-0.000042
C36	C	1.235131	0.109907	-0.000054
C37	C	0.982947	0.267500	-0.000031
C38	C	0.984579	0.360453	-0.000030
N39	N	0.989082	0.114405	0.308210
N40	N	0.989108	0.114414	-0.308277
C41	C	0.989094	0.114414	0.573880
C42	C	0.989085	0.114411	0.426042
H43	H	0.400222	0.241467	0.087946
H44	H	0.543864	0.244238	0.088479
H45	H	0.431093	0.000776	0.132170
H46	H	0.875025	-0.442227	-0.129424
H47	H	0.544991	0.243695	-0.088421
Br48	Br	0.382270	0.265011	-0.148877
Br49	Br	0.573630	0.124386	-0.277975
Br50	Br	1.143103	-0.318718	-0.148090
H51	H	0.877749	-0.298079	0.131596
Br52	Br	0.831851	-0.277763	-0.131395
H53	H	0.975210	-0.454509	-0.216286
Br54	Br	0.400832	0.123749	0.276577
H55	H	0.976414	-0.310842	-0.215776
Br56	Br	1.139714	-0.494440	-0.146565
Br57	Br	0.422991	-0.046207	-0.130575
H58	H	0.575383	0.002599	-0.128866
H59	H	0.872851	-0.441530	0.123329
Br60	Br	0.399239	0.119487	-0.277191
Br61	Br	0.596371	-0.044032	0.124731
Br62	Br	1.000898	-0.300125	0.276634
H63	H	0.563851	0.098602	0.216329
H64	H	0.970385	-0.455648	0.216243
H65	H	1.118507	-0.330378	0.088610
H66	H	1.116177	-0.474075	0.089142
