data_functionalizedCrystal
_audit_creation_method	'MofGen! by Chris Wilmer'
_symmetry_space_group_name_H-M	'P1'
_symmetry_Int_Tables_number	1
_symmetry_cell_setting	triclinic
loop_
_symmetry_equiv_pos_as_xyz
  x,y,z
_cell_length_a	17.699083
_cell_length_b	16.109302
_cell_length_c	14.586319
_cell_angle_alpha	89.994552
_cell_angle_beta	89.995320
_cell_angle_gamma	83.372398
loop_
_atom_site_label
_atom_site_type_symbol
_atom_site_fract_x
_atom_site_fract_y
_atom_site_fract_z
O1	O	0.097287	1.102963	-0.076283
O2	O	0.597287	1.602963	0.423717
O3	O	0.109394	0.860880	-0.076276
O4	O	0.609394	1.360880	0.423724
O5	O	-0.006839	0.988761	-0.076272
O6	O	0.493161	1.488761	0.423728
O7	O	0.213520	0.975082	-0.076288
O8	O	0.713520	1.475082	0.423712
O9	O	-0.006841	0.988752	0.076209
O10	O	0.493159	1.488752	0.576209
O11	O	0.109392	0.860871	0.076204
O12	O	0.609392	1.360871	0.576204
O13	O	0.097285	1.102954	0.076197
O14	O	0.597285	1.602954	0.576197
Cu15	Cu	0.103339	0.981912	0.090124
Cu16	Cu	0.603339	1.481912	0.590124
Cu17	Cu	0.103341	0.981922	-0.090203
Cu18	Cu	0.603341	1.481922	0.409797
O19	O	0.213518	0.975073	0.076193
O20	O	0.713518	1.475073	0.576193
C21	C	0.108902	0.829902	-0.000035
C22	C	0.608902	1.329902	0.499965
C23	C	0.107432	0.737609	-0.000032
C24	C	0.607432	1.237609	0.499968
C25	C	0.104030	0.525269	0.083076
C26	C	0.604030	1.025269	0.583076
C27	C	0.102641	0.438551	0.083073
C28	C	0.602641	0.938551	0.583073
C29	C	0.102646	0.438571	-0.083170
C30	C	0.602646	0.938571	0.416830
C31	C	0.104031	0.525288	-0.083166
C32	C	0.604031	1.025288	0.416834
C33	C	0.104727	0.568634	-0.000040
C34	C	0.604727	1.068634	0.499960
C35	C	0.101952	0.395200	-0.000047
C36	C	0.601952	0.895200	0.499953
C37	C	0.100445	0.301177	-0.000051
C38	C	0.600445	0.801177	0.499949
C39	C	0.106232	0.662664	-0.000036
C40	C	0.606232	1.162664	0.499964
C41	C	-0.035038	0.988266	-0.000031
C42	C	0.464962	1.488266	0.499969
C43	C	-0.119058	0.986796	-0.000031
C44	C	0.380942	1.486796	0.499969
C45	C	-0.167571	1.061859	-0.000032
C46	C	0.332429	1.561859	0.499968
C47	C	-0.246517	1.060473	-0.000040
C48	C	0.253483	1.560473	0.499960
C49	C	-0.276947	0.984022	-0.000041
C50	C	0.223053	1.484022	0.499959
C51	C	-0.228427	0.908953	-0.000042
C52	C	0.271573	1.408953	0.499958
C53	C	-0.149483	0.910340	-0.000041
C54	C	0.350517	1.410340	0.499959
C55	C	-0.546798	0.903356	-0.000050
C56	C	-0.046798	1.403356	0.499950
C57	C	-0.625748	0.901974	-0.000048
C58	C	-0.125748	1.401974	0.499952
C59	C	-0.643832	1.053488	-0.000049
C60	C	-0.143832	1.553488	0.499951
C61	C	-0.564888	1.054876	-0.000047
C62	C	-0.064888	1.554876	0.499953
C63	C	-0.516375	0.979807	-0.000054
C64	C	-0.016375	1.479807	0.499946
C65	C	-0.430774	0.981311	-0.000047
C66	C	0.069226	1.481311	0.499953
C67	C	-0.362547	0.982517	-0.000041
C68	C	0.137453	1.482517	0.499959
C69	C	0.241717	0.975568	-0.000049
C70	C	0.741717	1.475568	0.499951
C71	C	0.325737	0.977038	-0.000056
C72	C	0.825737	1.477038	0.499944
C73	C	0.097777	1.133932	-0.000046
C74	C	0.597777	1.633932	0.499954
C75	C	0.099247	1.226225	-0.000055
C76	C	0.599247	1.726225	0.499945
N77	N	0.103337	0.981911	0.216955
N78	N	0.603337	1.481911	0.716955
N79	N	0.103336	0.981930	-0.217034
N80	N	0.603336	1.481930	0.282966
C81	C	0.051886	1.038555	0.451964
C82	C	0.551886	1.538555	0.951964
C83	C	0.051884	1.038557	0.547945
C84	C	0.551884	1.538557	1.047945
C85	C	0.154789	0.925280	0.547951
C86	C	0.654789	1.425280	1.047951
C87	C	0.154787	0.925274	0.451971
C88	C	0.654787	1.425274	0.951971
C89	C	0.103336	0.981916	0.403980
C90	C	0.603336	1.481916	0.903980
C91	C	0.103337	0.981924	0.595941
C92	C	0.603337	1.481924	1.095941
C93	C	0.103335	0.981927	0.700008
C94	C	0.603335	1.481927	1.200008
C95	C	0.103337	0.981913	0.299906
C96	C	0.603337	1.481913	0.799906
H97	H	-0.142802	1.124114	-0.000026
H98	H	0.357198	1.624114	0.499974
N99	N	-0.532069	1.137334	-0.000054
N100	N	-0.032069	1.637334	0.499946
H101	H	-0.474697	1.126822	-0.000053
H102	H	0.025303	1.626822	0.499947
H103	H	-0.549821	1.170173	0.056470
H104	H	-0.049821	1.670173	0.556470
H105	H	0.104597	0.560559	0.150763
H106	H	0.604597	1.060559	0.650763
H107	H	-0.683341	1.114613	-0.000048
H108	H	-0.183341	1.614613	0.499952
N109	N	-0.003599	1.099658	0.599697
N110	N	0.496401	1.599658	1.099697
H111	H	-0.057323	1.090206	0.583001
H112	H	0.442677	1.590206	1.083001
H113	H	0.005214	1.158611	0.582953
H114	H	0.505214	1.658611	1.082953
N115	N	0.101886	0.391779	0.172720
N116	N	0.601886	0.891779	0.672720
H117	H	0.102004	0.432476	0.225374
H118	H	0.602004	0.932476	0.725374
H119	H	0.148472	0.349358	0.176618
H120	H	0.648472	0.849358	0.676618
N121	N	0.101895	0.391820	-0.172823
N122	N	0.601895	0.891820	0.327177
H123	H	0.100913	0.330304	-0.160215
H124	H	0.600913	0.830304	0.339785
H125	H	0.149028	0.400146	-0.209123
H126	H	0.649028	0.900146	0.290877
H127	H	-0.109983	0.849216	-0.000040
H128	H	0.390017	1.349216	0.499960
N129	N	-0.658572	0.819513	-0.000044
N130	N	-0.158572	1.319513	0.499956
H131	H	-0.615860	0.772167	-0.000049
H132	H	-0.115860	1.272167	0.499951
H133	H	-0.690933	0.815645	-0.056568
H134	H	-0.190933	1.315645	0.443432
N135	N	-0.003605	1.099643	0.400200
N136	N	0.496395	1.599643	0.900200
H137	H	-0.036200	1.135522	0.445166
H138	H	0.463800	1.635522	0.945166
H139	H	-0.037074	1.067881	0.360387
H140	H	0.462926	1.567881	0.860387
H141	H	0.104596	0.560598	-0.150853
H142	H	0.604596	1.060598	0.349147
H143	H	0.196681	0.879164	0.587034
H144	H	0.696681	1.379164	1.087034
N145	N	0.210281	0.864175	0.400217
N146	N	0.710281	1.364175	0.900217
H147	H	0.264003	0.873637	0.416907
H148	H	0.764003	1.373637	0.916907
H149	H	0.202404	0.872792	0.332149
H150	H	0.702404	1.372792	0.832149
N151	N	-0.298843	1.141433	-0.000036
N152	N	0.201157	1.641433	0.499964
H153	H	-0.267587	1.190075	-0.000027
H154	H	0.232413	1.690075	0.499973
H155	H	-0.331994	1.144147	0.056491
H156	H	0.168006	1.644147	0.556491
H157	H	-0.507308	0.842230	-0.000055
H158	H	-0.007308	1.342230	0.499945
H159	H	-0.253209	0.846705	-0.000049
H160	H	0.246791	1.346705	0.499951
