data_functionalizedCrystal
_audit_creation_method	'MofGen! by Chris Wilmer'
_symmetry_space_group_name_H-M	'P1'
_symmetry_Int_Tables_number	1
_symmetry_cell_setting	triclinic
loop_
_symmetry_equiv_pos_as_xyz
  x,y,z
_cell_length_a	10.908937
_cell_length_b	11.026607
_cell_length_c	10.065875
_cell_angle_alpha	100.731764
_cell_angle_beta	96.558584
_cell_angle_gamma	95.664014
loop_
_atom_site_label
_atom_site_type_symbol
_atom_site_fract_x
_atom_site_fract_y
_atom_site_fract_z
O1	O	-1.676465	-0.199731	-0.113536
O2	O	-1.323532	-0.109193	-0.113528
O3	O	-1.470747	-0.325212	-0.113527
O4	O	-1.529250	0.016287	-0.113538
O5	O	-1.442706	-0.283884	0.113462
O6	O	-1.295491	-0.067865	0.113460
O7	O	-1.648424	-0.158403	0.113453
Zn8	Zn	-1.467506	-0.106573	0.149496
Zn9	Zn	-1.504450	-0.161024	-0.149571
O10	O	-1.501209	0.057615	0.113451
C11	C	-1.263626	-0.080068	-0.000033
C12	C	-1.126899	-0.054871	-0.000030
C13	C	-1.708330	-0.187529	-0.000046
C14	C	-1.845059	-0.212728	-0.000057
C15	C	-1.445934	-0.347581	-0.000034
C16	C	-1.413762	-0.475803	-0.000038
C17	C	-0.915324	-0.120785	-0.000053
C18	C	-1.056636	-0.146827	-0.000035
C19	C	-1.502597	-0.567536	-0.000042
C20	C	-1.469347	-0.700062	-0.000046
C21	C	-1.526022	0.079984	-0.000045
C22	C	-1.558195	0.208204	-0.000050
N23	N	-1.442301	-0.069414	0.353601
N24	N	-1.529663	-0.198194	-0.353677
C25	C	-1.495671	-0.148101	0.421380
C26	C	-1.476284	-0.119495	0.578547
H27	H	-1.101092	-0.244830	-0.000034
C28	C	-1.361162	0.050193	0.432376
H29	H	-1.330179	0.095844	0.369471
H30	H	-1.409723	0.099513	0.488121
H31	H	-1.293499	0.029004	0.488118
C32	C	-1.277762	-0.502231	-0.000044
H33	H	-1.226341	-0.427496	-0.000052
H34	H	-1.251734	-0.533340	0.079106
H35	H	-1.271306	-0.562150	-0.079216
H36	H	-1.603266	-0.547959	-0.000035
C37	C	-0.855273	0.011601	-0.000062
H38	H	-0.768172	0.011739	-0.000062
H39	H	-0.890082	0.037961	-0.079213
H40	H	-0.870504	0.066780	0.079109
H41	H	-1.082445	0.043131	-0.000043
H42	H	-1.368672	-0.719632	-0.000053
C43	C	-0.905109	-0.345114	-0.000043
H44	H	-0.992208	-0.345248	-0.000024
H45	H	-0.889874	-0.400299	-0.079198
H46	H	-0.870299	-0.371461	0.079124
H47	H	-1.555711	-0.236650	0.363057
C48	C	-1.694200	-0.765371	-0.000040
H49	H	-1.698708	-0.679764	-0.000025
H50	H	-1.743684	-0.814423	-0.079192
H51	H	-1.724106	-0.785603	0.079130
C52	C	-1.610783	-0.317822	0.567557
H53	H	-1.641744	-0.363483	0.630464
H54	H	-1.678442	-0.296666	0.511795
H55	H	-1.562191	-0.367133	0.511832
H56	H	-1.416230	-0.030948	0.636867
