data_functionalizedCrystal
_audit_creation_method	'MofGen! by Chris Wilmer'
_symmetry_space_group_name_H-M	'P1'
_symmetry_Int_Tables_number	1
_symmetry_cell_setting	triclinic
loop_
_symmetry_equiv_pos_as_xyz
  x,y,z
_cell_length_a	12.759395
_cell_length_b	13.897447
_cell_length_c	12.759387
_cell_angle_alpha	90.031440
_cell_angle_beta	90.020509
_cell_angle_gamma	90.021067
loop_
_atom_site_label
_atom_site_type_symbol
_atom_site_fract_x
_atom_site_fract_y
_atom_site_fract_z
Zn1	Zn	1.606233	-0.383924	0.594000
Zn2	Zn	1.606109	-0.545252	0.418319
Zn3	Zn	1.430532	-0.383977	0.418337
Zn4	Zn	1.430509	-0.545184	0.593958
O5	O	1.518346	-0.464584	0.506154
O6	O	1.753238	-0.405332	0.570706
O7	O	1.582776	-0.523909	0.271300
O8	O	1.453900	-0.248988	0.441665
O9	O	1.753147	-0.523858	0.441633
O10	O	1.582988	-0.248950	0.570724
O11	O	1.453780	-0.405421	0.271314
O12	O	1.283508	-0.405355	0.441624
O13	O	1.453862	-0.523741	0.740985
O14	O	1.283491	-0.523792	0.570651
O15	O	1.582966	-0.405265	0.741016
O16	O	1.582754	-0.680225	0.441592
O17	O	1.453742	-0.680174	0.570634
C18	C	1.245378	-0.464573	0.506136
C19	C	1.128602	-0.464591	0.506153
C20	C	1.128623	-0.588119	0.640292
C21	C	1.073773	-0.649891	0.707365
C22	C	0.964051	-0.649903	0.707378
C23	C	0.909177	-0.588134	0.640313
C24	C	0.964027	-0.526362	0.573240
C25	C	1.073752	-0.526359	0.573232
C26	C	0.964006	-0.402830	0.439108
C27	C	1.073728	-0.402822	0.439088
C28	C	0.909132	-0.341061	0.372043
C29	C	0.963982	-0.279293	0.304963
C30	C	1.073710	-0.279284	0.304953
C31	C	1.128578	-0.341050	0.372015
C32	C	1.518260	-0.715199	0.506129
C33	C	1.518320	-0.822413	0.506154
C34	C	1.518371	-0.909482	0.506178
C35	C	1.518444	-1.018715	0.506205
C36	C	1.792379	-0.464597	0.506172
C37	C	1.909156	-0.464602	0.506180
C38	C	1.518425	-0.464490	0.780187
C39	C	1.518459	-0.464449	0.896964
C40	C	1.518460	-0.212991	0.506201
C41	C	1.518509	-0.105777	0.506221
C42	C	1.518327	-0.464609	0.233186
C43	C	1.518497	-0.464377	0.116410
C44	C	1.652904	-0.341088	0.897016
C45	C	1.720141	-0.279393	0.951903
C46	C	1.720167	-0.279358	1.061625
C47	C	1.652946	-0.341022	1.116462
C48	C	1.585709	-0.402718	1.061575
C49	C	1.585692	-0.402748	0.951851
C50	C	1.451260	-0.526072	1.061523
C51	C	1.451238	-0.526114	0.951801
C52	C	1.384039	-0.587737	1.116360
C53	C	1.316805	-0.649438	1.061473
C54	C	1.316783	-0.649472	0.951745
C55	C	1.384001	-0.587809	0.896914
H56	H	1.217919	-0.341052	0.372010
H57	H	0.919295	-0.229001	0.250370
H58	H	1.262074	-0.699636	1.106130
N59	N	1.384053	-0.587713	1.234702
H60	H	1.311994	-0.569965	1.261118
H61	H	1.436892	-0.539287	1.261081
N62	N	1.132874	-0.212663	0.232608
H63	H	1.178432	-0.168011	0.275390
H64	H	1.081398	-0.173601	0.190142
N65	N	1.792649	-0.212895	0.892756
H66	H	1.835245	-0.173807	0.944177
H67	H	1.749902	-0.168263	0.847233
H68	H	1.262019	-0.699701	0.907062
N69	N	1.383955	-0.587819	0.778573
H70	H	1.331154	-0.636251	0.752119
H71	H	1.456040	-0.605532	0.752210
N72	N	0.790790	-0.341079	0.372049
H73	H	0.764354	-0.292578	0.319387
H74	H	0.764476	-0.323468	0.444193
N75	N	1.652976	-0.340966	1.234804
H76	H	1.672259	-0.407126	1.261235
H77	H	1.580904	-0.323174	1.261140
H78	H	1.774910	-0.229114	1.106314
N79	N	1.652863	-0.341144	0.778674
H80	H	1.724914	-0.358898	0.752243
H81	H	1.633536	-0.274968	0.752333
N82	N	1.246965	-0.588119	0.640263
H83	H	1.273404	-0.636623	0.692920
H84	H	1.273348	-0.521939	0.659672
H85	H	1.118463	-0.700181	0.761969
H86	H	0.919393	-0.700198	0.761999
H87	H	0.819836	-0.588141	0.640338
