data_functionalizedCrystal
_audit_creation_method	'MofGen! by Chris Wilmer'
_symmetry_space_group_name_H-M	'P1'
_symmetry_Int_Tables_number	1
_symmetry_cell_setting	triclinic
loop_
_symmetry_equiv_pos_as_xyz
  x,y,z
_cell_length_a	16.959455
_cell_length_b	16.625546
_cell_length_c	16.959455
_cell_angle_alpha	90.016063
_cell_angle_beta	90.001568
_cell_angle_gamma	90.019415
loop_
_atom_site_label
_atom_site_type_symbol
_atom_site_fract_x
_atom_site_fract_y
_atom_site_fract_z
Zn1	Zn	1.208271	-0.321180	0.446898
Zn2	Zn	1.541604	0.012153	0.780231
Zn3	Zn	1.874938	0.345487	1.113565
Zn4	Zn	1.208218	-0.455989	0.314715
Zn5	Zn	1.541551	-0.122656	0.648048
Zn6	Zn	1.874884	0.210677	0.981382
Zn7	Zn	1.076129	-0.321167	0.314736
Zn8	Zn	1.409462	0.012166	0.648069
Zn9	Zn	1.742796	0.345499	0.981402
Zn10	Zn	1.076059	-0.455967	0.446854
Zn11	Zn	1.409392	-0.122634	0.780187
Zn12	Zn	1.742725	0.210700	1.113520
O13	O	1.142169	-0.388576	0.380801
O14	O	1.475502	-0.055243	0.714134
O15	O	1.808836	0.278091	1.047467
O16	O	1.318875	-0.339077	0.429374
O17	O	1.652208	-0.005744	0.762707
O18	O	1.985542	0.327589	1.096040
O19	O	1.190703	-0.438109	0.204107
O20	O	1.524036	-0.104776	0.537440
O21	O	1.857369	0.228558	0.870774
O22	O	1.093710	-0.208337	0.332294
O23	O	1.427043	0.124997	0.665628
O24	O	1.760376	0.458330	0.998961
O25	O	1.318835	-0.438121	0.332259
O26	O	1.652169	-0.104788	0.665593
O27	O	1.985502	0.228545	0.998926
O28	O	1.190794	-0.208346	0.429393
O29	O	1.524127	0.124987	0.762727
O30	O	1.857461	0.458321	1.096060
O31	O	1.093658	-0.339056	0.204122
O32	O	1.426991	-0.005722	0.537455
O33	O	1.760324	0.327611	0.870789
O34	O	0.965509	-0.339034	0.332251
O35	O	1.298842	-0.005701	0.665585
O36	O	1.632175	0.327633	0.998918
O37	O	1.093590	-0.438083	0.557470
O38	O	1.426923	-0.104750	0.890804
O39	O	1.760257	0.228583	1.224137
O40	O	0.965457	-0.438071	0.429318
O41	O	1.298790	-0.104738	0.762651
O42	O	1.632124	0.228596	1.095985
O43	O	1.190726	-0.339056	0.557503
O44	O	1.524059	-0.005722	0.890836
O45	O	1.857393	0.327611	1.224170
O46	O	1.190635	-0.568819	0.332216
O47	O	1.523968	-0.235485	0.665550
O48	O	1.857301	0.097848	0.998883
O49	O	1.093538	-0.568802	0.429298
O50	O	1.426871	-0.235469	0.762631
O51	O	1.760205	0.097864	1.095965
C52	C	0.936803	-0.388549	0.380782
C53	C	1.270136	-0.055216	0.714116
C54	C	1.603469	0.278117	1.047449
C55	C	0.848946	-0.388557	0.380793
C56	C	1.182280	-0.055224	0.714127
C57	C	1.515613	0.278109	1.047460
C58	C	0.477473	-0.336965	0.330364
C59	C	0.810806	-0.003632	0.663697
C60	C	1.144140	0.329701	0.997030
C61	C	0.477468	-0.440253	0.431283
C62	C	0.810801	-0.106920	0.764616
C63	C	1.144135	0.226414	1.097949
C64	C	0.560014	-0.440241	0.431278
C65	C	0.893347	-0.106908	0.764611
C66	C	1.226681	0.226425	1.097945
C67	C	0.601293	-0.388592	0.380814
C68	C	0.934627	-0.055258	0.714148
C69	C	1.267960	0.278075	1.047481
C70	C	0.560027	-0.336954	0.330355
C71	C	0.893360	-0.003620	0.663689
C72	C	1.226693	0.329713	0.997022
C73	C	0.601287	-0.491884	0.481730
C74	C	0.934620	-0.158551	0.815064
C75	C	1.267954	0.174782	1.148397
C76	C	0.683838	-0.491875	0.481727
C77	C	1.017171	-0.158542	0.815060
C78	C	1.350505	0.174791	1.148393
C79	C	0.725119	-0.440221	0.431267
C80	C	1.058452	-0.106888	0.764600
C81	C	1.391785	0.226446	1.097933
C82	C	0.683847	-0.388580	0.380806
C83	C	1.017180	-0.055247	0.714140
C84	C	1.350513	0.278086	1.047473
C85	C	0.725126	-0.336931	0.330343
C86	C	1.058459	-0.003597	0.663676
C87	C	1.391793	0.329736	0.997009
C88	C	0.683856	-0.285285	0.279886
C89	C	1.017189	0.048048	0.613219
C90	C	1.350522	0.381381	0.946552
C91	C	0.601307	-0.285299	0.279895
C92	C	0.934641	0.048034	0.613229
C93	C	1.267974	0.381367	0.946562
C94	C	0.807667	-0.440207	0.431257
C95	C	1.141000	-0.106874	0.764590
C96	C	1.474334	0.226460	1.097924
C97	C	0.807680	-0.336919	0.330335
C98	C	1.141013	-0.003586	0.663668
C99	C	1.474346	0.329747	0.997001
C100	C	1.142094	-0.598067	0.380767
C101	C	1.475428	-0.264733	0.714101
C102	C	1.808761	0.068600	1.047434
C103	C	1.142135	-0.687688	0.380780
C104	C	1.475468	-0.354355	0.714113
C105	C	1.808801	-0.021021	1.047446
C106	C	1.142272	-1.015863	0.380862
C107	C	1.475606	-0.682530	0.714195
C108	C	1.808939	-0.349197	1.047529
C109	C	1.142232	-0.924555	0.380841
C110	C	1.475565	-0.591222	0.714175
C111	C	1.808898	-0.257888	1.047508
C112	C	1.142203	-0.851779	0.380821
C113	C	1.475536	-0.518445	0.714154
C114	C	1.808870	-0.185112	1.047487
C115	C	1.142163	-0.760464	0.380801
C116	C	1.475497	-0.427131	0.714134
C117	C	1.808830	-0.093798	1.047467
C118	C	1.348337	-0.388603	0.380819
C119	C	1.681671	-0.055270	0.714153
C120	C	2.015004	0.278063	1.047486
C121	C	1.436194	-0.388615	0.380827
C122	C	1.769527	-0.055281	0.714161
C123	C	2.102861	0.278052	1.047494
C124	C	1.142156	-0.388568	0.586969
C125	C	1.475489	-0.055235	0.920302
C126	C	1.808823	0.278098	1.253635
C127	C	1.142151	-0.388565	0.674825
C128	C	1.475484	-0.055232	1.008159
C129	C	1.808817	0.278101	1.341492
C130	C	1.142266	-0.178267	0.380851
C131	C	1.475599	0.155066	0.714184
C132	C	1.808932	0.488400	1.047518
C133	C	1.142307	-0.088646	0.380873
C134	C	1.475640	0.244687	0.714206
C135	C	1.808974	0.578021	1.047539
C136	C	1.091588	-0.440146	1.046286
C137	C	1.424921	-0.106813	1.379620
C138	C	1.758255	0.226521	1.712953
C139	C	1.192736	-0.337028	1.046315
C140	C	1.526070	-0.003695	1.379649
C141	C	1.859403	0.329639	1.712982
C142	C	1.192734	-0.337021	0.963770
C143	C	1.526067	-0.003688	1.297103
C144	C	1.859401	0.329645	1.630436
C145	C	1.142158	-0.388579	0.922478
C146	C	1.475492	-0.055245	1.255812
C147	C	1.808825	0.278088	1.589145
C148	C	1.091585	-0.440143	0.963733
C149	C	1.424919	-0.106809	1.297066
C150	C	1.758252	0.226524	1.630400
C151	C	1.243311	-0.285464	0.922509
C152	C	1.576645	0.047869	1.255842
C153	C	1.909978	0.381203	1.589175
C154	C	1.243311	-0.285456	0.839958
C155	C	1.576645	0.047877	1.173291
C156	C	1.909978	0.381211	1.506624
C157	C	1.192731	-0.337010	0.798665
C158	C	1.526065	-0.003677	1.131998
C159	C	1.859398	0.329657	1.465332
C160	C	1.142156	-0.388575	0.839925
C161	C	1.475489	-0.055242	1.173258
C162	C	1.808822	0.278091	1.506591
C163	C	1.091580	-0.440133	0.798634
C164	C	1.424914	-0.106799	1.131967
C165	C	1.758247	0.226534	1.465300
C166	C	1.041000	-0.491695	0.839892
C167	C	1.374333	-0.158361	1.173225
C168	C	1.707667	0.174972	1.506558
C169	C	1.041005	-0.491697	0.922440
C170	C	1.374339	-0.158363	1.255774
C171	C	1.707672	0.174970	1.589107
C172	C	1.192726	-0.337008	0.716117
C173	C	1.526059	-0.003675	1.049450
C174	C	1.859393	0.329659	1.382783
C175	C	1.091578	-0.440129	0.716080
C176	C	1.424911	-0.106796	1.049413
C177	C	1.758244	0.226537	1.382747
C178	C	1.142172	-0.388597	1.175434
C179	C	1.475505	-0.055264	1.508768
C180	C	1.808838	0.278069	1.842101
C181	C	1.142164	-0.388589	1.087578
C182	C	1.475497	-0.055255	1.420911
C183	C	1.808830	0.278078	1.754244
H184	H	0.443867	-0.294915	0.289285
H185	H	0.777201	0.038419	0.622618
H186	H	1.110534	0.371752	0.955952
F187	F	1.037757	-0.495017	1.090196
F188	F	1.371091	-0.161684	1.423529
F189	F	1.704424	0.171650	1.756862
H190	H	0.443854	-0.482308	0.472363
H191	H	0.777187	-0.148975	0.805697
H192	H	1.110520	0.184358	1.139030
F193	F	0.557351	-0.546870	0.535413
F194	F	0.890684	-0.213537	0.868746
F195	F	1.224018	0.119796	1.202079
H196	H	0.717433	-0.533928	0.522812
H197	H	1.050766	-0.200594	0.856146
H198	H	1.384100	0.132739	1.189479
F199	F	0.851606	-0.281941	0.276627
F200	F	1.184939	0.051392	0.609960
F201	F	1.518272	0.384725	0.943294
H202	H	0.999825	-0.533676	0.806262
H203	H	1.333158	-0.200343	1.139595
H204	H	1.666492	0.132990	1.472928
H205	H	0.999828	-0.533678	0.956040
H206	H	1.333162	-0.200345	1.289373
H207	H	1.666495	0.132988	1.622707
F208	F	1.246564	-0.282166	1.090262
F209	F	1.579898	0.051167	1.423596
F210	F	1.913231	0.384501	1.756929
H211	H	1.284492	-0.243494	0.956134
H212	H	1.617825	0.089839	1.289467
H213	H	1.951159	0.423173	1.622801
F214	F	0.851586	-0.495172	0.484948
F215	F	1.184919	-0.161839	0.818282
F216	F	1.518253	0.171495	1.151615
F217	F	1.297141	-0.230578	0.796055
F218	F	1.630474	0.102755	1.129389
F219	F	1.963807	0.436088	1.462722
H220	H	1.050385	-0.482107	0.682466
H221	H	1.383719	-0.148774	1.015800
H222	H	1.717052	0.184560	1.349133
F223	F	1.246558	-0.282141	0.672210
F224	F	1.579891	0.051192	1.005544
F225	F	1.913224	0.384526	1.338877
F226	F	0.557380	-0.230340	0.226200
F227	F	0.890713	0.102993	0.559534
F228	F	1.224046	0.436327	0.892867
F229	F	0.727798	-0.230322	0.226176
F230	F	1.061131	0.103011	0.559509
F231	F	1.394464	0.436344	0.892843
