data_functionalizedCrystal
_audit_creation_method	'MofGen! by Chris Wilmer'
_symmetry_space_group_name_H-M	'P1'
_symmetry_Int_Tables_number	1
_symmetry_cell_setting	triclinic
loop_
_symmetry_equiv_pos_as_xyz
  x,y,z
_cell_length_a	19.377372
_cell_length_b	19.376997
_cell_length_c	17.052832
_cell_angle_alpha	64.707064
_cell_angle_beta	78.082108
_cell_angle_gamma	82.421080
loop_
_atom_site_label
_atom_site_type_symbol
_atom_site_fract_x
_atom_site_fract_y
_atom_site_fract_z
Zr1	Zr	0.767765	0.842962	-0.017968
O2	O	0.707731	0.943686	-0.104455
O3	O	0.770895	0.725710	-0.013455
O4	O	0.822865	0.858967	-0.152813
O5	O	0.632140	0.803568	0.169857
O6	O	0.931060	0.890393	-0.165933
O7	O	0.655761	0.810429	0.034903
O8	O	0.838094	0.652020	0.083352
O9	O	0.725106	1.041941	-0.079429
O10	O	0.871428	0.803511	0.005258
O11	O	0.773056	0.774938	0.115764
O12	O	0.834244	0.931831	-0.048312
O13	O	0.735872	0.903258	0.062193
Zr14	Zr	0.902651	0.882140	0.176342
Zr15	Zr	0.940323	0.893083	-0.038893
Zr16	Zr	0.730093	0.832019	0.197267
Zr17	Zr	0.795476	0.999666	0.021945
Zr18	Zr	0.874941	0.725435	0.136429
O19	O	0.899522	0.999392	0.171829
O20	O	0.953086	1.014952	-0.134208
O21	O	0.654167	0.928127	0.201582
O22	O	0.962685	0.781415	0.262829
O23	O	1.016250	0.796975	-0.043208
O24	O	0.717330	0.710150	0.292582
O25	O	1.038276	0.921534	-0.011483
O26	O	0.847551	0.866135	0.311187
O27	O	0.739357	0.834709	0.324307
O28	O	1.014656	0.914672	0.123471
O29	O	0.862266	1.081780	-0.096062
O30	O	0.808150	0.643322	0.254436
O31	O	0.945311	0.683161	0.237803
O32	O	0.975255	0.691859	0.066719
O33	O	0.695162	1.033242	0.091654
O34	O	0.832322	1.073082	0.075022
O35	O	0.836172	0.793270	0.206686
O36	O	0.934544	0.821844	0.096180
O37	O	0.897361	0.950163	0.042610
O38	O	0.798989	0.921590	0.153116
C39	C	0.800546	0.666538	0.029262
C40	C	0.788782	0.600013	0.012318
C41	C	0.735184	0.546842	-0.064894
C42	C	0.746242	0.609347	-0.048966
C43	C	0.820285	0.528163	0.057694
C44	C	0.809236	0.465650	0.041772
C45	C	0.766684	0.474996	-0.019522
C46	C	0.840736	0.393805	0.087144
C47	C	0.829685	0.331296	0.071226
C48	C	0.787133	0.340634	0.009936
C49	C	0.755633	0.412488	-0.035440
C50	C	0.883284	0.384459	0.148443
C51	C	0.914784	0.312614	0.193814
C52	C	0.903737	0.250105	0.177892
C53	C	0.861185	0.259443	0.116603
C54	C	0.935237	0.178251	0.223269
C55	C	0.924186	0.115743	0.207351
C56	C	0.850134	0.196934	0.100685
C57	C	0.619365	0.799857	0.105361
C58	C	0.546109	0.778580	0.114245
C59	C	0.208138	1.043501	0.003643
C60	C	0.139309	1.023490	0.011998
C61	C	0.178135	0.889534	0.067921
C62	C	0.246968	0.909534	0.059574
C63	C	0.261964	0.986518	0.027434
C64	C	0.300794	0.852551	0.083365
C65	C	0.369623	0.872550	0.075015
C66	C	0.384625	0.949531	0.042873
C67	C	0.330792	1.006517	0.019083
C68	C	0.285798	0.775567	0.115500
C69	C	0.339624	0.718584	0.139291
C70	C	0.408453	0.738582	0.130946
C71	C	0.423455	0.815564	0.098805
C72	C	0.462286	0.681596	0.154736
C73	C	0.531114	0.701595	0.146386
C74	C	0.492284	0.835562	0.090454
C75	C	1.051052	0.925244	0.053013
C76	C	1.124307	0.946522	0.044129
C77	C	0.882330	0.876239	-0.190040
C78	C	0.898323	0.880885	-0.281413
C79	C	0.869870	1.058564	0.129112
C80	C	0.881634	1.125089	0.146056
C81	C	0.704973	0.824719	-0.510058
C82	C	0.689947	0.820349	-0.424207
C83	C	0.742039	0.835482	-0.388504
C84	C	0.809160	0.854987	-0.438661
C85	C	0.824189	0.859351	-0.524519
C86	C	0.861256	0.870115	-0.402965
C87	C	0.928377	0.889619	-0.453122
C88	C	0.943403	0.893983	-0.538971
C89	C	0.891311	0.878849	-0.574674
C90	C	0.846227	0.865750	-0.317107
C91	C	0.965444	0.900383	-0.331568
C92	C	0.980470	0.904753	-0.417419
C93	C	0.788087	0.848863	0.348414
C94	C	0.772094	0.844217	0.439787
C95	C	1.016390	0.729231	0.003087
C96	C	1.077881	0.683984	-0.022740
C97	C	0.753425	0.652850	0.298488
C98	C	0.725668	0.581679	0.372917
C99	C	0.969268	0.715543	0.272314
C100	C	1.014767	0.665650	0.337860
C101	C	0.701148	1.009558	-0.113940
C102	C	0.655650	1.059452	-0.179486
C103	C	0.654027	0.995870	0.155287
C104	C	0.592535	1.041118	0.181114
C105	C	0.916992	1.072252	-0.140115
C106	C	0.944748	1.143423	-0.214543
C107	C	1.073814	0.653166	-0.082339
C108	C	1.131590	0.610659	-0.106624
C109	C	1.193431	0.598966	-0.071304
C110	C	1.197498	0.629789	-0.011702
C111	C	1.139724	0.672300	0.012577
C112	C	0.745578	0.557825	0.455340
C113	C	0.719495	0.490960	0.525285
C114	C	0.673506	0.447947	0.512803
C115	C	0.653594	0.471806	0.430373
C116	C	0.679673	0.538673	0.360432
C117	C	1.087490	0.657137	0.310957
C118	C	1.130251	0.610268	0.372537
C119	C	1.100286	0.571909	0.461018
C120	C	1.027556	0.580426	0.487922
C121	C	0.984798	0.627298	0.426343
C122	C	0.582928	1.067972	-0.152581
C123	C	0.540171	1.114861	-0.214156
C124	C	0.570136	1.153223	-0.302637
C125	C	0.642865	1.144702	-0.329541
C126	C	0.685622	1.097819	-0.267965
C127	C	0.596606	1.071942	0.240705
C128	C	0.538837	1.114468	0.264971
C129	C	0.476996	1.126163	0.229649
C130	C	0.472928	1.095337	0.170050
C131	C	0.530698	1.052817	0.145781
C132	C	0.990737	1.186416	-0.202036
C133	C	1.016830	1.253285	-0.271966
C134	C	0.996930	1.277161	-0.354400
C135	C	0.950939	1.234160	-0.366907
C136	C	0.924851	1.167290	-0.296980
H137	H	0.720990	0.420102	-0.085361
O138	O	0.654307	0.809956	-0.544589
C139	C	0.591835	0.791826	-0.481922
H140	H	0.605335	0.770535	-0.413129
H141	H	0.554820	0.844985	-0.495187
C142	C	0.538781	0.755121	-0.572970
C143	C	0.555362	0.728965	-0.488477
H144	H	0.516280	0.716348	-0.577015
H145	H	0.580868	0.767338	-0.615192
H146	H	0.507937	0.799420	-0.584015
H147	H	0.586211	0.684673	-0.477438
H148	H	0.513278	0.716739	-0.446253
O149	O	0.656744	1.060624	0.274875
C150	C	0.713591	1.091640	0.206139
H151	H	0.700796	1.095296	0.142115
H152	H	0.722606	1.151279	0.198612
C153	C	0.796507	1.035528	0.306344
C154	C	0.780795	1.040012	0.227710
H155	H	0.837963	1.003684	0.319651
H156	H	0.758209	1.014634	0.352654
H157	H	0.804015	1.085230	0.300061
H158	H	0.773279	0.990312	0.233997
H159	H	0.819094	1.060896	0.181401
H160	H	1.023468	0.662688	-0.111115
H161	H	0.527373	1.027718	0.097260
H162	H	0.558516	1.036737	-0.080540
O163	O	0.861529	0.519164	0.117295
C164	C	0.821349	0.538697	0.184517
H165	H	0.774590	0.578579	0.158874
H166	H	0.801204	0.484648	0.243081
C167	C	0.925264	0.530189	0.244972
C168	C	0.867837	0.579178	0.213475
H169	H	0.953940	0.555156	0.262838
H170	H	0.952335	0.517026	0.199686
H171	H	0.908468	0.485150	0.293771
H172	H	0.884634	0.624210	0.164671
H173	H	0.840770	0.592349	0.258754
H174	H	0.887402	1.132290	-0.307175
H175	H	0.663458	0.558086	0.293321
H176	H	0.429961	1.160787	0.249418
H177	H	0.998060	0.909856	-0.579807
H178	H	0.903543	0.882410	-0.644583
O179	O	0.976656	0.169105	0.282748
C180	C	1.045274	0.143329	0.256489
H181	H	1.042994	0.114214	0.211490
H182	H	1.080521	0.194063	0.219682
C183	C	1.078494	0.121728	0.393580
C184	C	1.075693	0.085963	0.338317
H185	H	1.097260	0.086344	0.444055
H186	H	1.032266	0.139096	0.411271
H187	H	1.107866	0.164005	0.362898
H188	H	1.046315	0.043692	0.368996
H189	H	1.121917	0.068586	0.320634
O190	O	0.506971	0.910308	0.059285
C191	C	0.579268	0.915736	0.056994
H192	H	0.600831	0.859587	0.105707
H193	H	0.609330	0.927911	-0.012136
C194	C	0.562016	1.050031	0.022240
C195	C	0.588500	0.981070	0.082077
H196	H	0.567713	1.090334	0.037708
H197	H	0.513309	1.046375	0.023781
H198	H	0.587072	1.060167	-0.035363
H199	H	0.563439	0.970931	0.139677
H200	H	0.637204	0.984726	0.080546
H201	H	0.220342	1.106188	-0.022500
H202	H	1.128265	0.585566	-0.155154
O203	O	0.648089	0.382990	0.580664
C204	C	0.603243	0.350122	0.551976
H205	H	0.582227	0.396015	0.492098
H206	H	0.634085	0.303362	0.533551
C207	C	0.566795	0.259023	0.699955
C208	C	0.540978	0.315391	0.626417
H209	H	0.528389	0.237596	0.745875
H210	H	0.597011	0.281164	0.719283
H211	H	0.592496	0.220064	0.684589
H212	H	0.515286	0.354353	0.641781
H213	H	0.510757	0.293255	0.607094
H214	H	0.700541	0.554456	-0.114814
H215	H	0.229754	0.759287	0.122291
O216	O	1.249472	0.557619	-0.094952
C217	C	1.232618	0.532943	-0.155145
H218	H	1.172819	0.531921	-0.146995
H219	H	1.254174	0.573879	-0.225097
C220	C	1.339311	0.453326	-0.147425
C221	C	1.265865	0.452065	-0.137409
H222	H	1.359822	0.403438	-0.136488
H223	H	1.350668	0.469952	-0.106874
H224	H	1.357265	0.487443	-0.205718
H225	H	1.247911	0.417956	-0.079113
H226	H	1.254506	0.435431	-0.177949
H227	H	0.095483	1.069898	-0.007380
O228	O	0.998443	0.543281	0.573892
C229	C	0.965835	0.597079	0.607048
H230	H	0.990468	0.654649	0.565517
H231	H	0.906941	0.603345	0.604333
C232	C	0.946241	0.498905	0.754042
C233	C	0.976500	0.569611	0.703038
H234	H	0.952816	0.481961	0.813254
H235	H	0.968207	0.462660	0.731705
H236	H	0.897165	0.504137	0.751770
H237	H	1.025576	0.564377	0.705302
H238	H	0.954542	0.605856	0.725378
H239	H	0.616146	0.436775	0.420223
O240	O	0.756261	1.089404	-0.294012
C241	C	0.774974	1.011757	-0.274973
H242	H	0.733767	0.974629	-0.220031
H243	H	0.777472	1.001180	-0.336352
C244	C	0.898317	1.036986	-0.312961
C245	C	0.847709	0.991383	-0.245475
H246	H	0.943185	1.024418	-0.294769
H247	H	0.885710	1.089299	-0.325792
H248	H	0.900390	1.028166	-0.364105
H249	H	0.845631	1.000210	-0.194337
H250	H	0.860318	0.939071	-0.232635
O251	O	0.956123	0.303680	0.253294
C252	C	0.959108	0.374253	0.257634
H253	H	0.946627	0.422860	0.193941
H254	H	0.918810	0.376935	0.315452
C255	C	1.048995	0.322359	0.348538
C256	C	1.033672	0.382059	0.270306
H257	H	1.094988	0.327174	0.356359
H258	H	1.046983	0.274812	0.345618
H259	H	1.015408	0.324601	0.396711
H260	H	1.067253	0.379811	0.222134
H261	H	1.035692	0.429606	0.273219
H262	H	1.111901	0.688364	0.238914
H263	H	0.542161	1.139560	0.313502
O264	O	0.715615	0.679098	-0.093152
C265	C	0.675675	0.673932	-0.150645
H266	H	0.696485	0.622653	-0.166391
H267	H	0.617923	0.666638	-0.117967
C268	C	0.656389	0.810394	-0.216983
C269	C	0.681952	0.747416	-0.236328
H270	H	0.660258	0.855723	-0.269835
H271	H	0.683295	0.813874	-0.178247
H272	H	0.608265	0.804305	-0.189749
H273	H	0.730078	0.753501	-0.263551
H274	H	0.655054	0.743938	-0.275072
H275	H	1.247857	0.620262	0.017050
O276	O	1.022314	1.342157	-0.422219
C277	C	1.067184	1.374969	-0.393498
H278	H	1.053426	1.354628	-0.319021
H279	H	1.124416	1.356916	-0.412051
C280	C	1.074370	1.487660	-0.529141
C281	C	1.057468	1.462682	-0.437668
H282	H	1.068380	1.541765	-0.556389
H283	H	1.044142	1.465553	-0.548493
H284	H	1.122063	1.472608	-0.544590
H285	H	1.009774	1.477725	-0.422219
H286	H	1.087688	1.484793	-0.418314
O287	O	1.200879	0.602053	0.346236
C288	C	1.218151	0.645969	0.254938
H289	H	1.169289	0.656204	0.223180
H290	H	1.237817	0.703186	0.242770
C291	C	1.336471	0.590255	0.253549
C292	C	1.276458	0.602819	0.214542
H293	H	1.372440	0.563640	0.228630
H294	H	1.324836	0.560669	0.315059
H295	H	1.352850	0.637940	0.243406
H296	H	1.260075	0.555135	0.224694
H297	H	1.288092	0.632396	0.153032
H298	H	1.054274	1.288289	-0.261765
H299	H	1.035121	0.920633	-0.458268
O300	O	0.345261	1.081321	-0.012034
C301	C	0.304286	1.113586	0.043649
H302	H	0.255707	1.078827	0.081211
H303	H	0.337060	1.113032	0.092293
C304	C	0.340541	1.239223	-0.058108
C305	C	0.280873	1.196535	-0.011979
H306	H	0.326101	1.290391	-0.092420
H307	H	0.368149	1.217485	-0.095622
H308	H	0.367847	1.238753	-0.017563
H309	H	0.253573	1.196998	-0.052524
H310	H	0.253260	1.218275	0.025527
H311	H	1.007863	0.912704	-0.302499
H312	H	1.135110	0.533744	0.511151
H313	H	0.735717	0.471544	0.592396
H314	H	0.422570	1.104866	0.141296
O315	O	0.914168	0.635687	0.452467
C316	C	0.895438	0.713338	0.433385
H317	H	0.943811	0.743638	0.428351
H318	H	0.874763	0.741241	0.368260
C319	C	0.778149	0.682324	0.513495
C320	C	0.837561	0.719537	0.507320
H321	H	0.742446	0.686149	0.559099
H322	H	0.790767	0.630009	0.526348
H323	H	0.760929	0.705580	0.459220
H324	H	0.854785	0.696275	0.561590
H325	H	0.824945	0.771849	0.494477
H326	H	0.635298	0.804468	-0.383371
H327	H	0.450066	0.618916	0.180897
H328	H	1.006946	1.166988	-0.134919
H329	H	1.143044	0.697386	0.061111
H330	H	0.783023	0.592840	0.465519
O331	O	0.469516	1.123237	-0.188153
C332	C	0.438192	1.172830	-0.261469
H333	H	0.479800	1.210865	-0.314670
H334	H	0.415200	1.137793	-0.288352
C335	C	0.327725	1.176240	-0.168032
C336	C	0.378827	1.222960	-0.233371
H337	H	0.291104	1.207160	-0.150700
H338	H	0.348827	1.142826	-0.118637
H339	H	0.308573	1.147045	-0.190444
H340	H	0.397984	1.252146	-0.210955
H341	H	0.357727	1.256380	-0.282761
H342	H	0.934741	1.253610	-0.434035
H343	H	0.815491	0.204548	0.050764
O344	O	0.528654	1.198699	-0.362549
C345	C	0.533419	1.171103	-0.427851
H346	H	0.585011	1.135661	-0.430431
H347	H	0.487009	1.133968	-0.411469
C348	C	0.468255	1.282526	-0.514663
C349	C	0.531625	1.239001	-0.517836
H350	H	0.467146	1.324408	-0.570169
H351	H	0.465043	1.301117	-0.470666
H352	H	0.429587	1.251572	-0.501008
H353	H	0.570291	1.269952	-0.531480
H354	H	0.534845	1.220416	-0.561837
O355	O	0.583314	0.646147	0.169578
C356	C	0.555323	0.573911	0.199721
H357	H	0.496048	0.577978	0.223295
H358	H	0.565428	0.554510	0.143776
C359	C	0.663968	0.510725	0.247419
C360	C	0.591167	0.515718	0.276380
H361	H	0.686080	0.474828	0.294704
H362	H	0.682828	0.559391	0.227109
H363	H	0.672380	0.494560	0.200798
H364	H	0.582756	0.531892	0.322992
H365	H	0.572306	0.467053	0.296701
H366	H	0.667257	1.175943	-0.401589
H367	H	0.778134	0.289733	-0.003020
H368	H	0.892274	0.435358	0.161407
H369	H	0.949835	0.057242	0.244299
H370	H	0.165916	0.826853	0.094088
H371	H	0.327405	0.655904	0.165458
H372	H	0.440671	0.965812	0.036072
H373	H	0.791576	0.849870	-0.276276
H374	H	0.729802	0.831924	-0.318599
