data_functionalizedCrystal
_audit_creation_method	'MofGen! by Chris Wilmer'
_symmetry_space_group_name_H-M	'P1'
_symmetry_Int_Tables_number	1
_symmetry_cell_setting	triclinic
loop_
_symmetry_equiv_pos_as_xyz
  x,y,z
_cell_length_a	16.625546
_cell_length_b	10.686220
_cell_length_c	10.686551
_cell_angle_alpha	90.307919
_cell_angle_beta	85.590142
_cell_angle_gamma	94.404617
loop_
_atom_site_label
_atom_site_type_symbol
_atom_site_fract_x
_atom_site_fract_y
_atom_site_fract_z
Zn1	Zn	-0.196574	1.972246	-0.562370
Zn2	Zn	0.303426	2.472246	-0.062370
Zn3	Zn	-0.342516	1.955986	-0.352595
Zn4	Zn	0.157484	2.455986	0.147405
Zn5	Zn	-0.217201	1.746360	-0.368684
Zn6	Zn	0.282799	2.246360	0.131316
Zn7	Zn	-0.340883	1.762416	-0.578372
Zn8	Zn	0.159117	2.262416	-0.078372
O9	O	-0.274293	1.859252	-0.465505
O10	O	0.225707	2.359252	0.034495
O11	O	-0.207985	2.145633	-0.521112
O12	O	0.292015	2.645633	-0.021112
O13	O	-0.335209	1.914654	-0.179182
O14	O	0.164791	2.414654	0.320818
O15	O	-0.101626	1.776410	-0.394414
O16	O	0.398374	2.276410	0.105586
O17	O	-0.315208	2.133686	-0.366991
O18	O	0.184792	2.633686	0.133009
O19	O	-0.086472	1.942367	-0.536714
O20	O	0.413528	2.442367	-0.036714
O21	O	-0.243141	1.760643	-0.191003
O22	O	0.256859	2.260643	0.308997
O23	O	-0.241556	1.572946	-0.409930
O24	O	0.258444	2.072946	0.090070
O25	O	-0.312424	1.803775	-0.751796
O26	O	0.187576	2.303775	-0.251796
O27	O	-0.332425	1.584743	-0.563987
O28	O	0.167575	2.084743	-0.063987
O29	O	-0.206401	1.957936	-0.740039
O30	O	0.293599	2.457936	-0.240039
O31	O	-0.455138	1.930223	-0.382508
O32	O	0.044862	2.430223	0.117492
O33	O	-0.453938	1.788008	-0.548385
O34	O	0.046062	2.288008	-0.048385
C35	C	-0.289052	1.533328	-0.490442
C36	C	0.210948	2.033328	0.009558
C37	C	-0.295384	1.393899	-0.501139
C38	C	0.204616	1.893899	-0.001139
C39	C	-0.483793	1.859129	-0.465462
C40	C	0.016207	2.359129	0.034538
C41	C	-0.573410	1.859195	-0.465476
C42	C	-0.073410	2.359195	0.034524
C43	C	-0.901568	1.859424	-0.465590
C44	C	-0.401568	2.359424	0.034410
C45	C	-0.810265	1.859356	-0.465562
C46	C	-0.310265	2.359356	0.034438
C47	C	-0.737492	1.859308	-0.465533
C48	C	-0.237492	2.359308	0.034467
C49	C	-0.646182	1.859243	-0.465506
C50	C	-0.146182	2.359243	0.034494
C51	C	-0.063973	1.859411	-0.465574
C52	C	0.436027	2.359411	0.034426
C53	C	0.025653	1.859479	-0.465603
C54	C	0.525653	2.359479	0.034397
C55	C	-0.256929	1.884460	-0.792707
C56	C	0.243071	2.384460	-0.292707
C57	C	-0.249529	1.895203	-0.932141
C58	C	0.250471	2.395203	-0.432141
C59	C	-0.259478	2.186449	-0.440472
C60	C	0.240522	2.686449	0.059528
C61	C	-0.253164	2.325880	-0.429804
C62	C	0.246836	2.825880	0.070196
C63	C	-0.291529	1.834214	-0.139570
C64	C	0.208471	2.334214	0.360430
C65	C	-0.298690	1.823714	-0.000118
C66	C	0.201310	2.323714	0.499882
H67	H	-0.336375	1.345464	-0.570395
H68	H	0.163625	1.845464	-0.070395
H69	H	-0.201780	1.964635	-0.980621
H70	H	0.298220	2.464635	-0.480621
F71	F	-0.199589	1.389189	-0.339264
F72	F	0.300411	1.889189	0.160736
H73	H	-0.346442	1.754296	-0.951645
H74	H	0.153558	2.254296	-0.451645
