data_functionalizedCrystal
_audit_creation_method	'MofGen! by Chris Wilmer'
_symmetry_space_group_name_H-M	'P1'
_symmetry_Int_Tables_number	1
_symmetry_cell_setting	triclinic
loop_
_symmetry_equiv_pos_as_xyz
  x,y,z
_cell_length_a	25.639242
_cell_length_b	17.637592
_cell_length_c	17.640968
_cell_angle_alpha	109.664491
_cell_angle_beta	101.235732
_cell_angle_gamma	101.226411
loop_
_atom_site_label
_atom_site_type_symbol
_atom_site_fract_x
_atom_site_fract_y
_atom_site_fract_z
Zn1	Zn	-0.821481	0.234031	-0.399798
Zn2	Zn	-0.321481	0.734031	0.100202
Zn3	Zn	-0.777072	0.399779	-0.234048
Zn4	Zn	-0.277072	0.899779	0.265952
Zn5	Zn	-0.711877	0.261924	-0.261951
Zn6	Zn	-0.211877	0.761924	0.238049
Zn7	Zn	-0.711845	0.371857	-0.371825
Zn8	Zn	-0.211845	0.871857	0.128175
O9	O	-0.755569	0.316898	-0.316906
O10	O	-0.255569	0.816898	0.183094
O11	O	-0.888757	0.256030	-0.377841
O12	O	-0.388757	0.756030	0.122159
O13	O	-0.749853	0.404851	-0.122400
O14	O	-0.249853	0.904851	0.377600
O15	O	-0.745015	0.142850	-0.303621
O16	O	-0.245015	0.642850	0.196379
O17	O	-0.856131	0.377805	-0.256065
O18	O	-0.356131	0.877805	0.243935
O19	O	-0.825540	0.122357	-0.404897
O20	O	-0.325540	0.622357	0.095103
O21	O	-0.701954	0.303569	-0.142900
O22	O	-0.201954	0.803569	0.357100
O23	O	-0.638705	0.276495	-0.276497
O24	O	-0.138705	0.776495	0.223503
O25	O	-0.744960	0.330216	-0.490886
O26	O	-0.244960	0.830216	0.009114
O27	O	-0.638682	0.357262	-0.357221
O28	O	-0.138682	0.857262	0.142779
O29	O	-0.825509	0.228955	-0.511437
O30	O	-0.325509	0.728955	-0.011437
O31	O	-0.749821	0.511449	-0.228941
O32	O	-0.249821	1.011449	0.271059
O33	O	-0.701899	0.490935	-0.330165
O34	O	-0.201899	0.990935	0.169835
C35	C	-0.619722	0.316876	-0.316851
C36	C	-0.119722	0.816876	0.183149
C37	C	-0.561606	0.316882	-0.316844
C38	C	-0.061606	0.816882	0.183156
C39	C	-0.721055	0.531104	-0.273507
C40	C	-0.221055	1.031104	0.226493
C41	C	-0.706342	0.622736	-0.254969
C42	C	-0.206342	1.122736	0.245031
C43	C	-0.201221	0.359049	-0.358851
C44	C	0.298779	0.859049	0.141149
C45	C	-0.146618	0.359051	-0.358861
C46	C	0.353382	0.859051	0.141139
O47	O	-0.118363	0.394873	-0.394548
O48	O	0.381637	0.894873	0.105452
N49	N	-0.119332	0.316906	-0.316932
N50	N	0.380668	0.816906	0.183068
C51	C	-0.146654	0.274749	-0.274997
C52	C	0.353346	0.774749	0.225003
O53	O	-0.118432	0.238901	-0.239335
O54	O	0.381568	0.738901	0.260665
C55	C	-0.201258	0.274743	-0.274992
C56	C	0.298742	0.774743	0.225008
C57	C	-0.228539	0.316897	-0.316917
C58	C	0.271461	0.816897	0.183083
C59	C	-0.228502	0.401199	-0.400773
C60	C	0.271498	0.901199	0.099227
C61	C	-0.283101	0.401198	-0.400761
C62	C	0.216899	0.901198	0.099239
C63	C	-0.310419	0.359047	-0.358828
C64	C	0.189581	0.859047	0.141172
C65	C	-0.283138	0.316896	-0.316906
C66	C	0.216862	0.816896	0.183094
C67	C	-0.228581	0.232582	-0.233063
C68	C	0.271419	0.732582	0.266937
C69	C	-0.283188	0.232578	-0.233063
C70	C	0.216812	0.732578	0.266937
C71	C	-0.310469	0.274733	-0.274988
C72	C	0.189531	0.774733	0.225012
C73	C	-0.365055	0.274744	-0.274961
C74	C	0.134945	0.774744	0.225039
N75	N	-0.392341	0.316889	-0.316890
N76	N	0.107659	0.816889	0.183110
C77	C	-0.365023	0.359040	-0.358823
C78	C	0.134977	0.859040	0.141177
C79	C	-0.031983	0.274765	-0.275011
C80	C	0.468017	0.774765	0.224989
C81	C	0.022620	0.274776	-0.275010
C82	C	0.522620	0.774776	0.224990
C83	C	0.022653	0.359077	-0.358875
C84	C	0.522653	0.859077	0.141125
C85	C	-0.031951	0.359070	-0.358871
C86	C	0.468049	0.859070	0.141129
C87	C	-0.059269	0.316910	-0.316940
C88	C	0.440731	0.816910	0.183060
C89	C	-0.479685	0.359036	-0.358795
C90	C	0.020315	0.859036	0.141205
C91	C	-0.534288	0.359034	-0.358777
C92	C	-0.034288	0.859034	0.141223
C93	C	-0.534317	0.274730	-0.274916
C94	C	-0.034317	0.774730	0.225084
C95	C	-0.479717	0.274735	-0.274930
C96	C	0.020283	0.774735	0.225070
C97	C	-0.452403	0.316889	-0.316876
C98	C	0.047597	0.816889	0.183124
O99	O	-0.393346	0.238937	-0.239295
O100	O	0.106654	0.738937	0.260705
O101	O	-0.393254	0.394873	-0.394489
O102	O	0.106746	0.894873	0.105511
C103	C	-0.643692	0.762636	-0.176058
C104	C	-0.143692	1.262636	0.323942
C105	C	-0.657522	0.676532	-0.193484
C106	C	-0.157522	1.176532	0.306516
C107	C	-0.741352	0.655031	-0.299049
C108	C	-0.241352	1.155031	0.200951
C109	C	-0.727530	0.741136	-0.281629
C110	C	-0.227530	1.241136	0.218371
C111	C	-0.678700	0.794932	-0.220134
C112	C	-0.178700	1.294932	0.279866
C113	C	-0.762538	0.773431	-0.325704
C114	C	-0.262538	1.273431	0.174296
C115	C	-0.748715	0.859527	-0.308289
C116	C	-0.248715	1.359527	0.191711
C117	C	-0.699886	0.913329	-0.246798
C118	C	-0.199886	1.413329	0.253202
C119	C	-0.664878	0.881028	-0.202718
C120	C	-0.164878	1.381028	0.297282
C121	C	-0.811366	0.719632	-0.387204
C122	C	-0.311366	1.219632	0.112796
C123	C	-0.846373	0.751928	-0.431279
C124	C	-0.346373	1.251928	0.068721
C125	C	-0.832553	0.838027	-0.413859
C126	C	-0.332553	1.338027	0.086141
C127	C	-0.783724	0.891828	-0.352368
C128	C	-0.283724	1.391828	0.147632
C129	C	-0.867562	0.870327	-0.457939
C130	C	-0.367562	1.370327	0.042061
C131	C	-0.853740	0.956423	-0.440523
C132	C	-0.353740	1.456423	0.059477
C133	C	-0.769902	0.977924	-0.334953
C134	C	-0.269902	1.477924	0.165047
C135	C	0.108055	0.316919	-0.316951
C136	C	0.608055	0.816919	0.183049
C137	C	0.049942	0.316924	-0.316947
C138	C	0.549942	0.816924	0.183053
C139	C	-0.790184	0.273359	-0.531907
C140	C	-0.290184	0.773359	-0.031907
C141	C	-0.804935	0.254806	-0.623527
C142	C	-0.304935	0.754806	-0.123527
C143	C	-0.790210	1.101854	-0.360482
C144	C	-0.290210	1.601854	0.139518
C145	C	-0.804909	1.010220	-0.379028
C146	C	-0.304909	1.510220	0.120972
C147	C	-0.643780	0.457398	-0.871354
C148	C	-0.143780	0.957398	-0.371354
C149	C	-0.657653	0.439954	-0.957447
C150	C	-0.157653	0.939954	-0.457447
C151	C	-0.741522	0.334520	-0.978835
C152	C	-0.241522	0.834520	-0.478835
C153	C	-0.727654	0.351953	-0.892742
C154	C	-0.227654	0.851953	-0.392742
C155	C	-0.678783	0.413393	-0.839008
C156	C	-0.178783	0.913393	-0.339008
C157	C	-0.762657	0.307948	-0.860396
C158	C	-0.262657	0.807948	-0.360396
C159	C	-0.748792	0.325382	-0.774310
C160	C	-0.248792	0.825382	-0.274310
C161	C	-0.699923	0.386822	-0.720570
C162	C	-0.199923	0.886822	-0.220570
C163	C	-0.664917	0.430828	-0.752922
C164	C	-0.164917	0.930828	-0.252922
C165	C	-0.811530	0.246512	-0.914132
C166	C	-0.311530	0.746512	-0.414132
C167	C	-0.846533	0.202507	-0.881786
C168	C	-0.346533	0.702507	-0.381786
C169	C	-0.832666	0.219937	-0.795699
C170	C	-0.332666	0.719937	-0.295699
C171	C	-0.783798	0.281376	-0.741959
C172	C	-0.283798	0.781376	-0.241959
C173	C	-0.867672	0.175931	-0.763348
C174	C	-0.367672	0.675931	-0.263348
C175	C	-0.853807	0.193366	-0.677262
C176	C	-0.353807	0.693366	-0.177262
C177	C	-0.769932	0.298811	-0.655873
C178	C	-0.269932	0.798811	-0.155873
C179	C	-0.721128	0.360207	-0.102753
C180	C	-0.221128	0.860207	0.397247
C181	C	-0.706516	0.378529	-0.011180
C182	C	-0.206516	0.878529	0.488820
H183	H	-0.556497	0.393364	-0.392918
H184	H	-0.056497	0.893364	0.107082
C185	C	-0.832075	0.299967	-1.021562
C186	C	-0.332075	0.799967	-0.521562
C187	C	-0.826773	0.227345	-1.008760
C188	C	-0.326773	0.727345	-0.508760
H189	H	-0.841482	0.288133	-1.079982
H190	H	-0.341482	0.788133	-0.579982
H191	H	-0.860377	0.318170	-0.999209
H192	H	-0.360377	0.818170	-0.499209
H193	H	-0.797955	0.342846	-0.994187
H194	H	-0.297955	0.842846	-0.494187
H195	H	-0.860894	0.184467	-1.036130
H196	H	-0.360894	0.684467	-0.536130
H197	H	-0.798469	0.209130	-1.031124
H198	H	-0.298469	0.709130	-0.531124
H199	H	-0.886326	0.152484	-0.925547
H200	H	-0.386326	0.652484	-0.425547
H201	H	-0.882309	0.157531	-0.650926
H202	H	-0.382309	0.657531	-0.150926
H203	H	-0.625112	0.480839	-0.709171
H204	H	-0.125112	0.980839	-0.209171
C205	C	-0.926171	0.102394	-0.904809
C206	C	-0.426171	0.602394	-0.404809
C207	C	-0.921391	0.108401	-0.822419
C208	C	-0.421391	0.608401	-0.322419
H209	H	-0.959334	0.060700	-0.941275
H210	H	-0.459334	0.560700	-0.441275
H211	H	-0.927166	0.154931	-0.907683
H212	H	-0.427166	0.654931	-0.407683
H213	H	-0.895257	0.087465	-0.921349
H214	H	-0.395257	0.587465	-0.421349
H215	H	-0.952304	0.123336	-0.805877
H216	H	-0.452304	0.623336	-0.305877
H217	H	-0.920401	0.055853	-0.819541
H218	H	-0.420401	0.555853	-0.319541
C219	C	-0.573350	0.545933	-0.927655
C220	C	-0.073350	1.045933	-0.427655
C221	C	-0.619172	0.488326	-0.993002
C222	C	-0.119172	0.988326	-0.493002
H223	H	-0.549594	0.575792	-0.949607
H224	H	-0.049594	1.075792	-0.449607
H225	H	-0.585640	0.584271	-0.887696
H226	H	-0.085640	1.084271	-0.387696
H227	H	-0.553735	0.516800	-0.901352
H228	H	-0.053735	1.016800	-0.401352
H229	H	-0.638790	0.517460	-1.019300
H230	H	-0.138790	1.017460	-0.519300
H231	H	-0.606882	0.449983	-1.032976
H232	H	-0.106882	0.949983	-0.532976
H233	H	-0.305429	0.198239	-0.198923
H234	H	0.194571	0.698239	0.301077
H235	H	-0.603975	0.507409	-0.827603
H236	H	-0.103975	1.007409	-0.327603
H237	H	-0.556568	0.240415	-0.240772
H238	H	-0.056568	0.740415	0.259228
H239	H	-0.781109	0.611220	-0.349122
H240	H	-0.281109	1.111220	0.150878
C241	C	-0.485152	0.442366	-0.441689
C242	C	0.014848	0.942366	0.058311
C243	C	-0.449667	0.405373	-0.404901
C244	C	0.050333	0.905373	0.095099
H245	H	-0.466617	0.470978	-0.470145
H246	H	0.033383	0.970978	0.029855
H247	H	-0.517318	0.400094	-0.480537
H248	H	-0.017318	0.900094	0.019463
H249	H	-0.495577	0.481126	-0.399329
H250	H	0.004423	0.981126	0.100671
H251	H	-0.439244	0.366609	-0.447262
H252	H	0.060756	0.866609	0.052738
H253	H	-0.417490	0.447650	-0.366050
H254	H	0.082510	0.947650	0.133950
C255	C	-0.485237	0.191408	-0.192032
C256	C	0.014763	0.691408	0.307968
C257	C	-0.449726	0.228403	-0.228842
C258	C	0.050274	0.728403	0.271158
H259	H	-0.466725	0.162796	-0.163588
H260	H	0.033275	0.662796	0.336412
H261	H	-0.495656	0.233679	-0.153169
H262	H	0.004344	0.733679	0.346831
H263	H	-0.517408	0.152649	-0.234378
H264	H	-0.017408	0.652649	0.265622
H265	H	-0.417556	0.267168	-0.186495
H266	H	0.082444	0.767168	0.313505
H267	H	-0.439298	0.186127	-0.267708
H268	H	0.060702	0.686127	0.232292
H269	H	-0.206267	0.435523	-0.434925
H270	H	0.293733	0.935523	0.065075
C271	C	-0.277570	0.484513	-0.483666
C272	C	0.222430	0.984513	0.016334
C273	C	-0.313087	0.447525	-0.446858
C274	C	0.186913	0.947525	0.053142
H275	H	-0.296082	0.513109	-0.512131
H276	H	0.203918	1.013109	-0.012131
H277	H	-0.245407	0.523278	-0.441323
H278	H	0.254593	1.023278	0.058677
H279	H	-0.267142	0.442233	-0.522518
H280	H	0.232858	0.942233	-0.022518
H281	H	-0.323512	0.489807	-0.408001
H282	H	0.176488	0.989807	0.091999
H283	H	-0.345260	0.408757	-0.489206
H284	H	0.154740	0.908757	0.010794
C285	C	-0.183193	0.123982	-0.244228
C286	C	0.316807	0.623982	0.255772
C287	C	-0.198581	0.186279	-0.186956
C288	C	0.301419	0.686279	0.313044
H289	H	-0.164664	0.095410	-0.215752
H290	H	0.335336	0.595410	0.284248
H291	H	-0.215357	0.085198	-0.286555
H292	H	0.284643	0.585198	0.213445
H293	H	-0.159115	0.149094	-0.269208
H294	H	0.340885	0.649094	0.230792
H295	H	-0.222663	0.161166	-0.161981
H296	H	0.277337	0.661166	0.338019
H297	H	-0.166412	0.225069	-0.144615
H298	H	0.333588	0.725069	0.355385
H299	H	-0.054160	0.393395	-0.393011
H300	H	0.445840	0.893395	0.106989
C301	C	-0.876810	0.584593	-0.469640
C302	C	-0.376810	1.084593	0.030360
C303	C	-0.826562	0.624992	-0.406351
C304	C	-0.326562	1.124992	0.093649
H305	H	-0.886188	0.526166	-0.481462
H306	H	-0.386188	1.026166	0.018538
H307	H	-0.905146	0.606906	-0.451511
H308	H	-0.405146	1.106906	0.048489
H309	H	-0.873170	0.593297	-0.518874
H310	H	-0.373170	1.093297	-0.018874
H311	H	-0.830203	0.616293	-0.357114
H312	H	-0.330203	1.116293	0.142886
H313	H	-0.798219	0.602671	-0.424477
H314	H	-0.298219	1.102671	0.075523
C315	C	-0.670619	1.012741	-0.289250
C316	C	-0.170619	1.512741	0.210750
C317	C	-0.716228	1.037070	-0.267353
C318	C	-0.216228	1.537070	0.232647
H319	H	-0.637485	1.049260	-0.247521
H320	H	-0.137485	1.549260	0.252479
H321	H	-0.673838	0.956853	-0.293302
H322	H	-0.173838	1.456853	0.206698
H323	H	-0.669597	1.015624	-0.341772
H324	H	-0.169597	1.515624	0.158228
H325	H	-0.717252	1.034182	-0.214833
H326	H	-0.217252	1.534182	0.285167
H327	H	-0.713007	1.092972	-0.263291
H328	H	-0.213007	1.592972	0.236709
C329	C	0.106371	0.396495	-0.396132
C330	C	0.606371	0.896495	0.103868
C331	C	0.052686	0.405402	-0.404980
C332	C	0.552686	0.905402	0.095020
H333	H	0.124911	0.425088	-0.424598
H334	H	0.624911	0.925088	0.075402
H335	H	0.126178	0.419699	-0.338308
H336	H	0.626178	0.919699	0.161692
H337	H	0.104432	0.338654	-0.419503
H338	H	0.604432	0.838654	0.080497
H339	H	0.054625	0.463243	-0.381604
H340	H	0.554625	0.963243	0.118396
H341	H	0.032874	0.382201	-0.462815
H342	H	0.532874	0.882201	0.037185
C343	C	0.017090	0.191449	-0.192115
C344	C	0.517090	0.691449	0.307885
C345	C	0.052606	0.228445	-0.228919
C346	C	0.552606	0.728445	0.271081
H347	H	0.035599	0.162838	-0.163667
H348	H	0.535599	0.662838	0.336333
H349	H	0.006667	0.233720	-0.153257
H350	H	0.506667	0.733720	0.346743
H351	H	-0.015080	0.152688	-0.234465
H352	H	0.484920	0.652688	0.265535
H353	H	0.084774	0.267211	-0.186567
H354	H	0.584774	0.767211	0.313433
H355	H	0.063036	0.186169	-0.267780
H356	H	0.563036	0.686169	0.232220
H357	H	-0.054222	0.240435	-0.240860
H358	H	0.445778	0.740435	0.259140
H359	H	-0.688631	0.983432	-0.232625
H360	H	-0.188631	1.483432	0.267375
H361	H	-0.625117	0.924834	-0.152637
H362	H	-0.125117	1.424834	0.347363
H363	H	-0.603932	0.806442	-0.125978
H364	H	-0.103932	1.306442	0.374022
C365	C	-0.573258	0.706436	-0.087385
C366	C	-0.073258	1.206436	0.412615
C367	C	-0.619036	0.641033	-0.145035
C368	C	-0.119036	1.141033	0.354965
H369	H	-0.549501	0.684518	-0.057476
H370	H	-0.049501	1.184518	0.442524
H371	H	-0.553631	0.732761	-0.116474
H372	H	-0.053631	1.232761	0.383526
H373	H	-0.585598	0.746378	-0.049099
H374	H	-0.085598	1.246378	0.450901
H375	H	-0.606697	0.601094	-0.183325
H376	H	-0.106697	1.101094	0.316675
H377	H	-0.638667	0.614694	-0.115944
H378	H	-0.138667	1.114694	0.384056
H379	H	-0.730127	0.348822	-0.612123
H380	H	-0.230127	0.848822	-0.112123
H381	H	-0.907317	0.826514	-0.508015
H382	H	-0.407317	1.326514	-0.008015
C383	C	-0.927852	0.739323	-0.533888
C384	C	-0.427852	1.239323	-0.033888
C385	C	-0.900045	0.692791	-0.498878
C386	C	-0.400045	1.192791	0.001122
H387	H	-0.960984	0.702813	-0.575625
H388	H	-0.460984	1.202813	-0.075625
H389	H	-0.936704	0.780153	-0.491217
H390	H	-0.436704	1.280153	0.008783
H391	H	-0.904726	0.766549	-0.558578
H392	H	-0.404726	1.266549	-0.058578
H393	H	-0.923169	0.665570	-0.474183
H394	H	-0.423169	1.165570	0.025817
H395	H	-0.891193	0.651946	-0.541557
H396	H	-0.391193	1.151946	-0.041557
C397	C	-0.937991	0.926527	-0.546638
C398	C	-0.437991	1.426527	-0.046638
C399	C	-0.892214	0.991927	-0.488981
C400	C	-0.392214	1.491927	0.011019
H401	H	-0.961742	0.948447	-0.576556
H402	H	-0.461742	1.448447	-0.076556
H403	H	-0.925652	0.886581	-0.584908
H404	H	-0.425652	1.386581	-0.084908
H405	H	-0.957631	0.900209	-0.517547
H406	H	-0.457631	1.400209	-0.017547
H407	H	-0.872572	1.018241	-0.518072
H408	H	-0.372572	1.518241	-0.018072
H409	H	-0.904553	1.031887	-0.450706
H410	H	-0.404553	1.531887	0.049294
H411	H	-0.688637	0.401019	-0.650473
H412	H	-0.188637	0.901019	-0.150473
H413	H	-0.781314	0.284498	-1.022597
H414	H	-0.281314	0.784498	-0.522597
