data_functionalizedCrystal
_audit_creation_method	'MofGen! by Chris Wilmer'
_symmetry_space_group_name_H-M	'P1'
_symmetry_Int_Tables_number	1
_symmetry_cell_setting	triclinic
loop_
_symmetry_equiv_pos_as_xyz
  x,y,z
_cell_length_a	11.792241
_cell_length_b	14.971486
_cell_length_c	14.048226
_cell_angle_alpha	90.006640
_cell_angle_beta	89.994422
_cell_angle_gamma	96.096228
loop_
_atom_site_label
_atom_site_type_symbol
_atom_site_fract_x
_atom_site_fract_y
_atom_site_fract_z
O1	O	1.506121	-0.122599	-0.079142
O2	O	2.006121	0.377401	0.420858
O3	O	1.175698	-0.135234	-0.079148
O4	O	1.675698	0.364766	0.420852
O5	O	1.349766	0.001248	-0.079138
O6	O	1.849766	0.501248	0.420862
O7	O	1.332053	-0.259081	-0.079152
O8	O	1.832053	0.240919	0.420848
O9	O	1.349745	0.001256	0.079183
O10	O	1.849745	0.501256	0.579183
O11	O	1.175677	-0.135226	0.079173
O12	O	1.675677	0.364774	0.579173
O13	O	1.506100	-0.122591	0.079179
O14	O	2.006100	0.377409	0.579179
Zn15	Zn	1.340885	-0.128907	0.104313
Zn16	Zn	1.840885	0.371093	0.604313
Zn17	Zn	1.340913	-0.128918	-0.104282
Zn18	Zn	1.840913	0.371082	0.395718
O19	O	1.332032	-0.259073	0.079169
O20	O	1.832032	0.240927	0.579169
C21	C	1.133402	-0.134436	0.000012
C22	C	1.633402	0.365564	0.500012
C23	C	1.007404	-0.132061	0.000009
C24	C	1.507404	0.367939	0.500009
C25	C	1.348963	0.034580	0.000022
C26	C	1.848963	0.534580	0.500022
C27	C	1.346589	0.133887	0.000021
C28	C	1.846589	0.633887	0.500021
C29	C	1.548396	-0.123389	0.000017
C30	C	2.048396	0.376611	0.500017
C31	C	1.674395	-0.125764	0.000013
C32	C	2.174395	0.374236	0.500013
C33	C	1.905079	-0.130132	0.000013
C34	C	2.405079	0.369868	0.500013
C35	C	1.776709	-0.127705	0.000013
C36	C	2.276709	0.372295	0.500013
C37	C	1.332835	-0.292405	0.000007
C38	C	1.832835	0.207595	0.500007
C39	C	1.335209	-0.391711	0.000001
C40	C	1.835209	0.108289	0.500001
N41	N	1.340875	-0.128899	0.246674
N42	N	1.840875	0.371101	0.746674
C43	C	1.448849	0.190702	0.000024
C44	C	1.948849	0.690702	0.500024
C45	C	1.446612	0.284011	0.000014
C46	C	1.946612	0.784011	0.500014
C47	C	1.342114	0.320502	0.000009
C48	C	1.842114	0.820502	0.500009
C49	C	1.239846	0.263679	0.000003
C50	C	1.739846	0.763679	0.500003
C51	C	1.242084	0.170372	0.000006
C52	C	1.742084	0.670372	0.500006
C53	C	1.235188	0.458160	-0.000000
C54	C	1.735188	0.958160	0.500000
C55	C	1.232949	0.551473	-0.000001
C56	C	1.732949	1.051473	0.499999
C57	C	1.439715	0.571798	0.000008
C58	C	1.939715	1.071798	0.500008
C59	C	1.441954	0.478492	0.000010
C60	C	1.941954	0.978492	0.500010
C61	C	1.339685	0.421675	0.000007
C62	C	1.839685	0.921675	0.500007
N63	N	1.340932	-0.128919	-0.246643
N64	N	1.840932	0.371081	0.253357
C65	C	1.417976	-0.068490	0.296496
C66	C	1.917976	0.431510	0.796496
C67	C	1.417984	-0.068490	0.396154
C68	C	1.917984	0.431510	0.896154
C69	C	1.340895	-0.128903	0.445987
C70	C	1.840895	0.371097	0.945987
C71	C	1.263785	-0.189315	0.396158
C72	C	1.763785	0.310685	0.896158
C73	C	1.263773	-0.189311	0.296502
C74	C	1.763773	0.310689	0.796502
C75	C	1.263818	-0.189322	0.603872
C76	C	1.763818	0.310678	1.103872
C77	C	1.263831	-0.189328	0.703535
C78	C	1.763831	0.310672	1.203535
C79	C	1.418029	-0.068501	0.703524
C80	C	1.918029	0.431499	1.203524
C81	C	1.418016	-0.068496	0.603868
C82	C	1.918016	0.431504	1.103868
C83	C	1.340908	-0.128910	0.554045
C84	C	1.840908	0.371090	1.054045
H85	H	1.533944	0.160999	0.000034
H86	H	2.033944	0.660999	0.500034
H87	H	1.527045	0.448784	0.000022
H88	H	2.027045	0.948784	0.500022
H89	H	1.480812	-0.019310	0.744095
H90	H	1.980812	0.480690	1.244095
H91	H	1.147857	0.581181	0.000010
H92	H	1.647857	1.081181	0.500010
H93	H	1.151910	0.411902	-0.000006
H94	H	1.651910	0.911902	0.499994
H95	H	1.480755	-0.019298	0.255928
H96	H	1.980755	0.480702	0.755928
H97	H	1.480765	-0.019299	0.436719
H98	H	1.980765	0.480701	0.936719
H99	H	1.154761	0.293397	-0.000007
H100	H	1.654761	0.793397	0.499993
H101	H	1.480793	-0.019307	0.563294
H102	H	1.980793	0.480693	1.063294
H103	H	1.529883	0.330267	0.000018
H104	H	2.029883	0.830267	0.500018
H105	H	1.158814	0.124113	0.000004
H106	H	1.658814	0.624113	0.500004
H107	H	1.201056	-0.238522	0.744104
H108	H	1.701056	0.261478	1.244104
H109	H	1.201024	-0.238514	0.563310
H110	H	1.701024	0.261486	1.063310
H111	H	1.201012	-0.238502	0.436738
H112	H	1.701012	0.261498	0.936738
H113	H	1.200988	-0.238501	0.255937
H114	H	1.700988	0.261499	0.755937
H115	H	1.522986	0.618063	0.000008
H116	H	2.022986	1.118063	0.500008
