data_functionalizedCrystal
_audit_creation_method	'MofGen! by Chris Wilmer'
_symmetry_space_group_name_H-M	'P1'
_symmetry_Int_Tables_number	1
_symmetry_cell_setting	triclinic
loop_
_symmetry_equiv_pos_as_xyz
  x,y,z
_cell_length_a	11.792241
_cell_length_b	10.489716
_cell_length_c	10.868271
_cell_angle_alpha	89.998908
_cell_angle_beta	89.999893
_cell_angle_gamma	84.361276
loop_
_atom_site_label
_atom_site_type_symbol
_atom_site_fract_x
_atom_site_fract_y
_atom_site_fract_z
O1	O	1.507366	0.174834	-0.102191
O2	O	1.177072	0.192853	-0.102218
O3	O	1.349750	-0.001782	-0.102208
O4	O	1.334689	0.369469	-0.102201
O5	O	1.349735	-0.001790	0.102436
O6	O	1.177058	0.192845	0.102426
O7	O	1.507352	0.174827	0.102454
Zn8	Zn	1.342203	0.183835	0.134932
Zn9	Zn	1.342222	0.183845	-0.134696
O10	O	1.334675	0.369461	0.102444
C11	C	1.134771	0.191717	0.000100
C12	C	1.008749	0.188329	0.000089
C13	C	1.348611	-0.049314	0.000110
C14	C	1.345225	-0.190934	0.000099
C15	C	0.778020	0.182100	0.000124
C16	C	0.906415	0.185561	0.000105
C17	C	1.451116	-0.288968	0.000119
C18	C	1.395168	-0.366134	-0.100783
C19	C	1.395130	-0.366106	0.100980
C20	C	1.289322	-0.266234	-0.100887
C21	C	1.289298	-0.266201	0.100968
C22	C	1.233272	-0.343318	0.000041
C23	C	1.549653	0.175962	0.000132
C24	C	1.675676	0.179350	0.000135
C25	C	1.335814	0.416994	0.000123
C26	C	1.339199	0.558613	0.000126
N27	N	1.342198	0.183827	0.318946
N28	N	1.342235	0.183842	-0.318710
C29	C	1.342216	0.183842	0.569952
C30	C	1.342202	0.183837	0.430274
H31	H	1.543223	-0.264606	0.000024
H32	H	1.439847	-0.409734	0.186283
C33	C	1.110445	-0.375749	0.000026
C34	C	1.108538	-0.508993	0.001066
C35	C	0.995413	-0.538919	0.001062
H36	H	1.072896	-0.341345	-0.071683
H37	H	1.072553	-0.340083	0.071049
H38	H	1.146414	-0.544644	-0.069950
H39	H	1.146064	-0.543428	0.072770
H40	H	0.957521	-0.503253	0.072085
H41	H	0.957873	-0.504507	-0.070648
H42	H	0.994104	-0.629326	0.001779
C43	C	1.454990	-0.424301	-0.214413
C44	C	1.568932	-0.397301	-0.213930
C45	C	1.624085	-0.450874	-0.318571
H46	H	1.418281	-0.388818	-0.286160
H47	H	1.451838	-0.514453	-0.213963
H48	H	1.572077	-0.307167	-0.214391
H49	H	1.605672	-0.432785	-0.142207
H50	H	1.620933	-0.541027	-0.318121
H51	H	1.587366	-0.415387	-0.390310
H52	H	1.701402	-0.432573	-0.318252
H53	H	1.244651	-0.222775	-0.186286
C54	C	1.229931	-0.208059	0.214855
C55	C	1.285775	-0.258874	0.320229
C56	C	1.231137	-0.205330	0.425174
H57	H	1.152961	-0.227569	0.215747
H58	H	1.231975	-0.117752	0.213680
H59	H	1.283719	-0.349160	0.321404
H60	H	1.362741	-0.239367	0.319377
H61	H	1.233182	-0.115023	0.423999
H62	H	1.154170	-0.224843	0.426054
H63	H	1.269026	-0.239791	0.496682
