data_functionalizedCrystal
_audit_creation_method	'MofGen! by Chris Wilmer'
_symmetry_space_group_name_H-M	'P1'
_symmetry_Int_Tables_number	1
_symmetry_cell_setting	triclinic
loop_
_symmetry_equiv_pos_as_xyz
  x,y,z
_cell_length_a	29.839134
_cell_length_b	29.839131
_cell_length_c	29.839135
_cell_angle_alpha	90.015469
_cell_angle_beta	90.013757
_cell_angle_gamma	90.021992
loop_
_atom_site_label
_atom_site_type_symbol
_atom_site_fract_x
_atom_site_fract_y
_atom_site_fract_z
Zn1	Zn	0.686726	-0.179159	0.254008
Zn2	Zn	0.686657	-0.254268	0.178877
Zn3	Zn	0.611607	-0.179128	0.178890
Zn4	Zn	0.611557	-0.254237	0.253979
O5	O	0.649137	-0.216698	0.216438
O6	O	0.749584	-0.189149	0.244048
O7	O	0.676693	-0.244300	0.116012
O8	O	0.621622	-0.116265	0.188872
O9	O	0.749533	-0.244331	0.188851
O10	O	0.676812	-0.116288	0.244060
O11	O	0.621554	-0.189095	0.116021
O12	O	0.548733	-0.189065	0.188844
O13	O	0.621537	-0.244278	0.316850
O14	O	0.548697	-0.244248	0.244011
O15	O	0.676763	-0.189119	0.316871
O16	O	0.676644	-0.317131	0.188823
O17	O	0.621469	-0.317109	0.243999
C18	C	0.532414	-0.216650	0.216426
C19	C	0.482480	-0.216640	0.216431
C20	C	0.125915	-0.188025	0.245236
C21	C	0.313588	-0.187988	0.245226
O22	O	0.337872	-0.163601	0.269715
N23	N	0.337035	-0.216670	0.216442
C24	C	0.313560	-0.245364	0.187660
O25	O	0.337809	-0.269761	0.163181
C26	C	0.125888	-0.245402	0.187673
C27	C	0.102444	-0.216716	0.216456
C28	C	0.102471	-0.159341	0.274017
C29	C	0.055556	-0.159349	0.274018
C30	C	0.032084	-0.188040	0.245238
C31	C	0.055528	-0.216723	0.216457
C32	C	0.102414	-0.274098	0.158894
C33	C	0.055493	-0.274106	0.158901
C34	C	0.032049	-0.245420	0.187684
C35	C	-0.014859	-0.245422	0.187677
N36	N	-0.038305	-0.216741	0.216461
C37	C	-0.014834	-0.188050	0.245241
C38	C	0.412090	-0.245341	0.187655
C39	C	0.459008	-0.245331	0.187651
C40	C	0.459034	-0.187956	0.245218
C41	C	0.412115	-0.187964	0.245219
C42	C	0.388644	-0.216660	0.216439
C43	C	-0.113359	-0.188068	0.245240
C44	C	-0.160279	-0.188076	0.245237
C45	C	-0.160300	-0.245453	0.187672
C46	C	-0.113385	-0.245443	0.187674
C47	C	-0.089915	-0.216748	0.216461
O48	O	-0.039171	-0.269800	0.163204
O49	O	-0.039090	-0.163663	0.269725
C50	C	0.172831	-0.188017	0.245236
C51	C	0.196275	-0.216700	0.216455
C52	C	0.172803	-0.245392	0.187675
C53	C	0.243192	-0.216690	0.216451
C54	C	0.266664	-0.187999	0.245231
C55	C	0.243218	-0.159318	0.274016
C56	C	0.196302	-0.159326	0.274016
C57	C	0.196249	-0.274073	0.158890
C58	C	0.243165	-0.274062	0.158892
C59	C	0.266637	-0.245371	0.187672
C60	C	0.649056	-0.333421	0.216416
C61	C	0.649062	-0.383355	0.216422
C62	C	0.677919	-0.692998	0.187750
C63	C	0.677974	-0.880671	0.187767
O64	O	0.702445	-0.904935	0.163373
N65	N	0.649230	-0.904140	0.216472
C66	C	0.620472	-0.880688	0.245177
O67	O	0.596028	-0.904957	0.269596
C68	C	0.620419	-0.693016	0.245161
C69	C	0.649162	-0.669549	0.216451
C70	C	0.706660	-0.669531	0.159043
C71	C	0.706644	-0.622615	0.159037
C72	C	0.677887	-0.599167	0.187738
C73	C	0.649146	-0.622634	0.216446
C74	C	0.591663	-0.669565	0.273868
C75	C	0.591654	-0.622644	0.273862
C76	C	0.620397	-0.599177	0.245152
C77	C	0.620373	-0.552270	0.245141
N78	N	0.649118	-0.528800	0.216436
C79	C	0.677874	-0.552249	0.187735
C80	C	0.620501	-0.979219	0.245182
C81	C	0.620514	-1.026137	0.245186
C82	C	0.678017	-1.026116	0.187777
C83	C	0.678002	-0.979197	0.187771
C84	C	0.649245	-0.955750	0.216478
C85	C	0.677839	-0.453723	0.187725
C86	C	0.677819	-0.406803	0.187720
C87	C	0.620318	-0.406829	0.245131
C88	C	0.620335	-0.453744	0.245134
C89	C	0.649100	-0.477190	0.216429
O90	O	0.595919	-0.527977	0.269527
O91	O	0.702322	-0.527972	0.163327
C92	C	0.677935	-0.739913	0.187756
C93	C	0.649194	-0.763380	0.216463
C94	C	0.620437	-0.739932	0.245165
C95	C	0.649206	-0.810298	0.216466
C96	C	0.677963	-0.833746	0.187765
C97	C	0.706707	-0.810277	0.159060
C98	C	0.706692	-0.763361	0.159054
C99	C	0.591692	-0.763401	0.273869
C100	C	0.591710	-0.810317	0.273873
C101	C	0.620467	-0.833765	0.245171
C102	C	0.766315	-0.216747	0.216451
C103	C	0.816250	-0.216767	0.216457
C104	C	0.649152	-0.216699	0.333617
C105	C	0.649159	-0.216699	0.383551
C106	C	0.649230	-0.099520	0.216471
C107	C	0.649270	-0.049585	0.216484
C108	C	0.620424	-0.187955	0.693202
C109	C	0.620417	-0.187953	0.880875
O110	O	0.595989	-0.163522	0.905147
N111	N	0.649125	-0.216694	0.904336
C112	C	0.677834	-0.245439	0.880876
O113	O	0.702248	-0.269888	0.905137
C114	C	0.677839	-0.245444	0.693204
C115	C	0.649132	-0.216698	0.669745
C116	C	0.591720	-0.159212	0.669744
C117	C	0.591724	-0.159211	0.622828
C118	C	0.620432	-0.187954	0.599371
C119	C	0.649136	-0.216697	0.622830
C120	C	0.706546	-0.274192	0.669745
C121	C	0.706543	-0.274191	0.622824
C122	C	0.677837	-0.245445	0.599365
C123	C	0.677848	-0.245439	0.552458
N124	N	0.649141	-0.216698	0.528997
C125	C	0.620432	-0.187955	0.552453
C126	C	0.677830	-0.245434	0.979407
C127	C	0.677830	-0.245432	1.026325
C128	C	0.620412	-0.187946	1.026321
C129	C	0.620415	-0.187946	0.979402
C130	C	0.649123	-0.216693	0.955946
C131	C	0.620443	-0.187956	0.453928
C132	C	0.620450	-0.187956	0.407008
C133	C	0.677866	-0.245444	0.407016
C134	C	0.677861	-0.245442	0.453932
C135	C	0.649145	-0.216696	0.477386
O136	O	0.702260	-0.269860	0.528157
O137	O	0.596015	-0.163517	0.528184
C138	C	0.620420	-0.187956	0.740118
C139	C	0.649125	-0.216699	0.763576
C140	C	0.677833	-0.245442	0.740119
C141	C	0.649124	-0.216698	0.810494
C142	C	0.620416	-0.187955	0.833951
C143	C	0.591708	-0.159214	0.810490
C144	C	0.591712	-0.159214	0.763575
C145	C	0.706541	-0.274183	0.763580
C146	C	0.706535	-0.274181	0.810496
C147	C	0.677827	-0.245438	0.833953
C148	C	0.649121	-0.216703	1.099716
C149	C	0.649122	-0.216690	1.049781
H150	H	0.478092	-0.268686	0.164208
H151	H	0.701208	-0.268846	0.960313
C152	C	0.386278	-0.276904	0.155991
H153	H	0.406966	-0.293978	0.138847
H154	H	0.367977	-0.296512	0.173137
H155	H	0.367975	-0.259690	0.136446
H156	H	0.177218	-0.135966	0.297454
H157	H	0.730121	-0.829377	0.135689
C158	C	0.709441	-0.277060	0.381208
H159	H	0.705325	-0.272944	0.349906
H160	H	0.739633	-0.270504	0.388904
H161	H	0.702835	-0.307244	0.388886
H162	H	0.730050	-0.603511	0.135660
H163	H	0.729917	-0.297591	0.744487
C164	C	0.560049	-0.695369	0.305453
H165	H	0.542928	-0.674678	0.322547
H166	H	0.540487	-0.713693	0.288259
H167	H	0.577231	-0.713650	0.325047
C168	C	0.560021	-0.596855	0.305440
H169	H	0.542905	-0.617553	0.322535
H170	H	0.577188	-0.578533	0.325028
H171	H	0.540448	-0.578573	0.288235
C172	C	0.269040	-0.127759	0.305675
H173	H	0.248361	-0.110673	0.322818
H174	H	0.287345	-0.144974	0.325215
H175	H	0.287342	-0.108155	0.288520
C176	C	-0.186125	-0.277012	0.156018
H177	H	-0.217424	-0.272910	0.160147
H178	H	-0.178446	-0.270396	0.125843
H179	H	-0.178441	-0.307207	0.162545
C180	C	0.560131	-0.127597	0.737776
H181	H	0.543032	-0.110484	0.758471
H182	H	0.577328	-0.108027	0.719482
H183	H	0.540540	-0.144777	0.719466
H184	H	0.262249	-0.297422	0.135449
H185	H	0.701432	-1.045216	0.164407
H186	H	0.701225	-0.387698	0.164339
C187	C	0.709475	-0.479507	0.156147
H188	H	0.726584	-0.458806	0.139049
H189	H	0.729047	-0.497791	0.173347
H190	H	0.692305	-0.497827	0.136556
H191	H	0.036472	-0.135991	0.297458
C192	C	0.738293	-0.695317	0.127466
H193	H	0.755402	-0.674615	0.110369
H194	H	0.757864	-0.713603	0.144663
H195	H	0.721122	-0.713634	0.107873
C196	C	-0.087550	-0.156502	0.276903
H197	H	-0.108237	-0.139420	0.294039
H198	H	-0.069245	-0.173709	0.296450
H199	H	-0.069250	-0.136896	0.259750
H200	H	0.701407	-0.960093	0.164394
C201	C	0.128283	-0.127775	0.305676
H202	H	0.107594	-0.110694	0.322812
H203	H	0.146591	-0.144979	0.325222
H204	H	0.146580	-0.108167	0.288521
C205	C	0.738123	-0.305813	0.597025
H206	H	0.755219	-0.322929	0.617718
H207	H	0.720923	-0.325380	0.578711
H208	H	0.757716	-0.288636	0.578734
C209	C	0.484856	-0.156398	0.276878
H210	H	0.464177	-0.139314	0.294023
H211	H	0.503162	-0.173613	0.296416
H212	H	0.503156	-0.136791	0.259724
H213	H	-0.094296	-0.268797	0.164232
C214	C	0.588894	-1.051946	0.276764
H215	H	0.571770	-1.031257	0.293859
H216	H	0.569334	-1.070268	0.259566
H217	H	0.606074	-1.070228	0.296359
C218	C	0.386331	-0.156414	0.276884
H219	H	0.407033	-0.139329	0.294025
H220	H	0.368023	-0.136817	0.259740
H221	H	0.368035	-0.173637	0.296433
C222	C	0.588824	-0.156340	1.052129
H223	H	0.592933	-0.160463	1.083430
H224	H	0.595410	-0.126153	1.044456
H225	H	0.558635	-0.162916	1.044428
C226	C	0.128192	-0.305656	0.127235
H227	H	0.107487	-0.322746	0.110102
H228	H	0.146493	-0.288444	0.107686
H229	H	0.146493	-0.325256	0.144387
C230	C	0.709444	-0.277054	0.479737
H231	H	0.726542	-0.294172	0.459046
H232	H	0.729028	-0.259876	0.498052
H233	H	0.692241	-0.296627	0.498028
C234	C	0.588872	-0.156336	0.381204
H235	H	0.592987	-0.160448	0.349901
H236	H	0.558682	-0.162898	0.388883
H237	H	0.595474	-0.126153	0.388905
H238	H	0.036385	-0.297475	0.135466
H239	H	0.177144	-0.297438	0.135454
H240	H	0.597083	-0.960131	0.268559
H241	H	0.568300	-0.829420	0.297251
C242	C	0.588719	-0.479559	0.276713
H243	H	0.571592	-0.458872	0.293807
H244	H	0.569162	-0.497886	0.259516
H245	H	0.605903	-0.497837	0.296308
C246	C	0.588690	-0.381029	0.276702
H247	H	0.592803	-0.349726	0.272588
H248	H	0.558510	-0.388738	0.270106
H249	H	0.595253	-0.388702	0.306895
H250	H	0.730097	-0.744258	0.135676
H251	H	0.568276	-0.744313	0.297242
C252	C	0.588860	-0.156334	0.479721
H253	H	0.571770	-0.139214	0.459025
H254	H	0.569267	-0.173505	0.498014
H255	H	0.606063	-0.136763	0.498032
C256	C	0.560129	-0.127598	0.836296
H257	H	0.543033	-0.110475	0.815609
H258	H	0.540543	-0.144778	0.854589
H259	H	0.577333	-0.108030	0.854609
C260	C	0.560143	-0.127594	0.597030
H261	H	0.543045	-0.110481	0.617725
H262	H	0.577341	-0.108024	0.578736
H263	H	0.540552	-0.144773	0.578719
C264	C	0.588832	-0.156332	0.953602
H265	H	0.571734	-0.139218	0.974295
H266	H	0.606027	-0.136764	0.935305
H267	H	0.569241	-0.173515	0.935294
H268	H	0.568340	-0.135806	0.688837
H269	H	0.701210	-0.268835	1.045421
C270	C	0.738113	-0.305804	0.836295
H271	H	0.755207	-0.322924	0.815601
H272	H	0.757703	-0.288633	0.854611
H273	H	0.720906	-0.325374	0.854584
C274	C	-0.186065	-0.156523	0.276902
H275	H	-0.165364	-0.139439	0.294045
H276	H	-0.204369	-0.136924	0.259755
H277	H	-0.204365	-0.173744	0.296448
C278	C	0.738117	-0.305818	0.695539
H279	H	0.755207	-0.322939	0.674843
H280	H	0.757710	-0.288651	0.713855
H281	H	0.720909	-0.325387	0.713827
