data_functionalizedCrystal
_audit_creation_method	'MofGen! by Chris Wilmer'
_symmetry_space_group_name_H-M	'P1'
_symmetry_Int_Tables_number	1
_symmetry_cell_setting	triclinic
loop_
_symmetry_equiv_pos_as_xyz
  x,y,z
_cell_length_a	16.992694
_cell_length_b	19.188930
_cell_length_c	16.053802
_cell_angle_alpha	92.551696
_cell_angle_beta	87.249047
_cell_angle_gamma	86.906503
loop_
_atom_site_label
_atom_site_type_symbol
_atom_site_fract_x
_atom_site_fract_y
_atom_site_fract_z
O1	O	1.043197	0.145267	-0.069340
O2	O	1.376530	0.478600	0.263993
O3	O	1.709863	0.811934	0.597327
O4	O	0.814918	0.143642	-0.069364
O5	O	1.148252	0.476976	0.263969
O6	O	1.481585	0.810309	0.597302
O7	O	0.935644	0.043185	-0.069335
O8	O	1.268978	0.376519	0.263998
O9	O	1.602311	0.709852	0.597331
O10	O	0.922471	0.245724	-0.069369
O11	O	1.255804	0.579057	0.263964
O12	O	1.589137	0.912391	0.597297
O13	O	0.928999	0.048690	0.069522
O14	O	1.262333	0.382024	0.402855
O15	O	1.595666	0.715357	0.736189
O16	O	0.808273	0.149147	0.069493
O17	O	1.141607	0.482481	0.402826
O18	O	1.474940	0.815814	0.736159
O19	O	1.036552	0.150772	0.069517
O20	O	1.369885	0.484106	0.402851
O21	O	1.703218	0.817439	0.736184
Zn22	Zn	0.921357	0.150834	0.091552
Zn23	Zn	1.254691	0.484167	0.424885
Zn24	Zn	1.588024	0.817501	0.758218
Zn25	Zn	0.930113	0.143581	-0.091399
Zn26	Zn	1.263446	0.476914	0.241934
Zn27	Zn	1.596779	0.810247	0.575268
O28	O	0.915826	0.251229	0.069488
O29	O	1.249159	0.584563	0.402821
O30	O	1.582492	0.917896	0.736155
C31	C	0.782390	0.144306	0.000061
C32	C	1.115724	0.477639	0.333395
C33	C	1.449057	0.810972	0.666728
C34	C	0.695368	0.138072	0.000053
C35	C	1.028701	0.471406	0.333386
C36	C	1.362035	0.804739	0.666719
C37	C	0.644922	0.198212	0.000043
C38	C	0.978255	0.531545	0.333377
C39	C	1.311588	0.864878	0.666710
C40	C	0.563155	0.192351	0.000056
C41	C	0.896488	0.525685	0.333389
C42	C	1.229821	0.859018	0.666722
C43	C	0.531836	0.126351	0.000072
C44	C	0.865169	0.459684	0.333405
C45	C	1.198502	0.793018	0.666738
C46	C	0.582288	0.066208	0.000084
C47	C	0.915622	0.399541	0.333417
C48	C	1.248955	0.732874	0.666750
C49	C	0.664054	0.072069	0.000077
C50	C	0.997387	0.405402	0.333410
C51	C	1.330720	0.738735	0.666744
C52	C	0.288320	0.102059	0.000098
C53	C	0.621653	0.435393	0.333431
C54	C	0.954987	0.768726	0.666765
C55	C	0.206548	0.096203	0.000102
C56	C	0.539882	0.429536	0.333435
C57	C	0.873215	0.762869	0.666769
C58	C	0.187420	0.222347	0.000076
C59	C	0.520754	0.555680	0.333409
C60	C	0.854087	0.889014	0.666742
C61	C	0.269188	0.228202	0.000064
C62	C	0.602522	0.561536	0.333398
C63	C	0.935855	0.894869	0.666731
C64	C	0.319633	0.168059	0.000081
C65	C	0.652967	0.501392	0.333414
C66	C	0.986300	0.834725	0.666747
N67	N	0.448257	0.120359	0.000082
N68	N	0.781590	0.453693	0.333415
N69	N	1.114924	0.787026	0.666749
N70	N	0.403210	0.174051	0.000076
N71	N	0.736544	0.507385	0.333410
N72	N	1.069877	0.840718	0.666743
C73	C	0.931895	0.019902	0.000096
C74	C	1.265228	0.353235	0.333429
C75	C	1.598562	0.686569	0.666762
C76	C	0.930614	-0.057677	0.000103
C77	C	1.263947	0.275656	0.333436
C78	C	1.597281	0.608989	0.666769
C79	C	1.001452	-0.098456	0.000114
C80	C	1.334786	0.234878	0.333448
C81	C	1.668119	0.568211	0.666781
C82	C	1.000250	-0.171350	0.000101
C83	C	1.333583	0.161983	0.333434
C84	C	1.666916	0.495316	0.666768
C85	C	0.928204	-0.203463	0.000093
C86	C	1.261537	0.129870	0.333426
C87	C	1.594870	0.463204	0.666759
C88	C	0.857356	-0.162676	0.000076
C89	C	1.190690	0.170658	0.333410
C90	C	1.524023	0.503991	0.666743
C91	C	0.858561	-0.089783	0.000081
C92	C	1.191895	0.243550	0.333415
C93	C	1.525228	0.576884	0.666748
N94	N	0.870872	-0.312817	0.047342
N95	N	1.204205	0.020516	0.380676
N96	N	1.537539	0.353849	0.714009
N97	N	0.869732	-0.382063	0.047339
N98	N	1.203065	-0.048729	0.380673
N99	N	1.536399	0.284604	0.714006
C100	C	0.924569	-0.423085	0.000075
C101	C	1.257902	-0.089752	0.333409
C102	C	1.591236	0.243581	0.666742
N103	N	0.980600	-0.392247	-0.047175
N104	N	1.313934	-0.058913	0.286158
N105	N	1.647267	0.274420	0.619492
N106	N	0.981742	-0.322995	-0.047168
N107	N	1.315076	0.010339	0.286165
N108	N	1.648409	0.343672	0.619498
C109	C	0.926889	-0.282503	0.000086
C110	C	1.260223	0.050831	0.333420
C111	C	1.593556	0.384164	0.666753
C112	C	0.994108	-0.542905	0.000071
C113	C	1.327442	-0.209571	0.333404
C114	C	1.660775	0.123762	0.666738
C115	C	0.992903	-0.615801	0.000052
C116	C	1.326236	-0.282467	0.333386
C117	C	1.659569	0.050866	0.666719
C118	C	0.850007	-0.607124	0.000036
C119	C	1.183340	-0.273791	0.333369
C120	C	1.516674	0.059542	0.666703
C121	C	0.851215	-0.534230	0.000046
C122	C	1.184548	-0.200897	0.333380
C123	C	1.517881	0.132437	0.666713
C124	C	0.923267	-0.502125	0.000068
C125	C	1.256601	-0.168791	0.333401
C126	C	1.589934	0.164542	0.666734
C127	C	1.069080	0.150109	0.000090
C128	C	1.402413	0.483442	0.333423
C129	C	1.735746	0.816775	0.666756
C130	C	1.156102	0.156342	0.000093
C131	C	1.489436	0.489675	0.333426
C132	C	1.822769	0.823008	0.666759
C133	C	0.919575	0.274513	0.000055
C134	C	1.252908	0.607846	0.333388
C135	C	1.586242	0.941179	0.666722
C136	C	0.920856	0.352091	0.000043
C137	C	1.254190	0.685425	0.333376
C138	C	1.587523	1.018758	0.666709
N139	N	0.915388	0.155784	0.216410
N140	N	1.248721	0.489117	0.549744
N141	N	1.582055	0.822451	0.883077
N142	N	0.936088	0.138625	-0.216258
N143	N	1.269421	0.471959	0.117076
N144	N	1.602755	0.805292	0.450409
C145	C	0.966776	0.113057	0.260117
C146	C	1.300109	0.446390	0.593450
C147	C	1.633442	0.779723	0.926784
C148	C	0.962607	0.116526	0.347523
C149	C	1.295941	0.449860	0.680856
C150	C	1.629274	0.783193	1.014189
C151	C	0.907054	0.162727	0.391220
C152	C	1.240388	0.496061	0.724554
C153	C	1.573721	0.829394	1.057887
C154	C	0.855661	0.205456	0.347508
C155	C	1.188995	0.538790	0.680841
C156	C	1.522328	0.872123	1.014175
C157	C	0.859826	0.201983	0.260104
C158	C	1.193160	0.535316	0.593437
C159	C	1.526493	0.868649	0.926770
C160	C	0.888860	0.177881	0.652626
C161	C	1.222193	0.511214	0.985959
C162	C	1.555527	0.844547	1.319292
C163	C	0.884700	0.181353	0.740036
C164	C	1.218034	0.514686	1.073369
C165	C	1.551367	0.848019	1.406703
C166	C	0.991646	0.092421	0.740045
C167	C	1.324979	0.425755	1.073378
C168	C	1.658313	0.759088	1.406711
C169	C	0.995810	0.088955	0.652639
C170	C	1.329143	0.422288	0.985972
C171	C	1.662476	0.755621	1.319305
C172	C	0.944414	0.131681	0.608934
C173	C	1.277747	0.465014	0.942267
C174	C	1.611080	0.798348	1.275601
N175	N	0.902794	0.166276	0.480563
N176	N	1.236127	0.499610	0.813896
N177	N	1.569461	0.832943	1.147230
N178	N	0.948671	0.128128	0.519593
N179	N	1.282004	0.461461	0.852926
N180	N	1.615338	0.794795	1.186259
H181	H	0.556782	0.012469	0.000109
H182	H	0.890115	0.345802	0.333442
H183	H	1.223448	0.679136	0.666775
N184	N	1.026699	0.063229	0.212989
N185	N	1.360032	0.396563	0.546322
N186	N	1.693365	0.729896	0.879655
H187	H	1.058619	0.036688	0.253943
H188	H	1.391952	0.370021	0.587276
H189	H	1.725285	0.703355	0.920609
H190	H	0.998524	0.029237	0.176737
H191	H	1.331858	0.362570	0.510070
H192	H	1.665191	0.695904	0.843404
N193	N	0.718467	0.007205	0.000094
N194	N	1.051801	0.340539	0.333427
N195	N	1.385134	0.673872	0.666760
H196	H	0.686221	-0.035495	0.000104
H197	H	1.019555	0.297838	0.333438
H198	H	1.352888	0.631171	0.666771
H199	H	0.755267	0.004845	-0.051382
H200	H	1.088601	0.338179	0.281951
H201	H	1.421934	0.671512	0.615284
N202	N	1.079163	-0.063827	0.000136
N203	N	1.412496	0.269506	0.333469
N204	N	1.745829	0.602839	0.666803
H205	H	1.123856	-0.100726	0.000141
H206	H	1.457190	0.232607	0.333474
H207	H	1.790523	0.565941	0.666807
H208	H	1.085242	-0.035806	-0.051338
H209	H	1.418575	0.297527	0.281995
H210	H	1.751909	0.630861	0.615329
N211	N	0.772299	-0.641750	0.000018
N212	N	1.105632	-0.308416	0.333351
N213	N	1.438965	0.024917	0.666684
H214	H	0.782283	-0.694116	0.000014
H215	H	1.115616	-0.360782	0.333347
H216	H	1.448950	-0.027449	0.666680
H217	H	0.738845	-0.625084	0.051490
H218	H	1.072178	-0.291750	0.384824
H219	H	1.405511	0.041583	0.718157
H220	H	0.294682	0.281946	0.000042
H221	H	0.628015	0.615279	0.333375
H222	H	0.961349	0.948613	0.666708
H223	H	1.050591	-0.649002	0.000057
H224	H	1.383924	-0.315669	0.333390
H225	H	1.717257	0.017665	0.666724
N226	N	1.076656	-0.215345	0.000112
N227	N	1.409990	0.117989	0.333445
N228	N	1.743323	0.451322	0.666778
H229	H	1.122483	-0.183945	0.000124
H230	H	1.455816	0.149388	0.333458
H231	H	1.789150	0.482722	0.666791
H232	H	1.076797	-0.243743	0.051587
H233	H	1.410131	0.089590	0.384921
H234	H	1.743464	0.422923	0.718254
N235	N	1.047070	0.046335	0.787185
N236	N	1.380403	0.379669	1.120519
N237	N	1.713736	0.713002	1.453852
H238	H	1.082894	0.016541	0.746240
H239	H	1.416227	0.349874	1.079573
H240	H	1.749560	0.683207	1.412906
H241	H	1.079905	0.076453	0.823436
H242	H	1.413238	0.409786	1.156769
H243	H	1.746572	0.743120	1.490102
H244	H	0.798696	-0.188827	0.000068
H245	H	1.132029	0.144507	0.333401
H246	H	1.465363	0.477840	0.666734
H247	H	0.800874	-0.056581	0.000072
H248	H	1.134208	0.276752	0.333406
H249	H	1.467541	0.610086	0.666739
N250	N	0.774810	-0.490242	0.000039
N251	N	1.108143	-0.156909	0.333372
N252	N	1.441477	0.176425	0.666706
H253	H	0.728985	-0.521644	0.000032
H254	H	1.062318	-0.188311	0.333365
H255	H	1.395652	0.145023	0.666699
H256	H	0.769734	-0.457777	0.051517
H257	H	1.103068	-0.124444	0.384850
H258	H	1.436401	0.208890	0.718184
N259	N	1.018059	0.070467	0.394664
N260	N	1.351393	0.403801	0.727997
N261	N	1.684726	0.737134	1.061331
H262	H	1.053896	0.040685	0.353719
H263	H	1.387229	0.374018	0.687052
H264	H	1.720563	0.707351	1.020386
H265	H	1.050879	0.100613	0.430899
H266	H	1.384212	0.433946	0.764233
H267	H	1.717545	0.767279	1.097566
H268	H	0.146339	0.271312	0.000064
H269	H	0.479673	0.604646	0.333398
H270	H	0.813006	0.937979	0.666731
H271	H	0.329383	0.053086	0.000112
H272	H	0.662717	0.386419	0.333445
H273	H	0.996050	0.719753	0.666779
H274	H	0.181053	0.042455	0.000114
H275	H	0.514386	0.375788	0.333448
H276	H	0.847719	0.709121	0.666781
N277	N	0.833441	0.223968	0.605486
N278	N	1.166775	0.557301	0.938819
N279	N	1.500108	0.890635	1.272152
H280	H	0.800551	0.193898	0.569236
H281	H	1.133885	0.527231	0.902569
H282	H	1.467218	0.860564	1.235903
H283	H	0.797670	0.253761	0.646480
H284	H	1.131003	0.587094	0.979813
H285	H	1.464336	0.920427	1.313146
H286	H	1.052778	-0.516763	0.000085
H287	H	1.386111	-0.183430	0.333418
H288	H	1.719445	0.149904	0.666751
N289	N	1.055728	0.039125	0.605509
N290	N	1.389062	0.372458	0.938842
N291	N	1.722395	0.705791	1.272176
H292	H	1.087650	0.012582	0.646460
H293	H	1.420984	0.345915	0.979794
H294	H	1.754317	0.679249	1.313127
H295	H	1.027553	0.005133	0.569257
H296	H	1.360886	0.338467	0.902591
H297	H	1.694219	0.671800	1.235924
N298	N	0.824787	0.231193	0.787170
N299	N	1.158121	0.564526	1.120504
N300	N	1.491454	0.897860	1.453837
H301	H	0.792861	0.257735	0.746222
H302	H	1.126194	0.591068	1.079555
H303	H	1.459528	0.924401	1.412888
H304	H	0.788499	0.203962	0.823456
H305	H	1.121833	0.537295	1.156789
H306	H	1.455166	0.870628	1.490123
N307	N	0.795748	0.255292	0.394637
N308	N	1.129081	0.588625	0.727971
N309	N	1.462415	0.921959	1.061304
H310	H	0.763825	0.281832	0.353684
H311	H	1.097159	0.615165	0.687017
H312	H	1.430492	0.948499	1.020351
H313	H	0.759457	0.228059	0.430918
H314	H	1.092791	0.561392	0.764251
H315	H	1.426124	0.894726	1.097585
N316	N	0.804396	0.248066	0.212965
N317	N	1.137729	0.581399	0.546298
N318	N	1.471063	0.914733	0.879632
H319	H	0.812524	0.298724	0.228156
H320	H	1.145858	0.632057	0.561490
H321	H	1.479191	0.965391	0.894823
H322	H	0.815488	0.238796	0.150979
H323	H	1.148821	0.572129	0.484313
H324	H	1.482155	0.905463	0.817646
N325	N	0.678699	0.269398	0.000016
N326	N	1.012033	0.602731	0.333350
N327	N	1.345366	0.936064	0.666683
H328	H	0.634331	0.306606	0.000013
H329	H	0.967664	0.639939	0.333346
H330	H	1.300998	0.973272	0.666679
H331	H	0.709753	0.276621	0.051488
H332	H	1.043087	0.609954	0.384821
H333	H	1.376420	0.943288	0.718154
H334	H	0.522084	0.241323	0.000047
H335	H	0.855417	0.574657	0.333380
H336	H	1.188751	0.907990	0.666714
