data_functionalizedCrystal
_audit_creation_method	'MofGen! by Chris Wilmer'
_symmetry_space_group_name_H-M	'P1'
_symmetry_Int_Tables_number	1
_symmetry_cell_setting	triclinic
loop_
_symmetry_equiv_pos_as_xyz
  x,y,z
_cell_length_a	19.077105
_cell_length_b	16.120484
_cell_length_c	19.077174
_cell_angle_alpha	95.281307
_cell_angle_beta	85.483752
_cell_angle_gamma	90.738523
loop_
_atom_site_label
_atom_site_type_symbol
_atom_site_fract_x
_atom_site_fract_y
_atom_site_fract_z
Zn1	Zn	1.077028	-0.405078	-0.458497
Zn2	Zn	1.410361	-0.071745	-0.125163
Zn3	Zn	1.743695	0.261589	0.208170
Zn4	Zn	1.066713	-0.538658	-0.346101
Zn5	Zn	1.400046	-0.205325	-0.012767
Zn6	Zn	1.733380	0.128009	0.320566
Zn7	Zn	0.954893	-0.393424	-0.335415
Zn8	Zn	1.288226	-0.060091	-0.002082
Zn9	Zn	1.621559	0.273243	0.331252
Zn10	Zn	0.953609	-0.538603	-0.459216
Zn11	Zn	1.286943	-0.205270	-0.125883
Zn12	Zn	1.620276	0.128063	0.207450
O13	O	1.013061	-0.468941	-0.399807
O14	O	1.346394	-0.135607	-0.066474
O15	O	1.679727	0.197726	0.266860
O16	O	1.174108	-0.427698	-0.447758
O17	O	1.507441	-0.094364	-0.114425
O18	O	1.840775	0.238969	0.218909
O19	O	1.048100	-0.514538	-0.245834
O20	O	1.381434	-0.181205	0.087500
O21	O	1.714767	0.152129	0.420833
O22	O	0.975948	-0.278308	-0.346969
O23	O	1.309282	0.055025	-0.013636
O24	O	1.642615	0.388359	0.319698
O25	O	1.166530	-0.525838	-0.365181
O26	O	1.499863	-0.192505	-0.031848
O27	O	1.833196	0.140828	0.301486
O28	O	1.065680	-0.286870	-0.437397
O29	O	1.399014	0.046463	-0.104063
O30	O	1.732347	0.379796	0.229270
O31	O	0.965946	-0.407835	-0.237983
O32	O	1.299280	-0.074502	0.095350
O33	O	1.632613	0.258832	0.428683
O34	O	0.856274	-0.407782	-0.347667
O35	O	1.189607	-0.074449	-0.014333
O36	O	1.522941	0.258884	0.319000
O37	O	0.973761	-0.525745	-0.557970
O38	O	1.307094	-0.192412	-0.224637
O39	O	1.640427	0.140921	0.108697
O40	O	0.855331	-0.514445	-0.438623
O41	O	1.188664	-0.181112	-0.105290
O42	O	1.521998	0.152222	0.228044
O43	O	1.064436	-0.427645	-0.557441
O44	O	1.397769	-0.094312	-0.224108
O45	O	1.731102	0.239022	0.109225
O46	O	1.046856	-0.655312	-0.365879
O47	O	1.380189	-0.321979	-0.032545
O48	O	1.713522	0.011354	0.300788
O49	O	0.963759	-0.655272	-0.448984
O50	O	1.297092	-0.321939	-0.115651
O51	O	1.630425	0.011394	0.217682
C52	C	0.830276	-0.459844	-0.392064
C53	C	1.163609	-0.126510	-0.058731
C54	C	1.496943	0.206823	0.274603
C55	C	0.752080	-0.455973	-0.388769
C56	C	1.085413	-0.122639	-0.055435
C57	C	1.418746	0.210694	0.277898
C58	C	0.714864	-0.509765	-0.434509
C59	C	1.048198	-0.176431	-0.101176
C60	C	1.381531	0.156902	0.232158
C61	C	0.641391	-0.506117	-0.431416
C62	C	0.974725	-0.172783	-0.098083
C63	C	1.308058	0.160550	0.235251
C64	C	0.605135	-0.448680	-0.382579
C65	C	0.938468	-0.115347	-0.049245
C66	C	1.271801	0.217986	0.284088
C67	C	0.642355	-0.394883	-0.336836
C68	C	0.975689	-0.061549	-0.003503
C69	C	1.309022	0.271784	0.329830
C70	C	0.715827	-0.398527	-0.339933
C71	C	1.049161	-0.065194	-0.006600
C72	C	1.382494	0.268140	0.326733
C73	C	0.385448	-0.431813	-0.368249
C74	C	0.718781	-0.098480	-0.034915
C75	C	1.052115	0.234854	0.298418
C76	C	0.311971	-0.428174	-0.365154
C77	C	0.645304	-0.094841	-0.031820
C78	C	0.978637	0.238492	0.301513
C79	C	0.311012	-0.539408	-0.459734
C80	C	0.644345	-0.206074	-0.126401
C81	C	0.977679	0.127259	0.206932
C82	C	0.384485	-0.543051	-0.462824
C83	C	0.717819	-0.209717	-0.129491
C84	C	1.051152	0.123616	0.203842
C85	C	0.421700	-0.489250	-0.417085
C86	C	0.755033	-0.155917	-0.083751
C87	C	1.088366	0.177417	0.249582
N88	N	0.530033	-0.444952	-0.379414
N89	N	0.863366	-0.111619	-0.046081
N90	N	1.196700	0.221715	0.287252
N91	N	0.496800	-0.492975	-0.420253
N92	N	0.830133	-0.159642	-0.086919
N93	N	1.163467	0.173692	0.246414
C94	C	1.004068	-0.685543	-0.408685
C95	C	1.337402	-0.352210	-0.075352
C96	C	1.670735	-0.018876	0.257981
C97	C	1.000287	-0.778211	-0.412510
C98	C	1.333620	-0.444878	-0.079176
C99	C	1.666953	-0.111544	0.254157
C100	C	0.993387	-0.947877	-0.419507
C101	C	1.326720	-0.614544	-0.086173
C102	C	1.660053	-0.281210	0.247160
C103	C	1.032861	-0.989171	-0.380125
C104	C	1.366195	-0.655838	-0.046791
C105	C	1.699528	-0.322504	0.286542
C106	C	1.029022	-1.083579	-0.384018
C107	C	1.362355	-0.750246	-0.050684
C108	C	1.695689	-0.416912	0.282649
C109	C	0.997225	-0.853460	-0.415614
C110	C	1.330558	-0.520127	-0.082281
C111	C	1.663892	-0.186794	0.251052
C112	C	1.196559	-0.478074	-0.407581
C113	C	1.529893	-0.144741	-0.074248
C114	C	1.863226	0.188593	0.259086
C115	C	1.274755	-0.481966	-0.410894
C116	C	1.608089	-0.148633	-0.077561
C117	C	1.941422	0.184700	0.255773
C118	C	1.020106	-0.477989	-0.584053
C119	C	1.353439	-0.144656	-0.250720
C120	C	1.686772	0.188678	0.082614
C121	C	1.023108	-0.481845	-0.662568
C122	C	1.356441	-0.148511	-0.329234
C123	C	1.689774	0.184822	0.004099
C124	C	1.022108	-0.251494	-0.390911
C125	C	1.355441	0.081839	-0.057577
C126	C	1.688775	0.415172	0.275756
C127	C	1.025963	-0.158832	-0.387120
C128	C	1.359297	0.174502	-0.053786
C129	C	1.692630	0.507835	0.279547
C130	C	0.981747	-0.428103	-0.695366
C131	C	1.315080	-0.094770	-0.362033
C132	C	1.648414	0.238564	-0.028699
C133	C	0.984565	-0.431733	-0.769139
C134	C	1.317898	-0.098399	-0.435806
C135	C	1.651231	0.234934	-0.102472
C136	C	1.028748	-0.489101	-0.810112
C137	C	1.362081	-0.155767	-0.476779
C138	C	1.695414	0.177566	-0.143445
C139	C	1.070110	-0.542848	-0.777309
C140	C	1.403443	-0.209515	-0.443975
C141	C	1.736777	0.123818	-0.110642
C142	C	1.067288	-0.539222	-0.703537
C143	C	1.400621	-0.205889	-0.370204
C144	C	1.733955	0.127445	-0.036870
C145	C	1.041771	-0.505907	-1.031184
C146	C	1.375104	-0.172574	-0.697851
C147	C	1.708437	0.160760	-0.364518
C148	C	1.044591	-0.509528	-1.104961
C149	C	1.377924	-0.176194	-0.771627
C150	C	1.711258	0.157139	-0.438294
C151	C	0.959044	-0.398413	-1.096786
C152	C	1.292378	-0.065079	-0.763453
C153	C	1.625711	0.268254	-0.430119
C154	C	0.956230	-0.394788	-1.023013
C155	C	1.289563	-0.061455	-0.689680
C156	C	1.622896	0.271879	-0.356347
C157	C	0.997589	-0.448538	-0.990216
C158	C	1.330922	-0.115205	-0.656883
C159	C	1.664256	0.218128	-0.323550
N160	N	1.031631	-0.492811	-0.885520
N161	N	1.364964	-0.159477	-0.552187
N162	N	1.698297	0.173856	-0.218853
N163	N	0.994702	-0.444832	-0.914810
N164	N	1.328035	-0.111499	-0.581476
N165	N	1.661369	0.221835	-0.248143
C166	C	1.006086	-0.459870	-0.216277
C167	C	1.339420	-0.126536	0.117056
C168	C	1.672753	0.206797	0.450389
C169	C	1.003230	-0.455786	-0.137759
C170	C	1.336564	-0.122452	0.195574
C171	C	1.669897	0.210881	0.528907
H172	H	0.280704	-0.583208	-0.496974
H173	H	0.614037	-0.249875	-0.163641
H174	H	0.947371	0.083459	0.169693
C175	C	0.754740	-0.572950	-0.488234
C176	C	1.088073	-0.239617	-0.154901
C177	C	1.421407	0.093717	0.178433
N178	N	0.784772	-0.620541	-0.528703
N179	N	1.118106	-0.287208	-0.195370
N180	N	1.451439	0.046126	0.137963
C181	C	1.093195	-0.572643	-1.150030
C182	C	1.426528	-0.239309	-0.816697
C183	C	1.759862	0.094024	-0.483364
N184	N	1.129802	-0.620179	-1.183977
N185	N	1.463135	-0.286845	-0.850643
N186	N	1.796468	0.046488	-0.517310
H187	H	1.075440	-0.549683	-1.004490
H188	H	1.408774	-0.216350	-0.671157
H189	H	1.742107	0.116983	-0.337824
C190	C	0.943832	-0.995900	-0.468995
C191	C	1.277165	-0.662567	-0.135662
C192	C	1.610498	-0.329233	0.197671
N193	N	0.906504	-1.032080	-0.506266
N194	N	1.239837	-0.698747	-0.172933
N195	N	1.573170	-0.365414	0.160401
C196	C	1.082407	-0.941146	-0.330619
C197	C	1.415740	-0.607813	0.002714
C198	C	1.749074	-0.274480	0.336047
N199	N	1.119721	-0.904970	-0.293331
N200	N	1.453054	-0.571637	0.040002
N201	N	1.786387	-0.238303	0.373336
H202	H	0.611094	-0.549920	-0.468662
H203	H	0.944427	-0.216587	-0.135329
H204	H	1.277760	0.116746	0.198005
C205	C	1.118544	-0.606135	-0.822383
C206	C	1.451877	-0.272801	-0.489049
C207	C	1.785211	0.060532	-0.155716
N208	N	1.154967	-0.653866	-0.856332
N209	N	1.488301	-0.320533	-0.522999
N210	N	1.821634	0.012800	-0.189665
H211	H	0.282453	-0.381393	-0.325388
H212	H	0.615786	-0.048060	0.007945
H213	H	0.949120	0.285273	0.341278
H214	H	0.945773	-0.381383	-0.662010
H215	H	1.279106	-0.048050	-0.328677
H216	H	1.612439	0.285284	0.004656
C217	C	0.602470	-0.331700	-0.283116
C218	C	0.935804	0.001634	0.050217
C219	C	1.269137	0.334967	0.383550
N220	N	0.572429	-0.284111	-0.242652
N221	N	0.905763	0.049222	0.090681
N222	N	1.239096	0.382556	0.424015
C223	C	1.112792	-0.598339	-0.667459
C224	C	1.446125	-0.265005	-0.334126
C225	C	1.779458	0.068328	-0.000793
N226	N	1.147066	-0.642868	-0.640287
N227	N	1.480399	-0.309535	-0.306953
N228	N	1.813733	0.023798	0.026380
C229	C	0.939072	-0.372604	-0.805214
C230	C	1.272405	-0.039270	-0.471880
C231	C	1.605738	0.294063	-0.138547
N232	N	0.904807	-0.328063	-0.832384
N233	N	1.238140	0.005271	-0.499051
N234	N	1.571473	0.338604	-0.165718
H235	H	0.414000	-0.589823	-0.502591
H236	H	0.747334	-0.256490	-0.169258
H237	H	1.080667	0.076844	0.164075
C238	C	0.907623	-0.331680	-0.977948
C239	C	1.240957	0.001653	-0.644615
C240	C	1.574290	0.334986	-0.311281
N241	N	0.871014	-0.284145	-0.944005
N242	N	1.204347	0.049188	-0.610671
N243	N	1.537680	0.382521	-0.277338
H244	H	0.415739	-0.388011	-0.330999
H245	H	0.749072	-0.054678	0.002334
H246	H	1.082405	0.278656	0.335668
H247	H	0.746127	-0.354720	-0.302690
H248	H	1.079461	-0.021387	0.030643
H249	H	1.412794	0.311947	0.363976
C250	C	0.913547	-0.339296	-1.132869
C251	C	1.246881	-0.005963	-0.799535
C252	C	1.580214	0.327371	-0.466202
N253	N	0.879275	-0.294770	-1.160047
N254	N	1.212608	0.038564	-0.826713
N255	N	1.545941	0.371897	-0.493380
