data_functionalizedCrystal
_audit_creation_method	'MofGen! by Chris Wilmer'
_symmetry_space_group_name_H-M	'P1'
_symmetry_Int_Tables_number	1
_symmetry_cell_setting	triclinic
loop_
_symmetry_equiv_pos_as_xyz
  x,y,z
_cell_length_a	16.109302
_cell_length_b	19.188924
_cell_length_c	15.186229
_cell_angle_alpha	89.994194
_cell_angle_beta	89.994701
_cell_angle_gamma	83.301872
loop_
_atom_site_label
_atom_site_type_symbol
_atom_site_fract_x
_atom_site_fract_y
_atom_site_fract_z
O1	O	1.102830	0.089747	-0.073272
O2	O	1.352830	0.339747	0.176728
O3	O	1.602830	0.589747	0.426728
O4	O	1.852830	0.839747	0.676728
O5	O	0.860731	0.100915	-0.073266
O6	O	1.110731	0.350915	0.176734
O7	O	1.360731	0.600915	0.426734
O8	O	1.610731	0.850915	0.676734
O9	O	0.988770	-0.006309	-0.073259
O10	O	1.238770	0.243691	0.176741
O11	O	1.488770	0.493691	0.426741
O12	O	1.738770	0.743691	0.676741
O13	O	0.974791	0.196970	-0.073279
O14	O	1.224791	0.446970	0.176721
O15	O	1.474791	0.696970	0.426721
O16	O	1.724791	0.946970	0.676721
O17	O	0.988762	-0.006311	0.073199
O18	O	1.238762	0.243689	0.323199
O19	O	1.488762	0.493689	0.573199
O20	O	1.738762	0.743689	0.823199
O21	O	0.860722	0.100913	0.073192
O22	O	1.110722	0.350913	0.323192
O23	O	1.360722	0.600913	0.573192
O24	O	1.610722	0.850913	0.823192
O25	O	1.102822	0.089745	0.073185
O26	O	1.352822	0.339745	0.323185
O27	O	1.602822	0.589745	0.573185
O28	O	1.852822	0.839745	0.823185
Zn29	Zn	0.981771	0.095329	0.096442
Zn30	Zn	1.231771	0.345329	0.346442
Zn31	Zn	1.481771	0.595329	0.596442
Zn32	Zn	1.731771	0.845329	0.846442
Zn33	Zn	0.981782	0.095331	-0.096522
Zn34	Zn	1.231782	0.345331	0.153478
Zn35	Zn	1.481782	0.595331	0.403478
Zn36	Zn	1.731782	0.845331	0.653478
O37	O	0.974783	0.196969	0.073178
O38	O	1.224783	0.446969	0.323178
O39	O	1.474783	0.696969	0.573178
O40	O	1.724783	0.946969	0.823178
C41	C	0.829753	0.100461	-0.000036
C42	C	1.079753	0.350461	0.249964
C43	C	1.329753	0.600461	0.499964
C44	C	1.579753	0.850461	0.749964
C45	C	0.737463	0.099105	-0.000033
C46	C	0.987463	0.349105	0.249967
C47	C	1.237463	0.599105	0.499967
C48	C	1.487463	0.849105	0.749967
C49	C	0.525128	0.095967	0.079792
C50	C	0.775128	0.345967	0.329792
C51	C	1.025128	0.595967	0.579792
C52	C	1.275128	0.845967	0.829792
C53	C	0.438412	0.094685	0.079789
C54	C	0.688412	0.344685	0.329789
C55	C	0.938412	0.594685	0.579789
C56	C	1.188412	0.844685	0.829789
C57	C	0.438432	0.094690	-0.079887
C58	C	0.688432	0.344690	0.170113
C59	C	0.938432	0.594690	0.420113
C60	C	1.188432	0.844690	0.670113
C61	C	0.525147	0.095968	-0.079883
C62	C	0.775147	0.345968	0.170117
C63	C	1.025147	0.595968	0.420117
C64	C	1.275147	0.845968	0.670117
C65	C	0.568492	0.096609	-0.000041
C66	C	0.818492	0.346609	0.249959
C67	C	1.068492	0.596609	0.499959
C68	C	1.318492	0.846609	0.749959
C69	C	0.395061	0.094050	-0.000048
C70	C	0.645061	0.344050	0.249952
C71	C	0.895061	0.594050	0.499952
C72	C	1.145061	0.844050	0.749952
C73	C	0.301040	0.092660	-0.000051
C74	C	0.551040	0.342660	0.249949
C75	C	0.801040	0.592660	0.499949
C76	C	1.051040	0.842660	0.749949
C77	C	0.662519	0.097998	-0.000037
C78	C	0.912519	0.347998	0.249963
C79	C	1.162519	0.597998	0.499963
C80	C	1.412519	0.847998	0.749963
C81	C	0.988314	-0.032322	-0.000029
C82	C	1.238314	0.217678	0.249971
C83	C	1.488314	0.467678	0.499971
C84	C	1.738314	0.717678	0.749971
C85	C	0.986958	-0.109830	-0.000027
C86	C	1.236958	0.140170	0.249973
C87	C	1.486958	0.390170	0.499973
C88	C	1.736958	0.640170	0.749973
C89	C	0.986330	-0.146229	-0.079861
C90	C	1.236330	0.103771	0.170139
C91	C	1.486330	0.353771	0.420139
C92	C	1.736330	0.603771	0.670139
C93	C	0.985044	-0.219055	-0.079868
C94	C	1.235044	0.030945	0.170132
C95	C	1.485044	0.280945	0.420132
C96	C	1.735044	0.530945	0.670132
C97	C	0.984403	-0.255480	-0.000036
C98	C	1.234403	-0.005480	0.249964
C99	C	1.484403	0.244520	0.499964
C100	C	1.734403	0.494520	0.749964
C101	C	0.985027	-0.219071	0.079809
C102	C	1.235027	0.030929	0.329809
C103	C	1.485027	0.280929	0.579809
C104	C	1.735027	0.530929	0.829809
C105	C	0.986304	-0.146246	0.079813
C106	C	1.236304	0.103754	0.329813
C107	C	1.486304	0.353754	0.579813
C108	C	1.736304	0.603754	0.829813
N109	N	1.029706	-0.375038	0.059380
N110	N	1.279706	-0.125038	0.309380
N111	N	1.529706	0.124962	0.559380
N112	N	1.779706	0.374962	0.809380
N113	N	1.028494	-0.444219	0.059371
N114	N	1.278494	-0.194219	0.309371
N115	N	1.528494	0.055781	0.559371
N116	N	1.778494	0.305781	0.809371
C117	C	0.980552	-0.474898	-0.000044
C118	C	1.230552	-0.224898	0.249956
C119	C	1.480552	0.025102	0.499956
C120	C	1.730552	0.275102	0.749956
N121	N	0.933878	-0.433784	-0.059462
N122	N	1.183878	-0.183784	0.190538
N123	N	1.433878	0.066216	0.440538
N124	N	1.683878	0.316216	0.690538
N125	N	0.935093	-0.364597	-0.059455
N126	N	1.185093	-0.114597	0.190545
N127	N	1.435093	0.135403	0.440545
N128	N	1.685093	0.385403	0.690545
C129	C	0.983017	-0.334447	-0.000032
C130	C	1.233017	-0.084447	0.249968
C131	C	1.483017	0.165553	0.499968
C132	C	1.733017	0.415553	0.749968
C133	C	0.978528	-0.590264	-0.079891
C134	C	1.228528	-0.340264	0.170109
C135	C	1.478528	-0.090264	0.420109
C136	C	1.728528	0.159736	0.670109
C137	C	0.977237	-0.663090	-0.079894
C138	C	1.227237	-0.413090	0.170106
C139	C	1.477237	-0.163090	0.420106
C140	C	1.727237	0.086910	0.670106
C141	C	0.977228	-0.663106	0.079785
C142	C	1.227228	-0.413106	0.329785
C143	C	1.477228	-0.163106	0.579785
C144	C	1.727228	0.086894	0.829785
C145	C	0.978511	-0.590280	0.079786
C146	C	1.228511	-0.340280	0.329786
C147	C	1.478511	-0.090280	0.579786
C148	C	1.728511	0.159720	0.829786
C149	C	0.979165	-0.553864	-0.000055
C150	C	1.229165	-0.303864	0.249945
C151	C	1.479165	-0.053864	0.499945
C152	C	1.729165	0.196136	0.749945
C153	C	1.133799	0.090198	-0.000046
C154	C	1.383799	0.340198	0.249954
C155	C	1.633799	0.590198	0.499954
C156	C	1.883799	0.840198	0.749954
C157	C	1.226090	0.091555	-0.000055
C158	C	1.476090	0.341555	0.249945
C159	C	1.726090	0.591555	0.499945
C160	C	1.976090	0.841555	0.749945
C161	C	0.975239	0.222982	-0.000053
C162	C	1.225239	0.472982	0.249947
C163	C	1.475239	0.722982	0.499947
C164	C	1.725239	0.972982	0.749947
C165	C	0.976595	0.300490	-0.000061
C166	C	1.226595	0.550490	0.249939
C167	C	1.476595	0.800490	0.499939
C168	C	1.726595	1.050490	0.749939
N169	N	0.981769	0.095327	0.228134
N170	N	1.231769	0.345327	0.478134
N171	N	1.481769	0.595327	0.728134
N172	N	1.731769	0.845327	0.978134
N173	N	0.981790	0.095327	-0.228215
N174	N	1.231790	0.345327	0.021785
N175	N	1.481790	0.595327	0.271785
N176	N	1.731790	0.845327	0.521785
C177	C	1.038484	0.047864	0.453860
C178	C	1.288484	0.297864	0.703860
C179	C	1.538484	0.547864	0.953860
C180	C	1.788484	0.797864	1.203860
C181	C	1.038487	0.047863	0.546050
C182	C	1.288487	0.297863	0.796050
C183	C	1.538487	0.547863	1.046050
C184	C	1.788487	0.797863	1.296050
C185	C	0.925069	0.142792	0.546053
C186	C	1.175069	0.392792	0.796053
C187	C	1.425069	0.642792	1.046053
C188	C	1.675069	0.892792	1.296053
C189	C	0.925063	0.142790	0.453865
C190	C	1.175063	0.392790	0.703865
C191	C	1.425063	0.642790	0.953865
C192	C	1.675063	0.892790	1.203865
C193	C	0.981775	0.095327	0.407771
C194	C	1.231775	0.345327	0.657771
C195	C	1.481775	0.595327	0.907771
C196	C	1.731775	0.845327	1.157771
C197	C	0.981784	0.095327	0.592148
C198	C	1.231784	0.345327	0.842148
C199	C	1.481784	0.595327	1.092148
C200	C	1.731784	0.845327	1.342148
C201	C	0.981786	0.095326	0.692105
C202	C	1.231786	0.345326	0.942105
C203	C	1.481786	0.595326	1.192105
C204	C	1.731786	0.845326	1.442105
C205	C	0.981772	0.095327	0.307808
C206	C	1.231772	0.345327	0.557808
C207	C	1.481772	0.595327	0.807808
C208	C	1.731772	0.845327	1.057808
H209	H	0.560455	0.096489	-0.144896
H210	H	0.810455	0.346489	0.105104
H211	H	1.060455	0.596489	0.355104
H212	H	1.310455	0.846489	0.605104
H213	H	0.986860	-0.116583	-0.144873
H214	H	1.236860	0.133417	0.105127
H215	H	1.486860	0.383417	0.355127
H216	H	1.736860	0.633417	0.605127
H217	H	0.986812	-0.116610	0.144826
H218	H	1.236812	0.133390	0.394826
H219	H	1.486812	0.383390	0.644826
H220	H	1.736812	0.633390	0.894826
F221	F	0.984339	-0.257838	0.164772
F222	F	1.234339	-0.007838	0.414772
F223	F	1.484339	0.242162	0.664772
F224	F	1.734339	0.492162	0.914772
F225	F	0.984374	-0.257802	-0.164841
F226	F	1.234374	-0.007802	0.085159
F227	F	1.484374	0.242198	0.335159
F228	F	1.734374	0.492198	0.585159
F229	F	0.864717	0.193305	0.595115
F230	F	1.114717	0.443305	0.845115
F231	F	1.364717	0.693305	1.095115
F232	F	1.614717	0.943305	1.345115
H233	H	0.403109	0.094162	0.144797
H234	H	0.653109	0.344162	0.394797
H235	H	0.903109	0.594162	0.644797
H236	H	1.153109	0.844162	0.894797
F237	F	0.979219	-0.551504	-0.164862
F238	F	1.229219	-0.301504	0.085138
F239	F	1.479219	-0.051504	0.335138
F240	F	1.729219	0.198496	0.585138
F241	F	0.392295	0.093993	-0.164855
F242	F	0.642295	0.343993	0.085145
F243	F	0.892295	0.593993	0.335145
F244	F	1.142295	0.843993	0.585145
F245	F	0.571256	0.096648	0.164767
F246	F	0.821256	0.346648	0.414767
F247	F	1.071256	0.596648	0.664767
F248	F	1.321256	0.846648	0.914767
H249	H	1.084663	0.009214	0.583573
H250	H	1.334663	0.259214	0.833573
H251	H	1.584663	0.509214	1.083573
H252	H	1.834663	0.759214	1.333573
F253	F	0.976563	-0.701829	-0.164869
F254	F	1.226563	-0.451829	0.085131
F255	F	1.476563	-0.201829	0.335131
F256	F	1.726563	0.048171	0.585131
F257	F	0.976542	-0.701867	0.164749
F258	F	1.226542	-0.451867	0.414749
F259	F	1.476542	-0.201867	0.664749
F260	F	1.726542	0.048133	0.914749
H261	H	0.979029	-0.560644	0.144795
H262	H	1.229029	-0.310644	0.394795
H263	H	1.479029	-0.060644	0.644795
H264	H	1.729029	0.189356	0.894795
F265	F	1.098840	-0.002652	0.404807
F266	F	1.348840	0.247348	0.654807
F267	F	1.598840	0.497348	0.904807
F268	F	1.848840	0.747348	1.154807
H269	H	0.878880	0.181440	0.416336
H270	H	1.128880	0.431440	0.666336
H271	H	1.378880	0.681440	0.916336
H272	H	1.628880	0.931440	1.166336
