data_functionalizedCrystal
_audit_creation_method	'MofGen! by Chris Wilmer'
_symmetry_space_group_name_H-M	'P1'
_symmetry_Int_Tables_number	1
_symmetry_cell_setting	triclinic
loop_
_symmetry_equiv_pos_as_xyz
  x,y,z
_cell_length_a	19.077236
_cell_length_b	17.637651
_cell_length_c	19.076919
_cell_angle_alpha	80.566536
_cell_angle_beta	89.887323
_cell_angle_gamma	102.996166
loop_
_atom_site_label
_atom_site_type_symbol
_atom_site_fract_x
_atom_site_fract_y
_atom_site_fract_z
Zn1	Zn	1.008868	-0.286804	-0.386873
Zn2	Zn	0.991689	-0.413421	-0.245673
Zn3	Zn	0.896155	-0.286390	-0.264730
Zn4	Zn	0.867692	-0.423962	-0.356438
O5	O	0.941101	-0.352644	-0.313429
O6	O	1.105653	-0.299362	-0.372904
O7	O	0.983739	-0.391985	-0.150728
O8	O	0.930208	-0.175881	-0.301646
O9	O	1.093032	-0.392387	-0.269164
O10	O	1.013018	-0.176185	-0.391383
O11	O	0.913550	-0.298656	-0.164730
O12	O	0.793315	-0.308877	-0.272135
O13	O	0.881697	-0.410352	-0.457949
O14	O	0.772404	-0.409950	-0.339512
O15	O	0.985418	-0.309583	-0.480309
O16	O	0.956139	-0.525383	-0.239653
O17	O	0.865039	-0.533127	-0.321033
C18	C	0.757173	-0.360513	-0.304589
C19	C	0.678484	-0.363899	-0.300820
C20	C	0.648070	-0.317140	-0.353114
C21	C	0.574134	-0.320318	-0.349568
C22	C	0.530612	-0.370259	-0.293730
C23	C	0.561031	-0.417020	-0.241431
C24	C	0.634966	-0.413837	-0.244975
C25	C	0.308786	-0.384957	-0.277330
C26	C	0.234846	-0.388138	-0.273791
C27	C	0.247954	-0.291434	-0.381928
C28	C	0.321890	-0.288260	-0.385469
C29	C	0.352303	-0.335018	-0.333168
N30	N	0.455037	-0.373510	-0.290105
N31	N	0.427877	-0.331762	-0.336791
C32	C	0.905655	-0.557923	-0.274989
C33	C	0.890554	-0.645741	-0.258570
C34	C	1.056267	-0.935079	-0.438399
C35	C	1.042056	-1.017597	-0.422959
C36	C	0.955891	-1.017381	-0.329432
C37	C	0.970097	-0.934861	-0.344862
C38	C	1.020286	-0.893716	-0.399348
C39	C	0.934116	-0.893498	-0.305811
C40	C	0.948318	-0.810985	-0.321243
C41	C	0.998503	-0.769835	-0.375727
C42	C	1.034488	-0.811203	-0.414780
C43	C	0.883924	-0.934644	-0.251329
C44	C	0.847942	-0.893281	-0.212277
C45	C	0.862148	-0.810767	-0.227706
C46	C	0.912333	-0.769617	-0.282190
C47	C	0.826163	-0.769398	-0.188653
C48	C	0.840366	-0.686885	-0.204085
C49	C	0.926536	-0.687104	-0.297622
C50	C	1.125747	-0.344745	-0.322303
C51	C	1.204432	-0.341379	-0.326085
C52	C	0.932299	-0.361189	-0.495109
C53	C	0.928548	-0.364831	-0.572530
C54	C	0.976704	-0.146563	-0.352035
C55	C	0.991876	-0.058744	-0.368487
C56	C	0.980785	-0.314079	-0.620545
C57	C	0.977253	-0.317498	-0.693291
C58	C	0.921485	-0.371673	-0.718019
C59	C	0.869243	-0.422427	-0.669999
C60	C	0.872773	-0.419004	-0.597255
C61	C	0.905134	-0.387534	-0.934331
C62	C	0.901609	-0.390955	-1.007080
C63	C	1.009618	-0.286024	-1.030368
C64	C	1.013146	-0.282609	-0.957621
C65	C	0.960902	-0.333360	-0.909607
N66	N	0.917874	-0.375171	-0.792377
N67	N	0.964510	-0.329858	-0.835252
C68	C	0.949919	-0.344073	-0.132468
C69	C	0.953846	-0.340203	-0.055095
H70	H	0.549375	-0.282243	-0.392152
Br71	Br	0.834229	-0.456410	-0.869178
Br72	Br	0.994661	-0.631256	-0.371557
H73	H	0.823833	-0.466535	-0.690139
Br74	Br	0.801873	-0.487880	-0.532091
Br75	Br	0.887773	-1.073227	-0.255497
H76	H	1.026199	-0.269966	-0.600417
H77	H	0.785295	-0.802911	-0.144296
Br78	Br	0.825917	-0.464481	-1.040640
H79	H	0.872355	-1.001832	-0.238772
Br80	Br	0.206676	-0.227981	-0.452903
Br81	Br	0.380949	-0.220488	-0.461258
Br82	Br	0.707128	-0.249365	-0.428902
H83	H	1.058560	-0.238496	-0.937493
Br84	Br	0.175774	-0.455943	-0.198021
H85	H	1.052152	-0.244705	-1.069468
H86	H	0.333539	-0.423031	-0.234743
Br87	Br	0.501967	-0.484791	-0.165645
H88	H	0.811065	-0.653208	-0.172285
H89	H	1.010066	-0.702647	-0.388290
H90	H	0.807077	-0.926793	-0.167917
Br91	Br	1.102614	-0.755355	-0.488714
Br92	Br	0.676243	-0.477297	-0.174001
H93	H	1.097141	-0.901577	-0.482762
H94	H	1.071350	-1.051273	-0.454773
H95	H	1.019791	-0.276172	-0.732382
