data_functionalizedCrystal
_audit_creation_method	'MofGen! by Chris Wilmer'
_symmetry_space_group_name_H-M	'P1'
_symmetry_Int_Tables_number	1
_symmetry_cell_setting	triclinic
loop_
_symmetry_equiv_pos_as_xyz
  x,y,z
_cell_length_a	15.995350
_cell_length_b	16.053810
_cell_length_c	16.992695
_cell_angle_alpha	92.759297
_cell_angle_beta	87.080298
_cell_angle_gamma	87.435524
loop_
_atom_site_label
_atom_site_type_symbol
_atom_site_fract_x
_atom_site_fract_y
_atom_site_fract_z
O1	O	1.121041	-0.069347	0.097759
O2	O	1.454374	0.263987	0.431092
O3	O	1.787707	0.597320	0.764425
O4	O	0.878101	-0.069363	0.110239
O5	O	1.211435	0.263971	0.443572
O6	O	1.544768	0.597304	0.776905
O7	O	0.998597	-0.069362	-0.010144
O8	O	1.331931	0.263971	0.323189
O9	O	1.665264	0.597305	0.656522
O10	O	1.000544	-0.069347	0.218142
O11	O	1.333878	0.263986	0.551475
O12	O	1.667211	0.597319	0.884808
O13	O	0.991994	0.069497	-0.003520
O14	O	1.325327	0.402830	0.329813
O15	O	1.658660	0.736163	0.663146
O16	O	0.871498	0.069496	0.116863
O17	O	1.204831	0.402830	0.450196
O18	O	1.538164	0.736163	0.783529
O19	O	1.114437	0.069512	0.104383
O20	O	1.447770	0.402845	0.437716
O21	O	1.781104	0.736179	0.771050
Zn22	Zn	0.991919	0.091551	0.111675
Zn23	Zn	1.325252	0.424884	0.445008
Zn24	Zn	1.658585	0.758218	0.778341
Zn25	Zn	1.000619	-0.091401	0.102947
Zn26	Zn	1.333953	0.241932	0.436280
Zn27	Zn	1.667286	0.575265	0.769614
O28	O	0.993941	0.069511	0.224766
O29	O	1.327274	0.402845	0.558099
O30	O	1.660607	0.736178	0.891432
C31	C	0.843570	0.000065	0.113035
C32	C	1.176904	0.333398	0.446368
C33	C	1.510237	0.666731	0.779701
C34	C	0.750517	0.000058	0.111487
C35	C	1.083850	0.333391	0.444821
C36	C	1.417183	0.666725	0.778154
C37	C	0.992790	0.000064	-0.036045
C38	C	1.326123	0.333397	0.297288
C39	C	1.659457	0.666730	0.630622
C40	C	0.985314	0.000052	-0.123090
C41	C	1.318648	0.333385	0.210244
C42	C	1.651981	0.666719	0.543577
N43	N	0.985987	0.216411	0.117630
N44	N	1.319320	0.549744	0.450964
N45	N	1.652654	0.883078	0.784297
C46	C	0.412397	0.000075	0.105933
C47	C	0.745730	0.333408	0.439266
C48	C	1.079063	0.666742	0.772600
C49	C	0.454079	0.000379	0.020213
C50	C	0.787413	0.333713	0.353546
C51	C	1.120746	0.667046	0.686880
C52	C	0.550888	0.000061	0.021745
C53	C	0.884222	0.333394	0.355078
C54	C	1.217555	0.666727	0.688412
C55	C	0.580142	0.000067	0.108688
C56	C	0.913475	0.333400	0.442021
C57	C	1.246809	0.666734	0.775355
C58	C	0.545655	-0.079222	0.147193
C59	C	0.878988	0.254111	0.480526
C60	C	1.212322	0.587445	0.813860
C61	C	0.448878	-0.079283	0.145036
C62	C	0.782211	0.254051	0.478370
C63	C	1.115545	0.587384	0.811703
C64	C	0.441148	0.078626	0.154341
C65	C	0.774481	0.411959	0.487674
C66	C	1.107815	0.745292	0.821007
C67	C	0.538043	0.079668	0.154370
C68	C	0.871376	0.413001	0.487703
C69	C	1.204709	0.746335	0.821037
C70	C	0.674944	0.000060	0.110250
C71	C	1.008278	0.333393	0.443583
C72	C	1.341611	0.666726	0.776916
C73	C	0.317594	0.000077	0.104374
C74	C	0.650928	0.333410	0.437707
C75	C	0.984261	0.666743	0.771040
C76	C	1.148968	0.000083	0.101587
C77	C	1.482301	0.333416	0.434920
C78	C	1.815635	0.666750	0.768253
C79	C	1.242022	0.000084	0.103134
C80	C	1.575355	0.333417	0.436467
C81	C	1.908689	0.666751	0.769800
N82	N	1.006557	-0.216262	0.096985
N83	N	1.339891	0.117072	0.430318
N84	N	1.673224	0.450405	0.763652
C85	C	0.955272	0.740043	0.148196
C86	C	1.288606	1.073376	0.481529
C87	C	1.621939	1.406710	0.814862
C88	C	0.959441	0.652636	0.144044
C89	C	1.292774	0.985970	0.477378
C90	C	1.626108	1.319303	0.810711
C91	C	1.014900	0.608927	0.088686
C92	C	1.348233	0.942260	0.422019
C93	C	1.681566	1.275593	0.755352
C94	C	1.066187	0.652628	0.037469
C95	C	1.399520	0.985962	0.370803
C96	C	1.732854	1.319295	0.704136
C97	C	1.062013	0.740033	0.041618
C98	C	1.395347	1.073367	0.374951
C99	C	1.728680	1.406700	0.708284
C100	C	1.033101	0.347518	0.070562
C101	C	1.366434	0.680851	0.403896
C102	C	1.699767	1.014184	0.737229
C103	C	1.037272	0.260106	0.066420
C104	C	1.370606	0.593440	0.399753
C105	C	1.703939	0.926773	0.733086
C106	C	0.930525	0.260121	0.172994
C107	C	1.263858	0.593454	0.506327
C108	C	1.597191	0.926787	0.839661
C109	C	0.926360	0.347527	0.177140
C110	C	1.259693	0.680861	0.510474
C111	C	1.593026	1.014194	0.843807
C112	C	0.977644	0.391221	0.125922
C113	C	1.310977	0.724555	0.459255
C114	C	1.644310	1.057888	0.792588
N115	N	1.019164	0.519583	0.084443
N116	N	1.352497	0.852916	0.417776
N117	N	1.685831	1.186250	0.751109
N118	N	0.973375	0.480563	0.130161
N119	N	1.306708	0.813897	0.463495
N120	N	1.640041	1.147230	0.796828
C121	C	0.999748	0.000084	0.250666
C122	C	1.333082	0.333417	0.584000
C123	C	1.666415	0.666751	0.917333
C124	C	1.007224	0.000090	0.337711
C125	C	1.340558	0.333423	0.671044
C126	C	1.673891	0.666757	1.004378
C127	C	0.935089	0.000085	0.387951
C128	C	1.268422	0.333418	0.721284
C129	C	1.601756	0.666752	1.054618
C130	C	0.942119	0.000075	0.469737
C131	C	1.275453	0.333408	0.803071
C132	C	1.608786	0.666742	1.136404
C133	C	1.021285	0.000076	0.501282
C134	C	1.354618	0.333409	0.834615
C135	C	1.687952	0.666743	1.167948
C136	C	1.093426	0.000078	0.451035
C137	C	1.426759	0.333412	0.784368
C138	C	1.760092	0.666745	1.117702
C139	C	1.086395	0.000082	0.369250
C140	C	1.419728	0.333416	0.702584
C141	C	1.753062	0.666749	1.035917
C142	C	1.050424	0.000059	0.744879
C143	C	1.383758	0.333392	1.078212
C144	C	1.717091	0.666725	1.411545
C145	C	1.057449	0.000057	0.826670
C146	C	1.390783	0.333391	1.160003
C147	C	1.724116	0.666724	1.493337
C148	C	0.906142	0.000052	0.845367
C149	C	1.239476	0.333385	1.178700
C150	C	1.572809	0.666719	1.512033
C151	C	0.899118	0.000061	0.763580
C152	C	1.232452	0.333394	1.096913
C153	C	1.565785	0.666728	1.430246
C154	C	0.971259	0.000059	0.713340
C155	C	1.304593	0.333393	1.046673
C156	C	1.637926	0.666726	1.380006
N157	N	1.028473	0.000068	0.584880
N158	N	1.361806	0.333402	0.918214
N159	N	1.695139	0.666735	1.251547
N160	N	0.964071	0.000061	0.629743
N161	N	1.297404	0.333394	0.963076
N162	N	1.630738	0.666728	1.296409
H163	H	0.430560	0.057240	-0.011345
H164	H	0.763893	0.390574	0.321989
H165	H	1.097227	0.723907	0.655322
N166	N	0.563706	0.086020	0.238658
N167	N	0.897040	0.419353	0.571991
N168	N	1.230373	0.752686	0.905324
H169	H	0.512319	0.085321	0.275668
H170	H	0.845653	0.418655	0.609001
H171	H	1.178986	0.751988	0.942335
H172	H	0.592849	0.139821	0.248237
H173	H	0.926182	0.473154	0.581570
H174	H	1.259516	0.806488	0.914904
H175	H	1.103774	0.775609	-0.000085
H176	H	1.437108	1.108943	0.333249
H177	H	1.770441	1.442276	0.666582
H178	H	1.111340	0.617035	-0.007609
H179	H	1.444673	0.950368	0.325724
H180	H	1.778006	1.283701	0.659058
N181	N	0.875202	0.212992	0.228222
N182	N	1.208536	0.546325	0.561555
N183	N	1.541869	0.879658	0.894889
H184	H	0.839435	0.253945	0.263919
H185	H	1.172769	0.587278	0.597252
H186	H	1.506102	0.920612	0.930585
H187	H	0.911298	0.176746	0.261189
H188	H	1.244631	0.510079	0.594523
H189	H	1.577964	0.843413	0.927856
N190	N	1.088425	0.394635	0.015331
N191	N	1.421758	0.727968	0.348664
N192	N	1.755092	1.061302	0.681997
H193	H	1.077369	0.456639	0.026353
H194	H	1.410702	0.789972	0.359686
H195	H	1.744035	1.123306	0.693020
H196	H	1.075771	0.379331	-0.041027
H197	H	1.409105	0.712664	0.292306
H198	H	1.742438	1.045998	0.625639
H199	H	1.082437	0.224522	0.021337
H200	H	1.415770	0.557855	0.354671
H201	H	1.749103	0.891189	0.688004
H202	H	0.413591	0.079167	0.217578
H203	H	0.746924	0.412500	0.550911
H204	H	1.080257	0.745833	0.884244
N205	N	1.142839	0.000061	0.860696
N206	N	1.476172	0.333394	1.194029
N207	N	1.809506	0.666728	1.527363
H208	H	1.187474	0.000059	0.816460
H209	H	1.520807	0.333393	1.149793
H210	H	1.854141	0.666726	1.483126
H211	H	1.151493	-0.051414	0.891765
H212	H	1.484827	0.281919	1.225099
H213	H	1.818160	0.615252	1.558432
H214	H	0.847410	0.000053	0.886280
H215	H	1.180743	0.333386	1.219613
H216	H	1.514076	0.666719	1.552947
N217	N	0.407694	0.158240	0.121010
N218	N	0.741028	0.491573	0.454344
N219	N	1.074361	0.824907	0.787677
H220	H	0.371101	0.191188	0.162785
H221	H	0.704434	0.524521	0.496118
H222	H	1.037768	0.857854	0.829451
H223	H	0.373592	0.144125	0.074182
H224	H	0.706925	0.477459	0.407515
H225	H	1.040259	0.810792	0.740848
H226	H	1.145135	0.000083	0.328345
H227	H	1.478469	0.333416	0.661678
H228	H	1.811802	0.666750	0.995011
N229	N	0.849702	0.000094	0.353931
N230	N	1.183035	0.333427	0.687265
N231	N	1.516369	0.666761	1.020598
H232	H	0.805073	0.000089	0.398172
H233	H	1.138406	0.333422	0.731505
H234	H	1.471739	0.666755	1.064838
H235	H	0.845933	-0.051379	0.317943
H236	H	1.179267	0.281954	0.651276
H237	H	1.512600	0.615287	0.984610
H238	H	0.579215	-0.056880	-0.014436
H239	H	0.912548	0.276453	0.318897
H240	H	1.245882	0.609786	0.652231
H241	H	0.834654	0.000051	0.737902
H242	H	1.167987	0.333384	1.071235
H243	H	1.501321	0.666717	1.404569
N244	N	0.567789	0.157372	0.117192
N245	N	0.901122	0.490705	0.450526
N246	N	1.234456	0.824039	0.783859
H247	H	0.608366	0.141089	0.070951
H248	H	0.941699	0.474422	0.404285
H249	H	1.275033	0.807756	0.737618
H250	H	0.596702	0.192544	0.157490
H251	H	0.930035	0.525877	0.490824
H252	H	1.263369	0.859211	0.824157
N253	N	1.128228	0.000069	0.690698
N254	N	1.461562	0.333403	1.024031
N255	N	1.794895	0.666736	1.357364
H256	H	1.164977	-0.051401	0.698385
H257	H	1.498311	0.281933	1.031719
H258	H	1.831644	0.615266	1.365052
H259	H	1.160005	0.051583	0.703336
H260	H	1.493338	0.384917	1.036669
H261	H	1.826671	0.718250	1.370002
H262	H	0.434893	-0.056173	-0.016597
H263	H	0.768226	0.277161	0.316736
H264	H	1.101559	0.610494	0.650069
N265	N	0.895457	0.787184	0.207906
N266	N	1.228791	1.120517	0.541240
N267	N	1.562124	1.453851	0.874573
H268	H	0.863599	0.746237	0.239716
H269	H	1.196933	1.079570	0.573049
H270	H	1.530266	1.412903	0.906382
H271	H	0.854708	0.823427	0.179582
H272	H	1.188041	1.156760	0.512916
H273	H	1.521374	1.490094	0.846249
H274	H	1.157884	0.000081	0.476725
H275	H	1.491217	0.333414	0.810058
H276	H	1.824551	0.666748	1.143392
H277	H	0.574390	0.056898	-0.008784
H278	H	0.907723	0.390232	0.324550
H279	H	1.241057	0.723565	0.657883
H280	H	0.574871	-0.138235	0.115007
H281	H	0.908204	0.195098	0.448340
H282	H	1.241537	0.528432	0.781674
H283	H	0.431325	-0.138558	0.111371
H284	H	0.764659	0.194775	0.444704
H285	H	1.097992	0.528109	0.778038
H286	H	0.883379	0.000068	0.510640
H287	H	1.216712	0.333402	0.843973
H288	H	1.550046	0.666735	1.177307
H289	H	0.421012	-0.082877	0.207810
H290	H	0.754346	0.250457	0.541143
H291	H	1.087679	0.583790	0.874476
H292	H	0.917680	0.617060	0.185744
H293	H	1.251013	0.950393	0.519077
H294	H	1.584347	1.283727	0.852410
N295	N	0.570218	-0.083137	0.231613
N296	N	0.903551	0.250196	0.564946
N297	N	1.236885	0.583529	0.898279
H298	H	0.604018	-0.033431	0.245743
H299	H	0.937352	0.299902	0.579076
H300	H	1.270685	0.633235	0.912410
H301	H	0.604975	-0.136283	0.237767
H302	H	0.938308	0.197050	0.571100
H303	H	1.271642	0.530384	0.904434
N304	N	0.866525	0.394670	0.236833
N305	N	1.199859	0.728003	0.570166
N306	N	1.533192	1.061337	0.903499
H307	H	0.834661	0.353725	0.268640
H308	H	1.167994	0.687058	0.601973
H309	H	1.501327	1.020392	0.935306
H310	H	0.825783	0.430903	0.208491
H311	H	1.159116	0.764237	0.541825
H312	H	1.492449	1.097570	0.875158
