data_functionalizedCrystal
_audit_creation_method	'MofGen! by Chris Wilmer'
_symmetry_space_group_name_H-M	'P1'
_symmetry_Int_Tables_number	1
_symmetry_cell_setting	triclinic
loop_
_symmetry_equiv_pos_as_xyz
  x,y,z
_cell_length_a	7.088906
_cell_length_b	8.559649
_cell_length_c	8.559649
_cell_angle_alpha	110.221336
_cell_angle_beta	84.656454
_cell_angle_gamma	84.676309
loop_
_atom_site_label
_atom_site_type_symbol
_atom_site_fract_x
_atom_site_fract_y
_atom_site_fract_z
O1	O	-0.158989	-2.108184	-0.036317
O2	O	-0.158989	-1.632699	0.047464
O3	O	-0.158987	-1.912332	-0.232169
O4	O	-0.158991	-1.828550	0.243316
O5	O	0.158988	-1.949707	-0.269610
O6	O	0.158986	-1.670074	0.010023
O7	O	0.158986	-2.145558	-0.073758
Cu8	Cu	0.188020	-1.911229	-0.035286
Cu9	Cu	-0.188023	-1.867029	0.008992
O10	O	0.158984	-1.865925	0.205875
C11	C	-0.000002	-1.591077	0.035093
C12	C	-0.000002	-1.411378	0.053992
N13	N	0.452508	-1.942329	-0.066431
N14	N	0.547489	-1.835929	0.040138
C15	C	-0.000003	-1.937368	-0.311198
C16	C	-0.000014	-1.956266	-0.490896
C17	C	-0.000002	-1.187180	-0.061387
C18	C	-0.000003	-1.366879	-0.080286
C19	C	-0.000004	-1.840888	0.284905
C20	C	-0.000006	-1.821989	0.464604
H21	H	0.465842	-1.725661	0.150572
H22	H	0.000002	-2.085696	-0.590286
H23	H	-0.000012	-1.466256	-0.209704
O24	O	0.560647	-2.088411	-0.212726
H25	H	0.716605	-2.085837	-0.210146
H26	H	-0.000012	-1.311988	0.183421
H27	H	-0.000000	-1.692570	-0.436018
