data_functionalizedCrystal
_audit_creation_method	'MofGen! by Chris Wilmer'
_symmetry_space_group_name_H-M	'P1'
_symmetry_Int_Tables_number	1
_symmetry_cell_setting	triclinic
loop_
_symmetry_equiv_pos_as_xyz
  x,y,z
_cell_length_a	10.723023
_cell_length_b	14.044220
_cell_length_c	9.798715
_cell_angle_alpha	90.004381
_cell_angle_beta	90.002994
_cell_angle_gamma	88.828213
loop_
_atom_site_label
_atom_site_type_symbol
_atom_site_fract_x
_atom_site_fract_y
_atom_site_fract_z
O1	O	1.670497	0.133037	0.113481
O2	O	1.308619	0.145772	0.113487
O3	O	1.484126	0.001384	0.113471
O4	O	1.494990	0.277424	0.113498
O5	O	1.484113	0.001383	-0.113511
O6	O	1.308606	0.145771	-0.113495
O7	O	1.670484	0.133035	-0.113501
Zn8	Zn	1.489543	0.139403	-0.149536
Zn9	Zn	1.489560	0.139404	0.149523
O10	O	1.494976	0.277423	-0.113484
C11	C	1.262020	0.144845	-0.000003
C12	C	1.123188	0.142072	-0.000001
C13	C	1.061286	0.140836	-0.117584
C14	C	0.917796	0.137970	-0.117584
C15	C	1.479364	-0.033962	-0.000021
C16	C	1.465180	-0.139280	-0.000022
C17	C	1.439248	-0.332109	-0.000002
C18	C	1.539850	-0.389089	0.000000
C19	C	1.525421	-0.496386	0.000012
C20	C	1.453675	-0.224802	-0.000013
C21	C	1.717083	0.133963	-0.000007
C22	C	1.855915	0.136735	-0.000000
C23	C	1.499739	0.312769	0.000010
C24	C	1.513923	0.418087	0.000021
N25	N	1.489540	0.139401	-0.353636
C26	C	1.415891	0.200291	-0.421439
C27	C	1.415908	0.200290	-0.578602
N28	N	1.489572	0.139399	0.353622
H29	H	0.864561	0.136912	-0.218251
H30	H	1.636814	-0.357287	0.000090
H31	H	0.909141	0.137804	0.100672
N32	N	1.310809	-0.374218	-0.000006
H33	H	1.300347	-0.414813	0.084136
H34	H	1.300435	-0.414776	-0.084205
H35	H	1.552624	0.087262	-0.588079
H36	H	1.352830	0.252426	-0.363139
H37	H	1.114518	0.141893	-0.218250
H38	H	1.069956	0.141007	0.100665
H39	H	1.352850	0.252417	-0.636909
N40	N	1.573092	0.070351	-0.430850
H41	H	1.520511	0.028170	-0.490153
H42	H	1.622224	0.029784	-0.363921
