data_functionalizedCrystal
_audit_creation_method	'MofGen! by Chris Wilmer'
_symmetry_space_group_name_H-M	'P1'
_symmetry_Int_Tables_number	1
_symmetry_cell_setting	triclinic
loop_
_symmetry_equiv_pos_as_xyz
  x,y,z
_cell_length_a	19.288864
_cell_length_b	15.944551
_cell_length_c	18.366186
_cell_angle_alpha	90.006079
_cell_angle_beta	90.022929
_cell_angle_gamma	83.317492
loop_
_atom_site_label
_atom_site_type_symbol
_atom_site_fract_x
_atom_site_fract_y
_atom_site_fract_z
O1	O	0.921629	0.104782	0.060785
O2	O	1.421629	0.604782	0.560785
O3	O	0.719405	0.118917	0.060735
O4	O	1.219405	0.618917	0.560735
O5	O	0.826039	-0.010446	0.060755
O6	O	1.326039	0.489554	0.560755
O7	O	0.814995	0.234146	0.060765
O8	O	1.314995	0.734146	0.560765
O9	O	0.826021	-0.010450	-0.060345
O10	O	1.326021	0.489550	0.439655
O11	O	0.719387	0.118914	-0.060364
O12	O	1.219387	0.618914	0.439636
O13	O	0.921610	0.104779	-0.060315
O14	O	1.421610	0.604779	0.439685
Zn15	Zn	0.820496	0.111846	-0.079567
Zn16	Zn	1.320496	0.611846	0.420433
Zn17	Zn	0.820520	0.111850	0.079987
Zn18	Zn	1.320520	0.611850	0.579987
O19	O	0.814976	0.234142	-0.060334
O20	O	1.314976	0.734142	0.439666
C21	C	0.693519	0.118461	0.000179
C22	C	1.193519	0.618461	0.500179
C23	C	0.616411	0.117095	0.000160
C24	C	1.116411	0.617095	0.500160
C25	C	0.571915	0.193000	0.000175
C26	C	1.071915	0.693000	0.500175
C27	C	0.499465	0.191717	0.000183
C28	C	0.999465	0.691717	0.500183
C29	C	0.471514	0.114526	0.000191
C30	C	0.971514	0.614526	0.500191
C31	C	0.516020	0.038611	0.000172
C32	C	1.016020	0.538611	0.500172
C33	C	0.588469	0.039896	0.000156
C34	C	1.088469	0.539896	0.500156
C35	C	0.363098	0.053846	0.042639
C36	C	0.863098	0.553846	0.542639
C37	C	0.290651	0.052564	0.042659
C38	C	0.790651	0.552564	0.542659
C39	C	0.248058	0.110560	0.000234
C40	C	0.748058	0.610560	0.500234
C41	C	0.277920	0.169851	-0.042200
C42	C	0.777920	0.669851	0.457800
C43	C	0.350369	0.171136	-0.042216
C44	C	0.850369	0.671136	0.457784
C45	C	0.392956	0.113124	0.000207
C46	C	0.892956	0.613124	0.500207
C47	C	0.125002	0.185079	0.000257
C48	C	0.625002	0.685079	0.500257
C49	C	0.052550	0.183793	0.000260
C50	C	0.552550	0.683793	0.500260
C51	C	0.069107	0.030684	0.000257
C52	C	0.569107	0.530684	0.500257
C53	C	0.141557	0.031972	0.000246
C54	C	0.641557	0.531972	0.500246
C55	C	0.169500	0.109172	0.000249
C56	C	0.669500	0.609172	0.500249
C57	C	0.825572	-0.041740	0.000205
C58	C	1.325572	0.458260	0.500205
C59	C	0.824197	-0.134981	0.000204
C60	C	1.324197	0.365019	0.500204
C61	C	0.754815	-0.349571	0.000197
C62	C	1.254815	0.150429	0.500197
C63	C	0.787025	-0.410714	-0.059504
C64	C	1.287025	0.089286	0.440496
C65	C	0.821710	-0.305697	0.000209
C66	C	1.321710	0.194303	0.500209
C67	C	0.787059	-0.410694	0.059890
C68	C	1.287059	0.089306	0.559890
C69	C	0.819303	-0.470601	0.000217
C70	C	1.319303	0.029399	0.500217
C71	C	0.853938	-0.365612	-0.059542
C72	C	1.353938	0.134388	0.440458
C73	C	0.853963	-0.365586	0.059906
C74	C	1.353963	0.134414	0.559906
C75	C	0.886222	-0.426712	0.000190
C76	C	1.386222	0.073288	0.500190
C77	C	0.823095	-0.210700	0.000204
C78	C	1.323095	0.289300	0.500204
C79	C	0.817924	-0.565597	0.000217
C80	C	1.317924	-0.065597	0.500217
C81	C	0.947497	0.105235	0.000243
C82	C	1.447497	0.605235	0.500243
C83	C	1.024605	0.106600	0.000267
C84	C	1.524605	0.606600	0.500267
C85	C	0.815444	0.265436	0.000217
C86	C	1.315444	0.765436	0.500217
C87	C	0.816819	0.358677	0.000223
C88	C	1.316819	0.858677	0.500223
N89	N	0.820484	0.111842	-0.188458
N90	N	1.320484	0.611842	0.311542
C91	C	0.862606	0.162661	-0.226539
C92	C	1.362606	0.662661	0.273461
C93	C	0.862617	0.162659	-0.302767
C94	C	1.362617	0.662659	0.197233
C95	C	0.820494	0.111847	-0.340910
C96	C	1.320494	0.611847	0.159090
C97	C	0.778370	0.061017	-0.302820
C98	C	1.278370	0.561017	0.197180
C99	C	0.778365	0.061015	-0.226594
C100	C	1.278365	0.561015	0.273406
C101	C	0.757877	0.109722	-0.461707
C102	C	1.257877	0.609722	0.038293
C103	C	0.757880	0.109731	-0.537932
C104	C	1.257880	0.609731	-0.037932
C105	C	0.820510	0.111850	-0.576018
C106	C	1.320510	0.611850	-0.076018
C107	C	0.883137	0.113978	-0.537870
C108	C	1.383137	0.613978	-0.037870
C109	C	0.883132	0.113975	-0.461643
C110	C	1.383132	0.613975	0.038357
C111	C	0.820495	0.111844	-0.423565
C112	C	1.320495	0.611844	0.076435
C113	C	0.862647	0.162669	-0.696754
C114	C	1.362647	0.662669	-0.196754
C115	C	0.862660	0.162661	-0.772983
C116	C	1.362660	0.662661	-0.272983
C117	C	0.778406	0.061024	-0.773035
C118	C	1.278406	0.561024	-0.273035
C119	C	0.778400	0.061028	-0.696808
C120	C	1.278400	0.561028	-0.196808
C121	C	0.820519	0.111855	-0.658671
C122	C	1.320519	0.611855	-0.158671
N123	N	0.820537	0.111847	0.188878
N124	N	1.320537	0.611847	0.688878
H125	H	0.177787	-0.029838	0.000238
H126	H	0.677787	0.470162	0.500238
H127	H	0.266342	0.004289	0.077214
H128	H	0.766342	0.504289	0.577214
Br129	Br	0.919835	0.231629	-0.824667
Br130	Br	1.419835	0.731629	-0.324667
H131	H	0.941797	-0.460084	0.000170
H132	H	1.441797	0.039916	0.500170
Br133	Br	0.739893	-0.443998	0.144007
Br134	Br	1.239893	0.056002	0.644007
H135	H	0.882201	-0.345732	-0.110070
H136	H	1.382201	0.154268	0.389930
H137	H	0.706872	0.108003	-0.430704
H138	H	1.206872	0.608003	0.069296
H139	H	0.463229	0.253530	0.000193
H140	H	0.963229	0.753530	0.500193
Br141	Br	0.739856	-0.444049	-0.143654
Br142	Br	1.239856	0.055951	0.356346
Br143	Br	0.901097	-0.332211	0.144059
Br144	Br	1.401097	0.167789	0.644059
H145	H	0.374680	0.219411	-0.076770
H146	H	0.874680	0.719411	0.423230
Br147	Br	0.220124	0.248568	-0.099778
Br148	Br	0.720124	0.748568	0.400222
H149	H	0.699288	-0.316049	0.000124
H150	H	1.199288	0.183951	0.500124
Br151	Br	0.031182	-0.074078	0.000255
Br152	Br	0.531182	0.425922	0.500255
Br153	Br	0.919750	0.231660	-0.174786
Br154	Br	1.419750	0.731660	0.325214
Br155	Br	0.721207	-0.007947	-0.354584
Br156	Br	1.221207	0.492053	0.145416
H157	H	0.397772	0.006617	0.077190
H158	H	0.897772	0.506617	0.577190
H159	H	0.896918	0.204044	-0.333778
H160	H	1.396918	0.704044	0.166222
Br161	Br	0.162929	0.289847	0.000256
Br162	Br	0.662929	0.789847	0.500256
H163	H	0.934125	0.115705	-0.430586
H164	H	1.434125	0.615705	0.069414
H165	H	0.594661	0.255862	0.000179
H166	H	1.094661	0.755862	0.500179
Br167	Br	0.968140	0.116856	-0.589547
Br168	Br	1.468140	0.616856	-0.089547
H169	H	0.016321	0.245606	0.000268
H170	H	0.516321	0.745606	0.500268
Br171	Br	0.919823	0.231627	-0.644993
Br172	Br	1.419823	0.731627	-0.144993
Br173	Br	0.478089	-0.066150	0.000175
Br174	Br	0.978089	0.433850	0.500175
Br175	Br	0.648861	-0.063126	0.000135
Br176	Br	1.148861	0.436874	0.500135
H177	H	0.744110	0.019652	-0.804091
H178	H	1.244110	0.519652	-0.304091
Br179	Br	0.721192	-0.007956	-0.174908
Br180	Br	1.221192	0.492044	0.325092
Br181	Br	0.672886	0.106856	-0.589697
Br182	Br	1.172886	0.606856	-0.089697
Br183	Br	0.721218	-0.007929	-0.645122
Br184	Br	1.221218	0.492071	-0.145122
