data_functionalizedCrystal
_audit_creation_method	'MofGen! by Chris Wilmer'
_symmetry_space_group_name_H-M	'P1'
_symmetry_Int_Tables_number	1
_symmetry_cell_setting	triclinic
loop_
_symmetry_equiv_pos_as_xyz
  x,y,z
_cell_length_a	14.044220
_cell_length_b	10.540539
_cell_length_c	12.503572
_cell_angle_alpha	93.560877
_cell_angle_beta	86.164750
_cell_angle_gamma	88.857185
loop_
_atom_site_label
_atom_site_type_symbol
_atom_site_fract_x
_atom_site_fract_y
_atom_site_fract_z
O1	O	1.265193	0.299541	-0.089197
O2	O	0.989150	0.288487	-0.089224
O3	O	1.133469	0.109945	-0.089208
O4	O	1.120874	0.478084	-0.089212
O5	O	1.122616	0.123396	0.089432
O6	O	0.978297	0.301939	0.089417
O7	O	1.254339	0.312993	0.089444
Cu8	Cu	1.115327	0.308694	0.105742
Cu9	Cu	1.128163	0.292786	-0.105522
O10	O	1.110020	0.491536	0.089428
C11	C	0.948377	0.290375	0.000093
C12	C	0.843054	0.275945	0.000082
C13	C	0.650213	0.249566	0.000104
C14	C	0.593272	0.351908	0.000107
C15	C	0.485969	0.337231	0.000119
C16	C	0.757526	0.264241	0.000092
C17	C	1.127098	0.069272	0.000110
C18	C	1.124272	-0.071962	0.000104
C19	C	1.016008	-0.266368	-0.000308
C20	C	1.018848	-0.119430	0.000095
C21	C	1.168809	-0.120809	0.102122
C22	C	1.165206	-0.267711	0.102207
C23	C	1.179693	-0.283309	-0.100941
C24	C	1.180746	-0.136331	-0.102289
C25	C	1.295113	0.311105	0.000125
C26	C	1.400436	0.325535	0.000129
C27	C	1.116392	0.532208	0.000108
C28	C	1.119218	0.673442	0.000107
N29	N	1.106306	0.319883	0.254333
N30	N	1.137191	0.281588	-0.254113
C31	C	1.093036	0.336354	0.473447
C32	C	1.150458	0.265121	0.526780
C33	C	1.143074	0.274286	0.648703
C34	C	1.100419	0.327191	0.351513
H35	H	0.625111	0.450550	0.000101
C36	C	1.224374	0.173452	0.464765
N37	N	1.280051	0.104416	0.418050
C38	C	0.607202	0.116313	0.000102
N39	N	0.574795	0.015947	0.000096
H40	H	1.038335	0.404216	0.519348
H41	H	0.983371	-0.086369	-0.073036
H42	H	0.978808	-0.304687	-0.073467
H43	H	0.974198	-0.076223	0.073339
C44	C	0.954014	-0.305398	0.097984
N45	N	0.907326	-0.334785	0.172028
H46	H	1.123078	-0.293959	0.178460
H47	H	1.240744	-0.307665	0.106843
H48	H	1.245999	-0.090342	0.105922
H49	H	1.150270	-0.324134	-0.178263
C50	C	1.114962	-0.060362	0.204676
N51	N	1.074398	-0.014836	0.281918
H52	H	1.148208	-0.104908	-0.177759
C53	C	1.285093	-0.093747	-0.110598
N54	N	1.363692	-0.061677	-0.116846
H55	H	1.255882	-0.322888	-0.101619
