data_functionalizedCrystal
_audit_creation_method	'MofGen! by Chris Wilmer'
_symmetry_space_group_name_H-M	'P1'
_symmetry_Int_Tables_number	1
_symmetry_cell_setting	triclinic
loop_
_symmetry_equiv_pos_as_xyz
  x,y,z
_cell_length_a	16.959453
_cell_length_b	16.959455
_cell_length_c	16.959447
_cell_angle_alpha	89.980633
_cell_angle_beta	90.029791
_cell_angle_gamma	89.981398
loop_
_atom_site_label
_atom_site_type_symbol
_atom_site_fract_x
_atom_site_fract_y
_atom_site_fract_z
Zn1	Zn	-0.314705	-1.208413	0.446934
Zn2	Zn	0.185295	-0.708413	0.946934
Zn3	Zn	-0.446895	-1.208327	0.314754
Zn4	Zn	0.053105	-0.708327	0.814754
Zn5	Zn	-0.314731	-1.076233	0.314768
Zn6	Zn	0.185269	-0.576233	0.814768
Zn7	Zn	-0.446842	-1.076206	0.446889
Zn8	Zn	0.053158	-0.576206	0.946889
O9	O	-0.380793	-1.142295	0.380836
O10	O	0.119207	-0.642295	0.880836
O11	O	-0.332251	-1.319012	0.429413
O12	O	0.167749	-0.819012	0.929413
O13	O	-0.429395	-1.190780	0.204145
O14	O	0.070605	-0.690780	0.704145
O15	O	-0.204116	-1.093814	0.332325
O16	O	0.295884	-0.593814	0.832325
O17	O	-0.429371	-1.318949	0.332301
O18	O	0.070629	-0.818949	0.832301
O19	O	-0.204098	-1.190926	0.429427
O20	O	0.295902	-0.690926	0.929427
O21	O	-0.332295	-1.093731	0.204155
O22	O	0.167705	-0.593731	0.704155
O23	O	-0.332245	-0.965618	0.332282
O24	O	0.167755	-0.465618	0.832282
O25	O	-0.429281	-1.093768	0.557506
O26	O	0.070719	-0.593768	1.057506
O27	O	-0.429306	-0.965599	0.429350
O28	O	0.070694	-0.465599	0.929350
O29	O	-0.332201	-1.190900	0.557539
O30	O	0.167799	-0.690900	1.057539
O31	O	-0.557499	-1.190754	0.332257
O32	O	-0.057499	-0.690754	0.832257
O33	O	-0.557460	-1.093685	0.429336
O34	O	-0.057460	-0.593685	0.929336
C35	C	-0.380773	-0.936928	0.380813
C36	C	0.119227	-0.436928	0.880813
C37	C	-0.380784	-0.849072	0.380822
C38	C	0.119216	-0.349072	0.880822
C39	C	-0.431276	-0.807763	0.330188
C40	C	0.068724	-0.307763	0.830188
C41	C	-0.330296	-0.807827	0.431461
C42	C	0.169704	-0.307827	0.931461
C43	C	-0.330301	-0.725281	0.431469
C44	C	0.169699	-0.225281	0.931469
C45	C	-0.380794	-0.683972	0.380835
C46	C	0.119206	-0.183972	0.880835
C47	C	-0.431281	-0.725210	0.330192
C48	C	0.068719	-0.225210	0.830192
C49	C	-0.279808	-0.684038	0.482105
C50	C	0.220192	-0.184038	0.982105
C51	C	-0.279811	-0.601487	0.482115
C52	C	0.220189	-0.101487	0.982115
C53	C	-0.330308	-0.560176	0.431484
C54	C	0.169692	-0.060176	0.931484
C55	C	-0.380799	-0.601419	0.380840
C56	C	0.119201	-0.101419	0.880840
C57	C	-0.431291	-0.560110	0.330205
C58	C	0.068709	-0.060110	0.830205
C59	C	-0.481786	-0.601351	0.279564
C60	C	0.018214	-0.101351	0.779564
C61	C	-0.481779	-0.683899	0.279561
C62	C	0.018221	-0.183899	0.779561
C63	C	-0.330316	-0.477628	0.431487
C64	C	0.169684	0.022372	0.931487
C65	C	-0.431296	-0.477557	0.330210
C66	C	0.068704	0.022443	0.830210
C67	C	-0.586160	-1.142229	0.380807
C68	C	-0.086160	-0.642229	0.880807
C69	C	-0.674016	-1.142273	0.380821
C70	C	-0.174016	-0.642273	0.880821
C71	C	-1.045423	-1.192926	0.431493
C72	C	-0.545423	-0.692926	0.931493
C73	C	-1.045560	-1.091884	0.330298
C74	C	-0.545560	-0.591884	0.830298
C75	C	-0.963014	-1.091855	0.330279
C76	C	-0.463014	-0.591855	0.830279
C77	C	-0.921669	-1.142361	0.380869
C78	C	-0.421669	-0.642361	0.880869
C79	C	-0.962870	-1.192896	0.431478
C80	C	-0.462870	-0.692896	0.931478
C81	C	-0.921807	-1.041315	0.279678
C82	C	-0.421807	-0.541315	0.779678
C83	C	-0.839256	-1.041283	0.279658
C84	C	-0.339256	-0.541283	0.779658
C85	C	-0.797910	-1.091794	0.330245
C86	C	-0.297910	-0.591794	0.830245
C87	C	-0.839115	-1.142332	0.380855
C88	C	-0.339115	-0.642332	0.880855
C89	C	-0.797770	-1.192837	0.431445
C90	C	-0.297770	-0.692837	0.931445
C91	C	-0.838975	-1.243380	0.482051
C92	C	-0.338975	-0.743380	0.982051
C93	C	-0.921523	-1.243407	0.482064
C94	C	-0.421523	-0.743407	0.982064
C95	C	-0.715361	-1.091767	0.330231
C96	C	-0.215361	-0.591767	0.830231
C97	C	-0.715217	-1.192808	0.431430
C98	C	-0.215217	-0.692808	0.931430
C99	C	-0.174625	-1.142382	0.380883
C100	C	0.325375	-0.642382	0.880883
C101	C	-0.086768	-1.142420	0.380903
C102	C	0.413232	-0.642420	0.880903
C103	C	-0.380732	-1.142341	0.587005
C104	C	0.119268	-0.642341	1.087005
C105	C	-0.380706	-1.142360	0.674861
C106	C	0.119294	-0.642360	1.174861
C107	C	-0.380810	-0.348463	0.380856
C108	C	0.119190	0.151537	0.880856
C109	C	-0.380809	-0.436319	0.380852
C110	C	0.119191	0.063681	0.880852
C111	C	-0.380797	-1.142294	0.175470
C112	C	0.119203	-0.642294	0.675470
C113	C	-0.380600	-1.142428	0.087614
C114	C	0.119400	-0.642428	0.587614
C115	C	-0.431249	-1.192899	0.716131
C116	C	0.068751	-0.692899	1.216131
C117	C	-0.330144	-1.091835	0.716145
C118	C	0.169856	-0.591835	1.216145
C119	C	-0.330121	-1.091848	0.798691
C120	C	0.169879	-0.591848	1.298691
C121	C	-0.380663	-1.142387	0.839961
C122	C	0.119337	-0.642387	1.339961
C123	C	-0.431229	-1.192913	0.798685
C124	C	0.068771	-0.692913	1.298685
C125	C	-0.279562	-1.041318	0.839973
C126	C	0.220438	-0.541318	1.339973
C127	C	-0.279537	-1.041329	0.922524
C128	C	0.220463	-0.541329	1.422524
C129	C	-0.330076	-1.091873	0.963795
C130	C	0.169924	-0.591873	1.463795
C131	C	-0.380643	-1.142401	0.922514
C132	C	0.119357	-0.642401	1.422514
C133	C	-0.431186	-1.192940	0.963785
C134	C	0.068814	-0.692940	1.463785
C135	C	-0.481749	-1.243472	0.922505
C136	C	0.018251	-0.743472	1.422505
C137	C	-0.481768	-1.243456	0.839957
C138	C	0.018232	-0.743456	1.339957
C139	C	-0.330058	-1.091889	1.046344
C140	C	0.169942	-0.591889	1.546344
C141	C	-0.431166	-1.192953	1.046338
C142	C	0.068834	-0.692953	1.546338
H143	H	-0.522887	-0.717485	0.238330
H144	H	-0.022887	-0.217485	0.738330
H145	H	-0.288891	-1.050745	1.079950
H146	H	0.211109	-0.550745	1.579950
Br147	Br	-0.977447	-1.311991	0.550740
Br148	Br	-0.477447	-0.811991	1.050740
Br149	Br	-0.783343	-0.972688	0.210984
Br150	Br	-0.283343	-0.472688	0.710984
Br151	Br	-0.659444	-1.023176	0.261561
Br152	Br	-0.159444	-0.523176	0.761561
H153	H	-0.288999	-1.050684	0.682538
H154	H	0.211001	-0.550684	1.182538
Br155	Br	-0.210934	-0.972735	0.978539
Br156	Br	0.289066	-0.472735	1.478539
Br157	Br	-0.499756	-1.261552	1.102341
Br158	Br	0.000244	-0.761552	1.602341
Br159	Br	-0.550348	-1.312050	0.978524
Br160	Br	-0.050348	-0.812050	1.478524
H161	H	-0.522935	-1.284596	0.806339
H162	H	-0.022935	-0.784596	1.306339
Br163	Br	-0.659112	-1.261362	0.500085
Br164	Br	-0.159112	-0.761362	1.000085
H165	H	-0.472414	-1.234044	0.682518
H166	H	0.027586	-0.734044	1.182518
H167	H	-0.238418	-1.000167	0.806365
H168	H	0.261582	-0.500167	1.306365
H169	H	-0.472418	-0.443929	0.288980
H170	H	0.027582	0.056071	0.788980
H171	H	-0.522895	-0.567707	0.238335
H172	H	-0.022895	-0.067707	0.738335
Br173	Br	-0.211285	-0.740102	0.550818
Br174	Br	0.288715	-0.240102	1.050818
Br175	Br	-0.261785	-0.421661	0.500199
Br176	Br	0.238215	0.078339	1.000199
Br177	Br	-0.261769	-0.863889	0.500172
Br178	Br	0.238231	-0.363889	1.000172
Br179	Br	-0.499807	-0.863729	0.261469
Br180	Br	0.000193	-0.363729	0.761469
Br181	Br	-1.101671	-1.023330	0.261657
Br182	Br	-0.601671	-0.523330	0.761657
H183	H	-0.805302	-1.284499	0.523245
H184	H	-0.305302	-0.784499	1.023245
Br185	Br	-0.211287	-0.545524	0.550842
Br186	Br	0.288713	-0.045524	1.050842
H187	H	-0.955476	-1.000194	0.238492
H188	H	-0.455476	-0.500194	0.738492
H189	H	-1.078975	-1.234078	0.472693
H190	H	-0.578975	-0.734078	0.972693
