data_functionalizedCrystal
_audit_creation_method	'MofGen! by Chris Wilmer'
_symmetry_space_group_name_H-M	'P1'
_symmetry_Int_Tables_number	1
_symmetry_cell_setting	triclinic
loop_
_symmetry_equiv_pos_as_xyz
  x,y,z
_cell_length_a	16.992694
_cell_length_b	14.519709
_cell_length_c	15.455313
_cell_angle_alpha	92.669068
_cell_angle_beta	87.142206
_cell_angle_gamma	87.174184
loop_
_atom_site_label
_atom_site_type_symbol
_atom_site_fract_x
_atom_site_fract_y
_atom_site_fract_z
O1	O	1.044092	0.191795	-0.072025
O2	O	0.815805	0.189648	-0.072051
O3	O	0.936001	0.056918	-0.072029
O4	O	0.923896	0.324525	-0.072046
O5	O	0.929127	0.064474	0.072232
O6	O	0.808932	0.197205	0.072210
O7	O	1.037219	0.199352	0.072236
Cu8	Cu	0.922447	0.198968	0.085395
Cu9	Cu	0.930576	0.190031	-0.085210
O10	O	0.917023	0.332082	0.072215
C11	C	0.783152	0.190666	0.000077
C12	C	0.696097	0.182430	0.000067
C13	C	0.645968	0.261890	0.000063
C14	C	0.564170	0.254147	0.000075
C15	C	0.532502	0.166943	0.000086
C16	C	0.582638	0.087478	0.000093
C17	C	0.664434	0.095222	0.000087
C18	C	0.288859	0.134847	0.000111
C19	C	0.207056	0.127109	0.000115
C20	C	0.188594	0.293779	0.000099
C21	C	0.270393	0.301515	0.000087
C22	C	0.320520	0.222050	0.000099
N23	N	0.448892	0.159027	0.000096
N24	N	0.404129	0.229968	0.000095
C25	C	0.932000	0.026296	0.000101
C26	C	0.930309	-0.076207	0.000102
C27	C	0.924087	-0.451550	0.000078
C28	C	0.925815	-0.347118	0.000085
C29	C	0.927198	-0.263882	0.000091
C30	C	0.928926	-0.159443	0.000096
C31	C	1.069872	0.198333	0.000107
C32	C	1.156927	0.206569	0.000111
C33	C	0.921024	0.362704	0.000082
C34	C	0.922715	0.465206	0.000076
N35	N	0.916736	0.205254	0.205390
N36	N	0.936294	0.183739	-0.205204
C37	C	0.967817	0.148889	0.250793
C38	C	0.963505	0.153651	0.341600
C39	C	0.908115	0.214784	0.387002
C40	C	0.857028	0.271151	0.341593
C41	C	0.861337	0.266383	0.250787
C42	C	0.889516	0.235339	0.658581
C43	C	0.885212	0.240104	0.749392
C44	C	0.991689	0.122602	0.749393
C45	C	0.995996	0.117844	0.658586
C46	C	0.944907	0.174208	0.613185
N47	N	0.903708	0.219655	0.479822
N48	N	0.949311	0.169331	0.520367
H49	H	0.181276	0.056094	0.000123
H50	H	1.005099	0.107754	0.378567
O51	O	1.049823	0.058376	0.614619
C52	C	1.155008	-0.057629	0.624206
C53	C	1.094072	0.009658	0.674106
H54	H	1.190810	-0.097021	0.672280
H55	H	1.123147	-0.108515	0.581730
H56	H	1.196217	-0.017111	0.581657
H57	H	1.052846	-0.030783	0.716702
H58	H	1.125984	0.060544	0.716528
H59	H	1.012925	0.099112	0.213832
H60	H	1.033283	0.076712	0.786368
O61	O	0.713108	0.018000	-0.000067
C62	C	0.757438	-0.126023	-0.074769
C63	C	0.702290	-0.038602	-0.074717
H64	H	0.748699	-0.171819	-0.135107
H65	H	0.821357	-0.105565	-0.074829
H66	H	0.743045	-0.165436	-0.014364
H67	H	0.716612	0.000852	-0.135111
H68	H	0.638387	-0.059121	-0.074612
H69	H	0.840105	0.289889	0.786355
O70	O	0.839858	0.290187	0.614620
C71	C	0.733765	0.407200	0.624210
C72	C	0.789970	0.345148	0.674108
H73	H	0.693405	0.451638	0.672284
H74	H	0.769655	0.453625	0.581706
H75	H	0.696588	0.362218	0.581688
H76	H	0.827159	0.390058	0.716676
H77	H	0.754033	0.298717	0.716557
H78	H	0.329663	0.070141	0.000121
H79	H	0.556847	0.016475	0.000114
O80	O	0.803185	0.330411	0.385792
C81	C	0.691230	0.347454	0.488291
C82	C	0.752170	0.280240	0.438307
H83	H	0.649959	0.306916	0.530747
H84	H	0.723086	0.398268	0.530848
H85	H	0.655494	0.386941	0.440225
H86	H	0.787924	0.240689	0.486310
H87	H	0.720267	0.229485	0.395737
O88	O	0.811683	0.321233	0.206814
C89	C	0.705588	0.438242	0.216391
C90	C	0.761790	0.376195	0.266297
H91	H	0.665224	0.482681	0.264461
H92	H	0.741480	0.484667	0.173888
H93	H	0.668415	0.393257	0.173868
H94	H	0.798975	0.421109	0.308866
H95	H	0.725852	0.329765	0.308745
H96	H	0.671744	0.332900	0.000054
H97	H	0.296170	0.372525	0.000069
O98	O	0.515518	0.331355	-0.000086
C99	C	0.478298	0.467548	-0.074814
C100	C	0.533431	0.380125	-0.074751
H101	H	0.492772	0.507012	-0.135165
H102	H	0.414381	0.447093	-0.074859
H103	H	0.486958	0.513293	-0.014422
H104	H	0.524841	0.334340	-0.135133
H105	H	0.597327	0.400645	-0.074661
O106	O	0.139825	0.370894	-0.000020
C107	C	0.040342	0.454995	-0.074780
C108	C	0.095519	0.367606	-0.074747
H109	H	0.004519	0.452375	-0.135199
H110	H	-0.001334	0.458706	-0.014445
H111	H	0.077041	0.518640	-0.074745
H112	H	0.058884	0.303913	-0.074813
H113	H	0.137198	0.363977	-0.135077
