data_functionalizedCrystal
_audit_creation_method	'MofGen! by Chris Wilmer'
_symmetry_space_group_name_H-M	'P1'
_symmetry_Int_Tables_number	1
_symmetry_cell_setting	triclinic
loop_
_symmetry_equiv_pos_as_xyz
  x,y,z
_cell_length_a	6.817900
_cell_length_b	16.015009
_cell_length_c	16.015572
_cell_angle_alpha	60.346181
_cell_angle_beta	104.485554
_cell_angle_gamma	104.487874
loop_
_atom_site_label
_atom_site_type_symbol
_atom_site_fract_x
_atom_site_fract_y
_atom_site_fract_z
V1	V	-3.988169	-0.038676	-0.257230
V2	V	-3.488169	0.461324	0.242770
O3	O	-3.988559	0.098579	-0.295267
O4	O	-3.488559	0.598579	0.204733
O5	O	-3.928272	-0.169710	-0.214178
O6	O	-3.428272	0.330290	0.285822
O7	O	-3.928265	0.004358	-0.388255
O8	O	-3.428265	0.504358	0.111745
O9	O	-3.988567	-0.076695	-0.119985
O10	O	-3.488567	0.423305	0.380015
V11	V	-4.474777	-0.027273	-0.245830
V12	V	-3.974777	0.472727	0.254170
O13	O	-4.242659	-0.063689	-0.282235
O14	O	-3.742659	0.436311	0.217765
O15	O	-4.670484	-0.002260	-0.220825
O16	O	-4.170484	0.497740	0.279175
O17	O	-4.311468	0.103761	-0.288882
O18	O	-3.811468	0.603761	0.211118
O19	O	-4.591784	-0.164529	-0.207793
O20	O	-4.091784	0.335471	0.292207
O21	O	-4.591777	0.010745	-0.383075
O22	O	-4.091777	0.510745	0.116925
O23	O	-4.311475	-0.070308	-0.114805
O24	O	-3.811475	0.429692	0.385195
C25	C	-3.770849	-0.202980	-0.199466
C26	C	-3.270849	0.297020	0.300534
C27	C	-3.803086	-0.309829	-0.165140
C28	C	-3.303086	0.190171	0.334860
C29	C	-3.817370	-0.474343	-0.033264
C30	C	-3.317370	0.025657	0.466736
C31	C	-3.787080	-0.373940	-0.065529
C32	C	-3.287080	0.126060	0.434471
C33	C	-3.849401	-0.346103	-0.232526
C34	C	-3.349401	0.153897	0.267474
C35	C	-3.879706	-0.446506	-0.200276
C36	C	-3.379706	0.053494	0.299724
C37	C	-3.863685	-0.510618	-0.100644
C38	C	-3.363685	-0.010618	0.399356
C39	C	-3.926021	-0.482781	-0.267655
C40	C	-3.426021	0.017219	0.232345
C41	C	-3.956313	-0.583175	-0.235407
C42	C	-3.456313	-0.083175	0.264593
C43	C	-3.940290	-0.647293	-0.135779
C44	C	-3.440290	-0.147293	0.364221
C45	C	-3.893976	-0.611012	-0.068396
C46	C	-3.393976	-0.111012	0.431604
C47	C	-3.942028	-0.418667	-0.367287
C48	C	-3.442028	0.081333	0.132713
C49	C	-3.988343	-0.454943	-0.434666
C50	C	-3.488343	0.045057	0.065334
C51	C	-4.018650	-0.555338	-0.402419
C52	C	-3.518650	-0.055338	0.097581
C53	C	-4.002627	-0.619456	-0.302791
C54	C	-3.502627	-0.119456	0.197209
C55	C	-4.064963	-0.591620	-0.469802
C56	C	-3.564963	-0.091620	0.030198
C57	C	-4.095255	-0.692013	-0.437554
C58	C	-3.595255	-0.192013	0.062446
C59	C	-4.032918	-0.719850	-0.270543
C60	C	-3.532918	-0.219850	0.229457
C61	C	-3.770838	0.019063	-0.421517
C62	C	-3.270838	0.519063	0.078483
C63	C	-3.803067	0.053381	-0.528360
C64	C	-3.303067	0.553381	-0.028360
C65	C	-4.064975	-0.251227	-0.810197
C66	C	-3.564975	0.248773	-0.310197
C67	C	-4.095267	-0.218949	-0.910597
C68	C	-3.595267	0.281051	-0.410597
C69	C	-4.032931	-0.051951	-0.938409
C70	C	-3.532931	0.448049	-0.438409
C71	C	-4.002623	-0.084216	-0.838009
C72	C	-3.502623	0.415784	-0.338009
C73	C	-4.018652	-0.183855	-0.773910
C74	C	-3.518652	0.316145	-0.273910
C75	C	-3.956300	-0.016843	-0.801722
C76	C	-3.456300	0.483157	-0.301722
C77	C	-3.926006	-0.049106	-0.701331
C78	C	-3.426006	0.450894	-0.201331
C79	C	-3.942036	-0.148740	-0.637226
C80	C	-3.442036	0.351260	-0.137226
C81	C	-3.988358	-0.216117	-0.673518
C82	C	-3.488358	0.283883	-0.173518
C83	C	-3.940287	0.082795	-0.865823
C84	C	-3.440287	0.582795	-0.365823
C85	C	-3.893963	0.150167	-0.829536
C86	C	-3.393963	0.650167	-0.329536
C87	C	-3.863654	0.117906	-0.729143
C88	C	-3.363654	0.617906	-0.229143
C89	C	-3.879684	0.018271	-0.665038
C90	C	-3.379684	0.518271	-0.165038
C91	C	-3.817332	0.185282	-0.692850
C92	C	-3.317332	0.685282	-0.192850
C93	C	-3.787039	0.153020	-0.592459
C94	C	-3.287039	0.653020	-0.092459
C95	C	-3.849390	-0.013991	-0.564647
C96	C	-3.349390	0.486009	-0.064647
C97	C	-4.132233	0.137025	-0.303590
C98	C	-3.632233	0.637025	0.196410
C99	C	-4.079233	0.243875	-0.337922
C100	C	-3.579233	0.743875	0.162078
C101	C	-4.132244	-0.085017	-0.081537
C102	C	-3.632244	0.414983	0.418463
C103	C	-4.079254	-0.119331	0.025305
C104	C	-3.579254	0.380669	0.525305
H105	H	-4.019886	-0.772055	-0.189413
H106	H	-3.519886	-0.272055	0.310587
H107	H	-3.804337	-0.526547	0.047866
H108	H	-3.304337	-0.026547	0.547866
Br109	Br	-3.871117	-0.259086	-0.367736
Br110	Br	-3.371117	0.240914	0.132264
H111	H	-4.132962	-0.721548	-0.492421
H112	H	-3.632962	-0.221548	0.007579
H113	H	-3.964924	0.109060	-0.947567
H114	H	-3.464924	0.609060	-0.447567
H115	H	-4.077982	-0.539405	-0.550923
H116	H	-3.577982	-0.039405	-0.050923
H117	H	-3.964944	-0.729039	-0.109524
H118	H	-3.464944	-0.229039	0.390476
H119	H	-3.749350	-0.344410	-0.010652
H120	H	-3.249350	0.155590	0.489348
Br121	Br	-4.011188	0.083268	-1.025408
Br122	Br	-3.511188	0.583268	-0.525408
H123	H	-3.880944	-0.663216	0.012734
H124	H	-3.380944	-0.163216	0.512734
Br125	Br	-4.010058	-0.367926	-0.569876
Br126	Br	-3.510058	0.132074	-0.069876
H127	H	-3.917302	-0.336920	-0.393539
H128	H	-3.417302	0.163080	0.106461
H129	H	-3.862415	-0.095127	-0.512452
H130	H	-3.362415	0.404873	-0.012452
Br131	Br	-3.872221	0.285387	-0.916535
Br132	Br	-3.372221	0.785387	-0.416535
H133	H	-3.804308	0.266408	-0.745054
H134	H	-3.304308	0.766408	-0.245054
H135	H	-3.749319	0.207882	-0.562914
H136	H	-3.249319	0.707882	-0.062914
H137	H	-4.078000	-0.332363	-0.758002
H138	H	-3.578000	0.167637	-0.258002
Br139	Br	-3.900936	-0.192530	-0.500978
Br140	Br	-3.400936	0.307470	-0.000978
Br141	Br	-4.158152	-0.310395	-0.959840
Br142	Br	-3.658152	0.189605	-0.459840
H143	H	-4.001383	-0.297252	-0.621324
H144	H	-3.501383	0.202748	-0.121324
