data_functionalizedCrystal
_audit_creation_method	'MofGen! by Chris Wilmer'
_symmetry_space_group_name_H-M	'P1'
_symmetry_Int_Tables_number	1
_symmetry_cell_setting	triclinic
loop_
_symmetry_equiv_pos_as_xyz
  x,y,z
_cell_length_a	15.944551
_cell_length_b	17.019294
_cell_length_c	14.421503
_cell_angle_alpha	86.125318
_cell_angle_beta	89.996859
_cell_angle_gamma	83.446674
loop_
_atom_site_label
_atom_site_type_symbol
_atom_site_fract_x
_atom_site_fract_y
_atom_site_fract_z
O1	O	1.114402	0.101726	-0.085136
O2	O	0.869837	0.114269	-0.086161
O3	O	0.998941	-0.006833	-0.076474
O4	O	0.985297	0.222829	-0.094823
O5	O	0.998920	-0.006815	0.077748
O6	O	0.869815	0.114287	0.068061
O7	O	1.114381	0.101744	0.069086
Cu8	Cu	0.992096	0.108018	0.082655
Cu9	Cu	0.992121	0.107996	-0.099730
O10	O	0.985276	0.222847	0.059399
C11	C	0.838533	0.113758	-0.009011
C12	C	0.745288	0.112197	-0.008895
C13	C	0.998413	-0.036213	0.002983
C14	C	0.996860	-0.123783	0.009972
C15	C	0.530530	0.033400	-0.002582
C16	C	0.469475	0.069982	-0.081545
C17	C	0.574566	0.109372	-0.008659
C18	C	0.469476	0.070017	0.070505
C19	C	0.409657	0.106639	-0.008425
C20	C	0.514739	0.145975	-0.087686
C21	C	0.514746	0.146000	0.064433
C22	C	0.453709	0.182637	-0.014553
C23	C	0.669566	0.110945	-0.008793
C24	C	0.314658	0.105072	-0.008298
C25	C	0.996144	-0.164928	-0.070810
C26	C	0.994680	-0.247209	-0.064239
C27	C	0.993938	-0.288342	0.023114
C28	C	0.994651	-0.247191	0.103902
C29	C	0.996109	-0.164911	0.097331
C30	C	0.989529	-0.536772	0.047161
C31	C	0.988073	-0.619058	0.053727
C32	C	0.988100	-0.619070	-0.114416
C33	C	0.989564	-0.536790	-0.120979
C34	C	0.990272	-0.495644	-0.040191
C35	C	0.992444	-0.372446	0.029832
C36	C	0.991760	-0.411541	-0.046910
C37	C	1.145685	0.102256	-0.008066
C38	C	1.238929	0.103817	-0.008188
C39	C	0.985804	0.252227	-0.020060
C40	C	0.987357	0.339796	-0.027055
N41	N	0.992084	0.108032	0.210935
N42	N	0.992140	0.107975	-0.228010
C43	C	0.932376	0.164005	0.456112
C44	C	1.008257	0.179319	0.516698
C45	C	0.992105	0.108013	0.400098
C46	C	0.916243	0.092717	0.523604
C47	C	0.992118	0.107997	0.582821
C48	C	1.068024	0.123363	0.459321
C49	C	0.975961	0.036730	0.466224
C50	C	1.051896	0.052014	0.526785
C51	C	0.992096	0.108025	0.294836
C52	C	0.992135	0.107985	0.688081
H53	H	0.563942	-0.029651	0.002362
H54	H	0.990169	-0.503304	-0.192112
H55	H	1.102468	0.004654	0.557501
C56	C	0.993828	-0.292440	0.199992
N57	N	0.993210	-0.326521	0.272369
H58	H	0.991842	-0.405947	0.100956
H59	H	0.852083	0.079787	0.551801
C60	C	0.541697	0.189336	-0.178098
N61	N	0.562005	0.221991	-0.246198
H62	H	0.996680	-0.131410	0.163112
C63	C	1.154719	0.140933	0.421380
N64	N	1.220016	0.154171	0.392801
H65	H	0.449414	0.037841	-0.143264
C66	C	0.957463	-0.044672	0.435981
N67	N	0.943520	-0.105984	0.413199
C68	C	0.408798	0.267901	-0.021424
N69	N	0.374969	0.332120	-0.026603
H70	H	0.992359	-0.378046	-0.118033
C71	C	0.541885	0.189381	0.147820
N72	N	0.562330	0.222050	0.210636
H73	H	0.449421	0.037878	0.137356
C74	C	0.987311	-0.664335	-0.203276
N75	N	0.986712	-0.698428	-0.270210
C76	C	0.996961	-0.119689	-0.166906
N77	N	0.997572	-0.085616	-0.239289
H78	H	0.994101	-0.280706	-0.130021
C79	C	0.864212	0.228023	0.414372
N80	N	0.812877	0.276243	0.382930
C81	C	0.990312	-0.491524	0.136031
N82	N	0.990903	-0.457440	0.202973
C83	C	0.987253	-0.664303	0.149826
N84	N	0.986637	-0.698382	0.222205
C85	C	1.026715	0.260747	0.546914
N86	N	1.040611	0.322079	0.569673
