data_functionalizedCrystal
_audit_creation_method	'MofGen! by Chris Wilmer'
_symmetry_space_group_name_H-M	'P1'
_symmetry_Int_Tables_number	1
_symmetry_cell_setting	triclinic
loop_
_symmetry_equiv_pos_as_xyz
  x,y,z
_cell_length_a	19.121063
_cell_length_b	13.032891
_cell_length_c	13.032268
_cell_angle_alpha	89.113158
_cell_angle_beta	80.752502
_cell_angle_gamma	85.566332
loop_
_atom_site_label
_atom_site_type_symbol
_atom_site_fract_x
_atom_site_fract_y
_atom_site_fract_z
Zn1	Zn	-0.473646	1.465014	0.806576
Zn2	Zn	0.026354	1.965014	1.306576
Zn3	Zn	-0.578143	1.479375	0.640275
Zn4	Zn	-0.078143	1.979375	1.140275
Zn5	Zn	-0.444348	1.316943	0.611225
Zn6	Zn	0.055652	1.816943	1.111225
Zn7	Zn	-0.574353	1.285892	0.790194
Zn8	Zn	-0.074353	1.785892	1.290194
O9	O	-0.517623	1.386806	0.712067
O10	O	-0.017623	1.886806	1.212067
O11	O	-0.501356	1.609861	0.803529
O12	O	-0.001356	2.109861	1.303529
O13	O	-0.549720	1.476833	0.491924
O14	O	-0.049720	1.976833	0.991924
O15	O	-0.350095	1.343570	0.631837
O16	O	0.149905	1.843570	1.131837
O17	O	-0.578129	1.620412	0.681349
O18	O	-0.078129	2.120412	1.181349
O19	O	-0.371620	1.452357	0.775361
O20	O	0.128380	1.952357	1.275361
O21	O	-0.451422	1.357495	0.470581
O22	O	0.048578	1.857495	0.970581
O23	O	-0.447746	1.169882	0.615952
O24	O	0.052254	1.669882	1.115952
O25	O	-0.571669	1.290648	0.936864
O26	O	-0.071669	1.790648	1.436864
O27	O	-0.543260	1.147070	0.747440
O28	O	-0.043260	1.647070	1.247440
O29	O	-0.497680	1.422248	0.948900
O30	O	0.002320	1.922248	1.448900
O31	O	-0.675780	1.446725	0.665464
O32	O	-0.175780	1.946725	1.165464
O33	O	-0.672996	1.304573	0.775608
O34	O	-0.172996	1.804573	1.275608
C35	C	-0.491913	1.121413	0.676766
C36	C	0.008087	1.621413	1.176766
C37	C	-0.480933	1.007872	0.661690
C38	C	0.019067	1.507872	1.161690
C39	C	-0.512010	0.828647	0.704363
C40	C	-0.012010	1.328647	1.204363
C41	C	-0.523362	0.945998	0.719944
C42	C	-0.023362	1.445998	1.219944
C43	C	-0.699839	1.373863	0.721937
C44	C	-0.199839	1.873863	1.221937
C45	C	-0.777803	1.368414	0.726206
C46	C	-0.277803	1.868414	1.226206
C47	C	-0.815867	1.439909	0.670927
C48	C	-0.315867	1.939909	1.170927
C49	C	-0.889124	1.434790	0.674949
C50	C	-0.389124	1.934790	1.174949
C51	C	-0.924315	1.358171	0.734245
C52	C	-0.424315	1.858171	1.234245
C53	C	-0.886247	1.286673	0.789531
C54	C	-0.386247	1.786673	1.289531
C55	C	-0.812992	1.291798	0.785514
C56	C	-0.312992	1.791798	1.285514
C57	C	-1.145425	1.338999	0.749244
C58	C	-0.645425	1.838999	1.249244
C59	C	-1.218685	1.333878	0.753254
C60	C	-0.718685	1.833878	1.253254
C61	C	-1.221557	1.481997	0.638673
C62	C	-0.721557	1.981997	1.138673
C63	C	-1.148300	1.487110	0.634656
C64	C	-0.648300	1.987110	1.134656
C65	C	-1.110239	1.415616	0.689947
C66	C	-0.610239	1.915616	1.189947
C67	C	-0.999195	1.352935	0.738355
C68	C	-0.499195	1.852935	1.238355
C69	C	-1.035361	1.420857	0.685842
C70	C	-0.535361	1.920857	1.185842
C71	C	-0.334699	1.399825	0.702186
C72	C	0.165301	1.899825	1.202186
C73	C	-0.256748	1.405373	0.697975
C74	C	0.243252	1.905373	1.197975
C75	C	-0.537520	1.351383	0.981396
C76	C	-0.037520	1.851383	1.481396
C77	C	-0.545999	1.336287	1.096168
C78	C	-0.045999	1.836287	1.596168
C79	C	-0.543433	1.653236	0.747507
C80	C	-0.043433	2.153236	1.247507
C81	C	-0.554432	1.766772	0.762609
C82	C	-0.054432	2.266772	1.262609
C83	C	-0.497758	1.422154	0.443792
C84	C	0.002242	1.922154	0.943792
C85	C	-0.489101	1.437461	0.329036
C86	C	0.010899	1.937461	0.829036
C87	C	-0.513171	1.394670	1.153291
C88	C	-0.013171	1.894670	1.653291
C89	C	-0.521933	1.379070	1.271914
C90	C	-0.021933	1.879070	1.771914
H91	H	-0.787218	1.502296	0.622636
H92	H	-0.287218	2.002296	1.122636
H93	H	-0.556523	1.317526	1.310823
H94	H	-0.056523	1.817526	1.810823
H95	H	-0.478576	1.456200	1.114377
H96	H	0.021424	1.956200	1.614377
F97	F	-0.923703	1.205135	0.852645
F98	F	-0.423703	1.705135	1.352645
H99	H	-0.782001	1.233580	0.830530
H100	H	-0.282001	1.733580	1.330530
H101	H	-0.454501	1.498994	1.290127
H102	H	0.045499	1.998994	1.790127
F103	F	-0.997908	1.502401	0.622742
F104	F	-0.497908	2.002401	1.122742
F105	F	-0.612887	0.811081	0.842871
F106	F	-0.112887	1.311081	1.342871
H107	H	-0.920112	1.493008	0.629933
H108	H	-0.420112	1.993008	1.129933
F109	F	-1.110855	1.568668	0.571558
F110	F	-0.610855	2.068668	1.071558
H111	H	-0.568085	0.979897	0.781353
H112	H	-0.068085	1.479897	1.281353
H113	H	-0.436204	0.973973	0.600289
H114	H	0.063796	1.473973	1.100289
F115	F	-1.262071	1.558085	0.579838
F116	F	-0.762071	2.058085	1.079838
F117	F	-0.591211	1.255852	1.147024
F118	F	-0.091211	1.755852	1.647024
F119	F	-1.256135	1.252317	0.816356
F120	F	-0.756135	1.752317	1.316356
H121	H	-0.467284	0.794743	0.642966
H122	H	0.032716	1.294743	1.142966
F123	F	-1.104927	1.262906	0.808088
F124	F	-0.604927	1.762906	1.308088
H125	H	-1.027855	1.290550	0.786631
H126	H	-0.527855	1.790550	1.286631
