data_functionalizedCrystal
_audit_creation_method	'MofGen! by Chris Wilmer'
_symmetry_space_group_name_H-M	'P1'
_symmetry_Int_Tables_number	1
_symmetry_cell_setting	triclinic
loop_
_symmetry_equiv_pos_as_xyz
  x,y,z
_cell_length_a	33.428889
_cell_length_b	33.428139
_cell_length_c	33.424847
_cell_angle_alpha	60.004234
_cell_angle_beta	60.008465
_cell_angle_gamma	59.994972
loop_
_atom_site_label
_atom_site_type_symbol
_atom_site_fract_x
_atom_site_fract_y
_atom_site_fract_z
O1	O	0.055565	-0.584504	0.488714
O2	O	0.020982	-0.455083	0.393778
O3	O	0.102943	-0.536959	0.393689
O4	O	-0.026396	-0.502628	0.488803
O5	O	0.130140	-0.509767	0.420792
O6	O	0.048179	-0.427891	0.420881
O7	O	0.082762	-0.557312	0.515817
Cu8	Cu	0.067954	-0.490119	0.470823
Cu9	Cu	0.035790	-0.522276	0.438771
O10	O	0.000801	-0.475436	0.515906
N11	N	0.090577	-0.467504	0.493370
N12	N	0.013171	-0.544895	0.416225
C13	C	0.143377	-0.280390	0.546067
C14	C	0.143515	-0.414755	0.680369
C15	C	0.143392	-0.414735	0.546069
C16	C	0.277766	-0.414702	0.545966
C17	C	0.158177	-0.324719	0.560828
C18	C	0.158255	-0.399967	0.636038
C19	C	0.233434	-0.399936	0.560773
C20	C	0.158186	-0.399955	0.560829
C21	C	0.124540	-0.223964	0.527278
C22	C	0.124565	-0.433545	0.527281
C23	C	0.177014	-0.381145	0.579617
C24	C	0.359814	-0.400540	0.502735
C25	C	0.411105	-0.417624	0.485606
C26	C	0.411136	-0.500620	0.517255
C27	C	0.359845	-0.483534	0.534385
C28	C	0.136887	-0.198305	0.476855
C29	C	0.119761	-0.147011	0.459777
C30	C	0.077945	-0.147038	0.543547
C31	C	0.095072	-0.198332	0.560625
C32	C	0.074134	-0.421169	0.539710
C33	C	0.057023	-0.438269	0.522625
C34	C	0.140770	-0.480120	0.480694
C35	C	0.157883	-0.463020	0.497773
C36	C	0.074339	-0.421208	0.762475
C37	C	0.057288	-0.438323	0.813768
C38	C	0.141075	-0.480183	0.813699
C39	C	0.158125	-0.463069	0.762404
C40	C	0.124756	-0.433580	0.736794
C41	C	0.334186	-0.433494	0.527123
C42	C	-0.173769	-0.597444	0.363037
C43	C	-0.039302	-0.597595	0.228856
C44	C	-0.039496	-0.597587	0.363300
C45	C	-0.039512	-0.731889	0.363237
C46	C	-0.129442	-0.612265	0.348329
C47	C	-0.054138	-0.612351	0.273187
C48	C	-0.054257	-0.687554	0.348440
C49	C	-0.054247	-0.612346	0.348477
C50	C	-0.230191	-0.578579	0.381758
C51	C	-0.020722	-0.578803	0.382168
C52	C	-0.073020	-0.631130	0.329609
C53	C	-0.053713	-0.813916	0.406386
C54	C	-0.036654	-0.865210	0.423504
C55	C	0.046338	-0.865293	0.391984
C56	C	0.029278	-0.813999	0.374865
C57	C	-0.255900	-0.590938	0.432169
C58	C	-0.307191	-0.573786	0.449185
C59	C	-0.307060	-0.531922	0.365377
C60	C	-0.255769	-0.549074	0.348360
C61	C	-0.033081	-0.528377	0.369764
C62	C	-0.016014	-0.511306	0.386922
C63	C	0.025770	-0.595083	0.428877
C64	C	0.008703	-0.612156	0.411725
C65	C	-0.032755	-0.528393	0.146761
C66	C	-0.015585	-0.511324	0.095468
C67	C	0.026262	-0.595106	0.095516
C68	C	0.009094	-0.612174	0.146811
C69	C	-0.020417	-0.578816	0.172432
C70	C	-0.020748	-0.788312	0.382068
N71	N	0.436037	-0.467415	0.493101
O72	O	0.592642	-0.471896	0.376066
O73	O	0.592838	-0.567146	0.505347
O74	O	0.592754	-0.566928	0.423360
O75	O	0.592727	-0.472113	0.458053
O76	O	0.511269	-0.539835	0.450606
O77	O	0.511353	-0.540052	0.532594
O78	O	0.511157	-0.444802	0.403312
Cu79	Cu	0.503815	-0.489954	0.470441
Cu80	Cu	0.600180	-0.521995	0.438219
O81	O	0.511242	-0.445020	0.485300
N82	N	0.667959	-0.544533	0.415554
N83	N	0.090544	-0.122107	0.493359
O84	O	-0.026406	0.034587	0.488773
O85	O	0.102877	0.034627	0.393499
O86	O	0.020848	0.034591	0.393771
O87	O	0.055623	0.034623	0.488500
O88	O	0.048051	-0.046899	0.420925
O89	O	0.130080	-0.046864	0.420653
O90	O	0.000796	-0.046903	0.515927
Cu91	Cu	0.067922	-0.054324	0.470769
Cu92	Cu	0.035752	0.042048	0.438656
O93	O	0.082825	-0.046867	0.515655
N94	N	0.013123	0.109830	0.416068
N95	N	0.090892	-0.467554	0.838649
O96	O	0.086330	-0.584488	0.995334
O97	O	-0.008902	-0.455160	0.995379
O98	O	-0.008679	-0.537172	0.995355
O99	O	0.086107	-0.502475	0.995358
O100	O	0.018452	-0.509990	0.913868
O101	O	0.018230	-0.427978	0.913891
O102	O	0.113461	-0.557306	0.913847
Cu103	Cu	0.068323	-0.490160	0.906429
Cu104	Cu	0.036237	-0.522306	1.002797
O105	O	0.113239	-0.475293	0.913870
N106	N	0.013667	-0.544916	1.070577
C107	C	0.031339	-0.425179	0.394250
C108	C	0.132837	-0.526572	0.394139
C109	C	0.072405	-0.587216	0.515344
C110	C	-0.029093	-0.485823	0.515455
C111	C	0.552119	-0.566716	0.535258
C112	C	0.552016	-0.566447	0.433726
C113	C	0.551873	-0.445232	0.373402
C114	C	0.551980	-0.445502	0.474933
C115	C	0.132731	-0.006013	0.393923
C116	C	0.031182	-0.006158	0.394293
C117	C	-0.029092	-0.006163	0.515469
C118	C	0.072491	-0.006119	0.515133
C119	C	-0.008451	-0.425276	0.954641
C120	C	-0.008170	-0.526833	0.954596
C121	C	0.113010	-0.587190	0.954585
C122	C	0.112735	-0.485627	0.954611
H123	H	0.016234	-0.428240	0.834672
C124	C	0.552032	-0.606688	0.423702
C125	C	0.552106	-0.656961	0.463912
C126	C	0.552121	-0.697203	0.453888
C127	C	0.552062	-0.687170	0.403653
C128	C	0.551988	-0.636895	0.363440
C129	C	0.551973	-0.596654	0.373464
H130	H	0.552149	-0.664390	0.501102
H131	H	0.552176	-0.734420	0.483657
H132	H	0.552073	-0.716959	0.396233
H133	H	0.551944	-0.629466	0.326250
H134	H	0.551918	-0.559436	0.343695
C135	C	0.182783	-0.005689	0.353412
C136	C	0.192491	-0.005539	0.303195
C137	C	0.242544	-0.005215	0.262684
C138	C	0.282888	-0.005040	0.272391
C139	C	0.273181	-0.005190	0.322611
C140	C	0.223129	-0.005515	0.363122
H141	H	0.162625	-0.005668	0.296007
H142	H	0.249729	-0.005103	0.225508
H143	H	0.319939	-0.004800	0.242403
H144	H	0.303047	-0.005061	0.329799
H145	H	0.215943	-0.005626	0.400298
C146	C	0.021125	-0.006168	0.354084
C147	C	-0.029128	-0.006188	0.364143
C148	C	-0.039185	-0.006199	0.323935
C149	C	0.001011	-0.006190	0.273667
C150	C	0.051268	-0.006170	0.263606
C151	C	0.061325	-0.006159	0.303815
H152	H	-0.058887	-0.006195	0.401356
H153	H	-0.076389	-0.006214	0.331383
H154	H	-0.006433	-0.006198	0.243902
H155	H	0.081027	-0.006163	0.226393
H156	H	0.098529	-0.006145	0.296367
H157	H	0.079796	-0.624394	0.545162
C158	C	-0.079249	-0.006176	0.555877
C159	C	-0.119645	-0.006195	0.546118
C160	C	-0.169801	-0.006208	0.586526
C161	C	-0.179562	-0.006203	0.636692
C162	C	-0.139164	-0.006184	0.646453
C163	C	-0.089008	-0.006171	0.606045
H164	H	-0.112421	-0.006199	0.508980
H165	H	-0.199706	-0.006222	0.579300
H166	H	-0.216691	-0.006213	0.666605
H167	H	-0.146388	-0.006180	0.683591
H168	H	-0.059103	-0.006157	0.613271
C169	C	-0.079277	-0.475946	0.555806
C170	C	-0.119622	-0.425747	0.545944
C171	C	-0.169806	-0.415870	0.586294
C172	C	-0.179644	-0.456191	0.636507
C173	C	-0.139297	-0.506394	0.646371
C174	C	-0.089113	-0.516271	0.606020
H175	H	-0.112341	-0.395895	0.508771
H176	H	-0.199673	-0.378706	0.578992
H177	H	-0.216793	-0.448880	0.666377
H178	H	-0.146579	-0.536245	0.683543
H179	H	-0.059246	-0.553434	0.613323
H180	H	0.551811	-0.415327	0.336274
H181	H	0.552170	-0.596617	0.572390
C182	C	0.551966	-0.405261	0.484957
C183	C	0.552025	-0.415293	0.535191
C184	C	0.552012	-0.375053	0.545215
C185	C	0.551938	-0.324780	0.505004
C186	C	0.551879	-0.314745	0.454767
C187	C	0.551893	-0.354986	0.444743
H188	H	0.552080	-0.452511	0.564960
H189	H	0.552056	-0.382481	0.582404
H190	H	0.551928	-0.294991	0.512425
H191	H	0.551825	-0.277528	0.424998
H192	H	0.551848	-0.347557	0.407554
C193	C	0.021359	-0.374956	0.353964
C194	C	0.007873	-0.328139	0.362947
C195	C	-0.002107	-0.277916	0.322661
C196	C	0.001401	-0.274510	0.273394
C197	C	0.014888	-0.321327	0.264409
C198	C	0.024867	-0.371551	0.304694
H199	H	0.005276	-0.330660	0.399420
H200	H	-0.012091	-0.243259	0.329313
H201	H	-0.005987	-0.237331	0.243572
H202	H	0.017484	-0.318807	0.227936
H203	H	0.034851	-0.406208	0.298043
H204	H	-0.038348	-0.388133	0.954654
C205	C	0.082549	-0.006111	0.555342
C206	C	0.132803	-0.006092	0.545284
C207	C	0.142860	-0.006084	0.585493
C208	C	0.102664	-0.006094	0.635761
C209	C	0.052407	-0.006113	0.645822
C210	C	0.042349	-0.006121	0.605612
H211	H	0.162561	-0.006085	0.508070
H212	H	0.180064	-0.006070	0.578045
H213	H	0.110110	-0.006088	0.665527
H214	H	0.022648	-0.006120	0.683035
H215	H	0.005145	-0.006135	0.613060
H216	H	-0.037935	-0.534246	0.954563
H217	H	0.142910	-0.624330	0.954565
C218	C	0.152967	-0.475599	0.954604
C219	C	0.142936	-0.425348	0.954616
C220	C	0.183168	-0.415320	0.954608
C221	C	0.233432	-0.455545	0.954589
C222	C	0.243465	-0.505800	0.954578
C223	C	0.203233	-0.515827	0.954585
H224	H	0.105726	-0.395568	0.954630
H225	H	0.175741	-0.378118	0.954617
H226	H	0.263214	-0.448122	0.954584
H227	H	0.280675	-0.535580	0.954564
H228	H	0.210661	-0.553030	0.954577
C229	C	0.183019	-0.536450	0.353788
C230	C	0.214608	-0.504640	0.332665
C231	C	0.264791	-0.514518	0.292314
C232	C	0.283384	-0.556207	0.273084
C233	C	0.251794	-0.588020	0.294207
C234	C	0.201612	-0.578142	0.334558
H235	H	0.200845	-0.473777	0.346900
H236	H	0.288175	-0.490968	0.276677
H237	H	0.320532	-0.563520	0.243213
H238	H	0.265558	-0.618883	0.279972
H239	H	0.178227	-0.601693	0.350195
H240	H	0.047163	-0.397193	0.741627
H241	H	0.168250	-0.504186	0.834549
H242	H	0.199181	-0.473148	0.741498
H243	H	0.047002	-0.397168	0.563734
H244	H	0.015959	-0.428182	0.532734
H245	H	0.198948	-0.473094	0.487648
C246	C	0.331657	-0.519785	0.561205
C247	C	0.359886	-0.574826	0.569182
C248	C	0.331698	-0.611079	0.595998
C249	C	0.275280	-0.592291	0.614838
C250	C	0.247047	-0.537247	0.606862
C251	C	0.275235	-0.500995	0.580046
H252	H	0.401653	-0.588737	0.555235
H253	H	0.352598	-0.651826	0.601903
H254	H	0.254413	-0.619127	0.634689
H255	H	0.205280	-0.523337	0.620809
H256	H	0.254335	-0.460248	0.574141
C257	C	0.439362	-0.555664	0.525241
C258	C	0.474661	-0.584239	0.554742
C259	C	0.502890	-0.639284	0.562728
C260	C	0.495819	-0.665754	0.541212
C261	C	0.460518	-0.637179	0.511709
C262	C	0.432289	-0.582134	0.503724
H263	H	0.479897	-0.564645	0.570671
H264	H	0.529022	-0.660437	0.584568
H265	H	0.516715	-0.706501	0.547124
H266	H	0.455282	-0.656773	0.495780
H267	H	0.406157	-0.560981	0.481883
C268	C	0.177423	-0.512547	0.448238
C269	C	0.177209	-0.564617	0.465270
C270	C	0.213860	-0.597042	0.432813
C271	C	0.250724	-0.577398	0.383325
C272	C	0.250939	-0.525326	0.366290
C273	C	0.214289	-0.492900	0.398747
H274	H	0.149918	-0.579161	0.501906
H275	H	0.213700	-0.635589	0.445423
H276	H	0.277855	-0.601401	0.359298
H277	H	0.278230	-0.510781	0.329654
H278	H	0.214448	-0.454353	0.386137
H279	H	0.431972	-0.390789	0.465748
H280	H	0.160882	-0.219171	0.449698
C281	C	0.331587	-0.345494	0.494749
C282	C	0.338597	-0.308192	0.442411
C283	C	0.310372	-0.253146	0.434423
C284	C	0.275136	-0.235403	0.478773
C285	C	0.268125	-0.272705	0.531113
C286	C	0.296350	-0.327751	0.539101
H287	H	0.364681	-0.321326	0.409578
H288	H	0.315562	-0.225532	0.395677
H289	H	0.254242	-0.194654	0.472859
H290	H	0.242040	-0.259571	0.563947
H291	H	0.291159	-0.355365	0.577848
C292	C	0.133342	-0.118781	0.404309
C293	C	0.165761	-0.146975	0.367628
C294	C	0.179343	-0.118748	0.312160
C295	C	0.160506	-0.062326	0.293372
C296	C	0.128086	-0.034129	0.330053
C297	C	0.114504	-0.062356	0.385522
H298	H	0.179707	-0.188745	0.381535
H299	H	0.203343	-0.139622	0.285006
H300	H	0.170560	-0.041430	0.252311
H301	H	0.114140	0.007641	0.316146
H302	H	0.090503	-0.041482	0.412675
H303	H	0.053957	-0.126168	0.570702
H304	H	0.085016	-0.219221	0.601683
H305	H	-0.025639	-0.470264	0.074572
H306	H	0.050281	-0.622271	0.074658
C307	C	-0.065217	-0.491695	0.174940
C308	C	-0.045584	-0.454825	0.167932
C309	C	-0.078043	-0.418127	0.196111
C310	C	-0.130135	-0.418300	0.231297
C311	C	-0.149770	-0.455172	0.238306
C312	C	-0.117312	-0.491870	0.210128
H313	H	-0.007020	-0.454696	0.141884
H314	H	-0.063507	-0.390832	0.190921
H315	H	-0.154162	-0.391134	0.252156
H316	H	-0.188334	-0.455301	0.264355
H317	H	-0.131848	-0.519165	0.215317
C318	C	0.022666	-0.667644	0.175048
C319	C	0.055119	-0.704333	0.146863
C320	C	0.068690	-0.759802	0.175099
C321	C	0.049807	-0.778580	0.231518
C322	C	0.017352	-0.741890	0.259706
C323	C	0.003781	-0.686421	0.231470
H324	H	0.069099	-0.690433	0.105095
H325	H	0.092716	-0.786962	0.154232
H326	H	0.059853	-0.819641	0.252420
H327	H	0.003372	-0.755790	0.301474
H328	H	-0.020245	-0.659261	0.252337
H329	H	-0.026079	-0.470245	0.376824
C330	C	0.058142	-0.631775	0.461387
C331	C	0.110206	-0.631596	0.444440
C332	C	0.142576	-0.668286	0.476950
C333	C	0.122883	-0.705154	0.526407
C334	C	0.070817	-0.705334	0.543356
C335	C	0.038446	-0.668645	0.510846
H336	H	0.124786	-0.604303	0.407827
H337	H	0.181119	-0.668152	0.464403
H338	H	0.146845	-0.732313	0.550473
H339	H	0.056236	-0.732627	0.579970
H340	H	-0.000097	-0.668778	0.523394
C341	C	0.022304	-0.667626	0.425360
C342	C	0.054676	-0.704313	0.457865
C343	C	0.068281	-0.759782	0.471497
C344	C	0.049513	-0.778564	0.452624
C345	C	0.017139	-0.741876	0.420116
C346	C	0.003534	-0.686407	0.406485
H347	H	0.068571	-0.690411	0.471838
H348	H	0.092246	-0.786941	0.495561
H349	H	0.059584	-0.819625	0.462715
H350	H	0.003244	-0.755779	0.406143
H351	H	-0.020432	-0.659248	0.382421
H352	H	0.056124	-0.793157	0.355062
C353	C	0.101366	-0.893550	0.384064
C354	C	0.119045	-0.928818	0.428454
C355	C	0.174074	-0.957077	0.420534
C356	C	0.211424	-0.950068	0.368224
C357	C	0.193747	-0.914798	0.323830
C358	C	0.138718	-0.886539	0.331750
H359	H	0.091395	-0.934008	0.467180
H360	H	0.187160	-0.983186	0.453398
H361	H	0.252160	-0.970987	0.362362
H362	H	0.221397	-0.909608	0.285104
H363	H	0.125632	-0.860430	0.298887
C364	C	-0.072917	-0.893377	0.450258
C365	C	-0.114954	-0.886281	0.497862
C366	C	-0.151218	-0.914447	0.524621
C367	C	-0.145445	-0.949708	0.503775
C368	C	-0.103406	-0.956806	0.456168
C369	C	-0.067142	-0.928640	0.429409
H370	H	-0.119229	-0.860177	0.513296
H371	H	-0.182338	-0.909193	0.559863
H372	H	-0.172289	-0.970559	0.523583
H373	H	-0.099131	-0.982910	0.440734
H374	H	-0.036022	-0.933894	0.394167
H375	H	-0.057039	-0.501216	0.345698
H376	H	-0.094449	-0.793002	0.412253
H377	H	-0.328125	-0.583847	0.490235
C378	C	-0.227764	-0.623392	0.468906
C379	C	-0.256045	-0.636980	0.524359
C380	C	-0.227907	-0.669435	0.561095
C381	C	-0.171489	-0.688303	0.542379
C382	C	-0.143205	-0.674716	0.486924
C383	C	-0.171343	-0.642261	0.450187
H384	H	-0.297812	-0.623013	0.538216
H385	H	-0.248845	-0.679493	0.602147
H386	H	-0.150660	-0.712328	0.569574
H387	H	-0.101439	-0.688683	0.473066
H388	H	-0.150405	-0.632202	0.409135
H389	H	-0.234840	-0.539009	0.307312
C390	C	-0.335199	-0.499470	0.328640
C391	C	-0.328101	-0.519103	0.291718
C392	C	-0.356237	-0.486648	0.254980
C393	C	-0.391471	-0.434561	0.255164
C394	C	-0.398571	-0.414925	0.292088
C395	C	-0.370435	-0.447380	0.328826
H396	H	-0.302017	-0.557663	0.291580
H397	H	-0.350981	-0.501184	0.227647
H398	H	-0.412299	-0.410536	0.227969
H399	H	-0.424655	-0.376365	0.292226
H400	H	-0.375691	-0.432844	0.356159
