data_functionalizedCrystal
_audit_creation_method	'MofGen! by Chris Wilmer'
_symmetry_space_group_name_H-M	'P1'
_symmetry_Int_Tables_number	1
_symmetry_cell_setting	triclinic
loop_
_symmetry_equiv_pos_as_xyz
  x,y,z
_cell_length_a	14.971486
_cell_length_b	10.654550
_cell_length_c	9.730223
_cell_angle_alpha	90.006075
_cell_angle_beta	89.999325
_cell_angle_gamma	84.049530
loop_
_atom_site_label
_atom_site_type_symbol
_atom_site_fract_x
_atom_site_fract_y
_atom_site_fract_z
O1	O	-1.187835	-0.163659	-0.114131
O2	O	-0.687835	0.336341	0.385869
O3	O	-0.927541	-0.183257	-0.114169
O4	O	-0.427541	0.316743	0.385831
O5	O	-1.063673	0.009345	-0.114141
O6	O	-0.563673	0.509345	0.385859
O7	O	-1.051703	-0.356262	-0.114160
O8	O	-0.551703	0.143738	0.385840
O9	O	-1.063662	0.009357	0.114439
O10	O	-0.563662	0.509357	0.614439
O11	O	-0.927530	-0.183246	0.114411
O12	O	-0.427530	0.316754	0.614411
O13	O	-1.187824	-0.163648	0.114449
O14	O	-0.687824	0.336352	0.614449
Zn15	Zn	-1.057675	-0.173445	0.150722
Zn16	Zn	-0.557675	0.326555	0.650722
Zn17	Zn	-1.057690	-0.173460	-0.150442
Zn18	Zn	-0.557690	0.326540	0.349558
O19	O	-1.051692	-0.356250	0.114420
O20	O	-0.551692	0.143750	0.614420
C21	C	-0.894206	-0.182375	0.000117
C22	C	-0.394206	0.317625	0.500117
C23	C	-0.794895	-0.179749	0.000102
C24	C	-0.294895	0.320251	0.500102
C25	C	-1.062788	0.056139	0.000149
C26	C	-0.562788	0.556139	0.500149
C27	C	-1.060159	0.195555	0.000146
C28	C	-0.560159	0.695555	0.500146
C29	C	-1.221159	-0.164530	0.000160
C30	C	-0.721159	0.335470	0.500160
C31	C	-1.320470	-0.167156	0.000165
C32	C	-0.820470	0.332844	0.500165
C33	C	-0.738285	-0.292898	0.000099
C34	C	-0.238285	0.207102	0.500099
C35	C	-0.644972	-0.290422	0.000119
C36	C	-0.144972	0.209578	0.500119
C37	C	-0.608271	-0.174797	0.000134
C38	C	-0.108271	0.325203	0.500134
C39	C	-0.664888	-0.061639	0.000142
C40	C	-0.164888	0.438361	0.500142
C41	C	-0.758199	-0.064116	0.000131
C42	C	-0.258199	0.435884	0.500131
C43	C	-0.470397	-0.056485	0.000161
C44	C	0.029603	0.443515	0.500161
C45	C	-0.377080	-0.054007	0.000169
C46	C	0.122920	0.445993	0.500169
C47	C	-0.357171	-0.282791	0.000149
C48	C	0.142829	0.217209	0.500149
C49	C	-0.450482	-0.285268	0.000138
C50	C	0.049518	0.214732	0.500138
C51	C	-0.507092	-0.172110	0.000144
C52	C	-0.007092	0.327890	0.500144
C53	C	-1.052577	-0.403044	0.000128
C54	C	-0.552577	0.096956	0.500128
C55	C	-1.055206	-0.542460	0.000122
C56	C	-0.555206	-0.042460	0.500122
N57	N	-1.057672	-0.173434	0.356258
N58	N	-0.557672	0.326566	0.856258
C59	C	-1.140311	0.275900	0.000157
C60	C	-0.640311	0.775900	0.500157
C61	C	-1.137835	0.406894	0.000140
C62	C	-0.637835	0.906894	0.500140
C63	C	-0.975048	0.377185	0.000107
C64	C	-0.475048	0.877185	0.500107
C65	C	-0.977525	0.246193	0.000114
C66	C	-0.477525	0.746193	0.500114
N67	N	-1.057700	-0.173461	-0.355978
N68	N	-0.557700	0.326539	0.144022
C69	C	-1.002977	-0.097161	0.572117
C70	C	-0.502977	0.402839	1.072117
C71	C	-1.002965	-0.097144	0.428234
C72	C	-0.502965	0.402856	0.928234
C73	C	-1.112401	-0.249737	0.428173
C74	C	-0.612401	0.250263	0.928173
C75	C	-1.112417	-0.249747	0.572053
C76	C	-0.612417	0.250253	1.072053
H77	H	-0.768160	-0.387053	0.000086
H78	H	-0.268160	0.112947	0.500086
Br79	Br	-0.862907	0.445917	0.000059
Br80	Br	-0.362907	0.945917	0.500059
H81	H	-0.598884	-0.382559	0.000114
H82	H	-0.098884	0.117441	0.500114
H83	H	-0.480361	-0.379420	0.000113
H84	H	0.019639	0.120580	0.500113
H85	H	-0.958423	-0.035043	0.630710
H86	H	-0.458423	0.464957	1.130710
Br87	Br	-0.280344	-0.436363	0.000140
Br88	Br	0.219656	0.063637	0.500140
H89	H	-1.203103	0.472307	0.000146
H90	H	-0.703103	0.972307	0.500146
H91	H	-1.156984	-0.311881	0.630599
H92	H	-0.656984	0.188119	1.130599
Br93	Br	-0.327270	0.102914	0.000235
Br94	Br	0.172730	0.602914	0.500235
H95	H	-0.516488	0.035661	0.000168
H96	H	-0.016488	0.535661	0.500168
H97	H	-0.958405	-0.035011	0.369696
H98	H	-0.458405	0.464989	0.869696
H99	H	-0.804290	0.028022	0.000134
H100	H	-0.304290	0.528022	0.500134
H101	H	-1.156949	-0.311848	0.369559
H102	H	-0.656949	0.188152	0.869559
H103	H	-0.912251	0.180772	0.000101
H104	H	-0.412251	0.680772	0.500101
Br105	Br	-0.615080	0.095284	0.000176
Br106	Br	-0.115080	0.595284	0.500176
Br107	Br	-1.252456	0.207180	0.000202
Br108	Br	-0.752456	0.707180	0.500202
