data_functionalizedCrystal
_audit_creation_method	'MofGen! by Chris Wilmer'
_symmetry_space_group_name_H-M	'P1'
_symmetry_Int_Tables_number	1
_symmetry_cell_setting	triclinic
loop_
_symmetry_equiv_pos_as_xyz
  x,y,z
_cell_length_a	17.038272
_cell_length_b	23.532407
_cell_length_c	16.098538
_cell_angle_alpha	92.700973
_cell_angle_beta	87.069734
_cell_angle_gamma	86.980117
loop_
_atom_site_label
_atom_site_type_symbol
_atom_site_fract_x
_atom_site_fract_y
_atom_site_fract_z
O1	O	1.039966	0.121251	-0.069166
O2	O	0.812351	0.119288	-0.069191
O3	O	0.933021	0.037699	-0.069163
O4	O	0.919295	0.202840	-0.069195
O5	O	0.925973	0.042445	0.069349
O6	O	0.805302	0.124034	0.069321
O7	O	1.032917	0.125997	0.069345
Zn8	Zn	0.917990	0.125769	0.091324
Zn9	Zn	0.927278	0.119516	-0.091170
O10	O	0.912247	0.207586	0.069317
C11	C	0.779712	0.119875	0.000062
C12	C	0.692959	0.114548	0.000054
C13	C	0.642483	0.163453	0.000045
C14	C	0.560969	0.158445	0.000057
C15	C	0.529932	0.104532	0.000072
C16	C	0.580415	0.055624	0.000084
C17	C	0.661927	0.060632	0.000077
C18	C	0.284304	0.086837	0.000098
C19	C	0.202786	0.081832	0.000102
C20	C	0.183345	0.184654	0.000077
C21	C	0.264860	0.189657	0.000066
C22	C	0.315335	0.140750	0.000081
C23	C	0.446612	0.099411	0.000083
C24	C	0.398653	0.145871	0.000077
C25	C	0.929147	0.018838	0.000095
C26	C	0.928096	-0.044434	0.000101
C27	C	0.992917	-0.440131	0.000063
C28	C	0.991941	-0.499583	0.000056
O29	O	1.052030	-0.533169	0.000032
N30	N	0.920202	-0.525981	0.000049
C31	C	0.849435	-0.492924	0.000040
O32	O	0.788325	-0.520836	0.000033
C33	C	0.850412	-0.433473	0.000041
C34	C	0.922155	-0.407078	0.000056
C35	C	1.064654	-0.413736	0.000077
C36	C	1.065630	-0.354288	0.000085
C37	C	0.994868	-0.321236	0.000079
C38	C	0.923131	-0.347631	0.000064
C39	C	0.779646	-0.400418	0.000026
C40	C	0.780629	-0.340963	0.000025
C41	C	0.852372	-0.314569	0.000041
C42	C	0.853344	-0.255130	0.000066
N43	N	0.925083	-0.228732	0.000073
C44	C	0.995845	-0.261785	0.000079
C45	C	0.847388	-0.617774	0.000038
C46	C	0.846410	-0.677223	0.000043
C47	C	0.988917	-0.683878	0.000058
C48	C	0.989894	-0.624428	0.000058
C49	C	0.919127	-0.591376	0.000045
C50	C	0.997889	-0.136940	0.000097
C51	C	0.998858	-0.077487	0.000108
C52	C	0.856352	-0.070837	0.000089
C53	C	0.855382	-0.130285	0.000082
C54	C	0.926157	-0.163336	0.000083
O55	O	0.793287	-0.221508	0.000086
O56	O	1.056945	-0.233865	0.000076
C57	C	1.065556	0.125410	0.000090
C58	C	1.152310	0.130737	0.000093
C59	C	0.916121	0.226447	0.000057
C60	C	0.917172	0.289719	0.000045
N61	N	0.911658	0.130036	0.215872
N62	N	0.933616	0.115244	-0.215718
C63	C	0.962894	0.095421	0.259469
C64	C	0.958471	0.098412	0.346657
C65	C	0.902816	0.136022	0.390246
C66	C	0.851574	0.170639	0.346643
C67	C	0.855994	0.167644	0.259457
C68	C	0.886795	0.146867	0.653493
C69	C	0.882380	0.149860	0.740685
C70	C	0.989277	0.077632	0.740693
C71	C	0.993694	0.074644	0.653505
C72	C	0.942450	0.109258	0.609909
C73	C	0.898295	0.139081	0.479366
C74	C	0.946968	0.106195	0.520791
H75	H	0.142240	0.224472	0.000066
H76	H	1.057282	-0.055999	0.000123
H77	H	0.555138	0.011727	0.000108
H78	H	1.000191	0.070225	0.382153
H79	H	0.992280	0.075571	0.485298
O80	O	0.416494	0.047033	0.000235
C81	C	0.438703	0.019428	0.071961
H82	H	0.452882	0.052599	0.122097
H83	H	0.388283	-0.006359	0.096045
H84	H	0.492899	-0.010278	0.055740
H85	H	0.789757	-0.590866	0.000034
O86	O	0.172765	0.029416	0.000153
C87	C	0.234794	-0.012679	0.000144
H88	H	0.288718	0.006858	0.026365
H89	H	0.215994	-0.048703	0.040364
H90	H	0.249828	-0.030232	-0.066304
H91	H	0.837057	0.180488	0.776172
H92	H	0.814271	0.195831	0.223961
O93	O	0.776731	-0.702881	0.000183
C94	C	0.768253	-0.734634	0.071903
H95	H	0.806430	-0.716901	0.122051
H96	H	0.703998	-0.731538	0.095973
H97	H	0.787474	-0.781140	0.055680
H98	H	1.039013	0.044019	0.618016
O99	O	1.057728	-0.715906	0.000093
C100	C	1.121265	-0.679867	0.000079
H101	H	1.099748	-0.635615	0.026307
H102	H	1.168769	-0.698005	0.040293
H103	H	1.146655	-0.676837	-0.066370
H104	H	0.325392	0.047013	0.000112
O105	O	1.038965	0.044028	0.783171
C106	C	1.023147	0.054744	0.869471
H107	H	0.960244	0.073394	0.881382
H108	H	1.030498	0.013193	0.902619
H109	H	1.065906	0.086306	0.894196
O110	O	0.672672	0.215807	-0.000120
C111	C	0.722893	0.219318	-0.071851
H112	H	0.706391	0.186916	-0.121982
H113	H	0.716437	0.264019	-0.095941
H114	H	0.786460	0.209861	-0.055636
H115	H	1.124051	-0.332803	0.000094
O116	O	0.709887	-0.425958	-0.000030
C117	C	0.647650	-0.384025	-0.000021
H118	H	0.670584	-0.343521	-0.026234
H119	H	0.599581	-0.400239	-0.040248
H120	H	0.622458	-0.374408	0.066426
H121	H	0.845071	0.175052	0.618004
O122	O	0.710853	0.013067	0.000044
C123	C	0.665982	-0.035592	0.000078
H124	H	0.606357	-0.024990	-0.026144
H125	H	0.698374	-0.071478	-0.040130
H126	H	0.656931	-0.049655	0.066533
H127	H	0.806255	0.201259	0.382139
H128	H	0.723001	-0.314056	0.000013
H129	H	0.423926	0.189766	0.000069
O130	O	1.066708	-0.168954	0.000138
C131	C	1.130227	-0.132899	0.000132
H132	H	1.108689	-0.088651	0.026355
H133	H	1.177734	-0.151025	0.040353
H134	H	1.155624	-0.129866	-0.066315
O135	O	0.844202	0.175541	0.521806
C136	C	0.793660	0.144424	0.572239
H137	H	0.824472	0.101843	0.585299
H138	H	0.778011	0.169681	0.633548
H139	H	0.737629	0.136585	0.538653
O140	O	1.133456	-0.445781	-0.000025
C141	C	1.180685	-0.435736	-0.071762
H142	H	1.162339	-0.392445	-0.095686
H143	H	1.245078	-0.436183	-0.055614
H144	H	1.172830	-0.470455	-0.121995
O145	O	0.512050	0.206007	0.000010
C146	C	0.556921	0.254666	0.000012
H147	H	0.619205	0.242265	-0.026216
H148	H	0.528609	0.287796	-0.040208
H149	H	0.559233	0.273286	0.066457
O150	O	0.785748	-0.155999	-0.000037
C151	C	0.784564	-0.192621	-0.071793
H152	H	0.847499	-0.205232	-0.095703
H153	H	0.752902	-0.232469	-0.055673
H154	H	0.752335	-0.169778	-0.122024
H155	H	1.048313	-0.602941	0.000070
H156	H	0.290124	0.233559	0.000043
O157	O	0.787646	-0.038704	-0.000067
C158	C	0.787623	-0.006557	-0.071793
H159	H	0.830314	-0.028080	-0.121923
H160	H	0.725844	-0.003753	-0.095888
H161	H	0.806689	0.038157	-0.055568
O162	O	1.016982	0.058838	0.217259
C163	C	1.061267	0.028937	0.274440
H164	H	1.026079	0.028863	0.336593
H165	H	1.074822	-0.016810	0.249265
H166	H	1.118709	0.050577	0.283698
