data_functionalizedCrystal
_audit_creation_method	'MofGen! by Chris Wilmer'
_symmetry_space_group_name_H-M	'P1'
_symmetry_Int_Tables_number	1
_symmetry_cell_setting	triclinic
loop_
_symmetry_equiv_pos_as_xyz
  x,y,z
_cell_length_a	19.288856
_cell_length_b	18.366186
_cell_length_c	19.288857
_cell_angle_alpha	90.003709
_cell_angle_beta	96.867065
_cell_angle_gamma	89.991641
loop_
_atom_site_label
_atom_site_type_symbol
_atom_site_fract_x
_atom_site_fract_y
_atom_site_fract_z
O1	O	-0.921352	0.060586	0.086616
O2	O	-0.719090	0.060581	0.098311
O3	O	-0.826068	0.060575	-0.008667
O4	O	-0.814374	0.060592	0.193595
O5	O	-0.826054	-0.060524	-0.008663
O6	O	-0.719076	-0.060518	0.098315
O7	O	-0.921338	-0.060513	0.086620
Zn8	Zn	-0.820205	-0.079743	0.092468
Zn9	Zn	-0.820223	0.079811	0.092463
O10	O	-0.814360	-0.060507	0.193598
C11	C	-0.693207	0.000030	0.097938
C12	C	-0.616103	0.000028	0.096811
C13	C	-0.052060	0.000022	0.151959
C14	C	-0.124507	0.000028	0.153024
C15	C	-0.169215	0.000022	0.090254
C16	C	-0.141472	0.000029	0.026415
C17	C	-0.069026	0.000031	0.025352
C18	C	-0.290482	-0.042409	0.043441
C19	C	-0.362926	-0.042415	0.044507
C20	C	-0.392661	0.000019	0.093530
C21	C	-0.349942	0.042451	0.141499
C22	C	-0.277497	0.042453	0.140436
C23	C	-0.247771	0.000020	0.091400
C24	C	-0.498951	0.000023	0.158520
C25	C	-0.571399	0.000033	0.159582
C26	C	-0.588363	0.000027	0.032971
C27	C	-0.515916	0.000024	0.031910
C28	C	-0.471214	0.000019	0.094687
N29	N	-0.820198	-0.188634	0.092471
C30	C	-0.862228	-0.773179	0.134468
C31	C	-0.862221	-0.696951	0.134474
C32	C	-0.820230	-0.658845	0.092455
C33	C	-0.778230	-0.696974	0.050440
C34	C	-0.778233	-0.773200	0.050440
C35	C	-0.818505	-0.538085	0.029831
C36	C	-0.818506	-0.461860	0.029830
C37	C	-0.820216	-0.423738	0.092457
C38	C	-0.821938	-0.461850	0.155087
C39	C	-0.821941	-0.538077	0.155087
C40	C	-0.820221	-0.576191	0.092452
C41	C	-0.862202	-0.302963	0.134481
C42	C	-0.862190	-0.226734	0.134489
C43	C	-0.778203	-0.226759	0.050449
C44	C	-0.778211	-0.302987	0.050447
C45	C	-0.820214	-0.341084	0.092462
C46	C	0.052779	0.000034	0.086996
C47	C	-0.024324	0.000026	0.088129
C48	C	-0.825686	0.000025	-0.034542
C49	C	-0.824559	0.000023	-0.111646
N50	N	-0.820236	0.188702	0.092455
C51	C	-0.824041	0.066034	-0.147858
C52	C	-0.822972	0.066039	-0.220304
C53	C	-0.822436	0.000030	-0.256537
C54	C	-0.822950	-0.065991	-0.220315
C55	C	-0.824012	-0.065994	-0.147869
C56	C	-0.861432	-0.050537	-0.376768
C57	C	-0.860374	-0.050531	-0.449213
C58	C	-0.819158	0.000038	-0.479982
C59	C	-0.779008	0.050612	-0.438300
C60	C	-0.780070	0.050608	-0.365854
C61	C	-0.821284	0.000026	-0.335092
C62	C	-0.817480	0.066059	-0.594749
C63	C	-0.816407	0.066062	-0.667196
C64	C	-0.816392	-0.065970	-0.667206
C65	C	-0.817458	-0.065970	-0.594760
C66	C	-0.818005	0.000046	-0.558536
C67	C	-0.814742	0.000045	0.219473
C68	C	-0.815869	0.000052	0.296577
H69	H	-0.624764	0.000028	-0.018138
H70	H	-0.374151	0.077003	0.181420
H71	H	-0.896414	-0.665908	0.168689
H72	H	-0.817921	0.119814	-0.565254
H73	H	-0.397702	-0.076969	0.005451
Cl74	Cl	-0.915002	-0.350861	0.187302
Cl75	Cl	-0.253113	-0.095718	-0.018228
H76	H	-0.823330	-0.430813	0.206084
H77	H	-0.745446	0.091790	-0.463350
H78	H	-0.817886	-0.119724	-0.565276
H79	H	-0.822512	-0.119736	-0.249820
Cl80	Cl	-0.729595	0.114181	-0.313455
H81	H	-0.896383	-0.195699	0.168706
Cl82	Cl	-0.197676	0.000025	-0.052496
H83	H	-0.822546	0.119795	-0.249794
Cl84	Cl	-0.159383	0.000021	0.233275
H85	H	-0.824484	0.119790	-0.118369
Cl86	Cl	-0.725421	-0.350911	-0.002376
H87	H	-0.823342	-0.569105	0.206082
Cl88	Cl	-0.913270	-0.114099	-0.338097
H89	H	-0.815950	-0.119716	-0.696705
H90	H	-0.046446	0.000034	-0.026628
Cl91	Cl	-0.824663	-0.148987	-0.102342
Cl92	Cl	-0.725408	-0.178862	-0.002370
H93	H	-0.815981	0.119819	-0.696678
H94	H	-0.817109	-0.430834	-0.021167
H95	H	-0.893069	-0.091709	-0.483146
H96	H	-0.817106	-0.569117	-0.021171
Cl97	Cl	0.004133	0.000025	0.230878
H98	H	-0.744039	-0.665944	0.016230
H99	H	-0.744037	-0.804237	0.016227
H100	H	-0.493334	0.000023	-0.020068
H101	H	-0.242718	0.077003	0.179493
H102	H	-0.896429	-0.804193	0.168681
H103	H	-0.593979	0.000036	0.211563
Cl104	Cl	-0.442751	0.000019	0.237437
