data_functionalizedCrystal
_audit_creation_method	'MofGen! by Chris Wilmer'
_symmetry_space_group_name_H-M	'P1'
_symmetry_Int_Tables_number	1
_symmetry_cell_setting	triclinic
loop_
_symmetry_equiv_pos_as_xyz
  x,y,z
_cell_length_a	16.109301
_cell_length_b	14.472310
_cell_length_c	16.109301
_cell_angle_alpha	89.997506
_cell_angle_beta	96.538519
_cell_angle_gamma	90.010306
loop_
_atom_site_label
_atom_site_type_symbol
_atom_site_fract_x
_atom_site_fract_y
_atom_site_fract_z
O1	O	1.103143	0.076785	-0.106861
O2	O	1.603143	0.576785	0.393139
O3	O	0.861081	0.076801	-0.120161
O4	O	1.361081	0.576801	0.379839
O5	O	0.988761	0.076783	0.007520
O6	O	1.488761	0.576783	0.507520
O7	O	0.975462	0.076803	-0.234542
O8	O	1.475462	0.576803	0.265458
O9	O	0.988729	-0.076899	0.007512
O10	O	1.488729	0.423101	0.507512
O11	O	0.861048	-0.076881	-0.120168
O12	O	1.361048	0.423119	0.379832
O13	O	1.103110	-0.076897	-0.106869
O14	O	1.603110	0.423103	0.393131
Cu15	Cu	0.982076	-0.090921	-0.113519
Cu16	Cu	1.482076	0.409079	0.386481
Cu17	Cu	0.982115	0.090825	-0.113510
Cu18	Cu	1.482115	0.590825	0.386490
O19	O	0.975429	-0.076879	-0.234550
O20	O	1.475429	0.423121	0.265450
C21	C	0.830090	-0.000039	-0.119626
C22	C	1.330090	0.499961	0.380374
C23	C	0.737794	-0.000033	-0.118011
C24	C	1.237794	0.499967	0.381989
N25	N	0.982055	-0.218752	-0.113525
N26	N	1.482055	0.281248	0.386475
C27	C	0.515522	-0.000038	-0.190018
C28	C	1.015522	0.499962	0.309982
C29	C	0.428801	-0.000044	-0.188494
C30	C	0.928801	0.499956	0.311506
C31	C	0.448676	-0.000053	-0.037006
C32	C	0.948676	0.499947	0.462994
C33	C	0.535394	-0.000053	-0.038530
C34	C	1.035394	0.499947	0.461470
C35	C	0.568815	-0.000041	-0.115039
C36	C	1.068815	0.499959	0.384961
C37	C	0.395376	-0.000047	-0.111990
C38	C	0.895376	0.499953	0.388010
C39	C	0.301350	-0.000053	-0.110337
C40	C	0.801350	0.499947	0.389663
C41	C	0.662847	-0.000036	-0.116693
C42	C	1.162847	0.499964	0.383307
C43	C	0.982114	-0.592844	-0.113507
C44	C	1.482114	-0.092844	0.386493
C45	C	0.913565	-0.553668	-0.181597
C46	C	1.413565	-0.053668	0.318403
C47	C	0.913723	-0.446580	-0.181846
C48	C	1.413723	0.053420	0.318154
C49	C	0.982084	-0.407252	-0.113516
C50	C	1.482084	0.092748	0.386484
C51	C	1.068828	-0.446093	-0.132440
C52	C	1.568828	0.053907	0.367560
C53	C	1.068443	-0.553215	-0.132924
C54	C	1.568443	-0.053215	0.367076
C55	C	0.964692	-0.553379	-0.026291
C56	C	1.464692	-0.053379	0.473709
C57	C	0.962702	-0.446251	-0.026873
C58	C	1.462702	0.053749	0.473127
C59	C	0.982072	-0.302364	-0.113519
C60	C	1.482072	0.197636	0.386481
C61	C	0.982131	-0.697732	-0.113506
C62	C	1.482131	-0.197732	0.386494
C63	C	1.134101	-0.000055	-0.107404
C64	C	1.634101	0.499945	0.392596
C65	C	1.226397	-0.000055	-0.109019
C66	C	1.726397	0.499945	0.390981
N67	N	0.982143	0.218656	-0.113498
N68	N	1.482143	0.718656	0.386502
C69	C	0.988206	-0.000058	0.038491
C70	C	1.488206	0.499942	0.538491
C71	C	0.986591	-0.000059	0.130786
C72	C	1.486591	0.499941	0.630786
C73	C	0.975984	-0.000036	-0.265521
C74	C	1.475984	0.499964	0.234479
C75	C	0.977600	-0.000028	-0.357816
C76	C	1.477600	0.499972	0.142184
C77	C	1.058599	-0.000049	0.353059
C78	C	1.558599	0.499951	0.853059
C79	C	1.057075	-0.000042	0.439779
C80	C	1.557075	0.499958	0.939779
C81	C	0.905586	-0.000036	0.419905
C82	C	1.405586	0.499964	0.919905
C83	C	0.907111	-0.000037	0.333186
C84	C	1.407111	0.499963	0.833186
C85	C	0.983620	-0.000048	0.299766
C86	C	1.483620	0.499952	0.799766
C87	C	0.980571	-0.000040	0.473205
C88	C	1.480571	0.499960	0.973205
C89	C	0.978918	-0.000031	0.567231
C90	C	1.478918	0.499969	1.067231
C91	C	0.985273	-0.000055	0.205734
C92	C	1.485273	0.499945	0.705734
H93	H	0.542730	-0.000035	-0.252317
H94	H	1.042730	0.499965	0.247683
H95	H	1.009388	-0.419484	0.026169
H96	H	1.509388	0.080516	0.526169
H97	H	0.898892	-0.420866	-0.012511
H98	H	1.398892	0.079134	0.487489
H99	H	1.083799	-0.578186	-0.196529
H100	H	1.583799	-0.078186	0.303471
H101	H	1.014681	-0.578712	0.024379
H102	H	1.514681	-0.078712	0.524379
H103	H	0.385413	-0.000043	-0.249550
H104	H	0.885413	0.499957	0.250450
H105	H	0.421454	-0.000068	0.025285
H106	H	0.921454	0.499932	0.525285
H107	H	0.578788	-0.000058	0.022530
H108	H	1.078788	0.499942	0.522530
H109	H	1.084551	-0.419252	-0.195320
H110	H	1.584551	0.080748	0.304680
H111	H	0.849244	-0.420321	-0.170574
H112	H	1.349244	0.079679	0.329426
H113	H	0.848877	-0.579453	-0.170512
H114	H	1.348877	-0.079453	0.329488
H115	H	0.924534	-0.580573	-0.245955
H116	H	1.424534	-0.080573	0.254045
H117	H	0.924846	-0.420942	-0.246568
H118	H	1.424846	0.079058	0.253432
H119	H	1.121043	-0.579127	-0.085284
H120	H	1.621043	-0.079127	0.414716
H121	H	1.121055	-0.420617	-0.084164
H122	H	1.621055	0.079383	0.415836
H123	H	0.902813	-0.580444	-0.008088
H124	H	1.402813	-0.080444	0.491912
H125	H	1.120897	-0.000057	0.325851
H126	H	1.620897	0.499943	0.825851
H127	H	0.846050	-0.000033	0.289792
H128	H	1.346050	0.499967	0.789792
H129	H	1.118130	-0.000040	0.483168
H130	H	1.618130	0.499960	0.983168
H131	H	0.843295	-0.000028	0.447127
H132	H	1.343295	0.499972	0.947127
