data_functionalizedCrystal
_audit_creation_method	'MofGen! by Chris Wilmer'
_symmetry_space_group_name_H-M	'P1'
_symmetry_Int_Tables_number	1
_symmetry_cell_setting	triclinic
loop_
_symmetry_equiv_pos_as_xyz
  x,y,z
_cell_length_a	15.995363
_cell_length_b	22.010155
_cell_length_c	15.995350
_cell_angle_alpha	89.995941
_cell_angle_beta	96.505115
_cell_angle_gamma	89.988723
loop_
_atom_site_label
_atom_site_type_symbol
_atom_site_fract_x
_atom_site_fract_y
_atom_site_fract_z
O1	O	-1.110992	0.050478	0.107966
O2	O	-0.867218	0.050488	0.121283
O3	O	-0.995769	0.050482	-0.007263
O4	O	-0.982442	0.050484	0.236512
O5	O	-0.995732	-0.050568	-0.007248
O6	O	-0.867181	-0.050562	0.121298
O7	O	-1.110955	-0.050573	0.107981
Cu8	Cu	-0.989065	-0.059794	0.114641
Cu9	Cu	-0.989109	0.059710	0.114623
O10	O	-0.982404	-0.050567	0.236527
C11	C	-0.836005	-0.000036	0.120738
C12	C	-0.743055	-0.000031	0.119082
N13	N	-0.989040	-0.143847	0.114653
C14	C	-0.405310	-0.000046	0.113135
C15	C	-0.452743	-0.000272	0.021585
C16	C	-0.549433	-0.000039	0.023242
C17	C	-0.572869	-0.000039	0.116085
C18	C	-0.531804	0.057663	0.161231
C19	C	-0.435169	0.057707	0.158927
C20	C	-0.434787	-0.057207	0.160835
C21	C	-0.531732	-0.057964	0.160818
C22	C	-0.667566	-0.000033	0.117757
C23	C	-0.310612	-0.000048	0.111466
C24	C	-0.938311	-0.436450	0.063801
C25	C	-0.938304	-0.372842	0.063805
O26	O	-0.895140	-0.339943	0.020571
N27	N	-0.989073	-0.341031	0.114627
C28	C	-1.039859	-0.372830	0.165442
O29	O	-1.083041	-0.339932	0.208669
C30	C	-1.039870	-0.436437	0.165433
C31	C	-0.989091	-0.468245	0.114614
C32	C	-0.887537	-0.468258	0.012986
C33	C	-0.887543	-0.531861	0.012984
C34	C	-0.938324	-0.563656	0.063797
C35	C	-0.989098	-0.531848	0.114612
C36	C	-1.090660	-0.468235	0.216242
C37	C	-1.090667	-0.531846	0.216229
C38	C	-1.039888	-0.563654	0.165410
C39	C	-1.039884	-0.627247	0.165422
N40	N	-0.989115	-0.659058	0.114600
C41	C	-0.938335	-0.627262	0.063788
C42	C	-1.039832	-0.239253	0.165455
C43	C	-1.039817	-0.175647	0.165469
C44	C	-0.938263	-0.175663	0.063831
C45	C	-0.938274	-0.239270	0.063822
C46	C	-0.989063	-0.271064	0.114634
C47	C	-0.938352	-0.760834	0.063787
C48	C	-0.938360	-0.824443	0.063792
C49	C	-1.039917	-0.824421	0.165426
C50	C	-1.039906	-0.760818	0.165425
C51	C	-0.989121	-0.729026	0.114599
O52	O	-1.083028	-0.660186	0.208632
O53	O	-0.895168	-0.660169	0.020559
C54	C	-0.142170	-0.000049	0.108515
C55	C	-0.235124	-0.000054	0.110138
C56	C	-0.995199	-0.000042	-0.038450
C57	C	-0.993548	-0.000038	-0.131401
N58	N	-0.989140	0.143762	0.114605
C59	C	-0.987615	-0.000040	-0.469148
C60	C	-0.896064	0.000190	-0.421718
C61	C	-0.897716	-0.000037	-0.325028
C62	C	-0.990558	-0.000039	-0.301588
C63	C	-1.035693	-0.057745	-0.342655
C64	C	-1.033393	-0.057793	-0.439290
C65	C	-1.035327	0.057120	-0.439665
C66	C	-1.035305	0.057883	-0.342720
C67	C	-0.992226	-0.000040	-0.206890
C68	C	-0.985950	-0.000043	-0.563846
C69	C	-0.982974	-0.000041	0.267714
C70	C	-0.984626	-0.000041	0.360665
H71	H	-0.434206	-0.041653	-0.015005
H72	H	-0.433165	0.040880	-0.014849
H73	H	-1.002306	0.100572	-0.315479
N74	N	-0.886408	-0.143179	0.011908
N75	N	-0.896444	-0.150269	-0.066119
H76	H	-0.859824	-0.127325	-0.102789
N77	N	-0.584394	0.051943	-0.021595
N78	N	-0.537373	0.088166	-0.054203
H79	H	-0.562062	0.124882	-0.085869
H80	H	-0.896926	-0.265164	0.022442
H81	H	-1.081156	-0.149755	0.206861
H82	H	-1.103901	-0.059892	-0.328526
H83	H	-0.403026	-0.057597	0.228335
N84	N	-0.886478	-0.856923	0.011879
N85	N	-0.841144	-0.828522	-0.033485
H86	H	-0.804503	-0.851459	-0.070148
N87	N	-0.853212	0.051852	-0.289365
N88	N	-0.890290	0.090144	-0.249138
H89	H	-0.858855	0.126792	-0.223954
H90	H	-0.545929	0.059809	0.229440
N91	N	-1.091717	-0.271718	0.217370
N92	N	-1.137040	-0.243302	0.262738
H93	H	-1.173686	-0.266226	0.299402
N94	N	-0.886486	-0.728374	0.011852
N95	N	-0.841167	-0.756792	-0.033519
H96	H	-0.804537	-0.733869	-0.070200
N97	N	-1.142520	-0.435765	0.268173
N98	N	-1.187847	-0.464173	0.313537
H99	H	-1.224473	-0.441242	0.350221
H100	H	-0.416876	0.100841	0.125990
N101	N	-1.142558	-0.564313	0.268133
N102	N	-1.187889	-0.535900	0.313497
H103	H	-1.224537	-0.558828	0.350156
N104	N	-1.091792	-0.728333	0.217325
N105	N	-1.137140	-0.756732	0.262677
H106	H	-1.173800	-0.733794	0.299319
H107	H	-1.081259	-0.850320	0.206798
H108	H	-0.859487	0.041572	-0.440258
H109	H	-0.846185	-0.442377	-0.028396
N110	N	-0.850349	-0.051430	-0.446299
N111	N	-0.884902	-0.088388	-0.498597
H112	H	-0.852618	-0.124846	-0.515960
N113	N	-0.997798	0.111985	-0.465454
N114	N	-0.935423	0.109622	-0.505882
H115	H	-0.908911	0.148366	-0.524098
N116	N	-0.996323	-0.111611	-0.307041
N117	N	-0.935034	-0.107651	-0.251427
H118	H	-0.907223	-0.145693	-0.226276
N119	N	-0.394721	0.060991	0.243247
N120	N	-0.437890	0.063248	0.303607
H121	H	-0.409328	0.065569	0.363158
H122	H	-0.861966	-0.041471	-0.297159
N123	N	-0.567446	0.111532	0.121896
N124	N	-0.623079	0.107577	0.060622
H125	H	-0.648260	0.145621	0.032844
H126	H	-1.103011	0.061366	-0.327356
H127	H	-1.000449	-0.100927	-0.457587
H128	H	-1.100608	-0.060412	-0.471535
N129	N	-1.120007	0.057594	-0.479498
N130	N	-1.145208	0.016062	-0.529394
H131	H	-1.205013	0.016390	-0.557525
N132	N	-0.408999	-0.112071	0.123292
N133	N	-0.368576	-0.109708	0.060915
H134	H	-0.350361	-0.148453	0.034392
H135	H	-0.577847	-0.041403	-0.012246
H136	H	-0.547096	-0.061450	0.228523
N137	N	-0.565957	-0.111512	0.119445
N138	N	-0.558208	-0.120117	0.043464
H139	H	-0.582385	-0.157931	0.014236
N140	N	-0.835671	-0.564337	-0.038934
N141	N	-0.790341	-0.535931	-0.084296
H142	H	-0.753705	-0.558863	-0.120969
