data_functionalizedCrystal
_audit_creation_method	'MofGen! by Chris Wilmer'
_symmetry_space_group_name_H-M	'P1'
_symmetry_Int_Tables_number	1
_symmetry_cell_setting	triclinic
loop_
_symmetry_equiv_pos_as_xyz
  x,y,z
_cell_length_a	14.395555
_cell_length_b	18.426585
_cell_length_c	14.395555
_cell_angle_alpha	60.000928
_cell_angle_beta	60.001260
_cell_angle_gamma	90.003094
loop_
_atom_site_label
_atom_site_type_symbol
_atom_site_fract_x
_atom_site_fract_y
_atom_site_fract_z
Zr1	Zr	0.894944	-0.095210	1.016746
O2	O	0.746620	-0.211095	1.210543
O3	O	0.940410	-0.059684	0.822950
O4	O	0.940415	-0.211085	1.016738
O5	O	0.746615	0.059732	1.016761
O6	O	1.093289	-0.211078	1.016731
O7	O	0.746614	-0.059694	1.016755
O8	O	1.093280	0.059750	0.670080
O9	O	0.746624	-0.211097	1.363412
O10	O	1.073894	-0.044529	0.902656
O11	O	0.959806	0.044592	0.902666
O12	O	0.959812	-0.133663	1.130826
O13	O	0.845724	-0.044541	1.130836
Zr14	Zr	1.138762	0.095271	1.016746
Zr15	Zr	1.138761	-0.095200	1.016735
Zr16	Zr	0.894945	0.095260	1.016757
Zr17	Zr	0.894952	-0.095213	1.260556
Zr18	Zr	1.138754	0.095273	0.772936
O19	O	1.093296	0.059744	1.210542
O20	O	1.093295	-0.211080	1.210527
O21	O	0.746620	0.059730	1.210557
O22	O	1.287086	0.211155	0.822949
O23	O	1.287086	-0.059669	0.822935
O24	O	0.940411	0.211141	0.822965
O25	O	1.287092	-0.059671	1.016731
O26	O	1.093291	0.211145	1.016754
O27	O	0.940417	0.211139	1.016761
O28	O	1.287092	0.059754	1.016737
O29	O	0.940426	-0.211089	1.363403
O30	O	1.093280	0.211149	0.670089
O31	O	1.287082	0.211157	0.670080
O32	O	1.287081	0.059759	0.670072
O33	O	0.746625	-0.059698	1.363420
O34	O	0.940426	-0.059690	1.363412
O35	O	1.073894	0.133723	0.902666
O36	O	1.187982	0.044602	0.902656
O37	O	1.073900	-0.044532	1.130826
O38	O	0.959812	0.044590	1.130836
C39	C	0.711876	0.000018	1.016760
C40	C	0.608369	0.000013	1.016764
C41	C	1.016844	0.000034	0.711778
C42	C	1.016841	0.000035	0.608274
C43	C	1.016854	0.238280	1.016759
C44	C	1.016854	0.319140	1.016763
C45	C	0.485578	-0.048579	1.141173
C46	C	0.454741	-0.083792	1.078977
C47	C	0.454783	0.035220	1.078955
C48	C	0.578895	-0.035249	0.954569
C49	C	0.578935	0.083809	0.954564
C50	C	0.548171	0.048617	0.892277
C51	C	1.321830	0.000043	1.016732
C52	C	1.425337	0.000047	1.016728
C53	C	1.016852	-0.238219	1.016733
C54	C	1.016852	-0.319079	1.016729
C55	C	1.016855	0.615254	1.016724
C56	C	1.016858	0.532868	1.016729
C57	C	1.016856	0.467200	1.016743
C58	C	1.016856	0.384808	1.016749
C59	C	0.954639	0.048631	0.547687
C60	C	0.909556	-0.035178	0.561941
C61	C	1.061896	0.083819	0.409625
C62	C	0.971695	-0.083824	0.623955
C63	C	1.124095	0.035234	0.471575
C64	C	1.079039	-0.048625	0.485875
C65	C	1.016862	0.000027	1.321714
C66	C	1.016865	0.000025	1.425218
C67	C	1.321821	0.000047	0.711764
C68	C	1.425325	0.000052	0.608256
C69	C	1.016845	0.238283	0.711791
C70	C	1.016842	0.319144	0.608292
C71	C	1.321822	0.238296	0.711777
C72	C	1.425325	0.319161	0.608273
C73	C	0.711884	-0.238236	1.321715
C74	C	0.608381	-0.319101	1.425219
C75	C	0.711885	0.000014	1.321728
C76	C	0.608381	0.000008	1.425236
C77	C	1.016862	-0.238223	1.321701
C78	C	1.016864	-0.319084	1.425200
C79	C	1.076393	0.403651	0.559687
C80	C	1.076386	0.479636	0.462453
C81	C	1.016834	0.471112	0.413817
C82	C	0.957275	0.386596	0.462431
C83	C	0.957276	0.310614	0.559671
C84	C	1.533495	0.310616	0.559662
C85	C	1.630757	0.386590	0.462423
C86	C	1.619847	0.471109	0.413790
C87	C	1.511666	0.479652	0.462411
C88	C	1.414407	0.403679	0.559655
C89	C	0.500211	-0.310556	1.473842
C90	C	0.402949	-0.386530	1.571112
C91	C	0.413859	-0.471048	1.619749
C92	C	0.522040	-0.479592	1.571122
C93	C	0.619299	-0.403619	1.473861
C94	C	1.076429	-0.310532	1.473805
C95	C	1.076454	-0.386502	1.571040
C96	C	1.016907	-0.471023	1.619676
C97	C	0.957341	-0.479574	1.571062
C98	C	0.957323	-0.403605	1.473822
C99	C	1.548118	0.048627	0.547697
C100	C	1.578975	0.083827	0.409590
C101	C	1.578885	-0.035187	0.561988
C102	C	1.454818	0.035301	0.471448
C103	C	1.454732	-0.083760	0.623920
C104	C	1.485516	-0.048581	0.485822
H105	H	0.460137	-0.089734	1.246372
H106	H	0.573825	0.089714	0.786993
H107	H	1.131640	-0.089782	0.458928
H108	H	0.632448	0.154646	0.902032
H109	H	0.314873	-0.379556	1.610688
H110	H	1.401479	0.065151	0.434035
N111	N	0.314492	-0.548639	1.719082
N112	N	0.244497	-0.561761	1.697351
H113	H	0.174313	-0.616556	1.767501
H114	H	1.326334	0.410649	0.599222
H115	H	1.124890	0.548444	0.422883
H116	H	0.908814	-0.410580	1.434259
H117	H	0.530909	-0.548416	1.610735
N118	N	0.729781	-0.412371	1.424211
N119	N	0.739493	-0.487843	1.467656
H120	H	0.817520	-0.494031	1.432597
N121	N	1.387573	-0.172619	0.738898
N122	N	1.420106	-0.236056	0.741336
H123	H	1.372679	-0.298816	0.822546
H124	H	1.016930	-0.532875	1.698856
H125	H	1.099990	0.154678	0.318018
H126	H	1.459858	-0.089684	0.458804
N127	N	0.896527	-0.565920	1.620761
N128	N	0.896557	-0.633735	1.707586
H129	H	0.853603	-0.694720	1.742695
N130	N	1.137265	-0.224208	1.424151
N131	N	1.190446	-0.216601	1.467568
H132	H	1.233420	-0.155636	1.432501
H133	H	1.124958	-0.379522	1.610611
N134	N	1.580044	0.100268	0.581647
N135	N	1.637722	0.180946	0.496230
H136	H	1.660270	0.217420	0.520203
N137	N	0.896452	0.377913	0.412730
N138	N	0.896476	0.445769	0.325904
H139	H	0.853526	0.439640	0.290793
H140	H	1.632361	-0.064962	0.599225
H141	H	0.401224	-0.154644	1.131554
N142	N	1.646131	0.172703	0.294640
N143	N	1.685325	0.229411	0.300867
H144	H	1.732754	0.292182	0.219690
N145	N	0.387736	0.072589	1.144931
N146	N	0.348609	0.037102	1.262919
H147	H	0.301283	0.063502	1.309514
H148	H	0.632252	-0.065092	0.902023
N149	N	1.137241	0.412387	0.609334
N150	N	1.190399	0.487854	0.565914
H151	H	1.233374	0.494032	0.600974
N152	N	1.719213	0.548700	0.314458
N153	N	1.815784	0.541048	0.271071
H154	H	1.885966	0.595844	0.200915
N155	N	1.500536	0.565990	0.412731
N156	N	1.541528	0.618770	0.423579
H157	H	1.533671	0.679749	0.388483
H158	H	0.908785	0.241807	0.599232
H159	H	0.901965	0.089665	0.574918
H160	H	0.933496	-0.154716	0.715518
N161	N	0.795778	-0.072534	0.608601
N162	N	0.723199	-0.037049	0.641997
H163	H	0.642841	-0.063426	0.674953
N164	N	1.741242	0.377834	0.412766
N165	N	1.770231	0.338197	0.358500
H166	H	1.848258	0.332009	0.323431
H167	H	1.016842	0.532989	0.334639
N168	N	1.237845	0.072598	0.424967
N169	N	1.310896	0.037923	0.389702
H170	H	1.391236	0.064318	0.356780
N171	N	1.544636	0.224282	0.609357
N172	N	1.457802	0.156447	0.696188
H173	H	1.465677	0.095474	0.731287
H174	H	0.491306	-0.241743	1.434247
