data_functionalizedCrystal
_audit_creation_method	'MofGen! by Chris Wilmer'
_symmetry_space_group_name_H-M	'P1'
_symmetry_Int_Tables_number	1
_symmetry_cell_setting	triclinic
loop_
_symmetry_equiv_pos_as_xyz
  x,y,z
_cell_length_a	15.995350
_cell_length_b	19.188930
_cell_length_c	15.072220
_cell_angle_alpha	89.993728
_cell_angle_beta	89.991149
_cell_angle_gamma	83.318578
loop_
_atom_site_label
_atom_site_type_symbol
_atom_site_fract_x
_atom_site_fract_y
_atom_site_fract_z
O1	O	1.110666	0.089991	-0.073718
O2	O	1.610666	0.589991	0.426282
O3	O	0.866850	0.101105	-0.073737
O4	O	1.366850	0.601105	0.426263
O5	O	0.995794	-0.006090	-0.073709
O6	O	1.495794	0.493910	0.426291
O7	O	0.981722	0.197186	-0.073745
O8	O	1.481722	0.697186	0.426255
O9	O	0.995763	-0.006084	0.073856
O10	O	1.495763	0.493916	0.573856
O11	O	0.866819	0.101111	0.073828
O12	O	1.366819	0.601111	0.573828
O13	O	1.110634	0.089997	0.073848
O14	O	1.610634	0.589997	0.573848
Zn15	Zn	0.988721	0.095555	0.097267
Zn16	Zn	1.488721	0.595555	0.597267
Zn17	Zn	0.988763	0.095547	-0.097156
Zn18	Zn	1.488763	0.595547	0.402844
O19	O	0.981690	0.197192	0.073820
O20	O	1.481690	0.697192	0.573820
C21	C	0.835641	0.100648	0.000043
C22	C	1.335641	0.600648	0.500043
C23	C	0.742696	0.099271	0.000037
C24	C	1.242696	0.599271	0.500037
C25	C	0.404967	0.094324	0.000056
C26	C	0.904967	0.594324	0.500056
C27	C	0.452680	0.017982	0.000398
C28	C	0.952680	0.517982	0.500398
C29	C	0.549365	0.019360	0.000059
C30	C	1.049365	0.519360	0.500059
C31	C	0.572518	0.096778	0.000047
C32	C	1.072518	0.596778	0.500047
C33	C	0.531311	0.134429	-0.084223
C34	C	1.031311	0.634429	0.415777
C35	C	0.434683	0.132511	-0.084287
C36	C	0.934683	0.632511	0.415713
C37	C	0.434302	0.134095	0.083522
C38	C	0.934302	0.634095	0.583522
C39	C	0.531247	0.134077	0.084629
C40	C	1.031247	0.634077	0.584629
C41	C	0.667211	0.098169	0.000039
C42	C	1.167211	0.598169	0.500039
C43	C	0.310274	0.092936	0.000058
C44	C	0.810274	0.592936	0.500058
C45	C	0.995323	-0.032099	0.000076
C46	C	1.495323	0.467901	0.500076
C47	C	0.993955	-0.109607	0.000083
C48	C	1.493955	0.390393	0.500083
C49	C	1.069615	-0.154338	0.000093
C50	C	1.569615	0.345662	0.500093
C51	C	1.068330	-0.227165	0.000079
C52	C	1.568330	0.272835	0.500079
C53	C	0.991380	-0.255258	0.000072
C54	C	1.491380	0.244742	0.500072
C55	C	0.915710	-0.210517	0.000057
C56	C	1.415710	0.289483	0.500057
C57	C	0.916997	-0.137691	0.000062
C58	C	1.416997	0.362309	0.500062
N59	N	0.932550	-0.363410	0.050287
N60	N	1.432550	0.136590	0.550287
N61	N	0.931333	-0.432592	0.050284
N62	N	1.431333	0.067408	0.550284
C63	C	0.987497	-0.474676	0.000054
C64	C	1.487497	0.025324	0.500054
N65	N	1.044937	-0.444966	-0.050161
N66	N	1.544937	0.055034	0.449839
N67	N	1.046158	-0.375779	-0.050154
N68	N	1.546158	0.124221	0.449846
C69	C	0.989976	-0.334224	0.000066
C70	C	1.489976	0.165776	0.500066
C71	C	1.061769	-0.598375	0.000048
C72	C	1.561769	-0.098375	0.500048
C73	C	1.060480	-0.671204	0.000028
C74	C	1.560480	-0.171204	0.500028
C75	C	0.907859	-0.654553	0.000015
C76	C	1.407859	-0.154553	0.500015
C77	C	0.909149	-0.581727	0.000025
C78	C	1.409149	-0.081727	0.500025
C79	C	0.986106	-0.553643	0.000046
C80	C	1.486106	-0.053643	0.500046
C81	C	1.141843	0.090454	0.000065
C82	C	1.641843	0.590454	0.500065
C83	C	1.234789	0.091831	0.000066
C84	C	1.734789	0.591831	0.500066
C85	C	0.982162	0.223201	0.000033
C86	C	1.482162	0.723201	0.500033
C87	C	0.983530	0.300709	0.000019
C88	C	1.483530	0.800709	0.500019
N89	N	0.988699	0.095560	0.229956
N90	N	1.488699	0.595560	0.729956
N91	N	0.988792	0.095537	-0.229845
N92	N	1.488792	0.595537	0.270155
C93	C	0.988762	0.095544	0.589157
C94	C	1.488762	0.595544	1.089157
C95	C	0.919536	0.152710	0.551535
C96	C	1.419536	0.652710	1.051535
C97	C	0.919693	0.152918	0.448710
C98	C	1.419693	0.652918	0.948710
C99	C	0.988730	0.095552	0.410953
C100	C	1.488730	0.595552	0.910953
C101	C	1.076036	0.111464	0.448248
C102	C	1.576036	0.611464	0.948248
C103	C	1.075648	0.111870	0.551106
C104	C	1.575648	0.611870	1.051106
C105	C	0.971460	0.022298	0.551269
C106	C	1.471460	0.522298	1.051269
C107	C	0.969454	0.022787	0.448405
C108	C	1.469454	0.522787	0.948405
C109	C	0.988717	0.095555	0.310240
C110	C	1.488717	0.595555	0.810240
C111	C	0.988780	0.095543	0.689871
C112	C	1.488780	0.595543	1.189871
H113	H	0.546404	0.190533	0.089710
H114	H	1.046404	0.690533	0.589710
F115	F	1.143672	-0.568483	0.000074
F116	F	1.643672	-0.068483	0.500074
H117	H	0.855384	-0.101270	0.000054
H118	H	1.355384	0.398730	0.500054
F119	F	0.392519	0.207665	0.084255
F120	F	0.892519	0.707665	0.584255
H121	H	0.577890	-0.010236	0.060468
H122	H	1.077890	0.489764	0.560468
F123	F	1.144923	0.059464	0.583636
F124	F	1.644923	0.559464	1.083636
H125	H	0.909194	0.006998	0.577257
H126	H	1.409194	0.506998	1.077257
H127	H	1.090935	0.165288	0.575079
H128	H	1.590935	0.665288	1.075079
F129	F	0.568539	0.100243	-0.166187
F130	F	1.068539	0.600243	0.333813
F131	F	0.825962	-0.684447	0.000003
F132	F	1.325962	-0.184447	0.500003
F133	F	0.834846	0.140563	0.415751
F134	F	1.334846	0.640563	0.915751
H135	H	1.132280	-0.131477	0.000107
H136	H	1.632280	0.368523	0.500107
H137	H	0.854420	0.143386	0.576294
H138	H	1.354420	0.643386	1.076294
H139	H	1.122095	-0.707624	0.000031
H140	H	1.622095	-0.207624	0.500031
F141	F	0.410899	0.096616	-0.166612
F142	F	0.910899	0.596616	0.333388
F143	F	0.933746	0.223358	0.585282
F144	F	1.433746	0.723358	1.085282
F145	F	0.828620	-0.534118	0.000018
F146	F	1.328620	-0.034118	0.500018
F147	F	0.934070	0.223971	0.416522
F148	F	1.434070	0.723971	0.916522
F149	F	1.144964	0.058490	0.416284
F150	F	1.644964	0.558490	0.916284
H151	H	1.016620	-0.021746	0.422708
H152	H	1.516620	0.478254	0.922708
H153	H	1.129943	-0.263592	0.000084
H154	H	1.629943	0.236408	0.500084
H155	H	1.091695	0.164273	0.422471
H156	H	1.591695	0.664273	0.922471
H157	H	0.905232	0.010712	0.424030
H158	H	1.405232	0.510712	0.924030
H159	H	1.021947	-0.020242	0.575598
H160	H	1.521947	0.479758	1.075598
H161	H	0.434257	-0.012531	0.060832
H162	H	0.934257	0.487469	0.560832
H163	H	0.577345	-0.010441	-0.060444
H164	H	1.077345	0.489559	0.439556
F165	F	0.427228	-0.021728	-0.078138
F166	F	0.927228	0.478272	0.421862
F167	F	0.833815	-0.240416	0.000044
F168	F	1.333815	0.259584	0.500044
F169	F	0.549521	0.208766	-0.088348
F170	F	1.049521	0.708766	0.411652
H171	H	0.402230	0.188560	-0.088121
H172	H	0.902230	0.688560	0.411879
F173	F	0.566983	0.098096	0.166115
F174	F	1.066983	0.598096	0.666115
F175	F	0.407566	0.101475	0.167011
F176	F	0.907566	0.601475	0.667011
