data_functionalizedCrystal
_audit_creation_method	'MofGen! by Chris Wilmer'
_symmetry_space_group_name_H-M	'P1'
_symmetry_Int_Tables_number	1
_symmetry_cell_setting	triclinic
loop_
_symmetry_equiv_pos_as_xyz
  x,y,z
_cell_length_a	10.967926
_cell_length_b	14.519709
_cell_length_c	10.065875
_cell_angle_alpha	98.804604
_cell_angle_beta	93.120479
_cell_angle_gamma	84.207347
loop_
_atom_site_label
_atom_site_type_symbol
_atom_site_fract_x
_atom_site_fract_y
_atom_site_fract_z
O1	O	1.613236	0.160831	0.265926
O2	O	1.263198	0.163464	0.183596
O3	O	1.447496	0.028218	0.226956
O4	O	1.428938	0.296077	0.222566
O5	O	1.412353	0.054116	0.445676
O6	O	1.228055	0.189362	0.402317
O7	O	1.578094	0.186729	0.484646
Zn8	Zn	1.397495	0.192158	0.478208
Zn9	Zn	1.443797	0.158036	0.190034
O10	O	1.393795	0.321975	0.441287
C11	C	1.200829	0.174265	0.282420
C12	C	1.067344	0.167852	0.251025
C13	C	0.989628	0.178409	0.350331
C14	C	0.851665	0.171781	0.317885
C15	C	1.429060	0.006779	0.336113
C16	C	1.426467	-0.095688	0.335504
C17	C	1.416930	-0.470904	0.333225
C18	C	1.419578	-0.366507	0.333858
C19	C	1.421698	-0.283299	0.334366
C20	C	1.424347	-0.178896	0.334996
C21	C	1.640464	0.175928	0.385820
C22	C	1.773949	0.182340	0.417206
C23	C	1.412233	0.343414	0.332127
C24	C	1.414826	0.445880	0.332727
N25	N	1.365903	0.215444	0.674881
N26	N	1.475398	0.134742	-0.006637
C27	C	1.432798	0.166132	0.758398
C28	C	1.408494	0.184062	0.909848
H29	H	0.816069	0.157833	0.208837
H30	H	1.333220	0.239554	0.950459
H31	H	1.550662	0.079243	0.952750
O32	O	1.276194	0.281640	0.723558
C33	C	1.170092	0.359798	0.918865
C34	C	1.271747	0.284818	0.863929
H35	H	1.166445	0.362378	1.032357
H36	H	1.190482	0.431022	0.895742
H37	H	1.078023	0.341456	0.869136
H38	H	1.363856	0.303072	0.913626
H39	H	1.251250	0.213615	0.887034
H40	H	1.025231	0.192349	0.459372
H41	H	1.031743	0.153905	0.141984
O42	O	0.816599	0.199009	0.547228
C43	C	0.993011	0.220713	0.698118
C44	C	0.944870	0.201856	0.550814
H45	H	1.096726	0.223001	0.701068
H46	H	0.948191	0.290643	0.748647
H47	H	0.969752	0.162382	0.753702
H48	H	0.968117	0.260128	0.495118
H49	H	0.989688	0.131895	0.500389
O50	O	1.522466	0.099819	0.709955
C51	C	1.598874	-0.063190	0.683904
C52	C	1.497225	0.011804	0.738817
H53	H	1.578516	-0.134364	0.707244
H54	H	1.602455	-0.065911	0.570379
H55	H	1.690963	-0.044793	0.733523
H56	H	1.405083	-0.006539	0.689300
H57	H	1.493752	0.014509	0.852349
