data_functionalizedCrystal
_audit_creation_method	'MofGen! by Chris Wilmer'
_symmetry_space_group_name_H-M	'P1'
_symmetry_Int_Tables_number	1
_symmetry_cell_setting	triclinic
loop_
_symmetry_equiv_pos_as_xyz
  x,y,z
_cell_length_a	19.188933
_cell_length_b	19.188930
_cell_length_c	10.268362
_cell_angle_alpha	89.989600
_cell_angle_beta	89.996830
_cell_angle_gamma	83.145175
loop_
_atom_site_label
_atom_site_type_symbol
_atom_site_fract_x
_atom_site_fract_y
_atom_site_fract_z
O1	O	0.926144	0.087175	-0.108271
O2	O	0.722833	0.098907	-0.108286
O3	O	0.830356	-0.008615	-0.108253
O4	O	0.818621	0.194697	-0.108304
O5	O	0.830346	-0.008619	0.108348
O6	O	0.722824	0.098903	0.108315
O7	O	0.926135	0.087170	0.108329
Cu8	Cu	0.824478	0.093036	0.128100
Cu9	Cu	0.824489	0.093041	-0.128056
O10	O	0.818612	0.194692	0.108296
C11	C	0.696817	0.098525	0.000013
C12	C	0.619313	0.097384	0.000009
C13	C	0.066062	0.089241	-0.118044
C14	C	0.138887	0.090309	-0.118049
C15	C	0.175299	0.090844	0.000019
C16	C	0.138883	0.090293	0.118102
C17	C	0.066061	0.089218	0.118104
N18	N	0.284315	0.132261	0.087893
N19	N	0.353492	0.133284	0.087883
C20	C	0.394707	0.094082	0.000021
N21	N	0.364130	0.053828	-0.087851
N22	N	0.294946	0.052808	-0.087845
C23	C	0.254262	0.092009	0.000030
C24	C	0.510080	0.095786	-0.118060
C25	C	0.582906	0.096850	-0.118060
C26	C	0.582899	0.096841	0.118094
C27	C	0.510075	0.095770	0.118091
C28	C	0.473669	0.095246	0.000010
C29	C	0.829971	-0.034628	0.000051
C30	C	0.828830	-0.112132	0.000063
C31	C	0.891921	-0.157056	0.000073
C32	C	0.890849	-0.229880	0.000052
C33	C	0.826683	-0.257777	0.000047
C34	C	0.763584	-0.212843	0.000029
C35	C	0.764658	-0.140021	0.000037
N36	N	0.777633	-0.365783	0.073757
N37	N	0.776617	-0.434962	0.073752
C38	C	0.823445	-0.477185	0.000020
N39	N	0.871337	-0.447618	-0.073690
N40	N	0.872355	-0.378433	-0.073680
C41	C	0.825512	-0.336739	0.000037
C42	C	0.885378	-0.601073	0.000006
C43	C	0.884304	-0.673898	-0.000023
C44	C	0.757037	-0.656860	-0.000033
C45	C	0.758113	-0.584037	-0.000017
C46	C	0.822286	-0.556148	0.000009
C47	C	0.952150	0.087553	0.000027
C48	C	1.029655	0.088694	0.000023
C49	C	0.818997	0.220705	-0.000011
C50	C	0.820137	0.298210	-0.000030
N51	N	0.824476	0.093032	0.308265
N52	N	0.824497	0.093040	-0.308222
C53	C	0.824486	0.093040	0.573936
C54	C	0.824478	0.093038	0.426098
H55	H	0.168534	0.090727	0.214234
N56	N	0.687833	-0.686948	-0.000029
H57	H	0.660199	-0.670562	0.080266
H58	H	0.660256	-0.670536	-0.080375
H59	H	0.942227	-0.266463	0.000056
H60	H	0.036418	0.088775	0.214251
N61	N	0.690066	-0.535576	-0.000002
H62	H	0.687677	-0.504971	-0.080292
H63	H	0.649292	-0.564344	0.000044
H64	H	0.713280	-0.103444	0.000029
N65	N	0.622157	0.097415	0.245448
H66	H	0.658162	0.054589	0.250721
H67	H	0.646534	0.141160	0.250633
N68	N	0.470801	0.095183	0.245435
H69	H	0.504979	0.095199	0.320231
H70	H	0.435122	0.138256	0.250963
N71	N	0.026801	0.088661	-0.245399
H72	H	-0.024857	0.087896	-0.227487
H73	H	0.033736	0.132125	-0.296968
H74	H	0.480436	0.095357	-0.214208
N75	N	0.178167	0.090898	-0.245397
H76	H	0.144054	0.090402	-0.320198
H77	H	0.202587	0.134619	-0.250536
N78	N	0.622179	0.097429	-0.245410
H79	H	0.588063	0.096933	-0.320208
H80	H	0.646606	0.141145	-0.250562
N81	N	0.961129	-0.126970	0.000069
H82	H	0.964410	-0.097142	0.080362
H83	H	1.000898	-0.166518	0.000017
H84	H	0.711340	-0.235562	0.000022
N85	N	0.954588	-0.570986	0.000029
H86	H	0.994395	-0.610499	0.000021
H87	H	0.957809	-0.541130	-0.080260
N88	N	0.952355	-0.722356	-0.000017
H89	H	0.993168	-0.693635	0.000005
H90	H	0.954672	-0.752952	0.080275
