data_functionalizedCrystal
_audit_creation_method	'MofGen! by Chris Wilmer'
_symmetry_space_group_name_H-M	'P1'
_symmetry_Int_Tables_number	1
_symmetry_cell_setting	triclinic
loop_
_symmetry_equiv_pos_as_xyz
  x,y,z
_cell_length_a	16.109318
_cell_length_b	16.109301
_cell_length_c	14.048226
_cell_angle_alpha	89.996634
_cell_angle_beta	89.995000
_cell_angle_gamma	83.465022
loop_
_atom_site_label
_atom_site_type_symbol
_atom_site_fract_x
_atom_site_fract_y
_atom_site_fract_z
O1	O	1.103128	0.106932	-0.079084
O2	O	0.861068	0.120216	-0.079104
O3	O	0.988748	-0.007457	-0.079084
O4	O	0.975449	0.234604	-0.079105
O5	O	0.988726	-0.007453	0.079237
O6	O	0.861046	0.120220	0.079217
O7	O	1.103106	0.106936	0.079237
Zn8	Zn	0.982073	0.113579	0.104364
Zn9	Zn	0.982102	0.113573	-0.104231
O10	O	0.975427	0.234609	0.079217
C11	C	0.830083	0.119677	0.000054
C12	C	0.737788	0.118057	0.000047
C13	C	0.438726	0.112819	-0.086237
C14	C	0.525448	0.114337	-0.086243
C15	C	0.525443	0.114330	0.086368
C16	C	0.438724	0.112806	0.086373
C17	C	0.395367	0.112056	0.000068
C18	C	0.568807	0.115096	0.000057
C19	C	0.662835	0.116742	0.000051
C20	C	0.301334	0.110409	0.000073
C21	C	0.988198	-0.038430	0.000077
C22	C	0.986583	-0.130725	0.000078
C23	C	1.058590	-0.352993	0.000069
C24	C	1.057066	-0.439713	0.000061
C25	C	0.905579	-0.419848	0.000053
C26	C	0.907104	-0.333130	0.000054
C27	C	0.983612	-0.299704	0.000067
C28	C	0.980563	-0.473144	0.000058
C29	C	0.978910	-0.567170	0.000049
C30	C	0.985265	-0.205672	0.000074
C31	C	1.134092	0.107474	0.000077
C32	C	1.226387	0.109095	0.000077
C33	C	0.975976	0.265581	0.000054
C34	C	0.977592	0.357877	0.000046
N35	N	0.982060	0.113582	0.246725
C36	C	1.038659	0.057058	0.703573
C37	C	1.038652	0.057064	0.603915
C38	C	0.982096	0.113576	0.554095
C39	C	0.925549	0.170093	0.603937
C40	C	0.925560	0.170091	0.703593
C41	C	0.925527	0.170091	0.396222
C42	C	0.925515	0.170092	0.296560
C43	C	1.038620	0.057064	0.296545
C44	C	1.038631	0.057062	0.396201
C45	C	0.982082	0.113578	0.446036
N46	N	0.982114	0.113569	0.753408
H47	H	0.403428	0.112207	-0.156512
O48	O	1.129879	-0.491511	-0.000104
C49	C	1.133533	-0.542273	-0.082091
H50	H	1.091016	-0.510500	-0.139403
H51	H	1.112029	-0.605331	-0.063560
C52	C	1.276224	-0.594488	-0.048875
C53	C	1.224010	-0.555460	-0.119269
H54	H	1.332035	-0.602626	-0.071806
H55	H	1.273762	-0.560291	0.006364
H56	H	1.258294	-0.647032	-0.033438
H57	H	1.241934	-0.502913	-0.134695
H58	H	1.226477	-0.589649	-0.174511
H59	H	0.843288	-0.447074	0.000044
O60	O	0.567433	0.115117	-0.170164
C61	C	0.510569	0.114105	-0.246332
H62	H	0.445304	0.139325	-0.221025
H63	H	0.510083	0.047285	-0.272870
C64	C	0.617430	0.138217	-0.358955
C65	C	0.537272	0.169200	-0.327874
H66	H	0.633904	0.172199	-0.409256
H67	H	0.655742	0.138895	-0.307640
H68	H	0.617016	0.082534	-0.381063
H69	H	0.537691	0.224877	-0.305755
H70	H	0.498961	0.168532	-0.379187
O71	O	0.834188	-0.281478	0.000094
C72	C	0.766333	-0.329573	0.000067
H73	H	0.787443	-0.394303	0.030043
H74	H	0.742891	-0.335738	-0.075890
C75	C	0.669435	-0.206840	0.025331
C76	C	0.695360	-0.286340	0.062156
H77	H	0.625653	-0.180171	0.063627
H78	H	0.715149	-0.174436	0.025346
H79	H	0.649905	-0.211989	-0.037965
H80	H	0.714899	-0.281189	0.125446
H81	H	0.649647	-0.318742	0.062153
O82	O	0.870711	0.224952	0.752153
C83	C	0.882835	0.212821	0.850794
H84	H	0.948943	0.181773	0.864390
H85	H	0.835798	0.171101	0.879090
C86	C	0.789120	0.335999	0.885258
C87	C	0.870318	0.297872	0.901956
H88	H	0.781396	0.388462	0.916819
H89	H	0.780949	0.344171	0.818802
H90	H	0.749932	0.301224	0.908838
H91	H	0.909505	0.332642	0.878366
H92	H	0.878496	0.289708	0.968410
H93	H	1.084710	0.011036	0.744130
H94	H	1.120888	-0.325781	0.000078
H95	H	0.560754	0.114943	0.156634
H96	H	1.084696	0.011049	0.563340
O97	O	1.093650	0.002137	0.444451
C98	C	1.143547	-0.047757	0.379099
H99	H	1.144466	-0.013673	0.308055
H100	H	1.116579	-0.109535	0.368515
C101	C	1.232112	-0.106712	0.505233
C102	C	1.233247	-0.064846	0.417978
H103	H	1.287442	-0.117257	0.529216
H104	H	1.198494	-0.073100	0.549263
H105	H	1.209634	-0.158188	0.496402
H106	H	1.255714	-0.013366	0.426813
H107	H	1.266871	-0.098450	0.373950
O108	O	1.093320	0.002044	0.247994
C109	C	1.081064	0.014040	0.149352
H110	H	1.050258	0.080223	0.135659
H111	H	1.039078	-0.032848	0.121298
C112	C	1.203846	-0.080210	0.114815
C113	C	1.166015	0.001080	0.097996
H114	H	1.256246	-0.088208	0.083135
H115	H	1.212102	-0.088295	0.181272
H116	H	1.168848	-0.119274	0.091437
H117	H	1.201007	0.040142	0.121386
H118	H	1.157767	0.009171	0.031542
O119	O	0.870552	0.225074	0.248310
C120	C	0.820636	0.274949	0.313662
H121	H	0.854725	0.275899	0.384694
H122	H	0.758883	0.247938	0.324275
C123	C	0.761611	0.363466	0.187518
C124	C	0.803483	0.364639	0.274758
H125	H	0.751027	0.418790	0.163519
H126	H	0.795238	0.329863	0.143487
H127	H	0.710155	0.340953	0.196374
H128	H	0.854943	0.387142	0.265899
H129	H	0.769864	0.398248	0.318786
H130	H	0.879482	0.216115	0.436795
H131	H	0.879502	0.216110	0.563367
H132	H	0.403420	0.112184	0.156657
