data_functionalizedCrystal
_audit_creation_method	'MofGen! by Chris Wilmer'
_symmetry_space_group_name_H-M	'P1'
_symmetry_Int_Tables_number	1
_symmetry_cell_setting	triclinic
loop_
_symmetry_equiv_pos_as_xyz
  x,y,z
_cell_length_a	11.169417
_cell_length_b	13.032721
_cell_length_c	11.169409
_cell_angle_alpha	97.146154
_cell_angle_beta	89.979436
_cell_angle_gamma	97.204996
loop_
_atom_site_label
_atom_site_type_symbol
_atom_site_fract_x
_atom_site_fract_y
_atom_site_fract_z
Zn1	Zn	1.774219	-0.415926	-0.739163
Zn2	Zn	1.748575	-0.590714	-0.563955
Zn3	Zn	1.573493	-0.415990	-0.538507
Zn4	Zn	1.547994	-0.590629	-0.764588
O5	O	1.661070	-0.503315	-0.651553
O6	O	1.938765	-0.439121	-0.715932
O7	O	1.725289	-0.567599	-0.392639
O8	O	1.621523	-0.269745	-0.543834
O9	O	1.919925	-0.567537	-0.587207
O10	O	1.768995	-0.269698	-0.691255
O11	O	1.596657	-0.439229	-0.373942
O12	O	1.402162	-0.439147	-0.568487
O13	O	1.578064	-0.567392	-0.929156
O14	O	1.383428	-0.567454	-0.734588
O15	O	1.744270	-0.439039	-0.910477
O16	O	1.700564	-0.736940	-0.611860
O17	O	1.553198	-0.736877	-0.759264
C18	C	1.349248	-0.503299	-0.651536
C19	C	1.215845	-0.503317	-0.651560
C20	C	1.621364	-0.774826	-0.691108
C21	C	1.604488	-0.890980	-0.708070
C22	C	1.669942	-0.942761	-0.642755
C23	C	1.652501	-1.062811	-0.660284
C24	C	1.974110	-0.503332	-0.651572
C25	C	2.107509	-0.503339	-0.651580
C26	C	1.661183	-0.503199	-0.964579
C27	C	1.661231	-0.503150	-1.097972
C28	C	1.700964	-0.230744	-0.611870
C29	C	1.717964	-0.114590	-0.594959
C30	C	1.661037	-0.503355	-0.339734
C31	C	1.661265	-0.503110	-0.206299
H32	H	1.738897	-0.898218	-0.573862
H33	H	1.786924	-1.070050	-0.526062
F34	F	1.562377	-1.121026	-0.750350
F35	F	1.514369	-0.949198	-0.798132
