data_functionalizedCrystal
_audit_creation_method	'MofGen! by Chris Wilmer'
_symmetry_space_group_name_H-M	'P1'
_symmetry_Int_Tables_number	1
_symmetry_cell_setting	triclinic
loop_
_symmetry_equiv_pos_as_xyz
  x,y,z
_cell_length_a	11.026607
_cell_length_b	11.026607
_cell_length_c	10.065875
_cell_angle_alpha	100.731764
_cell_angle_beta	79.302338
_cell_angle_gamma	108.586017
loop_
_atom_site_label
_atom_site_type_symbol
_atom_site_fract_x
_atom_site_fract_y
_atom_site_fract_z
O1	O	1.741286	0.518966	-0.113490
O2	O	1.374706	0.458202	-0.113493
O3	O	1.527614	0.305294	-0.113487
O4	O	1.588379	0.671873	-0.113496
O5	O	1.498489	0.334601	0.113501
O6	O	1.345582	0.487509	0.113495
O7	O	1.712161	0.548273	0.113497
Zn8	Zn	1.524247	0.522544	0.149535
Zn9	Zn	1.562620	0.483931	-0.149531
O10	O	1.559254	0.701180	0.113491
C11	C	1.312485	0.461645	0.000001
C12	C	1.170471	0.428228	0.000000
C13	C	1.116822	0.520498	-0.000003
C14	C	0.970043	0.485962	-0.000004
C15	C	1.501842	0.272288	0.000005
C16	C	1.468426	0.130273	0.000000
C17	C	1.560695	0.076624	-0.000001
C18	C	1.526160	-0.070155	-0.000006
C19	C	1.774384	0.544829	0.000001
C20	C	1.916399	0.578244	-0.000007
C21	C	1.585026	0.734186	-0.000004
C22	C	1.618444	0.876199	-0.000008
N23	N	1.498068	0.548898	0.353640
N24	N	1.588808	0.457569	-0.353635
C25	C	1.553502	0.493090	0.421421
C26	C	1.533366	0.513385	0.578587
H27	H	0.979125	0.682816	-0.000001
C28	C	1.673076	0.372724	0.567585
N29	N	1.736550	0.308824	0.508247
C30	C	1.085726	0.286965	0.000004
N31	N	1.021898	0.180563	0.000004
H32	H	0.907318	0.381388	-0.000036
C33	C	1.701958	0.161369	0.000010
N34	N	1.808359	0.225199	0.000023
C35	C	1.201566	0.661761	-0.000001
N36	N	1.265393	0.768164	-0.000001
H37	H	1.363864	0.067539	-0.000009
C38	C	1.637732	0.408217	0.342633
N39	N	1.701169	0.344281	0.283291
H40	H	1.421592	-0.132886	-0.000016
C41	C	1.759715	-0.039063	-0.000005
N42	N	1.866118	0.024763	-0.000001
C43	C	1.449100	0.598230	0.657370
N44	N	1.385631	0.662135	0.716712
H45	H	1.435696	0.611696	0.411964
