data_functionalizedCrystal
_audit_creation_method	'MofGen! by Chris Wilmer'
_symmetry_space_group_name_H-M	'P1'
_symmetry_Int_Tables_number	1
_symmetry_cell_setting	triclinic
loop_
_symmetry_equiv_pos_as_xyz
  x,y,z
_cell_length_a	26.374263
_cell_length_b	26.373608
_cell_length_c	26.370205
_cell_angle_alpha	60.005297
_cell_angle_beta	60.010839
_cell_angle_gamma	59.993700
loop_
_atom_site_label
_atom_site_type_symbol
_atom_site_fract_x
_atom_site_fract_y
_atom_site_fract_z
O1	O	0.070152	-0.740800	0.619517
O2	O	0.026377	-0.576764	0.499159
O3	O	0.130245	-0.680560	0.499088
O4	O	-0.033715	-0.637003	0.619589
O5	O	0.164701	-0.646107	0.533470
O6	O	0.060833	-0.542310	0.533541
O7	O	0.104608	-0.706346	0.653899
Cu8	Cu	0.085867	-0.621182	0.596859
Cu9	Cu	0.045119	-0.661927	0.556199
O10	O	0.000741	-0.602549	0.653971
N11	N	0.114528	-0.592529	0.625461
N12	N	0.016463	-0.690587	0.527598
C13	C	0.181428	-0.355400	0.692330
C14	C	0.181530	-0.525690	0.862573
C15	C	0.181440	-0.525667	0.692313
C16	C	0.351736	-0.525673	0.692271
C17	C	0.200174	-0.411588	0.711047
C18	C	0.200232	-0.506954	0.806384
C19	C	0.295546	-0.506943	0.711016
C20	C	0.200182	-0.506940	0.711037
C21	C	0.157567	-0.283881	0.668507
C22	C	0.157587	-0.549500	0.668479
C23	C	0.224035	-0.483107	0.734871
C24	C	0.455739	-0.507754	0.637520
C25	C	0.520749	-0.529425	0.615835
C26	C	0.520768	-0.634611	0.655947
C27	C	0.455759	-0.612939	0.677633
C28	C	0.173240	-0.251367	0.604595
C29	C	0.151546	-0.186351	0.582941
C30	C	0.098512	-0.186369	0.689113
C31	C	0.120206	-0.251385	0.710768
C32	C	0.093669	-0.533798	0.684205
C33	C	0.071992	-0.555464	0.662532
C34	C	0.178144	-0.608536	0.609422
C35	C	0.199825	-0.586869	0.631088
C36	C	0.093821	-0.533842	0.966616
C37	C	0.072187	-0.555526	1.031630
C38	C	0.178370	-0.608608	1.031591
C39	C	0.200004	-0.586926	0.966576
C40	C	0.157728	-0.549541	0.934090
C41	C	0.423247	-0.549509	0.668416
C42	C	-0.097522	-0.709158	0.508557
C43	C	-0.002050	-0.709295	0.413344
C44	C	-0.002241	-0.804604	0.508735
C45	C	-0.002225	-0.709288	0.508793
C46	C	-0.026009	-0.733087	0.484858
N47	N	0.552340	-0.592538	0.625346
O48	O	0.750867	-0.598274	0.477076
O49	O	0.751048	-0.718989	0.640960
O50	O	0.750981	-0.718715	0.537020
O51	O	0.750934	-0.598547	0.581017
O52	O	0.647701	-0.684348	0.571512
O53	O	0.647768	-0.684622	0.675452
O54	O	0.647587	-0.563907	0.511569
Cu55	Cu	0.638247	-0.621127	0.596660
Cu56	Cu	0.760388	-0.661769	0.555869
O57	O	0.647654	-0.564181	0.615509
N58	N	0.846295	-0.690358	0.527176
N59	N	0.114503	-0.154778	0.625499
O60	O	-0.033701	0.043855	0.619632
O61	O	0.130190	0.043858	0.498933
O62	O	0.026233	0.043841	0.499224
O63	O	0.070257	0.043872	0.619341
O64	O	0.060690	-0.059448	0.533654
O65	O	0.164647	-0.059431	0.533363
O66	O	0.000756	-0.059434	0.654062
Cu67	Cu	0.085848	-0.068863	0.596857
Cu68	Cu	0.045099	0.053287	0.556138
O69	O	0.104714	-0.059417	0.653771
N70	N	0.016435	0.139202	0.527497
N71	N	0.114760	-0.592585	1.063190
O72	O	0.108896	-0.740779	1.261808
O73	O	-0.011787	-0.576838	1.261822
O74	O	-0.011509	-0.680779	1.261780
O75	O	0.108618	-0.636838	1.261850
O76	O	0.022916	-0.646341	1.158496
O77	O	0.022638	-0.542399	1.158538
O78	O	0.143321	-0.706341	1.158524
Cu79	Cu	0.086123	-0.621225	1.149100
Cu80	Cu	0.045411	-0.661953	1.271246
O81	O	0.143044	-0.602399	1.158566
N82	N	0.016774	-0.690600	1.357156
C83	C	0.039504	-0.538867	0.499769
C84	C	0.168130	-0.667407	0.499680
C85	C	0.091482	-0.744243	0.653289
C86	C	-0.037145	-0.615703	0.653378
C87	C	0.699429	-0.718429	0.678853
C88	C	0.699348	-0.718091	0.550135
C89	C	0.699202	-0.564465	0.473677
C90	C	0.699287	-0.564805	0.602393
C91	C	0.168023	-0.007659	0.499484
C92	C	0.039327	-0.007807	0.499887
C93	C	-0.037119	-0.007789	0.653468
C94	C	0.091620	-0.007770	0.653109
C95	C	-0.011194	-0.538964	1.210181
C96	C	-0.010843	-0.667676	1.210109
C97	C	0.142729	-0.744214	1.210165
C98	C	0.142386	-0.615494	1.210214
H99	H	0.020147	-0.542732	1.058106
H100	H	0.699474	-0.756325	0.725922
O101	O	0.552420	-0.696222	0.664931
C102	C	0.590037	-0.718756	0.700290
H103	H	0.599774	-0.678622	0.695196
H104	H	0.635752	-0.754713	0.683026
H105	H	0.565005	-0.741154	0.751238
O106	O	0.224005	-0.007239	0.454084
C107	C	0.215508	0.046371	0.401927
H108	H	0.165930	0.064004	0.402770
H109	H	0.249496	0.034564	0.357698
H110	H	0.224225	0.083895	0.403135
H111	H	0.699366	-0.755841	0.540718
O112	O	0.699300	-0.519709	0.613508
C113	C	0.699218	-0.466101	0.560199
H114	H	0.718747	-0.479652	0.517496
H115	H	0.729191	-0.442953	0.554749
H116	H	0.649652	-0.432347	0.565245
H117	H	0.180125	-0.606093	1.210228
O118	O	0.028001	-0.007862	0.454950
C119	C	-0.033045	-0.007860	0.477572
H120	H	-0.049374	-0.027392	0.530471
H121	H	-0.033939	-0.037874	0.458689
H122	H	-0.065186	0.041685	0.461851
H123	H	0.699142	-0.526565	0.426612
O124	O	-0.093349	-0.604519	0.698466
C125	C	-0.131941	-0.543500	0.676006
H126	H	-0.102032	-0.514013	0.636124
H127	H	-0.161692	-0.522703	0.714976
H128	H	-0.163303	-0.544442	0.658757
O129	O	-0.093317	-0.007750	0.698596
C130	C	-0.131973	-0.007772	0.676254
H131	H	-0.115164	0.011766	0.623355
H132	H	-0.181715	0.022226	0.695285
H133	H	-0.130297	-0.057325	0.692056
O134	O	0.028466	-0.482681	0.454609
C135	C	0.081822	-0.482545	0.401057
H136	H	0.124482	-0.519276	0.414687
H137	H	0.087314	-0.434891	0.377870
H138	H	0.076814	-0.493357	0.367308
O139	O	0.102974	-0.007799	0.698074
C140	C	0.164014	-0.007782	0.675445
H141	H	0.193381	-0.027332	0.635576
H142	H	0.184927	-0.037774	0.714334
H143	H	0.163094	0.041770	0.658126
O144	O	-0.056339	-0.482769	1.210211
C145	C	-0.033981	-0.444125	1.210219
H146	H	0.005881	-0.473994	1.229783
H147	H	-0.073009	-0.414368	1.240208
H148	H	-0.016738	-0.412763	1.160674
H149	H	-0.048566	-0.677061	1.210046
O150	O	0.187990	-0.800336	1.210051
C151	C	0.240321	-0.792154	1.156579
H152	H	0.225355	-0.746676	1.119193
H153	H	0.262555	-0.832439	1.138611
H154	H	0.275368	-0.790733	1.168693
O155	O	0.052667	-0.497551	0.935159
C156	C	-0.008377	-0.488331	0.977811
H157	H	-0.008233	-0.527534	1.024146
H158	H	-0.039260	-0.487984	0.959039
H159	H	-0.027002	-0.442020	0.984737
H160	H	0.212798	-0.639038	1.058038
H161	H	0.252044	-0.599714	0.940097
O162	O	0.224306	-0.678581	0.454553
C163	C	0.235403	-0.728829	0.440202
H164	H	0.206378	-0.758662	0.481265
H165	H	0.286741	-0.758082	0.430133
H166	H	0.222066	-0.710376	0.397602
H167	H	0.019945	-0.542665	0.675322
O168	O	0.052556	-0.497478	0.720493
C169	C	-0.008508	-0.488274	0.729730
H170	H	-0.008410	-0.495532	0.690535
H171	H	-0.039377	-0.438966	0.730081
H172	H	-0.027113	-0.522881	0.776042
H173	H	0.429307	-0.646943	0.702793
O174	O	0.219262	-0.644812	0.573087
C175	C	0.280326	-0.654040	0.563873
H176	H	0.280212	-0.614847	0.571142
H177	H	0.311170	-0.654374	0.514561
H178	H	0.298973	-0.700359	0.598466
H179	H	0.547206	-0.495421	0.590679
O180	O	0.261895	-0.602041	0.615852
C181	C	0.271974	-0.574918	0.643009
H182	H	0.229311	-0.533186	0.652828
H183	H	0.314097	-0.559144	0.609807
H184	H	0.280666	-0.610493	0.688351
O185	O	0.424222	-0.446112	0.628461
C186	C	0.440070	-0.412569	0.564271
H187	H	0.487267	-0.440978	0.538665
H188	H	0.442292	-0.366738	0.555682
H189	H	0.403468	-0.402867	0.546559
O190	O	0.209502	-0.282835	0.563458
C191	C	0.218690	-0.240193	0.502402
H192	H	0.179486	-0.193852	0.502533
H193	H	0.219014	-0.258974	0.471539
H194	H	0.264998	-0.233273	0.483761
H195	H	0.164306	-0.159876	0.530897
H196	H	0.068098	-0.159910	0.723527
H197	H	0.100832	-0.791364	0.691090
O198	O	0.104946	-0.282872	0.772873
C199	C	0.067303	-0.240245	0.805526
H200	H	0.075582	-0.193896	0.774522
H201	H	0.079507	-0.259034	0.848907
H202	H	0.016381	-0.233334	0.819553
