data_functionalizedCrystal
_audit_creation_method	'MofGen! by Chris Wilmer'
_symmetry_space_group_name_H-M	'P1'
_symmetry_Int_Tables_number	1
_symmetry_cell_setting	triclinic
loop_
_symmetry_equiv_pos_as_xyz
  x,y,z
_cell_length_a	14.971486
_cell_length_b	10.654550
_cell_length_c	13.448316
_cell_angle_alpha	89.994587
_cell_angle_beta	89.998199
_cell_angle_gamma	84.049516
loop_
_atom_site_label
_atom_site_type_symbol
_atom_site_fract_x
_atom_site_fract_y
_atom_site_fract_z
O1	O	1.187838	0.163659	-0.082575
O2	O	0.927544	0.183258	-0.082602
O3	O	1.063676	-0.009345	-0.082584
O4	O	1.051707	0.356262	-0.082593
O5	O	1.063659	-0.009357	0.082800
O6	O	0.927527	0.183246	0.082782
O7	O	1.187821	0.163647	0.082809
Cu8	Cu	1.057672	0.173445	0.097896
Cu9	Cu	1.057693	0.173460	-0.097689
O10	O	1.051689	0.356250	0.082791
C11	C	0.894206	0.182375	0.000087
C12	C	0.794895	0.179749	0.000077
C13	C	1.062788	-0.056139	0.000107
C14	C	1.060159	-0.195555	0.000103
C15	C	0.738285	0.292898	0.000075
C16	C	0.644972	0.290422	0.000090
C17	C	0.608271	0.174797	0.000099
C18	C	0.664888	0.061639	0.000104
C19	C	0.758199	0.064116	0.000096
C20	C	0.470397	0.056485	0.000117
C21	C	0.377080	0.054007	0.000123
C22	C	0.357171	0.282791	0.000112
C23	C	0.450482	0.285268	0.000104
C24	C	0.507092	0.172110	0.000106
C25	C	1.140311	-0.275900	0.000114
C26	C	1.137835	-0.406894	0.000107
C27	C	0.975048	-0.377185	0.000081
C28	C	0.977525	-0.246193	0.000082
C29	C	1.234295	-0.293054	0.000133
C30	C	1.231819	-0.424048	0.000126
C31	C	1.221159	0.164530	0.000118
C32	C	1.320470	0.167156	0.000122
C33	C	1.052577	0.403044	0.000098
C34	C	1.055206	0.542460	0.000096
N35	N	1.057664	0.173435	0.235461
N36	N	1.057708	0.173460	-0.235253
C37	C	1.117962	0.088185	0.287509
C38	C	1.117968	0.088184	0.391612
C39	C	1.057679	0.173440	0.443665
C40	C	0.997375	0.258693	0.391610
C41	C	0.997365	0.258687	0.287509
C42	C	0.997400	0.258702	0.608590
C43	C	0.997410	0.258710	0.712698
C44	C	1.118002	0.088199	0.712694
C45	C	1.117993	0.088193	0.608592
C46	C	1.057689	0.173448	0.556544
H47	H	0.768160	0.387053	0.000067
H48	H	1.264215	-0.257753	0.071546
C49	C	1.239525	0.061244	0.508678
C50	C	1.184250	-0.005514	0.448833
H51	H	1.280442	0.003394	0.544009
H52	H	1.272014	0.113583	0.468056
H53	H	1.203605	0.112014	0.554567
H54	H	1.220171	-0.056277	0.402939
H55	H	1.151759	-0.057874	0.489458
H56	H	0.912257	-0.180779	0.000059
C57	C	1.311537	-0.361224	-0.149959
C58	C	1.283920	-0.253932	-0.093291
H59	H	1.342166	-0.337067	-0.207637
H60	H	1.350675	-0.417910	-0.111503
H61	H	1.260495	-0.401446	-0.169184
H62	H	1.334963	-0.213715	-0.074061
H63	H	1.244780	-0.197225	-0.131755
H64	H	0.907770	-0.418431	0.000063
H65	H	1.260230	-0.469991	-0.071279
C66	C	0.242877	-0.051359	0.000147
C67	C	0.336734	-0.073088	0.000146
H68	H	0.217971	-0.129824	0.000157
H69	H	0.223504	-0.004761	0.057809
H70	H	0.223504	-0.004770	-0.057537
H71	H	0.356107	-0.119668	0.057834
H72	H	0.356115	-0.119705	-0.057522
H73	H	1.267223	-0.466193	0.069341
H74	H	1.167103	0.018781	0.755077
C75	C	1.237156	-0.080365	0.297971
C76	C	1.184233	-0.005534	0.230297
H77	H	1.278064	-0.138231	0.262651
H78	H	1.269654	-0.028012	0.338560
H79	H	1.199638	-0.125616	0.338588
H80	H	1.221750	0.039725	0.189685
H81	H	1.151733	-0.057893	0.189691
C82	C	0.878177	0.427211	0.702253
C83	C	0.931123	0.352399	0.769918
H84	H	0.837248	0.485041	0.737580
H85	H	0.915671	0.472494	0.661646
H86	H	0.845695	0.374834	0.661653
H87	H	0.963611	0.404776	0.810513
H88	H	0.893625	0.307113	0.810542
H89	H	1.167089	0.018778	0.566211
C90	C	0.528489	0.420368	0.085102
C91	C	0.582744	0.414797	0.000080
H92	H	0.490075	0.497158	0.085095
H93	H	0.493283	0.351158	0.085108
H94	H	0.565316	0.416586	0.142765
H95	H	0.545916	0.418569	-0.057584
H96	H	0.617953	0.484025	0.000065
H97	H	0.948291	0.328122	0.566216
H98	H	0.480361	0.379420	0.000087
C99	C	0.240682	0.412738	-0.084899
C100	C	0.294949	0.407180	0.000111
H101	H	0.202265	0.489525	-0.084899
H102	H	0.277495	0.408949	-0.142565
H103	H	0.205473	0.343519	-0.084876
H104	H	0.330164	0.476395	0.000084
H105	H	0.258132	0.410982	0.057791
H106	H	0.948282	0.328106	0.433998
C107	C	0.878175	0.427241	0.297963
C108	C	0.931088	0.352402	0.230293
H109	H	0.837260	0.485100	0.262639
H110	H	0.845685	0.374893	0.338575
H111	H	0.915698	0.472501	0.338557
H112	H	0.893566	0.307134	0.189704
H113	H	0.963581	0.404757	0.189664
C114	C	0.586886	-0.073440	-0.084904
C115	C	0.532630	-0.067896	0.000117
H116	H	0.625310	-0.150222	-0.084903
H117	H	0.550067	-0.069653	-0.142562
H118	H	0.622090	-0.004214	-0.084897
H119	H	0.497421	-0.137117	0.000106
H120	H	0.569454	-0.071696	0.057790
C121	C	0.768511	-0.162274	0.000091
C122	C	0.820428	-0.060261	0.000088
H123	H	0.806930	-0.239060	0.000082
H124	H	0.731708	-0.158489	0.057763
H125	H	0.731697	-0.158466	-0.057583
H126	H	0.857238	-0.064063	0.057766
H127	H	0.857247	-0.064048	-0.057591
H128	H	0.634998	-0.032505	0.000125
