data_functionalizedCrystal
_audit_creation_method	'MofGen! by Chris Wilmer'
_symmetry_space_group_name_H-M	'P1'
_symmetry_Int_Tables_number	1
_symmetry_cell_setting	triclinic
loop_
_symmetry_equiv_pos_as_xyz
  x,y,z
_cell_length_a	21.295417
_cell_length_b	19.077105
_cell_length_c	19.077569
_cell_angle_alpha	94.700723
_cell_angle_beta	87.671964
_cell_angle_gamma	92.273328
loop_
_atom_site_label
_atom_site_type_symbol
_atom_site_fract_x
_atom_site_fract_y
_atom_site_fract_z
Zn1	Zn	-0.274113	-1.093683	-0.441824
Zn2	Zn	0.225887	-0.593683	0.058176
Zn3	Zn	-0.383444	-1.088852	-0.323923
Zn4	Zn	0.116556	-0.588852	0.176077
Zn5	Zn	-0.274122	-0.971065	-0.319219
Zn6	Zn	0.225878	-0.471065	0.180781
Zn7	Zn	-0.375276	-0.975750	-0.437044
Zn8	Zn	0.124724	-0.475750	0.062956
O9	O	-0.326739	-1.032338	-0.380503
O10	O	0.173261	-0.532338	0.119497
O11	O	-0.292031	-1.191692	-0.430153
O12	O	0.207969	-0.691692	0.069847
O13	O	-0.372365	-1.069246	-0.224648
O14	O	0.127635	-0.569246	0.275352
O15	O	-0.186033	-0.987392	-0.335515
O16	O	0.313967	-0.487392	0.164485
O17	O	-0.372356	-1.188143	-0.343532
O18	O	0.127644	-0.688143	0.156468
O19	O	-0.186026	-1.077479	-0.425592
O20	O	0.313974	-0.577479	0.074408
O21	O	-0.292046	-0.982708	-0.221192
O22	O	0.207954	-0.482708	0.278808
O23	O	-0.284126	-0.873037	-0.330880
O24	O	0.215874	-0.373037	0.169120
O25	O	-0.358434	-0.995376	-0.536330
O26	O	0.141566	-0.495376	-0.036330
O27	O	-0.358443	-0.876479	-0.417445
O28	O	0.141557	-0.376479	0.082555
O29	O	-0.284110	-1.082021	-0.539842
O30	O	0.215890	-0.582021	-0.039842
O31	O	-0.470449	-1.073788	-0.338897
O32	O	0.029551	-0.573788	0.161103
O33	O	-0.464448	-0.990692	-0.422007
O34	O	0.035552	-0.490692	0.077993
C35	C	-0.320399	-0.849179	-0.373134
C36	C	0.179601	-0.349179	0.126866
C37	C	-0.317702	-0.770824	-0.369998
C38	C	0.182298	-0.270824	0.130002
C39	C	-0.490289	-1.032244	-0.380460
C40	C	0.009711	-0.532244	0.119540
C41	C	-0.560257	-1.032269	-0.380468
C42	C	-0.060257	-0.532269	0.119532
C43	C	-0.333104	-1.216212	-0.387901
C44	C	0.166896	-0.716212	0.112099
C45	C	-0.335816	-1.294568	-0.391053
C46	C	0.164184	-0.794568	0.108947
C47	C	-0.596228	-1.075579	-0.337241
C48	C	-0.096228	-0.575579	0.162759
C49	C	-0.661971	-1.075613	-0.337258
C50	C	-0.161971	-0.575613	0.162742
C51	C	-0.691741	-1.032323	-0.380494
C52	C	-0.191741	-0.532323	0.119506
C53	C	-0.655762	-0.989011	-0.423730
C54	C	-0.155762	-0.489011	0.076270
C55	C	-0.590020	-0.988983	-0.423717
C56	C	-0.090020	-0.488983	0.076283
N57	N	-0.792691	-0.970870	-0.383387
N58	N	-0.292691	-0.470870	0.116613
N59	N	-0.855143	-0.970898	-0.383396
N60	N	-0.355143	-0.470898	0.116604
C61	C	-0.889817	-1.032404	-0.380538
C62	C	-0.389817	-0.532404	0.119462
N63	N	-0.859680	-1.093882	-0.377657
N64	N	-0.359680	-0.593882	0.122343
N65	N	-0.797222	-1.093854	-0.377645
N66	N	-0.297222	-0.593854	0.122355
C67	C	-0.763026	-1.032349	-0.380514
C68	C	-0.263026	-0.532349	0.119486
C69	C	-0.997074	-1.075754	-0.337327
C70	C	-0.497074	-0.575754	0.162673
C71	C	-1.062818	-1.075789	-0.337349
C72	C	-0.562818	-0.575789	0.162651
C73	C	-1.056608	-0.989181	-0.423817
C74	C	-0.556608	-0.489181	0.076183
C75	C	-0.990865	-0.989152	-0.423799
C76	C	-0.490865	-0.489152	0.076201
C77	C	-0.961102	-1.032438	-0.380550
C78	C	-0.461102	-0.532438	0.119450
C79	C	-0.162551	-1.032452	-0.380562
C80	C	0.337449	-0.532452	0.119438
C81	C	-0.092583	-1.032501	-0.380587
C82	C	0.407417	-0.532501	0.119413
C83	C	-0.320360	-1.039760	-0.564380
C84	C	0.179640	-0.539760	-0.064380
C85	C	-0.317642	-1.042923	-0.642738
C86	C	0.182358	-0.542923	-0.142738
C87	C	-0.355191	-0.735820	-0.413524
C88	C	0.144809	-0.235820	0.086476
C89	C	-0.352648	-0.662196	-0.410581
C90	C	0.147352	-0.162196	0.089419
C91	C	-0.312619	-0.623579	-0.364108
C92	C	0.187381	-0.123579	0.135892
C93	C	-0.275126	-0.658588	-0.320581
C94	C	0.224874	-0.158588	0.179419
C95	C	-0.277666	-0.732210	-0.323528
C96	C	0.222334	-0.232210	0.176472
C97	C	-0.300863	-0.403199	-0.350473
C98	C	0.199137	0.096801	0.149527
C99	C	-0.298327	-0.329572	-0.347527
C100	C	0.201673	0.170428	0.152473
C101	C	-0.375848	-0.333186	-0.437529
C102	C	0.124152	0.166814	0.062471
C103	C	-0.378388	-0.406809	-0.440469
C104	C	0.121612	0.093191	0.059531
C105	C	-0.340892	-0.441812	-0.396944
C106	C	0.159108	0.058188	0.103056
N107	N	-0.310020	-0.548324	-0.361097
N108	N	0.189980	-0.048324	0.138903
N109	N	-0.343488	-0.517065	-0.399959
N110	N	0.156512	-0.017065	0.100041
C111	C	-0.355058	-0.999299	-0.677723
C112	C	0.144942	-0.499299	-0.177723
C113	C	-0.352504	-1.002276	-0.751349
C114	C	0.147496	-0.502276	-0.251349
C115	C	-0.312530	-1.048876	-0.789987
C116	C	0.187470	-0.548876	-0.289987
C117	C	-0.275113	-1.092505	-0.754997
C118	C	0.224887	-0.592505	-0.254997
C119	C	-0.277670	-1.089530	-0.681373
C120	C	0.222330	-0.589530	-0.181373
C121	C	-0.300735	-1.062613	-1.010376
C122	C	0.199265	-0.562613	-0.510376
C123	C	-0.298178	-1.065583	-1.084005
C124	C	0.201822	-0.565583	-0.584005
C125	C	-0.375571	-0.975355	-1.080352
C126	C	0.124429	-0.475355	-0.580352
C127	C	-0.378122	-0.972381	-1.006726
C128	C	0.121878	-0.472381	-0.506726
C129	C	-0.340707	-1.016013	-0.971742
C130	C	0.159293	-0.516013	-0.471742
N131	N	-0.309917	-1.051919	-0.865245
N132	N	0.190083	-0.551919	-0.365245
N133	N	-0.343324	-1.012973	-0.896487
N134	N	0.156676	-0.512973	-0.396487
C135	C	-0.333049	-1.024985	-0.197342
C136	C	0.166951	-0.524985	0.302658
C137	C	-0.335595	-1.021958	-0.118991
C138	C	0.164405	-0.521958	0.381009
H139	H	-0.571997	-1.110826	-0.302027
H140	H	-0.071997	-0.610826	0.197973
N141	N	-0.421210	-0.922092	-0.965052
N142	N	0.078790	-0.422092	-0.465052
H143	H	-0.444519	-0.894898	-0.998387
H144	H	0.055481	-0.394898	-0.498387
H145	H	-0.452404	-0.949504	-0.935631
H146	H	0.047596	-0.449504	-0.435631
N147	N	-0.255170	-0.287908	-0.297387
N148	N	0.244830	0.212092	0.202613
H149	H	-0.223993	-0.258526	-0.324862
H150	H	0.276007	0.241474	0.175138
H151	H	-0.280859	-0.256076	-0.263464
H152	H	0.219141	0.243924	0.236536
H153	H	-0.270337	-0.431689	-0.315026
H154	H	0.229663	0.068311	0.184974
H155	H	-0.383176	-0.633700	-0.446024
H156	H	0.116824	-0.133700	0.053976
H157	H	-0.242568	-1.130450	-0.786463
H158	H	0.257432	-0.630450	-0.286463
N159	N	-1.101621	-1.122504	-0.290726
N160	N	-0.601621	-0.622504	0.209274
H161	H	-1.091492	-1.173304	-0.303733
H162	H	-0.591492	-0.673304	0.196267
H163	H	-1.091567	-1.109493	-0.239923
H164	H	-0.591567	-0.609493	0.260077
N165	N	-0.415917	-0.928289	-1.118083
N166	N	0.084083	-0.428289	-0.618083
H167	H	-0.408230	-0.937240	-1.170586
H168	H	0.091770	-0.437240	-0.670586
H169	H	-0.461703	-0.938702	-1.105645
H170	H	0.038297	-0.438702	-0.605645
H171	H	-0.410985	-0.438246	-0.478311
H172	H	0.089015	0.061754	0.021689
H173	H	-0.265621	-1.103527	-1.115463
H174	H	0.234379	-0.603527	-0.615463
N175	N	-0.398364	-0.777470	-0.463649
N176	N	0.101636	-0.277470	0.036351
H177	H	-0.429546	-0.806834	-0.436160
H178	H	0.070454	-0.306834	0.063840
H179	H	-0.421683	-0.744077	-0.490765
H180	H	0.078317	-0.244077	0.009235
N181	N	-0.416287	-0.295433	-0.484472
N182	N	0.083713	0.204567	0.015528
H183	H	-0.408606	-0.242934	-0.475555
H184	H	0.091394	0.257066	0.024445
H185	H	-0.405257	-0.310352	-0.535356
H186	H	0.094743	0.189648	-0.035356
N187	N	-1.088703	-0.942483	-0.470450
N188	N	-0.588703	-0.442483	0.029550
H189	H	-1.075860	-0.955418	-0.521265
H190	H	-0.575860	-0.455418	-0.021265
H191	H	-1.135801	-0.949089	-0.463843
H192	H	-0.635801	-0.449089	0.036157
N193	N	-0.231963	-0.616939	-0.270442
N194	N	0.268037	-0.116939	0.229558
H195	H	-0.236049	-0.564988	-0.275172
H196	H	0.263951	-0.064988	0.224828
H197	H	-0.243897	-0.627771	-0.220595
H198	H	0.256103	-0.127771	0.279405
H199	H	-0.247135	-0.760709	-0.288088
H200	H	0.252865	-0.260709	0.211912
N201	N	-0.398165	-0.949028	-0.636051
N202	N	0.101835	-0.449028	-0.136051
H203	H	-0.421479	-0.921844	-0.669389
H204	H	0.078521	-0.421844	-0.169389
H205	H	-0.429352	-0.976463	-0.606644
H206	H	0.070648	-0.476463	-0.106644
H207	H	-0.382973	-0.966753	-0.779830
H208	H	0.117027	-0.466753	-0.279830
H209	H	-0.961576	-0.953882	-0.458996
H210	H	-0.461576	-0.453882	0.041004
N211	N	-0.260381	-1.109670	-0.972649
N212	N	0.239619	-0.609670	-0.472649
H213	H	-0.234669	-1.139639	-1.008300
H214	H	0.265331	-0.639639	-0.508300
H215	H	-0.231317	-1.079763	-0.940955
H216	H	0.268683	-0.579763	-0.440955
N217	N	-0.237321	-1.136586	-0.643633
N218	N	0.262679	-0.636586	-0.143633
H219	H	-0.191517	-1.126193	-0.656011
H220	H	0.308483	-0.626193	-0.156011
H221	H	-0.245065	-1.127608	-0.591143
H222	H	0.254935	-0.627608	-0.091143
N223	N	-0.700779	-1.122328	-0.290634
N224	N	-0.200779	-0.622328	0.209366
H225	H	-0.671948	-1.149745	-0.263235
H226	H	-0.171948	-0.649745	0.236765
H227	H	-0.728233	-1.092347	-0.256842
H228	H	-0.228233	-0.592347	0.243158
H229	H	-0.680005	-0.953766	-0.458935
H230	H	-0.180005	-0.453766	0.041065
H231	H	-0.972840	-1.111002	-0.302113
H232	H	-0.472840	-0.611002	0.197887
N233	N	-0.551219	-0.942268	-0.470341
N234	N	-0.051219	-0.442268	0.029659
H235	H	-0.580051	-0.914849	-0.497736
H236	H	-0.080051	-0.414849	0.002264
H237	H	-0.523853	-0.908496	-0.440298
H238	H	-0.023853	-0.408496	0.059702
