data_functionalizedCrystal
_audit_creation_method	'MofGen! by Chris Wilmer'
_symmetry_space_group_name_H-M	'P1'
_symmetry_Int_Tables_number	1
_symmetry_cell_setting	triclinic
loop_
_symmetry_equiv_pos_as_xyz
  x,y,z
_cell_length_a	11.792254
_cell_length_b	10.723022
_cell_length_c	9.798715
_cell_angle_alpha	89.998022
_cell_angle_beta	89.996361
_cell_angle_gamma	84.332912
loop_
_atom_site_label
_atom_site_type_symbol
_atom_site_fract_x
_atom_site_fract_y
_atom_site_fract_z
O1	O	1.507273	0.171111	-0.113486
O2	O	2.007273	0.671111	0.386514
O3	O	1.176972	0.188722	-0.113489
O4	O	1.676972	0.688722	0.386511
O5	O	1.349742	-0.001679	-0.113482
O6	O	1.849742	0.498321	0.386518
O7	O	1.334503	0.361513	-0.113493
O8	O	1.834503	0.861513	0.386507
O9	O	1.349729	-0.001680	0.113500
O10	O	1.849729	0.498320	0.613500
O11	O	1.176959	0.188722	0.113493
O12	O	1.676959	0.688722	0.613493
O13	O	1.507260	0.171111	0.113496
O14	O	2.007260	0.671111	0.613496
Zn15	Zn	1.342107	0.179916	0.149533
Zn16	Zn	1.842107	0.679916	0.649533
Zn17	Zn	1.342125	0.179917	-0.149526
Zn18	Zn	1.842125	0.679917	0.350474
O19	O	1.334490	0.361512	0.113490
O20	O	1.834490	0.861512	0.613490
C21	C	1.134673	0.187613	0.000002
C22	C	1.634673	0.687613	0.500002
C23	C	1.008652	0.184292	0.000001
C24	C	1.508652	0.684292	0.500001
C25	C	1.348627	-0.048176	0.000007
C26	C	1.848627	0.451824	0.500007
C27	C	1.345310	-0.186722	0.000002
C28	C	1.845310	0.313278	0.500002
C29	C	1.245680	-0.235024	-0.000001
C30	C	1.745680	0.264976	0.499999
C31	C	1.242249	-0.378218	-0.000006
C32	C	1.742249	0.121782	0.499994
C33	C	0.906310	0.181594	-0.000005
C34	C	1.406310	0.681594	0.499995
C35	C	0.777916	0.178221	-0.000006
C36	C	1.277916	0.678221	0.499994
C37	C	1.549559	0.172220	0.000002
C38	C	2.049559	0.672220	0.500002
C39	C	1.675580	0.175541	-0.000006
C40	C	2.175580	0.675541	0.499994
C41	C	1.335605	0.408009	-0.000003
C42	C	1.835605	0.908009	0.499997
C43	C	1.338922	0.546555	-0.000007
C44	C	1.838922	1.046555	0.499993
N45	N	1.342104	0.179915	0.353633
N46	N	1.842104	0.679915	0.853633
N47	N	1.342137	0.179908	-0.353625
N48	N	1.842137	0.679908	0.146375
C49	C	1.414646	0.099619	0.421412
C50	C	1.914646	0.599619	0.921412
C51	C	1.414664	0.099615	0.578575
C52	C	1.914664	0.599615	1.078575
H53	H	1.162922	-0.170367	0.000007
H54	H	1.662922	0.329633	0.500007
Cl55	Cl	1.470634	-0.389249	-0.000013
Cl56	Cl	1.970634	0.110751	0.499987
Cl57	Cl	1.110541	-0.442423	-0.000021
Cl58	Cl	1.610541	0.057577	0.499979
Cl59	Cl	1.246248	0.286060	0.556398
Cl60	Cl	1.746248	0.786060	1.056398
Cl61	Cl	1.246228	0.286045	0.443668
Cl62	Cl	1.746228	0.786045	0.943668
H63	H	1.428068	-0.251379	0.000007
H64	H	1.928068	0.248621	0.500007
H65	H	1.476734	0.030873	0.363092
H66	H	1.976734	0.530873	0.863092
Cl67	Cl	1.510561	-0.006520	0.668561
Cl68	Cl	2.010561	0.493480	1.168561
