data_functionalizedCrystal
_audit_creation_method	'MofGen! by Chris Wilmer'
_symmetry_space_group_name_H-M	'P1'
_symmetry_Int_Tables_number	1
_symmetry_cell_setting	triclinic
loop_
_symmetry_equiv_pos_as_xyz
  x,y,z
_cell_length_a	17.038272
_cell_length_b	17.019294
_cell_length_c	16.176319
_cell_angle_alpha	86.114226
_cell_angle_beta	89.998402
_cell_angle_gamma	87.244363
loop_
_atom_site_label
_atom_site_type_symbol
_atom_site_fract_x
_atom_site_fract_y
_atom_site_fract_z
O1	O	1.037224	0.171289	-0.080835
O2	O	0.809596	0.168569	-0.080666
O3	O	0.929759	0.055522	-0.072601
O4	O	0.917060	0.284336	-0.088899
O5	O	0.929743	0.055514	0.064893
O6	O	0.809579	0.168561	0.056828
O7	O	1.037207	0.171280	0.056659
Cu8	Cu	0.923392	0.169920	0.069298
Cu9	Cu	0.923411	0.169930	-0.093304
O10	O	0.917044	0.284327	0.048595
C11	C	0.780461	0.166091	-0.011746
C12	C	0.693675	0.158711	-0.011229
C13	C	0.643503	0.226471	-0.016055
C14	C	0.561958	0.219532	-0.015550
C15	C	0.530587	0.144832	-0.010224
C16	C	0.580765	0.077066	-0.005395
C17	C	0.662308	0.084006	-0.005895
C18	C	0.284850	0.120314	-0.008456
C19	C	0.203300	0.113379	-0.007959
C20	C	0.184499	0.255845	-0.018111
C21	C	0.266044	0.262779	-0.018616
C22	C	0.316215	0.195013	-0.013783
C23	C	0.447235	0.137737	-0.009710
C24	C	0.399565	0.202109	-0.014291
C25	C	0.929269	0.026096	-0.001761
C26	C	0.927824	-0.061571	0.004478
C27	C	0.927156	-0.102748	-0.067539
C28	C	0.925794	-0.185121	-0.061675
C29	C	0.925105	-0.226315	0.016207
C30	C	0.925770	-0.185132	0.088229
C31	C	0.927127	-0.102761	0.082364
C32	C	0.921001	-0.475024	0.037665
C33	C	0.919647	-0.557402	0.043525
C34	C	0.919669	-0.557385	-0.106379
C35	C	0.921030	-0.475012	-0.112237
C36	C	0.921692	-0.433836	-0.040216
C37	C	0.923714	-0.310514	0.022203
C38	C	0.923077	-0.349639	-0.046212
C39	C	1.066342	0.173759	-0.012263
C40	C	1.153129	0.181139	-0.012784
C41	C	0.917534	0.313753	-0.022248
C42	C	0.918979	0.401421	-0.028492
N43	N	0.923384	0.169912	0.183664
N44	N	0.923426	0.169932	-0.207670
C45	C	0.976608	0.119878	0.230497
C46	C	0.976612	0.119877	0.317044
C47	C	0.923395	0.169916	0.356756
C48	C	0.870165	0.219952	0.309916
C49	C	0.870157	0.219948	0.223371
C50	C	0.870191	0.219969	0.658943
C51	C	0.870204	0.219971	0.745495
C52	C	0.976646	0.119898	0.752616
C53	C	0.976639	0.119894	0.666071
C54	C	0.923406	0.169927	0.619239
C55	C	0.923402	0.169926	0.525395
C56	C	0.923403	0.169921	0.450598
H57	H	0.669038	0.287300	-0.020393
N58	N	0.918957	-0.601796	-0.184055
H59	H	0.870760	-0.584315	-0.218077
H60	H	0.967672	-0.590580	-0.217541
N61	N	0.507811	0.292593	-0.020740
H62	H	0.473574	0.292856	0.030220
H63	H	0.540079	0.340950	-0.024219
N64	N	0.299867	0.343354	-0.024370
H65	H	0.281567	0.373291	0.024465
H66	H	0.359132	0.337411	-0.023986
H67	H	0.826849	0.260709	0.620819
N68	N	0.413396	0.057169	-0.003982
H69	H	0.457550	0.015291	-0.001006
H70	H	0.379974	0.051183	0.047416
N71	N	0.925112	-0.229497	-0.139376
H72	H	0.876118	-0.260537	-0.140570
H73	H	0.925801	-0.190819	-0.189529
N74	N	0.925036	-0.229561	0.172231
H75	H	0.876038	-0.260601	0.177782
H76	H	0.972951	-0.266831	0.178173
H77	H	0.826830	0.260691	0.342255
N78	N	0.812747	0.273909	0.172854
H79	H	0.779035	0.305609	0.211142
H80	H	0.842628	0.310806	0.134306
N81	N	0.918906	-0.601836	0.127529
H82	H	0.919530	-0.563253	0.172266
H83	H	0.869903	-0.632874	0.132993
H84	H	0.927660	-0.069235	0.141008
N85	N	1.034045	0.065941	0.367556
H86	H	1.067769	0.034256	0.329266
H87	H	1.068557	0.098513	0.401120
H88	H	0.177762	0.052545	-0.003622
N89	N	0.921776	-0.430582	-0.196238
H90	H	0.921145	-0.469167	-0.240972
H91	H	0.873899	-0.393261	-0.202166
H92	H	0.921556	-0.441510	0.096311
H93	H	1.019976	0.079151	0.633741
H94	H	0.143641	0.311016	-0.022044
H95	H	0.927722	-0.069214	-0.130958
N96	N	1.034005	0.065893	0.187682
H97	H	1.004164	0.028944	0.154419
H98	H	1.068576	0.098420	0.149494
N99	N	1.034063	0.065930	0.803128
H100	H	1.025994	0.073521	0.863980
H101	H	1.025100	0.009360	0.792035
N102	N	0.338957	0.047227	-0.003238
H103	H	0.306707	-0.001146	0.000210
H104	H	0.373203	0.046999	-0.054190
H105	H	0.923632	-0.316094	-0.109623
H106	H	0.555216	0.016243	-0.001047
H107	H	0.425111	0.262930	-0.018623
N108	N	0.716426	0.010923	-0.000684
H109	H	0.684181	-0.037454	0.002765
H110	H	0.750670	0.010698	-0.051639
H111	H	0.923156	-0.344064	0.085615
H112	H	0.826865	0.260719	0.777826
