data_functionalizedCrystal
_audit_creation_method	'MofGen! by Chris Wilmer'
_symmetry_space_group_name_H-M	'P1'
_symmetry_Int_Tables_number	1
_symmetry_cell_setting	triclinic
loop_
_symmetry_equiv_pos_as_xyz
  x,y,z
_cell_length_a	19.077105
_cell_length_b	14.908520
_cell_length_c	19.076919
_cell_angle_alpha	84.570994
_cell_angle_beta	89.923776
_cell_angle_gamma	91.150228
loop_
_atom_site_label
_atom_site_type_symbol
_atom_site_fract_x
_atom_site_fract_y
_atom_site_fract_z
Zn1	Zn	1.037881	-0.436364	0.459234
Zn2	Zn	1.035744	-0.581390	0.347980
Zn3	Zn	0.925663	-0.424281	0.336506
Zn4	Zn	0.913591	-0.580846	0.460710
O5	O	0.978220	-0.505720	0.401107
O6	O	1.135682	-0.460886	0.448660
O7	O	1.025299	-0.555720	0.247919
O8	O	0.946495	-0.299666	0.347366
O9	O	1.134112	-0.567437	0.366923
O10	O	1.028941	-0.308543	0.437534
O11	O	0.944423	-0.440292	0.239489
O12	O	0.825977	-0.439765	0.348797
O13	O	0.925920	-0.566510	0.559053
O14	O	0.817107	-0.554793	0.440049
O15	O	1.017235	-0.460359	0.557969
O16	O	1.013594	-0.707536	0.368354
O17	O	0.923848	-0.707136	0.451175
C18	C	0.796110	-0.495910	0.393339
C19	C	0.718201	-0.491735	0.390033
C20	C	0.676998	-0.549746	0.435923
C21	C	0.603795	-0.545812	0.432820
C22	C	0.571795	-0.483870	0.383823
C23	C	0.613003	-0.425853	0.337931
C24	C	0.686205	-0.429783	0.341038
C25	C	0.353358	-0.465680	0.369446
C26	C	0.280150	-0.461756	0.366341
C27	C	0.270947	-0.581715	0.461231
C28	C	0.344151	-0.585643	0.464331
C29	C	0.385353	-0.527623	0.418441
N30	N	0.496969	-0.479850	0.380648
N31	N	0.460177	-0.531640	0.421620
C32	C	0.967198	-0.740065	0.411186
C33	C	0.962545	-0.840323	0.415524
C34	C	1.047344	-1.029082	0.337510
C35	C	1.042976	-1.123283	0.341584
C36	C	0.949443	-1.122929	0.427749
C37	C	0.953812	-1.028727	0.423675
C38	C	1.002763	-0.981807	0.378553
C39	C	1.007128	-0.887604	0.374476
C40	C	0.913600	-0.887251	0.460644
C41	C	0.909231	-0.981453	0.464718
C42	C	1.161040	-0.515570	0.408907
C43	C	1.238948	-0.519767	0.412230
C44	C	0.970470	-0.514721	0.584776
C45	C	0.967167	-0.518557	0.663044
C46	C	0.989303	-0.270463	0.391006
C47	C	0.994026	-0.170210	0.386701
C48	C	0.985983	-0.496691	0.218153
C49	C	0.989433	-0.492609	0.139879
C50	C	1.013156	-0.465095	0.699251
C51	C	1.010044	-0.468695	0.772793
C52	C	0.960947	-0.525763	0.810125
C53	C	0.914953	-0.579227	0.773913
C54	C	0.918062	-0.575622	0.700373
C55	C	0.946548	-0.542468	1.030127
C56	C	0.943444	-0.546071	1.103672
C57	C	1.038535	-0.435537	1.102547
C58	C	1.041642	-0.431941	1.029006
C59	C	0.995646	-0.485402	0.992799
N60	N	0.957767	-0.529446	0.885296
N61	N	0.998824	-0.481713	0.917629
H62	H	0.254099	-0.411305	0.326445
H63	H	1.079279	-1.161771	0.308163
O64	O	0.375199	-0.645720	0.512026
C65	C	0.355268	-0.628643	0.580631
H66	H	0.338381	-0.555691	0.580326
H67	H	0.309730	-0.675652	0.599252
C68	C	0.438563	-0.734632	0.631207
C69	C	0.417828	-0.645029	0.630833
H70	H	0.477151	-0.744744	0.662175
H71	H	0.451990	-0.746141	0.584986
H72	H	0.400609	-0.773796	0.646722
H73	H	0.455779	-0.605867	0.615309
H74	H	0.404410	-0.633515	0.677052
H75	H	1.047495	-0.425162	0.802269
H76	H	0.586943	-0.375415	0.298039
H77	H	0.909104	-0.586013	1.000657
O78	O	1.083305	-0.383702	1.137694
C79	C	1.152995	-0.406277	1.123542
H80	H	1.153997	-0.477533	1.106572
H81	H	1.175397	-0.356815	1.079560
C82	C	1.196277	-0.313979	1.211259
C83	C	1.197508	-0.401500	1.190423
H84	H	1.223736	-0.311029	1.252513
H85	H	1.149326	-0.298766	1.220792
H86	H	1.214944	-0.272770	1.174602
H87	H	1.178834	-0.442705	1.227076
H88	H	1.244458	-0.416719	1.180897
O89	O	1.094853	-0.983589	0.293583
C90	C	1.081469	-1.002377	0.223733
H91	H	1.051418	-1.069285	0.224062
H92	H	1.048906	-0.946312	0.196163
C93	C	1.188341	-0.926074	0.183827
C94	C	1.151436	-1.008256	0.184231
H95	H	1.231499	-0.929697	0.159459
H96	H	1.197357	-0.913413	0.230886
H97	H	1.161197	-0.879362	0.160853
H98	H	1.178576	-1.054964	0.207212
H99	H	1.142426	-1.020925	0.137175
H100	H	0.570251	-0.593052	0.470187
O101	O	0.230821	-0.637975	0.505778
C102	C	0.159348	-0.621243	0.492521
H103	H	0.153587	-0.549928	0.466125
H104	H	0.137640	-0.671714	0.456371
C105	C	0.125457	-0.718712	0.594946
C106	C	0.118381	-0.631119	0.562532
H107	H	0.100185	-0.724808	0.638131
H108	H	0.173609	-0.729988	0.603876
H109	H	0.107368	-0.760762	0.564814
H110	H	0.136478	-0.589072	0.592659
H111	H	0.070231	-0.619836	0.553608
O112	O	1.060917	-0.409787	0.662965
C113	C	1.105559	-0.461484	0.624550
H114	H	1.105610	-0.533842	0.649945
H115	H	1.086095	-0.460692	0.568023
C116	C	1.180482	-0.332410	0.593450
C117	C	1.180550	-0.421280	0.624644
H118	H	1.226739	-0.307609	0.593505
H119	H	1.150405	-0.297580	0.619329
H120	H	1.164259	-0.331762	0.546347
H121	H	1.196764	-0.421926	0.671749
H122	H	1.210631	-0.456110	0.598773
H123	H	1.081624	-0.385472	0.998614
H124	H	0.903461	-0.592545	1.134066
H125	H	0.877297	-0.848750	0.494062
O126	O	0.861773	-1.027142	0.508588
C127	C	0.897194	-1.085923	0.558172
H128	H	0.950729	-1.101627	0.536262
H129	H	0.904328	-1.052555	0.609118
C130	C	0.788177	-1.154704	0.600021
C131	C	0.853928	-1.173999	0.573108
H132	H	0.761488	-1.209032	0.609238
H133	H	0.764313	-1.115100	0.566618
H134	H	0.794132	-1.126896	0.642473
H135	H	0.847973	-1.201796	0.530653
H136	H	0.877791	-1.213609	0.606505
O137	O	0.867321	-0.634642	0.810286
C138	C	0.874426	-0.626346	0.882958
H139	H	0.929486	-0.600216	0.894046
H140	H	0.834233	-0.577096	0.899989
C141	C	0.794479	-0.751205	0.910737
C142	C	0.862107	-0.719119	0.924357
H143	H	0.786878	-0.808430	0.936275
H144	H	0.789690	-0.756792	0.861777
H145	H	0.760993	-0.710155	0.924930
H146	H	0.895592	-0.760163	0.910156
H147	H	0.866902	-0.713540	0.973316
H148	H	0.909594	-1.161148	0.464489
H149	H	0.880606	-0.619147	0.670893
H150	H	0.703047	-0.600189	0.475819
O151	O	0.726201	-0.373526	0.296360
C152	C	0.710330	-0.388683	0.226234
H153	H	0.686971	-0.459471	0.224832
H154	H	0.670887	-0.337106	0.204002
C155	C	0.806520	-0.292342	0.183280
C156	C	0.777835	-0.379289	0.181558
H157	H	0.848159	-0.286544	0.155720
H158	H	0.817211	-0.282127	0.230525
H159	H	0.773644	-0.249371	0.164755
H160	H	0.810708	-0.422257	0.200091
H161	H	0.767151	-0.389511	0.134315
O162	O	0.393270	-0.409283	0.324799
C163	C	0.349326	-0.353757	0.280900
H164	H	0.295516	-0.387780	0.277786
H165	H	0.343665	-0.286160	0.303506
C166	C	0.447750	-0.296665	0.210445
C167	C	0.381662	-0.338458	0.206615
H168	H	0.467697	-0.287224	0.164623
H169	H	0.477357	-0.334071	0.240022
H170	H	0.443024	-0.240339	0.229286
H171	H	0.386391	-0.394787	0.187783
H172	H	0.352057	-0.301060	0.177034
H173	H	1.046985	-0.849402	0.337734
