data_functionalizedCrystal
_audit_creation_method	'MofGen! by Chris Wilmer'
_symmetry_space_group_name_H-M	'P1'
_symmetry_Int_Tables_number	1
_symmetry_cell_setting	triclinic
loop_
_symmetry_equiv_pos_as_xyz
  x,y,z
_cell_length_a	23.096457
_cell_length_b	16.704494
_cell_length_c	23.096457
_cell_angle_alpha	56.632881
_cell_angle_beta	89.999736
_cell_angle_gamma	63.426309
loop_
_atom_site_label
_atom_site_type_symbol
_atom_site_fract_x
_atom_site_fract_y
_atom_site_fract_z
Zr1	Zr	0.590387	0.878579	-0.108617
O2	O	0.504154	1.046028	-0.207279
O3	O	0.612510	0.711129	-0.074061
O4	O	0.618725	0.878580	-0.201067
O5	O	0.497942	0.878577	0.015009
O6	O	0.714006	0.878583	-0.201071
O7	O	0.497939	0.878577	-0.080273
O8	O	0.702888	0.579043	0.026120
O9	O	0.509059	1.178116	-0.212183
O10	O	0.698262	0.780006	-0.064534
O11	O	0.627157	0.780004	0.006576
O12	O	0.634474	0.977156	-0.142958
O13	O	0.563369	0.977154	-0.071848
Zr14	Zr	0.742352	0.878582	0.043340
Zr15	Zr	0.742349	0.878583	-0.108623
Zr16	Zr	0.590391	0.878579	0.043346
Zr17	Zr	0.598210	1.089244	-0.116437
Zr18	Zr	0.734530	0.667917	0.051161
O19	O	0.720229	1.046032	0.008784
O20	O	0.720224	1.046033	-0.207287
O21	O	0.504160	1.046027	0.008792
O22	O	0.828585	0.711134	0.142002
O23	O	0.828580	0.711134	-0.074069
O24	O	0.612516	0.711128	0.142010
O25	O	0.834798	0.878585	-0.080285
O26	O	0.714014	0.878581	0.135791
O27	O	0.618734	0.878579	0.135794
O28	O	0.834800	0.878585	0.014996
O29	O	0.629848	1.178119	-0.212187
O30	O	0.702891	0.579043	0.146910
O31	O	0.823680	0.579046	0.146906
O32	O	0.823677	0.579046	0.026116
O33	O	0.509062	1.178116	-0.091392
O34	O	0.629851	1.178118	-0.091397
O35	O	0.698265	0.780005	0.077681
O36	O	0.769370	0.780007	0.006571
O37	O	0.705583	0.977157	-0.071853
O38	O	0.634478	0.977156	-0.000743
C39	C	0.656585	0.615071	-0.022856
C40	C	0.653264	0.525638	-0.019536
C41	C	0.721274	0.357570	-0.087532
C42	C	0.718155	0.273540	-0.084415
C43	C	0.643913	0.273540	-0.010180
C44	C	0.647031	0.357571	-0.013297
C45	C	0.685712	0.399584	-0.051976
C46	C	0.688826	0.483621	-0.055097
C47	C	0.614588	0.483614	0.019142
C48	C	0.611470	0.399584	0.022259
C49	C	0.476289	0.878576	-0.032631
C50	C	0.411778	0.878575	-0.032629
C51	C	0.414769	0.775668	0.008301
C52	C	0.354153	0.775666	0.008304
C53	C	0.290547	0.878577	-0.032637
C54	C	0.287559	0.981498	-0.073568
C55	C	0.348175	0.981497	-0.073564
N56	N	0.170594	0.955180	-0.095891
N57	N	0.113015	0.955174	-0.095893
C58	C	0.107915	0.878588	-0.032650
N59	N	0.162575	0.801990	0.030596
N60	N	0.220161	0.801992	0.030597
C61	C	0.224816	0.878590	-0.032645
C62	C	0.045182	0.775672	0.008287
C63	C	-0.015436	0.775674	0.008292
C64	C	-0.082030	0.981509	-0.073587
C65	C	-0.021412	0.981504	-0.073585
C66	C	0.042191	0.878582	-0.032650
C67	C	0.856450	0.878585	-0.032646
C68	C	0.920962	0.878587	-0.032648
C69	C	0.666365	0.878581	-0.222721
C70	C	0.666363	0.878582	-0.287233
C71	C	0.676155	1.142091	-0.042421
C72	C	0.679476	1.231523	-0.045741
C73	C	0.613881	0.878592	-0.747747
C74	C	0.613880	0.878584	-0.687127
C75	C	0.666371	0.878587	-0.656817
C76	C	0.718875	0.878568	-0.687119
C77	C	0.718878	0.878564	-0.747733
N78	N	0.684649	0.942851	-0.587210
N79	N	0.684642	0.942856	-0.529630
C80	C	0.666367	0.878594	-0.474191
N81	N	0.648085	0.814341	-0.478512
N82	N	0.648089	0.814340	-0.536099
C83	C	0.666374	0.878589	-0.591092
C84	C	0.613868	0.878596	-0.378163
C85	C	0.613872	0.878581	-0.317540
C86	C	0.718864	0.878576	-0.317537
C87	C	0.718863	0.878580	-0.378155
C88	C	0.666361	0.878595	-0.408466
C89	C	0.666374	0.878580	0.157444
C90	C	0.666376	0.878580	0.221956
C91	C	0.846665	0.615075	-0.022863
C92	C	0.907856	0.525644	-0.019546
C93	C	0.656589	0.615070	0.167226
C94	C	0.653270	0.525637	0.235058
C95	C	0.846670	0.615075	0.167219
C96	C	0.907862	0.525643	0.235049
C97	C	0.486069	1.142087	-0.232496
C98	C	0.424877	1.231518	-0.300325
C99	C	0.486074	1.142086	-0.042413
C100	C	0.424884	1.231517	-0.045731
C101	C	0.676150	1.142091	-0.232503
C102	C	0.679469	1.231524	-0.300335
C103	C	0.899474	0.483645	-0.055110
C104	C	0.956963	0.399627	-0.052008
C105	C	1.022835	0.357603	-0.013336
C106	C	1.031216	0.399610	0.022229
C107	C	0.973727	0.483632	0.019122
C108	C	0.688829	0.483639	0.304035
C109	C	0.685708	0.399619	0.367776
C110	C	0.647031	0.357593	0.362538
C111	C	0.611468	0.399599	0.293554
C112	C	0.614586	0.483623	0.229815
C113	C	0.973721	0.483646	0.229783
C114	C	1.031224	0.399627	0.293510
C115	C	1.022866	0.357601	0.362502
C116	C	0.957000	0.399607	0.367765
C117	C	0.899499	0.483630	0.304039
C118	C	0.359019	1.273526	-0.295061
C119	C	0.301517	1.357570	-0.358789
C120	C	0.309875	1.399601	-0.427780
C121	C	0.375740	1.357590	-0.433044
C122	C	0.433241	1.273553	-0.369317
C123	C	0.433266	1.273525	-0.010173
C124	C	0.375777	1.357567	-0.013294
C125	C	0.309906	1.399594	-0.051967
C126	C	0.301525	1.357583	-0.087530
C127	C	0.359013	1.273548	-0.084413
C128	C	0.718152	1.273524	-0.295074
C129	C	0.721284	1.357545	-0.358803
C130	C	0.685729	1.399570	-0.427793
C131	C	0.647045	1.357562	-0.433052
C132	C	0.643917	1.273537	-0.369324
H133	H	0.612430	0.239306	0.021320
H134	H	0.579978	0.365369	0.289300
N135	N	0.602188	1.228253	-0.375011
H136	H	0.552648	1.292379	-0.404172
H137	H	0.605650	1.168629	-0.324152
H138	H	0.747106	1.239320	-0.238905
N139	N	0.557266	0.878577	-0.780425
H140	H	0.511670	0.948558	-0.797717
H141	H	0.557029	0.808541	-0.741995
N142	N	0.608696	1.402896	-0.507464
H143	H	0.642197	1.388276	-0.533725
H144	H	0.574483	1.487234	-0.537332
N145	N	0.775485	0.878566	-0.284849
H146	H	0.767520	0.878566	-0.241851
H147	H	0.775768	0.948550	-0.323282
H148	H	0.752764	0.391786	-0.119032
H149	H	0.571131	0.878594	-0.662455
H150	H	0.382615	1.391758	0.015669
H151	H	0.585631	0.517807	0.173653
N152	N	0.763011	1.402840	-0.353121
H153	H	0.785053	1.363470	-0.299745
H154	H	0.732068	1.487194	-0.379785
N155	N	0.775500	0.878541	-0.654420
H156	H	0.767535	0.878541	-0.611422
H157	H	0.775794	0.948517	-0.692848
N158	N	0.643684	0.266951	0.431292
H159	H	0.613790	0.246691	0.417513
H160	H	0.623671	0.296264	0.459352
H161	H	0.486864	1.239351	-0.373612
N162	N	1.084894	0.266962	0.431227
H163	H	1.082339	0.197227	0.462988
H164	H	1.085990	0.296284	0.459268
N165	N	0.576233	0.528914	0.057503
H166	H	0.525603	0.563773	0.036738
H167	H	0.584128	0.588479	0.049652
N168	N	0.828432	0.528959	-0.096821
H169	H	0.831855	0.489597	-0.118879
H170	H	0.804797	0.613313	-0.137264
H171	H	0.263101	1.468020	-0.054499
N172	N	0.982777	0.528921	0.057485
H173	H	0.962420	0.613271	0.020318
H174	H	1.033241	0.489460	0.082451
N175	N	1.102264	0.354259	0.063949
H176	H	1.098859	0.393606	0.086014
H177	H	1.129575	0.368879	0.029325
H178	H	0.688282	1.467989	-0.479679
N179	N	0.730549	0.528954	0.309695
H180	H	0.752596	0.489592	0.363068
H181	H	0.699599	0.613308	0.283029
H182	H	0.761627	0.878554	-0.772401
N183	N	0.230476	1.402904	-0.129229
H184	H	0.222419	1.338789	-0.107371
H185	H	0.226122	1.437787	-0.182444
H186	H	0.571119	0.878604	-0.402841
H187	H	0.720320	0.517831	-0.086593
H188	H	0.571125	0.878584	-0.292868
N189	N	-0.012209	0.664674	0.052436
H190	H	-0.060259	0.680289	0.046226
H191	H	0.012929	0.619723	0.106012
H192	H	0.714671	0.365428	0.423940
H193	H	0.980539	0.517851	0.173613
N194	N	0.349987	1.228209	-0.220657
H195	H	0.325596	1.292322	-0.217358
H196	H	0.396424	1.168577	-0.181118
N197	N	0.218960	1.092497	-0.117720
H198	H	0.181013	1.076884	-0.111513
H199	H	0.215015	1.137444	-0.171295
H200	H	0.486896	1.239313	0.021324
N201	N	0.947989	0.354264	0.442179
H202	H	0.923594	0.418360	0.445493
H203	H	0.994434	0.294644	0.481702
H204	H	0.466553	0.691860	0.041629
H205	H	0.263048	1.468029	-0.479665
N206	N	0.349967	1.228244	-0.122767
H207	H	0.299514	1.267624	-0.147736
H208	H	0.370361	1.143893	-0.085556
N209	N	0.828466	0.528917	0.309723
H210	H	0.831904	0.489536	0.363101
H211	H	0.801159	0.514280	0.286743
N212	N	0.384752	1.402921	-0.507457
H213	H	0.364387	1.487272	-0.537389
H214	H	0.360711	1.388220	-0.533650
N215	N	0.756512	0.228221	-0.122762
H216	H	0.781488	0.267590	-0.147736
H217	H	0.722976	0.242845	-0.160622
H218	H	0.579980	0.365362	0.053753
N219	N	0.357370	0.664670	0.052451
H220	H	0.406860	0.599470	0.078385
H221	H	0.333670	0.660198	0.018529
N222	N	0.230479	1.402869	-0.353108
H223	H	0.226101	1.437712	-0.327613
H224	H	0.222469	1.338700	-0.323975
N225	N	0.344952	1.092494	-0.117715
H226	H	0.295461	1.157691	-0.143651
H227	H	0.368651	1.096971	-0.155196
N228	N	0.947907	0.354329	-0.090364
H229	H	0.968271	0.269977	-0.053195
H230	H	0.971923	0.369041	-0.128275
N231	N	0.113785	0.664671	0.052438
H232	H	0.106480	0.599476	0.078373
H233	H	0.140385	0.660188	0.089920
H234	H	-0.133818	1.065302	-0.106922
H235	H	0.761607	0.878577	-0.402827
N236	N	1.084835	0.266966	-0.009981
H237	H	1.127840	0.246709	0.019915
H238	H	1.085878	0.296285	-0.061363
N239	N	-0.024633	1.092497	-0.117740
H240	H	-0.074124	1.157693	-0.143679
H241	H	-0.000932	1.096971	-0.155219
H242	H	1.084850	0.365435	0.289212
