data_functionalizedCrystal
_audit_creation_method	'MofGen! by Chris Wilmer'
_symmetry_space_group_name_H-M	'P1'
_symmetry_Int_Tables_number	1
_symmetry_cell_setting	triclinic
loop_
_symmetry_equiv_pos_as_xyz
  x,y,z
_cell_length_a	19.077236
_cell_length_b	14.908178
_cell_length_c	19.076919
_cell_angle_alpha	91.159747
_cell_angle_beta	90.112677
_cell_angle_gamma	95.467067
loop_
_atom_site_label
_atom_site_type_symbol
_atom_site_fract_x
_atom_site_fract_y
_atom_site_fract_z
Zn1	Zn	1.044195	-0.327444	0.425224
Zn2	Zn	1.544195	0.172556	0.925224
Zn3	Zn	1.042613	-0.472002	0.300956
Zn4	Zn	1.542613	0.027998	0.800956
Zn5	Zn	0.931431	-0.326971	0.303027
Zn6	Zn	1.431431	0.173029	0.803027
Zn7	Zn	0.919914	-0.484036	0.413131
Zn8	Zn	1.419914	0.015964	0.913131
O9	O	0.984538	-0.402613	0.360584
O10	O	1.484538	0.097387	0.860584
O11	O	1.142528	-0.341781	0.412934
O12	O	1.642528	0.158219	0.912934
O13	O	1.032022	-0.447529	0.203144
O14	O	1.532022	0.052471	0.703144
O15	O	0.951872	-0.200803	0.325164
O16	O	1.451872	0.299197	0.825164
O17	O	1.141364	-0.447988	0.321635
O18	O	1.641364	0.052012	0.821635
O19	O	1.034720	-0.201150	0.414943
O20	O	1.534720	0.298850	0.914943
O21	O	0.950338	-0.340975	0.204666
O22	O	1.450338	0.159025	0.704666
O23	O	0.831362	-0.352644	0.313438
O24	O	1.331362	0.147356	0.813438
O25	O	0.932242	-0.468498	0.512821
O26	O	1.432242	0.031502	1.012821
O27	O	0.822900	-0.468040	0.394331
O28	O	1.322900	0.031960	0.894331
O29	O	1.023552	-0.353450	0.521706
O30	O	1.523552	0.146550	1.021706
O31	O	1.020854	-0.599829	0.309908
O32	O	1.520854	-0.099829	0.809908
O33	O	0.930707	-0.608671	0.392322
O34	O	1.430707	-0.108671	0.892322
C35	C	0.801580	-0.411597	0.352797
C36	C	1.301580	0.088403	0.852797
C37	C	0.723308	-0.415463	0.349481
C38	C	1.223308	0.084537	0.849481
C39	C	0.687134	-0.362079	0.395522
C40	C	1.187134	0.137921	0.895522
C41	C	0.613590	-0.365706	0.392401
C42	C	1.113590	0.134294	0.892401
C43	C	0.576219	-0.422724	0.343241
C44	C	1.076219	0.077276	0.843241
C45	C	0.612398	-0.476111	0.297195
C46	C	1.112398	0.023889	0.797195
C47	C	0.685941	-0.472478	0.300314
C48	C	1.185941	0.027522	0.800314
C49	C	0.356204	-0.439505	0.328807
C50	C	0.856204	0.060495	0.828807
C51	C	0.282655	-0.443136	0.325693
C52	C	0.782655	0.056864	0.825693
C53	C	0.283852	-0.332730	0.420898
C54	C	0.783852	0.167270	0.920898
C55	C	0.357397	-0.329106	0.424015
C56	C	0.857397	0.170894	0.924015
C57	C	0.393569	-0.382489	0.377967
C58	C	0.893569	0.117511	0.877967
N59	N	0.501045	-0.426436	0.340051
N60	N	1.001045	0.073564	0.840051
N61	N	0.468742	-0.378772	0.381155
N62	N	0.968742	0.121228	0.881155
C63	C	0.974377	-0.636980	0.349594
C64	C	1.474377	-0.136980	0.849594
C65	C	0.970094	-0.737241	0.344919
C66	C	1.470094	-0.237241	0.844919
C67	C	1.048241	-0.925863	0.429712
C68	C	1.548241	-0.425863	0.929712
C69	C	1.044219	-1.020068	0.425322
C70	C	1.544219	-0.520068	0.925322
C71	C	0.958023	-1.019857	0.331751
C72	C	1.458023	-0.519857	0.831751
C73	C	0.962046	-0.925652	0.336142
C74	C	1.462046	-0.425652	0.836142
C75	C	1.007157	-0.878659	0.385123
C76	C	1.507157	-0.378659	0.885123
C77	C	1.011183	-0.784452	0.389510
C78	C	1.511183	-0.284452	0.889510
C79	C	0.924984	-0.784243	0.295943
C80	C	1.424984	-0.284243	0.795943
C81	C	0.920962	-0.878448	0.291552
C82	C	1.420962	-0.378448	0.791552
C83	C	1.168211	-0.393595	0.368402
C84	C	1.668211	0.106405	0.868402
C85	C	1.246482	-0.389752	0.371734
C86	C	1.746482	0.110248	0.871734
C87	C	0.976789	-0.412369	0.543407
C88	C	1.476789	0.087631	1.043407
C89	C	0.973486	-0.416527	0.621315
C90	C	1.473486	0.083473	1.121315
C91	C	0.994757	-0.167331	0.371634
C92	C	1.494757	0.332669	0.871634
C93	C	0.999112	-0.067068	0.376342
C94	C	1.499112	0.432932	0.876342
C95	C	0.992301	-0.392828	0.178477
C96	C	1.492301	0.107172	0.678477
C97	C	0.995751	-0.388409	0.100587
C98	C	1.495751	0.111591	0.600587
C99	C	1.019472	-0.358584	0.662544
C100	C	1.519472	0.141416	1.162544
C101	C	1.016361	-0.362487	0.735747
C102	C	1.516361	0.137513	1.235747
C103	C	0.967266	-0.424339	0.767720
C104	C	1.467266	0.075661	1.267720
C105	C	0.921276	-0.482285	0.726486
C106	C	1.421276	0.017715	1.226486
C107	C	0.924384	-0.478376	0.653284
C108	C	1.424384	0.021624	1.153284
C109	C	0.952869	-0.442447	0.986152
C110	C	1.452869	0.057553	1.486152
C111	C	0.949765	-0.446353	1.059359
C112	C	1.449765	0.053647	1.559359
C113	C	1.044850	-0.326553	1.068615
C114	C	1.544850	0.173447	1.568615
C115	C	1.047957	-0.322654	0.995411
C116	C	1.547957	0.177346	1.495411
C117	C	1.001964	-0.380597	0.954184
C118	C	1.501964	0.119403	1.454184
N119	N	0.964086	-0.428332	0.842545
N120	N	1.464086	0.071668	1.342545
N121	N	1.005141	-0.376598	0.879361
N122	N	1.505141	0.123402	1.379361
H123	H	0.252230	-0.489571	0.285660
H124	H	0.752230	0.010429	0.785660
H125	H	0.385646	-0.482974	0.291311
H126	H	0.885646	0.017026	0.791311
H127	H	0.921293	-1.058135	0.291876
H128	H	1.421293	-0.558135	0.791876
Cl129	Cl	1.095868	-1.079408	0.481381
Cl130	Cl	1.595868	-0.579408	0.981381
Cl131	Cl	0.866569	-0.551220	0.601454
Cl132	Cl	1.366569	-0.051220	1.101454
Cl133	Cl	1.067895	-0.725376	0.451084
Cl134	Cl	1.567895	-0.225376	0.951084
H135	H	0.584141	-0.322237	0.429894
H136	H	1.084141	0.177763	0.929894
H137	H	0.884232	-0.916723	0.251675
H138	H	1.384232	-0.416723	0.751675
Cl139	Cl	1.074204	-0.289678	0.787573
Cl140	Cl	1.574204	0.210322	1.287573
H141	H	1.059452	-0.308220	0.636517
H142	H	1.559452	0.191780	1.136517
Cl143	Cl	0.565418	-0.547786	0.235390
Cl144	Cl	1.065418	-0.047786	0.735390
H145	H	0.881299	-0.532643	0.752524
H146	H	1.381299	-0.032643	1.252524
Cl147	Cl	0.873338	-0.724895	0.239879
Cl148	Cl	1.373338	-0.224895	0.739879
Cl149	Cl	0.238375	-0.265622	0.478782
Cl150	Cl	0.738375	0.234378	0.978782
Cl151	Cl	0.734107	-0.290399	0.457330
Cl152	Cl	1.234107	0.209601	0.957330
H153	H	0.715393	-0.515948	0.262821
H154	H	1.215393	-0.015948	0.762821
Cl155	Cl	1.109678	-0.244895	0.955222
Cl156	Cl	1.609678	0.255105	1.455222
Cl157	Cl	1.102663	-0.253713	1.120447
Cl158	Cl	1.602663	0.246287	1.620447
H159	H	0.909784	-0.496722	1.085389
H160	H	1.409784	0.003278	1.585389
Cl161	Cl	1.104959	-0.866782	0.491279
Cl162	Cl	1.604959	-0.366782	0.991279
H163	H	0.915427	-0.489641	0.952593
H164	H	1.415427	0.010359	1.452593
H165	H	0.387819	-0.282680	0.464049
H166	H	0.887819	0.217320	0.964049
