data_functionalizedCrystal
_audit_creation_method	'MofGen! by Chris Wilmer'
_symmetry_space_group_name_H-M	'P1'
_symmetry_Int_Tables_number	1
_symmetry_cell_setting	triclinic
loop_
_symmetry_equiv_pos_as_xyz
  x,y,z
_cell_length_a	16.109302
_cell_length_b	9.565339
_cell_length_c	16.109301
_cell_angle_alpha	90.002222
_cell_angle_beta	83.461631
_cell_angle_gamma	89.999197
loop_
_atom_site_label
_atom_site_type_symbol
_atom_site_fract_x
_atom_site_fract_y
_atom_site_fract_z
O1	O	1.103123	0.116327	0.106866
O2	O	0.861061	0.116317	0.120165
O3	O	0.988742	0.116308	-0.007515
O4	O	0.975443	0.116336	0.234547
O5	O	0.988747	-0.116212	-0.007512
O6	O	0.861067	-0.116203	0.120169
O7	O	1.103129	-0.116193	0.106870
Zn8	Zn	0.982099	-0.153116	0.113520
Zn9	Zn	0.982091	0.153240	0.113515
O10	O	0.975448	-0.116184	0.234550
C11	C	0.830089	0.000055	0.119628
C12	C	0.737794	0.000051	0.118013
C13	C	0.525456	-0.126682	0.114279
C14	C	0.438736	-0.126678	0.112753
C15	C	0.438740	0.126828	0.112753
C16	C	0.525460	0.126822	0.114274
C17	C	0.568815	0.000063	0.115041
C18	C	0.395375	0.000073	0.111994
C19	C	0.301350	0.000080	0.110338
C20	C	0.662847	0.000056	0.116695
N21	N	0.982110	-0.362195	0.113523
C22	C	1.041177	-0.453365	0.054479
C23	C	0.966052	-0.546541	0.038350
C24	C	1.057205	-0.546575	0.129597
C25	C	0.906947	-0.453319	0.097357
C26	C	0.998150	-0.453345	0.188637
C27	C	0.922971	-0.546479	0.172540
C28	C	1.134101	0.000072	0.107407
C29	C	1.226396	0.000085	0.109022
C30	C	0.988206	0.000047	-0.038488
C31	C	0.986591	0.000045	-0.130784
N32	N	0.982087	0.362319	0.113506
C33	C	1.058599	0.000070	-0.353056
C34	C	1.057074	0.000082	-0.439776
C35	C	0.905586	0.000070	-0.419902
C36	C	0.907111	0.000068	-0.333184
C37	C	0.983620	0.000062	-0.299763
C38	C	0.980571	0.000074	-0.473202
C39	C	0.978918	0.000087	-0.567228
C40	C	0.985273	0.000052	-0.205731
C41	C	0.975984	0.000080	0.265523
C42	C	0.977599	0.000091	0.357819
H43	H	0.403430	0.230032	0.112129
H44	H	0.843295	0.000073	-0.447124
H45	H	1.120897	0.000068	-0.325848
H46	H	0.560763	0.230040	0.114892
Cl47	Cl	0.579957	-0.286037	0.115239
H48	H	0.403437	-0.229886	0.112133
Cl49	Cl	1.118224	-0.390234	-0.022647
H50	H	0.843416	-0.412528	0.083682
Cl51	Cl	1.155267	-0.609827	0.150598
Cl52	Cl	0.945074	-0.609733	-0.059733
H53	H	0.872956	-0.587105	0.222468
Cl54	Cl	0.812843	0.000070	-0.266182
H55	H	1.118130	0.000092	-0.483165
H56	H	1.011756	-0.412378	0.252146
