data_functionalizedCrystal
_audit_creation_method	'MofGen! by Chris Wilmer'
_symmetry_space_group_name_H-M	'P1'
_symmetry_Int_Tables_number	1
_symmetry_cell_setting	triclinic
loop_
_symmetry_equiv_pos_as_xyz
  x,y,z
_cell_length_a	6.817900
_cell_length_b	19.452420
_cell_length_c	19.453030
_cell_angle_alpha	96.329126
_cell_angle_beta	101.707737
_cell_angle_gamma	101.696715
loop_
_atom_site_label
_atom_site_type_symbol
_atom_site_fract_x
_atom_site_fract_y
_atom_site_fract_z
V1	V	-3.997929	-0.097915	-0.219345
O2	O	-3.995083	0.003953	-0.214816
O3	O	-3.940900	-0.193426	-0.218185
O4	O	-3.940943	-0.096739	-0.314854
O5	O	-3.995039	-0.093403	-0.117478
V6	V	-4.483788	-0.085692	-0.207119
O7	O	-4.254064	-0.124729	-0.246162
O8	O	-4.677850	-0.058878	-0.180302
O9	O	-4.317611	0.009819	-0.208280
O10	O	-4.604031	-0.187560	-0.211648
O11	O	-4.604075	-0.090204	-0.308986
O12	O	-4.317568	-0.086868	-0.111611
C13	C	-3.784079	-0.216699	-0.214812
C14	C	-3.818680	-0.294782	-0.214500
C15	C	-3.801479	-0.321196	-0.149986
C16	C	-3.834063	-0.394562	-0.149672
C17	C	-3.883810	-0.441510	-0.213874
C18	C	-3.901023	-0.415090	-0.278397
C19	C	-3.868458	-0.341725	-0.278710
N20	N	-3.846542	-0.562110	-0.259091
N21	N	-3.877471	-0.631802	-0.258789
C22	C	-3.981932	-0.662553	-0.212935
N23	N	-4.054265	-0.620977	-0.167382
N24	N	-4.023324	-0.551278	-0.167682
C25	C	-3.919126	-0.521063	-0.213542
C26	C	-4.000063	-0.768517	-0.148075
C27	C	-4.032662	-0.841885	-0.147763
C28	C	-4.099602	-0.862411	-0.276490
C29	C	-4.067023	-0.789045	-0.276800
C30	C	-4.017245	-0.742102	-0.212591
C31	C	-3.784133	-0.093365	-0.338122
C32	C	-3.818767	-0.093035	-0.416203
C33	C	-3.868459	-0.157240	-0.463135
C34	C	-3.901024	-0.156937	-0.536502
C35	C	-3.883854	-0.092426	-0.562933
C36	C	-3.834166	-0.028214	-0.515991
C37	C	-3.801623	-0.028518	-0.442626
N38	N	-3.796748	-0.041847	-0.668248
N39	N	-3.827661	-0.041562	-0.737943
C40	C	-3.981909	-0.091505	-0.783977
N41	N	-4.104056	-0.141754	-0.757686
N42	N	-4.073132	-0.142041	-0.687985
C43	C	-3.919140	-0.092089	-0.642484
C44	C	-4.066916	-0.155387	-0.910463
C45	C	-4.099493	-0.155082	-0.983831
C46	C	-4.032614	-0.026356	-0.963318
C47	C	-4.000059	-0.026663	-0.889951
C48	C	-4.017203	-0.091180	-0.863529
C49	C	-4.137774	0.033088	-0.211650
C50	C	-4.082410	0.111171	-0.211967
C51	C	-4.137719	-0.090244	-0.088339
C52	C	-4.082324	-0.090570	-0.010257
H53	H	-4.081017	-0.767540	-0.329335
H54	H	-3.760961	-0.282979	-0.097702
Br55	Br	-3.810715	-0.430419	-0.062110
H56	H	-3.941531	-0.453320	-0.330671
Br57	Br	-3.891806	-0.305876	-0.366272
Br58	Br	-3.932516	-0.704805	-0.060936
H59	H	-3.941482	-0.209222	-0.574722
H60	H	-4.080880	-0.207920	-0.888949
H61	H	-3.761159	0.023767	-0.404412
H62	H	-3.959585	0.025620	-0.851737
H63	H	-4.018665	-0.863389	-0.095226
H64	H	-4.140108	-0.900637	-0.328765
H65	H	-4.139971	-0.207368	-1.022044
Br66	Br	-3.891756	-0.244799	-0.427280
Br67	Br	-3.810882	0.059338	-0.551859
Br68	Br	-4.009348	0.061196	-0.999180
