data_functionalizedCrystal
_audit_creation_method	'MofGen! by Chris Wilmer'
_symmetry_space_group_name_H-M	'P1'
_symmetry_Int_Tables_number	1
_symmetry_cell_setting	triclinic
loop_
_symmetry_equiv_pos_as_xyz
  x,y,z
_cell_length_a	17.077404
_cell_length_b	19.121063
_cell_length_c	17.077404
_cell_angle_alpha	87.574158
_cell_angle_beta	90.008318
_cell_angle_gamma	92.469213
loop_
_atom_site_label
_atom_site_type_symbol
_atom_site_fract_x
_atom_site_fract_y
_atom_site_fract_z
Zn1	Zn	1.186602	-0.279735	0.457157
Zn2	Zn	1.180924	-0.397158	0.331480
Zn3	Zn	1.055360	-0.279724	0.325905
Zn4	Zn	1.049692	-0.397152	0.462704
O5	O	1.118144	-0.338442	0.394312
O6	O	1.295695	-0.295318	0.440498
O7	O	1.164264	-0.381577	0.220894
O8	O	1.077518	-0.181439	0.338661
O9	O	1.291524	-0.381588	0.348164
O10	O	1.173941	-0.181448	0.435092
O11	O	1.072012	-0.295299	0.216797
O12	O	0.944762	-0.295294	0.344039
O13	O	1.067857	-0.381579	0.571815
O14	O	0.940597	-0.381568	0.444545
O15	O	1.168445	-0.295313	0.567740
O16	O	1.158768	-0.495443	0.353542
O17	O	1.062351	-0.495438	0.449951
C18	C	0.914197	-0.338429	0.394289
C19	C	0.826947	-0.338441	0.394299
C20	C	0.783806	-0.383431	0.446555
C21	C	0.701825	-0.383433	0.446568
C22	C	0.662987	-0.338447	0.394320
C23	C	0.706135	-0.293451	0.342062
C24	C	0.788114	-0.293447	0.342053
C25	C	0.535264	-0.293465	0.342081
C26	C	0.453279	-0.293470	0.342088
C27	C	0.448975	-0.383451	0.446596
C28	C	0.530954	-0.383447	0.446587
C29	C	0.574096	-0.338452	0.394328
C30	C	1.109350	-0.520925	0.402971
C31	C	1.105659	-0.598992	0.406701
C32	C	1.154163	-0.635647	0.358301
C33	C	1.150696	-0.708999	0.361814
C34	C	1.098722	-0.745695	0.413725
C35	C	1.050216	-0.709035	0.462131
C36	C	1.053687	-0.635684	0.458621
C37	C	1.085732	-0.967168	0.426835
C38	C	1.082263	-1.040524	0.430339
C39	C	1.182745	-1.040484	0.330023
C40	C	1.186208	-0.967131	0.326515
C41	C	1.137705	-0.930478	0.374924
C42	C	1.095175	-0.820673	0.417315
C43	C	1.141256	-0.855501	0.371336
C44	C	1.322888	-0.338455	0.394334
C45	C	1.410138	-0.338461	0.394344
C46	C	1.118152	-0.338446	0.599056
C47	C	1.118155	-0.338448	0.686306
C48	C	1.126995	-0.155246	0.385636
C49	C	1.130767	-0.077179	0.381939
C50	C	1.170524	-0.293537	0.725176
C51	C	1.170518	-0.293536	0.807156
C52	C	1.118145	-0.338450	0.850265
C53	C	1.065770	-0.383363	0.811390
C54	C	1.065773	-0.383360	0.729411
C55	C	1.065768	-0.383368	0.982260
C56	C	1.065765	-0.383372	1.064245
C57	C	1.170512	-0.293544	1.060006
C58	C	1.170516	-0.293541	0.978026
C59	C	1.118142	-0.338455	0.939157
C60	C	1.118132	-0.338456	1.190364
C61	C	1.118135	-0.338461	1.103115
H62	H	0.570388	-0.256819	0.299532
C63	C	0.573680	-0.432932	0.504057
C64	C	0.631520	-0.402579	0.564289
C65	C	0.674247	-0.452064	0.621760
C66	C	0.659134	-0.531901	0.618998
C67	C	0.601291	-0.562258	0.558762
C68	C	0.558564	-0.512773	0.501292
H69	H	0.642710	-0.343476	0.566336
H70	H	0.717065	-0.429591	0.666350
H71	H	0.690762	-0.568532	0.661541
H72	H	0.590101	-0.621361	0.556716
H73	H	0.515745	-0.535246	0.456702
C74	C	0.663412	-0.243965	0.284590
C75	C	0.609711	-0.188879	0.316100
C76	C	0.566989	-0.139394	0.258626
C77	C	0.577968	-0.144995	0.169643
C78	C	0.631672	-0.200084	0.138129
C79	C	0.674394	-0.249569	0.195603
H80	H	0.601581	-0.184731	0.381974
H81	H	0.527234	-0.098614	0.281955
H82	H	0.546343	-0.108363	0.127098
H83	H	0.639801	-0.204232	0.072255
H84	H	0.714149	-0.290349	0.172274
C85	C	1.228119	-0.244131	1.102758
C86	C	1.285731	-0.194729	1.055341
C87	C	1.343337	-0.145320	1.098097
C88	C	1.343332	-0.145313	1.188271
C89	C	1.285718	-0.194717	1.235693
C90	C	1.228112	-0.244126	1.192936
H91	H	1.285737	-0.194732	0.988585
H92	H	1.385986	-0.108748	1.062992
H93	H	1.385975	-0.108737	1.219921
H94	H	1.285712	-0.194714	1.302449
H95	H	1.185463	-0.280698	1.228042
C96	C	1.198426	-0.815139	0.314235
C97	C	1.287186	-0.825150	0.321194
C98	C	1.344354	-0.784781	0.264089
C99	C	1.312762	-0.734400	0.200025
C100	C	1.223998	-0.724387	0.193063
C101	C	1.166830	-0.764756	0.250168
H102	H	1.310576	-0.862447	0.368620
H103	H	1.410063	-0.792194	0.269243
H104	H	1.355082	-0.704517	0.157753
H105	H	1.200608	-0.687090	0.145637
H106	H	1.101121	-0.757343	0.245014
C107	C	1.025092	-1.080896	0.487447
C108	C	0.936333	-1.070883	0.480491
C109	C	0.879166	-1.111257	0.537593
C110	C	0.910758	-1.161644	0.601651
C111	C	0.999522	-1.171658	0.608609
C112	C	1.056689	-1.131285	0.551507
H113	H	0.912942	-1.033582	0.433070
H114	H	0.813456	-1.103843	0.532442
H115	H	0.868439	-1.191531	0.643921
H116	H	1.022912	-1.208959	0.656031
H117	H	1.122398	-1.138699	0.556658
C118	C	0.401523	-0.432946	0.504083
C119	C	0.311349	-0.432954	0.504099
C120	C	0.263894	-0.482451	0.561580
C121	C	0.306612	-0.531941	0.619044
C122	C	0.396791	-0.531936	0.619030
C123	C	0.444247	-0.482438	0.561550
H124	H	0.279722	-0.396316	0.461559
H125	H	0.197137	-0.482454	0.561590
H126	H	0.271483	-0.568582	0.661595
H127	H	0.428419	-0.568573	0.661571
H128	H	0.511003	-0.482435	0.561540
C129	C	1.032377	-0.926851	0.480076
C130	C	1.068732	-0.876379	0.539323
C131	C	1.015375	-0.836055	0.592564
C132	C	0.925662	-0.846204	0.586559
C133	C	0.889302	-0.896678	0.527310
C134	C	0.942660	-0.937002	0.474068
H135	H	1.135147	-0.868864	0.543770
H136	H	1.042291	-0.798691	0.636425
H137	H	0.886164	-0.816354	0.625972
H138	H	0.822888	-0.904193	0.522863
H139	H	0.915743	-0.974366	0.430208
H140	H	0.421660	-0.256830	0.299552
H141	H	1.052856	-0.850559	0.459579
H142	H	0.823239	-0.256807	0.299505
C143	C	1.211337	-0.595284	0.301197
C144	C	1.204525	-0.605409	0.212439
C145	C	1.261703	-0.565049	0.155337
C146	C	1.325692	-0.514563	0.186993
C147	C	1.332506	-0.504436	0.275755
C148	C	1.275329	-0.544796	0.332858
H149	H	1.157154	-0.642784	0.189002
H150	H	1.256658	-0.572546	0.089629
H151	H	1.368018	-0.484686	0.144722
H152	H	1.379877	-0.467061	0.299193
H153	H	1.280373	-0.537299	0.398566
H154	H	1.023117	-0.419944	1.099342
C155	C	1.228136	-0.244130	0.677759
C156	C	1.225584	-0.164285	0.685249
C157	C	1.283196	-0.114874	0.637835
C158	C	1.343358	-0.145309	0.582930
C159	C	1.345912	-0.225158	0.575437
C160	C	1.288301	-0.274568	0.622852
H161	H	1.181046	-0.141752	0.725895
H162	H	1.281305	-0.055765	0.643381
H163	H	1.386006	-0.108732	0.547831
H164	H	1.390451	-0.247690	0.534791
H165	H	1.290192	-0.333678	0.617305
H166	H	1.023125	-0.419931	0.846496
H167	H	1.190193	-0.738840	0.322400
H168	H	1.228530	-0.937255	0.284245
C169	C	1.000329	-0.595360	0.511859
C170	C	0.910617	-0.605509	0.505857
C171	C	0.857261	-0.565185	0.559099
C172	C	0.893617	-0.514712	0.618344
C173	C	0.983334	-0.504561	0.624349
C174	C	1.036691	-0.544884	0.571107
H175	H	0.883700	-0.642874	0.461998
H176	H	0.790846	-0.572701	0.554654
H177	H	0.854120	-0.484862	0.657758
H178	H	1.010252	-0.467195	0.668208
H179	H	1.103105	-0.537369	0.575552
H180	H	1.222234	-1.070335	0.290613
C181	C	1.008163	-0.432775	0.939495
C182	C	0.919201	-0.427048	0.950470
C183	C	0.861604	-0.476457	0.907701
C184	C	0.892970	-0.531592	0.853958
C185	C	0.981937	-0.537321	0.842981
C186	C	1.039534	-0.487913	0.885750
H187	H	0.895978	-0.386232	0.990255
H188	H	0.795744	-0.472216	0.915827
H189	H	0.850333	-0.568168	0.822299
H190	H	1.005160	-0.578138	0.803196
H191	H	1.105393	-0.492154	0.877624
C192	C	1.228127	-0.244132	0.849909
C193	C	1.317086	-0.249872	0.838926
C194	C	1.374697	-0.200463	0.881677
C195	C	1.343347	-0.145313	0.935411
C196	C	1.254383	-0.139570	0.946396
C197	C	1.196773	-0.188979	0.903645
H198	H	1.340297	-0.290699	0.799147
H199	H	1.440554	-0.204714	0.873545
H200	H	1.385994	-0.108737	0.967057
H201	H	1.231172	-0.098742	0.986175
H202	H	1.130915	-0.184728	0.911778
H203	H	0.815421	-0.420067	0.489099
H204	H	1.007900	-0.738919	0.504401
H205	H	0.666703	-0.420069	0.489119
H206	H	1.213166	-0.256972	0.942929
H207	H	1.023121	-0.419924	0.697764
