data_functionalizedCrystal
_audit_creation_method	'MofGen! by Chris Wilmer'
_symmetry_space_group_name_H-M	'P1'
_symmetry_Int_Tables_number	1
_symmetry_cell_setting	triclinic
loop_
_symmetry_equiv_pos_as_xyz
  x,y,z
_cell_length_a	18.050589
_cell_length_b	13.032831
_cell_length_c	13.033352
_cell_angle_alpha	90.904837
_cell_angle_beta	82.828541
_cell_angle_gamma	97.166814
loop_
_atom_site_label
_atom_site_type_symbol
_atom_site_fract_x
_atom_site_fract_y
_atom_site_fract_z
Zn1	Zn	-0.501730	-1.498141	0.780808
Zn2	Zn	-0.001730	-0.998141	1.280808
Zn3	Zn	-0.612332	-1.519902	0.608834
Zn4	Zn	-0.112332	-1.019902	1.108834
Zn5	Zn	-0.470657	-1.348060	0.587056
Zn6	Zn	0.029343	-0.848060	1.087056
Zn7	Zn	-0.608356	-1.326110	0.758954
Zn8	Zn	-0.108356	-0.826110	1.258954
O9	O	-0.548269	-1.423053	0.683913
O10	O	-0.048269	-0.923053	1.183913
O11	O	-0.531070	-1.644940	0.776256
O12	O	-0.031070	-1.144940	1.276256
O13	O	-0.582199	-1.515399	0.462033
O14	O	-0.082199	-1.015399	0.962033
O15	O	-0.370865	-1.368048	0.612789
O16	O	0.129135	-0.868048	1.112789
O17	O	-0.612329	-1.660927	0.649907
O18	O	-0.112329	-1.160927	1.149907
O19	O	-0.393694	-1.478312	0.755138
O20	O	0.106306	-0.978312	1.255138
O21	O	-0.478111	-1.389148	0.446033
O22	O	0.021889	-0.889148	0.946033
O23	O	-0.474255	-1.201236	0.591598
O24	O	0.025745	-0.701236	1.091598
O25	O	-0.605551	-1.330638	0.905765
O26	O	-0.105551	-0.830638	1.405765
O27	O	-0.575421	-1.185110	0.717891
O28	O	-0.075421	-0.685110	1.217891
O29	O	-0.527214	-1.457029	0.921821
O30	O	-0.027214	-0.957029	1.421821
O31	O	-0.715719	-1.494116	0.628716
O32	O	-0.215719	-0.994116	1.128716
O33	O	-0.712798	-1.351738	0.739009
O34	O	-0.212798	-0.851738	1.239009
C35	C	-0.741207	-1.422931	0.683880
C36	C	-0.241207	-0.922931	1.183880
C37	C	-0.823759	-1.422969	0.683912
C38	C	-0.323759	-0.922969	1.183912
C39	C	-0.521035	-1.155858	0.650010
C40	C	-0.021035	-0.655858	1.150010
C41	C	-0.509405	-1.041548	0.635531
C42	C	-0.009405	-0.541548	1.135531
C43	C	-0.569405	-1.388958	0.952151
C44	C	-0.069405	-0.888958	1.452151
C45	C	-0.578412	-1.374428	1.066458
C46	C	-0.078412	-0.874428	1.566458
C47	C	-1.021653	-1.345615	0.743874
C48	C	-0.521653	-0.845615	1.243874
C49	C	-1.061129	-1.332495	0.646856
C50	C	-0.561129	-0.832495	1.146856
C51	C	-0.974901	-1.423068	0.683939
C52	C	-0.474901	-0.923068	1.183939
C53	C	-1.082512	-1.436237	0.780973
C54	C	-0.582512	-0.936237	1.280973
C55	C	-1.120897	-1.423161	0.683972
C56	C	-0.620897	-0.923161	1.183972
C57	C	-1.013281	-1.409906	0.586865
C58	C	-0.513281	-0.909906	1.086865
C59	C	-1.034669	-1.513683	0.721051
C60	C	-0.534669	-1.013683	1.221051
C61	C	-1.074122	-1.500607	0.623973
C62	C	-0.574122	-1.000607	1.123973
C63	C	-0.890796	-1.423012	0.683920
C64	C	-0.390796	-0.923012	1.183920
C65	C	-1.205000	-1.423219	0.683980
C66	C	-0.705000	-0.923219	1.183980
C67	C	-0.354582	-1.423201	0.683972
C68	C	0.145418	-0.923201	1.183972
C69	C	-0.272044	-1.423264	0.683997
C70	C	0.227956	-0.923264	1.183997
C71	C	-0.575609	-1.691292	0.717948
C72	C	-0.075609	-1.191292	1.217948
C73	C	-0.587260	-1.805599	0.732452
C74	C	-0.087260	-1.305599	1.232452
C75	C	-0.554339	-0.982645	0.691470
C76	C	-0.054339	-0.482645	1.191470
C77	C	-0.542319	-0.864500	0.676506
C78	C	-0.042319	-0.364500	1.176506
C79	C	-0.543668	-1.430486	1.125364
C80	C	-0.043668	-0.930486	1.625364
C81	C	-0.552976	-1.415470	1.243506
C82	C	-0.052976	-0.915470	1.743506
C83	C	-0.527232	-1.457008	1.416717
C84	C	-0.027232	-0.957008	1.916717
C85	C	-0.518227	-1.471536	1.302410
C86	C	-0.018227	-0.971536	1.802410
H87	H	-0.998652	-1.280040	0.794466
H88	H	-0.498652	-0.780040	1.294466
Br89	Br	-1.112205	-1.609864	0.539414
Br90	Br	-0.612205	-1.109864	1.039414
H91	H	-0.601706	-1.019683	0.750442
H92	H	-0.101706	-0.519683	1.250442
H93	H	-1.112589	-1.447339	0.863022
H94	H	-0.612589	-0.947339	1.363022
H95	H	-0.494944	-0.827465	0.617537
H96	H	0.005056	-0.327465	1.117537
H97	H	-0.589610	-1.356350	1.280533
H98	H	-0.089610	-0.856350	1.780533
Br99	Br	-0.666206	-0.867310	0.830767
Br100	Br	-0.166206	-0.367310	1.330767
Br101	Br	-1.014636	-1.641297	0.773395
Br102	Br	-0.514636	-1.141297	1.273395
H103	H	-0.462033	-1.004509	0.576567
H104	H	0.037967	-0.504509	1.076567
Br105	Br	-0.457169	-1.570079	1.240707
Br106	Br	0.042831	-1.070079	1.740707
Br107	Br	-0.639472	-1.275895	1.128169
Br108	Br	-0.139472	-0.775895	1.628169
Br109	Br	-1.081132	-1.204843	0.594548
Br110	Br	-0.581132	-0.704843	1.094548
Br111	Br	-0.963287	-1.391258	0.450054
Br112	Br	-0.463287	-0.891258	0.950054
H113	H	-0.507028	-1.489592	1.088330
H114	H	-0.007028	-0.989592	1.588330
