data_functionalizedCrystal
_audit_creation_method	'MofGen! by Chris Wilmer'
_symmetry_space_group_name_H-M	'P1'
_symmetry_Int_Tables_number	1
_symmetry_cell_setting	triclinic
loop_
_symmetry_equiv_pos_as_xyz
  x,y,z
_cell_length_a	14.908308
_cell_length_b	18.215407
_cell_length_c	14.908571
_cell_angle_alpha	93.318172
_cell_angle_beta	83.640574
_cell_angle_gamma	86.720391
loop_
_atom_site_label
_atom_site_type_symbol
_atom_site_fract_x
_atom_site_fract_y
_atom_site_fract_z
Zn1	Zn	-0.532552	-1.081608	0.390067
Zn2	Zn	-0.032552	-0.581608	0.890067
Zn3	Zn	-0.389920	-1.081513	0.532712
Zn4	Zn	0.110080	-0.581513	1.032712
Zn5	Zn	-0.381211	-0.966080	0.381349
Zn6	Zn	0.118789	-0.466080	0.881349
Zn7	Zn	-0.541230	-0.950969	0.541362
Zn8	Zn	-0.041230	-0.450969	1.041362
O9	O	-0.461228	-1.020043	0.461372
O10	O	0.038772	-0.520043	0.961372
O11	O	-0.513644	-1.184578	0.409017
O12	O	-0.013644	-0.684578	0.909017
O13	O	-0.262104	-1.072485	0.505365
O14	O	0.237896	-0.572485	1.005365
O15	O	-0.394010	-0.987769	0.255841
O16	O	0.105990	-0.487769	0.755841
O17	O	-0.408853	-1.184508	0.513818
O18	O	0.091147	-0.684508	1.013818
O19	O	-0.505200	-1.072647	0.262247
O20	O	-0.005200	-0.572647	0.762247
O21	O	-0.255706	-0.987676	0.394159
O22	O	0.244294	-0.487676	0.894159
O23	O	-0.402425	-0.861093	0.402546
O24	O	0.097575	-0.361093	0.902546
O25	O	-0.666739	-0.962014	0.528561
O26	O	-0.166739	-0.462014	1.028561
O27	O	-0.519990	-0.849991	0.520107
O28	O	-0.019990	-0.349991	1.020107
O29	O	-0.660363	-1.057995	0.417405
O30	O	-0.160363	-0.557995	0.917405
O31	O	-0.417268	-1.057832	0.660523
O32	O	0.082732	-0.557832	1.160523
O33	O	-0.528435	-0.961922	0.666878
O34	O	-0.028435	-0.461922	1.166878
C35	C	-0.461204	-0.828840	0.461320
C36	C	0.038796	-0.328840	0.961320
C37	C	-0.461217	-0.747040	0.461320
C38	C	0.038783	-0.247040	0.961320
C39	C	-0.515881	-0.482002	0.406887
C40	C	-0.015881	0.017998	0.906887
C41	C	-0.515879	-0.558862	0.406877
C42	C	-0.015879	-0.058862	0.906877
C43	C	-0.406577	-0.558825	0.515828
C44	C	0.093423	-0.058825	1.015828
C45	C	-0.406585	-0.481967	0.515842
C46	C	0.093415	0.018033	1.015842
C47	C	-0.461235	-0.443558	0.461366
C48	C	0.038765	0.056442	0.961366
C49	C	-0.461225	-0.597275	0.461342
C50	C	0.038775	-0.097275	0.961342
C51	C	-0.461222	-0.680610	0.461331
C52	C	0.038778	-0.180610	0.961331
C53	C	-0.461239	-0.360218	0.461378
C54	C	0.038761	0.139782	0.961378
C55	C	-0.697311	-1.008329	0.474920
C56	C	-0.197311	-0.508329	0.974920
C57	C	-0.797916	-1.003338	0.480693
C58	C	-0.297916	-0.503338	0.980693
C59	C	-0.980324	-1.093902	0.375774
C60	C	-0.480324	-0.593902	0.875774
C61	C	-1.074851	-1.089214	0.381196
C62	C	-0.574851	-0.589214	0.881196
C63	C	-1.081498	-0.989273	0.496952
C64	C	-0.581498	-0.489273	0.996952
C65	C	-0.986971	-0.993960	0.491531
C66	C	-0.486971	-0.493960	0.991531
C67	C	-0.936387	-1.046277	0.430941
C68	C	-0.436387	-0.546277	0.930941
C69	C	-0.841859	-1.050968	0.425525
C70	C	-0.341859	-0.550968	0.925525
C71	C	-0.848507	-0.951023	0.541276
C72	C	-0.348507	-0.451023	1.041276
C73	C	-0.943034	-0.946336	0.546697
C74	C	-0.443034	-0.446336	1.046697
C75	C	-0.226060	-1.031756	0.447812
C76	C	0.273940	-0.531756	0.947812
C77	C	-0.125441	-1.036902	0.441784
C78	C	0.374559	-0.536902	0.941784
C79	C	-0.474758	-1.008246	0.696544
C80	C	0.025242	-0.508246	1.196544
C81	C	-0.480576	-1.003265	0.797153
C82	C	0.019424	-0.503265	1.297153
C83	C	-0.461247	-0.211993	0.461410
C84	C	0.038753	0.288007	0.961410
C85	C	-0.461243	-0.293793	0.461388
C86	C	0.038757	0.206207	0.961388
C87	C	-0.546600	-0.946276	0.942296
C88	C	-0.046600	-0.446276	1.442296
C89	C	-0.541140	-0.950954	0.847765
C90	C	-0.041140	-0.450954	1.347765
C91	C	-0.425470	-1.050904	0.841079
C92	C	0.074530	-0.550904	1.341079
C93	C	-0.430931	-1.046226	0.935610
C94	C	0.069069	-0.546226	1.435610
C95	C	-0.491497	-0.993909	0.986215
C96	C	0.008503	-0.493909	1.486215
C97	C	-0.496952	-0.989228	1.080748
C98	C	0.003048	-0.489228	1.580748
C99	C	-0.381287	-1.089181	1.074061
C100	C	0.118713	-0.589181	1.574061
C101	C	-0.375827	-1.093859	0.979530
C102	C	0.124173	-0.593859	1.479530
C103	C	-0.447656	-1.031881	1.225283
C104	C	0.052344	-0.531881	1.725283
C105	C	-0.441846	-1.036867	1.124674
C106	C	0.058154	-0.536867	1.624674
H107	H	-0.800675	-1.093568	0.376190
H108	H	-0.300675	-0.593568	0.876190
H109	H	-0.362081	-0.590107	0.560178
H110	H	0.137919	-0.090107	1.060178
H111	H	-0.586012	-0.912167	0.812008
H112	H	-0.086012	-0.412167	1.312008
O113	O	-0.555836	-0.938508	1.130010
O114	O	-0.055836	-0.438508	1.630010
C115	C	-0.617509	-0.974766	1.187975
C116	C	-0.117509	-0.474766	1.687975
H117	H	-0.586461	-1.031439	1.200270
H118	H	-0.086461	-0.531439	1.700270
H119	H	-0.633451	-0.940891	1.255166
H120	H	-0.133451	-0.440891	1.755166
H121	H	-0.682487	-0.981287	1.155364
H122	H	-0.182487	-0.481287	1.655364
O123	O	-0.327934	-1.135486	1.116875
O124	O	0.172066	-0.635486	1.616875
C125	C	-0.345765	-1.120162	1.211164
C126	C	0.154235	-0.620162	1.711164
H127	H	-0.416290	-1.091821	1.228052
H128	H	0.083710	-0.591821	1.728052
H129	H	-0.341902	-1.173841	1.246660
H130	H	0.158098	-0.673841	1.746660
H131	H	-0.293524	-1.082435	1.235024
H132	H	0.206476	-0.582435	1.735024
O133	O	-0.366547	-1.101622	0.791864
O134	O	0.133453	-0.601622	1.291864
C135	C	-0.304907	-1.065368	0.733859
C136	C	0.195093	-0.565368	1.233859
H137	H	-0.300892	-1.006280	0.762079
H138	H	0.199108	-0.506280	1.262079
H139	H	-0.235218	-1.095541	0.728774
H140	H	0.264782	-0.595541	1.228774
H141	H	-0.328764	-1.064966	0.663821
H142	H	0.171236	-0.564966	1.163821
H143	H	-0.560381	-0.450732	0.362529
H144	H	-0.060381	0.049268	0.862529
H145	H	-0.939138	-1.136504	0.326444
H146	H	-0.439138	-0.636504	0.826444
H147	H	-0.362085	-0.450664	0.560211
H148	H	0.137915	0.049336	1.060211
O149	O	-0.992221	-0.895617	0.605650
O150	O	-0.492221	-0.395617	1.105650
C151	C	-1.050282	-0.931870	0.667238
C152	C	-0.550282	-0.431870	1.167238
H153	H	-1.022123	-0.990964	0.671206
H154	H	-0.522123	-0.490964	1.171206
H155	H	-1.055358	-0.901706	0.736954
H156	H	-0.555358	-0.401706	1.236954
H157	H	-1.120312	-0.932256	0.643359
H158	H	-0.620312	-0.432256	1.143359
H159	H	-0.326517	-1.136456	0.938317
H160	H	0.173483	-0.636456	1.438317
O161	O	-1.130590	-0.938352	0.555703
O162	O	-0.630590	-0.438352	1.055703
C163	C	-1.106322	-0.867148	0.534590
C164	C	-0.606322	-0.367148	1.034590
H165	H	-1.076176	-0.868357	0.460789
H166	H	-0.576176	-0.368357	0.960789
H167	H	-1.168928	-0.827312	0.545938
H168	H	-0.668928	-0.327312	1.045938
H169	H	-1.054242	-0.848198	0.579969
H170	H	-0.554242	-0.348198	1.079969
H171	H	-0.812724	-0.912245	0.586199
H172	H	-0.312724	-0.412245	1.086199
O173	O	-1.117390	-1.135556	0.327572
O174	O	-0.617390	-0.635556	0.827572
C175	C	-1.052469	-1.182721	0.272917
C176	C	-0.552469	-0.682721	0.772917
H177	H	-0.987218	-1.186749	0.306128
H178	H	-0.487218	-0.686749	0.806128
H179	H	-1.079230	-1.239834	0.264839
H180	H	-0.579230	-0.739834	0.764839
H181	H	-1.038462	-1.159720	0.203592
H182	H	-0.538462	-0.659720	0.703592
H183	H	-0.595917	-0.903679	0.983499
H184	H	-0.095917	-0.403679	1.483499
H185	H	-0.560378	-0.590160	0.362515
H186	H	-0.060378	-0.090160	0.862515
