data_functionalizedCrystal
_audit_creation_method	'MofGen! by Chris Wilmer'
_symmetry_space_group_name_H-M	'P1'
_symmetry_Int_Tables_number	1
_symmetry_cell_setting	triclinic
loop_
_symmetry_equiv_pos_as_xyz
  x,y,z
_cell_length_a	13.339070
_cell_length_b	14.519731
_cell_length_c	11.804365
_cell_angle_alpha	101.852944
_cell_angle_beta	74.875130
_cell_angle_gamma	99.659074
loop_
_atom_site_label
_atom_site_type_symbol
_atom_site_fract_x
_atom_site_fract_y
_atom_site_fract_z
O1	O	1.363581	0.449152	-0.099081
O2	O	1.863581	0.949152	0.400919
O3	O	1.068938	0.388440	-0.099072
O4	O	1.568938	0.888440	0.400928
O5	O	1.224058	0.286545	-0.099066
O6	O	1.724058	0.786545	0.400934
O7	O	1.208461	0.551047	-0.099087
O8	O	1.708461	1.051047	0.400913
O9	O	1.183221	0.313332	0.098988
O10	O	1.683221	0.813332	0.598988
O11	O	1.028100	0.415228	0.098982
O12	O	1.528100	0.915228	0.598982
O13	O	1.322744	0.475940	0.098974
O14	O	1.822744	0.975940	0.598974
Cu15	Cu	1.171693	0.448030	0.117062
Cu16	Cu	1.671693	0.948030	0.617062
Cu17	Cu	1.219988	0.416350	-0.117160
Cu18	Cu	1.719988	0.916350	0.382840
O19	O	1.167623	0.577835	0.098967
O20	O	1.667623	1.077835	0.598967
C21	C	1.010810	0.391578	-0.000044
C22	C	1.510810	0.891578	0.499956
C23	C	0.898450	0.361009	-0.000040
C24	C	1.398450	0.861009	0.499960
C25	C	0.534114	0.598698	-0.000078
C26	C	1.034114	1.098698	0.499922
C27	C	0.639683	0.627422	-0.000085
C28	C	1.139683	1.127422	0.499915
C29	C	0.704380	0.560821	-0.000074
C30	C	1.204380	1.060821	0.499926
C31	C	0.663498	0.465492	-0.000056
C32	C	1.163498	0.965492	0.499944
C33	C	0.557921	0.436764	-0.000058
C34	C	1.057921	0.936764	0.499942
C35	C	0.728186	0.398887	-0.000053
C36	C	1.228186	0.898887	0.499947
C37	C	0.687304	0.303557	-0.000035
C38	C	1.187304	0.803557	0.499965
C39	C	0.581737	0.274834	-0.000037
C40	C	1.081737	0.774834	0.499963
C41	C	0.517040	0.341435	-0.000049
C42	C	1.017040	0.841435	0.499951
C43	C	0.833763	0.427615	-0.000051
C44	C	1.333763	0.927615	0.499949
C45	C	0.857569	0.265680	-0.000031
C46	C	1.357569	0.765680	0.499969
C47	C	0.752001	0.236957	-0.000024
C48	C	1.252001	0.736957	0.499976
C49	C	1.202908	0.265393	-0.000039
C50	C	1.702908	0.765393	0.499961
C51	C	1.200717	0.162456	-0.000038
C52	C	1.700717	0.662456	0.499962
C53	C	1.198938	0.078858	-0.000040
C54	C	1.698938	0.578858	0.499960
C55	C	1.196716	-0.026017	-0.000049
C56	C	1.696716	0.473983	0.499951
C57	C	1.194952	-0.109606	-0.000057
C58	C	1.694952	0.390394	0.499943
C59	C	1.192730	-0.214488	-0.000064
C60	C	1.692730	0.285512	0.499936
C61	C	1.380872	0.472801	-0.000057
C62	C	1.880872	0.972801	0.499943
C63	C	1.493234	0.503369	-0.000069
C64	C	1.993234	1.003369	0.499931
C65	C	1.188774	0.598986	-0.000063
C66	C	1.688774	1.098986	0.499937
C67	C	1.190966	0.701923	-0.000072
C68	C	1.690966	1.201923	0.499928
N69	N	1.137733	0.470312	0.281801
N70	N	1.637733	0.970312	0.781801
N71	N	1.253957	0.394062	-0.281900
N72	N	1.753957	0.894062	0.218100
C73	C	1.335509	0.340535	0.655758
C74	C	1.835509	0.840535	1.155758
C75	C	1.361199	0.323674	0.531097
C76	C	1.861199	0.823674	1.031097
C77	C	1.305334	0.360332	0.468767
C78	C	1.805334	0.860332	0.968767
C79	C	1.223776	0.413854	0.531110
C80	C	1.723776	0.913854	1.031110
C81	C	1.198088	0.430723	0.655782
C82	C	1.698088	0.930723	1.155782
C83	C	1.167914	0.450520	0.468792
C84	C	1.667914	0.950520	0.968792
C85	C	1.086355	0.504043	0.531134
C86	C	1.586355	1.004043	1.031134
C87	C	1.060672	0.520909	0.655795
C88	C	1.560672	1.020909	1.155795
C89	C	1.116536	0.484251	0.718125
C90	C	1.616536	0.984251	1.218125
C91	C	1.193601	0.433651	0.344119
C92	C	1.693601	0.933651	0.844119
C93	C	1.056181	0.523840	0.344144
C94	C	1.556181	1.023840	0.844144
C95	C	1.030491	0.540701	0.468804
C96	C	1.530491	1.040701	0.968804
H97	H	0.790338	0.584213	-0.000082
H98	H	1.290338	1.084213	0.499918
Cl99	Cl	0.927963	0.607986	0.547190
Cl100	Cl	1.427963	1.107986	1.047190
Cl101	Cl	0.958153	0.588207	0.734170
Cl102	Cl	1.458153	1.088207	1.234170
Cl103	Cl	0.938897	0.181947	-0.000026
Cl104	Cl	1.438897	0.681947	0.499974
Cl105	Cl	0.885144	0.547453	-0.000072
Cl106	Cl	1.385144	1.047453	0.499928
Cl107	Cl	0.691071	0.747258	-0.000113
Cl108	Cl	1.191071	1.247258	0.499887
Cl109	Cl	0.985951	0.569931	0.265793
Cl110	Cl	1.485951	1.069931	0.765793
H111	H	0.481432	0.652912	-0.000098
H112	H	0.981432	1.152912	0.499902
H113	H	0.718701	0.159336	-0.000019
H114	H	1.218701	0.659336	0.499981
H115	H	1.260006	0.390073	0.293370
H116	H	1.760006	0.890073	0.793370
H117	H	0.548458	0.197209	-0.000036
H118	H	1.048458	0.697209	0.499964
Cl119	Cl	1.337628	0.339131	0.312048
Cl120	Cl	1.837628	0.839131	0.812048
Cl121	Cl	0.384318	0.305329	-0.000037
Cl122	Cl	0.884318	0.805329	0.499963
Cl123	Cl	1.463723	0.256393	0.452726
Cl124	Cl	1.963723	0.756393	0.952726
H125	H	1.380992	0.310699	0.706515
H126	H	1.880992	0.810699	1.206515
Cl127	Cl	1.084235	0.505444	0.874848
Cl128	Cl	1.584235	1.005444	1.374848
