data_functionalizedCrystal
_audit_creation_method	'MofGen! by Chris Wilmer'
_symmetry_space_group_name_H-M	'P1'
_symmetry_Int_Tables_number	1
_symmetry_cell_setting	triclinic
loop_
_symmetry_equiv_pos_as_xyz
  x,y,z
_cell_length_a	14.044220
_cell_length_b	15.944551
_cell_length_c	13.101039
_cell_angle_alpha	93.361595
_cell_angle_beta	86.340132
_cell_angle_gamma	88.343808
loop_
_atom_site_label
_atom_site_type_symbol
_atom_site_fract_x
_atom_site_fract_y
_atom_site_fract_z
O1	O	1.262927	0.198266	-0.085109
O2	O	0.986959	0.190957	-0.085135
O3	O	1.132479	0.072901	-0.085112
O4	O	1.117408	0.316322	-0.085132
O5	O	1.122038	0.081387	0.085316
O6	O	0.976518	0.199443	0.085293
O7	O	1.252486	0.206752	0.085319
Zn8	Zn	1.112845	0.204444	0.112365
Zn9	Zn	1.126601	0.193264	-0.112181
O10	O	1.106967	0.324807	0.085296
C11	C	0.946424	0.192001	0.000076
C12	C	0.841198	0.182459	0.000066
C13	C	0.648535	0.165017	0.000088
C14	C	0.590906	0.232688	0.000087
C15	C	0.483701	0.222982	0.000099
C16	C	0.755749	0.174721	0.000076
C17	C	1.126633	0.045803	0.000102
C18	C	1.124757	-0.047583	0.000102
C19	C	1.030074	-0.269531	0.000079
C20	C	1.068894	-0.323071	0.084115
C21	C	1.121364	-0.218563	0.000094
C22	C	1.079209	-0.331419	-0.083914
C23	C	1.118080	-0.383723	0.000082
C24	C	1.160204	-0.270871	0.084199
C25	C	1.170512	-0.279217	-0.083905
C26	C	1.209397	-0.332734	0.000151
C27	C	1.123253	-0.123419	0.000102
C28	C	1.116197	-0.478865	0.000081
C29	C	1.293021	0.205707	0.000106
C30	C	1.398248	0.215249	0.000108
C31	C	1.112813	0.351905	0.000079
C32	C	1.114689	0.445291	0.000072
N33	N	1.103463	0.212075	0.265612
N34	N	1.135990	0.185628	-0.265429
C35	C	1.090699	0.222464	0.474653
C36	C	1.148750	0.175242	0.525537
C37	C	1.141649	0.181022	0.641855
C38	C	1.097800	0.216684	0.358325
H39	H	0.617361	0.099799	0.000099
H40	H	1.025929	-0.342534	0.155153
C41	C	1.205764	-0.235485	0.179001
C42	C	1.206927	-0.147763	0.177936
C43	C	1.248873	-0.115134	0.265257
H44	H	1.269287	-0.257555	0.179341
H45	H	1.169891	-0.250776	0.238624
H46	H	1.242801	-0.132479	0.118329
H47	H	1.143416	-0.125670	0.177611
H48	H	1.213000	-0.130426	0.324880
H49	H	1.312394	-0.137210	0.265589
H50	H	1.249660	-0.055612	0.264550
H51	H	1.213443	-0.259735	-0.154947
H52	H	0.622082	0.297911	0.000076
C53	C	1.017274	0.282030	0.533171
C54	C	0.955469	0.236015	0.594795
C55	C	0.887830	0.290861	0.648741
H56	H	0.981684	0.310927	0.486072
H57	H	1.048913	0.321545	0.575080
H58	H	0.923833	0.196515	0.552890
H59	H	0.991032	0.207120	0.641914
H60	H	0.919468	0.330376	0.690650
H61	H	0.852246	0.319755	0.601635
H62	H	0.845892	0.259649	0.690567
H63	H	0.954293	-0.241893	0.000156
H64	H	1.203784	0.130473	0.481744
C65	C	1.310522	-0.369326	0.000430
C66	C	1.352465	-0.338406	0.088572
C67	C	1.445613	-0.372106	0.088876
H68	H	1.346925	-0.353619	-0.058624
H69	H	1.308850	-0.428873	-0.000081
H70	H	1.354142	-0.278873	0.089073
H71	H	1.316090	-0.354111	0.147641
H72	H	1.443942	-0.431653	0.088366
H73	H	1.482007	-0.356397	0.029818
H74	H	1.474080	-0.351139	0.148683
H75	H	1.044938	-0.357926	-0.154965
