data_functionalizedCrystal
_audit_creation_method	'MofGen! by Chris Wilmer'
_symmetry_space_group_name_H-M	'P1'
_symmetry_Int_Tables_number	1
_symmetry_cell_setting	triclinic
loop_
_symmetry_equiv_pos_as_xyz
  x,y,z
_cell_length_a	12.594516
_cell_length_b	11.169417
_cell_length_c	11.169409
_cell_angle_alpha	90.021683
_cell_angle_beta	89.968646
_cell_angle_gamma	89.985009
loop_
_atom_site_label
_atom_site_type_symbol
_atom_site_fract_x
_atom_site_fract_y
_atom_site_fract_z
Zn1	Zn	-0.423686	-1.834915	-0.678610
Zn2	Zn	0.076314	-1.334915	-0.178610
Zn3	Zn	-0.601712	-1.834784	-0.477931
Zn4	Zn	-0.101712	-1.334784	0.022069
Zn5	Zn	-0.423745	-1.634201	-0.477938
Zn6	Zn	0.076255	-1.134201	0.022062
Zn7	Zn	-0.601620	-1.634188	-0.678569
Zn8	Zn	-0.101620	-1.134188	-0.178569
O9	O	-0.512691	-1.734522	-0.578262
O10	O	-0.012691	-1.234522	-0.078262
O11	O	-0.447316	-2.002847	-0.652004
O12	O	0.052684	-1.502847	-0.152004
O13	O	-0.578168	-1.808127	-0.309982
O14	O	-0.078168	-1.308127	0.190018
O15	O	-0.274791	-1.660886	-0.504578
O16	O	0.225209	-1.160886	-0.004578
O17	O	-0.578111	-2.002751	-0.504566
O18	O	-0.078111	-1.502751	-0.004566
O19	O	-0.274748	-1.808349	-0.652011
O20	O	0.225252	-1.308349	-0.152011
O21	O	-0.447416	-1.660759	-0.309987
O22	O	0.052584	-1.160759	0.190013
O23	O	-0.447326	-1.466249	-0.504538
O24	O	0.052674	-0.966249	-0.004538
O25	O	-0.577953	-1.660864	-0.846524
O26	O	-0.077953	-1.160864	-0.346524
O27	O	-0.578010	-1.466240	-0.651941
O28	O	-0.078010	-0.966240	-0.151941
O29	O	-0.447226	-1.808337	-0.846555
O30	O	0.052774	-1.308337	-0.346555
O31	O	-0.750646	-1.808115	-0.504525
O32	O	-0.250646	-1.308115	-0.004525
O33	O	-0.750578	-1.660738	-0.651934
O34	O	-0.250578	-1.160738	-0.151934
C35	C	-0.512665	-1.422697	-0.578237
C36	C	-0.012665	-0.922697	-0.078237
C37	C	-0.512680	-1.289297	-0.578254
C38	C	-0.012680	-0.789297	-0.078254
C39	C	-0.789232	-1.734443	-0.578250
C40	C	-0.289232	-1.234443	-0.078250
C41	C	-0.907537	-1.734519	-0.578286
C42	C	-0.407537	-1.234519	-0.078286
C43	C	-0.976792	-1.654353	-0.658404
C44	C	-0.476792	-1.154353	-0.158404
C45	C	-1.047666	-1.625107	-0.548890
C46	C	-0.547666	-1.125107	-0.048890
C47	C	-1.047462	-1.763875	-0.687818
C48	C	-0.547462	-1.263875	-0.187818
C49	C	-0.976853	-1.705215	-0.468713
C50	C	-0.476853	-1.205215	0.031287
C51	C	-0.976643	-1.844034	-0.607715
C52	C	-0.476643	-1.344034	-0.107715
C53	C	-1.047485	-1.814829	-0.498126
C54	C	-0.547485	-1.314829	0.001874
C55	C	-0.235070	-1.734634	-0.578300
C56	C	0.264930	-1.234634	-0.078300
C57	C	-0.116764	-1.734681	-0.578316
C58	C	0.383236	-1.234681	-0.078316
C59	C	-0.512573	-1.734614	-0.891305
C60	C	-0.012573	-1.234614	-0.391305
C61	C	-0.512522	-1.734653	-1.024705
C62	C	-0.012522	-1.234653	-0.524705
C63	C	-0.512708	-1.047564	-0.578279
C64	C	-0.012708	-0.547564	-0.078279
C65	C	-0.512693	-1.180964	-0.578262
C66	C	-0.012693	-0.680964	-0.078262
C67	C	-0.512732	-1.734499	-0.266437
C68	C	-0.012732	-1.234499	0.233563
C69	C	-0.512482	-1.734692	-0.133038
C70	C	-0.012482	-1.234692	0.366962
H71	H	-0.945751	-1.586438	-0.726060
H72	H	-0.445751	-1.086438	-0.226060
C73	C	-0.934504	-1.969038	-0.641354
C74	C	-0.434504	-1.469038	-0.141354
H75	H	-0.958647	-1.989729	-0.719226
H76	H	-0.458647	-1.489729	-0.219226
H77	H	-0.959787	-2.026212	-0.585230
H78	H	-0.459787	-1.526212	-0.085230
H79	H	-0.859083	-1.968291	-0.640384
H80	H	-0.359083	-1.468291	-0.140384
C81	C	-1.089166	-1.906502	-0.406515
C82	C	-0.589166	-1.406502	0.093485
H83	H	-1.064859	-1.885510	-0.328789
H84	H	-0.564859	-1.385510	0.171211
H85	H	-1.063773	-1.984007	-0.426746
H86	H	-0.563773	-1.484007	0.073254
H87	H	-1.164590	-1.906522	-0.407478
H88	H	-0.664590	-1.406522	0.092522
C89	C	-1.089814	-1.500093	-0.515271
C90	C	-0.589814	-1.000093	-0.015271
H91	H	-1.065616	-1.443167	-0.572262
H92	H	-0.565616	-0.943167	-0.072262
H93	H	-1.064599	-1.478744	-0.438022
H94	H	-0.564599	-0.978744	0.061978
H95	H	-1.165236	-1.501241	-0.514816
H96	H	-0.665236	-1.001241	-0.014816
H97	H	-0.945964	-1.680344	-0.376070
H98	H	-0.445964	-1.180344	0.123930
C99	C	-1.089362	-1.797336	-0.812933
C100	C	-0.589362	-1.297336	-0.312933
H101	H	-1.065143	-1.740241	-0.869744
H102	H	-0.565143	-1.240241	-0.369744
H103	H	-1.164779	-1.797874	-0.811876
H104	H	-0.664779	-1.297874	-0.311876
H105	H	-1.063989	-1.874529	-0.834377
H106	H	-0.563989	-1.374529	-0.334377
