data_functionalizedCrystal
_audit_creation_method	'MofGen! by Chris Wilmer'
_symmetry_space_group_name_H-M	'P1'
_symmetry_Int_Tables_number	1
_symmetry_cell_setting	triclinic
loop_
_symmetry_equiv_pos_as_xyz
  x,y,z
_cell_length_a	13.262390
_cell_length_b	14.519731
_cell_length_c	12.376457
_cell_angle_alpha	101.297478
_cell_angle_beta	63.168449
_cell_angle_gamma	84.075143
loop_
_atom_site_label
_atom_site_type_symbol
_atom_site_fract_x
_atom_site_fract_y
_atom_site_fract_z
O1	O	1.512443	0.019563	-0.559020
O2	O	1.185385	0.051894	-0.458466
O3	O	1.357570	-0.098985	-0.511394
O4	O	1.340257	0.170443	-0.506092
O5	O	1.314539	-0.061315	-0.310155
O6	O	1.142353	0.089565	-0.257226
O7	O	1.469412	0.057234	-0.357781
Zn8	Zn	1.299050	0.079381	-0.275552
Zn9	Zn	1.355746	0.029748	-0.540694
O10	O	1.297226	0.208114	-0.304852
C11	C	1.122012	0.072382	-0.344977
C12	C	0.997290	0.077294	-0.306631
C13	C	0.739559	0.008987	-0.637342
C14	C	0.856742	0.004367	-0.673372
C15	C	0.891885	0.022599	-0.581690
C16	C	0.809833	0.045451	-0.453971
C17	C	0.692639	0.050064	-0.417938
C18	C	0.844966	0.063675	-0.362286
C19	C	0.762913	0.086528	-0.234568
C20	C	0.645732	0.091141	-0.198541
C21	C	0.610589	0.072909	-0.290223
C22	C	0.962159	0.059062	-0.398319
C23	C	0.915240	0.100139	-0.178916
C24	C	0.798057	0.104759	-0.142886
C25	C	1.335243	-0.114465	-0.410525
C26	C	1.332811	-0.216710	-0.409776
C27	C	1.330836	-0.299745	-0.409172
C28	C	1.328369	-0.403919	-0.408422
C29	C	1.326412	-0.486951	-0.407827
C30	C	1.323945	-0.591132	-0.407075
C31	C	1.532785	0.036746	-0.471272
C32	C	1.657508	0.031832	-0.509626
C33	C	1.319554	0.223592	-0.405725
C34	C	1.321987	0.325836	-0.406481
N35	N	1.260365	0.113253	-0.094603
N36	N	1.394440	-0.004132	-0.721647
C37	C	1.484240	-0.082779	0.191565
C38	C	1.511309	-0.106486	0.064905
C39	C	1.448575	-0.051553	0.025021
C40	C	1.358768	0.027091	0.111812
C41	C	1.331702	0.050804	0.238483
C42	C	1.296037	0.082030	0.071939
C43	C	1.206230	0.160674	0.158729
C44	C	1.179168	0.184383	0.285388
C45	C	1.241902	0.129451	0.325271
C46	C	1.323103	0.058316	-0.054732
C47	C	1.170565	0.191899	-0.007815
C48	C	1.143496	0.215606	0.118846
H49	H	0.987302	0.018837	-0.611033
C50	C	0.709114	0.129427	-0.004185
C51	C	0.735950	0.060746	0.049418
C52	C	0.654051	0.083445	0.177189
H53	H	0.634245	0.129547	0.004312
H54	H	0.710238	0.191293	0.037637
H55	H	0.734814	-0.001104	0.007609
H56	H	0.810805	0.060615	0.040956
H57	H	0.655176	0.145311	0.219010
H58	H	0.579188	0.083565	0.185672
H59	H	0.672255	0.036855	0.213577
H60	H	1.219859	0.148750	0.428409
C61	C	0.556799	0.115807	-0.059836
C62	C	0.583650	0.047125	-0.006243
C63	C	0.501765	0.069823	0.121532
H64	H	0.481926	0.115928	-0.051326
H65	H	0.557928	0.177673	-0.018018
H66	H	0.582509	-0.014724	-0.048048
H67	H	0.658509	0.046994	-0.014718
H68	H	0.502894	0.131689	0.163350
H69	H	0.426897	0.069943	0.130030
H70	H	0.519978	0.023231	0.157914
C71	C	1.102658	0.251556	-0.051309
C72	C	1.178164	0.291165	-0.142504
C73	C	1.115662	0.346114	-0.182620
H74	H	1.045302	0.301858	0.018389
H75	H	1.066412	0.211649	-0.086384
H76	H	1.214392	0.331070	-0.107427
H77	H	1.235522	0.240885	-0.212223
H78	H	1.079416	0.306207	-0.217695
H79	H	1.058308	0.396411	-0.112914
H80	H	1.166885	0.372988	-0.244508
H81	H	1.028955	0.040458	-0.502308
H82	H	1.535315	-0.127493	0.224047
C83	C	0.945639	-0.020411	-0.812089
C84	C	0.889781	-0.035366	-0.884668
C85	C	0.971637	-0.058183	-1.012466
H86	H	1.000817	-0.077284	-0.833465
H87	H	0.983866	0.031143	-0.828175
H88	H	0.851573	-0.086916	-0.868590
H89	H	0.834610	0.021495	-0.863331
H90	H	1.009864	-0.006630	-1.028552
H91	H	1.026810	-0.115054	-1.033829
H92	H	0.933748	-0.068325	-1.061726
H93	H	0.710934	-0.005863	-0.711975
H94	H	1.584430	-0.170516	-0.005756
H95	H	0.515170	0.076673	-0.260893
C96	C	0.953196	0.120104	-0.079224
C97	C	0.898045	0.213569	-0.000428
C98	C	0.932980	0.231985	0.091423
H99	H	1.034712	0.114166	-0.118807
H100	H	0.932767	0.075138	-0.030766
H101	H	0.918481	0.258523	-0.048879
H102	H	0.816530	0.219530	0.039185
H103	H	0.912551	0.187019	0.139880
H104	H	1.014496	0.226042	0.051829
H105	H	0.895557	0.295399	0.144904
C106	C	1.046083	0.301107	0.212907
C107	C	1.071047	0.384979	0.176416
C108	C	0.981329	0.463756	0.263025
H109	H	1.038865	0.307496	0.294097
H110	H	0.975503	0.291268	0.215202
H111	H	1.141607	0.394816	0.174135
H112	H	1.078254	0.378621	0.095240
H113	H	0.910750	0.453917	0.265319
H114	H	0.974118	0.470136	0.344209
H115	H	0.998250	0.520671	0.238272
H116	H	1.396225	-0.005716	-0.125387
C117	C	1.478093	-0.077478	-0.112536
C118	C	1.570147	-0.158123	-0.180001
C119	C	1.597360	-0.182047	-0.306723
H120	H	1.499782	-0.024817	-0.146132
H121	H	1.412417	-0.091681	-0.119138
H122	H	1.635810	-0.143915	-0.173407
H123	H	1.548484	-0.210802	-0.146444
H124	H	1.531684	-0.196250	-0.313324
H125	H	1.619044	-0.129380	-0.340307
H126	H	1.659813	-0.236772	-0.352511
C127	C	1.081504	0.269665	0.379606
C128	C	0.977653	0.254839	0.382794
C129	C	0.887659	0.333374	0.469581
H130	H	1.098103	0.326726	0.355145
H131	H	1.074291	0.275925	0.460789
H132	H	0.984867	0.248590	0.301628
H133	H	0.961018	0.197794	0.407269
H134	H	0.880446	0.339634	0.550764
H135	H	0.904270	0.390429	0.445112
H136	H	0.817185	0.323321	0.471764
