data_functionalizedCrystal
_audit_creation_method	'MofGen! by Chris Wilmer'
_symmetry_space_group_name_H-M	'P1'
_symmetry_Int_Tables_number	1
_symmetry_cell_setting	triclinic
loop_
_symmetry_equiv_pos_as_xyz
  x,y,z
_cell_length_a	8.559649
_cell_length_b	9.065218
_cell_length_c	8.140239
_cell_angle_alpha	90.001686
_cell_angle_beta	90.002379
_cell_angle_gamma	77.397275
loop_
_atom_site_label
_atom_site_type_symbol
_atom_site_fract_x
_atom_site_fract_y
_atom_site_fract_z
O1	O	-2.119401	0.049968	-0.136587
O2	O	-1.655298	-0.026097	-0.136594
O3	O	-1.896942	0.227784	-0.136587
O4	O	-1.877757	-0.203912	-0.136594
O5	O	-1.896929	0.227785	0.136640
O6	O	-1.655284	-0.026096	0.136633
O7	O	-2.119387	0.049969	0.136640
Zn8	Zn	-1.887334	0.011937	0.180017
Zn9	Zn	-1.887352	0.011936	-0.179971
O10	O	-1.877743	-0.203911	0.136633
C11	C	-1.895092	0.282539	0.000024
C12	C	-1.889578	0.445689	0.000016
C13	C	-1.595845	-0.031861	0.000018
C14	C	-1.418713	-0.049020	0.000016
C15	C	-2.178841	0.055733	0.000023
C16	C	-2.355972	0.072892	0.000015
C17	C	-1.879594	-0.258667	0.000018
C18	C	-1.885107	-0.421817	0.000015
N19	N	-1.887333	0.011940	0.425700
N20	N	-1.887365	0.011946	-0.425654
H21	H	-1.336908	-0.166528	0.000005
H22	H	-1.437769	0.190393	0.000009
