data_functionalizedCrystal
_audit_creation_method	'MofGen! by Chris Wilmer'
_symmetry_space_group_name_H-M	'P1'
_symmetry_Int_Tables_number	1
_symmetry_cell_setting	triclinic
loop_
_symmetry_equiv_pos_as_xyz
  x,y,z
_cell_length_a	19.805407
_cell_length_b	19.805405
_cell_length_c	12.759393
_cell_angle_alpha	89.962167
_cell_angle_beta	89.980254
_cell_angle_gamma	90.023727
loop_
_atom_site_label
_atom_site_type_symbol
_atom_site_fract_x
_atom_site_fract_y
_atom_site_fract_z
Zn1	Zn	1.034749	-0.269470	-0.594003
Zn2	Zn	1.534749	0.230530	-0.094003
Zn3	Zn	1.034660	-0.382676	-0.418305
Zn4	Zn	1.534660	0.117324	0.081695
Zn5	Zn	0.921559	-0.269501	-0.418335
Zn6	Zn	1.421559	0.230499	0.081665
Zn7	Zn	0.921527	-0.382617	-0.593939
Zn8	Zn	1.421527	0.117383	-0.093939
O9	O	0.978124	-0.326066	-0.506146
O10	O	1.478124	0.173934	-0.006146
O11	O	1.129453	-0.284499	-0.570711
O12	O	1.629453	0.215501	-0.070711
O13	O	1.019633	-0.367700	-0.271288
O14	O	1.519633	0.132300	0.228712
O15	O	0.936625	-0.174780	-0.441678
O16	O	1.436625	0.325220	0.058322
O17	O	1.129388	-0.367670	-0.441626
O18	O	1.629388	0.132330	0.058374
O19	O	1.019785	-0.174758	-0.570740
O20	O	1.519785	0.325242	-0.070740
O21	O	0.936539	-0.284550	-0.271310
O22	O	1.436539	0.215450	0.228690
O23	O	0.826839	-0.284494	-0.441616
O24	O	1.326839	0.215506	0.058384
O25	O	0.936570	-0.367571	-0.740969
O26	O	1.436570	0.132429	-0.240969
O27	O	0.826815	-0.367601	-0.570631
O28	O	1.326815	0.132399	-0.070631
O29	O	1.019753	-0.284443	-0.741016
O30	O	1.519753	0.215557	-0.241016
O31	O	1.019601	-0.477384	-0.441563
O32	O	1.519601	0.022616	0.058437
O33	O	0.936483	-0.477342	-0.570601
O34	O	1.436483	0.022658	-0.070601
C35	C	0.802268	-0.326045	-0.506120
C36	C	1.302268	0.173955	-0.006120
C37	C	0.727036	-0.326052	-0.506134
C38	C	1.227036	0.173948	-0.006134
C39	C	0.691726	-0.282821	-0.573451
C40	C	1.191726	0.217179	-0.073451
C41	C	0.621038	-0.282825	-0.573455
C42	C	1.121038	0.217175	-0.073455
C43	C	0.585660	-0.326063	-0.506147
C44	C	1.085660	0.173937	-0.006147
C45	C	0.620974	-0.369296	-0.438823
C46	C	1.120974	0.130704	0.061177
C47	C	0.691662	-0.369288	-0.438814
C48	C	1.191662	0.130712	0.061186
C49	C	0.335901	-0.369326	-0.438855
C50	C	0.835901	0.130674	0.061145
C51	C	0.265209	-0.369332	-0.438871
C52	C	0.765209	0.130668	0.061129
C53	C	0.265277	-0.282863	-0.573496
C54	C	0.765277	0.217137	-0.073496
C55	C	0.335964	-0.282855	-0.573487
C56	C	0.835964	0.217145	-0.073487
C57	C	0.371273	-0.326085	-0.506160
C58	C	0.871273	0.173915	-0.006160
C59	C	0.447921	-0.326080	-0.506155
C60	C	0.947921	0.173920	-0.006155
C61	C	0.509013	-0.326072	-0.506156
C62	C	1.009013	0.173928	-0.006156
C63	C	0.978047	-0.501922	-0.506095
C64	C	1.478047	-0.001922	-0.006095
C65	C	0.978077	-0.577154	-0.506108
C66	C	1.478077	-0.077154	-0.006108
C67	C	1.021398	-0.612498	-0.438989
C68	C	1.521398	-0.112498	0.061011
C69	C	1.021427	-0.683186	-0.439012
C70	C	1.521427	-0.183186	0.060988
C71	C	0.978130	-0.718530	-0.506150
C72	C	1.478130	-0.218530	-0.006150
C73	C	0.934807	-0.683181	-0.573277
C74	C	1.434807	-0.183181	-0.073277
C75	C	0.934782	-0.612494	-0.573258
C76	C	1.434782	-0.112494	-0.073258
C77	C	0.934907	-0.968254	-0.573355
C78	C	1.434907	-0.468254	-0.073355
C79	C	0.934933	-1.038946	-0.573366
C80	C	1.434933	-0.538946	-0.073366
C81	C	1.021552	-1.038947	-0.439108
C82	C	1.521552	-0.538947	0.060892
C83	C	1.021527	-0.968260	-0.439090
C84	C	1.521527	-0.468260	0.060910
C85	C	0.978206	-0.932917	-0.506220
C86	C	1.478206	-0.432917	-0.006220
C87	C	0.978177	-0.856268	-0.506196
C88	C	1.478177	-0.356268	-0.006196
C89	C	0.978156	-0.795177	-0.506170
C90	C	1.478156	-0.295177	-0.006170
C91	C	1.154666	-0.326088	-0.506172
C92	C	1.654666	0.173912	-0.006172
C93	C	1.229898	-0.326097	-0.506183
C94	C	1.729898	0.173903	-0.006183
C95	C	0.978168	-0.325997	-0.780179
C96	C	1.478168	0.174003	-0.280179
C97	C	0.978186	-0.325968	-0.896956
C98	C	1.478186	0.174032	-0.396956
C99	C	0.978219	-0.149523	-0.506220
C100	C	1.478219	0.350477	-0.006220
C101	C	0.978259	-0.074291	-0.506251
C102	C	1.478259	0.425709	-0.006251
C103	C	0.934938	-0.282664	-0.951836
C104	C	1.434938	0.217336	-0.451836
C105	C	0.934958	-0.282644	-1.061560
C106	C	1.434958	0.217356	-0.561560
C107	C	1.021482	-0.369233	-1.061515
C108	C	1.521482	0.130767	-0.561515
C109	C	1.021458	-0.369256	-0.951793
C110	C	1.521458	0.130744	-0.451793
C111	C	0.884986	-0.232670	-0.951863
C112	C	1.384986	0.267330	-0.451863
C113	C	0.885006	-0.232650	-1.061587
C114	C	1.385006	0.267350	-0.561587
C115	C	0.978119	-0.326086	-0.233178
C116	C	1.478119	0.173914	0.266822
C117	C	0.978231	-0.325925	-0.116402
C118	C	1.478231	0.174075	0.383598
H119	H	0.720526	-0.247613	-0.628264
H120	H	1.220526	0.252387	-0.128264
H121	H	0.592164	-0.404498	-0.384014
H122	H	1.092164	0.095502	0.115986
Cl123	Cl	0.736051	-0.423638	-0.354185
Cl124	Cl	1.236051	0.076362	0.145815
H125	H	0.899632	-0.939483	-0.628013
H126	H	1.399632	-0.439483	-0.128013
Cl127	Cl	0.380435	-0.228499	-0.658111
Cl128	Cl	0.880435	0.271501	-0.158111
Cl129	Cl	0.808124	-0.261628	-1.114120
Cl130	Cl	1.308124	0.238372	-0.614120
Cl131	Cl	1.075876	-0.423650	-1.130460
Cl132	Cl	1.575876	0.076350	-0.630460
Cl133	Cl	0.804031	-0.254341	-0.905871
Cl134	Cl	1.304031	0.245659	-0.405871
Cl135	Cl	0.576652	-0.228477	-0.658089
Cl136	Cl	1.076652	0.271523	-0.158089
Cl137	Cl	1.076017	-1.083382	-0.354720
Cl138	Cl	1.576017	-0.583382	0.145280
Cl139	Cl	1.075828	-0.568073	-0.354574
Cl140	Cl	1.575828	-0.068073	0.145426
Cl141	Cl	0.906626	-0.151682	-1.107614
Cl142	Cl	1.406626	0.348318	-0.607614
H143	H	0.899557	-0.711963	-0.627947
H144	H	1.399557	-0.211963	-0.127947
H145	H	0.903784	-0.182885	-0.917856
H146	H	1.403784	0.317115	-0.417856
H147	H	0.364641	-0.404527	-0.384034
H148	H	0.864641	0.095473	0.115966
H149	H	0.236406	-0.404543	-0.384057
H150	H	0.736406	0.095457	0.115943
Cl151	Cl	0.220885	-0.228513	-0.658134
Cl152	Cl	0.720885	0.271487	-0.158134
H153	H	1.056704	-0.711960	-0.384356
H154	H	1.556704	-0.211960	0.115644
H155	H	0.899677	-1.067721	-0.628046
H156	H	1.399677	-0.567721	-0.128046
Cl157	Cl	1.075960	-0.923832	-0.354684
Cl158	Cl	1.575960	-0.423832	0.145316
Cl159	Cl	0.880320	-0.568061	-0.657645
Cl160	Cl	1.380320	-0.068061	-0.157645
H161	H	1.056665	-0.404528	-0.907114
H162	H	1.556665	0.095472	-0.407114
