data_functionalizedCrystal
_audit_creation_method	'MofGen! by Chris Wilmer'
_symmetry_space_group_name_H-M	'P1'
_symmetry_Int_Tables_number	1
_symmetry_cell_setting	triclinic
loop_
_symmetry_equiv_pos_as_xyz
  x,y,z
_cell_length_a	17.640280
_cell_length_b	12.759401
_cell_length_c	12.759393
_cell_angle_alpha	90.020362
_cell_angle_beta	78.768122
_cell_angle_gamma	101.201921
loop_
_atom_site_label
_atom_site_type_symbol
_atom_site_fract_x
_atom_site_fract_y
_atom_site_fract_z
Zn1	Zn	-0.314680	-1.690831	-0.509554
Zn2	Zn	-0.446878	-1.726256	-0.298384
Zn3	Zn	-0.314715	-1.515143	-0.333878
Zn4	Zn	-0.446811	-1.550634	-0.474038
O5	O	-0.380771	-1.620716	-0.403963
O6	O	-0.332230	-1.842555	-0.481551
O7	O	-0.429389	-1.698223	-0.156060
O8	O	-0.204103	-1.508769	-0.386900
O9	O	-0.429355	-1.868581	-0.326405
O10	O	-0.204077	-1.637847	-0.515968
O11	O	-0.332290	-1.543119	-0.182137
O12	O	-0.332225	-1.372826	-0.352461
O13	O	-0.429241	-1.569260	-0.625782
O14	O	-0.429275	-1.398902	-0.455436
O15	O	-0.332165	-1.672262	-0.651875
O16	O	-0.557477	-1.732638	-0.291967
O17	O	-0.557428	-1.603610	-0.421019
C18	C	-0.380747	-1.347742	-0.403947
C19	C	-0.380756	-1.230968	-0.403959
C20	C	-0.586132	-1.675848	-0.348810
C21	C	-0.673986	-1.699530	-0.325250
C22	C	-0.330278	-1.052850	-0.484827
C23	C	-0.330271	-1.162572	-0.484822
C24	C	-0.431256	-1.189638	-0.323102
C25	C	-0.431267	-1.079919	-0.323113
C26	C	-0.279785	-0.984457	-0.565689
C27	C	-0.229285	-1.025779	-0.646548
C28	C	-0.229278	-1.135501	-0.646543
C29	C	-0.279770	-1.203901	-0.565679
C30	C	-0.962937	-1.441239	-0.583327
C31	C	-1.045490	-1.463494	-0.561155
C32	C	-1.045475	-1.597935	-0.426909
C33	C	-0.962921	-1.575695	-0.449073
C34	C	-0.921659	-1.497345	-0.527282
C35	C	-0.921643	-1.631801	-0.393028
C36	C	-0.839096	-1.609559	-0.415187
C37	C	-0.797828	-1.531210	-0.493390
C38	C	-0.839112	-1.475103	-0.549440
C39	C	-0.962907	-1.710145	-0.314814
C40	C	-0.921629	-1.766251	-0.258770
C41	C	-0.839080	-1.744014	-0.280933
C42	C	-0.797812	-1.665666	-0.359136
C43	C	-0.797796	-1.800122	-0.224883
C44	C	-0.715249	-1.777879	-0.247041
C45	C	-0.715265	-1.643424	-0.381295
C46	C	-0.174608	-1.565397	-0.459355
C47	C	-0.086754	-1.541824	-0.482960
C48	C	-0.380691	-1.620768	-0.678018
C49	C	-0.380657	-1.620790	-0.794804
C50	C	-0.380788	-0.894754	-0.403977
C51	C	-0.380774	-1.011527	-0.403975
C52	C	-0.330105	-1.674432	-0.863256
C53	C	-0.330076	-1.674449	-0.972988
C54	C	-0.431159	-1.567183	-0.945804
C55	C	-0.431183	-1.567160	-0.836076
C56	C	-0.279579	-1.728062	-0.821985
C57	C	-0.229023	-1.781709	-0.890438
C58	C	-0.228995	-1.781726	-1.000170
C59	C	-0.279522	-1.728097	-1.041448
C60	C	-0.380794	-1.620709	-0.130990
C61	C	-0.380605	-1.620831	-0.014265
H62	H	-0.279782	-0.895114	-0.565699
H63	H	-0.188180	-0.970083	-0.712388
H64	H	-0.472296	-1.523520	-0.979423
H65	H	-0.929339	-1.377446	-0.647020
H66	H	-0.188164	-1.169144	-0.712387
H67	H	-0.279755	-1.293242	-0.565676
C68	C	-0.476071	-1.369849	-0.251277
C69	C	-0.486748	-1.264819	-0.234214
H70	H	-0.510325	-1.416258	-0.196394
H71	H	-0.487702	-1.390984	-0.318707
H72	H	-0.422945	-1.373536	-0.250283
H73	H	-0.539873	-1.261130	-0.235216
H74	H	-0.475122	-1.243679	-0.166766
H75	H	-1.030122	-1.728254	-0.296778
C76	C	-0.531081	-1.117684	-0.163253
C77	C	-0.486770	-1.034488	-0.234237
H78	H	-0.565345	-1.089634	-0.108384
H79	H	-0.561349	-1.168632	-0.200827
H80	H	-0.496598	-1.151197	-0.132394
H81	H	-0.521254	-1.000980	-0.265102
H82	H	-0.456500	-0.983521	-0.196658
C83	C	-0.565034	-1.551935	-0.766285
C84	C	-0.486763	-1.508229	-0.760806
H85	H	-0.599346	-1.515561	-0.719806
H86	H	-0.572252	-1.544253	-0.837529
H87	H	-0.576588	-1.625632	-0.745216
H88	H	-0.475207	-1.434533	-0.781883
H89	H	-0.479541	-1.515901	-0.689547
H90	H	-0.681640	-1.823566	-0.201402
H91	H	-0.681667	-1.579631	-0.444988
H92	H	-0.730612	-1.513095	-0.511422
C93	C	-0.847409	-1.344447	-0.679952
C94	C	-0.793747	-1.388993	-0.635425
H95	H	-0.819401	-1.291289	-0.733030
H96	H	-0.879564	-1.398868	-0.711538
H97	H	-0.879645	-1.312958	-0.625485
H98	H	-0.761515	-1.420490	-0.689891
H99	H	-0.761578	-1.334563	-0.603840
H100	H	-1.079096	-1.417812	-0.606812
H101	H	-1.079083	-1.661724	-0.363228
H102	H	-0.187881	-1.825364	-0.856822
C103	C	-1.048161	-1.860027	-0.165168
C104	C	-0.966989	-1.852358	-0.172791
H105	H	-1.076162	-1.913188	-0.112089
H106	H	-1.061722	-1.793103	-0.146095
H107	H	-1.061650	-1.879010	-0.232151
H108	H	-0.953500	-1.833367	-0.105811
H109	H	-0.953422	-1.919296	-0.191859
H110	H	-0.187824	-1.825398	-1.055903
H111	H	-0.831404	-1.863906	-0.161198
H112	H	-0.279485	-1.728100	-1.130803
C113	C	-0.224583	-1.786437	-0.679595
C114	C	-0.279606	-1.728040	-0.701368
H115	H	-0.224600	-1.786416	-0.605131
H116	H	-0.238260	-1.857899	-0.700745
H117	H	-0.173570	-1.754585	-0.718130
H118	H	-0.330621	-1.759896	-0.662838
H119	H	-0.265934	-1.656564	-0.680206
