data_functionalizedCrystal
_audit_creation_method	'MofGen! by Chris Wilmer'
_symmetry_space_group_name_H-M	'P1'
_symmetry_Int_Tables_number	1
_symmetry_cell_setting	triclinic
loop_
_symmetry_equiv_pos_as_xyz
  x,y,z
_cell_length_a	10.654554
_cell_length_b	9.130313
_cell_length_c	12.837942
_cell_angle_alpha	90.000655
_cell_angle_beta	90.342158
_cell_angle_gamma	90.001696
loop_
_atom_site_label
_atom_site_type_symbol
_atom_site_fract_x
_atom_site_fract_y
_atom_site_fract_z
O1	O	1.683740	0.121753	-0.145738
O2	O	1.319776	0.121766	-0.159617
O3	O	1.493688	0.121750	-0.001717
O4	O	1.509829	0.121768	-0.303638
O5	O	1.493675	-0.121848	-0.001726
O6	O	1.319764	-0.121833	-0.159626
O7	O	1.683728	-0.121846	-0.145747
Cu8	Cu	1.501745	-0.144082	-0.152688
Cu9	Cu	1.501759	0.144002	-0.152677
O10	O	1.509816	-0.121831	-0.303648
C11	C	1.272861	-0.000032	-0.158601
C12	C	1.133085	-0.000028	-0.155550
C13	C	0.932409	-0.000036	-0.245655
C14	C	1.063744	-0.000024	-0.248523
C15	C	1.071086	-0.000028	-0.059702
C16	C	0.939754	-0.000029	-0.056835
C17	C	0.863075	-0.000047	-0.338635
C18	C	0.925065	-0.000044	-0.434483
C19	C	1.056399	-0.000033	-0.437351
C20	C	1.125743	-0.000024	-0.344371
N21	N	1.501744	-0.346705	-0.152695
C22	C	1.585503	-0.423370	-0.216202
C23	C	1.585519	-0.576707	-0.216183
C24	C	1.418006	-0.576700	-0.089147
C25	C	1.417997	-0.423366	-0.089161
C26	C	1.669250	-0.346709	-0.279736
C27	C	1.753016	-0.423374	-0.343250
C28	C	1.753032	-0.576711	-0.343230
C29	C	1.669283	-0.653382	-0.279698
C30	C	1.730643	-0.000045	-0.146763
C31	C	1.870419	-0.000040	-0.149815
C32	C	1.488229	-0.000048	0.036939
C33	C	1.471966	-0.000045	0.152133
N34	N	1.501769	0.346624	-0.152661
C35	C	1.515275	-0.000029	-0.342303
C36	C	1.531538	-0.000023	-0.457497
C37	C	1.667471	-0.000021	0.391683
C38	C	1.652197	-0.000018	0.499919
C39	C	1.426145	-0.000026	0.476842
C40	C	1.441419	-0.000029	0.368607
C41	C	1.562086	-0.000029	0.326031
C42	C	1.577359	-0.000042	0.217793
C43	C	1.351309	-0.000039	0.194719
C44	C	1.336034	-0.000036	0.302955
H45	H	0.868597	-0.000040	-0.510183
F46	F	1.144890	-0.000025	0.039246
H47	H	1.738012	-0.000008	0.553370
H48	H	1.232684	0.000016	-0.346714
H49	H	0.889280	-0.000030	0.021207
F50	F	1.669316	-0.816579	-0.279670
H51	H	1.327904	-0.000010	0.511527
F52	F	1.669237	-0.183515	-0.279765
F53	F	1.842152	-0.341773	-0.410853
F54	F	1.122371	-0.000012	-0.539359
H55	H	1.821246	-0.639127	-0.394938
H56	H	1.349819	-0.639138	-0.037423
F57	F	1.239143	-0.000062	0.124839
F58	F	1.328869	-0.341769	-0.021552
F59	F	1.705781	-0.000052	0.172483
F60	F	1.795891	-0.000052	0.346369
F61	F	1.207619	-0.000024	0.348279
H62	H	0.756135	-0.000062	-0.336310
