data_functionalizedCrystal
_audit_creation_method	'MofGen! by Chris Wilmer'
_symmetry_space_group_name_H-M	'P1'
_symmetry_Int_Tables_number	1
_symmetry_cell_setting	triclinic
loop_
_symmetry_equiv_pos_as_xyz
  x,y,z
_cell_length_a	16.625548
_cell_length_b	18.101395
_cell_length_c	16.625539
_cell_angle_alpha	89.972352
_cell_angle_beta	89.979432
_cell_angle_gamma	90.032172
loop_
_atom_site_label
_atom_site_type_symbol
_atom_site_fract_x
_atom_site_fract_y
_atom_site_fract_z
Zn1	Zn	1.232632	-0.294807	-0.455913
Zn2	Zn	1.732632	0.205193	0.044087
Zn3	Zn	1.232515	-0.418656	-0.321082
Zn4	Zn	1.732515	0.081344	0.178918
Zn5	Zn	1.097794	-0.294835	-0.321094
Zn6	Zn	1.597794	0.205165	0.178906
Zn7	Zn	1.097744	-0.418614	-0.455872
Zn8	Zn	1.597744	0.081386	0.044128
O9	O	1.165171	-0.356728	-0.388490
O10	O	1.665171	0.143272	0.111510
O11	O	1.345449	-0.311242	-0.438040
O12	O	1.845449	0.188758	0.061960
O13	O	1.214616	-0.402261	-0.208251
O14	O	1.714616	0.097739	0.291749
O15	O	1.115750	-0.191199	-0.339000
O16	O	1.615750	0.308801	0.161000
O17	O	1.345363	-0.402233	-0.338980
O18	O	1.845363	0.097767	0.161020
O19	O	1.214815	-0.191178	-0.438051
O20	O	1.714815	0.308822	0.061949
O21	O	1.115637	-0.311290	-0.208260
O22	O	1.615637	0.188710	0.291740
O23	O	0.984955	-0.311249	-0.338960
O24	O	1.484955	0.188751	0.161040
O25	O	1.115665	-0.402161	-0.568710
O26	O	1.615665	0.097839	-0.068710
O27	O	0.984918	-0.402188	-0.437981
O28	O	1.484918	0.097812	0.062019
O29	O	1.214767	-0.311201	-0.568740
O30	O	1.714767	0.188799	-0.068740
O31	O	1.214567	-0.522284	-0.338940
O32	O	1.714567	-0.022284	0.161060
O33	O	1.115552	-0.522252	-0.437969
O34	O	1.615552	-0.022252	0.062031
C35	C	0.955680	-0.356718	-0.388467
C36	C	1.455680	0.143282	0.111533
C37	C	0.866059	-0.356731	-0.388477
C38	C	1.366059	0.143269	0.111523
C39	C	0.537884	-0.356736	-0.388511
C40	C	1.037884	0.143264	0.111489
C41	C	0.629192	-0.356732	-0.388499
C42	C	1.129192	0.143268	0.111501
C43	C	0.701969	-0.356734	-0.388494
C44	C	1.201969	0.143266	0.111506
C45	C	0.793283	-0.356729	-0.388483
C46	C	1.293283	0.143271	0.111517
C47	C	1.165063	-0.549139	-0.388466
C48	C	1.665063	-0.049139	0.111534
C49	C	1.165091	-0.631453	-0.388483
C50	C	1.665091	-0.131453	0.111517
C51	C	1.165268	-0.930544	-0.388527
C52	C	1.665268	-0.430544	0.111473
C53	C	1.103114	-0.899230	-0.450988
C54	C	1.603114	-0.399230	0.049012
C55	C	1.102819	-0.813612	-0.450793
C56	C	1.602819	-0.313612	0.049207
C57	C	1.165180	-0.782161	-0.388506
C58	C	1.665180	-0.282161	0.111494
C59	C	1.142173	-0.813313	-0.303528
C60	C	1.642173	-0.313313	0.196472
C61	C	1.141772	-0.898959	-0.303901
C62	C	1.641772	-0.398959	0.196099
C63	C	1.250565	-0.898886	-0.410295
C64	C	1.750565	-0.398886	0.089705
C65	C	1.250063	-0.813235	-0.412159
C66	C	1.750063	-0.313235	0.087841
C67	C	1.165132	-0.698302	-0.388489
C68	C	1.665132	-0.198302	0.111511
C69	C	1.165314	-1.014403	-0.388538
C70	C	1.665314	-0.514403	0.111462
C71	C	1.375480	-0.356739	-0.388513
C72	C	1.875480	0.143261	0.111487
C73	C	1.465101	-0.356744	-0.388523
C74	C	1.965101	0.143256	0.111477
C75	C	1.165224	-0.356673	-0.598799
C76	C	1.665224	0.143327	-0.098799
C77	C	1.165246	-0.356649	-0.688420
C78	C	1.665246	0.143351	-0.188420
C79	C	1.165302	-0.163566	-0.388531
C80	C	1.665302	0.336434	0.111469
C81	C	1.165357	-0.081252	-0.388549
C82	C	1.665357	0.418748	0.111451
C83	C	1.165283	-0.356567	-1.016596
C84	C	1.665283	0.143433	-0.516596
C85	C	1.165271	-0.356592	-0.925287
C86	C	1.665271	0.143408	-0.425287
C87	C	1.165265	-0.356609	-0.852511
C88	C	1.665265	0.143391	-0.352511
C89	C	1.165252	-0.356633	-0.761197
C90	C	1.665252	0.143367	-0.261197
C91	C	1.165165	-0.356730	-0.178999
C92	C	1.665165	0.143270	0.321001
C93	C	1.165299	-0.356545	-0.089378
C94	C	1.665299	0.143455	0.410622
H95	H	1.117214	-0.792547	-0.513803
H96	H	1.617214	-0.292547	-0.013803
C97	C	1.291589	-0.868388	-0.544761
C98	C	1.791589	-0.368388	-0.044761
C99	C	1.278888	-0.927967	-0.492522
C100	C	1.778888	-0.427967	0.007478
H101	H	1.309073	-0.886344	-0.595523
H102	H	1.809073	-0.386344	-0.095523
H103	H	1.242811	-0.841764	-0.551290
H104	H	1.742811	-0.341764	-0.051290
H105	H	1.331508	-0.836658	-0.522900
H106	H	1.831508	-0.336658	-0.022900
H107	H	1.238964	-0.959694	-0.514380
H108	H	1.738964	-0.459694	-0.014380
H109	H	1.327672	-0.954603	-0.485994
H110	H	1.827672	-0.454603	0.014006
H111	H	1.296871	-0.919135	-0.364802
H112	H	1.796871	-0.419135	0.135198
C113	C	0.988937	-0.743080	-0.495288
C114	C	1.488937	-0.243080	0.004712
C115	C	1.017470	-0.786039	-0.431322
C116	C	1.517470	-0.286039	0.068678
H117	H	0.936242	-0.726063	-0.483266
H118	H	1.436242	-0.226063	0.016734
H119	H	1.023582	-0.701957	-0.503109
H120	H	1.523582	-0.201957	-0.003109
H121	H	0.987624	-0.772091	-0.542868
H122	H	1.487624	-0.272091	-0.042868
H123	H	1.018789	-0.757026	-0.383744
H124	H	1.518789	-0.257026	0.116256
H125	H	0.982816	-0.827168	-0.423492
H126	H	1.482816	-0.327168	0.076508
C127	C	1.239162	-0.846454	-0.202835
C128	C	1.739162	-0.346454	0.297165
C129	C	1.201387	-0.785830	-0.239003
C130	C	1.701387	-0.285830	0.260997
H131	H	1.275731	-0.829489	-0.163011
H132	H	1.775731	-0.329489	0.336989
H133	H	1.199787	-0.877239	-0.178482
H134	H	1.699787	-0.377239	0.321518
H135	H	1.267598	-0.873743	-0.242485
H136	H	1.767598	-0.373743	0.257515
H137	H	1.172946	-0.758544	-0.199354
H138	H	1.672946	-0.258544	0.300646
H139	H	1.240768	-0.755034	-0.263356
H140	H	1.740768	-0.255034	0.236644
H141	H	1.117366	-0.919777	-0.514202
H142	H	1.617366	-0.419777	-0.014202
H143	H	1.040275	-0.920817	-0.436750
H144	H	1.540275	-0.420817	0.063250
H145	H	1.079421	-0.919003	-0.285461
H146	H	1.579421	-0.419003	0.214539
C147	C	1.006777	-0.844244	-0.266112
C148	C	1.506777	-0.344244	0.233888
C149	C	1.058888	-0.784459	-0.278184
C150	C	1.558888	-0.284459	0.221816
H151	H	0.955361	-0.826431	-0.250464
H152	H	1.455361	-0.326431	0.249536
H153	H	1.001951	-0.871569	-0.314631
H154	H	1.501951	-0.371569	0.185369
H155	H	1.027672	-0.875273	-0.225042
H156	H	1.527672	-0.375273	0.274958
H157	H	1.037995	-0.753433	-0.319258
H158	H	1.537995	-0.253433	0.180742
H159	H	1.063712	-0.757123	-0.229658
H160	H	1.563712	-0.257123	0.270342
C161	C	1.353116	-0.844045	-0.316753
C162	C	1.853116	-0.344045	0.183247
C163	C	1.315888	-0.784335	-0.355219
C164	C	1.815888	-0.284335	0.144781
H165	H	1.393754	-0.826203	-0.281599
H166	H	1.893754	-0.326203	0.218401
H167	H	1.314238	-0.870840	-0.286682
H168	H	1.814238	-0.370840	0.213318
H169	H	1.376616	-0.875582	-0.355893
H170	H	1.876616	-0.375582	0.144107
H171	H	1.292382	-0.752801	-0.316079
H172	H	1.792382	-0.252801	0.183921
H173	H	1.354772	-0.757529	-0.385291
H174	H	1.854772	-0.257529	0.114709
H175	H	1.185078	-0.919675	-0.255776
H176	H	1.685078	-0.419675	0.244224
H177	H	1.267413	-0.792871	-0.474698
H178	H	1.767413	-0.292871	0.025302
