data_functionalizedCrystal
_audit_creation_method	'MofGen! by Chris Wilmer'
_symmetry_space_group_name_H-M	'P1'
_symmetry_Int_Tables_number	1
_symmetry_cell_setting	triclinic
loop_
_symmetry_equiv_pos_as_xyz
  x,y,z
_cell_length_a	25.639242
_cell_length_b	12.759400
_cell_length_c	12.759393
_cell_angle_alpha	90.023884
_cell_angle_beta	90.031512
_cell_angle_gamma	89.998974
loop_
_atom_site_label
_atom_site_type_symbol
_atom_site_fract_x
_atom_site_fract_y
_atom_site_fract_z
Zn1	Zn	0.799401	-0.418341	0.594365
Zn2	Zn	1.299401	0.081659	1.094365
Zn3	Zn	0.799364	-0.594056	0.418705
Zn4	Zn	1.299364	-0.094056	0.918705
Zn5	Zn	0.711963	-0.418378	0.418668
Zn6	Zn	1.211963	0.081622	0.918668
Zn7	Zn	0.711977	-0.593964	0.594310
Zn8	Zn	1.211977	-0.093964	1.094310
O9	O	0.755676	-0.506185	0.506512
O10	O	1.255676	-0.006185	1.006512
O11	O	0.872562	-0.441672	0.571102
O12	O	1.372562	0.058328	1.071102
O13	O	0.787749	-0.570806	0.271679
O14	O	1.287749	-0.070806	0.771679
O15	O	0.723572	-0.271352	0.441981
O16	O	1.223572	0.228648	0.941981
O17	O	0.872535	-0.570770	0.442046
O18	O	1.372535	-0.070770	0.942046
O19	O	0.787813	-0.271325	0.571065
O20	O	1.287813	0.228675	1.071065
O21	O	0.723536	-0.441736	0.271651
O22	O	1.223536	0.058264	0.771651
O23	O	0.638800	-0.441647	0.441928
O24	O	1.138800	0.058353	0.941928
O25	O	0.723595	-0.570613	0.741338
O26	O	1.223595	-0.070613	1.241338
O27	O	0.638810	-0.570650	0.570972
O28	O	1.138810	-0.070650	1.070972
O29	O	0.787825	-0.441583	0.741379
O30	O	1.287825	0.058417	1.241379
O31	O	0.787762	-0.741065	0.441992
O32	O	1.287762	-0.241065	0.941992
O33	O	0.723559	-0.740998	0.571008
O34	O	1.223559	-0.240998	1.071008
C35	C	0.619834	-0.506143	0.506441
C36	C	1.119834	-0.006143	1.006441
C37	C	0.561720	-0.506151	0.506435
C38	C	1.061720	-0.006151	1.006435
C39	C	0.755672	-0.779152	0.506521
C40	C	1.255672	-0.279152	1.006521
C41	C	0.755718	-0.895929	0.506561
C42	C	1.255718	-0.395929	1.006561
C43	C	0.755716	-0.506084	0.780545
C44	C	1.255716	-0.006084	1.280545
C45	C	0.755732	-0.506041	0.897322
C46	C	1.255732	-0.006041	1.397322
C47	C	0.201371	-0.573469	0.573641
C48	C	0.701371	-0.073469	1.073641
C49	C	0.146766	-0.573475	0.573658
C50	C	0.646766	-0.073475	1.073658
O51	O	0.118542	-0.630660	0.630739
O52	O	0.618542	-0.130660	1.130739
N53	N	0.119437	-0.506214	0.506580
N54	N	0.619437	-0.006214	1.006580
C55	C	0.146716	-0.438934	0.439490
C56	C	0.646716	0.061066	0.939490
O57	O	0.118456	-0.381723	0.382437
O58	O	0.618456	0.118277	0.882437
C59	C	0.201319	-0.438923	0.439479
C60	C	0.701319	0.061077	0.939479
C61	C	0.228645	-0.506196	0.506553
C62	C	0.728645	-0.006196	1.006553
C63	C	0.228697	-0.640736	0.640711
C64	C	0.728697	-0.140736	1.140711
C65	C	0.283298	-0.640730	0.640693
C66	C	0.783298	-0.140730	1.140693
C67	C	0.310572	-0.573458	0.573605
C68	C	0.810572	-0.073458	1.073605
C69	C	0.283246	-0.506191	0.506535
C70	C	0.783246	-0.006191	1.006535
C71	C	0.228596	-0.371639	0.372394
C72	C	0.728596	0.128361	0.872394
C73	C	0.283203	-0.371633	0.372390
C74	C	0.783203	0.128367	0.872390
C75	C	0.310529	-0.438906	0.439464
C76	C	0.810529	0.061094	0.939464
C77	C	0.365120	-0.438913	0.439429
C78	C	0.865120	0.061087	0.939429
N79	N	0.392449	-0.506175	0.506506
N80	N	0.892449	-0.006175	1.006506
C81	C	0.365175	-0.573447	0.573594
C82	C	0.865175	-0.073447	1.073594
C83	C	0.032045	-0.438961	0.439518
C84	C	0.532045	0.061039	0.939518
C85	C	-0.022557	-0.438976	0.439522
C86	C	0.477443	0.061024	0.939522
C87	C	-0.022503	-0.573516	0.573692
C88	C	0.477497	-0.073516	1.073692
C89	C	0.032101	-0.573505	0.573682
C90	C	0.532101	-0.073505	1.073682
C91	C	0.059374	-0.506222	0.506595
C92	C	0.559374	-0.006222	1.006595
C93	C	0.479840	-0.573432	0.573550
C94	C	0.979840	-0.073432	1.073550
C95	C	0.534446	-0.573423	0.573523
C96	C	1.034446	-0.073423	1.073523
C97	C	0.534386	-0.438880	0.439357
C98	C	1.034386	0.061120	0.939357
C99	C	0.479786	-0.438892	0.439380
C100	C	0.979786	0.061108	0.939380
C101	C	0.452514	-0.506171	0.506485
C102	C	0.952514	-0.006171	1.006485
O103	O	0.393380	-0.381755	0.382380
O104	O	0.893380	0.118245	0.882380
O105	O	0.393441	-0.630639	0.630647
O106	O	0.893441	-0.130639	1.130647
C107	C	0.892049	-0.506227	0.506584
C108	C	1.392049	-0.006227	1.006584
C109	C	0.950164	-0.506245	0.506615
C110	C	1.450164	-0.006245	1.006615
C111	C	0.755695	-0.232152	0.506525
C112	C	1.255695	0.267848	1.006525
C113	C	0.755703	-0.115375	0.506531
C114	C	1.255703	0.384625	1.006531
C115	C	0.722262	-0.060526	0.439329
C116	C	1.222262	0.439474	0.939329
C117	C	0.722268	0.049198	0.439347
C118	C	1.222268	0.549198	0.939347
C119	C	0.789161	0.049214	0.573770
C120	C	1.289161	0.549214	1.073770
C121	C	0.789152	-0.060508	0.573757
C122	C	1.289152	0.439492	1.073757
C123	C	0.755668	-0.506209	0.233545
C124	C	1.255668	-0.006209	0.733545
C125	C	0.755752	-0.505957	0.116768
C126	C	1.255752	-0.005957	0.616768
C127	C	0.789180	-0.438844	0.952207
C128	C	1.289180	0.061156	1.452207
C129	C	0.789188	-0.438799	1.061931
C130	C	1.289188	0.061201	1.561931
C131	C	0.722301	-0.573156	1.061876
C132	C	1.222301	-0.073156	1.561876
C133	C	0.722290	-0.573195	0.952154
C134	C	1.222290	-0.073195	1.452154
H135	H	0.556692	-0.628209	0.628144
H136	H	1.056692	-0.128209	1.128144
H137	H	-0.044719	-0.628290	0.628323
H138	H	0.455281	-0.128290	1.128323
C139	C	0.564398	-0.364872	0.365577
C140	C	1.064398	0.135128	0.865577
N141	N	0.587005	-0.309119	0.310014
N142	N	1.087005	0.190881	0.810014
H143	H	0.305406	-0.316836	0.317765
H144	H	0.805406	0.183164	0.817765
C145	C	0.685492	-0.647118	0.891777
C146	C	1.185492	-0.147118	1.391777
N147	N	0.657775	-0.702791	0.846302
N148	N	1.157775	-0.202791	1.346302
C149	C	0.685476	0.109528	0.365428
C150	C	1.185476	0.609528	0.865428
N151	N	0.657760	0.154967	0.309753
N152	N	1.157760	0.654967	0.809753
H153	H	0.816424	-0.384079	1.106613
H154	H	1.316424	0.115921	1.606613
C155	C	0.313349	-0.714732	0.714486
C156	C	0.813349	-0.214732	1.214486
N157	N	0.335981	-0.770472	0.770073
N158	N	0.835981	-0.270472	1.270073
H159	H	0.695075	-0.627833	1.106534
H160	H	1.195075	-0.127833	1.606534
H161	H	0.816383	-0.105167	0.628488
H162	H	1.316383	0.394833	1.128488
C163	C	0.449849	-0.647450	0.647362
C164	C	0.949849	-0.147450	1.147362
N165	N	0.427261	-0.703207	0.702950
N166	N	0.927261	-0.203207	1.202950
H167	H	0.457535	-0.384114	0.384761
H168	H	0.957535	0.115886	0.884761
C169	C	0.825962	-0.364963	0.891896
C170	C	1.325962	0.135037	1.391896
N171	N	0.853666	-0.309310	0.846472
N172	N	1.353666	0.190690	1.346472
C173	C	0.062154	-0.647504	0.647474
C174	C	0.562154	-0.147504	1.147474
N175	N	0.084788	-0.703241	0.703060
N176	N	0.584788	-0.203241	1.203060
H177	H	0.206496	-0.695517	0.695348
H178	H	0.706496	-0.195517	1.195348
C179	C	-0.052610	-0.364977	0.365729
C180	C	0.447390	0.135023	0.865729
N181	N	-0.075244	-0.309232	0.310151
N182	N	0.424756	0.190768	0.810151
H183	H	0.206356	-0.316860	0.317772
H184	H	0.706356	0.183140	0.817772
C185	C	0.062041	-0.364952	0.365700
C186	C	0.562041	0.135048	0.865700
N187	N	0.084631	-0.309209	0.310100
N188	N	0.584631	0.190791	0.810100
C189	C	0.685464	-0.120876	0.365388
C190	C	1.185464	0.379124	0.865388
N191	N	0.657744	-0.166328	0.309696
N192	N	1.157744	0.333672	0.809696
H193	H	0.816394	0.093898	0.628502
H194	H	1.316394	0.593898	1.128502
