data_functionalizedCrystal
_audit_creation_method	'MofGen! by Chris Wilmer'
_symmetry_space_group_name_H-M	'P1'
_symmetry_Int_Tables_number	1
_symmetry_cell_setting	triclinic
loop_
_symmetry_equiv_pos_as_xyz
  x,y,z
_cell_length_a	21.395364
_cell_length_b	14.908178
_cell_length_c	21.395355
_cell_angle_alpha	93.314561
_cell_angle_beta	90.024516
_cell_angle_gamma	93.309658
loop_
_atom_site_label
_atom_site_type_symbol
_atom_site_fract_x
_atom_site_fract_y
_atom_site_fract_z
Zn1	Zn	0.943511	-0.359388	0.339857
Zn2	Zn	0.937391	-0.510238	0.229033
Zn3	Zn	0.838726	-0.359377	0.235094
Zn4	Zn	0.832674	-0.510203	0.333775
O5	O	0.888075	-0.434801	0.284440
O6	O	1.030376	-0.379417	0.325164
O7	O	0.924274	-0.490235	0.142159
O8	O	0.857720	-0.233126	0.254073
O9	O	1.025880	-0.490246	0.243743
O10	O	0.934705	-0.233134	0.331041
O11	O	0.851786	-0.379399	0.146612
O12	O	0.750246	-0.379365	0.248175
O13	O	0.847405	-0.490187	0.422260
O14	O	0.745800	-0.490177	0.320676
O15	O	0.928836	-0.379384	0.426728
O16	O	0.918406	-0.636486	0.237846
O17	O	0.841471	-0.636460	0.314799
C18	C	0.725289	-0.434767	0.284423
C19	C	0.655648	-0.434774	0.284431
C20	C	0.156186	-0.377229	0.326904
C21	C	0.221621	-0.377222	0.326905
C22	C	0.252007	-0.434829	0.284453
C23	C	0.216951	-0.492463	0.242008
C24	C	0.151517	-0.492474	0.242013
C25	C	0.355365	-0.441815	0.227705
C26	C	0.420798	-0.441797	0.227699
C27	C	0.453829	-0.434799	0.284436
C28	C	0.421419	-0.427799	0.341182
C29	C	0.355984	-0.427811	0.341187
C30	C	0.322960	-0.434823	0.284442
C31	C	0.559830	-0.377166	0.326881
C32	C	0.625266	-0.377165	0.326882
C33	C	0.620595	-0.492401	0.241980
C34	C	0.555160	-0.492406	0.241985
C35	C	0.524781	-0.434784	0.284435
C36	C	0.878634	-0.669209	0.275018
C37	C	0.874653	-0.769489	0.271009
C38	C	0.947274	-0.957786	0.343708
C39	C	0.943535	-1.052008	0.339943
C40	C	0.863433	-1.052159	0.259717
C41	C	0.867172	-0.957936	0.263482
C42	C	0.909095	-0.910753	0.305478
C43	C	0.912836	-0.816529	0.309240
C44	C	0.832731	-0.816681	0.229017
C45	C	0.828992	-0.910903	0.225252
C46	C	1.051497	-0.434837	0.284456
C47	C	1.121138	-0.434852	0.284463
C48	C	0.888128	-0.434783	0.447864
C49	C	0.888151	-0.434775	0.517505
C50	C	0.897571	-0.199478	0.293911
C51	C	0.901617	-0.099198	0.297948
C52	C	0.888062	-0.434754	0.121654
C53	C	0.888171	-0.434508	0.052023
C54	C	0.930550	-0.377077	0.552546
C55	C	0.930551	-0.377039	0.617983
C56	C	0.888158	-0.434714	0.648376
C57	C	0.845750	-0.492416	0.613327
C58	C	0.845747	-0.492446	0.547892
C59	C	0.879939	-0.515949	0.748786
C60	C	0.879947	-0.515920	0.814220
C61	C	0.888166	-0.434618	0.850201
C62	C	0.896390	-0.353344	0.820740
C63	C	0.896386	-0.353375	0.755304
C64	C	0.888157	-0.434686	0.719330
C65	C	0.930569	-0.376874	0.956196
C66	C	0.930565	-0.376833	1.021634
C67	C	0.845767	-0.492218	1.016977
C68	C	0.845768	-0.492251	0.951540
C69	C	0.888172	-0.434580	0.921154
H70	H	0.448311	-0.422095	0.387383
H71	H	0.965078	-0.330116	0.527810
C72	C	0.817396	-1.104076	0.213451
N73	N	0.782749	-1.143182	0.178574
C74	C	0.319037	-0.449516	0.165286
N75	N	0.291677	-0.455317	0.118273
C76	C	0.790731	-0.764937	0.186962
N77	N	0.759099	-0.725963	0.155285
C78	C	0.993391	-0.905882	0.389902
N79	N	1.028126	-0.866790	0.424697
C80	C	0.320336	-0.420101	0.403606
N81	N	0.293486	-0.414291	0.450621
H82	H	0.535094	-0.330246	0.361447
C83	C	0.663819	-0.313770	0.373573
N84	N	0.692858	-0.266018	0.408739
H85	H	0.974622	-1.090299	0.371076
C86	C	0.782919	-0.962815	0.179019
N87	N	0.748232	-1.001915	0.144180
H88	H	0.965093	-0.329909	0.931454
C89	C	0.516606	-0.555784	0.195287
N90	N	0.487568	-0.603522	0.160111
H91	H	0.965077	-0.330049	0.646519
C92	C	0.905424	-0.263974	0.722899
N93	N	0.912227	-0.196635	0.698492
H94	H	0.903083	-0.287141	0.850034
C95	C	0.250377	-0.555827	0.195308
N96	N	0.275553	-0.603555	0.160133
H97	H	0.965091	-0.329844	1.050164
C98	C	0.112963	-0.555859	0.195317
N99	N	0.083924	-0.603598	0.160143
C100	C	0.799134	-0.555663	1.050405
N101	N	0.764009	-0.603450	1.075587
H102	H	0.811245	-0.539240	0.923009
H103	H	0.873254	-0.582099	0.838202
C104	C	0.870909	-0.605394	0.709213
N105	N	0.864112	-0.672763	0.679407
C106	C	0.654016	-0.555771	0.195283
N107	N	0.679191	-0.603505	0.160111
C108	C	0.799115	-0.555854	0.646761
N109	N	0.763986	-0.603635	0.671943
C110	C	0.958951	-0.764629	0.355437
N111	N	0.993685	-0.725540	0.390235
C112	C	0.799103	-0.555923	0.509345
N113	N	0.763971	-0.603737	0.480311
H114	H	0.131455	-0.330312	0.361473
C115	C	0.260181	-0.313826	0.373592
N116	N	0.289223	-0.266073	0.408756
C117	C	0.456444	-0.449494	0.165278
N118	N	0.483290	-0.455291	0.118261
