data_functionalizedCrystal
_audit_creation_method	'MofGen! by Chris Wilmer'
_symmetry_space_group_name_H-M	'P1'
_symmetry_Int_Tables_number	1
_symmetry_cell_setting	triclinic
loop_
_symmetry_equiv_pos_as_xyz
  x,y,z
_cell_length_a	10.654550
_cell_length_b	9.798715
_cell_length_c	10.654551
_cell_angle_alpha	90.000567
_cell_angle_beta	84.485132
_cell_angle_gamma	90.007230
loop_
_atom_site_label
_atom_site_type_symbol
_atom_site_fract_x
_atom_site_fract_y
_atom_site_fract_z
O1	O	1.667841	0.113594	0.176396
O2	O	1.302362	0.113571	0.193202
O3	O	1.493504	0.113584	0.002060
O4	O	1.476699	0.113581	0.367538
O5	O	1.493490	-0.113398	0.002059
O6	O	1.302348	-0.113411	0.193201
O7	O	1.667826	-0.113388	0.176395
Zn8	Zn	1.485085	-0.149438	0.184798
Zn9	Zn	1.485104	0.149621	0.184800
O10	O	1.476685	-0.113401	0.367537
C11	C	1.255557	0.000077	0.191968
C12	C	1.116114	0.000069	0.188276
C13	C	1.036629	0.000088	0.300817
C14	C	0.905608	0.000112	0.297341
C15	C	0.933570	0.000103	0.068771
C16	C	1.064589	0.000069	0.072249
C17	C	1.020484	0.000099	0.432780
C18	C	0.889463	0.000123	0.429304
N19	N	1.485081	-0.353538	0.184796
C20	C	1.558324	-0.421311	0.257632
C21	C	1.558344	-0.578474	0.257630
C22	C	1.714632	0.000109	0.177629
C23	C	1.854075	0.000126	0.181321
C24	C	1.492263	0.000096	-0.044739
C25	C	1.488570	0.000105	-0.184182
N26	N	1.485117	0.353721	0.184792
C27	C	1.486846	0.123830	-0.249693
C28	C	1.483365	0.123824	-0.380713
C29	C	1.483340	-0.123645	-0.380700
C30	C	1.486811	-0.123637	-0.249681
C31	C	1.486866	0.266704	-0.249702
C32	C	1.483386	0.266698	-0.380722
C33	C	1.477926	0.000090	0.414336
C34	C	1.481619	0.000090	0.553779
H35	H	1.056145	0.098097	0.474800
H36	H	1.621043	-0.636757	0.319995
H37	H	1.422402	-0.588005	0.122437
H38	H	1.129302	0.000034	-0.019393
H39	H	0.891602	0.000124	-0.025694
H40	H	1.049809	-0.094898	0.484390
H41	H	1.422394	-0.411866	0.122434
Cl42	Cl	0.818929	-0.151165	0.490877
Cl43	Cl	1.488937	-0.279184	-0.167323
H44	H	1.621020	-0.362982	0.319985
Cl45	Cl	0.825031	0.146788	0.506065
Cl46	Cl	1.481125	-0.279197	-0.463051
Cl47	Cl	1.352880	0.351397	-0.178238
Cl48	Cl	1.628286	0.335161	-0.204042
Cl49	Cl	1.341975	0.335146	-0.426383
H50	H	1.570180	0.321560	-0.427013
