data_functionalizedCrystal
_audit_creation_method	'MofGen! by Chris Wilmer'
_symmetry_space_group_name_H-M	'P1'
_symmetry_Int_Tables_number	1
_symmetry_cell_setting	triclinic
loop_
_symmetry_equiv_pos_as_xyz
  x,y,z
_cell_length_a	17.038272
_cell_length_b	10.654550
_cell_length_c	9.130313
_cell_angle_alpha	90.000110
_cell_angle_beta	90.001558
_cell_angle_gamma	92.201771
loop_
_atom_site_label
_atom_site_type_symbol
_atom_site_fract_x
_atom_site_fract_y
_atom_site_fract_z
O1	O	1.038886	-0.272859	-0.121735
O2	O	1.538886	0.227141	0.378265
O3	O	0.811231	-0.268526	-0.121751
O4	O	1.311231	0.231474	0.378249
O5	O	0.930293	-0.088439	-0.121737
O6	O	1.430293	0.411561	0.378263
O7	O	0.919825	-0.452946	-0.121749
O8	O	1.419825	0.047054	0.378251
O9	O	0.930292	-0.088444	0.121862
O10	O	1.430292	0.411556	0.621862
O11	O	0.811230	-0.268531	0.121848
O12	O	1.311230	0.231469	0.621848
O13	O	1.038885	-0.272864	0.121864
O14	O	1.538885	0.227136	0.621864
Cu15	Cu	0.925057	-0.270698	0.144099
Cu16	Cu	1.425057	0.229302	0.644099
Cu17	Cu	0.925059	-0.270692	-0.143985
Cu18	Cu	1.425059	0.229308	0.356015
O19	O	0.919823	-0.452951	0.121850
O20	O	1.419823	0.047049	0.621850
C21	C	0.782081	-0.264588	0.000047
C22	C	1.282081	0.235412	0.500047
C23	C	0.695222	-0.252831	0.000041
C24	C	1.195222	0.247169	0.500041
C25	C	0.929524	-0.041572	0.000061
C26	C	1.429524	0.458428	0.500061
C27	C	0.927224	0.098084	0.000055
C28	C	1.427224	0.598084	0.500055
C29	C	1.068036	-0.276802	0.000063
C30	C	1.568036	0.223198	0.500063
C31	C	1.154895	-0.288559	0.000060
C32	C	1.654895	0.211441	0.500060
C33	C	1.204406	-0.180615	0.000058
C34	C	1.704406	0.319385	0.500058
C35	C	1.286018	-0.191669	0.000063
C36	C	1.786018	0.308331	0.500063
C37	C	1.318118	-0.310669	0.000059
C38	C	1.818118	0.189331	0.500059
C39	C	1.268600	-0.418622	0.000065
C40	C	1.768600	0.081378	0.500065
C41	C	1.186989	-0.407566	0.000071
C42	C	1.686989	0.092434	0.500071
C43	C	1.564094	-0.349727	0.000052
C44	C	2.064094	0.150273	0.500052
C45	C	1.645711	-0.360775	0.000042
C46	C	2.145711	0.139225	0.500042
C47	C	1.663123	-0.133822	0.000043
C48	C	2.163123	0.366178	0.500043
C49	C	1.581510	-0.122776	0.000040
C50	C	2.081510	0.377224	0.500040
C51	C	1.532000	-0.230729	0.000053
C52	C	2.032000	0.269271	0.500053
C53	C	1.401538	-0.321972	0.000060
C54	C	1.901538	0.178028	0.500060
C55	C	1.448581	-0.219425	0.000063
C56	C	1.948581	0.280575	0.500063
C57	C	0.920593	-0.499817	0.000049
C58	C	1.420593	0.000183	0.500049
C59	C	0.922892	-0.639474	0.000045
C60	C	1.422892	-0.139474	0.500045
N61	N	0.925062	-0.270702	0.346721
N62	N	1.425062	0.229298	0.846721
C63	C	0.997326	0.171061	0.000065
C64	C	1.497326	0.671061	0.500065
C65	C	0.995160	0.302283	0.000054
C66	C	1.495160	0.802283	0.500054
C67	C	0.852785	0.287540	0.000031
C68	C	1.352785	0.787540	0.500031
C69	C	0.854952	0.156320	0.000031
C70	C	1.354952	0.656320	0.500031
C71	C	1.069598	0.112825	0.000089
C72	C	1.569598	0.612825	0.500089
C73	C	1.139706	0.185802	0.000100
C74	C	1.639706	0.685802	0.500100
C75	C	1.137540	0.317024	0.000089
C76	C	1.637540	0.817024	0.500089
C77	C	1.065267	0.375269	0.000068
C78	C	1.565267	0.875269	0.500068
N79	N	0.925061	-0.270679	-0.346608
N80	N	1.425061	0.229321	0.153392
C81	C	0.977796	-0.190990	0.423379
C82	C	1.477796	0.309010	0.923379
C83	C	0.977794	-0.190974	0.576716
C84	C	1.477794	0.309026	1.076716
C85	C	0.872321	-0.350394	0.576723
C86	C	1.372321	0.149606	1.076723
C87	C	0.872320	-0.350402	0.423389
C88	C	1.372320	0.149598	0.923389
C89	C	1.030538	-0.111289	0.346711
C90	C	1.530538	0.388711	0.846711
C91	C	1.083277	-0.031572	0.423369
C92	C	1.583277	0.468428	0.923369
C93	C	1.083275	-0.031556	0.576706
C94	C	1.583275	0.468444	1.076706
C95	C	1.030534	-0.111259	0.653385
C96	C	1.530534	0.388741	1.153385
H97	H	1.178277	-0.083713	0.000052
H98	H	1.678277	0.416287	0.500052
F99	F	1.435708	-0.448617	0.000042
F100	F	1.935708	0.051383	0.500042
F101	F	0.780342	0.078649	0.000021
F102	F	1.280342	0.578649	0.500021
H103	H	0.793944	0.334973	0.000016
H104	H	1.293944	0.834973	0.500016
F105	F	1.715821	-0.018940	0.000036
F106	F	2.215821	0.481060	0.500036
H107	H	1.422442	-0.122536	0.000050
H108	H	1.922442	0.377464	0.500050
F109	F	1.216619	0.123812	0.000105
F110	F	1.716619	0.623812	0.500105
H111	H	1.146677	-0.495466	0.000077
H112	H	1.646677	0.004534	0.500077
F113	F	0.816196	-0.435216	0.658334
F114	F	1.316196	0.064784	1.158334
F115	F	1.511411	-0.464621	0.000051
F116	F	2.011411	0.035379	0.500051
F117	F	1.030546	-0.111304	0.183517
F118	F	1.530546	0.388696	0.683517
H119	H	1.071370	0.005979	0.000102
H120	H	1.571370	0.505979	0.500102
F121	F	1.139399	0.053259	0.341762
F122	F	1.639399	0.553259	0.841762
F123	F	1.139397	0.053294	0.658289
F124	F	1.639397	0.553294	1.158289
H125	H	1.030531	-0.111231	0.778242
H126	H	1.530531	0.388769	1.278242
H127	H	1.294742	-0.515514	0.000071
H128	H	1.794742	-0.015514	0.500071
H129	H	1.194625	0.376439	0.000083
H130	H	1.694625	0.876439	0.500083
F131	F	0.816191	-0.435239	0.341803
F132	F	1.316191	0.064761	0.841803
F133	F	1.062966	0.514929	0.000105
F134	F	1.562966	1.014929	0.500105
F135	F	1.338709	-0.076779	0.000069
F136	F	1.838709	0.423221	0.500069
H137	H	1.555381	-0.025874	0.000043
H138	H	2.055381	0.474126	0.500043
F139	F	1.679871	-0.487436	0.000039
F140	F	2.179871	0.012564	0.500039
