data_functionalizedCrystal
_audit_creation_method	'MofGen! by Chris Wilmer'
_symmetry_space_group_name_H-M	'P1'
_symmetry_Int_Tables_number	1
_symmetry_cell_setting	triclinic
loop_
_symmetry_equiv_pos_as_xyz
  x,y,z
_cell_length_a	11.169417
_cell_length_b	29.839132
_cell_length_c	11.169409
_cell_angle_alpha	89.957666
_cell_angle_beta	90.019824
_cell_angle_gamma	89.953858
loop_
_atom_site_label
_atom_site_type_symbol
_atom_site_fract_x
_atom_site_fract_y
_atom_site_fract_z
Zn1	Zn	1.834671	0.178806	0.678459
Zn2	Zn	2.334671	0.678806	1.178459
Zn3	Zn	1.834438	0.253948	0.477741
Zn4	Zn	2.334438	0.753948	0.977741
Zn5	Zn	1.633957	0.178834	0.477794
Zn6	Zn	2.133957	0.678834	0.977794
Zn7	Zn	1.633842	0.253911	0.678386
Zn8	Zn	2.133842	0.753911	1.178386
O9	O	1.734227	0.216375	0.578095
O10	O	2.234227	0.716375	1.078095
O11	O	2.002590	0.188778	0.651842
O12	O	2.502590	0.688778	1.151842
O13	O	1.807794	0.244011	0.309798
O14	O	2.307794	0.744011	0.809798
O15	O	1.660728	0.115963	0.504465
O16	O	2.160728	0.615963	1.004465
O17	O	2.002419	0.243984	0.504376
O18	O	2.502419	0.743984	1.004376
O19	O	1.808191	0.115943	0.651893
O20	O	2.308191	0.615943	1.151893
O21	O	1.660502	0.188825	0.309837
O22	O	2.160502	0.688825	0.809837
O23	O	1.465992	0.188789	0.504394
O24	O	1.965992	0.688789	1.004394
O25	O	1.660532	0.243922	0.846346
O26	O	2.160532	0.743922	1.346346
O27	O	1.465908	0.243948	0.651768
O28	O	1.965908	0.743948	1.151768
O29	O	1.808080	0.188743	0.846399
O30	O	2.308080	0.688743	1.346399
O31	O	1.807683	0.316810	0.504304
O32	O	2.307683	0.816810	1.004304
O33	O	1.660306	0.316783	0.651717
O34	O	2.160306	0.816783	1.151717
C35	C	1.422402	0.216368	0.578080
C36	C	1.922402	0.716368	1.078080
C37	C	1.289002	0.216376	0.578101
C38	C	1.789002	0.716376	1.078101
C39	C	1.733989	0.333097	0.578023
C40	C	2.233989	0.833097	1.078023
C41	C	1.733998	0.383032	0.578033
C42	C	2.233998	0.883032	1.078033
C43	C	1.811020	0.692677	0.501400
C44	C	2.311020	1.192677	1.001400
C45	C	1.811135	0.880350	0.501427
C46	C	2.311135	1.380350	1.001427
O47	O	1.876493	0.904616	0.436250
O48	O	2.376493	1.404616	0.936250
N49	N	1.734353	0.903817	0.578115
N50	N	2.234353	1.403817	1.078115
C51	C	1.657542	0.880363	0.654806
C52	C	2.157542	1.380363	1.154806
O53	O	1.592245	0.904630	0.720043
O54	O	2.092245	1.404630	1.220043
C55	C	1.657434	0.692691	0.654784
C56	C	2.157434	1.192691	1.154784
C57	C	1.734213	0.669226	0.578083
C58	C	2.234213	1.169226	1.078083
C59	C	1.887794	0.669212	0.424706
C60	C	2.387794	1.169212	0.924706
C61	C	1.887760	0.622296	0.424696
C62	C	2.387760	1.122296	0.924696
C63	C	1.810952	0.598846	0.501379
C64	C	2.310952	1.098846	1.001379
C65	C	1.734179	0.622311	0.578072
C66	C	2.234179	1.122311	1.078072
C67	C	1.580631	0.669238	0.731481
C68	C	2.080631	1.169238	1.231481
C69	C	1.580613	0.622317	0.731470
C70	C	2.080613	1.122317	1.231470
C71	C	1.657391	0.598852	0.654770
C72	C	2.157391	1.098852	1.154770
C73	C	1.657338	0.551945	0.654745
C74	C	2.157338	1.051945	1.154745
N75	N	1.734120	0.528477	0.578058
N76	N	2.234120	1.028477	1.078058
C77	C	1.810927	0.551928	0.501375
C78	C	2.310927	1.051928	1.001375
C79	C	1.657602	0.978894	0.654810
C80	C	2.157602	1.478894	1.154810
C81	C	1.657627	1.025812	0.654815
C82	C	2.157627	1.525812	1.154815
C83	C	1.811222	1.025795	0.501437
C84	C	2.311222	1.525795	1.001437
C85	C	1.811190	0.978876	0.501428
C86	C	2.311190	1.478876	1.001428
C87	C	1.734384	0.955426	0.578123
C88	C	2.234384	1.455426	1.078123
C89	C	1.810849	0.453402	0.501357
C90	C	2.310849	0.953402	1.001357
C91	C	1.810805	0.406482	0.501350
C92	C	2.310805	0.906482	1.001350
C93	C	1.657215	0.406503	0.654731
C94	C	2.157215	0.906503	1.154731
C95	C	1.657254	0.453419	0.654735
C96	C	2.157254	0.953419	1.154735
C97	C	1.734081	0.476867	0.578044
C98	C	2.234081	0.976867	1.078044
O99	O	1.592023	0.527650	0.719897
O100	O	2.092023	1.027650	1.219897
O101	O	1.876233	0.527653	0.436167
O102	O	2.376233	1.027653	0.936167
C103	C	1.811054	0.739592	0.501411
C104	C	2.311054	1.239592	1.001411
C105	C	1.734281	0.763057	0.578104
C106	C	2.234281	1.263057	1.078104
C107	C	1.657474	0.739606	0.654787
C108	C	2.157474	1.239606	1.154787
C109	C	1.734306	0.809975	0.578109
C110	C	2.234306	1.309975	1.078109
C111	C	1.811114	0.833425	0.501426
C112	C	2.311114	1.333425	1.001426
C113	C	1.887896	0.809958	0.424738
C114	C	2.387896	1.309958	0.924738
C115	C	1.887862	0.763043	0.424728
C116	C	2.387862	1.263043	0.924728
C117	C	1.580692	0.763074	0.731475
C118	C	2.080692	1.263074	1.231475
C119	C	1.580731	0.809989	0.731478
C120	C	2.080731	1.309989	1.231478
C121	C	1.657538	0.833440	0.654795
C122	C	2.157538	1.333440	1.154795
C123	C	2.047269	0.216382	0.578111
C124	C	2.547269	0.716382	1.078111
C125	C	2.180669	0.216385	0.578118
C126	C	2.680669	0.716385	1.078118
C127	C	1.734319	0.216325	0.891138
C128	C	2.234319	0.716325	1.391138
C129	C	1.734359	0.216304	1.024538
C130	C	2.234359	0.716304	1.524538
C131	C	1.734453	1.099196	0.578167
C132	C	2.234453	1.599196	1.078167
C133	C	1.734435	1.049262	0.578132
C134	C	2.234435	1.549262	1.078132
C135	C	1.734204	0.216392	0.266270
C136	C	2.234204	0.716392	0.766270
C137	C	1.734398	0.216287	0.132871
C138	C	2.234398	0.716287	0.632871
H139	H	1.873327	0.387379	0.438887
H140	H	2.373327	0.887379	0.938887
H141	H	1.950382	0.743941	0.362271
H142	H	2.450382	1.243941	0.862271
F143	F	1.575479	0.381537	0.736342
F144	F	2.075479	0.881537	1.236342
F145	F	1.498939	0.738122	0.813097
F146	F	1.998939	1.238122	1.313097
F147	F	1.969637	0.834924	0.343123
F148	F	2.469637	1.334924	0.843123
F149	F	1.892964	1.050761	0.419822
F150	F	2.392964	1.550761	0.919822
H151	H	1.873710	0.959774	0.438972
H152	H	2.373710	1.459774	0.938972
F153	F	1.498921	0.694201	0.813128
F154	F	1.998921	1.194201	1.313128
H155	H	1.594739	0.472525	0.717195
H156	H	2.094739	0.972525	1.217195
F157	F	1.498865	0.597363	0.813105
F158	F	1.998865	1.097363	1.313105
H159	H	1.873412	0.472488	0.438911
H160	H	2.373412	0.972488	0.938911
H161	H	1.950346	0.688300	0.362261
H162	H	2.450346	1.188300	0.862261
H163	H	1.595095	1.044913	0.717261
H164	H	2.095095	1.544913	1.217261
F165	F	1.499003	0.834957	0.813117
F166	F	1.999003	1.334957	1.313117
H167	H	1.950283	0.603194	0.362243
H168	H	2.450283	1.103194	0.862243
H169	H	1.595055	0.959804	0.717267
H170	H	2.095055	1.459804	1.217267
