data_functionalizedCrystal
_audit_creation_method	'MofGen! by Chris Wilmer'
_symmetry_space_group_name_H-M	'P1'
_symmetry_Int_Tables_number	1
_symmetry_cell_setting	triclinic
loop_
_symmetry_equiv_pos_as_xyz
  x,y,z
_cell_length_a	16.959455
_cell_length_b	13.897448
_cell_length_c	16.959447
_cell_angle_alpha	90.029368
_cell_angle_beta	90.014322
_cell_angle_gamma	90.014639
loop_
_atom_site_label
_atom_site_type_symbol
_atom_site_fract_x
_atom_site_fract_y
_atom_site_fract_z
Zn1	Zn	1.208397	-0.384074	0.446914
Zn2	Zn	1.708397	0.115926	0.946914
Zn3	Zn	1.208325	-0.545393	0.314738
Zn4	Zn	1.708325	-0.045393	0.814738
Zn5	Zn	1.076225	-0.384105	0.314751
Zn6	Zn	1.576225	0.115895	0.814751
Zn7	Zn	1.076195	-0.545321	0.446876
Zn8	Zn	1.576195	-0.045321	0.946876
O9	O	1.142286	-0.464723	0.380820
O10	O	1.642286	0.035277	0.880820
O11	O	1.318998	-0.405491	0.429390
O12	O	1.818998	0.094509	0.929390
O13	O	1.190784	-0.524040	0.204128
O14	O	1.690784	-0.024040	0.704128
O15	O	1.093801	-0.249119	0.332305
O16	O	1.593801	0.250881	0.832305
O17	O	1.318945	-0.524011	0.332281
O18	O	1.818945	-0.024011	0.832281
O19	O	1.190907	-0.249097	0.429404
O20	O	1.690907	0.250903	0.929404
O21	O	1.093731	-0.405543	0.204139
O22	O	1.593731	0.094457	0.704139
O23	O	0.965610	-0.405473	0.332268
O24	O	1.465610	0.094527	0.832268
O25	O	1.093750	-0.523888	0.557492
O26	O	1.593750	-0.023888	1.057492
O27	O	0.965589	-0.523917	0.429340
O28	O	1.465589	-0.023917	0.929340
O29	O	1.190878	-0.405421	0.557520
O30	O	1.690878	0.094579	1.057520
O31	O	1.190755	-0.680365	0.332244
O32	O	1.690755	-0.180365	0.832244
O33	O	1.093680	-0.680312	0.429326
O34	O	1.593680	-0.180312	0.929326
C35	C	0.936919	-0.464691	0.380802
C36	C	1.436919	0.035309	0.880802
C37	C	0.849063	-0.464701	0.380813
C38	C	1.349063	0.035299	0.880813
C39	C	0.477574	-0.402998	0.330380
C40	C	0.977574	0.097002	0.830380
C41	C	0.477600	-0.526527	0.431305
C42	C	0.977600	-0.026527	0.931305
C43	C	0.560146	-0.526513	0.431300
C44	C	1.060146	-0.026513	0.931300
C45	C	0.601410	-0.464742	0.380834
C46	C	1.101410	0.035258	0.880834
C47	C	0.560128	-0.402985	0.330372
C48	C	1.060128	0.097015	0.830372
C49	C	0.601434	-0.588276	0.481754
C50	C	1.101434	-0.088276	0.981754
C51	C	0.683985	-0.588266	0.481751
C52	C	1.183985	-0.088266	0.981751
C53	C	0.725251	-0.526489	0.431288
C54	C	1.225251	-0.026489	0.931288
C55	C	0.683963	-0.464728	0.380825
C56	C	1.183963	0.035272	0.880825
C57	C	0.725227	-0.402957	0.330359
C58	C	1.225227	0.097043	0.830359
C59	C	0.683941	-0.341191	0.279900
C60	C	1.183941	0.158809	0.779900
C61	C	0.601393	-0.341208	0.279909
C62	C	1.101393	0.158792	0.779909
C63	C	0.807799	-0.526472	0.431279
C64	C	1.307799	-0.026472	0.931279
C65	C	0.807781	-0.402944	0.330351
C66	C	1.307781	0.097056	0.830351
C67	C	1.142228	-0.715337	0.380797
C68	C	1.642228	-0.215337	0.880797
C69	C	1.142276	-0.822551	0.380814
C70	C	1.642276	-0.322551	0.880814
C71	C	1.142359	-1.018846	0.380863
C72	C	1.642359	-0.518846	0.880863
C73	C	1.142310	-0.909614	0.380838
C74	C	1.642310	-0.409614	0.880838
C75	C	1.348454	-0.464756	0.380838
C76	C	1.848454	0.035244	0.880838
C77	C	1.436310	-0.464770	0.380846
C78	C	1.936310	0.035230	0.880846
C79	C	1.142319	-0.464643	0.586988
C80	C	1.642319	0.035357	1.086988
C81	C	1.142333	-0.464609	0.674845
C82	C	1.642333	0.035391	1.174845
C83	C	1.142365	-0.213130	0.380860
C84	C	1.642365	0.286870	0.880860
C85	C	1.142399	-0.105916	0.380877
C86	C	1.642399	0.394084	0.880877
C87	C	1.142298	-0.464733	0.175454
C88	C	1.642298	0.035267	0.675454
C89	C	1.142437	-0.464495	0.087597
C90	C	1.642437	0.035505	0.587597
C91	C	1.091857	-0.526188	1.046309
C92	C	1.591857	-0.026188	1.546309
C93	C	1.192997	-0.402827	1.046333
C94	C	1.692997	0.097173	1.546333
C95	C	1.192976	-0.402848	0.963787
C96	C	1.692976	0.097152	1.463787
C97	C	1.142395	-0.464540	0.922498
C98	C	1.642395	0.035460	1.422498
C99	C	1.091836	-0.526212	0.963755
C100	C	1.591836	-0.026212	1.463755
C101	C	1.243540	-0.341184	0.922523
C102	C	1.743540	0.158816	1.422523
C103	C	1.243522	-0.341203	0.839972
C104	C	1.743522	0.158797	1.339972
C105	C	1.192937	-0.402891	0.798682
C106	C	1.692937	0.097109	1.298682
C107	C	1.142375	-0.464564	0.839944
C108	C	1.642375	0.035436	1.339944
C109	C	1.091794	-0.526257	0.798655
C110	C	1.591794	-0.026257	1.298655
C111	C	1.041227	-0.587926	0.839916
C112	C	1.541227	-0.087926	1.339916
C113	C	1.041251	-0.587900	0.922465
C114	C	1.541251	-0.087900	1.422465
C115	C	1.192913	-0.402917	0.716134
C116	C	1.692913	0.097083	1.216134
C117	C	1.091773	-0.526281	0.716102
C118	C	1.591773	-0.026281	1.216102
H119	H	0.443998	-0.576824	0.472387
H120	H	0.943998	-0.076824	0.972387
O121	O	1.241943	-0.342883	0.676088
O122	O	1.741943	0.157117	1.176088
C123	C	1.280401	-0.178825	0.650902
C124	C	1.780401	0.321175	1.150902
C125	C	1.224811	-0.246708	0.696288
C126	C	1.724811	0.253292	1.196288
H127	H	1.266581	-0.101055	0.667230
H128	H	1.766581	0.398945	1.167230
H129	H	1.271693	-0.189354	0.584801
H130	H	1.771693	0.310646	1.084801
H131	H	1.344130	-0.195827	0.667117
H132	H	1.844130	0.304173	1.167117
H133	H	1.161061	-0.229748	0.680140
H134	H	1.661061	0.270252	1.180140
H135	H	1.233587	-0.236167	0.762379
H136	H	1.733587	0.263833	1.262379
H137	H	1.050577	-0.576511	0.682490
H138	H	1.550577	-0.076511	1.182490
H139	H	0.841372	-0.352635	0.289260
H140	H	1.341372	0.147365	0.789260
H141	H	0.567831	-0.638574	0.522836
H142	H	1.067831	-0.138574	1.022836
H143	H	1.234182	-0.352606	1.079955
H144	H	1.734182	0.147394	1.579955
H145	H	0.717593	-0.638559	0.522839
H146	H	1.217593	-0.138559	1.022839
O147	O	0.847869	-0.586360	0.480401
O148	O	1.347869	-0.086360	0.980401
C149	C	0.873132	-0.633429	0.614781
C150	C	1.373132	-0.133429	1.114781
C151	C	0.827718	-0.565529	0.559236
C152	C	1.327718	-0.065529	1.059236
H153	H	0.856844	-0.616625	0.678530
H154	H	1.356844	-0.116625	1.178530
H155	H	0.939229	-0.622802	0.606178
H156	H	1.439229	-0.122802	1.106178
H157	H	0.856901	-0.711183	0.600746
H158	H	1.356901	-0.211183	1.100746
H159	H	0.843882	-0.487749	0.573238
H160	H	1.343882	0.012251	1.073238
H161	H	0.761632	-0.576239	0.567850
H162	H	1.261632	-0.076239	1.067850
O163	O	0.992179	-0.647939	0.962460
O164	O	1.492179	-0.147939	1.462460
C165	C	0.953804	-0.812007	0.987726
C166	C	1.453804	-0.312007	1.487726
C167	C	1.009410	-0.744121	0.942364
C168	C	1.509410	-0.244121	1.442364
H169	H	0.967726	-0.889785	0.971508
H170	H	1.467726	-0.389785	1.471508
H171	H	0.890053	-0.795146	0.971492
H172	H	1.390053	-0.295146	1.471492
H173	H	0.962501	-0.801342	1.053813
H174	H	1.462501	-0.301342	1.553813
H175	H	1.000783	-0.754748	0.876267
H176	H	1.500783	-0.254748	1.376267
H177	H	1.073140	-0.760999	0.958664
H178	H	1.573140	-0.260999	1.458664
O179	O	0.724151	-0.281220	0.230951
O180	O	1.224151	0.218780	0.730951
C181	C	0.851320	-0.226516	0.186180
C182	C	1.351320	0.273484	0.686180
C183	C	0.805878	-0.294462	0.241665
C184	C	1.305878	0.205538	0.741665
H185	H	0.917404	-0.237212	0.194811
H186	H	1.417404	0.262788	0.694811
H187	H	0.835171	-0.148737	0.200175
H188	H	1.335171	0.351263	0.700175
H189	H	0.835018	-0.243346	0.122429
H190	H	1.335018	0.256654	0.622429
H191	H	0.822156	-0.277718	0.305434
H192	H	1.322156	0.222282	0.805434
H193	H	0.822031	-0.372221	0.227602
H194	H	1.322031	0.127779	0.727602
H195	H	0.567771	-0.290922	0.238827
H196	H	1.067771	0.209078	0.738827
O197	O	0.437353	-0.343092	0.281392
O198	O	0.937353	0.156908	0.781392
C199	C	0.310175	-0.288307	0.236712
C200	C	0.810175	0.211693	0.736712
C201	C	0.355627	-0.356217	0.292217
C202	C	0.855627	0.143783	0.792217
H203	H	0.244092	-0.298881	0.245457
H204	H	0.744092	0.201119	0.745457
H205	H	0.326320	-0.305147	0.172932
H206	H	0.826320	0.194853	0.672932
H207	H	0.326472	-0.210560	0.250696
H208	H	0.826472	0.289440	0.750696
H209	H	0.339355	-0.433987	0.278304
H210	H	0.839355	0.066013	0.778304
H211	H	0.339478	-0.339294	0.355981
H212	H	0.839478	0.160706	0.855981
H213	H	1.284696	-0.290987	0.806385
H214	H	1.784696	0.209013	1.306385
H215	H	1.000048	-0.638161	0.806288
H216	H	1.500048	-0.138161	1.306288
H217	H	1.050685	-0.576395	1.079907
H218	H	1.550685	-0.076395	1.579907
H219	H	1.284725	-0.290963	0.956147
H220	H	1.784725	0.209037	1.456147
