data_functionalizedCrystal
_audit_creation_method	'MofGen! by Chris Wilmer'
_symmetry_space_group_name_H-M	'P1'
_symmetry_Int_Tables_number	1
_symmetry_cell_setting	triclinic
loop_
_symmetry_equiv_pos_as_xyz
  x,y,z
_cell_length_a	19.121424
_cell_length_b	19.121063
_cell_length_c	18.215399
_cell_angle_alpha	92.409843
_cell_angle_beta	92.413696
_cell_angle_gamma	94.804615
loop_
_atom_site_label
_atom_site_type_symbol
_atom_site_fract_x
_atom_site_fract_y
_atom_site_fract_z
Zn1	Zn	1.063710	-0.234204	-0.379181
Zn2	Zn	1.058597	-0.351877	-0.261594
Zn3	Zn	0.946045	-0.239250	-0.261595
Zn4	Zn	0.940990	-0.356858	-0.390081
O5	O	1.002336	-0.295547	-0.323113
O6	O	1.161494	-0.245617	-0.359020
O7	O	1.043643	-0.336964	-0.158613
O8	O	0.965909	-0.140114	-0.272632
O9	O	1.157738	-0.332071	-0.272630
O10	O	1.052357	-0.136407	-0.359021
O11	O	0.960951	-0.254217	-0.158613
O12	O	0.846912	-0.259047	-0.283201
O13	O	0.957293	-0.340561	-0.491617
O14	O	0.843198	-0.345454	-0.377599
O15	O	1.047455	-0.250447	-0.483609
O16	O	1.038741	-0.451004	-0.283200
O17	O	0.952335	-0.454664	-0.377599
C18	C	0.819525	-0.303339	-0.331584
C19	C	0.741317	-0.306690	-0.335226
C20	C	0.298894	-0.327876	-0.358344
C21	C	0.372378	-0.324733	-0.354909
C22	C	0.411035	-0.278102	-0.304118
C23	C	0.376202	-0.234616	-0.256754
C24	C	0.302719	-0.237763	-0.260187
C25	C	0.633002	-0.266350	-0.291295
C26	C	0.706490	-0.263205	-0.287868
C27	C	0.702661	-0.353324	-0.386022
C28	C	0.629177	-0.356463	-0.389453
C29	C	0.594351	-0.312980	-0.342087
C30	C	0.486147	-0.274887	-0.300606
C31	C	0.519239	-0.316199	-0.345595
C32	C	0.994454	-0.478364	-0.331597
C33	C	0.991146	-0.556572	-0.335248
C34	C	1.034614	-0.591383	-0.287853
C35	C	1.031508	-0.664867	-0.291291
C36	C	0.984929	-0.703538	-0.342121
C37	C	0.941460	-0.668722	-0.389522
C38	C	0.944570	-0.595239	-0.386087
C39	C	0.973288	-0.925505	-0.354953
C40	C	0.970180	-0.998993	-0.358383
C41	C	1.060229	-0.995134	-0.260153
C42	C	1.063332	-0.921650	-0.256719
C43	C	1.019865	-0.886839	-0.304122
C44	C	0.981751	-0.778651	-0.345635
C45	C	1.023047	-0.811728	-0.300611
C46	C	1.185860	-0.287725	-0.314609
C47	C	1.264067	-0.284392	-0.310986
C48	C	1.002381	-0.295497	-0.515062
C49	C	1.002400	-0.295475	-0.596859
C50	C	1.010267	-0.112015	-0.314611
C51	C	1.013647	-0.033805	-0.310988
C52	C	1.049365	-0.248510	-0.780881
C53	C	1.049374	-0.248489	-0.857739
C54	C	0.955489	-0.342329	-0.866067
C55	C	0.955477	-0.342346	-0.789211
C56	C	1.002419	-0.295438	-0.746620
C57	C	1.002440	-0.295400	-0.900333
C58	C	1.002450	-0.295378	-0.983666
C59	C	1.002408	-0.295459	-0.663282
C60	C	1.002334	-0.295545	-0.131907
C61	C	1.002459	-0.295362	-0.050094
H62	H	0.274364	-0.202352	-0.221624
Br63	Br	0.466776	-0.379489	-0.414517
H64	H	0.400731	-0.360145	-0.393471
Br65	Br	0.891753	-0.406032	-0.742708
Br66	Br	0.538615	-0.211602	-0.231679
Br67	Br	0.918540	-0.831139	-0.414619
H68	H	0.917272	-0.380522	-0.900754
H69	H	0.267426	-0.365844	-0.399708
H70	H	0.903538	-0.700213	-0.430913
Br71	Br	0.576720	-0.419749	-0.458388
H72	H	0.407682	-0.196651	-0.215396
H73	H	1.087602	-0.210275	-0.885631
Br74	Br	1.097824	-0.538908	-0.218858
Br75	Br	1.126557	-0.869172	-0.187741
H76	H	0.731024	-0.388726	-0.424584
Br77	Br	1.086263	-0.759245	-0.231633
Br78	Br	1.119220	-1.042380	-0.195827
Br79	Br	0.885580	-0.547993	-0.450417
Br80	Br	0.758952	-0.199918	-0.218931
H81	H	0.604655	-0.230946	-0.252723
H82	H	0.932258	-1.030477	-0.399788
H83	H	1.066903	-0.693207	-0.252696
H84	H	0.937894	-0.897169	-0.393550
H85	H	1.087586	-0.210312	-0.746206
