data_functionalizedCrystal
_audit_creation_method	'MofGen! by Chris Wilmer'
_symmetry_space_group_name_H-M	'P1'
_symmetry_Int_Tables_number	1
_symmetry_cell_setting	triclinic
loop_
_symmetry_equiv_pos_as_xyz
  x,y,z
_cell_length_a	16.959455
_cell_length_b	21.395361
_cell_length_c	21.395355
_cell_angle_alpha	90.021511
_cell_angle_beta	89.976580
_cell_angle_gamma	89.972345
loop_
_atom_site_label
_atom_site_type_symbol
_atom_site_fract_x
_atom_site_fract_y
_atom_site_fract_z
Zn1	Zn	1.208396	0.249562	-0.354229
Zn2	Zn	1.541730	0.582895	-0.020896
Zn3	Zn	1.875063	0.916229	0.312437
Zn4	Zn	1.208273	0.354322	-0.249446
Zn5	Zn	1.541607	0.687655	0.083887
Zn6	Zn	1.874940	1.020989	0.417220
Zn7	Zn	1.076204	0.249557	-0.249468
Zn8	Zn	1.409537	0.582890	0.083865
Zn9	Zn	1.742870	0.916223	0.417198
Zn10	Zn	1.076165	0.354300	-0.354189
Zn11	Zn	1.409498	0.687634	-0.020855
Zn12	Zn	1.742832	1.020967	0.312478
O13	O	1.142260	0.301935	-0.301833
O14	O	1.475593	0.635269	0.031500
O15	O	1.808926	0.968602	0.364833
O16	O	1.318991	0.263470	-0.340338
O17	O	1.652324	0.596803	-0.007004
O18	O	1.985657	0.930137	0.326329
O19	O	1.190719	0.340431	-0.161771
O20	O	1.524052	0.673765	0.171562
O21	O	1.857385	1.007098	0.504895
O22	O	1.093807	0.161880	-0.263391
O23	O	1.427140	0.495213	0.069942
O24	O	1.760474	0.828546	0.403276
O25	O	1.318900	0.340437	-0.263354
O26	O	1.652234	0.673770	0.069979
O27	O	1.985567	1.007103	0.403313
O28	O	1.190928	0.161884	-0.340359
O29	O	1.524262	0.495217	-0.007025
O30	O	1.857595	0.828550	0.326308
O31	O	1.093688	0.263461	-0.161787
O32	O	1.427021	0.596794	0.171546
O33	O	1.760354	0.930127	0.504879
O34	O	0.965588	0.263440	-0.263352
O35	O	1.298921	0.596773	0.069982
O36	O	1.632254	0.930106	0.403315
O37	O	1.093741	0.340400	-0.441872
O38	O	1.427074	0.673733	-0.108539
O39	O	1.760407	1.007066	0.224795
O40	O	0.965559	0.340394	-0.340289
O41	O	1.298892	0.673728	-0.006956
O42	O	1.632226	1.007061	0.326377
O43	O	1.190891	0.263449	-0.441902
O44	O	1.524224	0.596782	-0.108569
O45	O	1.857557	0.930116	0.224765
O46	O	1.190681	0.441997	-0.263315
O47	O	1.524014	0.775330	0.070019
O48	O	1.857348	1.108664	0.403352
O49	O	1.093622	0.441981	-0.340268
O50	O	1.426955	0.775314	-0.006935
O51	O	1.760288	1.108648	0.326398
C52	C	1.142155	0.464723	-0.301798
C53	C	1.475489	0.798056	0.031535
C54	C	1.808822	1.131390	0.364868
C55	C	1.142183	0.534364	-0.301804
C56	C	1.475516	0.867697	0.031529
C57	C	1.808850	1.201031	0.364862
C58	C	0.936893	0.301915	-0.301819
C59	C	1.270227	0.635248	0.031514
C60	C	1.603560	0.968581	0.364848
C61	C	0.849037	0.301921	-0.301828
C62	C	1.182370	0.635254	0.031506
C63	C	1.515703	0.968588	0.364839
C64	C	1.142325	0.301923	-0.465257
C65	C	1.475658	0.635256	-0.131923
C66	C	1.808992	0.968589	0.201410
C67	C	1.142353	0.301917	-0.534898
C68	C	1.475686	0.635251	-0.201564
C69	C	1.809020	0.968584	0.131769
C70	C	0.477552	0.261832	-0.261855
C71	C	0.810885	0.595166	0.071478
C72	C	1.144218	0.928499	0.404811
C73	C	0.477571	0.342090	-0.341847
C74	C	0.810904	0.675423	-0.008513
C75	C	1.144237	1.008757	0.324820
C76	C	0.560116	0.342081	-0.341843
C77	C	0.893450	0.675414	-0.008510
C78	C	1.226783	1.008748	0.324824
C79	C	0.601384	0.301948	-0.301844
C80	C	0.934717	0.635281	0.031489
C81	C	1.268050	0.968614	0.364823
C82	C	0.560105	0.261823	-0.261849
C83	C	0.893438	0.595157	0.071484
C84	C	1.226772	0.928490	0.404818
C85	C	0.601401	0.382209	-0.381833
C86	C	0.934735	0.715542	-0.048499
C87	C	1.268068	1.048876	0.284834
C88	C	0.683952	0.382202	-0.381830
C89	C	1.017286	0.715535	-0.048497
C90	C	1.350619	1.048869	0.284837
C91	C	0.725221	0.342065	-0.341834
C92	C	1.058554	0.675399	-0.008501
C93	C	1.391888	1.008732	0.324833
C94	C	0.683937	0.301939	-0.301838
C95	C	1.017271	0.635272	0.031496
C96	C	1.350604	0.968605	0.364829
C97	C	0.725205	0.261805	-0.261839
C98	C	1.058538	0.595139	0.071494
C99	C	1.391871	0.928472	0.404828
C100	C	0.683922	0.221675	-0.221845
C101	C	1.017256	0.555009	0.111488
C102	C	1.350589	0.888342	0.444821
C103	C	0.601374	0.221686	-0.221853
C104	C	0.934707	0.555020	0.111481
C105	C	1.268040	0.888353	0.444814
C106	C	0.807769	0.342054	-0.341826
C107	C	1.141103	0.675388	-0.008493
C108	C	1.474436	1.008721	0.324840
C109	C	0.807758	0.261796	-0.261832
C110	C	1.141091	0.595130	0.071501
C111	C	1.474425	0.928463	0.404834
C112	C	1.348428	0.301956	-0.301848
C113	C	1.681761	0.635290	0.031485
C114	C	2.015094	0.968623	0.364819
C115	C	1.436284	0.301966	-0.301854
C116	C	1.769618	0.635299	0.031479
C117	C	2.102951	0.968632	0.364812
C118	C	1.142386	0.138512	-0.301882
C119	C	1.475719	0.471845	0.031451
C120	C	1.809052	0.805179	0.364785
C121	C	1.142440	0.068871	-0.301903
C122	C	1.475773	0.402204	0.031431
C123	C	1.809106	0.735537	0.364764
C124	C	1.192766	0.567065	-0.261776
C125	C	1.526100	0.900398	0.071558
C126	C	1.859433	1.233731	0.404891
C127	C	1.192803	0.632500	-0.261790
C128	C	1.526137	0.965834	0.071544
C129	C	1.859470	1.299167	0.404877
C130	C	1.142242	0.665232	-0.301826
C131	C	1.475576	0.998566	0.031507
C132	C	1.808909	1.331899	0.364841
C133	C	1.091655	0.632524	-0.341862
C134	C	1.424988	0.965857	-0.008529
C135	C	1.758322	1.299191	0.324804
C136	C	1.091625	0.567090	-0.341852
C137	C	1.424959	0.900423	-0.008518
C138	C	1.758292	1.233756	0.324815
C139	C	1.071072	0.768945	-0.306737
C140	C	1.404405	1.102278	0.026596
C141	C	1.737738	1.435611	0.359930
C142	C	1.071100	0.834378	-0.306743
C143	C	1.404434	1.167711	0.026590
C144	C	1.737767	1.501044	0.359923
C145	C	1.142334	0.867053	-0.301863
C146	C	1.475668	1.200387	0.031471
C147	C	1.809001	1.533720	0.364804
C148	C	1.213542	0.834288	-0.296962
C149	C	1.546876	1.167621	0.036371
C150	C	1.880209	1.500954	0.369704
C151	C	1.213513	0.768854	-0.296952
C152	C	1.546846	1.102187	0.036382
C153	C	1.880179	1.435520	0.369715
C154	C	1.142269	0.736185	-0.301842
C155	C	1.475603	1.069518	0.031491
C156	C	1.808936	1.402851	0.364824
C157	C	1.192962	0.970706	-0.261847
C158	C	1.526295	1.304040	0.071486
C159	C	1.859629	1.637373	0.404820
C160	C	1.193000	1.036143	-0.261865
C161	C	1.526334	1.369476	0.071468
C162	C	1.859667	1.702810	0.404801
C163	C	1.091845	1.036165	-0.341935
C164	C	1.425178	1.369499	-0.008601
C165	C	1.758512	1.702832	0.324732
C166	C	1.091814	0.970730	-0.341920
C167	C	1.425147	1.304063	-0.008586
C168	C	1.758481	1.637397	0.324747
C169	C	1.142371	0.938004	-0.301872
C170	C	1.475705	1.271338	0.031461
C171	C	1.809038	1.604671	0.364794
C172	C	1.192937	0.261847	-0.567628
C173	C	1.526270	0.595181	-0.234294
C174	C	1.859604	0.928514	0.099039
C175	C	1.192936	0.261820	-0.633063
C176	C	1.526269	0.595154	-0.299730
C177	C	1.859602	0.928487	0.033604
C178	C	1.142359	0.301874	-0.665766
C179	C	1.475693	0.635208	-0.332433
C180	C	1.809026	0.968541	0.000900
C181	C	1.091766	0.341947	-0.633029
C182	C	1.425099	0.675281	-0.299695
C183	C	1.758432	1.008614	0.033638
C184	C	1.091763	0.341969	-0.567594
C185	C	1.425096	0.675302	-0.234261
C186	C	1.758429	1.008635	0.099072
C187	C	1.136082	0.358290	-0.769429
C188	C	1.469415	0.691623	-0.436096
C189	C	1.802748	1.024956	-0.102762
C190	C	1.136090	0.358269	-0.834862
C191	C	1.469424	0.691603	-0.501529
C192	C	1.802757	1.024936	-0.168195
C193	C	1.142364	0.301808	-0.867587
C194	C	1.475697	0.635142	-0.534254
C195	C	1.809031	0.968475	-0.200920
C196	C	1.148646	0.245366	-0.834871
C197	C	1.481979	0.578699	-0.501538
C198	C	1.815313	0.912033	-0.168205
C199	C	1.148643	0.245387	-0.769437
C200	C	1.481976	0.578721	-0.436104
C201	C	1.815309	0.912054	-0.102770
C202	C	1.142357	0.301856	-0.736719
C203	C	1.475690	0.635189	-0.403385
C204	C	1.809023	0.968522	-0.070052
C205	C	1.192949	0.261706	-0.971269
C206	C	1.526283	0.595039	-0.637936
C207	C	1.859616	0.928372	-0.304603
C208	C	1.192943	0.261678	-1.036706
C209	C	1.526276	0.595011	-0.703373
C210	C	1.859610	0.928344	-0.370039
C211	C	1.091777	0.341810	-1.036670
C212	C	1.425110	0.675144	-0.703337
C213	C	1.758444	1.008477	-0.370004
C214	C	1.091779	0.341833	-0.971235
C215	C	1.425113	0.675166	-0.637902
C216	C	1.758446	1.008499	-0.304568
C217	C	1.142370	0.301781	-0.938538
C218	C	1.475703	0.635115	-0.605205
C219	C	1.809037	0.968448	-0.271872
C220	C	1.142240	0.301903	-0.139046
C221	C	1.475573	0.635236	0.194288
C222	C	1.808906	0.968569	0.527621
C223	C	1.142365	0.301732	-0.069405
C224	C	1.475698	0.635065	0.263929
C225	C	1.809032	0.968398	0.597262
H226	H	0.841352	0.229111	-0.229264
H227	H	1.174685	0.562444	0.104069
H228	H	1.508019	0.895777	0.437403
Br229	Br	1.022972	0.522707	-0.396182
Br230	Br	1.356305	0.856040	-0.062848
Br231	Br	1.689638	1.189374	0.270485
Br232	Br	1.157167	0.168735	-0.879275
Br233	Br	1.490501	0.502068	-0.545942
Br234	Br	1.823834	0.835401	-0.212608
H235	H	0.717533	0.189002	-0.189275
H236	H	1.050866	0.522335	0.144058
H237	H	1.384200	0.855668	0.477391
Br238	Br	0.421530	0.207367	-0.207586
Br239	Br	0.754863	0.540701	0.125747
Br240	Br	1.088197	0.874034	0.459081
Br241	Br	0.545344	0.167228	-0.167582
Br242	Br	0.878677	0.500562	0.165752
Br243	Br	1.212011	0.833895	0.499085
H244	H	1.234132	0.944060	-0.229240
H245	H	1.567465	1.277393	0.104093
H246	H	1.900798	1.610727	0.437427
Br247	Br	1.023042	0.676944	-0.396203
Br248	Br	1.356375	1.010278	-0.062869
Br249	Br	1.689709	1.343611	0.270464
Br250	Br	1.261603	0.207350	-0.926892
Br251	Br	1.594937	0.540683	-0.593558
Br252	Br	1.928270	0.874017	-0.260225
Br253	Br	1.261592	0.207490	-0.523256
Br254	Br	1.594925	0.540823	-0.189923
Br255	Br	1.928258	0.874156	0.143410
H256	H	1.153755	0.199430	-0.742802
H257	H	1.487089	0.532763	-0.409469
H258	H	1.820422	0.866097	-0.076136
Br259	Br	1.261458	0.676890	-0.207461
Br260	Br	1.594791	1.010223	0.125872
Br261	Br	1.928124	1.343556	0.459205
H262	H	1.271492	0.742178	-0.292964
H263	H	1.604825	1.075511	0.040370
H264	H	1.938158	1.408844	0.373703
Br265	Br	1.023233	1.080581	-0.396277
Br266	Br	1.356566	1.413914	-0.062944
Br267	Br	1.689900	1.747247	0.270389
H268	H	1.013118	0.861050	-0.310727
H269	H	1.346451	1.194383	0.022606
H270	H	1.679785	1.527717	0.355940
Br271	Br	1.261570	0.207420	-0.677492
Br272	Br	1.594904	0.540754	-0.344159
Br273	Br	1.928237	0.874087	-0.010825
Br274	Br	0.421565	0.396570	-0.396112
Br275	Br	0.754898	0.729903	-0.062779
Br276	Br	1.088232	1.063237	0.270554
H277	H	0.567795	0.414888	-0.414393
H278	H	0.901129	0.748221	-0.081060
H279	H	1.234462	1.081554	0.252273
Br280	Br	1.261611	0.207302	-1.081127
Br281	Br	1.594944	0.540635	-0.747793
Br282	Br	1.928277	0.873968	-0.414460
H283	H	0.841378	0.374729	-0.374387
H284	H	1.174711	0.708063	-0.041053
H285	H	1.508044	1.041396	0.292280
H286	H	1.050588	0.374417	-1.063297
H287	H	1.383922	0.707750	-0.729963
H288	H	1.717255	1.041083	-0.396630
H289	H	1.050593	0.374466	-0.944586
H290	H	1.383927	0.707799	-0.611253
H291	H	1.717260	1.041132	-0.277919
Br292	Br	1.127576	0.434869	-0.879255
Br293	Br	1.460910	0.768202	-0.545922
Br294	Br	1.794243	1.101535	-0.212589
Br295	Br	0.974388	0.724606	-0.313363
Br296	Br	1.307722	1.057939	0.019970
Br297	Br	1.641055	1.391273	0.353303
H298	H	0.717557	0.414878	-0.414396
H299	H	1.050891	0.748211	-0.081062
H300	H	1.384224	1.081545	0.252271
Br301	Br	1.023120	0.396303	-0.677410
Br302	Br	1.356453	0.729636	-0.344076
Br303	Br	1.689787	1.062969	-0.010743
Br304	Br	1.023159	0.926347	-0.396246
Br305	Br	1.356492	1.259681	-0.062913
Br306	Br	1.689826	1.593014	0.270421
H307	H	1.130762	0.404255	-0.742790
H308	H	1.464095	0.737588	-0.409456
H309	H	1.797428	1.070922	-0.076123
H310	H	1.233935	0.540421	-0.229168
H311	H	1.567269	0.873755	0.104165
H312	H	1.900602	1.207088	0.437498
Br313	Br	1.310224	0.878624	-0.290329
Br314	Br	1.643557	1.211958	0.043005
Br315	Br	1.976890	1.545291	0.376338
H316	H	1.234196	1.062767	-0.229270
H317	H	1.567530	1.396100	0.104063
H318	H	1.900863	1.729433	0.437396
Br319	Br	1.023106	0.396352	-0.523172
Br320	Br	1.356440	0.729686	-0.189839
Br321	Br	1.689773	1.063019	0.143494
