data_functionalizedCrystal
_audit_creation_method	'MofGen! by Chris Wilmer'
_symmetry_space_group_name_H-M	'P1'
_symmetry_Int_Tables_number	1
_symmetry_cell_setting	triclinic
loop_
_symmetry_equiv_pos_as_xyz
  x,y,z
_cell_length_a	12.759395
_cell_length_b	12.594516
_cell_length_c	12.759387
_cell_angle_alpha	90.028490
_cell_angle_beta	90.020509
_cell_angle_gamma	90.017589
loop_
_atom_site_label
_atom_site_type_symbol
_atom_site_fract_x
_atom_site_fract_y
_atom_site_fract_z
Zn1	Zn	1.606259	-0.423642	0.594022
Zn2	Zn	1.606145	-0.601660	0.418349
Zn3	Zn	1.430557	-0.423700	0.418359
Zn4	Zn	1.430545	-0.601584	0.593989
O5	O	1.518377	-0.512647	0.506180
O6	O	1.753265	-0.447264	0.570729
O7	O	1.582811	-0.578109	0.271330
O8	O	1.453917	-0.274747	0.441679
O9	O	1.753181	-0.578053	0.441663
O10	O	1.583004	-0.274704	0.570738
O11	O	1.453807	-0.447363	0.271336
O12	O	1.283534	-0.447290	0.441646
O13	O	1.453897	-0.577924	0.741014
O14	O	1.283526	-0.577980	0.570681
O15	O	1.582993	-0.447191	0.741039
O16	O	1.582799	-0.750595	0.441631
O17	O	1.453786	-0.750540	0.570672
C18	C	1.245409	-0.512634	0.506162
C19	C	1.128632	-0.512654	0.506179
C20	C	1.128662	-0.648962	0.640325
C21	C	1.073816	-0.717124	0.707401
C22	C	0.964094	-0.717137	0.707414
C23	C	0.909216	-0.648978	0.640346
C24	C	0.964062	-0.580816	0.573270
C25	C	1.073786	-0.580812	0.573262
C26	C	0.964033	-0.444504	0.439130
C27	C	1.073754	-0.444495	0.439111
C28	C	0.909155	-0.376345	0.372062
C29	C	0.964001	-0.308186	0.304979
C30	C	1.073729	-0.308177	0.304968
C31	C	1.128600	-0.376332	0.372034
C32	C	1.518308	-0.789188	0.506169
C33	C	1.518374	-0.907493	0.506200
C34	C	1.448198	-0.976755	0.576336
C35	C	1.422596	-1.047624	0.480469
C36	C	1.544072	-1.047422	0.602083
C37	C	1.492722	-0.976805	0.410282
C38	C	1.614242	-0.976596	0.531961
C39	C	1.588677	-1.047434	0.436028
C40	C	1.792410	-0.512660	0.506198
C41	C	1.909187	-0.512666	0.506206
C42	C	1.518456	-0.512542	0.780213
C43	C	1.518490	-0.512498	0.896990
C44	C	1.518474	-0.235026	0.506213
C45	C	1.518516	-0.116720	0.506227
C46	C	1.518358	-0.512674	0.233212
C47	C	1.518528	-0.512418	0.116436
C48	C	1.652927	-0.376375	0.897035
C49	C	1.720160	-0.308297	0.951919
C50	C	1.720185	-0.308258	1.061641
C51	C	1.652968	-0.376302	1.116481
C52	C	1.585735	-0.444380	1.061598
C53	C	1.585719	-0.444413	0.951874
C54	C	1.451295	-0.580496	1.061553
C55	C	1.451273	-0.580542	0.951831
C56	C	1.384078	-0.648540	1.116393
C57	C	1.316848	-0.716624	1.061510
C58	C	1.316826	-0.716661	0.951781
C59	C	1.384040	-0.648619	0.896947
H60	H	1.388745	-0.945719	0.635562
C61	C	1.652992	-0.376253	1.237172
H62	H	1.702661	-0.325965	1.262004
H63	H	1.585206	-0.357832	1.261984
H64	H	1.671143	-0.444936	1.261986
C65	C	1.794137	-0.233378	1.122020
H66	H	1.784516	-0.243100	1.195219
H67	H	1.864718	-0.248968	1.104048
H68	H	1.778783	-0.161861	1.104052
C69	C	1.249352	-0.648946	0.640318
H70	H	1.274180	-0.699292	0.689872
H71	H	1.274148	-0.667255	0.572487
H72	H	1.274188	-0.580276	0.658617
H73	H	1.384099	-0.648499	1.205734
H74	H	1.341588	-1.078847	0.458703
C75	C	1.134051	-0.233194	0.231186
H76	H	1.085650	-0.192611	0.191246
H77	H	1.176885	-0.186869	0.271452
H78	H	1.176821	-0.273849	0.185324
C79	C	1.242887	-0.791567	0.891418
H80	H	1.202874	-0.832091	0.939796
H81	H	1.197115	-0.750880	0.848601
H82	H	1.283070	-0.837966	0.848628
C83	C	0.903640	-0.233217	0.231216
H84	H	0.952016	-0.192617	0.191266
H85	H	0.860799	-0.273874	0.185378
H86	H	0.860875	-0.186891	0.271503
H87	H	1.262120	-0.772014	1.106170
C88	C	1.249291	-0.376322	0.372021
H89	H	1.274099	-0.325971	0.322465
H90	H	1.274146	-0.358006	0.439851
H91	H	1.274086	-0.444986	0.353722
H92	H	1.384033	-0.648647	0.807606
C93	C	1.794097	-0.233459	0.891593
H94	H	1.784463	-0.243236	0.818386
H95	H	1.778762	-0.161934	0.909583
H96	H	1.864686	-0.249052	0.909586
C97	C	1.134183	-0.792094	0.781170
H98	H	1.207384	-0.782334	0.771553
H99	H	1.116236	-0.776612	0.851789
H100	H	1.116177	-0.863594	0.765663
C101	C	1.573362	-1.089326	0.711607
H102	H	1.523382	-1.065112	0.761339
H103	H	1.573833	-1.164743	0.710681
H104	H	1.640936	-1.063950	0.730377
H105	H	1.470951	-0.945913	0.329184
C106	C	1.668927	-1.089107	0.355832
H107	H	1.650551	-1.064798	0.287792
H108	H	1.736773	-1.063712	0.373541
H109	H	1.668944	-1.164531	0.356675
H110	H	1.695232	-0.945377	0.553774
C111	C	0.903761	-0.792066	0.781241
H112	H	0.952154	-0.832647	0.821193
H113	H	0.861010	-0.751368	0.827073
H114	H	0.860910	-0.838413	0.741008
H115	H	1.652922	-0.376409	0.807694
H116	H	0.819875	-0.648985	0.640371
H117	H	0.819813	-0.376356	0.372082
