data_functionalizedCrystal
_audit_creation_method	'MofGen! by Chris Wilmer'
_symmetry_space_group_name_H-M	'P1'
_symmetry_Int_Tables_number	1
_symmetry_cell_setting	triclinic
loop_
_symmetry_equiv_pos_as_xyz
  x,y,z
_cell_length_a	10.686220
_cell_length_b	10.686285
_cell_length_c	10.685986
_cell_angle_alpha	98.412590
_cell_angle_beta	80.968697
_cell_angle_gamma	90.345431
loop_
_atom_site_label
_atom_site_type_symbol
_atom_site_fract_x
_atom_site_fract_y
_atom_site_fract_z
Zn1	Zn	1.911629	-0.313768	0.543006
Zn2	Zn	1.946573	-0.539858	0.312019
Zn3	Zn	1.718138	-0.343930	0.344534
Zn4	Zn	1.718162	-0.539769	0.540470
O5	O	1.823625	-0.434331	0.435007
O6	O	2.092831	-0.331174	0.499818
O7	O	1.930884	-0.526528	0.137663
O8	O	1.729171	-0.163350	0.385531
O9	O	2.118504	-0.497282	0.330113
O10	O	1.871328	-0.141190	0.531347
O11	O	1.763055	-0.382580	0.161552
O12	O	1.541574	-0.382493	0.383072
O13	O	1.729212	-0.497129	0.719475
O14	O	1.541592	-0.526375	0.527026
O15	O	1.871351	-0.331087	0.721338
O16	O	1.930907	-0.716425	0.327655
O17	O	1.763095	-0.716359	0.495497
C18	C	1.495801	-0.457698	0.458303
C19	C	1.355557	-0.467723	0.468297
C20	C	1.850828	-0.762173	0.407798
C21	C	1.862577	-0.902413	0.396192
C22	C	2.152730	-0.410874	0.411621
C23	C	2.292974	-0.400877	0.401655
C24	C	1.796386	-0.410734	0.768029
C25	C	1.784779	-0.400678	0.909943
C26	C	1.796349	-0.105205	0.462348
C27	C	1.784725	0.035049	0.474000
C28	C	1.850824	-0.457741	0.103284
C29	C	1.862646	-0.467423	-0.038618
H30	H	1.301840	-0.532634	0.532994
Cl31	Cl	1.375898	-0.300677	0.301758
Cl32	Cl	1.668140	-0.300569	1.009572
H33	H	1.709086	-0.911205	0.549495
Cl34	Cl	1.979355	-0.985398	0.279611
H35	H	1.938195	-0.532249	0.896854
