data_functionalizedCrystal
_audit_creation_method	'MofGen! by Chris Wilmer'
_symmetry_space_group_name_H-M	'P1'
_symmetry_Int_Tables_number	1
_symmetry_cell_setting	triclinic
loop_
_symmetry_equiv_pos_as_xyz
  x,y,z
_cell_length_a	18.215407
_cell_length_b	18.215405
_cell_length_c	18.215399
_cell_angle_alpha	89.967040
_cell_angle_beta	89.983176
_cell_angle_gamma	90.025333
loop_
_atom_site_label
_atom_site_type_symbol
_atom_site_fract_x
_atom_site_fract_y
_atom_site_fract_z
Zn1	Zn	1.125050	-0.292966	-0.416103
Zn2	Zn	1.625050	0.207034	0.083897
Zn3	Zn	1.124965	-0.416042	-0.293031
Zn4	Zn	1.624965	0.083958	0.206969
Zn5	Zn	1.001989	-0.292995	-0.293050
Zn6	Zn	1.501989	0.207005	0.206950
Zn7	Zn	1.001949	-0.415996	-0.416056
Zn8	Zn	1.501949	0.084004	0.083944
O9	O	1.063488	-0.354500	-0.354560
O10	O	1.563488	0.145500	0.145440
O11	O	1.228023	-0.309299	-0.399788
O12	O	1.728023	0.190701	0.100212
O13	O	1.108633	-0.399751	-0.190049
O14	O	1.608633	0.100249	0.309951
O15	O	1.018366	-0.190007	-0.309401
O16	O	1.518366	0.309993	0.190599
O17	O	1.227961	-0.399723	-0.309368
O18	O	1.727961	0.100277	0.190632
O19	O	1.108778	-0.189985	-0.399807
O20	O	1.608778	0.310015	0.100193
O21	O	1.018283	-0.309349	-0.190063
O22	O	1.518283	0.190651	0.309937
O23	O	0.898999	-0.309304	-0.309355
O24	O	1.398999	0.190696	0.190645
O25	O	1.018297	-0.399644	-0.519046
O26	O	1.518297	0.100356	-0.019046
O27	O	0.898970	-0.399672	-0.399727
O28	O	1.398970	0.100328	0.100273
O29	O	1.108739	-0.309254	-0.519081
O30	O	1.608739	0.190746	-0.019081
O31	O	1.108594	-0.519020	-0.309322
O32	O	1.608594	-0.019020	0.190678
O33	O	1.018214	-0.518986	-0.399708
O34	O	1.518214	-0.018986	0.100292
C35	C	0.872282	-0.354487	-0.354539
C36	C	1.372282	0.145513	0.145461
C37	C	0.790483	-0.354499	-0.354547
C38	C	1.290483	0.145501	0.145453
C39	C	0.602293	-0.401628	-0.401545
C40	C	1.102293	0.098372	0.098455
C41	C	0.525434	-0.401630	-0.401554
C42	C	1.025434	0.098370	0.098446
C43	C	0.525436	-0.307384	-0.307591
C44	C	1.025436	0.192616	0.192409
C45	C	0.602293	-0.307379	-0.307586
C46	C	1.102293	0.192621	0.192414
C47	C	0.640720	-0.354505	-0.354562
C48	C	1.140720	0.145495	0.145438
C49	C	0.487003	-0.354513	-0.354576
C50	C	0.987003	0.145487	0.145424
C51	C	0.403670	-0.354515	-0.354585
C52	C	0.903670	0.145485	0.145415
C53	C	0.724059	-0.354502	-0.354553
C54	C	1.224059	0.145498	0.145447
C55	C	1.063410	-0.545706	-0.354524
C56	C	1.563410	-0.045706	0.145476
C57	C	1.063445	-0.627505	-0.354534
C58	C	1.563445	-0.127505	0.145466
C59	C	1.110616	-0.815692	-0.307556
C60	C	1.610616	-0.315692	0.192444
C61	C	1.110649	-0.892551	-0.307574
C62	C	1.610649	-0.392551	0.192426
C63	C	1.016455	-0.892555	-0.401616
C64	C	1.516455	-0.392555	0.098384
C65	C	1.016426	-0.815698	-0.401601
C66	C	1.516426	-0.315698	0.098399
C67	C	1.063506	-0.777268	-0.354567
C68	C	1.563506	-0.277268	0.145433
C69	C	1.063567	-0.930984	-0.354600
C70	C	1.563567	-0.430984	0.145400
C71	C	1.063602	-1.014318	-0.354619
C72	C	1.563602	-0.514318	0.145381
C73	C	1.063471	-0.693929	-0.354548
C74	C	1.563471	-0.193929	0.145452
C75	C	1.255441	-0.354513	-0.354581
C76	C	1.755441	0.145487	0.145419
C77	C	1.337240	-0.354518	-0.354591
C78	C	1.837240	0.145482	0.145409
C79	C	1.063523	-0.354441	-0.546513
C80	C	1.563523	0.145559	-0.046513
C81	C	1.063538	-0.354416	-0.628312
C82	C	1.563538	0.145584	-0.128312
C83	C	1.063586	-0.162547	-0.354611
C84	C	1.563586	0.337453	0.145389
C85	C	1.063628	-0.080748	-0.354633
C86	C	1.563628	0.419252	0.145367
C87	C	1.016532	-0.307311	-0.816514
C88	C	1.516532	0.192689	-0.316514
C89	C	1.016545	-0.307297	-0.893373
C90	C	1.516545	0.192703	-0.393373
C91	C	1.110631	-0.401432	-0.893347
C92	C	1.610631	0.098568	-0.393347
C93	C	1.110614	-0.401450	-0.816490
C94	C	1.610614	0.098550	-0.316490
C95	C	1.063566	-0.354386	-0.778075
C96	C	1.563566	0.145614	-0.278075
C97	C	1.063596	-0.354353	-0.931791
C98	C	1.563596	0.145647	-0.431791
C99	C	1.063610	-0.354337	-1.015125
C100	C	1.563610	0.145663	-0.515125
C101	C	1.063550	-0.354402	-0.694736
C102	C	1.563550	0.145598	-0.194736
C103	C	1.063496	-0.354505	-0.163353
C104	C	1.563496	0.145495	0.336647
C105	C	1.063624	-0.354323	-0.081555
C106	C	1.563624	0.145677	0.418445
H107	H	0.494139	-0.269017	-0.269344
H108	H	0.994139	0.230983	0.230656
H109	H	1.148916	-0.439786	-0.785192
H110	H	1.648916	0.060214	-0.285192
H111	H	0.633581	-0.269001	-0.269327
H112	H	1.133581	0.230999	0.230673
Br113	Br	0.952492	-0.763546	-0.465413
Br114	Br	1.452492	-0.263546	0.034587
Br115	Br	0.473286	-0.465583	-0.465322
Br116	Br	0.973286	0.034417	0.034678
H117	H	0.633578	-0.439999	-0.439797
H118	H	1.133578	0.060001	0.060203
Br119	Br	1.174480	-0.465302	-0.945486
Br120	Br	1.674480	0.034698	-0.445486
H121	H	1.148952	-0.784404	-0.269260
H122	H	1.648952	-0.284404	0.230740
Br123	Br	0.952699	-0.243420	-0.945537
Br124	Br	1.452699	0.256580	-0.445537
Br125	Br	1.174591	-0.944694	-0.243775
Br126	Br	1.674591	-0.444694	0.256225
H127	H	0.978123	-0.923854	-0.439908
H128	H	1.478123	-0.423854	0.060092
H129	H	0.978223	-0.268989	-0.785239
H130	H	1.478223	0.231011	-0.285239
