data_functionalizedCrystal
_audit_creation_method	'MofGen! by Chris Wilmer'
_symmetry_space_group_name_H-M	'P1'
_symmetry_Int_Tables_number	1
_symmetry_cell_setting	triclinic
loop_
_symmetry_equiv_pos_as_xyz
  x,y,z
_cell_length_a	22.010155
_cell_length_b	11.792241
_cell_length_c	11.792241
_cell_angle_alpha	84.193416
_cell_angle_beta	90.011159
_cell_angle_gamma	89.988275
loop_
_atom_site_label
_atom_site_type_symbol
_atom_site_fract_x
_atom_site_fract_y
_atom_site_fract_z
O1	O	-0.050466	-1.506888	-0.155580
O2	O	-0.050481	-1.176547	-0.171613
O3	O	-0.050469	-1.349734	0.001574
O4	O	-0.050478	-1.333701	-0.328767
O5	O	0.050581	-1.349761	0.001604
O6	O	0.050570	-1.176574	-0.171583
O7	O	0.050584	-1.506915	-0.155550
Cu8	Cu	0.059804	-1.341747	-0.163564
Cu9	Cu	-0.059700	-1.341715	-0.163599
O10	O	0.050572	-1.333728	-0.328737
C11	C	0.000043	-1.134269	-0.170591
C12	C	0.000038	-1.008256	-0.167576
N13	N	-0.143753	-1.341693	-0.163616
C14	C	0.000056	-1.348740	0.043880
C15	C	0.000055	-1.345726	0.169894
C16	C	-0.563527	-1.418597	-0.087046
C17	C	-0.627134	-1.418605	-0.087041
O18	O	-0.660022	-1.483976	-0.021983
N19	N	-0.658960	-1.341770	-0.163564
C20	C	-0.627174	-1.264931	-0.240105
O21	O	-0.660085	-1.199578	-0.305194
C22	C	-0.563568	-1.264929	-0.240115
C23	C	-0.531746	-1.341761	-0.163579
C24	C	-0.531705	-1.495424	-0.010518
C25	C	-0.468102	-1.495414	-0.010521
C26	C	-0.436320	-1.418578	-0.087054
C27	C	-0.468142	-1.341751	-0.163583
C28	C	-0.531783	-1.188095	-0.316660
C29	C	-0.468172	-1.188101	-0.316663
C30	C	-0.436350	-1.264933	-0.240128
C31	C	-0.372758	-1.264905	-0.240119
N32	N	-0.340933	-1.341740	-0.163596
C33	C	-0.372714	-1.418576	-0.087063
C34	C	-0.760752	-1.264941	-0.240081
C35	C	-0.824357	-1.264937	-0.240067
C36	C	-0.824313	-1.418613	-0.087004
C37	C	-0.760707	-1.418611	-0.087014
C38	C	-0.728927	-1.341776	-0.163558
C39	C	-0.239143	-1.418549	-0.087077
C40	C	-0.175534	-1.418529	-0.087084
C41	C	-0.175583	-1.264858	-0.240150
C42	C	-0.239187	-1.264873	-0.240139
C43	C	-0.270965	-1.341728	-0.163598
O44	O	-0.339831	-1.199571	-0.305147
O45	O	-0.339796	-1.483927	-0.021995
N46	N	0.143856	-1.341777	-0.163538
C47	C	0.000059	-1.549192	-0.156572
C48	C	0.000061	-1.675206	-0.159587
C49	C	0.000055	-0.777543	-0.162034
C50	C	0.000045	-0.905929	-0.165113
C51	C	0.000046	-1.334721	-0.371043
C52	C	0.000043	-1.337736	-0.497057
C53	C	0.000045	-1.340183	0.400606
C54	C	0.000051	-1.343262	0.272221
H55	H	-0.149626	-1.481095	-0.024755
H56	H	-0.265009	-1.481133	-0.024751
H57	H	-0.850262	-1.202361	-0.302377
C58	C	-0.858716	-1.502096	-0.003789
C59	C	-0.817239	-1.569372	0.063254
C60	C	-0.848910	-1.646273	0.139928
H61	H	-0.883530	-1.549606	-0.044910
H62	H	-0.883516	-1.461108	0.043884
H63	H	-0.792449	-1.610357	0.015586
H64	H	-0.792424	-1.521894	0.104399
H65	H	-0.873710	-1.605285	0.187602
H66	H	-0.873723	-1.693774	0.098798
H67	H	-0.820773	-1.691921	0.185433
H68	H	-0.149697	-1.202295	-0.302459
C69	C	-0.726219	-1.181681	-0.323311
C70	C	-0.689716	-1.242401	-0.393365
C71	C	-0.657905	-1.165743	-0.470058
H72	H	-0.701357	-1.134241	-0.282202
H73	H	-0.754268	-1.135942	-0.368942
H74	H	-0.661670	-1.288121	-0.347739
H75	H	-0.714562	-1.289837	-0.434499
H76	H	-0.685954	-1.120003	-0.515690
H77	H	-0.633047	-1.118306	-0.428940
H78	H	-0.633138	-1.206930	-0.517606
H79	H	-0.265097	-1.202298	-0.302450
H80	H	-0.557684	-1.125533	-0.378983
H81	H	-0.442196	-1.557980	0.051797
H82	H	-0.557575	-1.557998	0.051804
H83	H	-0.442300	-1.125533	-0.378999
H84	H	-0.734801	-1.481175	-0.024692
