data_functionalizedCrystal
_audit_creation_method	'MofGen! by Chris Wilmer'
_symmetry_space_group_name_H-M	'P1'
_symmetry_Int_Tables_number	1
_symmetry_cell_setting	triclinic
loop_
_symmetry_equiv_pos_as_xyz
  x,y,z
_cell_length_a	10.654546
_cell_length_b	9.730223
_cell_length_c	16.992695
_cell_angle_alpha	90.001831
_cell_angle_beta	87.575853
_cell_angle_gamma	90.001147
loop_
_atom_site_label
_atom_site_type_symbol
_atom_site_fract_x
_atom_site_fract_y
_atom_site_fract_z
O1	O	1.677357	0.114322	0.110173
O2	O	1.312786	0.114318	0.120674
O3	O	1.493610	0.114309	0.001273
O4	O	1.496533	0.114331	0.229575
O5	O	1.493608	-0.114271	0.001276
O6	O	1.312784	-0.114262	0.120677
O7	O	1.677355	-0.114258	0.110176
Zn8	Zn	1.495069	-0.150552	0.115427
Zn9	Zn	1.495072	0.150612	0.115423
O10	O	1.496531	-0.114249	0.229578
C11	C	1.265920	0.000028	0.119905
C12	C	1.126278	0.000026	0.117600
N13	N	1.495077	-0.356088	0.115430
C14	C	1.060690	0.124631	0.116508
C15	C	0.929481	0.124642	0.114336
C16	C	0.929461	-0.124568	0.114345
C17	C	1.060666	-0.124578	0.116523
C18	C	1.126301	0.249235	0.117585
C19	C	1.060713	0.373850	0.116492
C20	C	0.929505	0.373861	0.114320
C21	C	0.863884	0.249257	0.113241
C22	C	1.575169	-0.428018	0.062577
C23	C	1.575165	-0.571901	0.062567
C24	C	1.414973	-0.571911	0.168270
C25	C	1.414971	-0.428031	0.168275
C26	C	1.655275	-0.356075	0.009731
C27	C	1.735375	-0.428006	-0.043125
C28	C	1.735371	-0.571889	-0.043135
C29	C	1.655266	-0.643841	0.009712
C30	C	1.724221	0.000036	0.110945
C31	C	1.863864	0.000046	0.113250
C32	C	1.489849	0.000019	-0.027958
C33	C	1.478630	0.000020	-0.115063
N34	N	1.495074	0.356149	0.115415
C35	C	1.586880	0.000019	-0.164716
C36	C	1.576331	0.000032	-0.246560
C37	C	1.457530	0.000036	-0.278749
C38	C	1.349271	0.000040	-0.229090
C39	C	1.359822	0.000037	-0.147248
C40	C	1.413803	0.000054	-0.522585
C41	C	1.403261	0.000053	-0.604433
C42	C	1.630322	0.000048	-0.621897
C43	C	1.640862	0.000036	-0.540052
C44	C	1.532603	0.000048	-0.490401
N45	N	1.446744	0.000045	-0.362407
N46	N	1.543390	0.000049	-0.406745
C47	C	1.500292	0.000044	0.258809
C48	C	1.511512	0.000053	0.345914
H49	H	1.114149	0.475298	0.117377
O50	O	1.813220	-0.358330	-0.094535
C51	C	1.883931	-0.452677	-0.141175
H52	H	1.832323	-0.555238	-0.142367
H53	H	1.896822	-0.411097	-0.203715
H54	H	1.979823	-0.467985	-0.115158
H55	H	1.114069	-0.226042	0.117417
O56	O	1.681581	0.000208	-0.294709
C57	C	1.753217	0.118601	-0.280028
H58	H	1.728591	0.158066	-0.218121
H59	H	1.857434	0.091966	-0.285213
H60	H	1.731557	0.201503	-0.324877
O61	O	1.655397	-0.216309	0.009611
C62	C	1.743296	-0.168231	-0.048349
H63	H	1.760531	-0.251138	-0.094963
H64	H	1.705041	-0.071968	-0.077133
H65	H	1.835389	-0.142708	-0.019820
O66	O	0.865871	-0.245688	0.113187
C67	C	0.905336	-0.321483	0.045885
H68	H	1.003082	-0.286065	0.024856
H69	H	0.908142	-0.435473	0.061214
H70	H	0.836700	-0.304205	-0.002836
H71	H	1.233138	0.249240	0.119352
O72	O	1.812989	-0.641825	-0.094557
C73	C	1.740854	-0.725071	-0.143344
H74	H	1.641631	-0.681713	-0.145246
H75	H	1.785873	-0.726694	-0.205403
H76	H	1.736728	-0.834119	-0.118836
H77	H	1.349756	-0.630505	0.211297
H78	H	0.876106	0.475329	0.113437
H79	H	1.306514	0.000034	-0.630638
O80	O	1.756363	0.000089	-0.508916
C81	C	1.849649	0.000051	-0.570292
H82	H	1.808855	0.043340	-0.626069
H83	H	1.932106	0.066400	-0.552748
H84	H	1.883421	-0.109613	-0.581688
H85	H	1.718460	0.000041	-0.662332
O86	O	0.736411	0.249398	0.111281
C87	C	0.685214	0.317703	0.178413
H88	H	0.758358	0.390496	0.202238
H89	H	0.599059	0.378918	0.161750
H90	H	0.656825	0.238930	0.225536
H91	H	1.655261	-0.761001	0.009695
O92	O	1.308517	-0.000014	-0.474473
C93	C	1.201403	0.000014	-0.520437
H94	H	1.227175	-0.043255	-0.581339
H95	H	1.125051	-0.066358	-0.490688
H96	H	1.165368	0.109672	-0.526453
H97	H	1.349751	-0.369465	0.211312
O98	O	1.233963	-0.000017	-0.260487
C99	C	1.247860	0.000015	-0.343370
H100	H	1.343987	-0.043259	-0.362056
H101	H	1.171345	-0.066348	-0.368897
H102	H	1.239486	0.109676	-0.366180
H103	H	1.683621	0.000008	-0.138514
H104	H	1.271672	0.000038	-0.106821
