data_functionalizedCrystal
_audit_creation_method	'MofGen! by Chris Wilmer'
_symmetry_space_group_name_H-M	'P1'
_symmetry_Int_Tables_number	1
_symmetry_cell_setting	triclinic
loop_
_symmetry_equiv_pos_as_xyz
  x,y,z
_cell_length_a	19.121063
_cell_length_b	14.908618
_cell_length_c	14.908308
_cell_angle_alpha	90.173623
_cell_angle_beta	84.445373
_cell_angle_gamma	90.697640
loop_
_atom_site_label
_atom_site_type_symbol
_atom_site_fract_x
_atom_site_fract_y
_atom_site_fract_z
Zn1	Zn	-0.366448	-1.324068	0.606430
Zn2	Zn	-0.477506	-1.326216	0.461772
Zn3	Zn	-0.352958	-1.183165	0.446731
Zn4	Zn	-0.476668	-1.167292	0.603376
O5	O	-0.418395	-1.250185	0.529577
O6	O	-0.387176	-1.449832	0.594813
O7	O	-0.455690	-1.314781	0.333680
O8	O	-0.256496	-1.207600	0.462899
O9	O	-0.468770	-1.451409	0.488533
O10	O	-0.266407	-1.311121	0.580229
O11	O	-0.364185	-1.209683	0.322630
O12	O	-0.363373	-1.055581	0.459938
O13	O	-0.467342	-1.180547	0.729878
O14	O	-0.454262	-1.043919	0.575024
O15	O	-0.386363	-1.295730	0.732121
O16	O	-0.575646	-1.299390	0.485572
O17	O	-0.575031	-1.182630	0.589608
C18	C	-0.407263	-1.017215	0.515518
C19	C	-0.402518	-0.917547	0.509526
C20	C	-0.488379	-0.718167	0.617958
C21	C	-0.483923	-0.624519	0.612331
C22	C	-0.389149	-0.636603	0.492650
C23	C	-0.393604	-0.730250	0.498277
C24	C	-0.443222	-0.771029	0.560932
C25	C	-0.447680	-0.864678	0.566554
C26	C	-0.352903	-0.876760	0.446879
C27	C	-0.348448	-0.783113	0.441252
C28	C	-0.600816	-1.239544	0.538912
C29	C	-0.678861	-1.235072	0.542941
C30	C	-0.715829	-1.293803	0.490718
C31	C	-0.789161	-1.289602	0.494512
C32	C	-0.825525	-1.226665	0.550525
C33	C	-0.788552	-1.167930	0.602754
C34	C	-0.715222	-1.172136	0.598964
C35	C	-1.046921	-1.210926	0.564681
C36	C	-1.120257	-1.206722	0.568466
C37	C	-1.120861	-1.328396	0.460224
C38	C	-1.047528	-1.332593	0.456435
C39	C	-1.010563	-1.273862	0.508667
C40	C	-0.900482	-1.222367	0.554403
C41	C	-0.935607	-1.278164	0.504794
C42	C	-0.235264	-1.260892	0.520227
C43	C	-0.157224	-1.265454	0.516243
C44	C	-0.428264	-1.236129	0.764609
C45	C	-0.432470	-1.230138	0.864765
C46	C	-0.429565	-0.484066	0.543685
C47	C	-0.434311	-0.583734	0.549678
C48	C	-0.408516	-1.264242	0.295461
C49	C	-0.404121	-1.270417	0.195305
C50	C	-0.356033	-1.338820	1.055307
C51	C	-0.359982	-1.333195	1.149413
C52	C	-0.444313	-1.213259	1.147084
C53	C	-0.440364	-1.218884	1.052978
C54	C	-0.396223	-1.281668	1.007093
C55	C	-0.392278	-1.287297	0.912986
C56	C	-0.476605	-1.167357	0.910659
C57	C	-0.480554	-1.161732	1.004765
H58	H	-0.348749	-0.603385	0.441646
N59	N	-0.528166	-1.094027	1.054262
H60	H	-0.553029	-1.058677	1.009436
H61	H	-0.499247	-1.051862	1.089343
N62	N	-0.829030	-1.352948	0.438182
H63	H	-0.856003	-1.317292	0.395776
H64	H	-0.862895	-1.390528	0.478972
N65	N	-0.316628	-1.394829	1.201416
H66	H	-0.288066	-1.435451	1.158065
H67	H	-0.348823	-1.432326	1.244428
H68	H	-0.480250	-1.162143	1.184461
H69	H	-0.308049	-0.749898	0.390242
H70	H	-0.818166	-1.116689	0.648366
N71	N	-0.304198	-0.933775	0.385361
H72	H	-0.314550	-0.999289	0.398428
H73	H	-0.253883	-0.919484	0.395935
N74	N	-1.160739	-1.391739	0.403903
H75	H	-1.151579	-1.455690	0.421154
H76	H	-1.144626	-1.382372	0.338032
N77	N	-0.344677	-1.355015	0.863490
H78	H	-0.294532	-1.343041	0.876457
H79	H	-0.348338	-1.349874	0.796577
H80	H	-0.528782	-0.751369	0.668969
H81	H	-0.509332	-1.120821	0.871393
H82	H	-0.488082	-0.897878	0.617570
H83	H	-0.520693	-0.581482	0.658769
H84	H	-0.320095	-1.389945	1.017947
H85	H	-1.017923	-1.383841	0.410825
H86	H	-0.686226	-1.345050	0.445102
N87	N	-1.159478	-1.138835	0.628883
H88	H	-1.150058	-1.149595	0.693455
H89	H	-1.211526	-1.145116	0.623276
H90	H	-1.016830	-1.163103	0.607209
H91	H	-0.685124	-1.124312	0.641491
N92	N	-0.896385	-1.346042	0.444383
H93	H	-0.905807	-1.335283	0.379812
H94	H	-0.912762	-1.408501	0.463023
N95	N	-0.939700	-1.154478	0.614810
H96	H	-0.973580	-1.186641	0.660365
H97	H	-0.966601	-1.113423	0.577154
