data_functionalizedCrystal
_audit_creation_method	'MofGen! by Chris Wilmer'
_symmetry_space_group_name_H-M	'P1'
_symmetry_Int_Tables_number	1
_symmetry_cell_setting	triclinic
loop_
_symmetry_equiv_pos_as_xyz
  x,y,z
_cell_length_a	23.532407
_cell_length_b	26.809956
_cell_length_c	23.532407
_cell_angle_alpha	90.010827
_cell_angle_beta	82.848678
_cell_angle_gamma	90.018553
loop_
_atom_site_label
_atom_site_type_symbol
_atom_site_fract_x
_atom_site_fract_y
_atom_site_fract_z
O1	O	0.755276	0.041422	0.069134
O2	O	1.088609	0.374756	0.402467
O3	O	1.421942	0.708089	0.735801
O4	O	0.589412	0.041438	0.079137
O5	O	0.922746	0.374771	0.412471
O6	O	1.256079	0.708104	0.745804
O7	O	0.677346	0.041420	-0.008796
O8	O	1.010679	0.374754	0.324537
O9	O	1.344012	0.708087	0.657871
O10	O	0.667342	0.041440	0.157067
O11	O	1.000676	0.374773	0.490401
O12	O	1.334009	0.708106	0.823734
O13	O	0.677306	-0.041539	-0.008797
O14	O	1.010639	0.291795	0.324536
O15	O	1.343972	0.625128	0.657870
O16	O	0.589372	-0.041522	0.079136
O17	O	0.922706	0.291812	0.412470
O18	O	1.256039	0.625145	0.745803
O19	O	0.755236	-0.041537	0.069133
O20	O	1.088569	0.291796	0.402466
O21	O	1.421903	0.625130	0.735800
Zn22	Zn	0.672298	-0.054701	0.074134
Zn23	Zn	1.005631	0.278633	0.407468
Zn24	Zn	1.338965	0.611966	0.740801
Zn25	Zn	0.672350	0.054602	0.074136
Zn26	Zn	1.005684	0.387935	0.407469
Zn27	Zn	1.339017	0.721268	0.740802
O28	O	0.667303	-0.041520	0.157066
O29	O	1.000636	0.291814	0.490400
O30	O	1.333969	0.625147	0.823733
C31	C	0.568176	-0.000040	0.078882
C32	C	0.901510	0.333293	0.412215
C33	C	1.234843	0.666627	0.745549
C34	C	0.504959	-0.000035	0.078116
C35	C	0.838293	0.333299	0.411449
C36	C	1.171626	0.666632	0.744783
N37	N	0.672266	-0.129297	0.074133
N38	N	1.005600	0.204037	0.407466
N39	N	1.338933	0.537370	0.740800
C40	C	0.105856	-0.000052	0.125350
C41	C	0.439190	0.333282	0.458683
C42	C	0.772523	0.666615	0.792016
C43	C	0.046456	-0.000055	0.124638
C44	C	0.379789	0.333278	0.457971
C45	C	0.713123	0.666612	0.791305
O46	O	0.009711	-0.000068	0.168424
O47	O	0.343045	0.333265	0.501757
O48	O	0.676378	0.666599	0.835091
N49	N	0.023830	-0.000060	0.072362
N50	N	0.357163	0.333273	0.405695
N51	N	0.690496	0.666607	0.739028
C52	C	0.060607	-0.000067	0.020794
C53	C	0.393941	0.333266	0.354127
C54	C	0.727274	0.666599	0.687460
O55	O	0.035908	-0.000072	-0.023737
O56	O	0.369241	0.333261	0.309596
O57	O	0.702574	0.666594	0.642930
C58	C	0.120006	-0.000068	0.021506
C59	C	0.453340	0.333266	0.354839
C60	C	0.786673	0.666599	0.688172
C61	C	0.142629	-0.000057	0.073785
C62	C	0.475962	0.333276	0.407119
C63	C	0.809296	0.666609	0.740452
C64	C	0.128479	-0.000042	0.177625
C65	C	0.461813	0.333291	0.510958
C66	C	0.795146	0.666625	0.844292
C67	C	0.187876	-0.000038	0.178336
C68	C	0.521209	0.333295	0.511670
C69	C	0.854542	0.666629	0.845003
C70	C	0.224648	-0.000044	0.126772
C71	C	0.557982	0.333290	0.460105
C72	C	0.891315	0.666623	0.793439
C73	C	0.202025	-0.000053	0.074496
C74	C	0.535359	0.333280	0.407830
C75	C	0.868692	0.666613	0.741163
C76	C	0.156783	-0.000078	-0.030062
C77	C	0.490116	0.333255	0.303271
C78	C	0.823450	0.666588	0.636605
C79	C	0.216185	-0.000079	-0.029345
C80	C	0.549519	0.333254	0.303988
C81	C	0.882852	0.666587	0.637321
C82	C	0.238808	-0.000069	0.022934
C83	C	0.572141	0.333264	0.356268
C84	C	0.905475	0.666598	0.689601
C85	C	0.298194	-0.000055	0.023643
C86	C	0.631528	0.333278	0.356977
C87	C	0.964861	0.666612	0.690310
N88	N	0.320820	-0.000050	0.075920
N89	N	0.654154	0.333284	0.409253
N90	N	0.987487	0.666617	0.742586
C91	C	0.284048	-0.000044	0.127484
C92	C	0.617381	0.333289	0.460817
C93	C	0.950714	0.666623	0.794151
C94	C	-0.064135	-0.000067	0.019302
C95	C	0.269198	0.333266	0.352635
C96	C	0.602531	0.666599	0.685969
C97	C	-0.123533	-0.000063	0.018589
C98	C	0.209800	0.333270	0.351923
C99	C	0.543134	0.666603	0.685256
C100	C	-0.137680	-0.000052	0.122434
C101	C	0.195653	0.333282	0.455768
C102	C	0.528986	0.666615	0.789101
C103	C	-0.078281	-0.000052	0.123146
C104	C	0.255052	0.333281	0.456480
C105	C	0.588385	0.666614	0.789813
C106	C	-0.041509	-0.000062	0.071578
C107	C	0.291824	0.333271	0.404912
C108	C	0.625158	0.666605	0.738245
C109	C	0.408784	-0.000035	0.128974
C110	C	0.742118	0.333298	0.462307
C111	C	1.075451	0.666632	0.795640
C112	C	0.468186	-0.000029	0.129680
C113	C	0.801520	0.333304	0.463014
C114	C	1.134853	0.666638	0.796347
C115	C	0.482329	-0.000043	0.025836
C116	C	0.815662	0.333290	0.359169
C117	C	1.148995	0.666624	0.692503
C118	C	0.422932	-0.000047	0.025129
C119	C	0.756265	0.333287	0.358462
C120	C	1.089598	0.666620	0.691796
C121	C	0.386160	-0.000044	0.076702
C122	C	0.719494	0.333289	0.410036
C123	C	1.052827	0.666622	0.743369
O124	O	0.334974	-0.000044	-0.020119
O125	O	0.668307	0.333289	0.313214
O126	O	1.001640	0.666623	0.646547
O127	O	0.308755	-0.000045	0.172007
O128	O	0.642089	0.333288	0.505340
O129	O	0.975422	0.666621	0.838674
C130	C	0.633374	-0.526172	0.113054
C131	C	0.966708	-0.192839	0.446387
C132	C	1.300041	0.140494	0.779721
C133	C	0.633345	-0.317295	0.113054
C134	C	0.966678	0.016039	0.446388
C135	C	1.300011	0.349372	0.779721
O136	O	0.600205	-0.290288	0.146141
O137	O	0.933539	0.043046	0.479474
O138	O	1.266872	0.376379	0.812807
N139	N	0.672286	-0.291175	0.074131
N140	N	1.005620	0.042158	0.407465
N141	N	1.338953	0.375491	0.740798
C142	C	0.711236	-0.317279	0.035203
C143	C	1.044569	0.016055	0.368536
C144	C	1.377902	0.349388	0.701870
O145	O	0.744353	-0.290270	0.002093
O146	O	1.077687	0.043064	0.335426
O147	O	1.411020	0.376397	0.668759
C148	C	0.711262	-0.526155	0.035200
C149	C	1.044595	-0.192822	0.368534
C150	C	1.377929	0.140511	0.701867
C151	C	0.672322	-0.552272	0.074130
C152	C	1.005655	-0.218939	0.407463
C153	C	1.338988	0.114395	0.740797
C154	C	0.594437	-0.552289	0.151980
C155	C	0.927770	-0.218956	0.485313
C156	C	1.261103	0.114377	0.818647
C157	C	0.594446	-0.604506	0.151982
C158	C	0.927780	-0.271172	0.485315
C159	C	1.261113	0.062161	0.818648
C160	C	0.633394	-0.630605	0.113057
C161	C	0.966727	-0.297272	0.446391
C162	C	1.300061	0.036062	0.779724
C163	C	0.672332	-0.604488	0.074132
C164	C	1.005665	-0.271155	0.407465
C165	C	1.338998	0.062178	0.740798
C166	C	0.750208	-0.552257	-0.003730
C167	C	1.083542	-0.218924	0.329603
C168	C	1.416875	0.114409	0.662936
C169	C	0.750211	-0.604480	-0.003728
C170	C	1.083544	-0.271147	0.329605
C171	C	1.416877	0.062187	0.662938
C172	C	0.711270	-0.630597	0.035201
C173	C	1.044604	-0.297263	0.368534
C174	C	1.377937	0.036070	0.701868
C175	C	0.711289	-0.682804	0.035209
C176	C	1.044622	-0.349471	0.368542
C177	C	1.377956	-0.016137	0.701876
N178	N	0.672347	-0.708924	0.074132
N179	N	1.005681	-0.375590	0.407465
N180	N	1.339014	-0.042257	0.740799
C181	C	0.633400	-0.682824	0.113056
C182	C	0.966733	-0.349491	0.446390
C183	C	1.300067	-0.016157	0.779723
C184	C	0.711220	-0.207615	0.035208
C185	C	1.044553	0.125718	0.368541
C186	C	1.377886	0.459051	0.701874
C187	C	0.711214	-0.155396	0.035209
C188	C	1.044547	0.177937	0.368542
C189	C	1.377880	0.511270	0.701876
C190	C	0.633322	-0.155416	0.113060
C191	C	0.966655	0.177917	0.446393
C192	C	1.299989	0.511251	0.779726
C193	C	0.633331	-0.207636	0.113061
C194	C	0.966664	0.125697	0.446394
C195	C	1.299998	0.459031	0.779728
C196	C	0.672278	-0.233735	0.074131
C197	C	1.005611	0.099599	0.407464
C198	C	1.338945	0.432932	0.740797
C199	C	0.633424	-0.792482	0.113057
C200	C	0.966757	-0.459149	0.446390
C201	C	1.300091	-0.125815	0.779724
C202	C	0.633439	-0.844703	0.113057
C203	C	0.966772	-0.511370	0.446390
C204	C	1.300105	-0.178036	0.779723
C205	C	0.711328	-0.844678	0.035204
C206	C	1.044662	-0.511345	0.368537
C207	C	1.377995	-0.178012	0.701871
C208	C	0.711316	-0.792462	0.035206
C209	C	1.044649	-0.459129	0.368539
C210	C	1.377982	-0.125795	0.701873
C211	C	0.672359	-0.766365	0.074135
C212	C	1.005692	-0.433032	0.407468
C213	C	1.339025	-0.099698	0.740801
O214	O	0.744407	-0.709843	0.002136
O215	O	1.077740	-0.376510	0.335469
O216	O	1.411073	-0.043177	0.668802
O217	O	0.600279	-0.709842	0.146153
O218	O	0.933612	-0.376509	0.479487
O219	O	1.266945	-0.043175	0.812820
C220	C	0.633364	-0.473956	0.113053
C221	C	0.966698	-0.140623	0.446386
C222	C	1.300031	0.192711	0.779719
C223	C	0.672302	-0.447839	0.074127
C224	C	1.005635	-0.114506	0.407460
C225	C	1.338969	0.218827	0.740793
C226	C	0.711249	-0.473939	0.035202
C227	C	1.044583	-0.140606	0.368536
C228	C	1.377916	0.192728	0.701869
C229	C	0.672296	-0.395620	0.074128
C230	C	1.005629	-0.062287	0.407461
C231	C	1.338963	0.271046	0.740794
C232	C	0.633349	-0.369521	0.113052
C233	C	0.966682	-0.036188	0.446385
C234	C	1.300015	0.297146	0.779719
C235	C	0.594407	-0.395640	0.151975
C236	C	0.927740	-0.062307	0.485308
C237	C	1.261074	0.271026	0.818642
C238	C	0.594417	-0.447857	0.151977
C239	C	0.927750	-0.114523	0.485310
C240	C	1.261084	0.218810	0.818643
C241	C	0.750191	-0.447819	-0.003721
C242	C	1.083524	-0.114486	0.329613
C243	C	1.416858	0.218847	0.662946
C244	C	0.750179	-0.395603	-0.003719
C245	C	1.083512	-0.062270	0.329615
C246	C	1.416845	0.271064	0.662948
C247	C	0.711231	-0.369504	0.035206
C248	C	1.044564	-0.036170	0.368539
C249	C	1.377898	0.297163	0.701872
C250	C	0.776472	-0.000058	0.069388
C251	C	1.109805	0.333275	0.402722
C252	C	1.443138	0.666609	0.736055
C253	C	0.839689	-0.000060	0.070154
C254	C	1.173022	0.333273	0.403487
C255	C	1.506355	0.666606	0.736821
C256	C	0.677071	-0.000060	-0.030013
C257	C	1.010404	0.333273	0.303321
C258	C	1.343738	0.666606	0.636654
C259	C	0.676305	-0.000064	-0.093230
C260	C	1.009638	0.333269	0.240104
C261	C	1.342972	0.666602	0.573437
N262	N	0.672386	0.129198	0.074132
N263	N	1.005720	0.462531	0.407466
N264	N	1.339053	0.795864	0.740799
C265	C	0.723539	-0.000041	-0.492333
C266	C	1.056872	0.333292	-0.158999
C267	C	1.390205	0.666625	0.174334
C268	C	0.722827	-0.000037	-0.551733
C269	C	1.056160	0.333296	-0.218400
C270	C	1.389494	0.666629	0.114934
O271	O	0.766613	-0.000023	-0.588478
O272	O	1.099946	0.333310	-0.255144
O273	O	1.433280	0.666644	0.078189
N274	N	0.670551	-0.000033	-0.574359
N275	N	1.003884	0.333300	-0.241026
N276	N	1.337217	0.666634	0.092307
C277	C	0.618983	-0.000027	-0.537582
C278	C	0.952316	0.333306	-0.204248
C279	C	1.285649	0.666639	0.129085
O280	O	0.574452	-0.000023	-0.562281
O281	O	0.907785	0.333311	-0.228948
O282	O	1.241119	0.666644	0.104385
C283	C	0.619695	-0.000027	-0.478182
C284	C	0.953028	0.333306	-0.144849
C285	C	1.286361	0.666639	0.188484
C286	C	0.671974	-0.000037	-0.455560
C287	C	1.005308	0.333296	-0.122227
C288	C	1.338641	0.666630	0.211107
C289	C	0.775814	-0.000050	-0.469710
C290	C	1.109147	0.333283	-0.136376
C291	C	1.442481	0.666616	0.196957
C292	C	0.776525	-0.000055	-0.410313
C293	C	1.109858	0.333278	-0.076980
C294	C	1.443192	0.666612	0.256353
C295	C	0.724961	-0.000051	-0.373540
C296	C	1.058294	0.333283	-0.040207
C297	C	1.391628	0.666616	0.293126
C298	C	0.672685	-0.000042	-0.396164
C299	C	1.006019	0.333292	-0.062830
C300	C	1.339352	0.666625	0.270503
C301	C	0.568127	-0.000018	-0.441406
C302	C	0.901460	0.333315	-0.108073
C303	C	1.234794	0.666648	0.225261
C304	C	0.568844	-0.000018	-0.382004
C305	C	0.902177	0.333315	-0.048670
C306	C	1.235510	0.666649	0.284663
C307	C	0.621123	-0.000028	-0.359381
C308	C	0.954457	0.333306	-0.026048
C309	C	1.287790	0.666639	0.307286
C310	C	0.621832	-0.000042	-0.299995
C311	C	0.955166	0.333291	0.033339
C312	C	1.288499	0.666624	0.366672
N313	N	0.674109	-0.000047	-0.277368
N314	N	1.007442	0.333286	0.055965
N315	N	1.340775	0.666620	0.389298
C316	C	0.725673	-0.000051	-0.314141
C317	C	1.059006	0.333282	0.019192
C318	C	1.392340	0.666616	0.352525
C319	C	0.617491	-0.000026	-0.662324
C320	C	0.950824	0.333308	-0.328991
C321	C	1.284158	0.666641	0.004343
C322	C	0.616778	-0.000029	-0.721722
C323	C	0.950112	0.333304	-0.388389
C324	C	1.283445	0.666638	-0.055055
C325	C	0.720623	-0.000038	-0.735869
C326	C	1.053957	0.333295	-0.402536
C327	C	1.387290	0.666628	-0.069203
C328	C	0.721335	-0.000039	-0.676470
C329	C	1.054669	0.333295	-0.343137
C330	C	1.388002	0.666628	-0.009804
C331	C	0.669767	-0.000030	-0.639698
C332	C	1.003101	0.333303	-0.306365
C333	C	1.336434	0.666636	0.026969
C334	C	0.727163	-0.000062	-0.189405
C335	C	1.060496	0.333272	0.143929
C336	C	1.393829	0.666605	0.477262
C337	C	0.727869	-0.000068	-0.130003
C338	C	1.061203	0.333265	0.203331
C339	C	1.394536	0.666598	0.536664
C340	C	0.624025	-0.000057	-0.115860
C341	C	0.957358	0.333277	0.217473
C342	C	1.290691	0.666610	0.550806
C343	C	0.623318	-0.000052	-0.175257
C344	C	0.956651	0.333281	0.158076
C345	C	1.289985	0.666614	0.491409
C346	C	0.674891	-0.000053	-0.212029
C347	C	1.008225	0.333280	0.121305
C348	C	1.341558	0.666614	0.454638
O349	O	0.578070	-0.000055	-0.263215
O350	O	0.911403	0.333279	0.070118
O351	O	1.244736	0.666612	0.403451
O352	O	0.770196	-0.000049	-0.289433
O353	O	1.103529	0.333284	0.043900
O354	O	1.436863	0.666618	0.377233
C355	C	0.667577	-0.000038	0.178283
C356	C	1.000910	0.333296	0.511616
C357	C	1.334244	0.666629	0.844949
C358	C	0.668343	-0.000031	0.241500
C359	C	1.001676	0.333303	0.574833
C360	C	1.335010	0.666636	0.908167
H361	H	0.486602	-0.000020	0.172255
H362	H	0.819935	0.333313	0.505588
H363	H	1.153269	0.666646	0.838921
Br364	Br	0.798825	-0.000082	-0.099305
Br365	Br	1.132158	0.333251	0.234029
Br366	Br	1.465492	0.666585	0.567362
H367	H	-0.141947	-0.000064	-0.023982
H368	H	0.191387	0.333270	0.309352
H369	H	0.524720	0.666603	0.642685
H370	H	0.763906	-0.000046	-0.658056
H371	H	1.097239	0.333287	-0.324722
H372	H	1.430573	0.666621	0.008611
Br373	Br	0.764073	-0.119958	-0.017616
Br374	Br	1.097406	0.213375	0.315717
Br375	Br	1.430739	0.546709	0.649050
Br376	Br	0.580553	-0.757073	0.165889
Br377	Br	0.913886	-0.423740	0.499222
Br378	Br	1.247220	-0.090407	0.832556
Br379	Br	-0.047586	-0.000038	0.194099
Br380	Br	0.285748	0.333295	0.527433
Br381	Br	0.619081	0.666628	0.860766
H382	H	0.575496	-0.000023	-0.632386
H383	H	0.908829	0.333310	-0.299053
H384	H	1.242162	0.666643	0.034280
H385	H	0.562736	-0.625767	0.183680
H386	H	0.896070	-0.292433	0.517013
H387	H	1.229403	0.040900	0.850346
H388	H	0.378851	-0.000035	0.170970
H389	H	0.712185	0.333299	0.504303
H390	H	1.045518	0.666632	0.837637
H391	H	0.246123	-0.000088	-0.071339
H392	H	0.579457	0.333246	0.261994
H393	H	0.912790	0.666579	0.595327
Br394	Br	0.764082	-0.243029	-0.017630
Br395	Br	1.097415	0.090304	0.315704
Br396	Br	1.430748	0.423638	0.649037
Br397	Br	0.078583	-0.000034	0.247615
Br398	Br	0.411917	0.333299	0.580948
Br399	Br	0.745250	0.666632	0.914282
Br400	Br	0.797156	-0.000062	-0.239299
Br401	Br	1.130489	0.333271	0.094034
Br402	Br	1.463823	0.666605	0.427367
Br403	Br	0.532245	-0.000052	-0.044141
Br404	Br	0.865579	0.333281	0.289193
Br405	Br	1.198912	0.666615	0.622526
H406	H	-0.167632	-0.000050	0.164421
H407	H	0.165701	0.333284	0.497754
H408	H	0.499035	0.666617	0.831087
Br409	Br	0.764172	-0.757019	-0.017621
Br410	Br	1.097506	-0.423686	0.315713
Br411	Br	1.430839	-0.090353	0.649046
Br412	Br	0.580465	-0.119985	0.165885
Br413	Br	0.913799	0.213349	0.499218
Br414	Br	1.247132	0.546682	0.832552
Br415	Br	0.847480	-0.000054	-0.379621
Br416	Br	1.180813	0.333279	-0.046288
Br417	Br	1.514147	0.666613	0.287046
Br418	Br	0.580590	-0.880145	0.165895
Br419	Br	0.913923	-0.546811	0.499228
Br420	Br	1.247257	-0.213478	0.832562
Br421	Br	0.803068	-0.639896	-0.056568
Br422	Br	1.136402	-0.306563	0.276766
Br423	Br	1.469735	0.026771	0.610099
Br424	Br	0.218568	-0.000026	0.249291
Br425	Br	0.551901	0.333307	0.582624
Br426	Br	0.885235	0.666640	0.915958
H427	H	0.404512	-0.000048	-0.017441
H428	H	0.737845	0.333286	0.315892
H429	H	1.071178	0.666619	0.649225
Br430	Br	0.803058	-0.516824	-0.056566
Br431	Br	1.136391	-0.183491	0.276768
Br432	Br	1.469725	0.149843	0.610101
Br433	Br	0.541572	-0.516877	0.204812
Br434	Br	0.874905	-0.183544	0.538145
Br435	Br	1.208238	0.149789	0.871478
H436	H	0.743041	-0.865937	0.003514
H437	H	1.076374	-0.532604	0.336847
H438	H	1.409707	-0.199270	0.670181
Br439	Br	0.580481	-0.243074	0.165895
Br440	Br	0.913815	0.090259	0.499229
Br441	Br	1.247148	0.423592	0.832562
Br442	Br	0.545825	-0.000028	-0.752416
Br443	Br	0.879158	0.333305	-0.419083
Br444	Br	1.212491	0.666639	-0.085750
Br445	Br	0.552367	-0.000051	-0.205961
Br446	Br	0.885700	0.333282	0.127373
Br447	Br	1.219033	0.666616	0.460706
H448	H	0.781893	-0.374342	-0.035419
H449	H	1.115227	-0.041009	0.297915
H450	H	1.448560	0.292324	0.631248
H451	H	0.817806	-0.000052	-0.499645
H452	H	1.151140	0.333282	-0.166312
H453	H	1.484473	0.666615	0.167022
Br454	Br	0.541553	-0.360209	0.204803
Br455	Br	0.874886	-0.026876	0.538137
Br456	Br	1.208219	0.306457	0.871470
H457	H	-0.034198	-0.000071	-0.022693
H458	H	0.299136	0.333263	0.310640
H459	H	0.632469	0.666596	0.643973
H460	H	0.138374	-0.000087	-0.072634
H461	H	0.471708	0.333246	0.260700
H462	H	0.805041	0.666579	0.594033
Br463	Br	0.790604	-0.000042	-0.785787
Br464	Br	1.123937	0.333291	-0.452454
Br465	Br	1.457271	0.666625	-0.119120
Br466	Br	0.497171	-0.000003	-0.472092
Br467	Br	0.830505	0.333330	-0.138759
Br468	Br	1.163838	0.666663	0.194574
Br469	Br	0.498854	-0.000005	-0.332101
Br470	Br	0.832188	0.333329	0.001232
Br471	Br	1.165521	0.666662	0.334566
H472	H	0.562708	-0.469117	0.183677
H473	H	0.896041	-0.135784	0.517010
H474	H	1.229375	0.197550	0.850343
H475	H	0.781906	-0.469066	-0.035418
H476	H	1.115240	-0.135732	0.297915
H477	H	1.448573	0.197601	0.631248
H478	H	0.582043	-0.000055	-0.085909
H479	H	0.915376	0.333278	0.247424
H480	H	1.248709	0.666612	0.580757
