data_functionalizedCrystal
_audit_creation_method	'MofGen! by Chris Wilmer'
_symmetry_space_group_name_H-M	'P1'
_symmetry_Int_Tables_number	1
_symmetry_cell_setting	triclinic
loop_
_symmetry_equiv_pos_as_xyz
  x,y,z
_cell_length_a	14.628931
_cell_length_b	12.970454
_cell_length_c	12.970454
_cell_angle_alpha	60.001087
_cell_angle_beta	59.999159
_cell_angle_gamma	59.999754
loop_
_atom_site_label
_atom_site_type_symbol
_atom_site_fract_x
_atom_site_fract_y
_atom_site_fract_z
Zr1	Zr	0.880594	0.135333	0.993214
O2	O	0.925342	0.299952	0.828591
O3	O	0.734632	0.084868	1.043681
O4	O	0.734631	0.299958	1.043681
O5	O	1.075776	-0.084806	0.828590
O6	O	0.734627	0.299964	1.213348
O7	O	0.925343	0.084861	0.828590
O8	O	0.734630	-0.084795	1.213347
O9	O	1.075774	0.299953	0.828590
O10	O	0.832152	0.063349	1.191824
O11	O	0.944422	-0.063275	1.065203
O12	O	0.944420	0.189966	1.065203
O13	O	1.056689	0.063342	0.938583
Zr14	Zr	1.120511	-0.135258	1.263812
Zr15	Zr	0.880588	0.135341	1.263813
Zr16	Zr	1.120517	-0.135267	0.993213
Zr17	Zr	1.120516	0.135333	0.993214
Zr18	Zr	0.880590	-0.135259	1.263812
O19	O	1.266473	-0.084793	1.213346
O20	O	0.925333	0.299964	1.213347
O21	O	1.266482	-0.084805	0.828589
O22	O	1.075764	-0.299878	1.428435
O23	O	0.734624	0.084879	1.428437
O24	O	1.075772	-0.299890	1.043679
O25	O	0.925329	0.084880	1.428436
O26	O	1.266474	-0.299884	1.213345
O27	O	1.266478	-0.299889	1.043679
O28	O	1.075762	-0.084787	1.428436
O29	O	1.075769	0.299959	1.043680
O30	O	0.925337	-0.299885	1.213346
O31	O	0.925332	-0.299878	1.428436
O32	O	0.734625	-0.084788	1.428437
O33	O	1.266481	0.084862	0.828590
O34	O	1.266476	0.084869	1.043679
O35	O	1.056685	-0.189892	1.191823
O36	O	0.944416	-0.063268	1.318443
O37	O	1.056684	0.063350	1.191823
O38	O	1.168953	-0.063275	1.065202
C39	C	0.700447	0.000036	1.128514
C40	C	0.598594	0.000036	1.128514
C41	C	1.000555	-0.338442	1.128512
C42	C	1.000555	-0.453319	1.128512
C43	C	0.553187	0.088864	1.039684
C44	C	0.447916	0.088865	1.039683
C45	C	1.300658	0.000038	1.128512
C46	C	1.402511	0.000038	1.128512
C47	C	1.000560	0.000027	0.790035
C48	C	1.000563	0.000023	0.675159
C49	C	1.000551	0.338516	1.128514
C50	C	1.000550	0.453393	1.128514
C51	C	1.000545	0.000047	1.466991
C52	C	1.000542	0.000051	1.581867
C53	C	0.700445	0.338516	1.128514
C54	C	0.598592	0.453392	1.128515
C55	C	0.700440	0.000047	1.466991
C56	C	0.598584	0.000050	1.581868
C57	C	1.000547	-0.338432	1.466990
C58	C	1.000545	-0.453305	1.581866
C59	C	1.000558	0.338506	0.790036
C60	C	1.000560	0.453379	0.675160
C61	C	1.300666	0.000027	0.790035
C62	C	1.402521	0.000024	0.675158
C63	C	1.300660	-0.338441	1.128512
C64	C	1.402514	-0.453318	1.128511
C65	C	0.550749	0.507344	1.221999
C66	C	0.455038	0.615271	1.222025
C67	C	0.407174	0.669251	1.128561
C68	C	0.455021	0.615290	1.035072
C69	C	0.550727	0.507359	1.035052
C70	C	0.550744	-0.093425	1.635816
C71	C	0.455030	-0.093426	1.743744
C72	C	0.407163	0.000044	1.797726
C73	C	0.455008	0.093528	1.743769
C74	C	0.550715	0.093533	1.635838
C75	C	1.450363	-0.093462	0.621210
C76	C	1.546076	-0.093491	0.513282
C77	C	1.593942	-0.000027	0.459299
C78	C	1.546096	0.093464	0.513258
C79	C	1.450389	0.093486	0.621189
C80	C	1.450349	-0.507278	1.035035
C81	C	1.546042	-0.615227	1.035030
C82	C	1.593902	-0.669209	1.128497
C83	C	1.546059	-0.615244	1.221983
C84	C	1.450363	-0.507302	1.221992
H85	H	0.592243	0.164915	0.963640
O86	O	1.597675	-0.673465	1.322798
H87	H	1.535489	-0.702173	1.417041
O88	O	0.602313	0.194353	1.577671
H89	H	0.676905	0.178672	1.493545
O90	O	1.597655	-0.194325	0.455093
H91	H	1.672256	-0.178659	0.370979
O92	O	1.398787	-0.449106	1.322815
H93	H	1.324198	-0.364980	1.307137
O94	O	0.403443	-0.194263	1.801921
H95	H	0.403638	-0.248152	1.900524
H96	H	0.416038	0.659254	0.958975
H97	H	0.589677	0.463442	0.958921
H98	H	0.329245	0.757136	1.128590
H99	H	1.671824	-0.757103	1.128477
H100	H	0.441559	-0.076019	1.204562
O101	O	0.396195	0.189618	0.938944
H102	H	0.321621	0.173818	0.954760
H103	H	1.671873	-0.000060	0.371414
H104	H	0.559533	-0.076009	1.204565
H105	H	0.589709	0.463408	1.298111
O106	O	0.602354	-0.194235	1.577593
H107	H	0.552985	-0.259214	1.633242
O108	O	1.597723	0.194273	0.455025
H109	H	1.672302	0.178547	0.370903
O110	O	1.398745	-0.194275	0.679420
H111	H	1.460928	-0.288514	0.708140
O112	O	1.597644	-0.673423	0.934196
H113	H	1.623110	-0.603288	0.839960
H114	H	0.416095	0.659195	1.298155
H115	H	0.329229	0.000028	1.885608
H116	H	0.416019	0.169628	1.787737
H117	H	1.411394	-0.463338	0.958918
O118	O	1.398778	0.194337	0.679360
H119	H	1.448140	0.259326	0.623672
