data_functionalizedCrystal
_audit_creation_method	'MofGen! by Chris Wilmer'
_symmetry_space_group_name_H-M	'P1'
_symmetry_Int_Tables_number	1
_symmetry_cell_setting	triclinic
loop_
_symmetry_equiv_pos_as_xyz
  x,y,z
_cell_length_a	10.723023
_cell_length_b	17.699091
_cell_length_c	16.176319
_cell_angle_alpha	90.005674
_cell_angle_beta	89.992747
_cell_angle_gamma	96.123188
loop_
_atom_site_label
_atom_site_type_symbol
_atom_site_fract_x
_atom_site_fract_y
_atom_site_fract_z
O1	O	1.655379	-0.106151	-0.068742
O2	O	1.292052	-0.116313	-0.068744
O3	O	1.483975	-0.001108	-0.068740
O4	O	1.463456	-0.221356	-0.068746
O5	O	1.483949	-0.001100	0.068753
O6	O	1.292026	-0.116305	0.068749
O7	O	1.655352	-0.106144	0.068751
Cu8	Cu	1.473687	-0.111224	0.081304
Cu9	Cu	1.473718	-0.111233	-0.081297
O10	O	1.463429	-0.221349	0.068747
C11	C	1.245552	-0.115570	0.000002
C12	C	1.107036	-0.113358	0.000002
C13	C	0.902110	-0.110081	0.071224
C14	C	1.045274	-0.112367	0.071227
C15	C	1.483225	0.027097	0.000006
C16	C	1.481015	0.111129	0.000003
C17	C	1.701852	-0.106887	0.000003
C18	C	1.840369	-0.109099	-0.000002
C19	C	1.479994	0.150599	-0.074945
C20	C	1.477908	0.229555	-0.074945
C21	C	1.476854	0.269041	0.000003
C22	C	1.477871	0.229565	0.074957
C23	C	1.479947	0.150610	0.074957
C24	C	1.469497	0.547983	0.074962
C25	C	1.467424	0.626944	0.074957
C26	C	1.467458	0.626928	-0.074940
C27	C	1.469534	0.547973	-0.074941
C28	C	1.470545	0.508504	0.000012
C29	C	1.472803	0.422890	0.000012
C30	C	1.474604	0.354653	0.000005
N31	N	1.473674	-0.111217	0.195670
C32	C	1.464180	0.750446	0.000002
C33	C	1.466394	0.666415	0.000008
N34	N	1.473741	-0.111233	-0.195662
C35	C	1.558683	-0.060226	0.238936
C36	C	1.558689	-0.060225	0.325483
C37	C	1.473692	-0.111220	0.368762
C38	C	1.388673	-0.162214	0.325490
C39	C	1.388662	-0.162210	0.238945
C40	C	1.388716	-0.162228	0.674518
C41	C	1.388737	-0.162229	0.761070
C42	C	1.558743	-0.060243	0.761056
C43	C	1.558732	-0.060239	0.674511
C44	C	1.473710	-0.111230	0.631247
C45	C	1.473703	-0.111229	0.537402
C46	C	1.473704	-0.111225	0.462605
H47	H	1.098371	-0.113209	0.132206
H48	H	1.319438	-0.203732	0.203718
Br49	Br	1.674056	0.008982	0.384204
H50	H	1.053948	-0.112511	-0.060981
H51	H	1.627949	-0.018717	0.639275
Br52	Br	0.813568	-0.108672	0.172864
Br53	Br	1.674132	0.008962	0.819776
H54	H	1.319491	-0.203748	0.639299
Br55	Br	0.928906	-0.110527	-0.101641
Br56	Br	1.481438	0.097020	-0.176667
H57	H	1.477082	0.261688	-0.135976
Br58	Br	1.470976	0.494390	-0.176661
Br59	Br	1.465994	0.680532	0.176680
H60	H	1.480761	0.118473	0.135987
H61	H	1.319516	-0.203757	0.796307
H62	H	1.466628	0.659073	-0.135971
H63	H	1.470345	0.515858	0.135993
Br64	Br	1.273307	-0.231418	0.384223
H65	H	1.477005	0.261720	0.135982
H66	H	1.627903	-0.018703	0.203703
