data_functionalizedCrystal
_audit_creation_method	'MofGen! by Chris Wilmer'
_symmetry_space_group_name_H-M	'P1'
_symmetry_Int_Tables_number	1
_symmetry_cell_setting	triclinic
loop_
_symmetry_equiv_pos_as_xyz
  x,y,z
_cell_length_a	13.897448
_cell_length_b	13.897449
_cell_length_c	18.215399
_cell_angle_alpha	89.979342
_cell_angle_beta	90.026328
_cell_angle_gamma	89.982475
loop_
_atom_site_label
_atom_site_type_symbol
_atom_site_fract_x
_atom_site_fract_y
_atom_site_fract_z
Zn1	Zn	-0.384029	-1.474682	0.416140
Zn2	Zn	-0.134029	-1.224682	0.666140
Zn3	Zn	0.115971	-0.974682	0.916140
Zn4	Zn	0.365971	-0.724682	1.166140
Zn5	Zn	-0.545339	-1.474582	0.293078
Zn6	Zn	-0.295339	-1.224582	0.543078
Zn7	Zn	-0.045339	-0.974582	0.793078
Zn8	Zn	0.204661	-0.724582	1.043078
Zn9	Zn	-0.384059	-1.313377	0.293086
Zn10	Zn	-0.134059	-1.063377	0.543086
Zn11	Zn	0.115941	-0.813377	0.793086
Zn12	Zn	0.365941	-0.563377	1.043086
Zn13	Zn	-0.545283	-1.313353	0.416101
Zn14	Zn	-0.295283	-1.063353	0.666101
Zn15	Zn	-0.045283	-0.813353	0.916101
Zn16	Zn	0.204717	-0.563353	1.166101
O17	O	-0.464678	-1.393998	0.354601
O18	O	-0.214678	-1.143998	0.604601
O19	O	0.035322	-0.893998	0.854601
O20	O	0.285322	-0.643998	1.104601
O21	O	-0.405438	-1.609650	0.399829
O22	O	-0.155438	-1.359650	0.649829
O23	O	0.094562	-1.109650	0.899829
O24	O	0.344562	-0.859650	1.149829
O25	O	-0.523980	-1.453166	0.190094
O26	O	-0.273980	-1.203166	0.440094
O27	O	-0.023980	-0.953166	0.690094
O28	O	0.226020	-0.703166	0.940094
O29	O	-0.249073	-1.334826	0.309430
O30	O	0.000927	-1.084826	0.559430
O31	O	0.250927	-0.834826	0.809430
O32	O	0.500927	-0.584826	1.059430
O33	O	-0.523951	-1.609577	0.309415
O34	O	-0.273951	-1.359577	0.559415
O35	O	-0.023951	-1.109577	0.809415
O36	O	0.226049	-0.859577	1.059415
O37	O	-0.249051	-1.453336	0.399837
O38	O	0.000949	-1.203336	0.649837
O39	O	0.250949	-0.953336	0.899837
O40	O	0.500949	-0.703336	1.149837
O41	O	-0.405489	-1.334730	0.190101
O42	O	-0.155489	-1.084730	0.440101
O43	O	0.094511	-0.834730	0.690101
O44	O	0.344511	-0.584730	0.940101
O45	O	-0.405435	-1.178392	0.309391
O46	O	-0.155435	-0.928392	0.559391
O47	O	0.094565	-0.678392	0.809391
O48	O	0.344565	-0.428392	1.059391
O49	O	-0.523857	-1.334785	0.519090
O50	O	-0.273857	-1.084785	0.769090
O51	O	-0.023857	-0.834785	1.019090
O52	O	0.226143	-0.584785	1.269090
O53	O	-0.523886	-1.178374	0.399769
O54	O	-0.273886	-0.928374	0.649769
O55	O	-0.023886	-0.678374	0.899769
O56	O	0.226114	-0.428374	1.149769
O57	O	-0.405384	-1.453313	0.519119
O58	O	-0.155384	-1.203313	0.769119
O59	O	0.094616	-0.953313	1.019119
O60	O	0.344616	-0.703313	1.269119
O61	O	-0.680313	-1.453142	0.309377
O62	O	-0.430313	-1.203142	0.559377
O63	O	-0.180313	-0.953142	0.809377
O64	O	0.069687	-0.703142	1.059377
O65	O	-0.680272	-1.334688	0.399761
O66	O	-0.430272	-1.084688	0.649761
O67	O	-0.180272	-0.834688	0.899761
O68	O	0.069728	-0.584688	1.149761
C69	C	-0.464658	-1.143384	0.354577
C70	C	-0.214658	-0.893384	0.604577
C71	C	0.035342	-0.643384	0.854577
C72	C	0.285342	-0.393384	1.104577
C73	C	-0.464673	-1.036170	0.354585
C74	C	-0.214673	-0.786170	0.604585
C75	C	0.035327	-0.536170	0.854585
C76	C	0.285327	-0.286170	1.104585
C77	C	-0.715292	-1.393928	0.354580
C78	C	-0.465292	-1.143928	0.604580
C79	C	-0.215292	-0.893928	0.854580
C80	C	0.034708	-0.643928	1.104580
C81	C	-0.822506	-1.393986	0.354595
C82	C	-0.572506	-1.143986	0.604595
C83	C	-0.322506	-0.893986	0.854595
C84	C	-0.072506	-0.643986	1.104595
C85	C	-0.464672	-0.839875	0.354598
C86	C	-0.214672	-0.589875	0.604598
C87	C	0.035328	-0.339875	0.854598
C88	C	0.285328	-0.089875	1.104598
C89	C	-0.464670	-0.949107	0.354589
C90	C	-0.214670	-0.699107	0.604589
C91	C	0.035330	-0.449107	0.854589
C92	C	0.285330	-0.199107	1.104589
C93	C	-1.018801	-1.394087	0.354642
C94	C	-0.768801	-1.144087	0.604642
C95	C	-0.518801	-0.894087	0.854642
C96	C	-0.268801	-0.644087	1.104642
C97	C	-0.909568	-1.394028	0.354618
C98	C	-0.659568	-1.144028	0.604618
C99	C	-0.409568	-0.894028	0.854618
C100	C	-0.159568	-0.644028	1.104618
C101	C	-0.213085	-1.394095	0.354639
C102	C	0.036915	-1.144095	0.604639
C103	C	0.286915	-0.894095	0.854639
C104	C	0.536915	-0.644095	1.104639
C105	C	-0.105871	-1.394137	0.354655
C106	C	0.144129	-1.144137	0.604655
C107	C	0.394129	-0.894137	0.854655
C108	C	0.644129	-0.644137	1.104655
C109	C	-0.464611	-1.394057	0.546554
C110	C	-0.214611	-1.144057	0.796554
C111	C	0.035389	-0.894057	1.046554
C112	C	0.285389	-0.644057	1.296554
C113	C	-0.464583	-1.394082	0.628353
C114	C	-0.214583	-1.144082	0.878353
C115	C	0.035417	-0.894082	1.128353
C116	C	0.285417	-0.644082	1.378353
C117	C	-0.464691	-0.645591	0.354618
C118	C	-0.214691	-0.395591	0.604618
C119	C	0.035309	-0.145591	0.854618
C120	C	0.285309	0.104409	1.104618
C121	C	-0.464681	-0.752805	0.354608
C122	C	-0.214681	-0.502805	0.604608
C123	C	0.035319	-0.252805	0.854608
C124	C	0.285319	-0.002805	1.104608
C125	C	-0.464674	-1.393995	0.163395
C126	C	-0.214674	-1.143995	0.413395
C127	C	0.035326	-0.893995	0.663395
C128	C	0.285326	-0.643995	0.913395
C129	C	-0.464431	-1.394157	0.081596
C130	C	-0.214431	-1.144157	0.331596
C131	C	0.035569	-0.894157	0.581596
C132	C	0.285569	-0.644157	0.831596
C133	C	-0.402836	-1.455822	0.816563
C134	C	-0.152836	-1.205822	1.066563
C135	C	0.097164	-0.955822	1.316563
C136	C	0.347164	-0.705822	1.566563
C137	C	-0.402808	-1.455833	0.893422
C138	C	-0.152808	-1.205833	1.143422
C139	C	0.097192	-0.955833	1.393422
C140	C	0.347192	-0.705833	1.643422
C141	C	-0.526180	-1.332411	0.893381
C142	C	-0.276180	-1.082411	1.143381
C143	C	-0.026180	-0.832411	1.393381
C144	C	0.223820	-0.582411	1.643381
C145	C	-0.526202	-1.332395	0.816523
C146	C	-0.276202	-1.082395	1.066523
C147	C	-0.026202	-0.832395	1.316523
C148	C	0.223798	-0.582395	1.566523
C149	C	-0.464532	-1.394106	0.778117
C150	C	-0.214532	-1.144106	1.028117
C151	C	0.035468	-0.894106	1.278117
C152	C	0.285468	-0.644106	1.528117
C153	C	-0.464481	-1.394133	0.931833
C154	C	-0.214481	-1.144133	1.181833
C155	C	0.035519	-0.894133	1.431833
C156	C	0.285519	-0.644133	1.681833
C157	C	-0.464451	-1.394145	1.015167
C158	C	-0.214451	-1.144145	1.265167
C159	C	0.035549	-0.894145	1.515167
C160	C	0.285549	-0.644145	1.765167
C161	C	-0.464561	-1.394093	0.694778
C162	C	-0.214561	-1.144093	0.944778
C163	C	0.035439	-0.894093	1.194778
C164	C	0.285439	-0.644093	1.444778
H165	H	-0.352617	-1.506068	0.785295
H166	H	-0.102617	-1.256068	1.035295
H167	H	0.147383	-1.006068	1.285295
H168	H	0.397383	-0.756068	1.535295
Br169	Br	-0.609875	-1.248668	0.945508
Br170	Br	-0.359875	-0.998668	1.195508
Br171	Br	-0.109875	-0.748668	1.445508
Br172	Br	0.140125	-0.498668	1.695508
Br173	Br	-0.319081	-1.539601	0.945598
Br174	Br	-0.069081	-1.289601	1.195598
Br175	Br	0.180919	-1.039601	1.445598
Br176	Br	0.430919	-0.789601	1.695598
Br177	Br	-0.609930	-1.248623	0.764340
Br178	Br	-0.359930	-0.998623	1.014340
Br179	Br	-0.109930	-0.748623	1.264340
Br180	Br	0.140070	-0.498623	1.514340
