data_functionalizedCrystal
_audit_creation_method	'MofGen! by Chris Wilmer'
_symmetry_space_group_name_H-M	'P1'
_symmetry_Int_Tables_number	1
_symmetry_cell_setting	triclinic
loop_
_symmetry_equiv_pos_as_xyz
  x,y,z
_cell_length_a	11.792254
_cell_length_b	9.065218
_cell_length_c	7.540329
_cell_angle_alpha	89.998243
_cell_angle_beta	89.997091
_cell_angle_gamma	84.607241
loop_
_atom_site_label
_atom_site_type_symbol
_atom_site_fract_x
_atom_site_fract_y
_atom_site_fract_z
O1	O	1.508020	0.202311	-0.147473
O2	O	1.177796	0.223132	-0.147476
O3	O	1.349734	-0.001984	-0.147471
O4	O	1.336082	0.427428	-0.147479
O5	O	1.349723	-0.001987	0.147494
O6	O	1.177786	0.223130	0.147489
O7	O	1.508009	0.202308	0.147492
Cu8	Cu	1.342897	0.212719	0.174423
Cu9	Cu	1.342909	0.212722	-0.174408
O10	O	1.336072	0.427425	0.147487
C11	C	1.348416	-0.056960	0.000008
C12	C	1.344494	-0.220767	-0.000000
C13	C	1.135493	0.221819	0.000006
C14	C	1.009458	0.217894	0.000004
C15	C	0.907104	0.214704	-0.000003
C16	C	0.778695	0.210715	-0.000004
C17	C	1.550313	0.203621	0.000006
C18	C	1.676347	0.207547	-0.000005
C19	C	1.337389	0.482401	0.000003
C20	C	1.341312	0.646207	-0.000000
N21	N	1.342896	0.212715	0.419771
N22	N	1.342918	0.212713	-0.419756
