data_functionalizedCrystal
_audit_creation_method	'MofGen! by Chris Wilmer'
_symmetry_space_group_name_H-M	'P1'
_symmetry_Int_Tables_number	1
_symmetry_cell_setting	triclinic
loop_
_symmetry_equiv_pos_as_xyz
  x,y,z
_cell_length_a	19.077269
_cell_length_b	16.959454
_cell_length_c	19.076919
_cell_angle_alpha	92.276329
_cell_angle_beta	85.330942
_cell_angle_gamma	92.274148
loop_
_atom_site_label
_atom_site_type_symbol
_atom_site_fract_x
_atom_site_fract_y
_atom_site_fract_z
Zn1	Zn	1.061663	0.378613	0.355298
Zn2	Zn	1.561663	0.878613	0.855298
Zn3	Zn	1.066320	0.505688	0.237426
Zn4	Zn	1.566320	1.005688	0.737426
Zn5	Zn	0.948520	0.368428	0.242165
Zn6	Zn	1.448520	0.868428	0.742165
Zn7	Zn	0.943751	0.505648	0.360009
Zn8	Zn	1.443751	1.005648	0.860009
O9	O	1.005064	0.439594	0.298725
O10	O	1.505064	0.939594	0.798725
O11	O	1.160927	0.399749	0.335707
O12	O	1.660927	0.899749	0.835707
O13	O	1.054639	0.483234	0.139407
O14	O	1.554639	0.983234	0.639407
O15	O	0.963575	0.259171	0.257183
O16	O	1.463575	0.759171	0.757183
O17	O	1.164349	0.493110	0.249108
O18	O	1.664349	0.993110	0.749108
O19	O	1.046701	0.266654	0.340302
O20	O	1.546701	0.766654	0.840302
O21	O	0.968091	0.382390	0.142888
O22	O	1.468091	0.882390	0.642888
O23	O	0.849241	0.382351	0.261752
O24	O	1.349241	0.882351	0.761752
O25	O	0.955448	0.493043	0.458032
O26	O	1.455448	0.993043	0.958032
O27	O	0.845738	0.483166	0.348332
O28	O	1.345738	0.983166	0.848332
O29	O	1.042077	0.399711	0.454571
O30	O	1.542077	0.899711	0.954571
O31	O	1.050015	0.616291	0.253676
O32	O	1.550015	1.116291	0.753676
O33	O	0.959964	0.616262	0.343737
O34	O	1.459964	1.116262	0.843737
C35	C	0.821911	0.431650	0.306068
C36	C	1.321911	0.931650	0.806068
C37	C	0.743557	0.428271	0.309226
C38	C	1.243557	0.928271	0.809226
C39	C	0.708528	0.475207	0.265554
C40	C	1.208528	0.975207	0.765554
C41	C	0.634905	0.472032	0.268531
C42	C	1.134905	0.972032	0.768531
C43	C	0.596314	0.421918	0.315176
C44	C	1.096314	0.921918	0.815176
C45	C	0.631349	0.374980	0.358852
C46	C	1.131349	0.874980	0.858852
C47	C	0.704970	0.378159	0.355878
C48	C	1.204970	0.878159	0.855878
C49	C	0.375940	0.407211	0.328915
C50	C	0.875940	0.907211	0.828915
C51	C	0.302314	0.404034	0.331883
C52	C	0.802314	0.904034	0.831883
C53	C	0.305876	0.501087	0.241563
C54	C	0.805876	1.001087	0.741563
C55	C	0.379498	0.504258	0.238591
C56	C	0.879498	1.004258	0.738591
C57	C	0.414526	0.457324	0.282269
C58	C	0.914526	0.957324	0.782269
N59	N	0.521060	0.418670	0.318218
N60	N	1.021060	0.918670	0.818218
N61	N	0.489779	0.460576	0.279230
N62	N	0.989779	0.960576	0.779230
C63	C	1.004996	0.644957	0.298718
C64	C	1.504996	1.144957	0.798718
C65	C	1.005030	0.732816	0.298737
C66	C	1.505030	1.232816	0.798737
C67	C	0.958210	1.104309	0.345623
C68	C	1.458210	1.604309	0.845623
C69	C	1.052051	1.104286	0.251912
C70	C	1.552051	1.604286	0.751912
C71	C	1.052030	1.021739	0.251905
C72	C	1.552030	1.521739	0.751905
C73	C	1.005098	0.980473	0.298757
C74	C	1.505098	1.480473	0.798757
C75	C	0.958186	1.021754	0.345616
C76	C	1.458186	1.521754	0.845616
C77	C	1.098937	0.980451	0.205043
C78	C	1.598937	1.480451	0.705043
C79	C	1.098917	0.897899	0.205033
C80	C	1.598917	1.397899	0.705033
C81	C	1.051988	0.856632	0.251889
C82	C	1.551988	1.356632	0.751889
C83	C	1.005075	0.897918	0.298750
C84	C	1.505075	1.397918	0.798750
C85	C	0.958142	0.856652	0.345602
C86	C	1.458142	1.356652	0.845602
C87	C	0.911232	0.897938	0.392468
C88	C	1.411232	1.397938	0.892468
C89	C	0.911257	0.980487	0.392472
C90	C	1.411257	1.480487	0.892472
C91	C	1.051963	0.774082	0.251885
C92	C	1.551963	1.274082	0.751885
C93	C	0.958119	0.774097	0.345596
C94	C	1.458119	1.274097	0.845596
C95	C	1.188931	0.447570	0.291353
C96	C	1.688931	0.947570	0.791353
C97	C	1.267285	0.450969	0.288212
C98	C	1.767285	0.950969	0.788212
C99	C	0.997711	0.447508	0.482595
C100	C	1.497711	0.947508	0.982595
C101	C	0.994578	0.450881	0.560950
C102	C	1.494578	0.950881	1.060950
C103	C	1.005139	1.233431	0.298750
C104	C	1.505139	1.733431	0.798750
C105	C	1.005142	1.145575	0.298771
C106	C	1.505142	1.645575	0.798771
C107	C	1.012428	0.431656	0.115568
C108	C	1.512428	0.931656	0.615568
C109	C	1.015698	0.428066	0.037208
C110	C	1.515698	0.928066	0.537208
C111	C	1.038207	0.403875	0.595960
C112	C	1.538207	0.903875	1.095960
C113	C	1.035254	0.407040	0.669583
C114	C	1.535254	0.907040	1.169583
C115	C	0.988675	0.457217	0.708194
C116	C	1.488675	0.957217	1.208194
C117	C	0.945042	0.504225	0.673179
C118	C	1.445042	1.004225	1.173179
C119	C	0.947991	0.501055	0.599557
C120	C	1.447991	1.001055	1.099557
C121	C	0.975014	0.471904	0.928572
C122	C	1.475014	0.971904	1.428572
C123	C	0.972069	0.475073	1.002198
C124	C	1.472069	0.975073	1.502198
C125	C	1.062281	0.377887	0.998597
C126	C	1.562281	0.877887	1.498597
C127	C	1.065229	0.374724	0.924974
C128	C	1.565229	0.874724	1.424974
C129	C	1.021593	0.421729	0.889965
C130	C	1.521593	0.921729	1.389965
N131	N	0.985658	0.460455	0.783448
N132	N	1.485658	0.960455	1.283448
N133	N	1.024608	0.418486	0.814713
N134	N	1.524608	0.918486	1.314713
H135	H	0.733490	0.339939	0.391439
H136	H	1.233490	0.839939	0.891439
H137	H	1.070783	0.368765	0.698084
H138	H	1.570783	0.868765	1.198084
C139	C	0.927010	0.523609	0.890072
C140	C	1.427010	1.023609	1.390072
N141	N	0.890850	0.562555	0.861071
N142	N	1.390850	1.062555	1.361071
H143	H	1.137114	0.864290	0.166874
H144	H	1.637114	1.364290	0.666874
C145	C	0.906496	0.728712	0.397146
C146	C	1.406496	1.228712	0.897146
N147	N	0.867616	0.694529	0.435976
N148	N	1.367616	1.194529	0.935976
C149	C	1.116462	0.319518	0.882507
C150	C	1.616462	0.819518	1.382507
N151	N	1.155051	0.277935	0.850521
N152	N	1.655051	0.777935	1.350521
C153	C	1.110269	0.326175	1.037113
C154	C	1.610269	0.826175	1.537113
N155	N	1.146411	0.287219	1.066123
N156	N	1.646411	0.787219	1.566123
C157	C	0.920825	0.530271	1.044669
C158	C	1.420825	1.030271	1.544669
N159	N	0.882230	0.571844	1.076658
N160	N	1.382230	1.071844	1.576658
C161	C	0.859607	0.852534	0.444003
C162	C	1.359607	1.352534	0.944003
N163	N	0.820726	0.818334	0.482818
N164	N	1.320726	1.318334	0.982818
C165	C	0.267339	0.552717	0.193525
C166	C	0.767339	1.052717	0.693525
N167	N	0.238313	0.591609	0.157343
N168	N	0.738313	1.091609	0.657343
H169	H	0.873064	1.014109	0.430626
H170	H	1.373064	1.514109	0.930626
C171	C	1.089446	0.348675	0.553494
C172	C	1.589446	0.848675	1.053494
N173	N	1.128039	0.307095	0.521511
N174	N	1.628039	0.807095	1.021511
C175	C	0.899997	0.552767	0.561047
C176	C	1.399997	1.052767	1.061047
N177	N	0.863845	0.591717	0.532041
N178	N	1.363845	1.091717	1.032041
C179	C	0.750971	0.530337	0.214241
C180	C	1.250971	1.030337	0.714241
N181	N	0.782938	0.571865	0.175592
N182	N	1.282938	1.071865	0.675592
C183	C	0.596377	0.523656	0.220480
C184	C	1.096377	1.023656	0.720480
N185	N	0.567357	0.562538	0.184284
N186	N	1.067357	1.062538	0.684284
C187	C	0.421943	0.559388	0.187278
C188	C	0.921943	1.059388	0.687278
N189	N	0.453913	0.600910	0.148626
N190	N	0.953913	1.100910	0.648626
H191	H	0.270895	0.363218	0.369865
H192	H	0.770895	0.863218	0.869865
C193	C	0.893798	0.559412	0.715654
C194	C	1.393798	1.059412	1.215654
N195	N	0.855200	0.600979	0.747646
N196	N	1.355200	1.100979	1.247646
H197	H	0.920018	1.137927	0.383781
H198	H	1.420018	1.637927	0.883781
C199	C	0.588896	0.319843	0.410152
C200	C	1.088896	0.819843	0.910152
N201	N	0.556921	0.278306	0.448788
N202	N	1.056921	0.778306	0.948788
C203	C	0.414462	0.355571	0.376954
C204	C	0.914462	0.855571	0.876954
N205	N	0.443479	0.316670	0.413137
N206	N	0.943479	0.816670	0.913137
H207	H	1.137141	1.014055	0.166893
H208	H	1.637141	1.514055	0.666893
C209	C	1.103562	0.728672	0.200337
C210	C	1.603562	1.228672	0.700337
N211	N	1.142431	0.694471	0.161511
N212	N	1.642431	1.194471	0.661511
C213	C	1.103667	1.149681	0.200371
C214	C	1.603667	1.649681	0.700371
N215	N	1.142546	1.183875	0.161548
N216	N	1.642546	1.683875	0.661548
