data_functionalizedCrystal
_audit_creation_method	'MofGen! by Chris Wilmer'
_symmetry_space_group_name_H-M	'P1'
_symmetry_Int_Tables_number	1
_symmetry_cell_setting	triclinic
loop_
_symmetry_equiv_pos_as_xyz
  x,y,z
_cell_length_a	18.266241
_cell_length_b	17.699083
_cell_length_c	19.188940
_cell_angle_alpha	83.215864
_cell_angle_beta	90.008754
_cell_angle_gamma	89.989952
loop_
_atom_site_label
_atom_site_type_symbol
_atom_site_fract_x
_atom_site_fract_y
_atom_site_fract_z
O1	O	0.060853	1.003948	0.088298
O2	O	0.060861	0.783555	0.099785
O3	O	0.060851	0.900108	-0.007607
O4	O	0.060863	0.887395	0.195689
O5	O	-0.060911	0.900127	-0.007621
O6	O	-0.060901	0.783575	0.099771
O7	O	-0.060909	1.003968	0.088284
Zn8	Zn	-0.080237	0.893774	0.094025
Zn9	Zn	0.080189	0.893748	0.094043
O10	O	-0.060899	0.887415	0.195675
C11	C	-0.000019	0.755368	0.099366
C12	C	-0.000016	0.671352	0.098131
N13	N	-0.189724	0.893797	0.094012
N14	N	0.189676	0.893731	0.094051
C15	C	0.227990	0.939401	0.136425
C16	C	0.304635	0.939407	0.136425
C17	C	0.342963	0.893751	0.094038
C18	C	0.304640	0.848072	0.051661
C19	C	0.227997	0.848062	0.051667
N20	N	0.463287	0.892065	0.032849
N21	N	0.536095	0.892078	0.032845
C22	C	0.573885	0.893776	0.094019
N23	N	0.536118	0.895475	0.155197
N24	N	0.463303	0.895465	0.155200
C25	C	0.426070	0.893756	0.094027
C26	C	0.695306	0.939455	0.136397
C27	C	0.771953	0.939455	0.136399
C28	C	0.771956	0.848124	0.051628
C29	C	0.695312	0.848119	0.051633
C30	C	0.656991	0.893789	0.094016
C31	C	-0.000027	1.032154	0.088702
C32	C	-0.000025	1.116171	0.089937
C33	C	-0.000030	0.899705	-0.033625
C34	C	-0.000029	0.898465	-0.111131
C35	C	-0.000026	1.164872	0.026900
C36	C	-0.000029	1.243814	0.028065
C37	C	-0.000025	1.274053	0.092267
C38	C	-0.000026	1.225345	0.155308
C39	C	-0.000029	1.146405	0.154143
C40	C	-0.000015	1.543702	0.160008
C41	C	-0.000010	1.622649	0.161169
C42	C	-0.000015	1.641112	0.033930
C43	C	-0.000018	1.562171	0.032765
C44	C	-0.000023	1.513470	0.095806
C45	C	-0.000022	1.427873	0.094543
C46	C	-0.000021	1.359649	0.093531
C47	C	-0.066384	0.889658	-0.664407
C48	C	-0.066388	0.890814	-0.591582
C49	C	-0.000017	0.891385	-0.555154
C50	C	0.066364	0.890780	-0.591556
C51	C	0.066366	0.889616	-0.664379
N52	N	0.049383	0.936273	-0.446074
N53	N	0.049377	0.937381	-0.376895
C54	C	-0.000019	0.894891	-0.335741
N55	N	-0.049420	0.851261	-0.366380
N56	N	-0.049416	0.850157	-0.435566
C57	C	-0.000012	0.892647	-0.476189
C58	C	-0.066400	0.896744	-0.220381
C59	C	-0.066402	0.897895	-0.147554
C60	C	0.066352	0.897869	-0.147530
C61	C	0.066352	0.896710	-0.220355
C62	C	-0.000027	0.896151	-0.256777
C63	C	-0.000017	0.887818	0.221694
C64	C	-0.000012	0.889057	0.299199
H65	H	0.196794	0.976588	0.170938
O66	O	-0.130887	0.888965	-0.699727
C67	C	-0.171262	0.823731	-0.673892
H68	H	-0.132415	0.778245	-0.648268
H69	H	-0.212639	0.839232	-0.633432
C70	C	-0.259661	0.848844	-0.766411
C71	C	-0.211947	0.792975	-0.734945
H72	H	-0.284761	0.829873	-0.804071
H73	H	-0.232461	0.892795	-0.783816
H74	H	-0.294135	0.861756	-0.732688
H75	H	-0.177469	0.780071	-0.768666
H76	H	-0.239142	0.749020	-0.717548
H77	H	-0.000018	1.537556	-0.019514
H78	H	0.803147	0.976643	0.170910
H79	H	0.335836	0.976596	0.170935
H80	H	0.120399	0.896226	-0.249988
H81	H	0.335852	0.810897	0.017151
O82	O	0.658043	0.983896	0.177467
C83	C	0.613674	1.035740	0.134920
H84	H	0.636759	1.044169	0.079353
H85	H	0.555593	1.012358	0.133727
C86	C	0.584127	1.102215	0.233363
C87	C	0.612484	1.112573	0.165117
H88	H	0.583390	1.149609	0.251991
H89	H	0.614017	1.067285	0.262029
H90	H	0.535729	1.082728	0.232360
H91	H	0.660884	1.132050	0.166122
H92	H	0.582602	1.147508	0.136452
H93	H	0.196802	0.810870	0.017160
H94	H	-0.120450	0.896282	-0.250037
O95	O	0.000007	1.254842	0.217613
C96	C	-0.000008	1.334961	0.205127
H97	H	0.023044	1.353673	0.150613
H98	H	-0.058422	1.356939	0.208464
C99	C	0.019432	1.344528	0.327572
C100	C	0.047751	1.367511	0.260620
H101	H	0.048888	1.364608	0.361805
H102	H	0.019439	1.290551	0.335986
H103	H	-0.029247	1.362845	0.330343
H104	H	0.096424	1.349186	0.257847
H105	H	0.047753	1.421486	0.252207
O106	O	0.809292	0.803831	0.010482
C107	C	0.885157	0.813609	0.019584
H108	H	0.895618	0.870819	0.039512
H109	H	0.906918	0.765947	0.059353
C110	C	0.911650	0.741125	-0.075593
C111	C	0.924500	0.811394	-0.051123
H112	H	0.935920	0.739755	-0.119207
H113	H	0.860539	0.734535	-0.081724
H114	H	0.929785	0.701414	-0.042446
H115	H	0.906357	0.851103	-0.084266
H116	H	0.975609	0.817991	-0.045000
H117	H	0.664116	0.810933	0.017124
O118	O	-0.130843	0.891265	-0.556166
C119	C	-0.134804	0.826415	-0.506012
H120	H	-0.097146	0.780248	-0.522353
H121	H	-0.116960	0.842110	-0.452633
C122	C	-0.260357	0.853444	-0.481187
C123	C	-0.214110	0.796738	-0.501261
H124	H	-0.309277	0.835139	-0.478253
H125	H	-0.257688	0.897136	-0.514975
H126	H	-0.245478	0.866517	-0.436707
H127	H	-0.228983	0.783673	-0.545744
H128	H	-0.216783	0.753043	-0.467480
H129	H	-0.000031	1.106752	0.205474
H130	H	0.120416	0.889127	-0.694010
O131	O	-0.000061	1.135628	-0.035527
C132	C	-0.000045	1.195545	-0.090915
H133	H	-0.023095	1.249114	-0.071434
H134	H	0.058370	1.206768	-0.110345
C135	C	-0.019489	1.107679	-0.175409
C136	C	-0.047805	1.173472	-0.151485
H137	H	-0.048946	1.094063	-0.212774
H138	H	-0.019497	1.067311	-0.138095
H139	H	0.029190	1.117040	-0.191597
H140	H	-0.096478	1.164107	-0.135290
H141	H	-0.047806	1.213838	-0.188798
O142	O	-0.130945	0.898514	-0.112311
C143	C	-0.189527	0.897755	-0.160076
H144	H	-0.170063	0.920875	-0.214913
H145	H	-0.209945	0.836933	-0.160399
C146	C	-0.276135	0.919460	-0.070386
C147	C	-0.252230	0.947862	-0.137737
H148	H	-0.314815	0.950365	-0.056605
H149	H	-0.236668	0.919968	-0.038204
H150	H	-0.293145	0.868775	-0.070664
H151	H	-0.235212	0.998542	-0.137456
H152	H	-0.291696	0.947363	-0.169918
H153	H	-0.000033	1.283465	-0.023266
H154	H	-0.000014	1.680774	-0.017401
H155	H	-0.000010	1.647265	0.213453
O156	O	0.130793	0.891227	-0.556088
C157	C	0.134765	0.826352	-0.505961
H158	H	0.077134	0.804700	-0.492386
H159	H	0.167510	0.780002	-0.528411
C160	C	0.243508	0.873938	-0.455889
C161	C	0.172723	0.847349	-0.439211
H162	H	0.266924	0.886888	-0.414715
H163	H	0.240834	0.917645	-0.489662
H164	H	0.270785	0.835309	-0.474599
H165	H	0.145444	0.885981	-0.420510
H166	H	0.175393	0.803649	-0.405433
H167	H	0.120394	0.898325	-0.117870
H168	H	-0.000016	1.504059	0.211341
