data_functionalizedCrystal
_audit_creation_method	'MofGen! by Chris Wilmer'
_symmetry_space_group_name_H-M	'P1'
_symmetry_Int_Tables_number	1
_symmetry_cell_setting	triclinic
loop_
_symmetry_equiv_pos_as_xyz
  x,y,z
_cell_length_a	19.077105
_cell_length_b	19.077078
_cell_length_c	19.076919
_cell_angle_alpha	94.468470
_cell_angle_beta	90.076224
_cell_angle_gamma	90.116776
loop_
_atom_site_label
_atom_site_type_symbol
_atom_site_fract_x
_atom_site_fract_y
_atom_site_fract_z
Zn1	Zn	1.044040	-0.340449	-0.453486
Zn2	Zn	1.043950	-0.453599	-0.340322
Zn3	Zn	0.931652	-0.331022	-0.330917
Zn4	Zn	0.921790	-0.453174	-0.453059
O5	O	0.985358	-0.394561	-0.394446
O6	O	1.142187	-0.359582	-0.442589
O7	O	1.033143	-0.433571	-0.240599
O8	O	0.950725	-0.233798	-0.343419
O9	O	1.142121	-0.442712	-0.359449
O10	O	1.033296	-0.240724	-0.433470
O11	O	0.950638	-0.343514	-0.233689
O12	O	0.832184	-0.343103	-0.343005
O13	O	0.933917	-0.441989	-0.551591
O14	O	0.824938	-0.432848	-0.432742
O15	O	1.023733	-0.359170	-0.551905
O16	O	1.023580	-0.552017	-0.359034
O17	O	0.933830	-0.551705	-0.441861
C18	C	0.803109	-0.386907	-0.386807
C19	C	0.725141	-0.383650	-0.383556
C20	C	0.977643	-0.577396	-0.401438
C21	C	0.974406	-0.655616	-0.404455
C22	C	0.951186	-1.095906	-0.426123
C23	C	0.954228	-1.022408	-0.423280
C24	C	1.002509	-0.985804	-0.378769
C25	C	1.047757	-1.022701	-0.337103
C26	C	1.044718	-1.096197	-0.339950
C27	C	1.016615	-0.766009	-0.365637
C28	C	1.019649	-0.692508	-0.362791
C29	C	0.926121	-0.692221	-0.448970
C30	C	0.923083	-0.765718	-0.451810
C31	C	0.968333	-0.802609	-0.410147
N32	N	1.005618	-0.910678	-0.375860
N33	N	0.965227	-0.877734	-0.413060
C34	C	0.684758	-0.428910	-0.428682
C35	C	0.611499	-0.425841	-0.425630
C36	C	0.578625	-0.377514	-0.377449
C37	C	0.619014	-0.332249	-0.332322
C38	C	0.692271	-0.335315	-0.335377
C39	C	0.359931	-0.363322	-0.363312
C40	C	0.286668	-0.360260	-0.360258
C41	C	0.279158	-0.453852	-0.453568
C42	C	0.352417	-0.456917	-0.456617
C43	C	0.392800	-0.411649	-0.411492
N44	N	0.503742	-0.374377	-0.374327
N45	N	0.467681	-0.414783	-0.414617
C46	C	1.168318	-0.402246	-0.402116
C47	C	1.246284	-0.405521	-0.405384
C48	C	0.977735	-0.401584	-0.577996
C49	C	0.974486	-0.404576	-0.656214
C50	C	0.993121	-0.211014	-0.387443
C51	C	0.996429	-0.132797	-0.384459
C52	C	1.019721	-0.362865	-0.693125
C53	C	1.016660	-0.365674	-0.766619
C54	C	0.968368	-0.410198	-0.803200
C55	C	0.923129	-0.451911	-0.766283
C56	C	0.926187	-0.449098	-0.692791
C57	C	0.954205	-0.423231	-1.022981
C58	C	0.951152	-0.426043	-1.096479
C59	C	1.044683	-0.339804	-1.096810
C60	C	1.047739	-0.336998	-1.023316
C61	C	1.002498	-0.378708	-0.986405
N62	N	0.965240	-0.413072	-0.878322
N63	N	1.005623	-0.375830	-0.911284
C64	C	0.992994	-0.387517	-0.211610
C65	C	0.996386	-0.384331	-0.133391
H66	H	0.911871	-1.125704	-0.462370
H67	H	1.081515	-0.305845	-1.126870
H68	H	0.592242	-0.292897	-0.293094
H69	H	1.087072	-0.992893	-0.300864
H70	H	1.058968	-0.662708	-0.326542
H71	H	1.059047	-0.326611	-0.663346
H72	H	0.917376	-0.457205	-0.992938
H73	H	0.911825	-0.462301	-1.126261
H74	H	1.081561	-1.126233	-0.306024
H75	H	1.053459	-0.796037	-0.331709
H76	H	0.711518	-0.468265	-0.467914
H77	H	0.259904	-0.320899	-0.321027
H78	H	0.725151	-0.298456	-0.298634
H79	H	0.379178	-0.496271	-0.495849
H80	H	1.087065	-0.300744	-0.993537
H81	H	1.053496	-0.331710	-0.796669
H82	H	0.392802	-0.326467	-0.326563
H83	H	0.917388	-0.992372	-0.457207
H84	H	0.883759	-0.795516	-0.488047
H85	H	0.889281	-0.662178	-0.482891
H86	H	0.883806	-0.488161	-0.796073
H87	H	0.889345	-0.483056	-0.662738
H88	H	0.578622	-0.462697	-0.462376
H89	H	0.246271	-0.490705	-0.490308
