data_functionalizedCrystal
_audit_creation_method	'MofGen! by Chris Wilmer'
_symmetry_space_group_name_H-M	'P1'
_symmetry_Int_Tables_number	1
_symmetry_cell_setting	triclinic
loop_
_symmetry_equiv_pos_as_xyz
  x,y,z
_cell_length_a	17.038272
_cell_length_b	11.026607
_cell_length_c	9.483290
_cell_angle_alpha	81.820647
_cell_angle_beta	80.231524
_cell_angle_gamma	99.848786
loop_
_atom_site_label
_atom_site_type_symbol
_atom_site_fract_x
_atom_site_fract_y
_atom_site_fract_z
O1	O	0.318777	1.626112	0.120872
O2	O	0.280946	1.268899	0.120879
O3	O	0.185748	1.445384	0.120864
O4	O	0.413975	1.449627	0.120887
O5	O	0.212649	1.482072	-0.120910
O6	O	0.307846	1.305587	-0.120896
O7	O	0.345678	1.662800	-0.120902
Cu8	Cu	0.329218	1.487543	-0.142975
Cu9	Cu	0.297405	1.444155	0.142951
O10	O	0.440875	1.486315	-0.120887
C11	C	0.169526	1.459866	-0.000023
C12	C	0.081109	1.448344	-0.000022
C13	C	0.339206	1.690387	-0.000013
C14	C	0.360010	1.827248	-0.000006
C15	C	0.287417	1.241312	-0.000008
C16	C	0.266611	1.104449	-0.000005
C17	C	0.045902	1.554129	-0.000026
C18	C	-0.037177	1.543293	-0.000012
C19	C	-0.085045	1.426674	-0.000005
C20	C	-0.049833	1.320881	0.000003
C21	C	0.033243	1.331716	-0.000001
C22	C	-0.336199	1.388395	0.000016
C23	C	-0.419280	1.377568	0.000015
C24	C	-0.406618	1.599981	0.000003
C25	C	-0.323540	1.610807	-0.000010
C26	C	-0.288336	1.505013	0.000006
C27	C	-0.169965	1.415596	0.000005
C28	C	-0.203419	1.516090	0.000007
C29	C	0.457097	1.471832	0.000003
C30	C	0.545512	1.483353	0.000012
N31	N	0.351594	1.518069	-0.344080
C32	C	0.302565	1.895123	-0.000009
C33	C	0.324066	2.036576	-0.000002
C34	C	0.303999	1.453144	-0.416311
C35	C	0.322626	1.478573	-0.583716
N36	N	0.275024	1.413639	0.344056
H37	H	0.084872	1.649094	-0.000041
H38	H	0.425110	1.873860	-0.000005
H39	H	-0.164445	1.611037	0.000033
H40	H	0.377171	1.552982	-0.645805
H41	H	0.201497	2.057831	0.000081
H42	H	0.220487	1.339217	-0.593857
H43	H	0.249464	1.378730	-0.354217
H44	H	0.406135	1.592473	-0.406174
H45	H	-0.065838	1.629435	-0.000018
H46	H	0.237468	1.848516	-0.000040
H47	H	0.061908	1.245574	0.000003
H48	H	-0.284571	1.705771	-0.000016
H49	H	-0.435291	1.686112	-0.000007
H50	H	-0.458251	1.282602	-0.000003
H51	H	-0.208948	1.320644	0.000007
H52	H	-0.088815	1.225925	0.000018
H53	H	-0.307546	1.302249	0.000028
H54	H	0.389170	2.083183	-0.000001
