data_functionalizedCrystal
_audit_creation_method	'MofGen! by Chris Wilmer'
_symmetry_space_group_name_H-M	'P1'
_symmetry_Int_Tables_number	1
_symmetry_cell_setting	triclinic
loop_
_symmetry_equiv_pos_as_xyz
  x,y,z
_cell_length_a	8.497374
_cell_length_b	12.759401
_cell_length_c	12.759400
_cell_angle_alpha	90.014845
_cell_angle_beta	89.991978
_cell_angle_gamma	89.999632
loop_
_atom_site_label
_atom_site_type_symbol
_atom_site_fract_x
_atom_site_fract_y
_atom_site_fract_z
Zn1	Zn	0.891904	-1.606068	0.418444
Zn2	Zn	0.628108	-1.606017	0.594091
Zn3	Zn	0.628137	-1.430425	0.418427
Zn4	Zn	0.891846	-1.430358	0.594082
O5	O	0.759999	-1.518217	0.506261
O6	O	0.856923	-1.753082	0.441755
O7	O	0.407350	-1.582732	0.570785
O8	O	0.663163	-1.453773	0.271408
O9	O	0.663113	-1.753045	0.570802
O10	O	0.856951	-1.582817	0.271421
O11	O	0.407371	-1.453725	0.441725
O12	O	0.663107	-1.283395	0.441717
O13	O	1.112616	-1.453659	0.570787
O14	O	0.856853	-1.283346	0.570770
O15	O	1.112658	-1.582752	0.441746
O16	O	0.663058	-1.582667	0.741110
O17	O	0.856824	-1.453611	0.741104
C18	C	0.759978	-1.245250	0.506241
C19	C	0.760006	-1.128473	0.506258
C20	C	0.759966	-1.518155	0.779228
C21	C	0.760005	-1.518224	0.896005
C22	C	0.760021	-1.792250	0.506281
C23	C	0.760031	-1.909027	0.506290
C24	C	1.171479	-1.518209	0.506262
C25	C	1.350123	-1.518212	0.506274
C26	C	0.760066	-1.518308	0.232228
C27	C	0.760095	-1.518347	0.115451
C28	C	0.860722	-1.073613	0.573564
C29	C	0.860739	-0.963889	0.573577
C30	C	0.659310	-0.963895	0.438977
C31	C	0.659302	-1.073617	0.438959
C32	C	0.977011	-1.073609	0.651278
C33	C	0.977028	-0.963885	0.651291
C34	C	0.659222	-1.585498	0.950835
C35	C	0.659270	-1.585563	1.060559
C36	C	0.860889	-1.451070	1.060613
C37	C	0.860847	-1.451012	0.950891
C38	C	0.542814	-1.663143	0.950805
C39	C	0.542862	-1.663208	1.060529
H40	H	0.577322	-0.919217	0.384183
C41	C	0.970456	-1.378266	1.120340
C42	C	1.071645	-1.437733	1.183274
C43	C	1.172587	-1.370700	1.238317
H44	H	1.030623	-1.338166	1.072089
H45	H	0.910113	-1.332563	1.163259
H46	H	1.131983	-1.483418	1.140359
H47	H	1.011522	-1.477831	1.231544
H48	H	1.112244	-1.324997	1.281236
H49	H	1.232743	-1.330603	1.190058
H50	H	1.241246	-1.411038	1.281031
C51	C	0.601315	-1.766363	1.105616
C52	C	0.640005	-1.834634	1.023641
C53	C	0.693837	-1.929671	1.065137
H54	H	0.691853	-1.754002	1.147490
H55	H	0.521027	-1.796892	1.147487
H56	H	0.720286	-1.804111	0.981788
H57	H	0.549491	-1.847026	0.981760
H58	H	0.613549	-1.960200	1.107007
H59	H	0.784371	-1.917299	1.107010
H60	H	0.720081	-1.976008	1.009524
C61	C	0.380019	-1.634328	1.100520
C62	C	0.380482	-1.634500	1.210252
C63	C	0.230501	-1.607916	1.247128
H64	H	0.352480	-1.566518	1.075888
H65	H	0.305503	-1.684006	1.075743
H66	H	0.454974	-1.584824	1.235019
H67	H	0.407993	-1.702300	1.234913
H68	H	0.155985	-1.657594	1.222351
H69	H	0.202975	-1.540108	1.222489
H70	H	0.230791	-1.608039	1.321584
H71	H	1.099249	-1.103391	0.629612
C72	C	0.933204	-0.923947	0.759684
C73	C	0.933380	-0.814215	0.759421
C74	C	0.893035	-0.777388	0.859251
H75	H	0.831329	-0.948637	0.777843
H76	H	1.007619	-0.948701	0.809425
H77	H	0.858968	-0.789472	0.709696
H78	H	1.035240	-0.789498	0.741281
H79	H	0.967450	-0.802142	0.908992
H80	H	0.791162	-0.802085	0.877401
H81	H	0.893163	-0.702932	0.859088
H82	H	0.575625	-1.744480	0.920956
H83	H	0.942927	-1.396242	0.906249
H84	H	0.933039	-1.107632	0.728518
C85	C	1.132035	-0.918710	0.612625
C86	C	1.234706	-1.000627	0.586987
C87	C	1.377510	-0.959051	0.551372
H88	H	1.113665	-0.876830	0.552316
H89	H	1.177648	-0.876830	0.666180
H90	H	1.189102	-1.042490	0.533435
H91	H	1.253122	-1.042514	0.647279
H92	H	1.423123	-0.917171	0.604927
H93	H	1.359123	-0.917172	0.491066
H94	H	1.447194	-1.014625	0.533981
C95	C	0.388144	-1.624153	0.905430
C96	C	0.416073	-1.535295	0.843811
C97	C	0.273629	-1.499337	0.802007
H98	H	0.342411	-1.677548	0.863425
H99	H	0.318309	-1.606624	0.960884
H100	H	0.485883	-1.552828	0.788365
H101	H	0.461783	-1.481879	0.885793
H102	H	0.203793	-1.481808	0.857461
H103	H	0.227907	-1.552739	0.760006
H104	H	0.292557	-1.439038	0.760202
H105	H	0.577299	-1.118280	0.384145
