data_functionalizedCrystal
_audit_creation_method	'MofGen! by Chris Wilmer'
_symmetry_space_group_name_H-M	'P1'
_symmetry_Int_Tables_number	1
_symmetry_cell_setting	triclinic
loop_
_symmetry_equiv_pos_as_xyz
  x,y,z
_cell_length_a	10.540539
_cell_length_b	10.540539
_cell_length_c	9.616153
_cell_angle_alpha	89.999906
_cell_angle_beta	89.995174
_cell_angle_gamma	84.525492
loop_
_atom_site_label
_atom_site_type_symbol
_atom_site_fract_x
_atom_site_fract_y
_atom_site_fract_z
O1	O	1.685892	0.178895	-0.115573
O2	O	1.316479	0.195751	-0.115589
O3	O	1.509614	0.002617	-0.115579
O4	O	1.492758	0.372030	-0.115583
O5	O	1.509587	0.002621	0.115712
O6	O	1.316452	0.195755	0.115702
O7	O	1.685865	0.178899	0.115718
Zn8	Zn	1.501155	0.187328	0.152433
Zn9	Zn	1.501190	0.187323	-0.152304
O10	O	1.492731	0.372034	0.115708
C11	C	1.269163	0.194489	0.000054
C12	C	1.128215	0.190707	0.000048
C13	C	0.944788	0.045790	0.000589
C14	C	1.091406	0.049624	0.000054
C15	C	1.066557	0.258600	-0.132027
C16	C	0.920013	0.253785	-0.132123
C17	C	0.919494	0.256660	0.130899
C18	C	1.066476	0.257959	0.132630
C19	C	1.508336	-0.044684	0.000064
C20	C	1.504554	-0.185632	0.000056
C21	C	1.359637	-0.369059	-0.000469
C22	C	1.363471	-0.222441	0.000052
C23	C	1.572435	-0.247288	0.132138
C24	C	1.567620	-0.393832	0.132249
C25	C	1.570519	-0.394355	-0.130772
C26	C	1.571819	-0.247373	-0.132518
C27	C	1.733182	0.180161	0.000072
C28	C	1.874130	0.183943	0.000069
C29	C	1.494008	0.419335	0.000062
C30	C	1.497790	0.560283	0.000060
N31	N	1.501140	0.187331	0.360407
N32	N	1.501215	0.187310	-0.360278
C33	C	1.397510	0.290298	0.580772
C34	C	1.397739	0.290684	0.419604
C35	C	1.633864	0.217464	0.418862
C36	C	1.633299	0.218193	0.580080
C37	C	1.473368	0.053892	0.580319
C38	C	1.470321	0.054757	0.419092
H39	H	1.088911	0.362208	-0.136942
O40	O	1.506134	-0.193154	-0.261962
H41	H	1.425917	-0.122520	-0.232018
H42	H	1.657654	0.315531	0.617668
O43	O	1.421447	0.421795	0.368479
H44	H	1.515108	0.446428	0.407523
H45	H	1.310058	-0.179839	-0.094630
O46	O	1.738594	0.120826	0.368075
H47	H	1.697059	0.050130	0.300463
H48	H	1.303917	-0.397661	-0.095187
H49	H	1.674680	-0.223152	-0.140490
H50	H	1.090701	0.360819	0.140603
O51	O	1.347860	0.015918	0.634238
H52	H	1.330429	-0.078448	0.590863
O53	O	1.702016	-0.457374	0.140233
H54	H	1.712593	-0.517009	0.235416
H55	H	1.109157	0.211434	-0.230318
H56	H	1.676042	-0.224933	0.137054
O57	O	1.286093	-0.409041	0.124294
H58	H	1.347510	-0.479017	0.186681
O59	O	0.877725	0.196175	0.263517
H60	H	0.824159	0.113601	0.237656
O61	O	1.510059	-0.436214	-0.263357
H62	H	1.581146	-0.498425	-0.323490
H63	H	0.872267	0.358563	0.131790
O64	O	1.292225	-0.167113	0.125685
H65	H	1.254904	-0.245097	0.186313
H66	H	0.891814	0.203603	-0.230849
H67	H	1.672423	-0.441581	-0.131656
O68	O	1.501126	-0.431199	0.263014
H69	H	1.472701	-0.344636	0.325572
H70	H	0.916192	-0.009944	0.095307
O71	O	1.120713	0.192250	0.262054
H72	H	1.042555	0.155134	0.322586
H73	H	1.372683	0.031917	0.380887
O74	O	1.509960	-0.190866	0.262341
H75	H	1.430574	-0.118932	0.233315
O76	O	1.267107	0.266694	0.367238
H77	H	1.203199	0.254717	0.457066
H78	H	0.914592	-0.009712	-0.093600
O79	O	1.266467	0.266681	0.632190
H80	H	1.273843	0.181292	0.700318
H81	H	1.133162	-0.004177	-0.094786
O82	O	0.856457	0.388177	-0.140094
H83	H	0.930431	0.456316	-0.143874
O84	O	1.738673	0.122710	0.631750
H85	H	1.789815	0.076226	0.541582
H86	H	1.415178	0.388722	0.621270
O87	O	1.666850	0.344949	0.365389
H88	H	1.588931	0.387044	0.297197
H89	H	1.540848	-0.025564	0.378801
O90	O	1.573506	-0.047659	0.630820
H91	H	1.642782	-0.003405	0.697903
H92	H	1.134009	-0.003797	0.094731
