data_functionalizedCrystal
_audit_creation_method	'MofGen! by Chris Wilmer'
_symmetry_space_group_name_H-M	'P1'
_symmetry_Int_Tables_number	1
_symmetry_cell_setting	triclinic
loop_
_symmetry_equiv_pos_as_xyz
  x,y,z
_cell_length_a	19.121102
_cell_length_b	13.897448
_cell_length_c	13.897441
_cell_angle_alpha	90.030599
_cell_angle_beta	87.539222
_cell_angle_gamma	92.427934
loop_
_atom_site_label
_atom_site_type_symbol
_atom_site_fract_x
_atom_site_fract_y
_atom_site_fract_z
Zn1	Zn	1.073786	0.446992	-0.608246
Zn2	Zn	1.573786	0.946992	-0.108246
Zn3	Zn	1.073708	0.608309	-0.446943
Zn4	Zn	1.573708	1.108309	0.053057
Zn5	Zn	0.956329	0.440142	-0.440088
Zn6	Zn	1.456329	0.940142	0.059912
Zn7	Zn	0.956316	0.601354	-0.601323
Zn8	Zn	1.456316	1.101354	-0.101323
O9	O	1.015035	0.524200	-0.524150
O10	O	1.515035	1.024200	-0.024150
O11	O	1.172061	0.474169	-0.592615
O12	O	1.672061	0.974169	-0.092615
O13	O	1.058111	0.586046	-0.311051
O14	O	1.558111	1.086046	0.188949
O15	O	0.971948	0.306072	-0.462423
O16	O	1.471948	0.806072	0.037577
O17	O	1.172004	0.592688	-0.474107
O18	O	1.672004	1.092688	0.025893
O19	O	1.058243	0.311104	-0.585968
O20	O	1.558243	0.811104	-0.085968
O21	O	0.971873	0.462494	-0.306014
O22	O	1.471873	0.962494	0.193986
O23	O	0.858042	0.455750	-0.455710
O24	O	1.358042	0.955750	0.044290
O25	O	0.971925	0.580833	-0.737225
O26	O	1.471925	1.080833	-0.237225
O27	O	0.858033	0.574191	-0.574169
O28	O	1.358033	1.074191	-0.074169
O29	O	1.058230	0.467425	-0.742311
O30	O	1.558230	0.967425	-0.242311
O31	O	1.058098	0.742366	-0.467393
O32	O	1.558098	1.242366	0.032607
O33	O	0.971850	0.737256	-0.580816
O34	O	1.471850	1.237256	-0.080816
C35	C	0.832553	0.513473	-0.513445
C36	C	1.332553	1.013473	-0.013445
C37	C	0.754487	0.508908	-0.508888
C38	C	1.254487	1.008908	-0.008888
C39	C	1.014984	0.774811	-0.524119
C40	C	1.514984	1.274811	-0.024119
C41	C	1.015026	0.882027	-0.524142
C42	C	1.515026	1.382027	-0.024142
C43	C	1.015085	0.524117	-0.775746
C44	C	1.515085	1.024117	-0.275746
C45	C	1.015106	0.524082	-0.882962
C46	C	1.515106	1.024082	-0.382962
C47	C	0.717824	0.568522	-0.568325
C48	C	1.217824	1.068522	-0.068325
C49	C	0.644473	0.564220	-0.564048
C50	C	1.144473	1.064220	-0.064048
C51	C	0.607785	0.500307	-0.500328
C52	C	1.107785	1.000307	-0.000328
C53	C	0.644452	0.440686	-0.440888
C54	C	1.144452	0.940686	0.059112
C55	C	0.717803	0.444985	-0.445171
C56	C	1.217803	0.944985	0.054829
C57	C	0.386313	0.484235	-0.484321
C58	C	0.886313	0.984235	0.015679
C59	C	0.312958	0.479943	-0.480041
C60	C	0.812958	0.979943	0.019959
C61	C	0.312983	0.603476	-0.603202
C62	C	0.812983	1.103476	-0.103202
C63	C	0.386335	0.607772	-0.607475
C64	C	0.886335	1.107772	-0.107475
C65	C	0.422996	0.548148	-0.548039
C66	C	0.922996	1.048148	-0.048039
C67	C	0.532808	0.495910	-0.495953
C68	C	1.032808	0.995910	0.004047
C69	C	0.497972	0.552541	-0.552420
C70	C	0.997972	1.052541	-0.052420
C71	C	1.198229	0.534968	-0.534898
C72	C	1.698229	1.034968	-0.034898
C73	C	1.276295	0.539557	-0.539478
C74	C	1.776295	1.039557	-0.039478
C75	C	1.015105	0.272611	-0.524203
C76	C	1.515105	0.772611	-0.024203
C77	C	1.015135	0.165399	-0.524226
C78	C	1.515135	0.665399	-0.024226
C79	C	1.015100	1.078327	-0.524207
C80	C	1.515100	1.578327	-0.024207
C81	C	1.015057	0.969092	-0.524174
C82	C	1.515057	1.469092	-0.024174
C83	C	1.015125	0.524018	-1.079258
C84	C	1.515125	1.024018	-0.579258
C85	C	1.015112	0.524056	-0.970025
C86	C	1.515112	1.024056	-0.470025
C87	C	1.015026	0.524214	-0.273535
C88	C	1.515026	1.024214	0.226465
C89	C	1.015140	0.523986	-0.166329
C90	C	1.515140	1.023986	0.333671
H91	H	0.747690	0.620570	-0.620210
H92	H	1.247690	1.120570	-0.120210
H93	H	0.614625	0.612765	-0.612447
H94	H	1.114625	1.112765	-0.112447
Br95	Br	0.436059	0.403310	-0.403663
Br96	Br	0.936059	0.903310	0.096337
Br97	Br	0.436121	0.694520	-0.693950
Br98	Br	0.936121	1.194520	-0.193950
Br99	Br	0.263225	0.684394	-0.683857
Br100	Br	0.763225	1.184394	-0.183857
H101	H	0.283089	0.427887	-0.428158
H102	H	0.783089	0.927887	0.071842
Br103	Br	0.594663	0.353937	-0.354419
Br104	Br	1.094663	0.853937	0.145581
H105	H	0.502928	0.443874	-0.444070
H106	H	1.002928	0.943874	0.055930
H107	H	0.747652	0.396435	-0.396776
H108	H	1.247652	0.896435	0.103224
Br109	Br	0.547764	0.639275	-0.638897
Br110	Br	1.047764	1.139275	-0.138897
