data_functionalizedCrystal
_audit_creation_method	'MofGen! by Chris Wilmer'
_symmetry_space_group_name_H-M	'P1'
_symmetry_Int_Tables_number	1
_symmetry_cell_setting	triclinic
loop_
_symmetry_equiv_pos_as_xyz
  x,y,z
_cell_length_a	17.699077
_cell_length_b	17.699091
_cell_length_c	16.176319
_cell_angle_alpha	89.997684
_cell_angle_beta	90.005422
_cell_angle_gamma	96.716674
loop_
_atom_site_label
_atom_site_type_symbol
_atom_site_fract_x
_atom_site_fract_y
_atom_site_fract_z
O1	O	1.004083	-0.095688	0.068733
O2	O	1.504083	0.404312	0.568733
O3	O	0.783704	-0.108145	0.068737
O4	O	1.283704	0.391855	0.568737
O5	O	0.900117	0.008273	0.068732
O6	O	1.400117	0.508273	0.568732
O7	O	0.887670	-0.212105	0.068739
O8	O	1.387670	0.287895	0.568739
O9	O	0.900103	0.008273	-0.068761
O10	O	1.400103	0.508273	0.431239
O11	O	0.783691	-0.108145	-0.068756
O12	O	1.283691	0.391855	0.431244
O13	O	1.004069	-0.095687	-0.068760
O14	O	1.504069	0.404313	0.431240
Cu15	Cu	0.893879	-0.101916	-0.081312
Cu16	Cu	1.393879	0.398084	0.418688
Cu17	Cu	0.893895	-0.101916	0.081290
Cu18	Cu	1.393895	0.398084	0.581290
O19	O	0.887657	-0.212105	-0.068755
O20	O	1.387657	0.287895	0.431245
C21	C	0.755500	-0.107699	-0.000009
C22	C	1.255500	0.392301	0.499991
C23	C	0.671482	-0.106362	-0.000007
C24	C	1.171482	0.393638	0.499993
C25	C	0.632007	-0.105732	-0.074956
C26	C	1.132007	0.394268	0.425044
C27	C	0.553065	-0.104464	-0.074957
C28	C	1.053065	0.395536	0.425043
C29	C	0.513598	-0.103831	-0.000008
C30	C	1.013598	0.396169	0.499992
C31	C	0.553078	-0.104459	0.074946
C32	C	1.053078	0.395541	0.574946
C33	C	0.632020	-0.105722	0.074946
C34	C	1.132020	0.394278	0.574946
C35	C	0.234715	-0.099366	0.074947
C36	C	0.734715	0.400634	0.574947
C37	C	0.155767	-0.098105	0.074942
C38	C	0.655767	0.401895	0.574942
C39	C	0.155759	-0.098108	-0.074955
C40	C	0.655759	0.401892	0.425045
C41	C	0.234701	-0.099371	-0.074955
C42	C	0.734701	0.400629	0.425045
C43	C	0.274176	-0.099994	-0.000002
C44	C	0.774176	0.400006	0.499998
C45	C	0.359774	-0.101368	-0.000002
C46	C	0.859774	0.398632	0.499998
C47	C	0.428000	-0.102463	-0.000008
C48	C	0.928000	0.397537	0.499992
C49	C	0.899663	0.036470	-0.000013
C50	C	1.399663	0.536470	0.499987
C51	C	0.898322	0.120487	-0.000010
C52	C	1.398322	0.620487	0.499990
C53	C	1.032273	-0.096133	-0.000012
C54	C	1.532273	0.403867	0.499988
C55	C	1.116292	-0.097470	-0.000008
C56	C	1.616292	0.402530	0.499992
C57	C	0.897702	0.159955	0.074938
C58	C	1.397702	0.659955	0.574938
C59	C	0.896437	0.238898	0.074938
C60	C	1.396437	0.738898	0.574938
C61	C	0.895798	0.278373	-0.000011
C62	C	1.395798	0.778373	0.499989
C63	C	0.896417	0.238900	-0.074965
C64	C	1.396417	0.738900	0.425035
C65	C	0.897676	0.159957	-0.074964
C66	C	1.397676	0.659957	0.425036
C67	C	0.891337	0.557265	-0.074969
C68	C	1.391337	1.057265	0.425031
C69	C	0.890080	0.636213	-0.074964
C70	C	1.390080	1.136213	0.425036
C71	C	0.890098	0.636205	0.074933
C72	C	1.390098	1.136205	0.574933
C73	C	0.891357	0.557263	0.074933
C74	C	1.391357	1.057263	0.574933
C75	C	0.891972	0.517796	-0.000020
C76	C	1.391972	1.017796	0.499980
C77	C	0.893342	0.432197	-0.000019
C78	C	1.393342	0.932197	0.499981
C79	C	0.894434	0.363971	-0.000013
C80	C	1.394434	0.863971	0.499987
N81	N	0.893873	-0.101915	-0.195677
N82	N	1.393873	0.398085	0.304323
C83	C	0.888111	0.759698	-0.000010
C84	C	1.388111	1.259698	0.499990
C85	C	0.889454	0.675681	-0.000015
C86	C	1.389454	1.175681	0.499985
C87	C	0.939689	-0.147763	-0.238937
C88	C	1.439689	0.352237	0.261063
C89	C	0.939697	-0.147760	-0.325484
C90	C	1.439697	0.352240	0.174516
C91	C	0.893885	-0.101913	-0.368770
C92	C	1.393885	0.398087	0.131230
C93	C	0.848067	-0.056060	-0.325504
C94	C	1.348067	0.443940	0.174496
C95	C	0.848063	-0.056060	-0.238958
C96	C	1.348063	0.443940	0.261042
C97	C	0.848081	-0.056061	-0.674532
C98	C	1.348081	0.443939	-0.174532
C99	C	0.848086	-0.056067	-0.761084
C100	C	1.348086	0.443933	-0.261084
C101	C	0.939715	-0.147761	-0.761058
C102	C	1.439715	0.352239	-0.261058
C103	C	0.939711	-0.147761	-0.674513
C104	C	1.439711	0.352239	-0.174513
C105	C	0.893897	-0.101905	-0.631254
C106	C	1.393897	0.398095	-0.131254
C107	C	0.893889	-0.101908	-0.537410
C108	C	1.393889	0.398092	-0.037410
C109	C	0.893887	-0.101914	-0.462612
C110	C	1.393887	0.398086	0.037388
N111	N	0.893907	-0.101911	0.195655
N112	N	1.393907	0.398089	0.695655
H113	H	0.123635	-0.097590	0.135977
H114	H	0.623635	0.402410	0.635977
Br115	Br	0.895538	0.292470	-0.176683
Br116	Br	1.395538	0.792470	0.323317
Br117	Br	0.898514	0.106393	-0.176683
Br118	Br	1.398514	0.606393	0.323317
H119	H	0.266846	-0.099871	0.135979
H120	H	0.766846	0.400129	0.635979
H121	H	0.664159	-0.106237	0.135977
H122	H	1.164159	0.393763	0.635977
H123	H	0.977014	-0.185097	-0.639274
H124	H	1.477014	0.314903	-0.139274
Br125	Br	1.001894	-0.209995	-0.819771
Br126	Br	1.501894	0.290005	-0.319771
H127	H	0.664135	-0.106254	-0.135988
H128	H	1.164135	0.393746	0.364012
H129	H	0.810769	-0.018727	-0.360754
H130	H	1.310769	0.481273	0.139246
H131	H	0.895935	0.271029	0.135968
H132	H	1.395935	0.771029	0.635968
H133	H	0.810755	-0.018726	-0.203737
H134	H	1.310755	0.481274	0.296263
H135	H	0.977007	-0.185092	-0.360703
H136	H	1.477007	0.314908	0.139297
H137	H	0.898226	0.127820	0.135970
H138	H	1.398226	0.627820	0.635970
H139	H	0.520929	-0.103938	-0.135987
H140	H	1.020929	0.396062	0.364013
Br141	Br	0.785906	0.006157	-0.819828
Br142	Br	1.285906	0.506157	-0.319828
H143	H	0.266831	-0.099890	-0.135986
H144	H	0.766831	0.400110	0.364014
Br145	Br	0.102183	-0.097260	-0.176681
Br146	Br	0.602183	0.402740	0.323319
Br147	Br	0.889215	0.689786	-0.176687
Br148	Br	1.389215	1.189786	0.323313
Br149	Br	0.785872	0.006140	-0.615835
Br150	Br	1.285872	0.506140	-0.115835
H151	H	0.520939	-0.103939	0.135970
H152	H	1.020939	0.396061	0.635970
Br153	Br	0.892230	0.503694	0.176653
Br154	Br	1.392230	1.003694	0.676653
H155	H	0.889594	0.668348	0.135963
H156	H	1.389594	1.168348	0.635963
H157	H	0.891853	0.525142	-0.136001
H158	H	1.391853	1.025142	0.363999
H159	H	0.976991	-0.185101	-0.203700
H160	H	1.476991	0.314899	0.296300
