data_functionalizedCrystal
_audit_creation_method	'MofGen! by Chris Wilmer'
_symmetry_space_group_name_H-M	'P1'
_symmetry_Int_Tables_number	1
_symmetry_cell_setting	triclinic
loop_
_symmetry_equiv_pos_as_xyz
  x,y,z
_cell_length_a	11.792254
_cell_length_b	19.288864
_cell_length_c	17.766277
_cell_angle_alpha	89.971843
_cell_angle_beta	90.010550
_cell_angle_gamma	96.332577
loop_
_atom_site_label
_atom_site_type_symbol
_atom_site_fract_x
_atom_site_fract_y
_atom_site_fract_z
O1	O	-1.505463	0.095243	-0.062655
O2	O	-1.174976	0.105045	-0.062656
O3	O	-1.349769	-0.000932	-0.062609
O4	O	-1.330670	0.201220	-0.062702
O5	O	-1.349738	-0.000938	0.062580
O6	O	-1.174945	0.105039	0.062533
O7	O	-1.505433	0.095237	0.062534
Cu8	Cu	-1.340186	0.100138	0.073964
Cu9	Cu	-1.340222	0.100144	-0.074086
O10	O	-1.330639	0.201214	0.062487
C11	C	-1.132679	0.104425	-0.000061
C12	C	-1.006694	0.102576	-0.000059
C13	C	-1.349139	-0.026815	-0.000004
C14	C	-1.347294	-0.103929	0.000027
C15	C	-0.904380	0.101075	-0.000060
C16	C	-0.776022	0.099197	-0.000057
N17	N	-1.340169	0.100133	0.178094
C18	C	-0.547729	0.095857	-0.000059
C19	C	-0.673714	0.097706	-0.000055
C20	C	-1.331269	0.227097	-0.000119
C21	C	-1.333114	0.304211	-0.000155
C22	C	-1.230553	0.348322	-0.000140
C23	C	-1.232286	0.420779	-0.000123
C24	C	-1.336586	0.449122	-0.000106
C25	C	-1.439160	0.405001	-0.000125
C26	C	-1.437424	0.332546	-0.000150
C27	C	-1.418566	0.557838	0.043793
C28	C	-1.420298	0.630292	0.043822
C29	C	-1.341945	0.672598	-0.000034
C30	C	-1.261841	0.642442	-0.043909
C31	C	-1.260105	0.569986	-0.043934
C32	C	-1.338480	0.527686	-0.000080
C33	C	-1.241256	0.795275	-0.000001
C34	C	-1.242994	0.867733	0.000011
C35	C	-1.449871	0.851954	0.000016
C36	C	-1.448130	0.779498	-0.000003
C37	C	-1.343820	0.751163	-0.000009
N38	N	-1.340248	0.100144	-0.178216
C39	C	-1.417592	0.053229	0.217502
C40	C	-1.417599	0.053226	0.296304
C41	C	-1.340193	0.100138	0.335695
C42	C	-1.262755	0.147045	0.296278
C43	C	-1.262743	0.147042	0.217477
C44	C	-1.324999	0.163339	0.460504
C45	C	-1.325019	0.163343	0.539303
C46	C	-1.340223	0.100147	0.578741
C47	C	-1.355432	0.036944	0.539371
C48	C	-1.355420	0.036941	0.460571
C49	C	-1.340197	0.100146	0.421141
C50	C	-1.417658	0.053236	0.703595
C51	C	-1.417657	0.053232	0.782398
C52	C	-1.262818	0.147057	0.782370
C53	C	-1.262814	0.147055	0.703569
C54	C	-1.340240	0.100145	0.664186
H55	H	-1.145615	0.325257	-0.000151
N56	N	-1.545690	0.433960	-0.000114
N57	N	-1.547228	0.498653	-0.000092
H58	H	-1.622468	0.519106	-0.000087
H59	H	-1.531647	0.743581	-0.000011
N60	N	-1.183661	0.194950	0.177207
N61	N	-1.113331	0.172618	0.133256
H62	H	-1.057480	0.206453	0.104812
N63	N	-1.556413	0.880896	0.000049
N64	N	-1.625458	0.867485	0.052821
H65	H	-1.700708	0.887927	0.052843
N66	N	-1.496677	0.005310	0.336574
N67	N	-1.495470	-0.058900	0.327822
H68	H	-1.551319	-0.092741	0.356262
N69	N	-1.502118	0.661082	0.088647
N70	N	-1.572081	0.623303	0.127793
H71	H	-1.629870	0.645046	0.159452
N72	N	-1.134722	0.766315	-0.000026
N73	N	-1.133184	0.701622	-0.000046
H74	H	-1.057944	0.681169	-0.000065
N75	N	-1.181808	0.685656	-0.088709
N76	N	-1.183374	0.750346	-0.088690
H77	H	-1.126854	0.780870	-0.120328
H78	H	-1.148766	0.456701	-0.000110
H79	H	-1.312642	0.214806	0.571352
H80	H	-1.312598	0.214804	0.428400
H81	H	-1.482380	0.523397	0.079505
H82	H	-1.367800	-0.014520	0.428519
H83	H	-1.159473	0.903648	0.000018
H84	H	-1.367812	-0.014516	0.571480
N85	N	-1.183687	0.194956	0.336522
N86	N	-1.183707	0.194953	0.406879
H87	H	-1.127859	0.228789	0.435303
H88	H	-1.194883	0.545436	-0.079660
N89	N	-1.542203	0.287493	-0.000168
N90	N	-1.635324	0.312804	-0.000160
H91	H	-1.709327	0.280985	-0.000172
H92	H	-1.480634	0.015031	0.185439
H93	H	-1.480700	0.015037	0.671528
N94	N	-1.496730	0.005299	0.822644
N95	N	-1.495499	-0.058906	0.813862
H96	H	-1.551345	-0.092764	0.842283
N97	N	-1.183745	0.194966	0.822609
N98	N	-1.183758	0.194960	0.892966
H99	H	-1.127907	0.228794	0.921389
H100	H	-1.199773	0.185251	0.671481
