data_functionalizedCrystal
_audit_creation_method	'MofGen! by Chris Wilmer'
_symmetry_space_group_name_H-M	'P1'
_symmetry_Int_Tables_number	1
_symmetry_cell_setting	triclinic
loop_
_symmetry_equiv_pos_as_xyz
  x,y,z
_cell_length_a	15.944551
_cell_length_b	10.654554
_cell_length_c	9.730223
_cell_angle_alpha	89.999359
_cell_angle_beta	90.004286
_cell_angle_gamma	96.007210
loop_
_atom_site_label
_atom_site_type_symbol
_atom_site_fract_x
_atom_site_fract_y
_atom_site_fract_z
O1	O	-1.115459	0.161960	0.114140
O2	O	-0.615459	0.661960	0.614140
O3	O	-0.871025	0.181929	0.114174
O4	O	-0.371025	0.681929	0.614174
O5	O	-0.998860	-0.010867	0.114154
O6	O	-0.498860	0.489133	0.614154
O7	O	-0.987624	0.354756	0.114160
O8	O	-0.487624	0.854756	0.614160
O9	O	-0.998858	-0.010862	-0.114426
O10	O	-0.498858	0.489138	0.385574
O11	O	-0.871023	0.181934	-0.114406
O12	O	-0.371023	0.681934	0.385594
O13	O	-1.115457	0.161965	-0.114440
O14	O	-0.615457	0.661965	0.385560
Zn15	Zn	-0.993240	0.171950	-0.150715
Zn16	Zn	-0.493240	0.671950	0.349285
Zn17	Zn	-0.993242	0.171944	0.150449
Zn18	Zn	-0.493242	0.671944	0.650449
O19	O	-0.987622	0.354761	-0.114420
O20	O	-0.487622	0.854761	0.385580
C21	C	-0.839725	0.181103	-0.000112
C22	C	-0.339725	0.681103	0.499888
C23	C	-0.746465	0.178617	-0.000099
C24	C	-0.246465	0.678617	0.499901
C25	C	-1.146757	0.162792	-0.000151
C26	C	-0.646757	0.662792	0.499849
C27	C	-1.240017	0.165277	-0.000155
C28	C	-0.740017	0.665277	0.499845
C29	C	-0.998033	-0.057651	-0.000133
C30	C	-0.498033	0.442349	0.499867
C31	C	-0.995562	-0.197062	-0.000126
C32	C	-0.495562	0.302938	0.499874
C33	C	-0.530881	0.053173	-0.000128
C34	C	-0.030881	0.553173	0.499872
C35	C	-0.470199	0.111423	0.112575
C36	C	0.029801	0.611423	0.612575
C37	C	-0.575713	0.174121	-0.000115
C38	C	-0.075713	0.674121	0.499885
C39	C	-0.470220	0.111456	-0.112787
C40	C	0.029780	0.611456	0.387213
C41	C	-0.410775	0.169769	-0.000137
C42	C	0.089225	0.669769	0.499863
C43	C	-0.516260	0.232404	0.112681
C44	C	-0.016260	0.732404	0.612681
C45	C	-0.516287	0.232421	-0.112782
C46	C	-0.016287	0.732421	0.387218
C47	C	-0.455623	0.290758	-0.000052
C48	C	0.044377	0.790758	0.499948
C49	C	-0.670730	0.176625	-0.000101
C50	C	-0.170730	0.676625	0.499899
C51	C	-0.315759	0.167275	-0.000141
C52	C	0.184241	0.667275	0.499859
C53	C	-0.988449	0.401546	-0.000129
C54	C	-0.488449	0.901546	0.499871
C55	C	-0.990920	0.540957	-0.000128
C56	C	-0.490920	1.040957	0.499872
C57	C	-1.070833	0.722485	-0.000141
C58	C	-0.570833	1.222485	0.499859
C59	C	-1.068512	0.591493	-0.000137
C60	C	-0.568512	1.091493	0.499863
C61	C	-0.915643	0.621420	-0.000108
C62	C	-0.415643	1.121420	0.499892
C63	C	-0.917965	0.752409	-0.000103
C64	C	-0.417965	1.252409	0.499897
C65	C	-1.159090	0.705206	-0.000164
C66	C	-0.659090	1.205206	0.499836
C67	C	-1.156769	0.574214	-0.000160
C68	C	-0.656769	1.074214	0.499840
N69	N	-0.993245	0.171954	-0.356251
N70	N	-0.493245	0.671954	0.143749
C71	C	-1.049865	0.086613	-0.428186
C72	C	-0.549865	0.586613	0.071814
C73	C	-1.049862	0.086597	-0.572069
C74	C	-0.549862	0.586597	-0.072069
C75	C	-0.936618	0.257276	-0.572070
C76	C	-0.436618	0.757276	-0.072070
C77	C	-0.936617	0.257284	-0.428189
C78	C	-0.436617	0.757284	0.071811
C79	C	-1.115248	-0.011924	-0.428187
C80	C	-0.615248	0.488076	0.071813
C81	C	-1.115246	-0.011939	-0.572070
C82	C	-0.615246	0.488061	-0.072070
N83	N	-0.993244	0.171931	0.355985
N84	N	-0.493244	0.671931	0.855985
H85	H	-0.563631	-0.047204	0.000010
H86	H	-0.063631	0.452796	0.500010
H87	H	-0.423048	0.391239	0.000013
H88	H	0.076952	0.891239	0.500013
F89	F	-1.204208	0.742998	0.124857
F90	F	-0.704208	1.242998	0.624857
H91	H	-1.187194	0.740479	-0.098861
H92	H	-0.687194	1.240479	0.401139
F93	F	-0.542770	0.299216	0.237358
F94	F	-0.042770	0.799216	0.737358
F95	F	-1.191632	0.514092	0.128832
F96	F	-0.691632	1.014092	0.628832
F97	F	-1.088565	-0.130821	-0.630391
F98	F	-0.588565	0.369179	-0.130391
H99	H	-0.852466	0.580263	-0.000088
H100	H	-0.352466	1.080263	0.499912
H101	H	-1.100906	-0.108270	-0.389132
H102	H	-0.600906	0.391730	0.110868
H103	H	-0.890505	0.326765	-0.369621
H104	H	-0.390505	0.826765	0.130379
F105	F	-1.200234	0.519076	-0.125196
F106	F	-0.700234	1.019076	0.374804
F107	F	-0.542989	0.299234	-0.237327
F108	F	-0.042989	0.799234	0.262673
H109	H	-0.890512	0.326749	-0.630657
H110	H	-0.390512	0.826749	-0.130657
F111	F	-0.443578	0.044568	-0.237324
F112	F	0.056422	0.544568	0.262676
H113	H	-1.176233	0.017876	-0.383569
H114	H	-0.676233	0.517876	0.116431
F115	F	-0.837852	0.838029	-0.000057
F116	F	-0.337852	1.338029	0.499943
F117	F	-1.199614	0.015085	-0.623130
F118	F	-0.699614	0.515085	-0.123130
H119	H	-0.449793	0.060265	0.207856
H120	H	0.050207	0.560265	0.707856
