data_functionalizedCrystal
_audit_creation_method	'MofGen! by Chris Wilmer'
_symmetry_space_group_name_H-M	'P1'
_symmetry_Int_Tables_number	1
_symmetry_cell_setting	triclinic
loop_
_symmetry_equiv_pos_as_xyz
  x,y,z
_cell_length_a	15.995350
_cell_length_b	15.995292
_cell_length_c	15.455313
_cell_angle_alpha	92.667666
_cell_angle_beta	87.322339
_cell_angle_gamma	83.480495
loop_
_atom_site_label
_atom_site_type_symbol
_atom_site_fract_x
_atom_site_fract_y
_atom_site_fract_z
O1	O	1.114630	0.104271	-0.072051
O2	O	1.447963	0.437604	0.261282
O3	O	1.781296	0.770938	0.594616
O4	O	0.870853	0.117598	-0.072068
O5	O	1.204186	0.450931	0.261265
O6	O	1.537519	0.784265	0.594599
O7	O	0.999430	-0.010956	-0.072060
O8	O	1.332764	0.322377	0.261273
O9	O	1.666097	0.655710	0.594606
O10	O	0.986052	0.232826	-0.072059
O11	O	1.319385	0.566159	0.261275
O12	O	1.652719	0.899492	0.594608
O13	O	0.992078	-0.003635	0.072201
O14	O	1.325411	0.329698	0.405535
O15	O	1.658744	0.663031	0.738868
O16	O	0.863500	0.124919	0.072194
O17	O	1.196833	0.458252	0.405527
O18	O	1.530167	0.791586	0.738860
O19	O	1.107277	0.111592	0.072211
O20	O	1.440610	0.444925	0.405544
O21	O	1.773944	0.778259	0.738877
Cu22	Cu	0.984717	0.118924	0.085374
Cu23	Cu	1.318050	0.452257	0.418708
Cu24	Cu	1.651384	0.785591	0.752041
Cu25	Cu	0.993413	0.110266	-0.085232
Cu26	Cu	1.326746	0.443599	0.248101
Cu27	Cu	1.660079	0.776933	0.581435
O28	O	0.978699	0.240147	0.072203
O29	O	1.312033	0.573480	0.405536
O30	O	1.645366	0.906813	0.738870
C31	C	0.835982	0.120707	0.000060
C32	C	1.169315	0.454041	0.333394
C33	C	1.502648	0.787374	0.666727
C34	C	0.743032	0.119055	0.000054
C35	C	1.076365	0.452389	0.333387
C36	C	1.409699	0.785722	0.666720
C37	C	0.405285	0.113124	0.000072
C38	C	0.738618	0.446457	0.333405
C39	C	1.071951	0.779791	0.666738
C40	C	0.452722	0.021586	0.000393
C41	C	0.786055	0.354919	0.333726
C42	C	1.119388	0.688252	0.667059
C43	C	0.549428	0.023221	0.000062
C44	C	0.882762	0.356554	0.333395
C45	C	1.216095	0.689888	0.666728
C46	C	0.572845	0.116066	0.000063
C47	C	0.906179	0.449399	0.333397
C48	C	1.239512	0.782733	0.666730
C49	C	0.535947	0.157043	-0.082314
C50	C	0.869281	0.490377	0.251020
C51	C	1.202614	0.823710	0.584353
C52	C	0.439315	0.154740	-0.082376
C53	C	0.772648	0.488073	0.250957
C54	C	1.105982	0.821407	0.584290
C55	C	0.430614	0.164957	0.081676
C56	C	0.763948	0.498290	0.415009
C57	C	1.097281	0.831624	0.748343
C58	C	0.527505	0.164990	0.082759
C59	C	0.860838	0.498324	0.416092
C60	C	1.194171	0.831657	0.749425
C61	C	0.667543	0.117733	0.000056
C62	C	1.000876	0.451067	0.333389
C63	C	1.334209	0.784400	0.666722
C64	C	0.310587	0.111459	0.000073
C65	C	0.643921	0.444792	0.333407
C66	C	0.977254	0.778125	0.666740
C67	C	0.995210	-0.038492	0.000068
C68	C	1.328543	0.294842	0.333401
C69	C	1.661876	0.628175	0.666735
C70	C	0.993578	-0.131445	0.000062
C71	C	1.326911	0.201888	0.333395
C72	C	1.660244	0.535222	0.666728
C73	C	0.987576	-0.469183	0.000069
C74	C	1.320909	-0.135850	0.333402
C75	C	1.654243	0.197484	0.666736
C76	C	1.080364	-0.445854	0.000398
C77	C	1.413697	-0.112521	0.333731
C78	C	1.747030	0.220813	0.667065
C79	C	1.082144	-0.349195	0.000070
C80	C	1.415478	-0.015862	0.333403
C81	C	1.748811	0.317472	0.666736
C82	C	0.990554	-0.301627	0.000066
C83	C	1.323887	0.031706	0.333399
C84	C	1.657221	0.365039	0.666732
C85	C	0.948355	-0.334909	-0.082315
C86	C	1.281688	-0.001576	0.251018
C87	C	1.615022	0.331758	0.584351
C88	C	0.947241	-0.431703	-0.082381
C89	C	1.280574	-0.098369	0.250952
C90	C	1.613908	0.234964	0.584285
C91	C	0.936985	-0.423235	0.081671
C92	C	1.270318	-0.089901	0.415005
C93	C	1.603651	0.243432	0.748338
C94	C	0.940368	-0.326687	0.082757
C95	C	1.273702	0.006646	0.416090
C96	C	1.607035	0.339980	0.749424
C97	C	0.992232	-0.206931	0.000061
C98	C	1.325566	0.126402	0.333394
C99	C	1.658899	0.459735	0.666728
C100	C	0.985895	-0.563879	0.000068
C101	C	1.319229	-0.230545	0.333401
C102	C	1.652562	0.102788	0.666735
C103	C	1.142148	0.108483	0.000080
C104	C	1.475481	0.441816	0.333413
C105	C	1.808815	0.775149	0.666747
C106	C	1.235098	0.110135	0.000081
C107	C	1.568431	0.443468	0.333415
C108	C	1.901765	0.776801	0.666748
C109	C	0.982920	0.267682	0.000072
C110	C	1.316253	0.601015	0.333406
C111	C	1.649587	0.934348	0.666739
C112	C	0.984552	0.360635	0.000073
C113	C	1.317886	0.693968	0.333407
C114	C	1.651219	1.027301	0.666740
N115	N	0.978607	0.125013	0.205369
N116	N	1.311941	0.458346	0.538703
N117	N	1.645274	0.791680	0.872036
N118	N	0.999529	0.104170	-0.205227
N119	N	1.332862	0.437504	0.128106
N120	N	1.666196	0.770837	0.461440
C121	C	1.033251	0.070419	0.250767
C122	C	1.366584	0.403752	0.584100
C123	C	1.699917	0.737085	0.917434
C124	C	1.028638	0.075031	0.341574
C125	C	1.361971	0.408365	0.674908
C126	C	1.695305	0.741698	1.008241
C127	C	0.969385	0.134243	0.386983
C128	C	1.302718	0.467576	0.720316
C129	C	1.636052	0.800910	1.053650
C130	C	0.914736	0.188840	0.341579
C131	C	1.248069	0.522173	0.674913
C132	C	1.581403	0.855506	1.008246
C133	C	0.919345	0.184223	0.250773
C134	C	1.252679	0.517556	0.584107
C135	C	1.586012	0.850889	0.917440
C136	C	0.949489	0.154150	0.658563
C137	C	1.282823	0.487483	0.991897
C138	C	1.616156	0.820817	1.325230
C139	C	0.944886	0.158765	0.749376
C140	C	1.278219	0.492098	1.082709
C141	C	1.611552	0.825432	1.416042
C142	C	1.058787	0.044955	0.749365
C143	C	1.392120	0.378288	1.082698
C144	C	1.725454	0.711621	1.416031
C145	C	1.063395	0.040346	0.658557
C146	C	1.396728	0.373680	0.991890
C147	C	1.730061	0.707013	1.325223
C148	C	1.008742	0.094940	0.613161
C149	C	1.342076	0.428273	0.946494
C150	C	1.675409	0.761607	1.279828
N151	N	0.964670	0.138961	0.479803
N152	N	1.298004	0.472294	0.813136
N153	N	1.631337	0.805628	1.146470
N154	N	1.013454	0.090217	0.520343
N155	N	1.346787	0.423551	0.853676
N156	N	1.680120	0.756884	1.187009
H157	H	0.431196	-0.012013	0.059468
H158	H	0.764530	0.321320	0.392802
H159	H	1.097863	0.654654	0.726135
Cl160	Cl	0.550805	0.269917	0.090442
Cl161	Cl	0.884139	0.603250	0.423775
Cl162	Cl	1.217472	0.936584	0.757109
Cl163	Cl	0.394012	0.123634	0.178079
Cl164	Cl	0.727345	0.456968	0.511413
Cl165	Cl	1.060679	0.790301	0.844746
Cl166	Cl	0.880789	0.222784	0.601500
Cl167	Cl	1.214122	0.556117	0.934834
Cl168	Cl	1.547456	0.889450	1.268167
Cl169	Cl	0.976898	-0.462032	0.178075
Cl170	Cl	1.310231	-0.128698	0.511408
Cl171	Cl	1.643564	0.204635	0.844742
Cl172	Cl	0.381513	0.269219	0.082539
Cl173	Cl	0.714846	0.602552	0.415873
Cl174	Cl	1.048179	0.935885	0.749206
H175	H	1.081504	0.022206	0.213801
H176	H	1.414837	0.355539	0.547134
H177	H	1.748171	0.688873	0.880468
Cl178	Cl	0.870390	0.233211	0.806455
Cl179	Cl	1.203724	0.566544	1.139788
Cl180	Cl	1.537057	0.899878	1.473121
Cl181	Cl	0.597087	-0.036354	-0.091425
Cl182	Cl	0.930421	0.296979	0.241908
Cl183	Cl	1.263754	0.630313	0.575241
Cl184	Cl	0.564790	0.118786	0.176849
Cl185	Cl	0.898124	0.452120	0.510182
Cl186	Cl	1.231457	0.785453	0.843515
H187	H	1.118930	-0.477853	-0.058345
H188	H	1.452263	-0.144519	0.274988
H189	H	1.785597	0.188814	0.608322
H190	H	0.982513	-0.461644	-0.143960
H191	H	1.315846	-0.128311	0.189374
H192	H	1.649179	0.205023	0.522707
H193	H	1.115472	-0.327173	0.059123
H194	H	1.448805	0.006160	0.392456
H195	H	1.782138	0.339494	0.725789
Cl196	Cl	0.831476	-0.444793	0.082526
Cl197	Cl	1.164809	-0.111460	0.415860
Cl198	Cl	1.498142	0.221874	0.749193
H199	H	0.567453	0.122567	-0.143621
H200	H	0.900786	0.455901	0.189712
H201	H	1.234119	0.789234	0.523046
Cl202	Cl	1.097333	0.006396	0.398647
Cl203	Cl	1.430666	0.339730	0.731980
Cl204	Cl	1.763999	0.673063	1.065314
Cl205	Cl	1.130948	-0.484450	0.091612
Cl206	Cl	1.464281	-0.151116	0.424946
Cl207	Cl	1.797615	0.182217	0.758279
Cl208	Cl	0.427102	-0.039266	-0.090307
Cl209	Cl	0.760435	0.294067	0.243026
Cl210	Cl	1.093769	0.627401	0.576359
H211	H	1.121711	-0.333792	-0.059083
H212	H	1.455044	-0.000459	0.274251
H213	H	1.788377	0.332874	0.607584
H214	H	0.879387	-0.446443	-0.086117
H215	H	1.212720	-0.113109	0.247217
H216	H	1.546053	0.220224	0.580550
H217	H	0.881113	-0.303197	-0.085381
H218	H	1.214446	0.030137	0.247952
H219	H	1.547779	0.363470	0.581286
Cl220	Cl	0.840241	0.263275	0.398662
Cl221	Cl	1.173575	0.596608	0.731996
Cl222	Cl	1.506908	0.929941	1.065329
H223	H	0.874848	0.228678	0.213812
H224	H	1.208181	0.562011	0.547145
H225	H	1.541515	0.895345	0.880478
H226	H	1.111643	-0.007869	0.621587
H227	H	1.444976	0.325465	0.954920
H228	H	1.778309	0.658798	1.288254
Cl229	Cl	0.415901	0.099071	-0.177449
Cl230	Cl	0.749234	0.432404	0.155884
Cl231	Cl	1.082568	0.765738	0.489217
Cl232	Cl	0.588689	-0.026959	0.091230
Cl233	Cl	0.922023	0.306375	0.424564
Cl234	Cl	1.255356	0.639708	0.757897
H235	H	0.873263	-0.293465	0.087729
H236	H	1.206597	0.039868	0.421063
H237	H	1.539930	0.373202	0.754396
Cl238	Cl	1.127485	-0.023676	0.806437
Cl239	Cl	1.460819	0.309657	1.139771
Cl240	Cl	1.794152	0.642990	1.473104
H241	H	0.983699	-0.317960	-0.143620
H242	H	1.317033	0.015374	0.189714
H243	H	1.650366	0.348707	0.523047
H244	H	0.971047	-0.305029	0.143702
H245	H	1.304380	0.028305	0.477035
H246	H	1.637714	0.361638	0.810369
H247	H	0.550214	0.225099	-0.085376
H248	H	0.883547	0.558432	0.247958
H249	H	1.216881	0.891765	0.581291
Cl250	Cl	0.389795	0.258223	-0.088149
Cl251	Cl	0.723128	0.591556	0.245184
Cl252	Cl	1.056461	0.924889	0.578518
