data_functionalizedCrystal
_audit_creation_method	'MofGen! by Chris Wilmer'
_symmetry_space_group_name_H-M	'P1'
_symmetry_Int_Tables_number	1
_symmetry_cell_setting	triclinic
loop_
_symmetry_equiv_pos_as_xyz
  x,y,z
_cell_length_a	12.759401
_cell_length_b	18.050589
_cell_length_c	12.759393
_cell_angle_alpha	89.970734
_cell_angle_beta	89.981798
_cell_angle_gamma	90.028382
loop_
_atom_site_label
_atom_site_type_symbol
_atom_site_fract_x
_atom_site_fract_y
_atom_site_fract_z
Zn1	Zn	1.606154	-0.295622	-0.593988
Zn2	Zn	1.606007	-0.419830	-0.418311
Zn3	Zn	1.430456	-0.295658	-0.418328
Zn4	Zn	1.430403	-0.419775	-0.593953
O5	O	1.518255	-0.357721	-0.506145
O6	O	1.753155	-0.312106	-0.570692
O7	O	1.582681	-0.403396	-0.271292
O8	O	1.453847	-0.191729	-0.441651
O9	O	1.753048	-0.403361	-0.441623
O10	O	1.582931	-0.191703	-0.570708
O11	O	1.453705	-0.312168	-0.271304
O12	O	1.283428	-0.312115	-0.441617
O13	O	1.453755	-0.403269	-0.740979
O14	O	1.283389	-0.403303	-0.570648
O15	O	1.582879	-0.312054	-0.741005
O16	O	1.582629	-0.523747	-0.441589
O17	O	1.453613	-0.523707	-0.570632
C18	C	1.245288	-0.357708	-0.506131
C19	C	1.128511	-0.357720	-0.506149
C20	C	1.073656	-0.405278	-0.573225
C21	C	0.963932	-0.405287	-0.573236
C22	C	0.963928	-0.310179	-0.439088
C23	C	1.073650	-0.310166	-0.439083
C24	C	1.128517	-0.452831	-0.640292
C25	C	1.073662	-0.500393	-0.707372
C26	C	0.963938	-0.500403	-0.707383
C27	C	0.909069	-0.452850	-0.640314
C28	C	1.518128	-0.550674	-0.506127
C29	C	1.518170	-0.633219	-0.506155
C30	C	1.448080	-0.832675	-0.576304
C31	C	1.422466	-0.882122	-0.480436
C32	C	1.518273	-0.784350	-0.506169
C33	C	1.543939	-0.881984	-0.602048
C34	C	1.518371	-0.930335	-0.506191
C35	C	1.492609	-0.832710	-0.410250
C36	C	1.614126	-0.832567	-0.531927
C37	C	1.588549	-0.881992	-0.435992
C38	C	1.518214	-0.700251	-0.506158
C39	C	1.518430	-1.014431	-0.506191
C40	C	1.792288	-0.357736	-0.506160
C41	C	1.909065	-0.357742	-0.506166
C42	C	1.518327	-0.357651	-0.780178
C43	C	1.518358	-0.357621	-0.896955
C44	C	1.518411	-0.164016	-0.506185
C45	C	1.518477	-0.081470	-0.506203
C46	C	1.585554	-0.405070	-1.061540
C47	C	1.585523	-0.405103	-0.951816
C48	C	1.451213	-0.310108	-0.951824
C49	C	1.451240	-0.310079	-1.061547
C50	C	1.652731	-0.452550	-1.116395
C51	C	1.719876	-0.500064	-1.061533
C52	C	1.719844	-0.500097	-0.951809
C53	C	1.652668	-0.452616	-0.896946
C54	C	1.518244	-0.357738	-0.233178
C55	C	1.518417	-0.357559	-0.116401
H56	H	0.819724	-0.452855	-0.640338
H57	H	1.470847	-0.811154	-0.329152
H58	H	1.396573	-0.271389	-1.106216
H59	H	1.341453	-0.903906	-0.458669
H60	H	1.217860	-0.452830	-0.640288
F61	F	1.791356	-0.550600	-1.119922
F62	F	1.652625	-0.452663	-0.780167
F63	F	1.719993	-0.804095	-0.560436
H64	H	0.919278	-0.539125	-0.762010
H65	H	1.118314	-0.271435	-0.384472
F66	F	0.905529	-0.259575	-0.367713
H67	H	1.396523	-0.271450	-0.907147
H68	H	1.774510	-0.538790	-0.907143
F69	F	1.652774	-0.452516	-1.233172
F70	F	1.132059	-0.550995	-0.778752
F71	F	1.370382	-0.804369	-0.653720
H72	H	1.565608	-0.903629	-0.683124
F73	F	1.666194	-0.910118	-0.358394
