data_functionalizedCrystal
_audit_creation_method	'MofGen! by Chris Wilmer'
_symmetry_space_group_name_H-M	'P1'
_symmetry_Int_Tables_number	1
_symmetry_cell_setting	triclinic
loop_
_symmetry_equiv_pos_as_xyz
  x,y,z
_cell_length_a	10.489716
_cell_length_b	27.732048
_cell_length_c	9.565339
_cell_angle_alpha	90.003958
_cell_angle_beta	90.003468
_cell_angle_gamma	83.585895
loop_
_atom_site_label
_atom_site_type_symbol
_atom_site_fract_x
_atom_site_fract_y
_atom_site_fract_z
O1	O	1.691077	0.068130	0.116266
O2	O	1.319596	0.074543	0.116273
O3	O	1.516874	0.001013	0.116242
O4	O	1.493799	0.141661	0.116296
O5	O	1.516857	0.001018	-0.116278
O6	O	1.319579	0.074549	-0.116248
O7	O	1.691060	0.068136	-0.116254
Zn8	Zn	1.505317	0.071343	-0.153169
Zn9	Zn	1.505339	0.071336	0.153187
O10	O	1.493782	0.141667	-0.116224
C11	C	1.272076	0.074064	0.000013
C12	C	1.130509	0.072623	0.000014
C13	C	1.030853	0.117714	0.000035
C14	C	0.954546	0.093890	-0.114625
C15	C	0.954569	0.093874	0.114622
C16	C	1.056066	0.048817	-0.114740
C17	C	1.056095	0.048808	0.114610
C18	C	0.979838	0.024950	-0.000079
C19	C	1.516381	-0.016995	-0.000022
C20	C	1.514923	-0.070659	-0.000033
C21	C	1.622319	-0.408799	0.000037
C22	C	1.616907	-0.610493	0.000056
O23	O	1.715114	-0.641132	0.000116
N24	N	1.499929	-0.630351	0.000057
C25	C	1.384296	-0.599782	0.000062
O26	O	1.284675	-0.621301	0.000078
C27	C	1.389709	-0.398090	0.000053
C28	C	1.506695	-0.378235	0.000038
C29	C	1.739295	-0.388944	0.000023
C30	C	1.740646	-0.338523	0.000011
C31	C	1.625022	-0.307958	0.000012
C32	C	1.508046	-0.327814	0.000025
C33	C	1.274077	-0.367522	0.000068
C34	C	1.275441	-0.317096	0.000069
C35	C	1.392426	-0.297241	0.000054
C36	C	1.393774	-0.246829	0.000014
N37	N	1.510751	-0.226971	0.000013
C38	C	1.626376	-0.257536	0.000012
C39	C	1.381463	-0.705674	0.000065
C40	C	1.380109	-0.756097	0.000064
C41	C	1.612721	-0.766804	0.000061
C42	C	1.614073	-0.716380	0.000051
C43	C	1.498441	-0.685816	0.000064
C44	C	1.629205	-0.151649	-0.000016
C45	C	1.630547	-0.101223	-0.000034
C46	C	1.397936	-0.090521	-0.000023
C47	C	1.396594	-0.140942	-0.000012
C48	C	1.512239	-0.171505	-0.000004
O49	O	1.295620	-0.216161	-0.000030
O50	O	1.725982	-0.236008	0.000027
C51	C	1.620967	-0.459220	0.000049
C52	C	1.503991	-0.479076	0.000063
C53	C	1.388367	-0.448511	0.000064
C54	C	1.502638	-0.529498	0.000063
C55	C	1.618262	-0.560063	0.000062
C56	C	1.735240	-0.540205	0.000061
C57	C	1.736591	-0.489785	0.000048
C58	C	1.271389	-0.468369	0.000065
C59	C	1.270047	-0.518790	0.000075
C60	C	1.385671	-0.549355	0.000075
C61	C	1.738580	0.068615	0.000008
C62	C	1.880147	0.070057	0.000016
C63	C	1.494275	0.159674	0.000043
C64	C	1.495733	0.213338	0.000064
N65	N	1.505311	0.071348	-0.362248
C66	C	1.414812	0.105619	-0.546607
C67	C	1.389873	0.061991	-0.453397
C68	C	1.530193	0.114972	-0.453388
C69	C	1.480360	0.027677	-0.546576
C70	C	1.620729	0.080687	-0.546576
C71	C	1.595840	0.037028	-0.453408
N72	N	1.505355	0.071327	0.362266
H73	H	1.100434	0.029785	0.211534
N74	N	0.899010	0.117754	0.236233
N75	N	0.933265	0.102829	0.355214
H76	H	0.894031	0.119697	0.441100
N77	N	1.750062	-0.080951	-0.000060
N78	N	1.853286	-0.108250	-0.000061
H79	H	1.937692	-0.093934	-0.000079
N80	N	1.733569	-0.696100	0.000016
N81	N	1.811276	-0.705321	-0.098006
H82	H	1.895675	-0.691000	-0.098032
H83	H	1.459219	-0.009232	-0.587338
H84	H	1.829385	-0.565100	0.000054
H85	H	1.551236	0.151875	-0.412481
H86	H	1.723375	-0.176528	-0.000003
N87	N	1.153274	-0.437152	0.000085
N88	N	1.075255	-0.439197	0.098098
H89	H	0.991828	-0.417151	0.098108
N90	N	1.856090	-0.469507	0.000013
N91	N	1.933800	-0.478732	-0.098005
H92	H	2.018203	-0.464414	-0.098031
H93	H	1.053798	0.156937	-0.000057
H94	H	0.910220	0.112927	-0.211545
N95	N	1.157333	-0.285870	0.000061
N96	N	1.158545	-0.240850	0.000047
H97	H	1.075133	-0.218796	0.000036
H98	H	1.835908	-0.322362	0.000004
N99	N	1.111454	0.024956	-0.236461
N100	N	1.229844	0.022242	-0.256129
H101	H	1.268966	0.005391	-0.342094
N102	N	1.743105	0.090623	-0.598004
N103	N	1.808126	0.060127	-0.672731
H104	H	1.894553	0.067148	-0.709059
N105	N	1.691881	0.000629	-0.402359
N106	N	1.781133	0.012402	-0.327618
H107	H	1.848959	-0.013305	-0.291560
N108	N	0.951365	-0.024291	-0.000187
N109	N	0.988977	-0.051896	-0.098718
H110	H	0.968868	-0.086673	-0.098801
N111	N	1.857425	-0.420153	0.000032
N112	N	1.961848	-0.402408	0.000025
H113	H	2.045287	-0.424447	0.000023
N114	N	1.730818	-0.798037	0.000049
N115	N	1.729578	-0.843056	0.000048
H116	H	1.812979	-0.865117	0.000046
H117	H	1.284848	-0.772259	0.000052
N118	N	1.267465	0.052056	-0.402039
N119	N	1.224652	0.013191	-0.433575
H120	H	1.138199	0.006175	-0.397308
H121	H	1.338210	0.134576	-0.587528
H122	H	1.287295	-0.680793	0.000074
N123	N	1.154576	-0.387794	0.000070
N124	N	1.076836	-0.378576	-0.097930
H125	H	0.992430	-0.392891	-0.097926
H126	H	1.301335	-0.157108	-0.000039
N127	N	1.279846	-0.059288	-0.000034
N128	N	1.281084	-0.014269	-0.000041
H129	H	1.197683	0.007791	-0.000041
H130	H	1.174777	-0.534951	0.000075
