data_functionalizedCrystal
_audit_creation_method	'MofGen! by Chris Wilmer'
_symmetry_space_group_name_H-M	'P1'
_symmetry_Int_Tables_number	1
_symmetry_cell_setting	triclinic
loop_
_symmetry_equiv_pos_as_xyz
  x,y,z
_cell_length_a	16.109301
_cell_length_b	10.967829
_cell_length_c	14.586319
_cell_angle_alpha	77.868327
_cell_angle_beta	89.998857
_cell_angle_gamma	84.100378
loop_
_atom_site_label
_atom_site_type_symbol
_atom_site_fract_x
_atom_site_fract_y
_atom_site_fract_z
O1	O	1.104076	0.160394	-0.101528
O2	O	0.862131	0.180354	-0.104694
O3	O	0.988683	-0.011278	-0.074408
O4	O	0.977524	0.352026	-0.131814
O5	O	0.988674	-0.011281	0.078073
O6	O	0.862122	0.180352	0.047787
O7	O	1.104067	0.160391	0.050953
Cu8	Cu	0.983094	0.170371	0.063293
Cu9	Cu	0.983104	0.170374	-0.117034
O10	O	0.977515	0.352024	0.020667
C11	C	0.831147	0.179544	-0.028328
C12	C	0.738838	0.177120	-0.027949
C13	C	0.987866	-0.057769	0.009176
C14	C	0.985435	-0.196293	0.031058
C15	C	0.430463	0.282906	-0.044649
C16	C	0.517196	0.285196	-0.045016
C17	C	0.535730	0.057830	-0.009102
C18	C	0.448998	0.055542	-0.008742
C19	C	0.396366	0.168084	-0.026511
C20	C	0.569832	0.172661	-0.027238
C21	C	0.663873	0.175143	-0.027636
C22	C	0.302319	0.165603	-0.026115
C23	C	0.984355	-0.258043	-0.038177
C24	C	0.981843	-0.401215	-0.015563
C25	C	1.135051	0.161201	-0.025416
C26	C	1.227360	0.163625	-0.025800
C27	C	0.978332	0.398514	-0.062919
C28	C	0.980763	0.537038	-0.084808
N29	N	0.983092	0.170368	0.190125
N30	N	0.983112	0.170368	-0.243865
C31	C	1.039148	0.085542	0.438538
C32	C	1.039151	0.085539	0.534519
C33	C	0.927050	0.255198	0.507715
C34	C	0.927044	0.255194	0.411736
C35	C	0.983098	0.170367	0.377150
C36	C	0.983106	0.170368	0.569110
C37	C	0.983109	0.170366	0.673178
C38	C	0.983095	0.170368	0.273076
H39	H	0.387612	0.374545	-0.059118
H40	H	0.980901	-0.454336	0.060459
H41	H	0.985288	-0.204915	-0.114194
F42	F	1.098804	-0.004742	0.401732
H43	H	0.544953	0.378695	-0.059786
H44	H	0.421237	-0.037965	0.006026
F45	F	1.098805	-0.004747	0.599851
H46	H	0.981690	-0.409839	-0.160830
F47	F	0.984205	-0.265726	0.130420
H48	H	0.881398	0.324270	0.361750
F49	F	0.867399	0.345476	0.544531
F50	F	0.591751	-0.061938	0.009815
