data_functionalizedCrystal
_audit_creation_method	'MofGen! by Chris Wilmer'
_symmetry_space_group_name_H-M	'P1'
_symmetry_Int_Tables_number	1
_symmetry_cell_setting	triclinic
loop_
_symmetry_equiv_pos_as_xyz
  x,y,z
_cell_length_a	29.839135
_cell_length_b	18.215405
_cell_length_c	29.839111
_cell_angle_alpha	90.118719
_cell_angle_beta	90.064854
_cell_angle_gamma	90.026712
loop_
_atom_site_label
_atom_site_type_symbol
_atom_site_fract_x
_atom_site_fract_y
_atom_site_fract_z
Zn1	Zn	-0.686989	0.292315	-0.254052
Zn2	Zn	-0.353656	0.625649	0.079281
Zn3	Zn	-0.020323	0.958982	0.412614
Zn4	Zn	-0.686879	0.415576	-0.178922
Zn5	Zn	-0.353545	0.748909	0.154411
Zn6	Zn	-0.020212	1.082243	0.487744
Zn7	Zn	-0.611808	0.292532	-0.178930
Zn8	Zn	-0.278474	0.625865	0.154404
Zn9	Zn	0.054859	0.959198	0.487737
Zn10	Zn	-0.611841	0.415349	-0.254019
Zn11	Zn	-0.278508	0.748682	0.079314
Zn12	Zn	0.054825	1.082015	0.412647
O13	O	-0.649379	0.353943	-0.216481
O14	O	-0.316046	0.687276	0.116852
O15	O	0.017288	1.020610	0.450186
O16	O	-0.749842	0.308671	-0.244097
O17	O	-0.416508	0.642004	0.089236
O18	O	-0.083175	0.975337	0.422570
O19	O	-0.676860	0.399440	-0.116056
O20	O	-0.343526	0.732773	0.217277
O21	O	-0.010193	1.066106	0.550611
O22	O	-0.621813	0.189519	-0.188912
O23	O	-0.288479	0.522852	0.144422
O24	O	0.044854	0.856185	0.477755
O25	O	-0.749760	0.399230	-0.188899
O26	O	-0.416427	0.732563	0.144434
O27	O	-0.083094	1.065896	0.477767
O28	O	-0.677048	0.189360	-0.244104
O29	O	-0.343715	0.522693	0.089229
O30	O	-0.010382	0.856026	0.422563
O31	O	-0.621705	0.309040	-0.116061
O32	O	-0.288372	0.642373	0.217272
O33	O	0.044961	0.975706	0.550605
O34	O	-0.548945	0.308819	-0.188880
O35	O	-0.215612	0.642153	0.144454
O36	O	0.117722	0.975486	0.477787
O37	O	-0.621870	0.398842	-0.316891
O38	O	-0.288537	0.732176	0.016442
O39	O	0.044796	1.065509	0.349776
O40	O	-0.548970	0.399052	-0.244048
O41	O	-0.215636	0.732386	0.089286
O42	O	0.117697	1.065719	0.422619
O43	O	-0.677081	0.308450	-0.316915
O44	O	-0.343748	0.641784	0.016418
O45	O	-0.010414	0.975117	0.349751
O46	O	-0.676893	0.518530	-0.188867
O47	O	-0.343559	0.851864	0.144466
O48	O	-0.010226	1.185197	0.477799
O49	O	-0.621763	0.518363	-0.244041
O50	O	-0.288430	0.851697	0.089293
O51	O	0.044904	1.185030	0.422626
C52	C	-0.532657	0.353935	-0.216461
C53	C	-0.199323	0.687268	0.116872
C54	C	0.134010	1.020602	0.450206
C55	C	-0.482722	0.353949	-0.216463
C56	C	-0.149389	0.687283	0.116870
C57	C	0.183945	1.020616	0.450203
C58	C	-0.173118	0.306851	-0.245262
C59	C	0.160215	0.640184	0.088071
C60	C	0.493549	0.973517	0.421404
C61	C	0.014555	0.306852	-0.245274
C62	C	0.347888	0.640185	0.088059
C63	C	0.681222	0.973518	0.421392
O64	O	0.038786	0.266795	-0.269740
O65	O	0.372120	0.600128	0.063593
O66	O	0.705453	0.933461	0.396927
N67	N	0.038063	0.353930	-0.216494
N68	N	0.371396	0.687263	0.116839
N69	N	0.704730	1.020597	0.450172
C70	C	0.014650	0.401008	-0.187707
C71	C	0.347983	0.734341	0.145626
C72	C	0.681316	1.067674	0.478960
O73	O	0.038951	0.441045	-0.163225
O74	O	0.372284	0.774379	0.170109
O75	O	0.705618	1.107712	0.503442
C76	C	-0.173022	0.401002	-0.187693
C77	C	0.160311	0.734335	0.145640
C78	C	0.493644	1.067669	0.478974
C79	C	-0.196528	0.353926	-0.216478
C80	C	0.136805	0.687260	0.116855
C81	C	0.470139	1.020593	0.450188
C82	C	-0.196624	0.259778	-0.274045
C83	C	0.136710	0.593111	0.059288
C84	C	0.470043	0.926444	0.392622
C85	C	-0.243539	0.259781	-0.274043
C86	C	0.089794	0.593114	0.059290
C87	C	0.423127	0.926447	0.392623
C88	C	-0.266949	0.306857	-0.245259
C89	C	0.066384	0.640190	0.088074
C90	C	0.399718	0.973523	0.421407
C91	C	-0.243443	0.353929	-0.216477
C92	C	0.089890	0.687263	0.116857
C93	C	0.423223	1.020596	0.450190
C94	C	-0.196435	0.448076	-0.158904
C95	C	0.136899	0.781409	0.174429
C96	C	0.470232	1.114742	0.507763
C97	C	-0.243356	0.448069	-0.158902
C98	C	0.089978	0.781402	0.174431
C99	C	0.423311	1.114735	0.507764
C100	C	-0.266861	0.400993	-0.187687
C101	C	0.066472	0.734326	0.145646
C102	C	0.399805	1.067660	0.478979
C103	C	-0.313769	0.401008	-0.187691
C104	C	0.019565	0.734341	0.145642
C105	C	0.352898	1.067675	0.478975
N106	N	-0.337277	0.353930	-0.216471
N107	N	-0.003943	0.687263	0.116862
N108	N	0.329390	1.020596	0.450195
C109	C	-0.313867	0.306854	-0.245255
C110	C	0.019466	0.640187	0.088078
C111	C	0.352800	0.973521	0.421411
C112	C	0.113180	0.401008	-0.187717
C113	C	0.446514	0.734342	0.145616
C114	C	0.779847	1.067675	0.478950
C115	C	0.160098	0.401011	-0.187721
C116	C	0.493432	0.734344	0.145613
C117	C	0.826765	1.067677	0.478946
C118	C	0.160000	0.306854	-0.245288
C119	C	0.493333	0.640187	0.088046
C120	C	0.826667	0.973520	0.421379
C121	C	0.113081	0.306855	-0.245286
C122	C	0.446415	0.640189	0.088048
C123	C	0.779748	0.973522	0.421381
C124	C	0.089672	0.353930	-0.216497
C125	C	0.423006	0.687263	0.116836
C126	C	0.756339	1.020597	0.450170
C127	C	-0.412393	0.306864	-0.245250
C128	C	-0.079059	0.640198	0.088083
C129	C	0.254274	0.973531	0.421416
C130	C	-0.459312	0.306874	-0.245247
C131	C	-0.125979	0.640207	0.088086
C132	C	0.207354	0.973540	0.421419
C133	C	-0.459210	0.401028	-0.187679
C134	C	-0.125877	0.734361	0.145654
C135	C	0.207457	1.067694	0.478988
C136	C	-0.412295	0.401021	-0.187683
C137	C	-0.078961	0.734355	0.145650
C138	C	0.254372	1.067688	0.478983
C139	C	-0.388887	0.353934	-0.216470
C140	C	-0.055554	0.687267	0.116863
C141	C	0.277780	1.020600	0.450196
O142	O	-0.338029	0.441038	-0.163235
O143	O	-0.004696	0.774371	0.170099
O144	O	0.328638	1.107705	0.503432
O145	O	-0.338176	0.266811	-0.269727
O146	O	-0.004843	0.600144	0.063606
O147	O	0.328490	0.933478	0.396940
C148	C	-0.126203	0.306848	-0.245264
C149	C	0.207131	0.640181	0.088069
C150	C	0.540464	0.973514	0.421403
C151	C	-0.102697	0.353920	-0.216481
C152	C	0.230636	0.687254	0.116852
C153	C	0.563970	1.020587	0.450185
C154	C	-0.126107	0.400996	-0.187697
C155	C	0.207226	0.734329	0.145636
C156	C	0.540560	1.067663	0.478969
C157	C	-0.055779	0.353923	-0.216485
C158	C	0.277554	0.687256	0.116848
C159	C	0.610887	1.020589	0.450181
C160	C	-0.032369	0.306847	-0.245269
C161	C	0.300964	0.640180	0.088064
C162	C	0.634297	0.973514	0.421397
C163	C	-0.055877	0.259769	-0.274050
C164	C	0.277456	0.593102	0.059284
C165	C	0.610789	0.926436	0.392617
C166	C	-0.102793	0.259772	-0.274048
C167	C	0.230540	0.593105	0.059285
C168	C	0.563874	0.926438	0.392619
C169	C	-0.102599	0.448074	-0.158917
C170	C	0.230734	0.781407	0.174416
C171	C	0.564068	1.114741	0.507749
C172	C	-0.055683	0.448068	-0.158921
C173	C	0.277650	0.781401	0.174412
C174	C	0.610983	1.114734	0.507745
C175	C	-0.032274	0.400992	-0.187706
C176	C	0.301060	0.734325	0.145628
C177	C	0.634393	1.067659	0.478961
C178	C	-0.649332	0.545149	-0.216459
C179	C	-0.315998	0.878483	0.116874
C180	C	0.017335	1.211816	0.450207
C181	C	-0.649353	0.626948	-0.216465
C182	C	-0.316019	0.960282	0.116868
C183	C	0.017314	1.293615	0.450202
C184	C	-0.649492	0.353597	-0.333660
C185	C	-0.316158	0.686930	-0.000326
C186	C	0.017175	1.020263	0.333007
C187	C	-0.649540	0.353449	-0.383594
C188	C	-0.316207	0.686783	-0.050261
C189	C	0.017127	1.020116	0.283072
C190	C	0.233442	0.353946	-0.216500
C191	C	0.566776	0.687280	0.116834
C192	C	0.900109	1.020613	0.450167
C193	C	0.183508	0.353935	-0.216505
C194	C	0.516841	0.687268	0.116828
C195	C	0.850175	1.020602	0.450162
C196	C	-0.649439	0.161990	-0.216512
C197	C	-0.316106	0.495323	0.116821
C198	C	0.017228	0.828657	0.450154
C199	C	-0.649465	0.080191	-0.216526
C200	C	-0.316131	0.413524	0.116807
C201	C	0.017202	0.746858	0.450141
C202	C	-0.678126	0.815205	-0.187789
C203	C	-0.344793	1.148538	0.145544
C204	C	-0.011459	1.481871	0.478877
C205	C	-0.678146	0.892063	-0.187800
C206	C	-0.344813	1.225397	0.145533
C207	C	-0.011479	1.558730	0.478867
C208	C	-0.620690	0.891929	-0.245205
C209	C	-0.287357	1.225263	0.088128
C210	C	0.045977	1.558596	0.421462
C211	C	-0.620672	0.815072	-0.245196
C212	C	-0.287339	1.148405	0.088137
C213	C	0.045994	1.481739	0.421471
C214	C	-0.649390	0.776712	-0.216486
C215	C	-0.316056	1.110045	0.116848
C216	C	0.017277	1.443378	0.450181
C217	C	-0.649427	0.930428	-0.216505
C218	C	-0.316094	1.263761	0.116828
C219	C	0.017239	1.597094	0.450161
C220	C	-0.649449	1.013761	-0.216517
C221	C	-0.316116	1.347095	0.116816
C222	C	0.017218	1.680428	0.450149
C223	C	-0.649369	0.693373	-0.216474
C224	C	-0.316036	1.026706	0.116859
C225	C	0.017298	1.360039	0.450193
C226	C	-0.649293	0.354235	-0.099758
C227	C	-0.315959	0.687568	0.233575
C228	C	0.017374	1.020901	0.566909
C229	C	-0.649332	0.354175	-0.049824
C230	C	-0.315998	0.687508	0.283510
C231	C	0.017335	1.020842	0.616843
C232	C	-0.677977	0.306370	0.306634
C233	C	-0.344644	0.639703	0.639967
C234	C	-0.011310	0.973036	0.973300
C235	C	-0.677919	0.306579	0.118961
C236	C	-0.344585	0.639913	0.452294
C237	C	-0.011252	0.973246	0.785627
O238	O	-0.702166	0.266273	0.094586
O239	O	-0.368833	0.599607	0.427919
O240	O	-0.035500	0.932940	0.761253
N241	N	-0.649376	0.354008	0.095621
N242	N	-0.316042	0.687342	0.428955
N243	N	0.017291	1.020675	0.762288
C244	C	-0.620843	0.401385	0.119203
C245	C	-0.287510	0.734718	0.452536
C246	C	0.045824	1.068052	0.785870
O247	O	-0.596561	0.441726	0.095045
O248	O	-0.263227	0.775059	0.428378
O249	O	0.070106	1.108392	0.761712
C250	C	-0.620899	0.401171	0.306875
C251	C	-0.287566	0.734504	0.640208
C252	C	0.045767	1.067838	0.973542
C253	C	-0.649448	0.353744	0.330212
C254	C	-0.316114	0.687077	0.663545
C255	C	0.017219	1.020411	0.996879
C256	C	-0.706523	0.258946	0.329971
C257	C	-0.373189	0.592279	0.663304
C258	C	-0.039856	0.925613	0.996637
C259	C	-0.706539	0.258897	0.376886
C260	C	-0.373205	0.592230	0.710219
C261	C	-0.039872	0.925564	1.043553
C262	C	-0.678009	0.306271	0.400464
C263	C	-0.344676	0.639605	0.733798
C264	C	-0.011342	0.972938	1.067131
C265	C	-0.649464	0.353695	0.377127
C266	C	-0.316130	0.687028	0.710461
C267	C	0.017203	1.020362	1.043794
C268	C	-0.592365	0.448543	0.330456
C269	C	-0.259031	0.781877	0.663789
C270	C	0.074302	1.115210	0.997122
C271	C	-0.592381	0.448484	0.377377
C272	C	-0.259047	0.781818	0.710710
C273	C	0.074286	1.115151	1.044043
C274	C	-0.620929	0.401057	0.400714
C275	C	-0.287595	0.734391	0.734047
C276	C	0.045738	1.067724	1.067380
C277	C	-0.620950	0.401020	0.447621
C278	C	-0.287617	0.734354	0.780954
C279	C	0.045717	1.067687	1.114288
N280	N	-0.649493	0.353591	0.470960
N281	N	-0.316160	0.686925	0.804294
N282	N	0.017173	1.020258	1.137627
C283	C	-0.678023	0.306217	0.447382
C284	C	-0.344689	0.639550	0.780715
C285	C	-0.011356	0.972883	1.114049
C286	C	-0.620816	0.401495	0.020672
C287	C	-0.287483	0.734828	0.354006
C288	C	0.045851	1.068161	0.687339
C289	C	-0.620802	0.401549	-0.026245
C290	C	-0.287469	0.734883	0.307088
C291	C	0.045864	1.068216	0.640421
C292	C	-0.677878	0.306743	-0.026484
C293	C	-0.344544	0.640076	0.306849
C294	C	-0.011211	0.973409	0.640182
C295	C	-0.677893	0.306692	0.020434
C296	C	-0.344560	0.640026	0.353768
C297	C	-0.011227	0.973359	0.687101
C298	C	-0.649359	0.354066	0.044012
C299	C	-0.316026	0.687399	0.377345
C300	C	0.017308	1.020733	0.710679
C301	C	-0.678055	0.306118	0.545908
C302	C	-0.344721	0.639451	0.879241
C303	C	-0.011388	0.972784	1.212575
C304	C	-0.678069	0.306075	0.592827
C305	C	-0.344736	0.639408	0.926161
C306	C	-0.011403	0.972742	1.259494
C307	C	-0.620993	0.400878	0.593062
C308	C	-0.287659	0.734212	0.926396
C309	C	0.045674	1.067545	1.259729
C310	C	-0.620979	0.400924	0.546147
C311	C	-0.287646	0.734258	0.879480
C312	C	0.045687	1.067591	1.212814
C313	C	-0.649512	0.353538	0.522571
C314	C	-0.316178	0.686871	0.855904
C315	C	0.017155	1.020205	1.189237
O316	O	-0.596712	0.441299	0.472025
O317	O	-0.263378	0.774633	0.805358
O318	O	0.069955	1.107966	1.138691
O319	O	-0.702294	0.265871	0.471548
O320	O	-0.368961	0.599204	0.804881
O321	O	-0.035628	0.932537	1.138215
C322	C	-0.677961	0.306419	0.259718
C323	C	-0.344628	0.639752	0.593052
C324	C	-0.011294	0.973085	0.926385
C325	C	-0.649415	0.353842	0.236381
C326	C	-0.316082	0.687176	0.569714
C327	C	0.017251	1.020509	0.903048
C328	C	-0.620886	0.401217	0.259959
C329	C	-0.287553	0.734550	0.593293
C330	C	0.045781	1.067883	0.926626
C331	C	-0.649402	0.353897	0.189463
C332	C	-0.316068	0.687230	0.522797
C333	C	0.017265	1.020564	0.856130
C334	C	-0.677931	0.306522	0.165885
C335	C	-0.344598	0.639856	0.499218
C336	C	-0.011265	0.973189	0.832552
C337	C	-0.706474	0.259093	0.189224
C338	C	-0.373141	0.592427	0.522558
C339	C	-0.039808	0.925760	0.855891
C340	C	-0.706490	0.259044	0.236140
C341	C	-0.373157	0.592378	0.569473
C342	C	-0.039824	0.925711	0.902807
C343	C	-0.592343	0.448646	0.236620
C344	C	-0.259010	0.781979	0.569953
C345	C	0.074324	1.115312	0.903287
C346	C	-0.592329	0.448692	0.189705
C347	C	-0.258996	0.782025	0.523038
C348	C	0.074337	1.115358	0.856371
C349	C	-0.620859	0.401317	0.166126
C350	C	-0.287526	0.734650	0.499460
C351	C	0.045808	1.067984	0.832793
H352	H	-0.177568	0.221439	-0.297485
H353	H	0.155765	0.554772	0.035849
H354	H	0.489098	0.888106	0.369182
H355	H	-0.569083	0.487319	0.170708
H356	H	-0.235750	0.820653	0.504041
H357	H	0.097584	1.153986	0.837374
H358	H	-0.597309	0.923172	-0.268579
H359	H	-0.263975	1.256505	0.064754
H360	H	0.069358	1.589838	0.398087
H361	H	-0.478449	0.268538	-0.268689
H362	H	-0.145115	0.601871	0.064644
H363	H	0.188218	0.935205	0.397977
H364	H	-0.597580	0.440077	0.039865
H365	H	-0.264247	0.773410	0.373198
H366	H	0.069086	1.106744	0.706532
H367	H	-0.597737	0.439550	0.527145
H368	H	-0.264404	0.772883	0.860478
H369	H	0.068929	1.106217	1.193812
H370	H	-0.597272	0.783729	-0.268566
H371	H	-0.263939	1.117062	0.064767
H372	H	0.069395	1.450396	0.398101
Cl373	Cl	-0.714229	0.766983	-0.151697
Cl374	Cl	-0.380895	1.100316	0.181636
Cl375	Cl	-0.047562	1.433649	0.514969
H376	H	-0.393340	0.268519	-0.268690
H377	H	-0.060007	0.601852	0.064643
H378	H	0.273327	0.935186	0.397977
H379	H	-0.729706	0.220522	0.170019
H380	H	-0.396372	0.553855	0.503352
H381	H	-0.063039	0.887188	0.836685
H382	H	-0.393155	0.439363	-0.164249
H383	H	-0.059822	0.772696	0.169084
H384	H	0.273511	1.106030	0.502417
Cl385	Cl	-0.742381	0.199417	0.265471
Cl386	Cl	-0.409048	0.532751	0.598804
Cl387	Cl	-0.075714	0.866084	0.932137
Cl388	Cl	-0.272781	0.507254	-0.122709
Cl389	Cl	0.060552	0.840587	0.210624
Cl390	Cl	0.393886	1.173921	0.543957
H391	H	0.094125	0.439345	-0.164272
H392	H	0.427458	0.772678	0.169061
H393	H	0.760792	1.106011	0.502394
H394	H	-0.597766	0.439452	0.612268
H395	H	-0.264433	0.772785	0.945602
H396	H	0.068901	1.106118	1.278935
Cl397	Cl	-0.714274	0.940451	-0.151724
Cl398	Cl	-0.380941	1.273784	0.181609
Cl399	Cl	-0.047608	1.607118	0.514943
Cl400	Cl	-0.166896	0.507246	-0.122705
Cl401	Cl	0.166437	0.840579	0.210628
Cl402	Cl	0.499770	1.173913	0.543961
Cl403	Cl	-0.273082	0.200593	-0.310231
Cl404	Cl	0.060251	0.533926	0.023103
Cl405	Cl	0.393585	0.867260	0.356436
H406	H	-0.121927	0.221437	-0.297488
H407	H	0.211406	0.554771	0.035846
H408	H	0.544740	0.888104	0.369179
H409	H	-0.478279	0.439357	-0.164245
H410	H	-0.144945	0.772690	0.169089
H411	H	0.188388	1.106024	0.502422
Cl412	Cl	-0.742427	0.199266	0.406217
Cl413	Cl	-0.409093	0.532599	0.739550
Cl414	Cl	-0.075760	0.865932	1.072884
H415	H	-0.701318	0.267454	0.611826
H416	H	-0.367985	0.600787	0.945160
H417	H	-0.034652	0.934120	1.278493
Cl418	Cl	-0.556473	0.508208	0.266254
Cl419	Cl	-0.223140	0.841542	0.599587
Cl420	Cl	0.110193	1.174875	0.932921
H421	H	0.179068	0.268523	-0.268725
H422	H	0.512402	0.601856	0.064608
H423	H	0.845735	0.935190	0.397942
Cl424	Cl	0.083536	0.247670	-0.281473
Cl425	Cl	0.416870	0.581004	0.051860
Cl426	Cl	0.750203	0.914337	0.385194
H427	H	-0.701287	0.267529	0.526718
H428	H	-0.367954	0.600862	0.860051
H429	H	-0.034620	0.934195	1.193384
Cl430	Cl	-0.026439	0.200591	-0.310236
Cl431	Cl	0.306894	0.533924	0.023097
Cl432	Cl	0.640228	0.867257	0.356430
H433	H	-0.729755	0.220364	0.310778
H434	H	-0.396421	0.553697	0.644111
H435	H	-0.063088	0.887031	0.977445
H436	H	-0.569118	0.487163	0.311463
H437	H	-0.235784	0.820497	0.644796
H438	H	0.097549	1.153830	0.978129
H439	H	-0.701139	0.268072	0.039432
H440	H	-0.367806	0.601405	0.372766
H441	H	-0.034472	0.934739	0.706099
H442	H	0.179233	0.439353	-0.164286
H443	H	0.512566	0.772686	0.169047
H444	H	0.845899	1.106020	0.502381
Cl445	Cl	-0.713742	0.247185	-0.056134
Cl446	Cl	-0.380409	0.580519	0.277199
Cl447	Cl	-0.047076	0.913852	0.610532
H448	H	-0.036549	0.486410	-0.135482
H449	H	0.296784	0.819743	0.197852
H450	H	0.630118	1.153076	0.531185
Cl451	Cl	-0.584919	0.461186	-0.055578
Cl452	Cl	-0.251585	0.794519	0.277756
Cl453	Cl	0.081748	1.127852	0.611089
Cl454	Cl	-0.556506	0.508043	0.407014
Cl455	Cl	-0.223173	0.841376	0.740347
Cl456	Cl	0.110161	1.174709	1.073681
Cl457	Cl	-0.132021	0.507254	-0.122723
Cl458	Cl	0.201312	0.840587	0.210610
Cl459	Cl	0.534646	1.173921	0.543943
