data_functionalizedCrystal
_audit_creation_method	'MofGen! by Chris Wilmer'
_symmetry_space_group_name_H-M	'P1'
_symmetry_Int_Tables_number	1
_symmetry_cell_setting	triclinic
loop_
_symmetry_equiv_pos_as_xyz
  x,y,z
_cell_length_a	12.759401
_cell_length_b	18.050589
_cell_length_c	12.759393
_cell_angle_alpha	90.040320
_cell_angle_beta	89.981433
_cell_angle_gamma	89.976052
loop_
_atom_site_label
_atom_site_type_symbol
_atom_site_fract_x
_atom_site_fract_y
_atom_site_fract_z
Zn1	Zn	1.606181	0.295635	-0.593919
Zn2	Zn	1.606044	0.419845	-0.418213
Zn3	Zn	1.430483	0.295671	-0.418259
Zn4	Zn	1.430440	0.419785	-0.593854
O5	O	1.518287	0.357734	-0.506061
O6	O	1.753184	0.312121	-0.570620
O7	O	1.582716	0.403413	-0.271198
O8	O	1.453865	0.191742	-0.441607
O9	O	1.753083	0.403378	-0.441529
O10	O	1.582949	0.191715	-0.570664
O11	O	1.453732	0.312183	-0.271231
O12	O	1.283456	0.312125	-0.441543
O13	O	1.453792	0.403276	-0.740884
O14	O	1.283425	0.403312	-0.570553
O15	O	1.582908	0.312063	-0.740932
O16	O	1.582675	0.523762	-0.441465
O17	O	1.453659	0.523718	-0.570508
C18	C	1.245320	0.357717	-0.506047
C19	C	1.128543	0.357727	-0.506065
C20	C	1.073726	0.310299	-0.573387
C21	C	0.964002	0.310313	-0.573394
C22	C	0.963921	0.405189	-0.438754
C23	C	1.073643	0.405171	-0.438743
C24	C	1.128626	0.262855	-0.640710
C25	C	1.073809	0.215424	-0.708038
C26	C	0.964085	0.215438	-0.708044
C27	C	0.909178	0.262884	-0.640723
C28	C	1.518176	0.550686	-0.505997
C29	C	1.518225	0.633232	-0.506005
C30	C	1.588539	0.882054	-0.435922
C31	C	1.492685	0.832724	-0.410128
C32	C	1.518324	0.930352	-0.506056
C33	C	1.614123	0.832600	-0.531776
C34	C	1.518280	0.784367	-0.506028
C35	C	1.422421	0.882110	-0.480212
C36	C	1.543923	0.881990	-0.601904
C37	C	1.448003	0.832682	-0.576146
C38	C	1.518351	1.014451	-0.506069
C39	C	1.518243	0.700271	-0.506015
C40	C	1.792320	0.357752	-0.506076
C41	C	1.909097	0.357760	-0.506083
C42	C	1.518400	1.164028	-0.506122
C43	C	1.518379	1.081483	-0.506082
C44	C	1.518361	0.357659	-0.780095
C45	C	1.518392	0.357627	-0.896871
C46	C	1.585632	0.310128	-0.951760
C47	C	1.585657	0.310101	-1.061484
C48	C	1.451199	0.405079	-1.061421
C49	C	1.451170	0.405101	-0.951699
C50	C	1.652854	0.262654	-0.896932
C51	C	1.720100	0.215151	-0.951821
C52	C	1.720125	0.215124	-1.061545
C53	C	1.652904	0.262600	-1.116381
C54	C	1.518274	0.357755	-0.233094
C55	C	1.518446	0.357578	-0.116318
H56	H	0.919207	0.443818	-0.383946
H57	H	1.652844	0.262672	-0.807590
Cl58	Cl	1.142561	0.464803	-0.354118
Cl59	Cl	0.771238	0.262893	-0.640724
Cl60	Cl	0.895176	0.155807	-0.792676
Cl61	Cl	1.680129	0.915527	-0.344307
Cl62	Cl	1.804586	0.155460	-0.882888
Cl63	Cl	1.459220	0.799304	-0.284968
Cl64	Cl	1.577436	0.915435	-0.727031
Cl65	Cl	1.356198	0.799423	-0.667700
Cl66	Cl	1.297274	0.915538	-0.446458
H67	H	1.695157	0.810854	-0.553540
Cl68	Cl	1.804664	0.155411	-1.130546
Cl69	Cl	1.652924	0.262554	-1.254321
H70	H	1.396470	0.443731	-1.106077
H71	H	1.217969	0.262838	-0.640712
Cl72	Cl	1.142834	0.155776	-0.792657
Cl73	Cl	1.366636	0.464815	-0.882691
