data_functionalizedCrystal
_audit_creation_method	'MofGen! by Chris Wilmer'
_symmetry_space_group_name_H-M	'P1'
_symmetry_Int_Tables_number	1
_symmetry_cell_setting	triclinic
loop_
_symmetry_equiv_pos_as_xyz
  x,y,z
_cell_length_a	12.759401
_cell_length_b	12.759399
_cell_length_c	11.169409
_cell_angle_alpha	90.034210
_cell_angle_beta	90.021365
_cell_angle_gamma	90.016641
loop_
_atom_site_label
_atom_site_type_symbol
_atom_site_fract_x
_atom_site_fract_y
_atom_site_fract_z
Zn1	Zn	1.606268	-0.418138	0.678576
Zn2	Zn	1.606156	-0.593864	0.477887
Zn3	Zn	1.430565	-0.418204	0.477905
Zn4	Zn	1.430557	-0.593781	0.678526
O5	O	1.518387	-0.505997	0.578224
O6	O	1.753274	-0.441456	0.651968
O7	O	1.582820	-0.570625	0.309939
O8	O	1.453923	-0.271175	0.504554
O9	O	1.753192	-0.570561	0.504522
O10	O	1.583010	-0.271126	0.651986
O11	O	1.453814	-0.441569	0.309953
O12	O	1.283543	-0.441488	0.504505
O13	O	1.453909	-0.570419	0.846483
O14	O	1.283537	-0.570483	0.651900
O15	O	1.583003	-0.441375	0.846520
O16	O	1.582813	-0.740874	0.504473
O17	O	1.453801	-0.740813	0.651882
C18	C	1.245419	-0.505984	0.578200
C19	C	1.128643	-0.506004	0.578218
C20	C	1.073805	-0.573274	0.654846
C21	C	0.964081	-0.573278	0.654870
C22	C	0.964042	-0.438739	0.501628
C23	C	1.073764	-0.438731	0.501611
C24	C	0.814186	-0.610969	0.796362
C25	C	0.759344	-0.678256	0.872979
C26	C	0.794941	-0.780785	0.891196
C27	C	0.885378	-0.816050	0.832779
C28	C	0.940214	-0.748769	0.756153
C29	C	0.904618	-0.646225	0.737958
C30	C	1.223661	-0.401050	0.360117
C31	C	1.278499	-0.333774	0.283484
C32	C	1.242904	-0.231242	0.265254
C33	C	1.152464	-0.195981	0.323651
C34	C	1.097626	-0.263258	0.400284
C35	C	1.133229	-0.365788	0.418516
C36	C	1.518322	-0.778964	0.578196
C37	C	1.518391	-0.895741	0.578225
C38	C	1.585644	-0.950600	0.501556
C39	C	1.585711	-1.060324	0.501597
C40	C	1.451263	-1.060320	0.654977
C41	C	1.451202	-0.950598	0.654942
C42	C	1.709720	-1.210202	0.458887
C43	C	1.776964	-1.265064	0.382200
C44	C	1.793126	-1.229530	0.265097
C45	C	1.742028	-1.139134	0.224658
C46	C	1.674777	-1.084277	0.301339
C47	C	1.658634	-1.119810	0.418458
C48	C	1.327192	-0.800719	0.697640
C49	C	1.259935	-0.745860	0.774315
C50	C	1.243762	-0.781392	0.891420
C51	C	1.294841	-0.871791	0.931855
C52	C	1.362099	-0.926650	0.855179
C53	C	1.378273	-0.891110	0.738076
C54	C	1.792420	-0.506011	0.578248
C55	C	1.909196	-0.506016	0.578259
C56	C	1.518467	-0.505880	0.891266
C57	C	1.518502	-0.505831	1.024666
C58	C	1.518480	-0.231964	0.578277
C59	C	1.518520	-0.115187	0.578300
C60	C	1.518367	-0.506037	0.266399
C61	C	1.518536	-0.505791	0.133000
H62	H	1.287558	-0.176470	0.202843
H63	H	1.218350	-0.672247	0.741386
H64	H	1.640355	-0.905938	0.439090
H65	H	1.281673	-0.900723	1.027212
H66	H	1.633176	-1.010677	0.268415
H67	H	1.403694	-1.000255	0.888113
H68	H	1.755185	-1.110215	0.129296
C69	C	1.908478	-1.376673	0.241023
C70	C	1.867045	-1.289831	0.180803
H71	H	1.954119	-1.413896	0.188989
H72	H	1.853004	-1.421406	0.265589
H73	H	1.946425	-1.353608	0.309324
H74	H	1.829091	-1.312896	0.112507
H75	H	1.922528	-1.245090	0.156219
C76	C	1.364128	-0.511122	0.428222
C77	C	1.262790	-0.513760	0.380158
H78	H	1.388284	-0.580705	0.440583
H79	H	1.363111	-0.474782	0.502454
H80	H	1.409719	-0.476103	0.374212
H81	H	1.217197	-0.548772	0.434172
H82	H	1.263800	-0.550115	0.305916
C83	C	1.363329	-0.366129	0.095220
C84	C	1.377905	-0.372514	0.219260
H85	H	1.424695	-0.390045	0.055567
H86	H	1.349961	-0.295442	0.073422
H87	H	1.305453	-0.408587	0.072547
H88	H	1.435776	-0.330049	0.241934
H89	H	1.391286	-0.443213	0.241066
H90	H	0.919346	-0.383969	0.439255
C91	C	1.787661	-1.250690	0.648998
C92	C	1.691966	-1.249263	0.587615
H93	H	1.776698	-1.274816	0.728467
H94	H	1.816167	-1.181937	0.651066
H95	H	1.835011	-1.296300	0.609098
H96	H	1.644618	-1.203647	0.627511
H97	H	1.663445	-1.318026	0.585554
C98	C	1.391650	-1.228516	0.723125
C99	C	1.377401	-1.120624	0.739290
H100	H	1.346041	-1.265740	0.775171
H101	H	1.462232	-1.246421	0.740772
H102	H	1.376320	-1.246558	0.642471
H103	H	1.392739	-1.102580	0.819942
H104	H	1.306802	-1.102711	0.721651
H105	H	1.340363	-0.771773	0.602286
C106	C	1.059269	-0.891736	0.724083
C107	C	1.039608	-0.787524	0.691928
H108	H	1.120635	-0.915660	0.684437
H109	H	1.001389	-0.934159	0.701383
H110	H	1.069135	-0.896059	0.808238
H111	H	1.029735	-0.783202	0.607773
H112	H	1.097502	-0.745090	0.714621
H113	H	1.818568	-1.338664	0.415136
H114	H	1.118484	-0.628050	0.717228
H115	H	1.023990	-0.234537	0.447842
H116	H	1.188991	-0.736717	0.953847
H117	H	0.914347	-0.899545	0.847608
C118	C	0.619332	-0.720203	1.008302
C119	C	0.659949	-0.639491	0.937208
H120	H	0.557968	-0.696275	1.047948
H121	H	0.670108	-0.740486	1.066011
H122	H	0.602360	-0.778581	0.959155
H123	H	0.676929	-0.581115	0.986357
H124	H	0.609163	-0.619194	0.879493
H125	H	0.750282	-0.835570	0.953582
H126	H	0.785201	-0.527478	0.781549
C127	C	1.180565	-0.031668	0.224033
C128	C	1.113331	-0.083274	0.303621
H129	H	1.156409	0.037915	0.211671
H130	H	1.181575	-0.068011	0.149804
H131	H	1.249307	-0.029895	0.256663
H132	H	1.044590	-0.085053	0.270988
H133	H	1.112311	-0.046921	0.377865
