data_functionalizedCrystal
_audit_creation_method	'MofGen! by Chris Wilmer'
_symmetry_space_group_name_H-M	'P1'
_symmetry_Int_Tables_number	1
_symmetry_cell_setting	triclinic
loop_
_symmetry_equiv_pos_as_xyz
  x,y,z
_cell_length_a	21.295419
_cell_length_b	21.295417
_cell_length_c	18.215399
_cell_angle_alpha	89.968895
_cell_angle_beta	89.980317
_cell_angle_gamma	90.044503
loop_
_atom_site_label
_atom_site_type_symbol
_atom_site_fract_x
_atom_site_fract_y
_atom_site_fract_z
Zn1	Zn	0.962329	-0.250367	-0.416097
Zn2	Zn	0.962242	-0.355638	-0.293024
Zn3	Zn	0.857061	-0.250414	-0.293045
Zn4	Zn	0.857023	-0.355630	-0.416049
O5	O	0.909664	-0.303012	-0.354554
O6	O	1.050407	-0.264315	-0.399782
O7	O	0.948269	-0.341703	-0.190042
O8	O	0.871077	-0.162318	-0.309396
O9	O	1.050343	-0.341658	-0.309361
O10	O	0.948417	-0.162284	-0.399802
O11	O	0.870993	-0.264396	-0.190058
O12	O	0.768967	-0.264387	-0.309350
O13	O	0.871013	-0.341643	-0.519040
O14	O	0.768939	-0.341689	-0.399721
O15	O	0.948380	-0.264307	-0.519075
O16	O	0.948232	-0.443726	-0.309315
O17	O	0.870928	-0.443720	-0.399701
C18	C	0.746112	-0.303042	-0.354533
C19	C	0.676144	-0.303071	-0.354542
C20	C	0.909583	-0.466564	-0.354516
C21	C	0.909607	-0.536532	-0.354525
C22	C	0.949855	-0.569323	-0.401633
C23	C	0.949877	-0.635066	-0.401651
C24	C	0.909658	-0.668014	-0.354548
C25	C	0.869402	-0.635215	-0.307437
C26	C	0.869377	-0.569474	-0.307425
N27	N	0.904903	-0.771278	-0.290142
N28	N	0.904931	-0.833730	-0.290155
C29	C	0.909731	-0.866089	-0.354581
N30	N	0.914515	-0.833638	-0.418996
N31	N	0.914490	-0.771181	-0.418982
C32	C	0.909681	-0.739300	-0.354556
C33	C	0.950005	-0.970166	-0.401713
C34	C	0.950023	-1.035910	-0.401733
C35	C	0.869552	-1.036058	-0.307512
C36	C	0.869531	-0.970315	-0.307499
C37	C	0.909761	-0.937373	-0.354599
C38	C	0.643333	-0.262864	-0.401697
C39	C	0.577591	-0.262847	-0.401700
C40	C	0.544661	-0.303048	-0.354555
C41	C	0.577480	-0.343257	-0.307391
C42	C	0.643221	-0.343268	-0.307384
N43	N	0.441387	-0.358126	-0.348805
N44	N	0.378936	-0.358114	-0.348815
C45	C	0.346587	-0.303015	-0.354571
N46	N	0.379048	-0.247929	-0.360331
N47	N	0.441506	-0.247942	-0.360324
C48	C	0.473376	-0.303040	-0.354557
C49	C	0.242490	-0.262787	-0.401732
C50	C	0.176747	-0.262769	-0.401730
C51	C	0.176638	-0.343185	-0.307425
C52	C	0.242380	-0.343197	-0.307423
C53	C	0.275302	-0.302999	-0.354581
C54	C	1.073854	-0.302982	-0.354575
C55	C	1.143822	-0.302970	-0.354584
C56	C	0.909702	-0.302969	-0.546507
C57	C	0.909718	-0.302950	-0.628306
C58	C	0.909761	-0.138822	-0.354607
C59	C	0.909803	-0.068854	-0.354630
C60	C	0.950018	-0.262644	-0.816519
C61	C	0.950026	-0.262626	-0.893378
C62	C	0.869463	-0.343159	-0.893330
C63	C	0.869453	-0.343174	-0.816473
C64	C	0.909734	-0.302917	-0.778069
C65	C	0.909752	-0.302884	-0.931785
C66	C	0.909760	-0.302865	-1.015119
C67	C	0.909725	-0.302936	-0.694730
C68	C	0.909662	-0.303010	-0.163347
C69	C	0.909767	-0.302851	-0.081549
H70	H	0.982611	-0.542504	-0.439986
H71	H	0.836601	-0.542774	-0.269064
H72	H	0.836669	-0.375936	-0.924607
N73	N	0.828308	-0.384314	-0.777180
N74	N	0.828304	-0.384318	-0.708559
H75	H	0.799245	-0.413369	-0.680807
N76	N	0.990994	-0.668561	-0.449778
N77	N	1.026908	-0.639142	-0.491828
H78	H	1.055949	-0.662795	-0.525817
N79	N	0.676750	-0.384344	-0.259227
N80	N	0.735447	-0.384351	-0.259232
H81	H	0.759129	-0.413362	-0.225223
N82	N	0.276115	-0.221721	-0.449899
N83	N	0.246808	-0.185817	-0.491993
H84	H	0.270553	-0.156812	-0.526012
N85	N	0.143239	-0.221683	-0.449893
N86	N	0.172645	-0.185794	-0.491986
H87	H	0.148980	-0.156773	-0.526000
H88	H	0.982816	-0.229862	-0.785253
N89	N	0.828319	-0.668877	-0.259331
N90	N	0.828347	-0.727574	-0.259347
H91	H	0.799329	-0.751349	-0.225374
N92	N	0.143021	-0.384249	-0.259255
N93	N	0.150348	-0.379999	-0.191357
H94	H	0.126605	-0.409000	-0.157332
H95	H	0.269095	-0.375940	-0.269027
H96	H	0.982761	-0.943344	-0.440067
N97	N	0.991176	-0.221480	-0.932642
N98	N	1.027133	-0.185539	-0.898341
H99	H	1.056197	-0.156476	-0.926070
N100	N	0.828415	-0.936825	-0.259373
N101	N	0.792505	-0.966248	-0.217321
H102	H	0.763463	-0.942597	-0.183331
N103	N	0.828475	-1.069714	-0.259397
N104	N	0.850658	-1.106402	-0.212532
H105	H	0.821645	-1.130176	-0.178552
H106	H	0.550665	-0.375988	-0.269005
H107	H	0.982798	-1.062608	-0.440097
H108	H	0.550871	-0.230103	-0.440098
N109	N	0.676952	-0.221803	-0.449872
N110	N	0.647643	-0.185907	-0.491974
H111	H	0.671387	-0.156907	-0.526000
