data_functionalizedCrystal
_audit_creation_method	'MofGen! by Chris Wilmer'
_symmetry_space_group_name_H-M	'P1'
_symmetry_Int_Tables_number	1
_symmetry_cell_setting	triclinic
loop_
_symmetry_equiv_pos_as_xyz
  x,y,z
_cell_length_a	11.792241
_cell_length_b	10.540539
_cell_length_c	10.268362
_cell_angle_alpha	90.003141
_cell_angle_beta	90.000374
_cell_angle_gamma	84.359454
loop_
_atom_site_label
_atom_site_type_symbol
_atom_site_fract_x
_atom_site_fract_y
_atom_site_fract_z
O1	O	-1.507362	-0.173992	-0.108167
O2	O	-1.177067	-0.191924	-0.108197
O3	O	-1.349750	0.001773	-0.108180
O4	O	-1.334679	-0.367689	-0.108184
O5	O	-1.349735	0.001781	0.108421
O6	O	-1.177052	-0.191916	0.108404
O7	O	-1.507347	-0.173984	0.108433
Cu8	Cu	-1.342198	-0.182949	0.128196
Cu9	Cu	-1.342216	-0.182959	-0.127959
O10	O	-1.334664	-0.367681	0.108416
C11	C	-1.134766	-0.190793	0.000100
C12	C	-1.008743	-0.187422	0.000088
C13	C	-1.348612	0.049076	0.000118
C14	C	-1.345231	0.190014	0.000111
C15	C	-1.549648	-0.175114	0.000134
C16	C	-1.675671	-0.178486	0.000137
C17	C	-1.335802	-0.414984	0.000116
C18	C	-1.339183	-0.555921	0.000114
C19	C	-0.778015	-0.181223	0.000126
C20	C	-0.906409	-0.184667	0.000105
C21	C	-1.215660	0.373018	-0.000387
C22	C	-1.219087	0.226411	0.000101
C23	C	-1.405928	0.251874	0.123806
C24	C	-1.401623	0.398404	0.123910
C25	C	-1.404206	0.398921	-0.122405
C26	C	-1.405368	0.251943	-0.124041
N27	N	-1.342194	-0.182942	0.308362
N28	N	-1.342229	-0.182956	-0.308125
C29	C	-1.342210	-0.182956	0.574032
C30	C	-1.342197	-0.182952	0.426195
H31	H	-1.171327	0.183649	-0.088569
H32	H	-1.495319	0.446444	-0.123229
C33	C	-1.148609	0.413593	0.118766
H34	H	-1.195567	0.473648	0.168819
H35	H	-1.082972	0.451254	0.090323
H36	H	-1.125940	0.340902	0.170683
H37	H	-1.356752	0.426461	0.216366
C38	C	-1.154104	0.169780	0.120071
H39	H	-1.155968	0.079880	0.120772
H40	H	-1.189003	0.205140	0.197017
H41	H	-1.077234	0.189367	0.116425
H42	H	-1.360956	0.210937	-0.215547
C43	C	-1.524168	0.463617	0.131536
H44	H	-1.522369	0.553529	0.131647
H45	H	-1.559329	0.438213	0.209256
H46	H	-1.566402	0.439352	0.058396
C47	C	-1.148339	0.411441	-0.120204
H48	H	-1.194955	0.471170	-0.170997
H49	H	-1.126115	0.337952	-0.171144
H50	H	-1.082418	0.448940	-0.092386
C51	C	-1.531067	0.222079	0.130045
H52	H	-1.547445	0.171522	0.057096
H53	H	-1.579653	0.299496	0.128904
H54	H	-1.543299	0.176810	0.207981
H55	H	-1.363752	0.209140	0.215848
H56	H	-1.363386	0.430338	-0.216158
C57	C	-1.529612	0.219638	-0.134122
H58	H	-1.546513	0.167735	-0.062422
H59	H	-1.539594	0.175080	-0.213066
H60	H	-1.579387	0.296182	-0.133067
