data_functionalizedCrystal
_audit_creation_method	'MofGen! by Chris Wilmer'
_symmetry_space_group_name_H-M	'P1'
_symmetry_Int_Tables_number	1
_symmetry_cell_setting	triclinic
loop_
_symmetry_equiv_pos_as_xyz
  x,y,z
_cell_length_a	17.077404
_cell_length_b	12.759400
_cell_length_c	17.077395
_cell_angle_alpha	89.975675
_cell_angle_beta	89.984359
_cell_angle_gamma	90.014910
loop_
_atom_site_label
_atom_site_type_symbol
_atom_site_fract_x
_atom_site_fract_y
_atom_site_fract_z
Zn1	Zn	1.200069	-0.418273	-0.443859
Zn2	Zn	1.200004	-0.593970	-0.312599
Zn3	Zn	1.068810	-0.418306	-0.312606
Zn4	Zn	1.068788	-0.593911	-0.443823
O5	O	1.134418	-0.506115	-0.378222
O6	O	1.309908	-0.441590	-0.426459
O7	O	1.182583	-0.570706	-0.202753
O8	O	1.086259	-0.271281	-0.330035
O9	O	1.309860	-0.570674	-0.330023
O10	O	1.182694	-0.271256	-0.426466
O11	O	1.086195	-0.441647	-0.202759
O12	O	0.958960	-0.441590	-0.330001
O13	O	1.086221	-0.570574	-0.553674
O14	O	0.958944	-0.570606	-0.426405
O15	O	1.182673	-0.441534	-0.553701
O16	O	1.182562	-0.740983	-0.329988
O17	O	1.086158	-0.740940	-0.426398
C18	C	0.930470	-0.506096	-0.378200
C19	C	0.843220	-0.506113	-0.378209
C20	C	0.802242	-0.573393	-0.428326
C21	C	0.720262	-0.573396	-0.428339
C22	C	0.679261	-0.506122	-0.378230
C23	C	0.720245	-0.438835	-0.328111
C24	C	0.802224	-0.438828	-0.328103
C25	C	0.549375	-0.438855	-0.328130
C26	C	0.467390	-0.438863	-0.328136
C27	C	0.467413	-0.573423	-0.428366
C28	C	0.549392	-0.573416	-0.428358
C29	C	0.590370	-0.506130	-0.378237
C30	C	1.134371	-0.779082	-0.378205
C31	C	1.134423	-0.895859	-0.378225
C32	C	1.184676	-0.950709	-0.328080
C33	C	1.184725	-1.060433	-0.328104
C34	C	1.084260	-1.060448	-0.428420
C35	C	1.084216	-0.950726	-0.428399
C36	C	1.234884	-0.895842	-0.277905
C37	C	1.285140	-0.950691	-0.227755
C38	C	1.285189	-1.060415	-0.227780
C39	C	1.234980	-1.115290	-0.277954
C40	C	1.339162	-0.506135	-0.378244
C41	C	1.426412	-0.506143	-0.378253
C42	C	1.134452	-0.506044	-0.582966
C43	C	1.134466	-0.506013	-0.670216
C44	C	1.134486	-0.232082	-0.378255
C45	C	1.134515	-0.115305	-0.378270
C46	C	1.184776	-0.438679	-1.046045
C47	C	1.184760	-0.438716	-0.964065
C48	C	1.134531	-0.505914	-0.923065
C49	C	1.084320	-0.573087	-0.964050
C50	C	1.084341	-0.573055	-1.046029
C51	C	1.084280	-0.573148	-0.793180
C52	C	1.084258	-0.573179	-0.711195
C53	C	1.184698	-0.438809	-0.711216
C54	C	1.184719	-0.438777	-0.793195
C55	C	1.134507	-0.505949	-0.834174
C56	C	1.134430	-0.506110	-0.174274
C57	C	1.134567	-0.505845	-0.087025
H58	H	0.686901	-0.628183	-0.469149
Br59	Br	1.353401	-1.134852	-0.159731
Br60	Br	1.353287	-0.876223	-0.159676
H61	H	1.234848	-0.806499	-0.277878
H62	H	1.225646	-0.384026	-0.930703
Br63	Br	1.016093	-0.664381	-0.655552
Br64	Br	1.016136	-0.664312	-0.848794
Br65	Br	0.857878	-0.664706	-0.496330
H66	H	0.582773	-0.628202	-0.469157
H67	H	1.043426	-0.627805	-0.930661
Br68	Br	1.016202	-0.664217	-1.101644
Br69	Br	0.411801	-0.664727	-0.496397
H70	H	0.434009	-0.384071	-0.287342
Br71	Br	0.604988	-0.347535	-0.260110
H72	H	1.235030	-1.204634	-0.277975
Br73	Br	0.664602	-0.347524	-0.260112
Br74	Br	1.252900	-0.347596	-0.848838
H75	H	1.043382	-1.105135	-0.469268
H76	H	0.835587	-0.384036	-0.287296
Br77	Br	1.016018	-0.876280	-0.496458
Br78	Br	1.252936	-0.347462	-1.101680
H79	H	1.225581	-0.384113	-0.677847
