data_functionalizedCrystal
_audit_creation_method	'MofGen! by Chris Wilmer'
_symmetry_space_group_name_H-M	'P1'
_symmetry_Int_Tables_number	1
_symmetry_cell_setting	triclinic
loop_
_symmetry_equiv_pos_as_xyz
  x,y,z
_cell_length_a	16.109301
_cell_length_b	14.044220
_cell_length_c	15.186229
_cell_angle_alpha	89.995248
_cell_angle_beta	89.999362
_cell_angle_gamma	88.325179
loop_
_atom_site_label
_atom_site_type_symbol
_atom_site_fract_x
_atom_site_fract_y
_atom_site_fract_z
O1	O	1.112195	0.121835	-0.073175
O2	O	0.871261	0.136997	-0.073189
O3	O	0.988112	-0.008568	-0.073174
O4	O	0.995345	0.267399	-0.073191
O5	O	0.988103	-0.008570	0.073284
O6	O	0.871253	0.136995	0.073268
O7	O	1.112187	0.121832	0.073282
Zn8	Zn	0.991718	0.129413	0.096528
Zn9	Zn	0.991730	0.129416	-0.096435
O10	O	0.995336	0.267397	0.073267
C11	C	0.840236	0.136381	0.000038
C12	C	0.747804	0.134540	0.000033
C13	C	0.531640	0.216634	0.000038
C14	C	0.444790	0.214896	0.000043
C15	C	0.451815	0.042189	0.000050
C16	C	0.538663	0.043927	0.000051
C17	C	0.578573	0.131153	0.000040
C18	C	0.404875	0.127677	0.000045
C19	C	0.310709	0.125792	0.000052
C20	C	0.672745	0.133038	0.000036
C21	C	0.984941	-0.043882	0.000055
C22	C	0.975498	-0.149105	0.000056
C23	C	0.958232	-0.341761	0.000042
C24	C	1.025212	-0.399415	0.000043
C25	C	1.015605	-0.506616	0.000036
C26	C	0.967838	-0.234551	0.000050
C27	C	1.143211	0.122448	0.000053
C28	C	1.235644	0.124289	0.000053
C29	C	0.998506	0.302711	0.000036
C30	C	1.007950	0.407934	0.000030
N31	N	0.991716	0.129411	0.228221
N32	N	0.991737	0.129411	-0.228128
C33	C	1.043479	0.064976	0.453951
C34	C	1.043481	0.064974	0.546141
C35	C	0.939969	0.193848	0.546136
C36	C	0.939963	0.193845	0.453948
C37	C	0.991723	0.129410	0.407858
C38	C	0.991731	0.129411	0.592235
C39	C	0.991734	0.129409	0.692192
C40	C	0.991719	0.129411	0.307895
H41	H	0.419309	-0.028827	0.000065
H42	H	1.089769	-0.368264	-0.000012
H43	H	0.897829	0.246311	0.583672
O44	O	0.881280	-0.379073	0.000080
C45	C	0.888700	-0.479353	0.000054
H46	H	0.951891	-0.502471	0.027777
H47	H	0.837541	-0.509802	0.042577
H48	H	0.882669	-0.506876	-0.070209
H49	H	0.576877	-0.025686	0.000055
O50	O	1.093774	0.002290	0.409315
C51	C	1.139470	-0.054566	0.469771
H52	H	1.105307	-0.055643	0.535489
H53	H	1.146537	-0.130261	0.443144
H54	H	1.203514	-0.023771	0.479568
O55	O	1.093638	0.002291	0.590954
C56	C	1.044784	-0.056188	0.644303
H57	H	0.979098	-0.057812	0.616527
H58	H	1.073121	-0.131516	0.645352
H59	H	1.042629	-0.026526	0.714169
O60	O	0.889777	0.256573	0.409208
C61	C	0.910236	0.350410	0.431737
H62	H	0.976835	0.350897	0.457074
H63	H	0.904197	0.397974	0.371104
H64	H	0.866222	0.378239	0.485248
O65	O	0.570277	0.301443	0.000074
C66	C	0.510224	0.376517	0.000052
H67	H	0.449346	0.349958	0.027780
H68	H	0.532859	0.437411	0.042572
H69	H	0.499908	0.402890	-0.070211
H70	H	0.406580	0.284504	0.000043
