data_functionalizedCrystal
_audit_creation_method	'MofGen! by Chris Wilmer'
_symmetry_space_group_name_H-M	'P1'
_symmetry_Int_Tables_number	1
_symmetry_cell_setting	triclinic
loop_
_symmetry_equiv_pos_as_xyz
  x,y,z
_cell_length_a	8.597226
_cell_length_b	10.268362
_cell_length_c	11.792254
_cell_angle_alpha	89.994545
_cell_angle_beta	84.768959
_cell_angle_gamma	82.291947
loop_
_atom_site_label
_atom_site_type_symbol
_atom_site_fract_x
_atom_site_fract_y
_atom_site_fract_z
O1	O	-2.083926	0.342183	-0.169457
O2	O	-1.627096	0.290915	-0.182445
O3	O	-1.866586	0.317783	-0.010855
O4	O	-1.844435	0.315316	-0.341047
O5	O	-1.866565	0.101180	-0.010848
O6	O	-1.627075	0.074312	-0.182438
O7	O	-2.083905	0.125580	-0.169450
Cu8	Cu	-1.855488	0.080169	-0.175943
Cu9	Cu	-1.855513	0.336327	-0.175952
O10	O	-1.844414	0.098713	-0.341039
C11	C	-1.568601	0.176050	-0.181045
C12	C	-1.394335	0.156493	-0.176869
N13	N	-1.855482	-0.099998	-0.175936
C14	C	-1.855505	-0.365666	-0.175949
C15	C	-1.855487	-0.217830	-0.175945
C16	C	-1.142400	0.240442	-0.170847
C17	C	-1.316668	0.259989	-0.175015
C18	C	-1.865181	0.209325	0.031448
C19	C	-1.861004	0.208858	0.157489
N20	N	-1.855531	0.516495	-0.175950
C21	C	-1.845820	0.207173	-0.383343
C22	C	-1.849997	0.207649	-0.509384
C23	C	-1.857611	0.208482	0.259848
C24	C	-1.853367	0.208017	0.388263
H25	H	-1.327509	0.052931	-0.175274
H26	H	-1.383499	0.363558	-0.176623
