data_functionalizedCrystal
_audit_creation_method	'MofGen! by Chris Wilmer'
_symmetry_space_group_name_H-M	'P1'
_symmetry_Int_Tables_number	1
_symmetry_cell_setting	triclinic
loop_
_symmetry_equiv_pos_as_xyz
  x,y,z
_cell_length_a	9.798715
_cell_length_b	9.065218
_cell_length_c	9.065218
_cell_angle_alpha	94.984115
_cell_angle_beta	89.998697
_cell_angle_gamma	90.003772
loop_
_atom_site_label
_atom_site_type_symbol
_atom_site_fract_x
_atom_site_fract_y
_atom_site_fract_z
O1	O	-0.113488	-1.960400	0.216354
O2	O	-0.113490	-1.531115	0.234100
O3	O	-0.113486	-1.754631	0.010584
O4	O	-0.113492	-1.736884	0.439869
O5	O	0.113496	-1.754614	0.010584
O6	O	0.113492	-1.531098	0.234099
O7	O	0.113494	-1.960383	0.216353
Zn8	Zn	0.149531	-1.745738	0.225226
Zn9	Zn	-0.149527	-1.745760	0.225227
O10	O	0.113490	-1.736868	0.439869
C11	C	0.000001	-1.476120	0.232394
C12	C	0.000000	-1.312277	0.227294
N13	N	0.353631	-1.745734	0.225225
N14	N	-0.353627	-1.745776	0.225217
C15	C	0.421409	-1.839580	0.130961
C16	C	0.578572	-1.839604	0.130956
C17	C	0.000003	-1.752917	-0.044403
C18	C	-0.000004	-1.747817	-0.208245
C19	C	-0.000000	-2.015378	0.218059
C20	C	-0.000008	-2.179221	0.223158
C21	C	-0.000002	-1.738582	0.494855
C22	C	-0.000004	-1.743681	0.658698
H23	H	0.363088	-1.919903	0.050255
Cl24	Cl	0.668556	-1.963665	0.006358
H25	H	0.588095	-1.665432	0.305929
Cl26	Cl	0.443668	-1.621700	0.349816
