data_functionalizedCrystal
_audit_creation_method	'MofGen! by Chris Wilmer'
_symmetry_space_group_name_H-M	'P1'
_symmetry_Int_Tables_number	1
_symmetry_cell_setting	triclinic
loop_
_symmetry_equiv_pos_as_xyz
  x,y,z
_cell_length_a	11.792241
_cell_length_b	14.519709
_cell_length_c	13.596369
_cell_angle_alpha	90.006934
_cell_angle_beta	90.001112
_cell_angle_gamma	83.936780
loop_
_atom_site_label
_atom_site_type_symbol
_atom_site_fract_x
_atom_site_fract_y
_atom_site_fract_z
O1	O	1.506209	0.126405	0.081698
O2	O	2.006209	0.626405	0.581698
O3	O	1.175796	0.139433	0.081721
O4	O	1.675796	0.639433	0.581721
O5	O	1.349763	-0.001287	0.081700
O6	O	1.849763	0.498713	0.581700
O7	O	1.332242	0.267125	0.081719
O8	O	1.832242	0.767125	0.581719
O9	O	1.349746	-0.001295	-0.081883
O10	O	1.849746	0.498705	0.418117
O11	O	1.175779	0.139425	-0.081862
O12	O	1.675779	0.639425	0.418138
O13	O	1.506192	0.126398	-0.081885
O14	O	2.006192	0.626398	0.418115
Zn15	Zn	1.340982	0.132910	-0.107845
Zn16	Zn	1.840982	0.632910	0.392155
Zn17	Zn	1.341005	0.132920	0.107682
Zn18	Zn	1.841005	0.632920	0.607682
O19	O	1.332225	0.267118	-0.081864
O20	O	1.832225	0.767118	0.418136
C21	C	1.133501	0.138611	-0.000067
C22	C	1.633501	0.638611	0.499933
C23	C	1.007501	0.136161	-0.000059
C24	C	1.507501	0.636161	0.499941
C25	C	0.776813	0.131657	-0.000087
C26	C	1.276813	0.631657	0.499913
C27	C	0.905185	0.134160	-0.000072
C28	C	1.405185	0.634160	0.499928
C29	C	1.548487	0.127220	-0.000094
C30	C	2.048487	0.627220	0.499906
C31	C	1.674487	0.129669	-0.000096
C32	C	2.174487	0.629669	0.499904
C33	C	1.348938	-0.035654	-0.000091
C34	C	1.848938	0.464346	0.499909
C35	C	1.346491	-0.138044	-0.000092
C36	C	1.846491	0.361956	0.499908
C37	C	1.337483	-0.512973	-0.000065
C38	C	1.837483	-0.012973	0.499935
C39	C	1.339984	-0.408656	-0.000073
C40	C	1.839984	0.091344	0.499927
C41	C	1.341987	-0.325512	-0.000079
C42	C	1.841987	0.174488	0.499921
C43	C	1.344489	-0.221188	-0.000085
C44	C	1.844489	0.278812	0.499915
C45	C	1.333050	0.301484	-0.000070
C46	C	1.833050	0.801484	0.499930
C47	C	1.335497	0.403875	-0.000063
C48	C	1.835497	0.903875	0.499937
N49	N	1.340975	0.132903	-0.254937
N50	N	1.840975	0.632903	0.245063
C51	C	1.341004	0.132921	-0.656228
C52	C	1.841004	0.632921	-0.156228
C53	C	1.340992	0.132919	-0.544577
C54	C	1.840992	0.632919	-0.044577
C55	C	1.340990	0.132913	-0.455586
C56	C	1.840990	0.632913	0.044414
C57	C	1.340978	0.132909	-0.343928
C58	C	1.840978	0.632909	0.156072
N59	N	1.341022	0.132920	0.254774
N60	N	1.841022	0.632920	0.754774
