data_functionalizedCrystal
_audit_creation_method	'MofGen! by Chris Wilmer'
_symmetry_space_group_name_H-M	'P1'
_symmetry_Int_Tables_number	1
_symmetry_cell_setting	triclinic
loop_
_symmetry_equiv_pos_as_xyz
  x,y,z
_cell_length_a	12.759400
_cell_length_b	12.759401
_cell_length_c	18.215399
_cell_angle_alpha	89.983431
_cell_angle_beta	89.975454
_cell_angle_gamma	90.013728
loop_
_atom_site_label
_atom_site_type_symbol
_atom_site_fract_x
_atom_site_fract_y
_atom_site_fract_z
Zn1	Zn	-0.418304	1.606235	-0.416069
Zn2	Zn	0.081696	2.106235	0.083931
Zn3	Zn	-0.594001	1.606135	-0.293010
Zn4	Zn	-0.094001	2.106135	0.206990
Zn5	Zn	-0.418334	1.430543	-0.293024
Zn6	Zn	0.081666	1.930543	0.206976
Zn7	Zn	-0.593938	1.430525	-0.416042
Zn8	Zn	-0.093938	1.930525	0.083958
O9	O	-0.506144	1.518360	-0.354536
O10	O	-0.006144	2.018360	0.145464
O11	O	-0.441624	1.753243	-0.399751
O12	O	0.058376	2.253243	0.100249
O13	O	-0.570737	1.582808	-0.190028
O14	O	-0.070737	2.082808	0.309972
O15	O	-0.271309	1.453898	-0.309363
O16	O	0.228691	1.953898	0.190637
O17	O	-0.570708	1.753169	-0.309340
O18	O	-0.070708	2.253169	0.190660
O19	O	-0.271287	1.582978	-0.399764
O20	O	0.228713	2.082978	0.100236
O21	O	-0.441675	1.453801	-0.190037
O22	O	0.058325	1.953801	0.309963
O23	O	-0.441615	1.283520	-0.309337
O24	O	0.058385	1.783520	0.190663
O25	O	-0.570601	1.453868	-0.519030
O26	O	-0.070601	1.953868	-0.019030
O27	O	-0.570630	1.283507	-0.399718
O28	O	-0.070630	1.783507	0.100282
O29	O	-0.441563	1.582961	-0.519050
O30	O	0.058437	2.082961	-0.019050
O31	O	-0.741014	1.582791	-0.309314
O32	O	-0.241014	2.082791	0.190686
O33	O	-0.740968	1.453772	-0.399705
O34	O	-0.240968	1.953772	0.100295
C35	C	-0.506120	1.245392	-0.354526
C36	C	-0.006120	1.745392	0.145474
C37	C	-0.506134	1.128616	-0.354539
C38	C	-0.006134	1.628616	0.145461
C39	C	-0.439047	1.073785	-0.401689
C40	C	0.060953	1.573785	0.098311
C41	C	-0.439067	0.964061	-0.401694
C42	C	0.060933	1.464061	0.098306
C43	C	-0.573271	0.964008	-0.307396
C44	C	-0.073271	1.464008	0.192604
C45	C	-0.573245	1.073730	-0.307389
C46	C	-0.073245	1.573730	0.192611
C47	C	-0.371937	1.128670	-0.448840
C48	C	0.128063	1.628670	0.051160
C49	C	-0.304845	1.073839	-0.495994
C50	C	0.195155	1.573839	0.004006
C51	C	-0.304865	0.964115	-0.495998
C52	C	0.195135	1.464115	0.004002
C53	C	-0.371977	0.909222	-0.448849
C54	C	0.128023	1.409222	0.051151
C55	C	-0.779112	1.518297	-0.354521
C56	C	-0.279112	2.018297	0.145479
C57	C	-0.895888	1.518367	-0.354539
C58	C	-0.395888	2.018367	0.145461
C59	C	-0.950740	1.585622	-0.307524
C60	C	-0.450740	2.085622	0.192476
C61	C	-1.060464	1.585686	-0.307547
C62	C	-0.560464	2.085686	0.192453
C63	C	-1.060476	1.451232	-0.401601
C64	C	-0.560476	1.951232	0.098399
C65	C	-0.950754	1.451173	-0.401581
C66	C	-0.450754	1.951173	0.098419
C67	C	-0.895874	1.652815	-0.260482
C68	C	-0.395874	2.152815	0.239518
C69	C	-0.950726	1.720075	-0.213463
C70	C	-0.450726	2.220075	0.286537
C71	C	-1.060450	1.720140	-0.213486
C72	C	-0.560450	2.220140	0.286514
C73	C	-1.115322	1.652944	-0.260527
C74	C	-0.615322	2.152944	0.239473
C75	C	-0.232111	1.518451	-0.354568
C76	C	0.267889	2.018451	0.145432
C77	C	-0.115334	1.518490	-0.354581
C78	C	0.384666	2.018490	0.145419
C79	C	-0.506072	1.518424	-0.546489
C80	C	-0.006072	2.018424	-0.046489
C81	C	-0.506041	1.518451	-0.628288
C82	C	-0.006041	2.018451	-0.128288
C83	C	-0.506170	1.792393	-0.354547
C84	C	-0.006170	2.292393	0.145453
C85	C	-0.506181	1.909169	-0.354552
C86	C	-0.006181	2.409169	0.145448
C87	C	-0.438788	1.585694	-0.816494
C88	C	0.061212	2.085694	-0.316494
C89	C	-0.438758	1.585706	-0.893353
C90	C	0.061242	2.085706	-0.393353
C91	C	-0.573132	1.451282	-0.893321
C92	C	-0.073132	1.951282	-0.393321
C93	C	-0.573156	1.451265	-0.816463
C94	C	-0.073156	1.951265	-0.316463
C95	C	-0.505986	1.518477	-0.778052
C96	C	-0.005986	2.018477	-0.278052
C97	C	-0.505931	1.518506	-0.931768
C98	C	-0.005931	2.018506	-0.431768
C99	C	-0.505898	1.518520	-1.015102
C100	C	-0.005898	2.018520	-0.515102
C101	C	-0.506017	1.518463	-0.694713
C102	C	-0.006017	2.018463	-0.194713
C103	C	-0.506141	1.518356	-0.163330
C104	C	-0.006141	2.018356	0.336670
C105	C	-0.505876	1.518533	-0.081532
C106	C	-0.005876	2.018533	0.418468
H107	H	-0.371913	1.218013	-0.448841
H108	H	0.128087	1.718013	0.051159
H109	H	-0.250199	1.118540	-0.534377
H110	H	0.249801	1.618540	-0.034377
F111	F	-0.367243	1.657255	-0.934262
F112	F	0.132757	2.157255	-0.434262
F113	F	-1.118823	1.791731	-0.163451
F114	F	-0.618823	2.291731	0.336549
H115	H	-0.250228	0.919475	-0.534388
H116	H	0.249772	1.419475	-0.034388
H117	H	-0.627821	1.396563	-0.924605
H118	H	-0.127821	1.896563	-0.424605
H119	H	-0.627876	1.396522	-0.785163
H120	H	-0.127876	1.896522	-0.285163
F121	F	-0.644693	0.905584	-0.257222
F122	F	-0.144693	1.405584	0.242778
F123	F	-0.371986	0.792443	-0.448849
F124	F	0.128014	1.292443	0.051151
F125	F	-1.118879	1.379721	-0.451661
F126	F	-0.618879	1.879721	0.048339
H127	H	-0.384091	1.640419	-0.785221
H128	H	0.115909	2.140419	-0.285221
H129	H	-0.906043	1.774790	-0.175167
H130	H	-0.406043	2.274790	0.324833
F131	F	-1.232101	1.652677	-0.260311
F132	F	-0.732101	2.152677	0.239689
F133	F	-0.644654	1.132089	-0.257212
F134	F	-0.144654	1.632089	0.242788
H135	H	-0.806532	1.652767	-0.260456
H136	H	-0.306532	2.152767	0.239544
F137	F	-0.892374	1.379594	-0.451621
F138	F	-0.392374	1.879594	0.048379
