data_functionalizedCrystal
_audit_creation_method	'MofGen! by Chris Wilmer'
_symmetry_space_group_name_H-M	'P1'
_symmetry_Int_Tables_number	1
_symmetry_cell_setting	triclinic
loop_
_symmetry_equiv_pos_as_xyz
  x,y,z
_cell_length_a	13.262390
_cell_length_b	13.339070
_cell_length_c	16.053802
_cell_angle_alpha	86.732386
_cell_angle_beta	108.490252
_cell_angle_gamma	99.429367
loop_
_atom_site_label
_atom_site_type_symbol
_atom_site_fract_x
_atom_site_fract_y
_atom_site_fract_z
O1	O	1.450769	0.112038	0.398868
O2	O	1.146321	0.131099	0.329735
O3	O	1.263604	-0.025356	0.356365
O4	O	1.333486	0.268492	0.372238
O5	O	1.257138	-0.016779	0.216038
O6	O	1.139855	0.139675	0.189408
O7	O	1.444303	0.120614	0.258541
Zn8	Zn	1.291053	0.131506	0.201695
Zn9	Zn	1.299572	0.120206	0.386582
O10	O	1.327020	0.277068	0.231911
C11	C	1.103326	0.135108	0.250543
C12	C	0.984844	0.134263	0.223638
C13	C	0.664966	0.113168	0.453780
C14	C	0.776285	0.113957	0.479060
C15	C	0.828431	0.119034	0.415206
C16	C	0.769246	0.123322	0.326070
C17	C	0.657915	0.122525	0.300788
C18	C	0.821379	0.128391	0.262214
C19	C	0.762194	0.132679	0.173077
C20	C	0.650874	0.131883	0.147799
C21	C	0.598729	0.126806	0.211653
C22	C	0.932710	0.129187	0.287496
C23	C	0.925658	0.138544	0.134503
C24	C	0.814339	0.137756	0.109224
C25	C	1.248567	-0.058642	0.283522
C26	C	1.213381	-0.170602	0.275535
C27	C	1.486969	-0.538054	0.337660
C28	C	1.520031	-0.432862	0.345160
C29	C	1.443371	-0.367292	0.327755
C30	C	1.333644	-0.406924	0.302848
C31	C	1.300578	-0.512126	0.295341
C32	C	1.256981	-0.341364	0.285435
C33	C	1.147253	-0.380996	0.260529
C34	C	1.114193	-0.486188	0.253023
C35	C	1.190853	-0.551758	0.270429
C36	C	1.290046	-0.236162	0.292943
C37	C	1.103656	-0.210234	0.250623
C38	C	1.070594	-0.315426	0.243123
C39	C	1.487298	0.116605	0.337735
C40	C	1.605781	0.117449	0.364645
C41	C	1.342057	0.310355	0.304756
C42	C	1.377244	0.422314	0.312748
N43	N	1.285246	0.139218	0.075516
C44	C	1.335182	0.072669	0.043160
C45	C	1.331133	0.078073	-0.045166
C46	C	1.277154	0.150030	-0.101133
C47	C	1.227211	0.216582	-0.068773
C48	C	1.231254	0.211172	0.019550
C49	C	1.259484	0.173629	-0.366555
C50	C	1.255448	0.179035	-0.454883
C51	C	1.359369	0.040525	-0.431270
C52	C	1.363413	0.035126	-0.342945
C53	C	1.313465	0.101674	-0.310593
N54	N	1.273017	0.155557	-0.191417
N55	N	1.317596	0.096141	-0.220313
N56	N	1.305384	0.112487	0.512762
H57	H	0.622498	0.109025	0.505760
H58	H	1.371795	0.023883	-0.071509
Br59	Br	0.447648	0.125747	0.177348
H60	H	0.981252	-0.347710	0.222843
Br61	Br	0.734005	0.143578	-0.011744
H62	H	0.980888	0.125698	0.360071
H63	H	1.379387	-0.203904	0.313221
H64	H	1.163939	-0.637415	0.264327
Br65	Br	1.668940	-0.379083	0.378978
Br66	Br	0.570552	0.137694	0.026828
Br67	Br	1.436676	-0.062527	-0.266986
H68	H	1.470297	-0.281641	0.333863
Br69	Br	0.965277	-0.539972	0.219205
H70	H	1.400033	-0.013656	-0.457619
H71	H	1.549373	-0.591449	0.351822
H72	H	1.190589	0.265362	0.045892
Br73	Br	0.999609	-0.121254	0.226990
Br74	Br	1.182189	0.276705	-0.530834
Br75	Br	0.979509	0.120106	0.449515
H76	H	1.379144	0.014078	0.088726
H77	H	0.968114	0.142676	0.082508
Br78	Br	1.191703	0.263943	-0.322653
Br79	Br	1.153941	0.314233	-0.144728
H80	H	0.824465	0.110460	0.551634
