data_functionalizedCrystal
_audit_creation_method	'MofGen! by Chris Wilmer'
_symmetry_space_group_name_H-M	'P1'
_symmetry_Int_Tables_number	1
_symmetry_cell_setting	triclinic
loop_
_symmetry_equiv_pos_as_xyz
  x,y,z
_cell_length_a	11.792241
_cell_length_b	8.559649
_cell_length_c	7.681481
_cell_angle_alpha	94.930900
_cell_angle_beta	84.232897
_cell_angle_gamma	76.986040
loop_
_atom_site_label
_atom_site_type_symbol
_atom_site_fract_x
_atom_site_fract_y
_atom_site_fract_z
O1	O	-1.474850	-0.233845	-0.146253
O2	O	-0.974850	0.266155	0.353747
O3	O	-1.142441	-0.256403	-0.146293
O4	O	-0.642441	0.243597	0.353707
O5	O	-1.337931	-0.012775	-0.146267
O6	O	-0.837931	0.487225	0.353733
O7	O	-1.279360	-0.477473	-0.146278
O8	O	-0.779360	0.022527	0.353722
O9	O	-1.361999	0.017279	0.146594
O10	O	-0.861999	0.517279	0.646594
O11	O	-1.166509	-0.226348	0.146568
O12	O	-0.666509	0.273652	0.646568
O13	O	-1.498918	-0.203790	0.146608
O14	O	-0.998918	0.296210	0.646608
Zn15	Zn	-1.336535	-0.210298	0.193086
Zn16	Zn	-0.836535	0.289702	0.693086
Zn17	Zn	-1.304825	-0.249896	-0.192771
Zn18	Zn	-0.804825	0.250104	0.307229
O19	O	-1.303428	-0.447418	0.146583
O20	O	-0.803428	0.052582	0.646583
C21	C	-1.112313	-0.239960	0.000132
C22	C	-0.612313	0.260040	0.500132
C23	C	-0.986687	-0.235721	0.000117
C24	C	-0.486687	0.264279	0.500117
C25	C	-1.354404	0.061743	0.000160
C26	C	-0.854404	0.561743	0.500160
C27	C	-1.367615	0.239008	0.000152
C28	C	-0.867615	0.739008	0.500152
C29	C	-1.529045	-0.220234	0.000179
C30	C	-1.029045	0.279766	0.500179
C31	C	-1.654671	-0.224474	0.000183
C32	C	-1.154671	0.275526	0.500183
C33	C	-0.756692	-0.227918	0.000168
C34	C	-0.256692	0.272082	0.500168
C35	C	-0.884679	-0.232253	0.000140
C36	C	-0.384679	0.267747	0.500140
C37	C	-1.286955	-0.521937	0.000151
C38	C	-0.786955	-0.021937	0.500151
C39	C	-1.273743	-0.699203	0.000148
C40	C	-0.773743	-0.199203	0.500148
N41	N	-1.358184	-0.183272	0.456423
N42	N	-0.858184	0.316728	0.956423
N43	N	-1.283185	-0.276909	-0.456108
N44	N	-0.783185	0.223091	0.043892
H45	H	-1.183267	0.218083	0.000143
H46	H	-0.683267	0.718083	0.500143
H47	H	-1.458099	0.321733	0.000177
H48	H	-0.958099	0.821733	0.500177
H49	H	-1.206627	-0.372485	0.468685
H50	H	-0.706627	0.127515	0.968685
H51	H	-1.434755	-0.087701	0.531639
H52	H	-0.934755	0.412299	1.031639
