data_functionalizedCrystal
_audit_creation_method	'MofGen! by Chris Wilmer'
_symmetry_space_group_name_H-M	'P1'
_symmetry_Int_Tables_number	1
_symmetry_cell_setting	triclinic
loop_
_symmetry_equiv_pos_as_xyz
  x,y,z
_cell_length_a	8.497374
_cell_length_b	8.497374
_cell_length_c	12.759401
_cell_angle_alpha	89.998481
_cell_angle_beta	90.000899
_cell_angle_gamma	90.004389
loop_
_atom_site_label
_atom_site_type_symbol
_atom_site_fract_x
_atom_site_fract_y
_atom_site_fract_z
Zn1	Zn	0.892054	0.628298	1.606171
Zn2	Zn	1.392054	1.128298	2.106171
Zn3	Zn	0.628320	0.892048	1.606161
Zn4	Zn	1.128320	1.392048	2.106161
Zn5	Zn	0.628287	0.628278	1.430527
Zn6	Zn	1.128287	1.128278	1.930527
Zn7	Zn	0.892057	0.892032	1.430503
Zn8	Zn	1.392057	1.392032	1.930503
O9	O	0.760180	0.760164	1.518341
O10	O	1.260180	1.260164	2.018341
O11	O	0.857082	0.663301	1.753191
O12	O	1.357082	1.163301	2.253191
O13	O	0.407553	0.857056	1.582869
O14	O	0.907553	1.357056	2.082869
O15	O	0.663262	0.407518	1.453841
O16	O	1.163262	0.907518	1.953841
O17	O	0.663317	0.857076	1.753184
O18	O	1.163317	1.357076	2.253184
O19	O	0.857050	0.407533	1.582886
O20	O	1.357050	0.907533	2.082886
O21	O	0.407529	0.663265	1.453832
O22	O	0.907529	1.163265	1.953832
O23	O	0.663264	0.663250	1.283503
O24	O	1.163264	1.163250	1.783503
O25	O	1.112819	0.857049	1.453800
O26	O	1.612819	1.357049	1.953800
O27	O	0.857055	0.857029	1.283486
O28	O	1.357055	1.357029	1.783486
O29	O	1.112817	0.663285	1.582862
O30	O	1.612817	1.163285	2.082862
O31	O	0.663320	1.112808	1.582846
O32	O	1.163320	1.612808	2.082846
O33	O	0.857087	1.112797	1.453791
O34	O	1.357087	1.612797	1.953791
C35	C	0.760157	0.760137	1.245373
C36	C	1.260157	1.260137	1.745373
C37	C	0.760185	0.760163	1.128597
C38	C	1.260185	1.260163	1.628597
C39	C	0.861234	0.659447	1.073739
C40	C	1.361234	1.159447	1.573739
C41	C	0.861245	0.659463	0.964015
C42	C	1.361245	1.159463	1.464015
C43	C	0.659153	0.860926	0.964016
C44	C	1.159153	1.360926	1.464016
C45	C	0.659136	0.860900	1.073738
C46	C	1.159136	1.360900	1.573738
C47	C	1.350300	0.760190	1.518347
C48	C	1.850300	1.260190	2.018347
C49	C	1.171656	0.760182	1.518336
C50	C	1.671656	1.260182	2.018336
C51	C	0.760202	1.170044	1.518328
C52	C	1.260202	1.670044	2.018328
C53	C	0.760177	1.348688	1.518355
C54	C	1.260177	1.848688	2.018355
C55	C	0.760203	0.760192	1.792374
C56	C	1.260203	1.260192	2.292374
C57	C	0.760213	0.760205	1.909151
C58	C	1.260213	1.260205	2.409151
H59	H	0.576841	0.942917	1.118404
H60	H	1.076841	1.442917	1.618404
Cl61	Cl	0.532132	0.987565	0.895043
Cl62	Cl	1.032132	1.487565	1.395043
Cl63	Cl	0.988260	0.532799	1.142701
Cl64	Cl	1.488260	1.032799	1.642701
Cl65	Cl	0.988282	0.532840	0.895056
Cl66	Cl	1.488282	1.032840	1.395056
