data_functionalizedCrystal
_audit_creation_method	'MofGen! by Chris Wilmer'
_symmetry_space_group_name_H-M	'P1'
_symmetry_Int_Tables_number	1
_symmetry_cell_setting	triclinic
loop_
_symmetry_equiv_pos_as_xyz
  x,y,z
_cell_length_a	10.654550
_cell_length_b	13.339070
_cell_length_c	9.130313
_cell_angle_alpha	90.000326
_cell_angle_beta	89.996220
_cell_angle_gamma	100.057099
loop_
_atom_site_label
_atom_site_type_symbol
_atom_site_fract_x
_atom_site_fract_y
_atom_site_fract_z
O1	O	1.715926	0.142430	-0.121918
O2	O	1.355030	0.156000	-0.121894
O3	O	1.494059	0.001661	-0.121899
O4	O	1.576897	0.296769	-0.121913
O5	O	1.494058	0.001665	0.121700
O6	O	1.355029	0.156004	0.121705
O7	O	1.715925	0.142434	0.121681
Cu8	Cu	1.535477	0.149219	0.143935
Cu9	Cu	1.535478	0.149215	-0.144149
O10	O	1.576896	0.296773	0.121686
C11	C	1.307895	0.155006	-0.000092
C12	C	1.167445	0.152025	-0.000083
C13	C	1.118643	0.242897	-0.000108
C14	C	0.986674	0.240090	-0.000134
C15	C	0.952320	0.055530	-0.000113
C16	C	1.084286	0.058338	-0.000078
C17	C	1.138476	0.349452	-0.000126
C18	C	1.006507	0.346644	-0.000152
C19	C	1.480065	-0.036124	-0.000101
C20	C	1.438355	-0.148719	-0.000104
C21	C	1.762670	-0.511236	-0.000124
C22	C	1.801862	-0.405449	-0.000113
C23	C	1.710989	-0.341261	-0.000111
C24	C	1.580916	-0.382872	-0.000120
C25	C	1.541720	-0.488670	-0.000119
C26	C	1.490039	-0.318694	-0.000106
C27	C	1.359966	-0.360305	-0.000115
C28	C	1.320776	-0.466093	-0.000116
C29	C	1.411650	-0.530280	-0.000117
C30	C	1.529235	-0.212896	-0.000107
C31	C	1.308285	-0.190329	-0.000102
C32	C	1.269093	-0.296117	-0.000113
C33	C	1.763060	0.143428	-0.000125
C34	C	1.903510	0.146409	-0.000144
C35	C	1.590890	0.334559	-0.000116
C36	C	1.632600	0.447153	-0.000122
N37	N	1.535485	0.149222	0.346558
N38	N	1.535477	0.149204	-0.346771
C39	C	1.597077	0.080904	0.423208
C40	C	1.597069	0.080892	0.576545
C41	C	1.473877	0.217525	0.576568
C42	C	1.473878	0.217531	0.423234
C43	C	1.668206	0.002023	0.423195
C44	C	1.668198	0.002011	0.576532
H45	H	0.978331	0.386791	-0.102107
O46	O	1.655541	-0.172362	-0.000305
C47	C	1.684836	-0.111865	-0.126487
H48	H	1.594795	-0.086214	-0.168544
H49	H	1.759155	-0.042251	-0.098117
H50	H	1.724246	-0.158209	-0.214832
H51	H	1.612814	-0.071647	0.624085
H52	H	0.971709	0.378848	0.105015
H53	H	1.742907	-0.255125	-0.000102
O54	O	1.851099	-0.573440	-0.000062
C55	C	1.974309	-0.514035	-0.000104
H56	H	1.969868	-0.435312	0.046013
H57	H	2.040242	-0.552499	0.070618
H58	H	2.012449	-0.506257	-0.116972
O59	O	1.142730	-0.336496	-0.000373
C60	C	1.085097	-0.303760	-0.126515
H61	H	1.160514	-0.281273	-0.214694
H62	H	1.009221	-0.368218	-0.168866
H63	H	1.038953	-0.235321	-0.097988
H64	H	1.423717	0.273140	0.639014
O65	O	1.928188	-0.364979	0.000145
C66	C	1.957458	-0.304441	0.126288
H67	H	1.882956	-0.329922	0.214472
H68	H	2.055610	-0.313218	0.168630
H69	H	1.957477	-0.221231	0.097767
H70	H	1.214863	-0.499968	-0.000111
O71	O	1.373736	-0.633062	-0.000321
C72	C	1.421219	-0.674584	-0.126510
H73	H	1.508308	-0.620201	-0.168573
H74	H	1.449315	-0.750906	-0.098147
H75	H	1.344432	-0.686220	-0.214849
H76	H	1.770577	0.019386	0.618141
H77	H	1.234288	-0.138068	-0.000093
H78	H	1.185588	0.383378	-0.105300
H79	H	1.620444	-0.075923	0.381581
H80	H	1.124015	-0.015659	-0.000036
O81	O	1.786977	0.031640	0.366635
C82	C	1.836668	0.131163	0.414464
H83	H	1.786665	0.147805	0.519814
H84	H	1.943255	0.138016	0.435760
H85	H	1.820268	0.188142	0.326498
O86	O	1.414023	0.283986	0.349003
C87	C	1.359623	0.344255	0.449564
H88	H	1.411645	0.345790	0.558860
H89	H	1.368612	0.425099	0.405267
H90	H	1.254627	0.310612	0.465880
H91	H	0.884597	-0.020747	-0.000132
H92	H	1.181878	0.391127	0.101823
