data_functionalizedCrystal
_audit_creation_method	'MofGen! by Chris Wilmer'
_symmetry_space_group_name_H-M	'P1'
_symmetry_Int_Tables_number	1
_symmetry_cell_setting	triclinic
loop_
_symmetry_equiv_pos_as_xyz
  x,y,z
_cell_length_a	15.995350
_cell_length_b	17.666332
_cell_length_c	15.995292
_cell_angle_alpha	90.002020
_cell_angle_beta	83.480495
_cell_angle_gamma	90.005607
loop_
_atom_site_label
_atom_site_type_symbol
_atom_site_fract_x
_atom_site_fract_y
_atom_site_fract_z
O1	O	1.110969	0.062879	0.107929
O2	O	1.360969	0.312879	0.357929
O3	O	1.610969	0.562879	0.607929
O4	O	1.860969	0.812879	0.857929
O5	O	0.867191	0.062894	0.121257
O6	O	1.117191	0.312894	0.371257
O7	O	1.367191	0.562894	0.621257
O8	O	1.617191	0.812894	0.871257
O9	O	0.995769	0.062887	-0.007298
O10	O	1.245769	0.312887	0.242702
O11	O	1.495769	0.562887	0.492702
O12	O	1.745769	0.812887	0.742702
O13	O	0.982391	0.062885	0.236484
O14	O	1.232391	0.312885	0.486484
O15	O	1.482391	0.562885	0.736484
O16	O	1.732391	0.812885	0.986484
O17	O	0.995746	-0.063010	-0.007301
O18	O	1.245746	0.186990	0.242699
O19	O	1.495746	0.436990	0.492699
O20	O	1.745746	0.686990	0.742699
O21	O	0.867168	-0.063003	0.121254
O22	O	1.117168	0.186997	0.371254
O23	O	1.367168	0.436997	0.621254
O24	O	1.617168	0.686997	0.871254
O25	O	1.110946	-0.063018	0.107926
O26	O	1.360946	0.186982	0.357926
O27	O	1.610946	0.436982	0.607926
O28	O	1.860946	0.686982	0.857926
Cu29	Cu	0.989055	-0.074506	0.114589
Cu30	Cu	1.239055	0.175494	0.364589
Cu31	Cu	1.489055	0.425494	0.614589
Cu32	Cu	1.739055	0.675494	0.864589
Cu33	Cu	0.989082	0.074382	0.114594
Cu34	Cu	1.239082	0.324382	0.364594
Cu35	Cu	1.489082	0.574382	0.614594
Cu36	Cu	1.739082	0.824382	0.864594
O37	O	0.982368	-0.063011	0.236481
O38	O	1.232368	0.186989	0.486481
O39	O	1.482368	0.436989	0.736481
O40	O	1.732368	0.686989	0.986481
C41	C	0.835985	-0.000053	0.120704
C42	C	1.085985	0.249947	0.370704
C43	C	1.335985	0.499947	0.620704
C44	C	1.585985	0.749947	0.870704
C45	C	0.743035	-0.000047	0.119053
C46	C	0.993035	0.249953	0.369053
C47	C	1.243035	0.499953	0.619053
C48	C	1.493035	0.749953	0.869053
N49	N	0.989042	-0.179225	0.114586
N50	N	1.239042	0.070775	0.364586
N51	N	1.489042	0.320775	0.614586
N52	N	1.739042	0.570775	0.864586
C53	C	0.405288	-0.000063	0.113120
C54	C	0.655288	0.249937	0.363120
C55	C	0.905288	0.499937	0.613120
C56	C	1.155288	0.749937	0.863120
C57	C	0.452742	-0.000343	0.021566
C58	C	0.702742	0.249657	0.271566
C59	C	0.952742	0.499657	0.521566
C60	C	1.202742	0.749657	0.771566
C61	C	0.549431	-0.000054	0.023218
C62	C	0.799431	0.249946	0.273218
C63	C	1.049431	0.499946	0.523218
C64	C	1.299431	0.749946	0.773218
C65	C	0.572848	-0.000055	0.116063
C66	C	0.822848	0.249945	0.366063
C67	C	1.072848	0.499945	0.616063
C68	C	1.322848	0.749945	0.866063
C69	C	0.531765	0.071835	0.161223
C70	C	0.781765	0.321835	0.411223
C71	C	1.031765	0.571835	0.661223
C72	C	1.281765	0.821835	0.911223
C73	C	0.435130	0.071890	0.158923
C74	C	0.685130	0.321890	0.408923
C75	C	0.935130	0.571890	0.658923
C76	C	1.185130	0.821890	0.908923
C77	C	0.434764	-0.071278	0.160810
C78	C	0.684764	0.178722	0.410810
C79	C	0.934764	0.428722	0.660810
C80	C	1.184764	0.678722	0.910810
C81	C	0.531710	-0.072223	0.160788
C82	C	0.781710	0.177777	0.410788
C83	C	1.031710	0.427777	0.660788
C84	C	1.281710	0.677777	0.910788
C85	C	0.667546	-0.000048	0.117731
C86	C	0.917546	0.249952	0.367731
C87	C	1.167546	0.499952	0.617731
C88	C	1.417546	0.749952	0.867731
C89	C	0.310591	-0.000064	0.111455
C90	C	0.560591	0.249936	0.361455
C91	C	0.810591	0.499936	0.611455
C92	C	1.060591	0.749936	0.861455
C93	C	1.039805	-0.218832	0.165404
C94	C	1.289805	0.031168	0.415404
C95	C	1.539805	0.281168	0.665404
C96	C	1.789805	0.531168	0.915404
C97	C	1.039818	-0.298080	0.165401
C98	C	1.289818	-0.048080	0.415401
C99	C	1.539818	0.201920	0.665401
C100	C	1.789818	0.451920	0.915401
C101	C	0.989054	-0.337718	0.114590
C102	C	1.239054	-0.087718	0.364590
C103	C	1.489054	0.162282	0.614590
C104	C	1.739054	0.412282	0.864590
C105	C	0.938288	-0.298101	0.063762
C106	C	1.188288	-0.048101	0.313762
C107	C	1.438288	0.201899	0.563762
C108	C	1.688288	0.451899	0.813762
C109	C	0.938282	-0.218855	0.063759
C110	C	1.188282	0.031145	0.313759
C111	C	1.438282	0.281145	0.563759
C112	C	1.688282	0.531145	0.813759
N113	N	0.915716	-0.462152	0.112304
N114	N	1.165716	-0.212152	0.362304
N115	N	1.415716	0.037848	0.612304
N116	N	1.665716	0.287848	0.862304
N117	N	0.915724	-0.537433	0.112311
N118	N	1.165724	-0.287433	0.362311
N119	N	1.415724	-0.037433	0.612311
N120	N	1.665724	0.212567	0.862311
C121	C	0.989069	-0.576482	0.114593
C122	C	1.239069	-0.326482	0.364593
C123	C	1.489069	-0.076482	0.614593
C124	C	1.739069	0.173518	0.864593
N125	N	1.062407	-0.537406	0.116885
N126	N	1.312407	-0.287406	0.366885
N127	N	1.562407	-0.037406	0.616885
N128	N	1.812407	0.212594	0.866885
N129	N	1.062398	-0.462118	0.116882
N130	N	1.312398	-0.212118	0.366882
N131	N	1.562398	0.037882	0.616882
N132	N	1.812398	0.287882	0.866882
C133	C	0.989054	-0.423647	0.114587
C134	C	1.239054	-0.173647	0.364587
C135	C	1.489054	0.076353	0.614587
C136	C	1.739054	0.326353	0.864587
C137	C	1.039850	-0.702018	0.165412
C138	C	1.289850	-0.452018	0.415412
C139	C	1.539850	-0.202018	0.665412
C140	C	1.789850	0.047982	0.915412
C141	C	1.039865	-0.781267	0.165403
C142	C	1.289865	-0.531267	0.415403
C143	C	1.539865	-0.281267	0.665403
C144	C	1.789865	-0.031267	0.915403
C145	C	0.938327	-0.781286	0.063769
C146	C	1.188327	-0.531286	0.313769
C147	C	1.438327	-0.281286	0.563769
C148	C	1.688327	-0.031286	0.813769
C149	C	0.938320	-0.702039	0.063772
C150	C	1.188320	-0.452039	0.313772
C151	C	1.438320	-0.202039	0.563772
C152	C	1.688320	0.047961	0.813772
C153	C	0.989080	-0.662409	0.114598
C154	C	1.239080	-0.412409	0.364598
C155	C	1.489080	-0.162409	0.614598
C156	C	1.739080	0.087591	0.864598
C157	C	1.142152	-0.000070	0.108479
C158	C	1.392152	0.249930	0.358479
C159	C	1.642152	0.499930	0.608479
C160	C	1.892152	0.749930	0.858479
C161	C	1.235102	-0.000071	0.110130
C162	C	1.485102	0.249929	0.360130
C163	C	1.735102	0.499929	0.610130
C164	C	1.985102	0.749929	0.860130
C165	C	0.995213	-0.000059	-0.038495
C166	C	1.245213	0.249941	0.211505
C167	C	1.495213	0.499941	0.461505
C168	C	1.745213	0.749941	0.711505
C169	C	0.993581	-0.000054	-0.131448
C170	C	1.243581	0.249946	0.118552
C171	C	1.493581	0.499946	0.368552
C172	C	1.743581	0.749946	0.618552
N173	N	0.989101	0.179101	0.114591
N174	N	1.239101	0.429101	0.364591
N175	N	1.489101	0.679101	0.614591
N176	N	1.739101	0.929101	0.864591
C177	C	0.987580	-0.000060	-0.469186
C178	C	1.237580	0.249940	-0.219186
C179	C	1.487580	0.499940	0.030814
C180	C	1.737580	0.749940	0.280814
C181	C	1.080384	-0.000347	-0.445874
C182	C	1.330384	0.249653	-0.195874
C183	C	1.580384	0.499653	0.054126
C184	C	1.830384	0.749653	0.304126
C185	C	1.082148	-0.000061	-0.349199
C186	C	1.332148	0.249939	-0.099199
C187	C	1.582148	0.499939	0.150801
C188	C	1.832148	0.749939	0.400801
C189	C	0.990557	-0.000057	-0.301631
C190	C	1.240557	0.249943	-0.051631
C191	C	1.490557	0.499943	0.198369
C192	C	1.740557	0.749943	0.448369
C193	C	0.944173	0.071836	-0.330729
C194	C	1.194173	0.321836	-0.080729
C195	C	1.444173	0.571836	0.169271
C196	C	1.694173	0.821836	0.419271
C197	C	0.943055	0.071894	-0.427520
C198	C	1.193055	0.321894	-0.177520
C199	C	1.443055	0.571894	0.072480
C200	C	1.693055	0.821894	0.322480
C201	C	0.941134	-0.071274	-0.427381
C202	C	1.191134	0.178726	-0.177381
C203	C	1.441134	0.428726	0.072619
C204	C	1.691134	0.678726	0.322619
C205	C	0.944573	-0.072222	-0.330889
C206	C	1.194573	0.177778	-0.080889
C207	C	1.444573	0.427778	0.169111
C208	C	1.694573	0.677778	0.419111
C209	C	0.992235	-0.000053	-0.206934
C210	C	1.242235	0.249947	0.043066
C211	C	1.492235	0.499947	0.293066
C212	C	1.742235	0.749947	0.543066
C213	C	0.985899	-0.000059	-0.563882
C214	C	1.235899	0.249941	-0.313882
C215	C	1.485899	0.499941	-0.063882
C216	C	1.735899	0.749941	0.186118
C217	C	0.982924	-0.000063	0.267678
C218	C	1.232924	0.249937	0.517678
C219	C	1.482924	0.499937	0.767678
C220	C	1.732924	0.749937	1.017678
C221	C	0.984556	-0.000064	0.360631
C222	C	1.234556	0.249936	0.610631
C223	C	1.484556	0.499936	0.860631
C224	C	1.734556	0.749936	1.110631
H225	H	0.577858	-0.051588	-0.012280
H226	H	0.827858	0.198412	0.237720
H227	H	1.077858	0.448412	0.487720
H228	H	1.327858	0.698412	0.737720
F229	F	0.985073	0.142132	-0.462572
F230	F	1.235073	0.392132	-0.212572
F231	F	1.485073	0.642132	0.037428
F232	F	1.735073	0.892132	0.287428
F233	F	0.884247	-0.176701	0.009673
F234	F	1.134247	0.073299	0.259673
F235	F	1.384247	0.323299	0.509673
F236	F	1.634247	0.573299	0.759673
F237	F	0.884263	-0.340287	0.009683
F238	F	1.134263	-0.090287	0.259683
F239	F	1.384263	0.159713	0.509683
F240	F	1.634263	0.409713	0.759683
H241	H	1.081141	-0.186571	0.206787
H242	H	1.331141	0.063429	0.456787
H243	H	1.581141	0.313429	0.706787
H244	H	1.831141	0.563429	0.956787
H245	H	0.434218	-0.051898	-0.015032
H246	H	0.684218	0.198102	0.234968
H247	H	0.934218	0.448102	0.484968
H248	H	1.184218	0.698102	0.734968
F249	F	1.093850	-0.340241	0.219490
F250	F	1.343850	-0.090241	0.469490
F251	F	1.593850	0.159759	0.719490
F252	F	1.843850	0.409759	0.969490
H253	H	0.875011	0.075154	-0.442070
H254	H	1.125011	0.325154	-0.192070
H255	H	1.375011	0.575154	0.057930
H256	H	1.625011	0.825154	0.307930
H257	H	0.402989	-0.071766	0.228312
H258	H	0.652989	0.178234	0.478312
H259	H	0.902989	0.428234	0.728312
H260	H	1.152989	0.678234	0.978312
H261	H	0.559024	-0.125407	0.127822
H262	H	0.809024	0.124593	0.377822
H263	H	1.059024	0.374593	0.627822
H264	H	1.309024	0.624593	0.877822
H265	H	0.433165	0.050928	-0.014861
H266	H	0.683165	0.300928	0.235139
H267	H	0.933165	0.550928	0.485139
H268	H	1.183165	0.800928	0.735139
F269	F	0.585844	0.067530	-0.023300
F270	F	0.835844	0.317530	0.226700
F271	F	1.085844	0.567530	0.476700
F272	F	1.335844	0.817530	0.726700
F273	F	1.093888	-0.659839	0.219490
F274	F	1.343888	-0.409839	0.469490
F275	F	1.593888	-0.159839	0.719490
F276	F	1.843888	0.090161	0.969490
F277	F	1.127130	-0.067738	-0.482469
F278	F	1.377130	0.182262	-0.232469
F279	F	1.627130	0.432262	0.017531
F280	F	1.877130	0.682262	0.267531
H281	H	1.115965	0.050917	-0.474890
H282	H	1.365965	0.300917	-0.224890
H283	H	1.615965	0.550917	0.025110
H284	H	1.865965	0.800917	0.275110
F285	F	1.093901	-0.823419	0.219490
F286	F	1.343901	-0.573419	0.469490
F287	F	1.593901	-0.323419	0.719490
F288	F	1.843901	-0.073419	0.969490
H289	H	0.896994	-0.813558	0.022396
H290	H	1.146994	-0.563558	0.272396
H291	H	1.396994	-0.313558	0.522396
H292	H	1.646994	-0.063558	0.772396
F293	F	0.884277	-0.659884	0.009697
F294	F	1.134277	-0.409884	0.259697
F295	F	1.384277	-0.159884	0.509697
F296	F	1.634277	0.090116	0.759697
H297	H	0.402868	0.075151	0.226141
H298	H	0.652868	0.325151	0.476141
H299	H	0.902868	0.575151	0.726141
H300	H	1.152868	0.825151	0.976141
H301	H	1.118476	-0.051596	-0.330175
H302	H	1.368476	0.198404	-0.080175
H303	H	1.618476	0.448404	0.169825
H304	H	1.868476	0.698404	0.419825
H305	H	0.560155	0.125338	0.129860
H306	H	0.810155	0.375338	0.379860
H307	H	1.060155	0.625338	0.629860
H308	H	1.310155	0.875338	0.879860
F309	F	1.129933	0.067414	-0.325136
F310	F	1.379933	0.317414	-0.075136
F311	F	1.629933	0.567414	0.174864
F312	F	1.879933	0.817414	0.424864
F313	F	0.856079	0.075338	-0.289074
F314	F	1.106079	0.325338	-0.039074
F315	F	1.356079	0.575338	0.210926
F316	F	1.606079	0.825338	0.460926
F317	F	0.986299	0.141767	-0.304511
F318	F	1.236299	0.391767	-0.054511
F319	F	1.486299	0.641767	0.195489
F320	F	1.736299	0.891767	0.445489
F321	F	0.407923	-0.142503	0.121684
F322	F	0.657923	0.107497	0.371684
F323	F	0.907923	0.357497	0.621684
F324	F	1.157923	0.607497	0.871684
H325	H	0.970351	-0.125769	-0.455472
H326	H	1.220351	0.124231	-0.205472
H327	H	1.470351	0.374231	0.044528
H328	H	1.720351	0.624231	0.294528
F329	F	0.988714	-0.141742	-0.306619
F330	F	1.238714	0.108258	-0.056619
F331	F	1.488714	0.358258	0.193381
F332	F	1.738714	0.608258	0.443381
F333	F	0.851848	-0.071906	-0.445669
F334	F	1.101848	0.178094	-0.195669
F335	F	1.351848	0.428094	0.054331
F336	F	1.601848	0.678094	0.304331
F337	F	0.411218	0.142132	0.115881
F338	F	0.661218	0.392132	0.365881
F339	F	0.911218	0.642132	0.615881
F340	F	1.161218	0.892132	0.865881
F341	F	0.550228	0.075342	0.250373
F342	F	0.800228	0.325342	0.500373
F343	F	1.050228	0.575342	0.750373
F344	F	1.300228	0.825342	1.000373
H345	H	0.547060	-0.076567	0.228494
H346	H	0.797060	0.173433	0.478494
H347	H	1.047060	0.423433	0.728494
H348	H	1.297060	0.673433	0.978494
F349	F	0.857190	-0.077895	-0.287798
F350	F	1.107190	0.172105	-0.037798
F351	F	1.357190	0.422105	0.212202
F352	F	1.607190	0.672105	0.462202
