data_functionalizedCrystal
_audit_creation_method	'MofGen! by Chris Wilmer'
_symmetry_space_group_name_H-M	'P1'
_symmetry_Int_Tables_number	1
_symmetry_cell_setting	triclinic
loop_
_symmetry_equiv_pos_as_xyz
  x,y,z
_cell_length_a	19.121063
_cell_length_b	11.169417
_cell_length_c	11.169409
_cell_angle_alpha	90.019513
_cell_angle_beta	87.599247
_cell_angle_gamma	92.470085
loop_
_atom_site_label
_atom_site_type_symbol
_atom_site_fract_x
_atom_site_fract_y
_atom_site_fract_z
Zn1	Zn	-0.279532	1.814442	0.698841
Zn2	Zn	0.053801	2.147775	1.032174
Zn3	Zn	0.387135	2.481109	1.365507
Zn4	Zn	-0.397005	1.805708	0.506692
Zn5	Zn	-0.063672	2.139041	0.840025
Zn6	Zn	0.269661	2.472374	1.173359
Zn7	Zn	-0.279576	1.613725	0.498179
Zn8	Zn	0.053758	1.947058	0.831513
Zn9	Zn	0.387091	2.280391	1.164846
Zn10	Zn	-0.396949	1.605116	0.707334
Zn11	Zn	-0.063616	1.938449	1.040667
Zn12	Zn	0.269718	2.271783	1.374000
O13	O	-0.338266	1.709748	0.602761
O14	O	-0.004932	2.043081	0.936095
O15	O	0.328401	2.376414	1.269428
O16	O	-0.295121	1.981233	0.673360
O17	O	0.038213	2.314566	1.006693
O18	O	0.371546	2.647899	1.340027
O19	O	-0.381470	1.780188	0.337616
O20	O	-0.048137	2.113522	0.670949
O21	O	0.285197	2.446855	1.004283
O22	O	-0.181286	1.647608	0.517680
O23	O	0.152047	1.980942	0.851014
O24	O	0.485381	2.314275	1.184347
O25	O	-0.381428	1.974816	0.532189
O26	O	-0.048094	2.308149	0.865522
O27	O	0.285239	2.641482	1.198856
O28	O	-0.181254	1.795075	0.665105
O29	O	0.152079	2.128408	0.998439
O30	O	0.485413	2.461741	1.331772
O31	O	-0.295195	1.639139	0.331362
O32	O	0.038138	1.972473	0.664695
O33	O	0.371472	2.305806	0.998028
O34	O	-0.295140	1.444633	0.525916
O35	O	0.038193	1.777967	0.859249
O36	O	0.371526	2.111300	1.192583
O37	O	-0.381332	1.632936	0.874154
O38	O	-0.047998	1.966269	1.207487
O39	O	0.285335	2.299603	1.540821
O40	O	-0.381374	1.438309	0.679581
O41	O	-0.048040	1.771642	1.012914
O42	O	0.285293	2.104975	1.346247
O43	O	-0.295066	1.786727	0.867914
O44	O	0.038267	2.120060	1.201247
O45	O	0.371601	2.453394	1.534581
O46	O	-0.495282	1.771841	0.540424
O47	O	-0.161949	2.105174	0.873758
O48	O	0.171385	2.438507	1.207091
O49	O	-0.495241	1.624467	0.687835
O50	O	-0.161907	1.957800	1.021169
O51	O	0.171426	2.291133	1.354502
C52	C	-0.338256	1.397924	0.602747
C53	C	-0.004923	1.731257	0.936080
C54	C	0.328411	2.064590	1.269414
C55	C	-0.338269	1.264523	0.602770
C56	C	-0.004936	1.597856	0.936104
C57	C	0.328398	1.931189	1.269437
C58	C	-0.520745	1.696304	0.616001
C59	C	-0.187412	2.029638	0.949335
C60	C	0.145921	2.362971	1.282668
C61	C	-0.598811	1.690663	0.621706
C62	C	-0.265477	2.023996	0.955039
C63	C	0.067856	2.357330	1.288372
C64	C	-0.635484	1.764802	0.547700
C65	C	-0.302151	2.098136	0.881033
C66	C	0.031182	2.431469	1.214367
C67	C	-0.708835	1.759504	0.553072
C68	C	-0.375502	2.092837	0.886405
C69	C	-0.042169	2.426170	1.219739
C70	C	-0.745511	1.680059	0.632444
C71	C	-0.412178	2.013393	0.965777
C72	C	-0.078845	2.346726	1.299111
C73	C	-0.708832	1.605917	0.706458
C74	C	-0.375499	1.939250	1.039791
C75	C	-0.042166	2.272584	1.373124
C76	C	-0.635483	1.611222	0.701091
C77	C	-0.302150	1.944556	1.034424
C78	C	0.031184	2.277889	1.367758
C79	C	-0.966979	1.660204	0.652490
C80	C	-0.633646	1.993538	0.985823
C81	C	-0.300313	2.326871	1.319157
C82	C	-1.040334	1.654902	0.657849
C83	C	-0.707001	1.988235	0.991182
C84	C	-0.373667	2.321569	1.324515
C85	C	-1.040332	1.808491	0.504464
C86	C	-0.706999	2.141824	0.837797
C87	C	-0.373665	2.475158	1.171131
C88	C	-0.966981	1.813784	0.499099
C89	C	-0.633648	2.147117	0.832433
C90	C	-0.300314	2.480451	1.165766
C91	C	-0.930309	1.739647	0.573117
C92	C	-0.596975	2.072980	0.906450
C93	C	-0.263642	2.406313	1.239784
C94	C	-0.820488	1.674639	0.637934
C95	C	-0.487154	2.007972	0.971268
C96	C	-0.153821	2.341305	1.304601
C97	C	-0.855334	1.745074	0.567632
C98	C	-0.522000	2.078407	0.900965
C99	C	-0.188667	2.411741	1.234299
C100	C	-0.155073	1.723276	0.589496
C101	C	0.178260	2.056609	0.922829
C102	C	0.511593	2.389943	1.256163
C103	C	-0.077008	1.729041	0.583843
C104	C	0.256326	2.062374	0.917176
C105	C	0.589659	2.395708	1.250510
C106	C	-0.338188	1.709846	0.915798
C107	C	-0.004854	2.043179	1.249132
C108	C	0.328479	2.376512	1.582465
C109	C	-0.338154	1.709887	1.049196
C110	C	-0.004821	2.043221	1.382529
C111	C	0.328512	2.376554	1.715863
C112	C	-0.338276	2.022789	0.602777
C113	C	-0.004942	2.356123	0.936110
C114	C	0.328391	2.689456	1.269443
C115	C	-0.338280	2.156189	0.602783
C116	C	-0.004947	2.489522	0.936116
C117	C	0.328387	2.822856	1.269450
C118	C	-0.338293	1.709723	0.290939
C119	C	-0.004959	2.043056	0.624272
C120	C	0.328374	2.376390	0.957605
C121	C	-0.338128	1.709928	0.157527
C122	C	-0.004795	2.043262	0.490861
C123	C	0.328539	2.376595	0.824194
H124	H	-0.605628	1.829489	0.483062
H125	H	-0.272294	2.162822	0.816395
H126	H	0.061039	2.496156	1.149728
C127	C	-0.926649	1.578635	0.733885
C128	C	-0.593316	1.911969	1.067219
C129	C	-0.259982	2.245302	1.400552
H130	H	-0.958999	1.530550	0.781909
H131	H	-0.625666	1.863883	1.115242
H132	H	-0.292332	2.197217	1.448576
H133	H	-0.897983	1.626576	0.784129
H134	H	-0.564650	1.959909	1.117463
H135	H	-0.231316	2.293242	1.450796
H136	H	-0.898088	1.528430	0.685823
H137	H	-0.564755	1.861763	1.019156
H138	H	-0.231422	2.195097	1.352490
C139	C	-0.749174	1.518527	0.793762
C140	C	-0.415841	1.851861	1.127096
C141	C	-0.082507	2.185194	1.460429
H142	H	-0.798111	1.525975	0.786351
H143	H	-0.464778	1.859308	1.119685
H144	H	-0.131444	2.192642	1.453018
H145	H	-0.737106	1.536919	0.873535
H146	H	-0.403773	1.870252	1.206868
H147	H	-0.070439	2.203585	1.540202
H148	H	-0.737199	1.438760	0.775241
H149	H	-0.403866	1.772094	1.108575
H150	H	-0.070532	2.105427	1.441908
H151	H	-1.070194	1.590223	0.722504
H152	H	-0.736860	1.923556	1.055837
H153	H	-0.403527	2.256890	1.389170
C154	C	-1.080673	1.890043	0.423061
C155	C	-0.747339	2.223377	0.756394
C156	C	-0.414006	2.556710	1.089728
H157	H	-1.129610	1.875516	0.437628
H158	H	-0.796276	2.208849	0.770962
H159	H	-0.462943	2.542183	1.104295
H160	H	-1.068701	1.873391	0.341531
H161	H	-0.735367	2.206725	0.674864
H162	H	-0.402034	2.540058	1.008197
H163	H	-1.068602	1.971550	0.439824
H164	H	-0.735269	2.304883	0.773157
H165	H	-0.401935	2.638216	1.106491
C166	C	-0.749173	1.841051	0.471660
C167	C	-0.415840	2.174384	0.804993
C168	C	-0.082507	2.507718	1.138327
H169	H	-0.716825	1.889113	0.423609
H170	H	-0.383492	2.222446	0.756943
H171	H	-0.050159	2.555780	1.090276
H172	H	-0.777738	1.891260	0.519699
H173	H	-0.444405	2.224593	0.853032
H174	H	-0.111071	2.557927	1.186365
H175	H	-0.777835	1.793083	0.421424
H176	H	-0.444502	2.126417	0.754757
H177	H	-0.111169	2.459750	1.088090
C178	C	-0.595142	1.529672	0.782499
C179	C	-0.261809	1.863005	1.115832
C180	C	0.071525	2.196338	1.449165
H181	H	-0.627489	1.481591	0.830533
H182	H	-0.294155	1.814924	1.163866
H183	H	0.039178	2.148258	1.497200
H184	H	-0.566481	1.577634	0.832732
H185	H	-0.233148	1.910967	1.166065
H186	H	0.100186	2.244300	1.499398
H187	H	-0.566576	1.479462	0.734452
H188	H	-0.233243	1.812795	1.067785
H189	H	0.100091	2.146128	1.401118
H190	H	-0.937121	1.878474	0.434468
H191	H	-0.603788	2.211807	0.767801
H192	H	-0.270454	2.545141	1.101135
H193	H	-0.825470	1.809762	0.503012
H194	H	-0.492137	2.143096	0.836345
H195	H	-0.158803	2.476429	1.169678
H196	H	-0.850357	1.609952	0.702557
H197	H	-0.517024	1.943286	1.035890
H198	H	-0.183691	2.276619	1.369224
