data_functionalizedCrystal
_audit_creation_method	'MofGen! by Chris Wilmer'
_symmetry_space_group_name_H-M	'P1'
_symmetry_Int_Tables_number	1
_symmetry_cell_setting	triclinic
loop_
_symmetry_equiv_pos_as_xyz
  x,y,z
_cell_length_a	29.839134
_cell_length_b	29.839131
_cell_length_c	19.805399
_cell_angle_alpha	89.962782
_cell_angle_beta	89.969311
_cell_angle_gamma	90.027971
loop_
_atom_site_label
_atom_site_type_symbol
_atom_site_fract_x
_atom_site_fract_y
_atom_site_fract_z
Zn1	Zn	0.686767	-0.178951	-0.382875
Zn2	Zn	0.686699	-0.254078	-0.269668
Zn3	Zn	0.611642	-0.178954	-0.269678
Zn4	Zn	0.611606	-0.254045	-0.382792
O5	O	0.649178	-0.216507	-0.326253
O6	O	0.749625	-0.188929	-0.367888
O7	O	0.676729	-0.244128	-0.174952
O8	O	0.621651	-0.116086	-0.284732
O9	O	0.749575	-0.244125	-0.284715
O10	O	0.676845	-0.116084	-0.367898
O11	O	0.621585	-0.188934	-0.174960
O12	O	0.548770	-0.188902	-0.284652
O13	O	0.621590	-0.244068	-0.477520
O14	O	0.548744	-0.244071	-0.367757
O15	O	0.676810	-0.188897	-0.477581
O16	O	0.676694	-0.316941	-0.284635
O17	O	0.621524	-0.316916	-0.367748
C18	C	0.532456	-0.216483	-0.326197
C19	C	0.482521	-0.216484	-0.326189
C20	C	0.125936	-0.187738	-0.283069
C21	C	0.313609	-0.187725	-0.283028
O22	O	0.337874	-0.163246	-0.246302
N23	N	0.337076	-0.216492	-0.326223
C24	C	0.313623	-0.245261	-0.369435
O25	O	0.337890	-0.269725	-0.406180
C26	C	0.125951	-0.245271	-0.369479
C27	C	0.102485	-0.216506	-0.326276
C28	C	0.102470	-0.158975	-0.239870
C29	C	0.055555	-0.158980	-0.239878
C30	C	0.032105	-0.187748	-0.283085
C31	C	0.055570	-0.216511	-0.326284
C32	C	0.102498	-0.274038	-0.412695
C33	C	0.055577	-0.274038	-0.412703
C34	C	0.032112	-0.245272	-0.369500
C35	C	-0.014796	-0.245285	-0.369500
N36	N	-0.038263	-0.216518	-0.326304
C37	C	-0.014813	-0.187750	-0.283097
C38	C	0.412154	-0.245255	-0.369408
C39	C	0.459071	-0.245253	-0.369397
C40	C	0.459054	-0.187716	-0.282990
C41	C	0.412135	-0.187720	-0.282998
C42	C	0.388686	-0.216488	-0.326213
C43	C	-0.113339	-0.187763	-0.283117
C44	C	-0.160259	-0.187772	-0.283127
C45	C	-0.160237	-0.245307	-0.369536
C46	C	-0.113321	-0.245300	-0.369524
C47	C	-0.089874	-0.216524	-0.326312
O48	O	-0.039090	-0.269748	-0.406211
O49	O	-0.039088	-0.163282	-0.246368
C50	C	0.172851	-0.187733	-0.283061
C51	C	0.196316	-0.216496	-0.326260
C52	C	0.172866	-0.245264	-0.369467
C53	C	0.243234	-0.216494	-0.326248
C54	C	0.266684	-0.187725	-0.283041
C55	C	0.243217	-0.158959	-0.239845
C56	C	0.196301	-0.158964	-0.239853
C57	C	0.196334	-0.274031	-0.412663
C58	C	0.243250	-0.274023	-0.412651
C59	C	0.266700	-0.245255	-0.369443
C60	C	0.649110	-0.333229	-0.326196
C61	C	0.649122	-0.383164	-0.326194
C62	C	0.677912	-0.692771	-0.369619
C63	C	0.677961	-0.880444	-0.369660
O64	O	0.702372	-0.904678	-0.406539
N65	N	0.649255	-0.903949	-0.326328
C66	C	0.620533	-0.880532	-0.282987
O67	O	0.596114	-0.904831	-0.246136
C68	C	0.620482	-0.692860	-0.282950
C69	C	0.649193	-0.669358	-0.326279
C70	C	0.706620	-0.669269	-0.412946
C71	C	0.706610	-0.622353	-0.412933
C72	C	0.677890	-0.598940	-0.369593
C73	C	0.649182	-0.622443	-0.326266
C74	C	0.591758	-0.669445	-0.239612
C75	C	0.591747	-0.622524	-0.239608
C76	C	0.620458	-0.599021	-0.282937
C77	C	0.620452	-0.552114	-0.282913
N78	N	0.649158	-0.528609	-0.326245
C79	C	0.677877	-0.552022	-0.369585
C80	C	0.620562	-0.979063	-0.283008
C81	C	0.620575	-1.025981	-0.283016
C82	C	0.678003	-1.025889	-0.369691
C83	C	0.677991	-0.978971	-0.369678
C84	C	0.649268	-0.955558	-0.326340
C85	C	0.677853	-0.453497	-0.369553
C86	C	0.677841	-0.406577	-0.369534
C87	C	0.620412	-0.406672	-0.282863
C88	C	0.620425	-0.453588	-0.282879
C89	C	0.649147	-0.476999	-0.326230
O90	O	0.596050	-0.527851	-0.246059
O91	O	0.702285	-0.527716	-0.406440
C92	C	0.677923	-0.739687	-0.369632
C93	C	0.649214	-0.763189	-0.326306
C94	C	0.620495	-0.739776	-0.282966
C95	C	0.649228	-0.810107	-0.326314
C96	C	0.677947	-0.833520	-0.369654
C97	C	0.706653	-0.810015	-0.412985
C98	C	0.706642	-0.763100	-0.412972
C99	C	0.591789	-0.763280	-0.239634
C100	C	0.591803	-0.810196	-0.239651
C101	C	0.620522	-0.833609	-0.282990
C102	C	0.766357	-0.216531	-0.326310
C103	C	0.816291	-0.216541	-0.326334
C104	C	0.649204	-0.216479	-0.502796
C105	C	0.649214	-0.216466	-0.578028
C106	C	0.649260	-0.099328	-0.326325
C107	C	0.649294	-0.049394	-0.326356
C108	C	0.677968	-0.187737	-0.613405
C109	C	0.677973	-0.187724	-0.684093
C110	C	0.649226	-0.216443	-0.719404
C111	C	0.620468	-0.245173	-0.684022
C112	C	0.620462	-0.245184	-0.613335
C113	C	0.620494	-0.245132	-0.969095
C114	C	0.620503	-0.245120	-1.039788
C115	C	0.678005	-0.187672	-1.039854
C116	C	0.677998	-0.187682	-0.969167
C117	C	0.649240	-0.216411	-0.933791
C118	C	0.649235	-0.216424	-0.857143
C119	C	0.649233	-0.216432	-0.796051
C120	C	0.649179	-0.216503	-0.150397
C121	C	0.649256	-0.216388	-0.075166
H122	H	0.121558	-0.135545	-0.204685
C123	C	-0.232186	-0.162242	-0.244741
C124	C	-0.186052	-0.156160	-0.235622
H125	H	-0.248107	-0.142730	-0.215407
H126	H	-0.239856	-0.155697	-0.290227
H127	H	-0.239883	-0.192423	-0.234759
H128	H	-0.178355	-0.125979	-0.245608
H129	H	-0.178378	-0.162702	-0.190125
H130	H	0.701380	-0.164352	-0.584660
C131	C	0.238542	-0.330892	-0.498072
C132	C	0.269039	-0.305644	-0.460146
H133	H	0.254464	-0.350408	-0.527398
H134	H	0.220227	-0.348055	-0.468535
H135	H	0.220259	-0.311334	-0.524013
H136	H	0.287321	-0.325202	-0.434202
H137	H	0.287363	-0.288480	-0.489687
C138	C	0.560016	-0.251430	-0.533809
C139	C	0.588855	-0.276767	-0.574451
H140	H	0.540500	-0.270930	-0.509810
H141	H	0.577134	-0.234334	-0.502663
H142	H	0.542851	-0.231850	-0.561395
H143	H	0.606023	-0.296346	-0.546865
H144	H	0.571735	-0.293871	-0.605601
C145	C	-0.118019	-0.302171	-0.454937
C146	C	-0.087526	-0.276919	-0.417012
H147	H	-0.102095	-0.321686	-0.484262
H148	H	-0.136333	-0.319335	-0.425400
H149	H	-0.136305	-0.282616	-0.480880
H150	H	-0.069242	-0.296474	-0.391065
H151	H	-0.069204	-0.259754	-0.446553
C152	C	0.738298	-0.506201	-0.379088
C153	C	0.709426	-0.479224	-0.417203
H154	H	0.757789	-0.522086	-0.408505
H155	H	0.755485	-0.487902	-0.349624
H156	H	0.721200	-0.526918	-0.353294
H157	H	0.726524	-0.458506	-0.442994
H158	H	0.692237	-0.497526	-0.446679
H159	H	0.701409	-0.164298	-0.940421
H160	H	0.597050	-0.472724	-0.247591
C161	C	0.763416	-0.805225	-0.498668
C162	C	0.738218	-0.835757	-0.460631
H163	H	0.782901	-0.821119	-0.528080
H164	H	0.743828	-0.786924	-0.524516
H165	H	0.780613	-0.786930	-0.469201
H166	H	0.721018	-0.854050	-0.490098
H167	H	0.757809	-0.854065	-0.434781
H168	H	0.701420	-0.164278	-1.068665
H169	H	0.701222	-0.387443	-0.404818
H170	H	0.730007	-0.688327	-0.448242
C171	C	0.598560	-0.392294	-0.168212
C172	C	0.588841	-0.380932	-0.235229
H173	H	0.579068	-0.376400	-0.138810
H174	H	0.594456	-0.423596	-0.162018
H175	H	0.628747	-0.384585	-0.158358
H176	H	0.558655	-0.388644	-0.245085
H177	H	0.592942	-0.349623	-0.241426
C178	C	0.703511	-1.097775	-0.408190
C179	C	0.709568	-1.051631	-0.417336
H180	H	0.722994	-1.113667	-0.437609
H181	H	0.710112	-1.105478	-0.362732
H182	H	0.673321	-1.105473	-0.418037
H183	H	0.739758	-1.043932	-0.407484
H184	H	0.702971	-1.043925	-0.462805
C185	C	0.598531	-0.321237	-0.705720
C186	C	0.588868	-0.276742	-0.722833
H187	H	0.579020	-0.340727	-0.729677
H188	H	0.628708	-0.327814	-0.717321
H189	H	0.594410	-0.325349	-0.658557
H190	H	0.592992	-0.272630	-0.769995
H191	H	0.558683	-0.270164	-0.711236
H192	H	0.478155	-0.164292	-0.247808
H193	H	0.568423	-0.829327	-0.204360
H194	H	0.597171	-0.960004	-0.247715
C195	C	0.563652	-0.301903	-1.032625
C196	C	0.588898	-0.276686	-1.078602
H197	H	0.544140	-0.321387	-1.056590
H198	H	0.583207	-0.319098	-1.005056
H199	H	0.546480	-0.282323	-1.005057
H200	H	0.606072	-0.296266	-1.106168
H201	H	0.569340	-0.259490	-1.106183
C202	C	0.763371	-0.626990	-0.498609
C203	C	0.738166	-0.596524	-0.460568
H204	H	0.782851	-0.611046	-0.528022
H205	H	0.780570	-0.645291	-0.469150
H206	H	0.743784	-0.645293	-0.524462
H207	H	0.757753	-0.578224	-0.434711
H208	H	0.720966	-0.578216	-0.490031
H209	H	-0.179338	-0.268731	-0.404712
H210	H	0.393065	-0.268682	-0.404600
H211	H	0.177200	-0.135540	-0.204673
C212	C	0.767062	-0.710294	-0.422480
C213	C	0.738200	-0.737271	-0.460606
H214	H	0.786547	-0.694352	-0.451891
H215	H	0.749959	-0.689631	-0.396677
H216	H	0.784260	-0.728604	-0.393023
H217	H	0.721000	-0.718960	-0.490060
H218	H	0.755305	-0.757935	-0.486420
C219	C	-0.118082	-0.130899	-0.197695
C220	C	-0.087570	-0.156138	-0.235610
H221	H	-0.102172	-0.111380	-0.168361
H222	H	-0.136359	-0.113740	-0.227239
H223	H	-0.136404	-0.150462	-0.171763
H224	H	-0.069251	-0.136575	-0.261546
H225	H	-0.069286	-0.173299	-0.206063
C226	C	0.534978	-0.627330	-0.153941
C227	C	0.560172	-0.596789	-0.191966
H228	H	0.515488	-0.611443	-0.124527
H229	H	0.517789	-0.645625	-0.183410
H230	H	0.554570	-0.645630	-0.128089
H231	H	0.540579	-0.578492	-0.217823
H232	H	0.577361	-0.578487	-0.162494
C233	C	0.614190	-0.305576	-0.889571
C234	C	0.588882	-0.276713	-0.930223
H235	H	0.594672	-0.325072	-0.865571
H236	H	0.633753	-0.322758	-0.917145
H237	H	0.631304	-0.288472	-0.858420
H238	H	0.571771	-0.293817	-0.961377
H239	H	0.569311	-0.259529	-0.902647
H240	H	0.701370	-0.959838	-0.404961
C241	C	0.041179	-0.296014	-0.527261
C242	C	0.029802	-0.305660	-0.460208
H243	H	0.025268	-0.315538	-0.556586
H244	H	0.033504	-0.265841	-0.537246
H245	H	0.072481	-0.300129	-0.533428
H246	H	-0.001500	-0.301542	-0.454040
H247	H	0.037474	-0.335840	-0.450219
C248	C	0.257683	-0.082857	-0.207087
C249	C	0.268997	-0.127336	-0.192348
H250	H	0.273599	-0.063336	-0.177764
H251	H	0.265395	-0.076325	-0.252577
H252	H	0.226382	-0.078746	-0.200904
H253	H	0.300298	-0.131448	-0.198536
H254	H	0.261288	-0.133871	-0.146848
H255	H	0.393033	-0.164295	-0.247821
C256	C	0.563807	-1.021347	-0.197347
C257	C	0.589018	-1.051811	-0.235383
H258	H	0.544322	-1.037293	-0.167945
H259	H	0.583387	-1.003048	-0.171488
H260	H	0.546610	-1.003043	-0.226814
H261	H	0.606218	-1.070112	-0.205915
H262	H	0.569435	-1.070118	-0.261244
H263	H	0.568378	-0.688572	-0.204328
H264	H	0.177246	-0.297457	-0.447849
C265	C	0.454364	-0.302122	-0.454810
C266	C	0.484861	-0.276875	-0.416883
H267	H	0.470286	-0.321641	-0.484131
H268	H	0.436046	-0.319281	-0.425273
H269	H	0.436084	-0.282564	-0.480755
H270	H	0.503140	-0.296433	-0.390934
H271	H	0.503188	-0.259714	-0.446424
H272	H	0.701389	-0.164331	-0.712894
C273	C	0.060265	-0.102103	-0.154478
C274	C	0.029766	-0.127354	-0.192395
H275	H	0.044345	-0.082575	-0.125168
H276	H	0.078541	-0.121655	-0.128527
H277	H	0.078587	-0.084949	-0.184026
H278	H	0.011445	-0.144511	-0.162847
H279	H	0.011481	-0.107800	-0.218348
C280	C	0.535033	-0.768093	-0.153957
C281	C	0.560222	-0.737549	-0.191985
H282	H	0.515548	-0.752208	-0.124534
H283	H	0.517841	-0.786385	-0.183424
H284	H	0.554630	-0.786395	-0.128116
H285	H	0.540626	-0.719249	-0.217831
H286	H	0.577417	-0.719249	-0.162515
H287	H	0.121596	-0.297462	-0.447875
