data_functionalizedCrystal
_audit_creation_method	'MofGen! by Chris Wilmer'
_symmetry_space_group_name_H-M	'P1'
_symmetry_Int_Tables_number	1
_symmetry_cell_setting	triclinic
loop_
_symmetry_equiv_pos_as_xyz
  x,y,z
_cell_length_a	16.992694
_cell_length_b	13.339070
_cell_length_c	16.053802
_cell_angle_alpha	93.267614
_cell_angle_beta	87.249047
_cell_angle_gamma	103.148759
loop_
_atom_site_label
_atom_site_type_symbol
_atom_site_fract_x
_atom_site_fract_y
_atom_site_fract_z
O1	O	1.090314	0.214289	-0.069315
O2	O	0.861508	0.211892	-0.069340
O3	O	0.949651	0.063704	-0.069328
O4	O	1.002170	0.362477	-0.069327
O5	O	0.944792	0.071825	0.069530
O6	O	0.856649	0.220013	0.069518
O7	O	1.085454	0.222410	0.069543
Zn8	Zn	0.970280	0.222501	0.091577
Zn9	Zn	0.976682	0.211801	-0.091374
O10	O	0.997311	0.370598	0.069531
C11	C	0.829196	0.212871	0.000086
C12	C	0.740151	0.203676	0.000076
C13	C	0.709211	0.292389	0.000077
C14	C	0.625543	0.283745	0.000089
C15	C	0.572817	0.186385	0.000093
C16	C	0.603763	0.097665	0.000095
C17	C	0.687429	0.106311	0.000090
C18	C	0.321423	0.150552	0.000116
C19	C	0.237752	0.141912	0.000119
C20	C	0.259538	0.327993	0.000114
C21	C	0.343205	0.336630	0.000103
C22	C	0.374143	0.247910	0.000109
N23	N	0.487295	0.177547	0.000103
N24	N	0.459663	0.256750	0.000106
C25	C	0.938350	0.029358	0.000099
C26	C	0.911906	-0.085082	0.000093
C27	C	1.117519	-0.433251	0.000116
C28	C	1.142367	-0.325729	0.000126
C29	C	1.084754	-0.265562	0.000118
C30	C	1.002289	-0.312928	0.000099
C31	C	0.977439	-0.420460	0.000095
C32	C	0.944673	-0.252771	0.000097
C33	C	0.862209	-0.300136	0.000078
C34	C	0.837363	-0.407658	0.000074
C35	C	0.894976	-0.467825	0.000082
C36	C	0.969524	-0.145239	0.000101
C37	C	0.829443	-0.132447	0.000080
C38	C	0.804596	-0.239970	0.000070
C39	C	1.117767	0.221431	0.000115
C40	C	1.206811	0.230626	0.000120
C41	C	1.008612	0.404944	0.000102
C42	C	1.035056	0.519384	0.000103
N43	N	0.965916	0.229803	0.216437
N44	N	0.981051	0.204492	-0.216234
C45	C	1.003445	0.166774	0.260136
C46	C	1.000402	0.171892	0.347543
C47	C	0.959834	0.240045	0.391248
C48	C	0.922300	0.303076	0.347543
C49	C	0.925339	0.297952	0.260138
C50	C	0.946555	0.262399	0.652656
C51	C	0.943522	0.267520	0.740067
C52	C	1.021623	0.136334	0.740060
C53	C	1.024662	0.131221	0.652654
C54	C	0.987124	0.194248	0.608956
N55	N	0.956725	0.245281	0.480592
N56	N	0.990229	0.189006	0.519615
H57	H	0.194823	0.062627	0.000122
H58	H	1.104990	-0.178013	0.000126
O59	O	0.868178	-0.583800	0.000082
H60	H	0.893849	-0.618220	-0.056509
O61	O	0.400062	0.441647	0.000106
H62	H	0.440669	0.446736	-0.056496
H63	H	1.209509	-0.287171	0.000142
H64	H	1.036667	-0.106684	0.000116
O65	O	1.179654	-0.498139	0.000134
H66	H	1.148518	-0.580865	0.000127
H67	H	1.036484	0.111281	0.224557
O68	O	0.748420	-0.458751	0.000064
H69	H	0.712532	-0.398854	0.000054
H70	H	0.737452	-0.278550	0.000055
O71	O	0.354785	0.054863	0.000114
H72	H	0.390402	0.057657	0.056713
O73	O	0.767293	-0.067569	0.000068
H74	H	0.798427	0.015157	0.000064
O75	O	1.040898	0.103932	0.394679
H76	H	1.069633	0.055697	0.349603
O77	O	0.878549	0.376588	0.394683
H78	H	0.906764	0.456705	0.377889
H79	H	1.052183	0.085019	0.775647
O80	O	0.720807	0.010629	0.000086
H81	H	0.670089	-0.058525	0.000083
H82	H	0.234339	0.400223	0.000111
H83	H	1.057695	0.075725	0.617071
H84	H	0.910485	0.323023	0.775648
O85	O	0.906080	0.330385	0.605529
H86	H	0.877371	0.378644	0.650607
O87	O	0.884861	0.365924	0.212991
H88	H	0.911909	0.448016	0.229743
O89	O	0.766079	0.397400	0.000080
H90	H	0.730504	0.457635	0.000094
O91	O	0.546898	-0.007347	0.000107
H92	H	0.510235	-0.019057	-0.056490
O93	O	0.592169	0.379427	0.000090
H94	H	0.642888	0.448579	0.000076
