data_functionalizedCrystal
_audit_creation_method	'MofGen! by Chris Wilmer'
_symmetry_space_group_name_H-M	'P1'
_symmetry_Int_Tables_number	1
_symmetry_cell_setting	triclinic
loop_
_symmetry_equiv_pos_as_xyz
  x,y,z
_cell_length_a	10.686220
_cell_length_b	16.120484
_cell_length_c	16.120297
_cell_angle_alpha	84.385569
_cell_angle_beta	82.988280
_cell_angle_gamma	97.070967
loop_
_atom_site_label
_atom_site_type_symbol
_atom_site_fract_x
_atom_site_fract_y
_atom_site_fract_z
Zn1	Zn	1.879493	-0.256272	0.389220
Zn2	Zn	2.212827	0.077062	0.722553
Zn3	Zn	2.546160	0.410395	1.055887
Zn4	Zn	1.879333	-0.388970	0.256539
Zn5	Zn	2.212666	-0.055636	0.589872
Zn6	Zn	2.546000	0.277697	0.923206
Zn7	Zn	1.678100	-0.259974	0.260207
Zn8	Zn	2.011434	0.073359	0.593540
Zn9	Zn	2.344767	0.406693	0.926873
Zn10	Zn	1.655321	-0.407986	0.408208
Zn11	Zn	1.988655	-0.074653	0.741542
Zn12	Zn	2.321988	0.258680	1.074875
O13	O	1.773062	-0.328300	0.328544
O14	O	2.106395	0.005033	0.661877
O15	O	2.439729	0.338366	0.995210
O16	O	2.057505	-0.264366	0.362138
O17	O	2.390839	0.068967	0.695472
O18	O	2.724172	0.402300	1.028805
O19	O	1.862105	-0.365449	0.139559
O20	O	2.195438	-0.032116	0.472892
O21	O	2.528772	0.301218	0.806226
O22	O	1.714416	-0.142004	0.270909
O23	O	2.047749	0.191329	0.604242
O24	O	2.381083	0.524662	0.937575
O25	O	2.057388	-0.361859	0.264658
O26	O	2.390721	-0.028526	0.597992
O27	O	2.724054	0.304808	0.931325
O28	O	1.862378	-0.139284	0.365694
O29	O	2.195712	0.194049	0.699028
O30	O	2.529045	0.527382	1.032361
O31	O	1.714260	-0.270676	0.142253
O32	O	2.047594	0.062657	0.475587
O33	O	2.380927	0.395990	0.808920
O34	O	1.497046	-0.289116	0.289321
O35	O	1.830379	0.044217	0.622654
O36	O	2.163712	0.377551	0.955987
O37	O	1.675592	-0.394270	0.523156
O38	O	2.008926	-0.060937	0.856489
O39	O	2.342259	0.272396	1.189823
O40	O	1.480310	-0.397860	0.398057
O41	O	1.813643	-0.064527	0.731390
O42	O	2.146977	0.268806	1.064724
O43	O	1.840291	-0.282806	0.509206
O44	O	2.173624	0.050527	0.842539
O45	O	2.506957	0.383861	1.175872
O46	O	1.840017	-0.508971	0.283070
O47	O	2.173351	-0.175638	0.616404
O48	O	2.506684	0.157696	0.949737
O49	O	1.675437	-0.522942	0.394501
O50	O	2.008770	-0.189609	0.727834
O51	O	2.342104	0.143724	1.061167
C52	C	1.442516	-0.345954	0.346148
C53	C	1.775849	-0.012621	0.679481
C54	C	2.109182	0.320713	1.012814
C55	C	1.301103	-0.353528	0.353700
C56	C	1.634436	-0.020194	0.687033
C57	C	1.967770	0.313139	1.020367
C58	C	1.755271	-0.546417	0.340464
C59	C	2.088604	-0.213083	0.673798
C60	C	2.421938	0.120250	1.007131
C61	C	1.747774	-0.639723	0.345586
C62	C	2.081107	-0.306390	0.678919
C63	C	2.414441	0.026944	1.012253
C64	C	1.734092	-0.810554	0.354954
C65	C	2.067426	-0.477221	0.688287
C66	C	2.400759	-0.143888	1.021621
C67	C	1.812259	-0.845195	0.302135
C68	C	2.145592	-0.511861	0.635468
C69	C	2.478925	-0.178528	0.968801
C70	C	1.804646	-0.940251	0.307347
C71	C	2.137980	-0.606918	0.640680
C72	C	2.471313	-0.273584	0.974014
C73	C	1.741703	-0.715490	0.349743
C74	C	2.075036	-0.382156	0.683076
C75	C	2.408370	-0.048823	1.016409
C76	C	2.104899	-0.310579	0.310871
C77	C	2.438233	0.022755	0.644204
C78	C	2.771566	0.356088	0.977538
C79	C	2.246308	-0.303026	0.303340
C80	C	2.579642	0.030307	0.636673
C81	C	2.912975	0.363640	0.970007
C82	C	1.755418	-0.340246	0.547490
C83	C	2.088752	-0.006913	0.880824
C84	C	2.422085	0.326420	1.214157
C85	C	1.747900	-0.345337	0.640792
C86	C	2.081233	-0.012004	0.974126
C87	C	2.414566	0.321330	1.307459
C88	C	1.790956	-0.109332	0.316593
C89	C	2.124289	0.224002	0.649926
C90	C	2.457623	0.557335	0.983259
C91	C	1.798581	-0.016020	0.311500
C92	C	2.131915	0.317313	0.644833
C93	C	2.465248	0.650646	0.978166
C94	C	1.790715	-0.316336	0.110441
C95	C	2.124049	0.016997	0.443775
C96	C	2.457382	0.350330	0.777108
C97	C	1.798500	-0.310996	0.017114
C98	C	2.131833	0.022337	0.350447
C99	C	2.465166	0.355671	0.683780
C100	C	1.734127	-0.354615	0.811617
C101	C	2.067461	-0.021282	1.144950
C102	C	2.400794	0.312052	1.478284
C103	C	1.812268	-0.301721	0.846295
C104	C	2.145601	0.031613	1.179628
C105	C	2.478935	0.364946	1.512961
C106	C	1.804605	-0.306883	0.941347
C107	C	2.137938	0.026450	1.274681
C108	C	2.471272	0.359783	1.608014
C109	C	1.741789	-0.349454	0.716556
C110	C	2.075122	-0.016121	1.049889
C111	C	2.408455	0.317213	1.383223
H112	H	1.307581	-0.253997	0.254447
H113	H	1.640915	0.079337	0.587780
H114	H	1.974248	0.412670	0.921113
H115	H	1.239823	-0.402566	0.402591
H116	H	1.573157	-0.069232	0.735925
H117	H	1.906490	0.264101	1.069258
H118	H	1.661481	-0.403773	0.853313
H119	H	1.994814	-0.070440	1.186646
H120	H	2.328147	0.262893	1.519979
H121	H	1.884895	-0.803461	0.253000
H122	H	2.218229	-0.470128	0.586333
H123	H	2.551562	-0.136794	0.919667
C124	C	1.635956	-0.866932	0.421320
C125	C	1.969289	-0.533599	0.754654
C126	C	2.302623	-0.200265	1.087987
N127	N	1.562035	-0.909405	0.471303
N128	N	1.895368	-0.576072	0.804636
N129	N	2.228702	-0.242738	1.137970
H130	H	1.884920	-0.252559	0.804596
H131	H	2.218253	0.080775	1.137930
H132	H	2.551587	0.414108	1.471263
