data_functionalizedCrystal
_audit_creation_method	'MofGen! by Chris Wilmer'
_symmetry_space_group_name_H-M	'P1'
_symmetry_Int_Tables_number	1
_symmetry_cell_setting	triclinic
loop_
_symmetry_equiv_pos_as_xyz
  x,y,z
_cell_length_a	21.295420
_cell_length_b	21.295417
_cell_length_c	11.169409
_cell_angle_alpha	89.958601
_cell_angle_beta	89.976675
_cell_angle_gamma	90.028757
loop_
_atom_site_label
_atom_site_type_symbol
_atom_site_fract_x
_atom_site_fract_y
_atom_site_fract_z
Zn1	Zn	0.962347	-0.250588	-0.678579
Zn2	Zn	1.462347	0.249412	-0.178579
Zn3	Zn	0.962252	-0.355876	-0.477864
Zn4	Zn	1.462252	0.144124	0.022136
Zn5	Zn	0.857073	-0.250621	-0.477901
Zn6	Zn	1.357073	0.249379	0.022099
Zn7	Zn	0.857039	-0.355820	-0.678497
Zn8	Zn	1.357039	0.144180	-0.178497
O9	O	0.909678	-0.303226	-0.578210
O10	O	1.409678	0.196774	-0.078210
O11	O	1.050424	-0.264564	-0.651973
O12	O	1.550424	0.235436	-0.151973
O13	O	0.948274	-0.341951	-0.309919
O14	O	1.448274	0.158049	0.190081
O15	O	0.871091	-0.162527	-0.504572
O16	O	1.371091	0.337473	-0.004572
O17	O	1.050354	-0.341918	-0.504509
O18	O	1.550354	0.158082	-0.004509
O19	O	0.948436	-0.162503	-0.652009
O20	O	1.448436	0.337497	-0.152009
O21	O	0.870999	-0.264621	-0.309947
O22	O	1.370999	0.235379	0.190053
O23	O	0.768979	-0.264567	-0.504492
O24	O	1.268979	0.235433	-0.004492
O25	O	0.871035	-0.341823	-0.846458
O26	O	1.371035	0.158177	-0.346458
O27	O	0.768955	-0.341855	-0.651869
O28	O	1.268955	0.158145	-0.151869
O29	O	0.948404	-0.264509	-0.846518
O30	O	1.448404	0.235491	-0.346518
O31	O	0.948242	-0.443958	-0.504429
O32	O	1.448242	0.056042	-0.004429
O33	O	0.870942	-0.443917	-0.651833
O34	O	1.370942	0.056083	-0.151833
C35	C	0.746126	-0.303209	-0.578176
C36	C	1.246126	0.196791	-0.078176
C37	C	0.676158	-0.303217	-0.578190
C38	C	1.176158	0.196783	-0.078190
C39	C	0.176704	-0.343544	-0.654875
C40	C	0.676704	0.156456	-0.154875
C41	C	0.242446	-0.343545	-0.654862
C42	C	0.742446	0.156455	-0.154862
C43	C	0.275319	-0.303240	-0.578248
C44	C	0.775319	0.196760	-0.078248
C45	C	0.242443	-0.262944	-0.501619
C46	C	0.742443	0.237056	-0.001619
C47	C	0.176702	-0.262949	-0.501625
C48	C	0.676702	0.237051	-0.001625
N49	N	0.378559	-0.248124	-0.569225
N50	N	0.878559	0.251876	-0.069225
N51	N	0.441011	-0.248121	-0.569226
N52	N	0.941011	0.251879	-0.069226
C53	C	0.473393	-0.303223	-0.578223
C54	C	0.973393	0.196777	-0.078223
N55	N	0.440965	-0.358329	-0.587242
N56	N	0.940965	0.141671	-0.087242
N57	N	0.378508	-0.358331	-0.587247
N58	N	0.878508	0.141669	-0.087247
C59	C	0.346604	-0.303230	-0.578232
C60	C	0.846604	0.196770	-0.078232
C61	C	0.577547	-0.343520	-0.654827
C62	C	1.077547	0.156480	-0.154827
C63	C	0.643290	-0.343521	-0.654806
C64	C	1.143290	0.156479	-0.154806
C65	C	0.643286	-0.262915	-0.501569
C66	C	1.143286	0.237085	-0.001569
C67	C	0.577543	-0.262919	-0.501584
C68	C	1.077543	0.237081	-0.001584
C69	C	0.544678	-0.303221	-0.578219
C70	C	1.044678	0.196779	-0.078219
C71	C	0.909595	-0.466778	-0.578144
C72	C	1.409595	0.033222	-0.078144
C73	C	0.909617	-0.536746	-0.578156
C74	C	1.409617	-0.036746	-0.078156
C75	C	0.949903	-0.569613	-0.501481
C76	C	1.449903	-0.069613	-0.001481
C77	C	0.949932	-0.635355	-0.501508
C78	C	1.449932	-0.135355	-0.001508
C79	C	0.909665	-0.668228	-0.578197
C80	C	1.409665	-0.168228	-0.078197
C81	C	0.869377	-0.635353	-0.654887
C82	C	1.369377	-0.135353	-0.154887
C83	C	0.869353	-0.569612	-0.654866
C84	C	1.369353	-0.069612	-0.154866
N85	N	0.854598	-0.771492	-0.587335
N86	N	1.354598	-0.271492	-0.087335
N87	N	0.854623	-0.833943	-0.587348
N88	N	1.354623	-0.333943	-0.087348
C89	C	0.909736	-0.866303	-0.578266
C90	C	1.409736	-0.366303	-0.078266
N91	N	0.964825	-0.833852	-0.569147
N92	N	1.464825	-0.333852	-0.069147
N93	N	0.964800	-0.771395	-0.569129
N94	N	1.464800	-0.271395	-0.069129
C95	C	0.909687	-0.739514	-0.578229
C96	C	1.409687	-0.239514	-0.078229
C97	C	0.950056	-0.970456	-0.501616
C98	C	1.450056	-0.470456	-0.001616
C99	C	0.950087	-1.036199	-0.501652
C100	C	1.450087	-0.536199	-0.001652
C101	C	0.869526	-1.036196	-0.655024
C102	C	1.369526	-0.536196	-0.155024
C103	C	0.869501	-0.970453	-0.654995
C104	C	1.369501	-0.470453	-0.154995
C105	C	0.909766	-0.937587	-0.578285
C106	C	1.409766	-0.437587	-0.078285
C107	C	1.073868	-0.303244	-0.578246
C108	C	1.573868	0.196756	-0.078246
C109	C	1.143836	-0.303251	-0.578261
C110	C	1.643836	0.196749	-0.078261
C111	C	0.909726	-0.303156	-0.891253
C112	C	1.409726	0.196844	-0.391253
C113	C	0.909747	-0.303126	-1.024653
C114	C	1.409747	0.196874	-0.524653
C115	C	0.909778	-0.139036	-0.578303
C116	C	1.409778	0.360964	-0.078303
C117	C	0.909820	-0.069068	-0.578343
C118	C	1.409820	0.430932	-0.078343
C119	C	0.909666	-0.303250	-0.266386
C120	C	1.409666	0.196750	0.233614
C121	C	0.909767	-0.303103	-0.132986
C122	C	1.409767	0.196897	0.367014
H123	H	0.149949	-0.376363	-0.717273
H124	H	0.649949	0.123637	-0.217273
F125	F	0.826674	-1.071177	-0.736650
F126	F	1.326674	-0.571177	-0.236650
F127	F	0.277428	-0.220051	-0.420077
F128	F	0.777428	0.279949	0.079923
H129	H	0.836592	-0.662122	-0.717329
H130	H	1.336592	-0.162122	-0.217329
F131	F	0.826621	-0.935472	-0.736599
F132	F	1.326621	-0.435472	-0.236599
H133	H	0.670049	-0.230100	-0.439184
H134	H	1.170049	0.269900	0.060816
H135	H	0.269213	-0.376356	-0.717255
H136	H	0.769213	0.123644	-0.217255
H137	H	0.550786	-0.376336	-0.717227
H138	H	1.050786	0.123664	-0.217227
H139	H	0.982896	-1.062959	-0.439217
H140	H	1.482896	-0.562959	0.060783
H141	H	0.550782	-0.230106	-0.439200
H142	H	1.050782	0.269894	0.060800
H143	H	0.149941	-0.230136	-0.439236
H144	H	0.649941	0.269864	0.060764
F145	F	0.678271	-0.386413	-0.736347
F146	F	1.178271	0.113587	-0.236347
H147	H	0.982690	-0.542855	-0.439022
H148	H	1.482690	-0.042855	0.060978
H149	H	0.836547	-0.542851	-0.717305
H150	H	1.336547	-0.042851	-0.217305
F151	F	0.992908	-0.935475	-0.419975
F152	F	1.492908	-0.435475	0.080025
H153	H	0.982740	-0.662121	-0.439071
H154	H	1.482740	-0.162121	0.060929
