data_functionalizedCrystal
_audit_creation_method	'MofGen! by Chris Wilmer'
_symmetry_space_group_name_H-M	'P1'
_symmetry_Int_Tables_number	1
_symmetry_cell_setting	triclinic
loop_
_symmetry_equiv_pos_as_xyz
  x,y,z
_cell_length_a	12.811457
_cell_length_b	11.295501
_cell_length_c	8.597258
_cell_angle_alpha	93.148325
_cell_angle_beta	96.040582
_cell_angle_gamma	89.163056
loop_
_atom_site_label
_atom_site_type_symbol
_atom_site_fract_x
_atom_site_fract_y
_atom_site_fract_z
O1	O	1.390167	-0.072090	-0.204493
O2	O	1.086770	-0.041977	-0.230364
O3	O	1.245925	-0.034624	0.008855
O4	O	1.231013	-0.079443	-0.443711
O5	O	1.233315	-0.229401	0.027491
O6	O	1.074160	-0.236754	-0.211727
O7	O	1.377557	-0.266866	-0.185856
Cu8	Cu	1.224707	-0.269595	-0.197090
Cu9	Cu	1.239620	-0.039249	-0.219130
O10	O	1.218402	-0.274220	-0.425075
C11	C	1.041625	-0.135081	-0.220167
C12	C	0.925895	-0.122312	-0.217533
N13	N	1.214226	-0.431609	-0.181587
C14	C	0.694677	-0.310684	-0.192233
C15	C	0.585938	-0.298692	-0.189756
C16	C	0.599676	-0.086336	-0.210092
C17	C	0.708415	-0.098328	-0.212568
C18	C	0.755912	-0.210506	-0.203641
C19	C	0.864652	-0.222498	-0.206129
C20	C	0.878389	-0.010142	-0.226453
C21	C	0.769650	0.001850	-0.223976
C22	C	1.325551	-0.709820	-0.346292
C23	C	1.317638	-0.832425	-0.334564
C24	C	1.190493	-0.799428	-0.146395
C25	C	1.198406	-0.676822	-0.158123
C26	C	1.265936	-0.632023	-0.258077
C27	C	1.273843	-0.509415	-0.269813
C28	C	1.146704	-0.476420	-0.081636
C29	C	1.138791	-0.599026	-0.069908
C30	C	1.422702	-0.173760	-0.196052
C31	C	1.538433	-0.186522	-0.198688
C32	C	1.238719	-0.125972	0.076075
C33	C	1.236023	-0.107973	0.248604
N34	N	1.250110	0.122765	-0.234620
C35	C	1.225605	-0.182868	0.507704
C36	C	1.228291	-0.200857	0.335172
H37	H	0.903321	-0.313839	-0.198869
C38	C	0.518578	-0.408889	-0.177214
C39	C	0.430597	-0.442471	-0.307635
C40	C	0.363237	-0.552673	-0.295089
C41	C	0.383858	-0.629295	-0.152124
C42	C	0.471843	-0.595715	-0.021693
C43	C	0.539203	-0.485512	-0.034238
H44	H	0.415328	-0.385750	-0.413475
H45	H	0.298104	-0.577531	-0.391643
H46	H	0.333994	-0.710874	-0.142837
H47	H	0.487112	-0.652436	0.084148
H48	H	0.604336	-0.460655	0.062316
H49	H	1.135524	-0.835926	-0.065000
H50	H	0.560988	0.004996	-0.217334
H51	H	1.366184	-0.895764	-0.406397
H52	H	0.730964	0.093183	-0.231237
C53	C	1.222128	-0.326883	0.256995
C54	C	1.306505	-0.420109	0.305495
C55	C	1.300341	-0.546137	0.227307
C56	C	1.209802	-0.578940	0.100619
C57	C	1.125418	-0.485712	0.052112
C58	C	1.131581	-0.359683	0.130300
H59	H	1.373533	-0.395828	0.399283
H60	H	1.362808	-0.615151	0.263216
H61	H	1.205239	-0.672233	0.042740
H62	H	1.058389	-0.509992	-0.041676
H63	H	1.069115	-0.290670	0.094391
H64	H	0.733347	-0.402025	-0.184984
H65	H	0.928258	0.071430	-0.235751
C66	C	1.399826	-0.660529	-0.456239
C67	C	1.518332	-0.687881	-0.431381
C68	C	1.592608	-0.638591	-0.541330
C69	C	1.548379	-0.561949	-0.676136
C70	C	1.429868	-0.534593	-0.701000
C71	C	1.355592	-0.583883	-0.591052
H72	H	1.551078	-0.744619	-0.331584
H73	H	1.680338	-0.658842	-0.522923
H74	H	1.603363	-0.525462	-0.757527
H75	H	1.397122	-0.477855	-0.800798
H76	H	1.267861	-0.563632	-0.609459
C77	C	1.064502	-0.648319	0.040017
C78	C	1.108708	-0.724966	0.174830
C79	C	1.034411	-0.774260	0.284746
C80	C	0.915908	-0.746906	0.259848
C81	C	0.871695	-0.670255	0.125029
C82	C	0.945992	-0.620961	0.015114
H83	H	1.196437	-0.745219	0.193266
H84	H	1.067141	-0.831002	0.384548
H85	H	0.860909	-0.783396	0.341215
H86	H	0.783966	-0.650002	0.106593
H87	H	0.913262	-0.564219	-0.084688
H88	H	1.328825	-0.472942	-0.351207
H89	H	1.098155	-0.413064	-0.009813
H90	H	1.240590	-0.014684	0.306491
