data_functionalizedCrystal
_audit_creation_method	'MofGen! by Chris Wilmer'
_symmetry_space_group_name_H-M	'P1'
_symmetry_Int_Tables_number	1
_symmetry_cell_setting	triclinic
loop_
_symmetry_equiv_pos_as_xyz
  x,y,z
_cell_length_a	19.121215
_cell_length_b	19.121063
_cell_length_c	12.759393
_cell_angle_alpha	92.402665
_cell_angle_beta	87.533854
_cell_angle_gamma	95.002544
loop_
_atom_site_label
_atom_site_type_symbol
_atom_site_fract_x
_atom_site_fract_y
_atom_site_fract_z
Zn1	Zn	1.063760	-0.234290	-0.677040
Zn2	Zn	1.058644	-0.351977	-0.508521
Zn3	Zn	0.946088	-0.239336	-0.494162
Zn4	Zn	0.941035	-0.356929	-0.676943
O5	O	1.002382	-0.295633	-0.589166
O6	O	1.161547	-0.245718	-0.660735
O7	O	1.043687	-0.337075	-0.359596
O8	O	0.965953	-0.140201	-0.512452
O9	O	1.157789	-0.332182	-0.536925
O10	O	1.052406	-0.136494	-0.646812
O11	O	0.960993	-0.254318	-0.349046
O12	O	0.846952	-0.259119	-0.512358
O13	O	0.957341	-0.340621	-0.823976
O14	O	0.843239	-0.345513	-0.646647
O15	O	1.047506	-0.250519	-0.824047
O16	O	1.038788	-0.451099	-0.536832
O17	O	0.952381	-0.454737	-0.660570
C18	C	0.819564	-0.303401	-0.577934
C19	C	0.741353	-0.306742	-0.573155
C20	C	0.298910	-0.327888	-0.542921
C21	C	0.372398	-0.324745	-0.547403
C22	C	0.411097	-0.278231	-0.614219
C23	C	0.376305	-0.234850	-0.676550
C24	C	0.302819	-0.237989	-0.672061
C25	C	0.633076	-0.266500	-0.630997
C26	C	0.706567	-0.263366	-0.635483
C27	C	0.702654	-0.353261	-0.506334
C28	C	0.629166	-0.356399	-0.501856
C29	C	0.594381	-0.313016	-0.564183
C30	C	0.486213	-0.275019	-0.618805
C31	C	0.519267	-0.316224	-0.559591
C32	C	0.994500	-0.478448	-0.600273
C33	C	0.991192	-0.556655	-0.605063
C34	C	1.034661	-0.591478	-0.542947
C35	C	1.031554	-0.664961	-0.547459
C36	C	0.984975	-0.703620	-0.614082
C37	C	0.941505	-0.668792	-0.676205
C38	C	0.944615	-0.595310	-0.671698
C39	C	0.973334	-0.925584	-0.630916
C40	C	0.970225	-0.999071	-0.635416
C41	C	1.060276	-0.995234	-0.506671
C42	C	1.063380	-0.921751	-0.502165
C43	C	1.019912	-0.886930	-0.564292
C44	C	0.981797	-0.778732	-0.618693
C45	C	1.023094	-0.811819	-0.559686
C46	C	1.185913	-0.287835	-0.600443
C47	C	1.264123	-0.284512	-0.605248
C48	C	1.002431	-0.295560	-0.863198
C49	C	1.002451	-0.295528	-0.979974
C50	C	1.010314	-0.112103	-0.578041
C51	C	1.013694	-0.033894	-0.573300
C52	C	0.959412	-0.252427	-1.029350
C53	C	0.959434	-0.252406	-1.139074
C54	C	1.045541	-0.338587	-1.150038
C55	C	1.045515	-0.338612	-1.040316
C56	C	0.909700	-0.202669	-1.023021
C57	C	0.909722	-0.202647	-1.132745
C58	C	1.002376	-0.295654	-0.316200
C59	C	1.002500	-0.295481	-0.199421
H60	H	0.407821	-0.196974	-0.730948
H61	H	0.932303	-1.030545	-0.689687
H62	H	1.101308	-0.890276	-0.447916
H63	H	0.517730	-0.237148	-0.673210
C64	C	0.594821	-0.218783	-0.699566
N65	N	0.566006	-0.182840	-0.751218
H66	H	0.857117	-0.224357	-1.164782
C67	C	0.890265	-0.711320	-0.749487
N68	N	0.851666	-0.743351	-0.804680
C69	C	0.896797	-0.557006	-0.740031
N70	N	0.860780	-0.528155	-0.791505
H71	H	1.080603	-0.373664	-1.199181
H72	H	0.926672	-0.147522	-1.160120
C73	C	0.264555	-0.190274	-0.740629
N74	N	0.235734	-0.154332	-0.792275
H75	H	0.597662	-0.394275	-0.447446
H76	H	0.730984	-0.388580	-0.455591
H77	H	0.854564	-0.219582	-0.990787
H78	H	0.937939	-0.897238	-0.681500
H79	H	1.080551	-0.373719	-1.000119
C80	C	0.749135	-0.212193	-0.708987
N81	N	0.781197	-0.173651	-0.764349
C82	C	0.939080	-0.131625	-0.974423
N83	N	0.961208	-0.078115	-0.937818
H84	H	0.943871	-0.810216	-0.672935
H85	H	1.095666	-1.023594	-0.456092
H86	H	0.267406	-0.365768	-0.488517
C87	C	0.476695	-0.367389	-0.486095
N88	N	0.444624	-0.405930	-0.430742
H89	H	1.061022	-0.780341	-0.505445
H90	H	1.072588	-0.560006	-0.488691
H91	H	0.400717	-0.360065	-0.496647
C92	C	1.079369	-0.703262	-0.479119
N93	N	1.115385	-0.732111	-0.427641
