data_functionalizedCrystal
_audit_creation_method	'MofGen! by Chris Wilmer'
_symmetry_space_group_name_H-M	'P1'
_symmetry_Int_Tables_number	1
_symmetry_cell_setting	triclinic
loop_
_symmetry_equiv_pos_as_xyz
  x,y,z
_cell_length_a	11.026607
_cell_length_b	11.026607
_cell_length_c	10.065918
_cell_angle_alpha	82.346549
_cell_angle_beta	82.291637
_cell_angle_gamma	108.586017
loop_
_atom_site_label
_atom_site_type_symbol
_atom_site_fract_x
_atom_site_fract_y
_atom_site_fract_z
O1	O	1.747087	0.553904	-0.113491
O2	O	2.247087	1.053904	0.386509
O3	O	1.380508	0.493141	-0.113493
O4	O	1.880508	0.993141	0.386507
O5	O	1.533415	0.340232	-0.113487
O6	O	2.033415	0.840232	0.386513
O7	O	1.594180	0.706814	-0.113497
O8	O	2.094180	1.206814	0.386503
O9	O	1.492688	0.299659	0.113502
O10	O	1.992688	0.799659	0.613502
O11	O	1.339781	0.452569	0.113496
O12	O	1.839781	0.952569	0.613496
O13	O	1.706360	0.513332	0.113498
O14	O	2.206360	1.013332	0.613498
Zn15	Zn	1.516604	0.476508	0.149536
Zn16	Zn	2.016604	0.976508	0.649536
Zn17	Zn	1.570264	0.529965	-0.149532
Zn18	Zn	2.070264	1.029965	0.350468
O19	O	1.553453	0.666241	0.113492
O20	O	2.053453	1.166241	0.613492
C21	C	1.312485	0.461645	0.000001
C22	C	1.812485	0.961645	0.500001
C23	C	1.170471	0.428228	0.000000
C24	C	1.670471	0.928228	0.500000
C25	C	1.501842	0.272286	0.000005
C26	C	2.001842	0.772286	0.500005
C27	C	1.468426	0.130273	0.000000
C28	C	1.968426	0.630273	0.500000
C29	C	1.116822	0.520499	-0.000003
C30	C	1.616822	1.020499	0.499997
C31	C	0.970043	0.485963	-0.000004
C32	C	1.470043	0.985963	0.499996
C33	C	1.560696	0.076624	-0.000001
C34	C	2.060696	0.576624	0.499999
C35	C	1.526161	-0.070153	-0.000006
C36	C	2.026161	0.429847	0.499994
C37	C	1.774384	0.544828	0.000001
C38	C	2.274384	1.044828	0.500001
C39	C	1.916399	0.578247	-0.000007
C40	C	2.416399	1.078247	0.499993
C41	C	1.585027	0.734187	-0.000004
C42	C	2.085027	1.234187	0.499996
C43	C	1.618444	0.876202	-0.000008
C44	C	2.118444	1.376202	0.499992
N45	N	1.479992	0.440027	0.353642
N46	N	1.979992	0.940027	0.853642
N47	N	1.606884	0.566438	-0.353637
N48	N	2.106884	1.066438	0.146363
C49	C	1.557517	0.517270	0.421420
C50	C	2.057517	1.017270	0.921420
C51	C	1.529347	0.489184	0.578588
C52	C	2.029347	0.989184	1.078588
H53	H	1.179554	0.625061	0.000002
H54	H	1.679554	1.125061	0.500002
H55	H	0.979125	0.682816	-0.000001
H56	H	1.479125	1.182816	0.499999
H57	H	1.694119	0.653366	0.588041
H58	H	2.194119	1.153366	1.088041
H59	H	0.907320	0.381399	-0.000036
H60	H	1.407320	0.881399	0.499964
C61	C	1.701952	0.161358	0.000005
C62	C	2.201952	0.661358	0.500005
H63	H	1.706630	0.248892	0.000017
H64	H	2.206630	0.748892	0.500017
H65	H	1.757392	0.157886	-0.079149
H66	H	2.257392	0.657886	0.420851
H67	H	1.728974	0.129579	0.079173
H68	H	2.228974	0.629579	0.579173
C69	C	1.085736	0.286972	-0.000004
C70	C	1.585736	0.786972	0.499996
H71	H	0.998202	0.282293	-0.000016
H72	H	1.498202	0.782293	0.499984
H73	H	1.089157	0.231584	0.079149
H74	H	1.589157	0.731584	0.579149
H75	H	1.117568	0.259898	-0.079173
H76	H	1.617568	0.759898	0.420827
C77	C	1.362152	0.322600	0.432425
C78	C	1.862152	0.822600	0.932425
H79	H	1.358673	0.319134	0.527724
H80	H	1.858673	0.819134	1.027724
H81	H	1.370700	0.244653	0.409074
H82	H	1.870700	0.744653	0.909074
H83	H	1.284374	0.331585	0.409093
H84	H	1.784374	0.831585	0.909093
H85	H	1.644748	0.604190	0.363092
H86	H	2.144748	1.104190	0.863092
H87	H	1.421593	-0.132881	-0.000016
H88	H	1.921593	0.367119	0.499984
H89	H	1.723033	-0.061053	-0.000110
H90	H	2.223033	0.438947	0.499890
H91	H	1.363865	0.067542	-0.000009
H92	H	1.863865	0.567542	0.499991
H93	H	1.442118	0.402251	0.636911
H94	H	1.942118	0.902251	1.136911
