data_functionalizedCrystal
_audit_creation_method	'MofGen! by Chris Wilmer'
_symmetry_space_group_name_H-M	'P1'
_symmetry_Int_Tables_number	1
_symmetry_cell_setting	triclinic
loop_
_symmetry_equiv_pos_as_xyz
  x,y,z
_cell_length_a	13.635800
_cell_length_b	11.102244
_cell_length_c	11.102300
_cell_angle_alpha	88.053517
_cell_angle_beta	108.605850
_cell_angle_gamma	71.395130
loop_
_atom_site_label
_atom_site_type_symbol
_atom_site_fract_x
_atom_site_fract_y
_atom_site_fract_z
V1	V	2.055762	-0.175838	0.396253
O2	O	2.035282	0.008450	0.388713
O3	O	2.044147	-0.348658	0.393540
O4	O	2.044153	-0.173133	0.569074
O5	O	2.035276	-0.168290	0.211964
V6	V	2.294314	-0.153795	0.374211
O7	O	2.193432	-0.224191	0.444604
O8	O	2.381742	-0.105442	0.325860
O9	O	2.194325	0.019024	0.376924
O10	O	2.373493	-0.338083	0.381751
O11	O	2.373498	-0.161344	0.558500
O12	O	2.194320	-0.156500	0.201390
V13	V	2.555762	-0.175838	0.396253
O14	O	2.535282	0.008450	0.388713
O15	O	2.544147	-0.348658	0.393540
O16	O	2.544153	-0.173133	0.569074
O17	O	2.535276	-0.168290	0.211964
V18	V	2.794314	-0.153795	0.374211
O19	O	2.693432	-0.224191	0.444604
O20	O	2.881742	-0.105442	0.325860
O21	O	2.694325	0.019024	0.376924
O22	O	2.873493	-0.338083	0.381751
O23	O	2.873498	-0.161344	0.558500
O24	O	2.694320	-0.156500	0.201390
C25	C	1.969302	-0.390787	0.387288
C26	C	2.000533	-0.532070	0.386221
C27	C	1.985120	-0.580305	0.269341
C28	C	2.014472	-0.713057	0.268354
C29	C	2.074647	-0.749329	0.501137
C30	C	2.045302	-0.616579	0.502124
C31	C	1.940351	-0.495795	0.153439
C32	C	1.924934	-0.544028	0.036549
C33	C	1.954286	-0.676781	0.035561
C34	C	1.999056	-0.761299	0.151464
C35	C	1.969308	-0.166887	0.611198
C36	C	2.000541	-0.165819	0.752480
C37	C	2.100842	0.061148	0.383173
C38	C	2.059230	0.202429	0.384248
C39	C	2.100835	-0.162751	0.159260
C40	C	2.059221	-0.163812	0.017976
C41	C	2.469302	-0.390787	0.387288
C42	C	2.500533	-0.532070	0.386221
C43	C	2.469308	-0.166887	0.611198
C44	C	2.500541	-0.165819	0.752480
C45	C	2.107220	-0.171664	0.825329
C46	C	2.136559	-0.170656	0.958077
C47	C	1.952532	-0.157962	0.945117
C48	C	1.923192	-0.158961	0.812370
C49	C	2.600842	0.061148	0.383173
C50	C	2.559230	0.202429	0.384248
C51	C	2.600835	-0.162751	0.159260
C52	C	2.559221	-0.163812	0.017976
C53	C	2.607209	-0.604918	0.392061
C54	C	2.636551	-0.737669	0.391069
C55	C	2.452528	-0.724710	0.378392
C56	C	2.423190	-0.591964	0.379393
C57	C	2.607220	-0.171664	0.825329
C58	C	2.636559	-0.170656	0.958077
C59	C	2.452532	-0.157962	0.945117
C60	C	2.423192	-0.158961	0.812370
H61	H	1.916441	-0.387699	0.154229
N62	N	2.308127	-0.152664	0.733781
H63	H	2.271401	-0.073645	0.666078
H64	H	2.263666	-0.148230	0.791950
H65	H	2.670188	-0.556156	0.397619
N66	N	2.690631	-0.179047	0.760719
H67	H	2.756423	-0.260793	0.798994
H68	H	2.715414	-0.102437	0.774325
N69	N	1.869107	-0.150577	1.009706
H70	H	1.856722	-0.070733	1.052158
H71	H	1.897690	-0.229088	1.076770
N72	N	1.937677	-0.728807	-0.090504
H73	H	1.885950	-0.778685	-0.100417
H74	H	2.011133	-0.787412	-0.091701
H75	H	2.111096	-0.818154	0.595499
H76	H	2.723425	-0.175415	1.017385
H77	H	1.836315	-0.154191	0.753052
H78	H	2.389562	-0.152382	0.993896
H79	H	2.723415	-0.796977	0.395826
H80	H	1.888490	-0.475206	-0.057814
N81	N	2.190644	-0.179039	0.760741
H82	H	2.162113	-0.100586	0.693614
H83	H	2.203008	-0.258932	0.718369
N84	N	2.030729	-0.904484	0.150405
H85	H	2.014178	-0.922220	0.058774
H86	H	1.987034	-0.939094	0.191611
N87	N	2.369104	-0.789305	0.370994
H88	H	2.403871	-0.884452	0.371232
H89	H	2.303346	-0.750916	0.289241
H90	H	2.057869	-0.577308	0.597299
N91	N	2.251616	-0.176946	1.036649
H92	H	2.296158	-0.181437	0.978561
H93	H	2.288260	-0.255953	1.104357
N94	N	2.308130	-0.513382	0.373111
H95	H	2.263583	-0.571464	0.368627
H96	H	2.271484	-0.445675	0.294103
