data_functionalizedCrystal
_audit_creation_method	'MofGen! by Chris Wilmer'
_symmetry_space_group_name_H-M	'P1'
_symmetry_Int_Tables_number	1
_symmetry_cell_setting	triclinic
loop_
_symmetry_equiv_pos_as_xyz
  x,y,z
_cell_length_a	6.394989
_cell_length_b	10.654550
_cell_length_c	9.130313
_cell_angle_alpha	90.000276
_cell_angle_beta	90.001550
_cell_angle_gamma	85.491321
loop_
_atom_site_label
_atom_site_type_symbol
_atom_site_fract_x
_atom_site_fract_y
_atom_site_fract_z
O1	O	-0.293442	-1.670947	-0.121679
O2	O	-0.321399	-1.305765	-0.121705
O3	O	-0.003431	-1.493540	-0.121693
O4	O	-0.611409	-1.483173	-0.121692
O5	O	-0.003422	-1.493526	0.121906
O6	O	-0.321389	-1.305752	0.121893
O7	O	-0.293432	-1.670934	0.121919
Cu8	Cu	-0.307410	-1.488342	0.144149
Cu9	Cu	-0.307421	-1.488357	-0.143935
O10	O	-0.611400	-1.483159	0.121907
C11	C	-0.319341	-1.258939	0.000091
C12	C	-0.313200	-1.119430	0.000080
C13	C	-0.295490	-1.717760	0.000120
C14	C	-0.301631	-1.857269	0.000121
N15	N	-0.307401	-1.488340	0.346772
C16	C	0.074425	-1.491483	0.000101
C17	C	0.310750	-1.485219	0.000099
N18	N	-0.307414	-1.488369	-0.346558
C19	C	-0.500414	-1.041927	0.000085
C20	C	-0.494631	-0.910845	0.000110
C21	C	-0.114403	-0.934782	0.000121
C22	C	-0.120188	-1.065861	0.000106
C23	C	-0.166665	-1.571516	0.423429
C24	C	-0.166665	-1.571528	0.576766
C25	C	-0.448157	-1.405184	0.576774
C26	C	-0.448145	-1.405167	0.423440
H27	H	-0.647080	-0.847747	0.000117
C28	C	-0.712717	-1.100850	0.000073
H29	H	-0.823384	-1.035914	0.000092
H30	H	-0.722885	-1.151481	-0.084881
H31	H	-0.722872	-1.151492	0.085027
C32	C	0.097893	-0.875851	0.000129
H33	H	0.074528	-0.786684	0.000123
H34	H	0.175066	-0.902254	0.085074
H35	H	0.175047	-0.902246	-0.084833
C36	C	-0.011836	-1.662990	0.339098
H37	H	0.071994	-1.712519	0.406719
H38	H	-0.087788	-1.716459	0.279266
H39	H	0.075845	-1.616416	0.279299
C40	C	-0.011863	-1.663027	0.661083
H41	H	0.071943	-1.712561	0.593456
H42	H	0.075812	-1.616482	0.720910
H43	H	-0.087852	-1.716507	0.720884
C44	C	-0.602981	-1.313713	0.661115
H45	H	-0.582849	-1.325644	0.763414
H46	H	-0.578998	-1.229521	0.636005
H47	H	-0.742632	-1.329564	0.635969
H48	H	0.032274	-1.128967	0.000106
H49	H	-0.562750	-1.337429	0.361022
