data_functionalizedCrystal
_audit_creation_method	'MofGen! by Chris Wilmer'
_symmetry_space_group_name_H-M	'P1'
_symmetry_Int_Tables_number	1
_symmetry_cell_setting	triclinic
loop_
_symmetry_equiv_pos_as_xyz
  x,y,z
_cell_length_a	6.817900
_cell_length_b	11.102188
_cell_length_c	17.110486
_cell_angle_alpha	95.184548
_cell_angle_beta	99.060439
_cell_angle_gamma	108.603875
loop_
_atom_site_label
_atom_site_type_symbol
_atom_site_fract_x
_atom_site_fract_y
_atom_site_fract_z
V1	V	-4.002954	-0.175460	-0.246720
O2	O	-3.964064	0.008821	-0.242024
O3	O	-3.980464	-0.348283	-0.245033
O4	O	-3.932386	-0.172591	-0.354323
O5	O	-4.012475	-0.168088	-0.131977
V6	V	-4.486097	-0.153438	-0.232996
O7	O	-4.265046	-0.223767	-0.276826
O8	O	-4.674203	-0.105131	-0.202891
O9	O	-4.285381	0.019384	-0.234683
O10	O	-4.642385	-0.337720	-0.237693
O11	O	-4.593974	-0.160811	-0.347740
O12	O	-4.333459	-0.156308	-0.125393
C13	C	-3.832486	-0.390419	-0.241141
C14	C	-3.895237	-0.531702	-0.240478
C15	C	-3.896436	-0.580040	-0.167703
C16	C	-3.955419	-0.712792	-0.167084
C17	C	-4.011994	-0.748859	-0.312022
C18	C	-3.953026	-0.616110	-0.312640
C19	C	-4.119180	-0.876700	-0.081714
C20	C	-4.120345	-0.925040	-0.008934
C21	C	-3.959060	-0.861880	0.057385
C22	C	-3.796562	-0.750380	0.050927
C23	C	-3.795383	-0.702047	-0.021853
C24	C	-3.956712	-0.765206	-0.088170
C25	C	-3.789245	-0.452197	-0.398005
C26	C	-3.788051	-0.403861	-0.470786
C27	C	-3.949325	-0.467020	-0.537111
C28	C	-4.111798	-0.578525	-0.530661
C29	C	-4.112992	-0.626861	-0.457880
C30	C	-3.951718	-0.563693	-0.391555
C31	C	-3.771156	-0.166304	-0.380551
C32	C	-3.794913	-0.165101	-0.468517
C33	C	-3.988312	-0.170879	-0.513875
C34	C	-4.010623	-0.169748	-0.596528
C35	C	-3.839536	-0.162848	-0.633823
C36	C	-3.646120	-0.157066	-0.588458
C37	C	-3.623807	-0.158188	-0.505806
C38	C	-3.897784	-0.159135	-0.883178
C39	C	-3.920114	-0.158018	-0.965837
C40	C	-4.284615	-0.170697	-0.973900
C41	C	-4.262289	-0.171826	-0.891246
C42	C	-4.068873	-0.166037	-0.845889
C43	C	-3.862339	-0.161696	-0.718308
C44	C	-4.046068	-0.167180	-0.761404
C45	C	-4.096703	0.061513	-0.238573
C46	C	-4.013189	0.202796	-0.239241
C47	C	-4.158033	-0.162599	-0.099161
C48	C	-4.113513	-0.163795	-0.011194
H49	H	-3.663074	-0.611270	-0.027112
H50	H	-4.127638	-0.176506	-0.483517
H51	H	-3.960014	-0.901248	0.116643
H52	H	-4.243114	-0.629956	-0.584670
H53	H	-3.948325	-0.427659	-0.596375
N54	N	-4.283918	-0.941192	-0.149469
N55	N	-4.398335	-0.883565	-0.181321
H56	H	-4.514675	-0.929116	-0.229177
N57	N	-4.071033	-0.835099	-0.385722
N58	N	-4.123680	-0.953622	-0.385161
H59	H	-4.165375	-1.014530	-0.437214
H60	H	-4.401610	-0.177443	-0.860887
H61	H	-4.252666	-1.015825	-0.003682
N62	N	-3.700243	-0.153277	-0.836864
N63	N	-3.689819	-0.242490	-0.798590
H64	H	-3.550297	-0.238362	-0.765880
N65	N	-3.471443	-0.149904	-0.626624
N66	N	-3.400849	-0.057826	-0.663109
H67	H	-3.277516	-0.052736	-0.690092
N68	N	-3.426247	-0.152303	-0.459485
N69	N	-3.349388	-0.237922	-0.474752
H70	H	-3.209852	-0.233762	-0.442040
N71	N	-4.278815	-0.740860	-0.451332
N72	N	-4.422702	-0.797313	-0.510577
H73	H	-4.539757	-0.877861	-0.505964
H74	H	-3.655731	-0.313075	-0.476037
N75	N	-3.624473	-0.387674	-0.330262
N76	N	-3.436992	-0.373954	-0.333788
H77	H	-3.320613	-0.328386	-0.285947
H78	H	-4.168102	-0.174446	-0.633454
H79	H	-3.665223	-0.698970	0.104931
H80	H	-4.442088	-0.175408	-1.010839
H81	H	-3.780782	-0.152395	-0.996199
N82	N	-3.687712	-0.154515	-0.756507
N83	N	-3.617230	-0.062417	-0.792991
H84	H	-3.493950	-0.057297	-0.820011
H85	H	-3.849382	-0.511318	-0.108944
H86	H	-4.185363	-0.172794	-0.731035
