data_functionalizedCrystal
_audit_creation_method	'MofGen! by Chris Wilmer'
_symmetry_space_group_name_H-M	'P1'
_symmetry_Int_Tables_number	1
_symmetry_cell_setting	triclinic
loop_
_symmetry_equiv_pos_as_xyz
  x,y,z
_cell_length_a	21.295418
_cell_length_b	18.050589
_cell_length_c	18.050583
_cell_angle_alpha	89.971909
_cell_angle_beta	90.037417
_cell_angle_gamma	89.955964
loop_
_atom_site_label
_atom_site_type_symbol
_atom_site_fract_x
_atom_site_fract_y
_atom_site_fract_z
Zn1	Zn	0.962327	0.295321	0.420315
Zn2	Zn	1.295660	0.628654	0.753649
Zn3	Zn	1.628993	0.961987	1.086982
Zn4	Zn	0.962245	0.419525	0.296135
Zn5	Zn	1.295578	0.752859	0.629468
Zn6	Zn	1.628911	1.086192	0.962801
Zn7	Zn	0.857061	0.295388	0.296098
Zn8	Zn	1.190395	0.628721	0.629431
Zn9	Zn	1.523728	0.962055	0.962765
Zn10	Zn	0.857023	0.419508	0.420242
Zn11	Zn	1.190357	0.752841	0.753575
Zn12	Zn	1.523690	1.086174	1.086908
O13	O	0.909664	0.357435	0.358197
O14	O	1.242997	0.690769	0.691531
O15	O	1.576331	1.024102	1.024864
O16	O	1.050405	0.311776	0.403889
O17	O	1.383738	0.645109	0.737222
O18	O	1.717072	0.978443	1.070555
O19	O	0.948274	0.403094	0.192205
O20	O	1.281607	0.736427	0.525539
O21	O	1.614940	1.069761	0.858872
O22	O	0.871075	0.191454	0.312591
O23	O	1.204408	0.524788	0.645924
O24	O	1.537742	0.858121	0.979258
O25	O	1.050345	0.403029	0.312654
O26	O	1.383678	0.736362	0.645987
O27	O	1.717012	1.069695	0.979321
O28	O	0.948413	0.191405	0.403853
O29	O	1.281746	0.524738	0.737186
O30	O	1.615080	0.858072	1.070520
O31	O	0.870996	0.311891	0.192178
O32	O	1.204329	0.645224	0.525511
O33	O	1.537662	0.978557	0.858845
O34	O	0.768967	0.311873	0.312520
O35	O	1.102300	0.645207	0.645853
O36	O	1.435634	0.978540	0.979186
O37	O	0.871010	0.402998	0.524176
O38	O	1.204344	0.736332	0.857509
O39	O	1.537677	1.069665	1.190843
O40	O	0.768939	0.403064	0.403727
O41	O	1.102272	0.736397	0.737061
O42	O	1.435606	1.069730	1.070394
O43	O	0.948376	0.311759	0.524230
O44	O	1.281710	0.645092	0.857564
O45	O	1.615043	0.978425	1.190897
O46	O	0.948237	0.523448	0.312582
O47	O	1.281570	0.856781	0.645916
O48	O	1.614903	1.190114	0.979249
O49	O	0.870931	0.523435	0.403763
O50	O	1.204264	0.856768	0.737097
O51	O	1.537598	1.190101	1.070430
C52	C	0.909588	0.550388	0.358185
C53	C	1.242921	0.883721	0.691518
C54	C	1.576255	1.217054	1.024852
C55	C	0.909613	0.632933	0.358205
C56	C	1.242946	0.966267	0.691538
C57	C	1.576280	1.299600	1.024871
C58	C	0.746112	0.357474	0.358112
C59	C	1.079446	0.690808	0.691445
C60	C	1.412779	1.024141	1.024779
C61	C	0.676144	0.357509	0.358093
C62	C	1.009478	0.690842	0.691426
C63	C	1.342811	1.024176	1.024760
C64	C	0.909698	0.357369	0.551903
C65	C	1.243031	0.690702	0.885236
C66	C	1.576365	1.024036	1.218570
C67	C	0.909713	0.357341	0.634449
C68	C	1.243046	0.690674	0.967782
C69	C	1.576379	1.024007	1.301116
C70	C	0.643280	0.405055	0.405514
C71	C	0.976613	0.738388	0.738847
C72	C	1.309946	1.071721	1.072181
C73	C	0.577537	0.405036	0.405547
C74	C	0.910870	0.738370	0.738881
C75	C	1.244204	1.071703	1.072214
C76	C	0.544662	0.357480	0.358146
C77	C	0.877995	0.690814	0.691480
C78	C	1.211328	1.024147	1.024813
C79	C	0.577534	0.309925	0.310722
C80	C	0.910868	0.643259	0.644055
C81	C	1.244201	0.976592	0.977389
C82	C	0.643276	0.309940	0.310695
C83	C	0.976609	0.643273	0.644029
C84	C	1.309942	0.976606	0.977362
N85	N	0.441392	0.351684	0.293191
N86	N	0.774725	0.685018	0.626524
N87	N	1.108058	1.018351	0.959857
N88	N	0.378940	0.351675	0.293218
N89	N	0.712274	0.685008	0.626551
N90	N	1.045607	1.018342	0.959885
C91	C	0.346587	0.357433	0.358225
C92	C	0.679920	0.690766	0.691559
C93	C	1.013254	1.024100	1.024892
N94	N	0.379045	0.363215	0.423205
N95	N	0.712378	0.696548	0.756538
N96	N	1.045711	1.029881	1.089872
N97	N	0.441502	0.363228	0.423177
N98	N	0.774835	0.696561	0.756510
N99	N	1.108168	1.029895	1.089843
C100	C	0.473376	0.357459	0.358170
C101	C	0.806710	0.690792	0.691504
C102	C	1.140043	1.024126	1.024837
C103	C	0.242437	0.404961	0.405686
C104	C	0.575770	0.738295	0.739020
C105	C	0.909104	1.071628	1.072353
C106	C	0.176693	0.404938	0.405721
C107	C	0.510027	0.738271	0.739054
C108	C	0.843360	1.071604	1.072388
C109	C	0.176692	0.309831	0.310889
C110	C	0.510025	0.643164	0.644222
C111	C	0.843358	0.976497	0.977556
C112	C	0.242434	0.309850	0.310861
C113	C	0.575768	0.643184	0.644194
C114	C	0.909101	0.976517	0.977528
C115	C	0.275303	0.357419	0.358259
C116	C	0.608636	0.690753	0.691592
C117	C	0.941969	1.024086	1.024925
C118	C	1.073854	0.357397	0.358284
C119	C	1.407188	0.690730	0.691617
C120	C	1.740521	1.024063	1.024950
C121	C	1.143822	0.357380	0.358320
C122	C	1.477156	0.690714	0.691654
C123	C	1.810489	1.024047	1.024987
C124	C	0.909757	0.163730	0.358226
C125	C	1.243091	0.497063	0.691559
C126	C	1.576424	0.830396	1.024893
C127	C	0.909797	0.081184	0.358238
C128	C	1.243131	0.414517	0.691572
C129	C	1.576464	0.747851	1.024905
C130	C	0.867616	0.832404	0.407771
C131	C	1.200949	1.165737	0.741105
C132	C	1.534282	1.499070	1.074438
C133	C	0.852272	0.881854	0.339998
C134	C	1.185605	1.215188	0.673331
C135	C	1.518939	1.548521	1.006665
C136	C	0.909675	0.784064	0.358214
C137	C	1.243008	1.117397	0.691548
C138	C	1.576342	1.450730	1.024881
C139	C	0.925049	0.881695	0.425996
C140	C	1.258383	1.215028	0.759329
C141	C	1.591716	1.548361	1.092662
C142	C	0.909733	0.930049	0.358230
C143	C	1.243067	1.263382	0.691563
C144	C	1.576400	1.596715	1.024896
C145	C	0.894301	0.832427	0.290405
C146	C	1.227634	1.165760	0.623738
C147	C	1.560968	1.499094	0.957072
C148	C	0.967105	0.832263	0.376448
C149	C	1.300439	1.165596	0.709782
C150	C	1.633772	1.498930	1.043115
C151	C	0.951784	0.881691	0.308628
C152	C	1.285117	1.215025	0.641961
C153	C	1.618450	1.548358	0.975295
C154	C	0.909640	0.699965	0.358206
C155	C	1.242973	1.033299	0.691540
C156	C	1.576306	1.366632	1.024873
C157	C	0.909769	1.014145	0.358230
C158	C	1.243102	1.347479	0.691563
C159	C	1.576436	1.680812	1.024897
C160	C	0.909666	0.357448	0.165245
C161	C	1.243000	0.690781	0.498579
C162	C	1.576333	1.024115	0.831912
C163	C	0.909774	0.357267	0.082700
C164	C	1.243107	0.690600	0.416033
C165	C	1.576440	1.023934	0.749367
C166	C	0.951824	0.307674	0.883304
C167	C	1.285157	0.641008	1.216637
C168	C	1.618490	0.974341	1.549971
C169	C	0.967184	0.375433	0.833901
C170	C	1.300517	0.708766	1.167235
C171	C	1.633851	1.042099	1.500568
C172	C	0.909753	0.357293	0.931570
C173	C	1.243087	0.690627	1.264903
C174	C	1.576420	1.023960	1.598236
C175	C	0.894402	0.289563	0.833891
C176	C	1.227736	0.622896	1.167224
C177	C	1.561069	0.956229	1.500557
C178	C	0.909735	0.357313	0.785584
C179	C	1.243068	0.690646	1.118918
C180	C	1.576402	1.023980	1.452251
C181	C	0.925144	0.425087	0.883254
C182	C	1.258477	0.758421	1.216587
C183	C	1.591810	1.091754	1.549921
C184	C	0.852335	0.339171	0.883248
C185	C	1.185669	0.672505	1.216581
C186	C	1.519002	1.005838	1.549914
C187	C	0.867674	0.406977	0.833867
C188	C	1.201007	0.740310	1.167200
C189	C	1.534341	1.073643	1.500534
C190	C	0.909766	0.357281	1.015668
C191	C	1.243099	0.690614	1.349001
C192	C	1.576432	1.023948	1.682335
C193	C	0.909723	0.357333	0.701488
C194	C	1.243056	0.690666	1.034821
C195	C	1.576389	1.024000	1.368154
H196	H	0.550773	0.443753	0.444166
H197	H	0.884107	0.777087	0.777499
H198	H	1.217440	1.110420	1.110833
O199	O	0.877036	0.803888	0.214459
O200	O	1.210370	1.137222	0.547792
O201	O	1.543703	1.470555	0.881126
H202	H	0.829542	0.824243	0.199279
H203	H	1.162876	1.157576	0.532612
H204	H	1.496209	1.490910	0.865946
H205	H	0.938030	0.903336	0.483311
H206	H	1.271363	1.236670	0.816645
H207	H	1.604697	1.570003	1.149978
H208	H	0.803732	0.903653	0.324590
H209	H	1.137066	1.236986	0.657923
H210	H	1.470399	1.570320	0.991256
H211	H	0.881427	0.232275	0.812205
H212	H	1.214760	0.565609	1.145538
H213	H	1.548094	0.898942	1.478872
O214	O	0.820437	0.803728	0.463207
O215	O	1.153771	1.137062	0.796540
O216	O	1.487104	1.470395	1.129874
H217	H	0.821146	0.742243	0.463080
H218	H	1.154479	1.075576	0.796413
H219	H	1.487813	1.408909	1.129746
O220	O	0.788042	0.318828	0.911979
O221	O	1.121375	0.652161	1.245312
O222	O	1.454708	0.985495	1.578646
H223	H	0.769236	0.365159	0.945763
H224	H	1.102570	0.698493	1.279096
H225	H	1.435903	1.031826	1.612430
H226	H	0.269193	0.271137	0.272242
H227	H	0.602526	0.604470	0.605575
H228	H	0.935860	0.937804	0.938909
H229	H	0.149925	0.271106	0.272298
H230	H	0.483259	0.604439	0.605631
H231	H	0.816592	0.937773	0.938964
O232	O	0.998931	0.910184	0.253063
O233	O	1.332264	1.243517	0.586397
O234	O	1.665597	1.576851	0.919730
H235	H	1.046412	0.889433	0.267755
H236	H	1.379745	1.222766	0.601088
H237	H	1.713078	1.556100	0.934421
H238	H	1.015634	0.810466	0.391889
H239	H	1.348967	1.143800	0.725222
H240	H	1.682301	1.477133	1.058556
H241	H	0.987436	0.265757	0.905009
H242	H	1.320769	0.599091	1.238343
H243	H	1.654103	0.932424	1.571676
H244	H	0.550763	0.271204	0.272129
H245	H	0.884096	0.604537	0.605463
H246	H	1.217430	0.937870	0.938796
H247	H	0.269200	0.443691	0.444284
H248	H	0.602533	0.777024	0.777617
H249	H	0.935867	1.110358	1.110951
H250	H	0.670037	0.443788	0.444110
H251	H	1.003370	0.777122	0.777443
H252	H	1.336704	1.110455	1.110777
H253	H	0.670034	0.271220	0.272079
H254	H	1.003367	0.604554	0.605413
H255	H	1.336700	0.937887	0.938746
H256	H	0.149936	0.443654	0.444341
H257	H	0.483269	0.776987	0.777675
H258	H	0.816602	1.110320	1.111008
O259	O	1.031489	0.395762	0.805182
O260	O	1.364822	0.729095	1.138516
O261	O	1.698156	1.062428	1.471849
H262	H	1.049899	0.349867	0.770512
H263	H	1.383232	0.683200	1.103845
H264	H	1.716565	1.016533	1.437178
O265	O	0.942413	0.500994	0.911845
O266	O	1.275746	0.834328	1.245179
O267	O	1.609079	1.167661	1.578512
H268	H	0.942310	0.500382	0.973333
H269	H	1.275643	0.833715	1.306666
H270	H	1.608976	1.167049	1.640000
O271	O	0.820544	0.462629	0.805273
O272	O	1.153877	0.795962	1.138606
O273	O	1.487210	1.129296	1.471939
H274	H	0.833430	0.518781	0.825145
H275	H	1.166763	0.852115	1.158478
H276	H	1.500097	1.185448	1.491812
