data_functionalizedCrystal
_audit_creation_method	'MofGen! by Chris Wilmer'
_symmetry_space_group_name_H-M	'P1'
_symmetry_Int_Tables_number	1
_symmetry_cell_setting	triclinic
loop_
_symmetry_equiv_pos_as_xyz
  x,y,z
_cell_length_a	19.288864
_cell_length_b	8.559649
_cell_length_c	17.766277
_cell_angle_alpha	89.994756
_cell_angle_beta	89.976791
_cell_angle_gamma	76.457456
loop_
_atom_site_label
_atom_site_type_symbol
_atom_site_fract_x
_atom_site_fract_y
_atom_site_fract_z
O1	O	0.910987	0.199405	-0.062829
O2	O	0.707328	0.226304	-0.062777
O3	O	0.827100	-0.019877	-0.062807
O4	O	0.791215	0.445585	-0.062799
O5	O	0.827082	-0.019889	0.062381
O6	O	0.707310	0.226291	0.062411
O7	O	0.910969	0.199392	0.062359
Cu8	Cu	0.809138	0.212841	0.073816
Cu9	Cu	0.809160	0.212855	-0.074234
O10	O	0.791197	0.445573	0.062389
C11	C	0.681488	0.225432	-0.000176
C12	C	0.604519	0.222834	-0.000157
C13	C	0.552314	0.367282	-0.000166
C14	C	0.479994	0.364841	-0.000174
C15	C	0.459883	0.217944	-0.000188
C16	C	0.512099	0.073477	-0.000175
C17	C	0.584417	0.075922	-0.000159
C18	C	0.357630	0.102471	-0.044075
C19	C	0.285312	0.100032	-0.044095
C20	C	0.236829	0.210396	-0.000234
C21	C	0.260670	0.323227	0.043638
C22	C	0.332989	0.325672	0.043654
C23	C	0.381467	0.215276	-0.000205
C24	C	0.106205	0.352207	-0.000251
C25	C	0.033884	0.349760	-0.000255
C26	C	0.065991	0.058393	-0.000263
C27	C	0.138310	0.060844	-0.000252
C28	C	0.158412	0.207756	-0.000250
C29	C	0.829811	-0.079432	-0.000215
C30	C	0.837906	-0.256871	-0.000221
C31	C	0.936810	0.200264	-0.000243
C32	C	1.013778	0.202862	-0.000268
C33	C	0.788487	0.505129	-0.000205
C34	C	0.780392	0.682567	-0.000203
N35	N	0.809128	0.212829	0.177946
N36	N	0.809176	0.212854	-0.178364
C37	C	0.862176	0.103874	0.217320
C38	C	0.862180	0.103866	0.296122
C39	C	0.809142	0.212842	0.335547
C40	C	0.756085	0.321806	0.296164
C41	C	0.756078	0.321800	0.217364
C42	C	0.792272	0.358486	0.460389
C43	C	0.792284	0.358494	0.539188
C44	C	0.809160	0.212861	0.578593
C45	C	0.826039	0.067213	0.539190
C46	C	0.826032	0.067207	0.460390
C47	C	0.809144	0.212860	0.420993
C48	C	0.862215	0.103889	0.703413
C49	C	0.862215	0.103879	0.782216
C50	C	0.756123	0.321833	0.782257
C51	C	0.756120	0.321828	0.703455
C52	C	0.809170	0.212858	0.664038
H53	H	0.397100	0.012596	-0.079796
H54	H	0.568676	0.486909	-0.000166
H55	H	0.724959	-0.233537	-0.000187
H56	H	0.893342	-0.340776	-0.000229
H57	H	0.122573	0.471832	-0.000239
O58	O	0.913737	-0.002142	0.179148
C59	C	1.018989	-0.218250	0.187428
C60	C	0.960632	-0.098297	0.230753
H61	H	1.056928	-0.295999	0.229131
H62	H	0.993294	-0.298048	0.150579
H63	H	1.049978	-0.149414	0.150491
H64	H	0.929624	-0.167002	0.267731
H65	H	0.986370	-0.018500	0.267555
H66	H	0.626924	-0.041708	-0.000151
O67	O	0.704651	0.427906	0.665239
C68	C	0.649080	0.706093	0.641179
C69	C	0.707413	0.586134	0.684490
H70	H	0.651284	0.834046	0.656740
H71	H	0.658175	0.687516	0.578077
H72	H	0.594556	0.685509	0.656696
H73	H	0.761962	0.606645	0.669037
H74	H	0.698256	0.604740	0.747581
H75	H	0.905379	0.015138	0.328186
O76	O	0.046341	-0.084165	-0.000312
C77	C	-0.050840	-0.217064	-0.000294
C78	C	-0.028682	-0.055501	-0.000260
H79	H	-0.111497	-0.193945	-0.000237
H80	H	-0.028727	-0.288436	-0.052698
H81	H	-0.028691	-0.288429	0.052085
H82	H	-0.050824	0.015994	-0.052603
H83	H	-0.050786	0.015749	0.052178
O84	O	0.704477	0.427506	0.334425
C85	C	0.578672	0.521930	0.358568
C86	C	0.637052	0.402116	0.315205
H87	H	0.524143	0.501466	0.343033
H88	H	0.587730	0.503222	0.421662
H89	H	0.580924	0.649894	0.343073
H90	H	0.634833	0.274104	0.330638
H91	H	0.627974	0.420964	0.252122
H92	H	0.839773	-0.051384	0.428312
H93	H	0.712936	0.410556	0.814356
O94	O	0.842308	-0.074240	0.577487
C95	C	0.802608	-0.247107	0.666509
C96	C	0.784081	-0.086882	0.623172
H97	H	0.755549	-0.257365	0.703468
H98	H	0.814632	-0.351255	0.624840
H99	H	0.851388	-0.251270	0.703343
H100	H	0.735291	-0.082563	0.586337
H101	H	0.772102	0.017191	0.664881
O102	O	0.913774	-0.002126	0.665234
C103	C	1.019024	-0.218243	0.673509
C104	C	0.960667	-0.098294	0.716837
H105	H	1.056961	-0.296003	0.715210
H106	H	0.993328	-0.298031	0.636654
H107	H	1.050015	-0.149403	0.636577
H108	H	0.929656	-0.167003	0.753810
H109	H	0.986406	-0.018507	0.753643
H110	H	0.905411	0.015146	0.814275
H111	H	0.437481	0.482471	-0.000180
H112	H	0.778545	0.477089	0.571263
O113	O	0.188999	-0.079518	-0.000385
C114	C	0.238571	-0.327830	-0.065222
C115	C	0.181140	-0.168905	-0.065177
H116	H	0.232227	-0.400160	-0.117592
H117	H	0.293732	-0.300949	-0.065257
H118	H	0.232240	-0.400089	-0.012812
H119	H	0.187404	-0.096568	-0.117578
H120	H	0.126001	-0.195900	-0.065102
H121	H	0.778518	0.477086	0.428311
H122	H	0.712880	0.410526	0.185305
H123	H	0.221196	0.413096	0.079355
O124	O	0.356135	0.435103	0.086389
C125	C	0.366947	0.537654	0.211061
C126	C	0.340716	0.413621	0.162751
H127	H	0.354478	0.520351	0.272807
H128	H	0.426970	0.520444	0.203603
H129	H	0.338767	0.664083	0.192523
H130	H	0.368844	0.287141	0.181258
H131	H	0.280687	0.430972	0.170212
O132	O	0.262280	-0.009719	-0.086727
C133	C	0.294351	-0.230801	-0.173766
C134	C	0.320530	-0.106614	-0.125508
H135	H	0.341430	-0.309150	-0.205145
H136	H	0.269037	-0.309506	-0.135853
H137	H	0.253188	-0.165595	-0.216069
H138	H	0.361716	-0.171687	-0.083200
H139	H	0.345802	-0.027914	-0.163468
H140	H	-0.008622	0.467392	-0.000259
O141	O	0.492653	-0.069318	-0.000291
C142	C	0.497965	-0.319042	-0.065183
C143	C	0.520049	-0.157395	-0.065139
H144	H	0.520092	-0.390284	-0.117615
H145	H	0.520094	-0.390517	-0.012825
H146	H	0.437308	-0.295938	-0.065162
H147	H	0.580699	-0.180353	-0.065187
H148	H	0.497868	-0.085971	-0.117493
