data_functionalizedCrystal
_audit_creation_method	'MofGen! by Chris Wilmer'
_symmetry_space_group_name_H-M	'P1'
_symmetry_Int_Tables_number	1
_symmetry_cell_setting	triclinic
loop_
_symmetry_equiv_pos_as_xyz
  x,y,z
_cell_length_a	18.215407
_cell_length_b	16.120444
_cell_length_c	18.215399
_cell_angle_alpha	87.129468
_cell_angle_beta	90.016899
_cell_angle_gamma	92.923917
loop_
_atom_site_label
_atom_site_type_symbol
_atom_site_fract_x
_atom_site_fract_y
_atom_site_fract_z
Zn1	Zn	1.110204	-0.331973	0.430910
Zn2	Zn	1.360204	-0.081973	0.680910
Zn3	Zn	1.610204	0.168027	0.930910
Zn4	Zn	1.860204	0.418027	1.180910
Zn5	Zn	1.103869	-0.471395	0.314081
Zn6	Zn	1.353869	-0.221395	0.564081
Zn7	Zn	1.603869	0.028605	0.814081
Zn8	Zn	1.853869	0.278605	1.064081
Zn9	Zn	0.987136	-0.331993	0.307864
Zn10	Zn	1.237136	-0.081993	0.557864
Zn11	Zn	1.487136	0.168007	0.807864
Zn12	Zn	1.737136	0.418007	1.057864
Zn13	Zn	0.980861	-0.471342	0.437110
Zn14	Zn	1.230861	-0.221342	0.687110
Zn15	Zn	1.480861	0.028658	0.937110
Zn16	Zn	1.730861	0.278658	1.187110
O17	O	1.045517	-0.401676	0.372491
O18	O	1.295517	-0.151676	0.622491
O19	O	1.545517	0.098324	0.872491
O20	O	1.795517	0.348324	1.122491
O21	O	1.212347	-0.350482	0.415419
O22	O	1.462347	-0.100482	0.665419
O23	O	1.712347	0.149518	0.915419
O24	O	1.962347	0.399518	1.165419
O25	O	1.088358	-0.452934	0.210273
O26	O	1.338358	-0.202934	0.460273
O27	O	1.588358	0.047066	0.710273
O28	O	1.838358	0.297066	0.960273
O29	O	1.008739	-0.215325	0.318990
O30	O	1.258739	0.034675	0.568990
O31	O	1.508739	0.284675	0.818990
O32	O	1.758739	0.534675	1.068990
O33	O	1.207693	-0.452915	0.329585
O34	O	1.457693	-0.202915	0.579585
O35	O	1.707693	0.047085	0.829585
O36	O	1.957693	0.297085	1.079585
O37	O	1.099157	-0.215310	0.409391
O38	O	1.349157	0.034690	0.659391
O39	O	1.599157	0.284690	0.909391
O40	O	1.849157	0.534690	1.159391
O41	O	1.002595	-0.350516	0.205706
O42	O	1.252595	-0.100516	0.455706
O43	O	1.502595	0.149484	0.705706
O44	O	1.752595	0.399484	0.955706
O45	O	0.883320	-0.350464	0.325002
O46	O	1.133320	-0.100464	0.575002
O47	O	1.383320	0.149536	0.825002
O48	O	1.633320	0.399536	1.075002
O49	O	0.998044	-0.452823	0.539270
O50	O	1.248044	-0.202823	0.789270
O51	O	1.498044	0.047177	1.039270
O52	O	1.748044	0.297177	1.289270
O53	O	0.878710	-0.452843	0.419958
O54	O	1.128710	-0.202843	0.669958
O55	O	1.378710	0.047157	0.919958
O56	O	1.628710	0.297157	1.169958
O57	O	1.093072	-0.350430	0.534715
O58	O	1.343072	-0.100430	0.784715
O59	O	1.593072	0.149570	1.034715
O60	O	1.843072	0.399570	1.284715
O61	O	1.082274	-0.588054	0.335597
O62	O	1.332274	-0.338054	0.585597
O63	O	1.582274	-0.088054	0.835597
O64	O	1.832274	0.161946	1.085597
O65	O	0.991901	-0.588015	0.425986
O66	O	1.241901	-0.338015	0.675986
O67	O	1.491901	-0.088015	0.925986
O68	O	1.741901	0.161985	1.175986
C69	C	0.854312	-0.401650	0.372479
C70	C	1.104312	-0.151650	0.622479
C71	C	1.354312	0.098350	0.872479
C72	C	1.604312	0.348350	1.122479
C73	C	0.772513	-0.401659	0.372492
C74	C	1.022513	-0.151659	0.622492
C75	C	1.272513	0.098341	0.872492
C76	C	1.522513	0.348341	1.122492
C77	C	0.505070	-0.455072	0.421874
C78	C	0.755070	-0.205072	0.671874
C79	C	1.005070	0.044928	0.921874
C80	C	1.255070	0.294928	1.171874
C81	C	0.581929	-0.455065	0.421870
C82	C	0.831929	-0.205065	0.671870
C83	C	1.081929	0.044935	0.921870
C84	C	1.331929	0.294935	1.171870
C85	C	0.586706	-0.348299	0.323122
C86	C	0.836706	-0.098299	0.573122
C87	C	1.086706	0.151701	0.823122
C88	C	1.336706	0.401701	1.073122
C89	C	0.509848	-0.348311	0.323123
C90	C	0.759848	-0.098311	0.573123
C91	C	1.009848	0.151689	0.823123
C92	C	1.259848	0.401689	1.073123
C93	C	0.469032	-0.401696	0.372503
C94	C	0.719032	-0.151696	0.622503
C95	C	0.969032	0.098304	0.872503
C96	C	1.219032	0.348304	1.122503
C97	C	0.622749	-0.401677	0.372498
C98	C	0.872749	-0.151677	0.622498
C99	C	1.122749	0.098323	0.872498
C100	C	1.372749	0.348323	1.122498
C101	C	0.706083	-0.401669	0.372494
C102	C	0.956083	-0.151669	0.622494
C103	C	1.206083	0.098331	0.872494
C104	C	1.456083	0.348331	1.122494
C105	C	0.385692	-0.401705	0.372507
C106	C	0.635692	-0.151705	0.622507
C107	C	0.885692	0.098295	0.872507
C108	C	1.135692	0.348295	1.122507
C109	C	1.035739	-0.618285	0.382155
C110	C	1.285739	-0.368285	0.632155
C111	C	1.535739	-0.118285	0.882155
C112	C	1.785739	0.131715	1.132155
C113	C	1.031623	-0.710951	0.386314
C114	C	1.281623	-0.460951	0.636314
C115	C	1.531623	-0.210951	0.886314
C116	C	1.781623	0.039049	1.136314
C117	C	1.067050	-0.921893	0.351076
C118	C	1.317050	-0.671893	0.601076
C119	C	1.567050	-0.421893	0.851076
C120	C	1.817050	-0.171893	1.101076
C121	C	1.024121	-0.880608	0.393914
C122	C	1.274121	-0.630608	0.643914
C123	C	1.524121	-0.380608	0.893914
C124	C	1.774121	-0.130608	1.143914
C125	C	1.028296	-0.786202	0.389684
C126	C	1.278296	-0.536202	0.639684
C127	C	1.528296	-0.286202	0.889684
C128	C	1.778296	-0.036202	1.139684
C129	C	1.062876	-1.016307	0.355305
C130	C	1.312876	-0.766307	0.605305
C131	C	1.562876	-0.516307	0.855305
C132	C	1.812876	-0.266307	1.105305
C133	C	1.237469	-0.401702	0.372504
C134	C	1.487469	-0.151702	0.622504
C135	C	1.737469	0.098298	0.872504
C136	C	1.987469	0.348298	1.122504
C137	C	1.319268	-0.401713	0.372510
C138	C	1.569268	-0.151713	0.622510
C139	C	1.819268	0.098287	0.872510
C140	C	2.069268	0.348287	1.122510
C141	C	1.045565	-0.401618	0.564442
C142	C	1.295565	-0.151618	0.814442
C143	C	1.545565	0.098382	1.064442
C144	C	1.795565	0.348382	1.314442
C145	C	1.045585	-0.401594	0.646239
C146	C	1.295585	-0.151594	0.896239
C147	C	1.545585	0.098406	1.146239
C148	C	1.795585	0.348406	1.396239
C149	C	1.055354	-0.184221	0.362806
C150	C	1.305354	0.065779	0.612806
C151	C	1.555354	0.315779	0.862806
C152	C	1.805354	0.565779	1.112806
C153	C	1.059546	-0.091555	0.358678
C154	C	1.309546	0.158445	0.608678
C155	C	1.559546	0.408445	0.858678
C156	C	1.809546	0.658445	1.108678
C157	C	1.045515	-0.401673	0.181285
C158	C	1.295515	-0.151673	0.431285
C159	C	1.545515	0.098327	0.681285
C160	C	1.795515	0.348327	0.931285
C161	C	1.045648	-0.401463	0.099477
C162	C	1.295648	-0.151463	0.349477
C163	C	1.545648	0.098537	0.599477
C164	C	1.795648	0.348537	0.849477
C165	C	1.095085	-0.348228	0.832061
C166	C	1.345085	-0.098228	1.082061
C167	C	1.595085	0.151772	1.332061
C168	C	1.845085	0.401772	1.582061
C169	C	1.095095	-0.348204	0.908918
C170	C	1.345095	-0.098204	1.158918
C171	C	1.595095	0.151796	1.408918
C172	C	1.845095	0.401796	1.658918
C173	C	0.996143	-0.454831	0.913650
C174	C	1.246143	-0.204831	1.163650
C175	C	1.496143	0.045169	1.413650
C176	C	1.746143	0.295169	1.663650
C177	C	0.996130	-0.454850	0.836794
C178	C	1.246130	-0.204850	1.086794
C179	C	1.496130	0.045150	1.336794
C180	C	1.746130	0.295150	1.586794
C181	C	1.045605	-0.401550	0.796001
C182	C	1.295605	-0.151550	1.046001
C183	C	1.545605	0.098450	1.296001
C184	C	1.795605	0.348450	1.546001
C185	C	1.045628	-0.401506	0.949715
C186	C	1.295628	-0.151506	1.199715
C187	C	1.545628	0.098494	1.449715
C188	C	1.795628	0.348494	1.699715
C189	C	1.045638	-0.401480	1.033048
C190	C	1.295638	-0.151480	1.283048
C191	C	1.545638	0.098520	1.533048
C192	C	1.795638	0.348520	1.783048
C193	C	1.045594	-0.401575	0.712663
C194	C	1.295594	-0.151575	0.962663
C195	C	1.545594	0.098425	1.212663
C196	C	1.795594	0.348425	1.462663
H197	H	0.611267	-0.498530	0.462072
H198	H	0.861267	-0.248530	0.712072
H199	H	1.111267	0.001470	0.962072
H200	H	1.361267	0.251470	1.212072
Br201	Br	0.642103	-0.275847	0.256112
Br202	Br	0.892103	-0.025847	0.506112
Br203	Br	1.142103	0.224153	0.756112
Br204	Br	1.392103	0.474153	1.006112
Br205	Br	1.162229	-0.275891	0.776701
Br206	Br	1.412229	-0.025891	1.026701
Br207	Br	1.662229	0.224109	1.276701
Br208	Br	1.912229	0.474109	1.526701
H209	H	0.955863	-0.498228	0.946873
H210	H	1.205863	-0.248228	1.196873
H211	H	1.455863	0.001772	1.446873
H212	H	1.705863	0.251772	1.696873
H213	H	0.984234	-0.916163	0.433767
H214	H	1.234234	-0.666163	0.683767
H215	H	1.484234	-0.416163	0.933767
H216	H	1.734234	-0.166163	1.183767
Br217	Br	0.460934	-0.275872	0.256110
Br218	Br	0.710934	-0.025872	0.506110
Br219	Br	0.960934	0.224128	0.756110
Br220	Br	1.210934	0.474128	1.006110
Br221	Br	0.928967	-0.527214	0.787851
Br222	Br	1.178967	-0.277214	1.037851
Br223	Br	1.428967	-0.027214	1.287851
Br224	Br	1.678967	0.222786	1.537851
Br225	Br	1.133528	-0.862634	0.284655
Br226	Br	1.383528	-0.612634	0.534655
Br227	Br	1.633528	-0.362634	0.784655
Br228	Br	1.883528	-0.112634	1.034655
H229	H	1.135386	-0.304782	0.938274
H230	H	1.385386	-0.054782	1.188274
H231	H	1.635386	0.195218	1.438274
H232	H	1.885386	0.445218	1.688274
H233	H	0.471839	-0.498542	0.462082
H234	H	0.721839	-0.248542	0.712082
H235	H	0.971839	0.001458	0.962082
H236	H	1.221839	0.251458	1.212082
