data_functionalizedCrystal
_audit_creation_method	'MofGen! by Chris Wilmer'
_symmetry_space_group_name_H-M	'P1'
_symmetry_Int_Tables_number	1
_symmetry_cell_setting	triclinic
loop_
_symmetry_equiv_pos_as_xyz
  x,y,z
_cell_length_a	15.944551
_cell_length_b	10.654550
_cell_length_c	9.130313
_cell_angle_alpha	90.000110
_cell_angle_beta	89.995572
_cell_angle_gamma	96.008180
loop_
_atom_site_label
_atom_site_type_symbol
_atom_site_fract_x
_atom_site_fract_y
_atom_site_fract_z
O1	O	1.115457	-0.161961	-0.121938
O2	O	0.871023	-0.181929	-0.121909
O3	O	0.998860	0.010867	-0.121919
O4	O	0.987620	-0.354757	-0.121928
O5	O	0.998858	0.010862	0.121680
O6	O	0.871021	-0.181935	0.121690
O7	O	1.115455	-0.161966	0.121661
Cu8	Cu	0.993238	-0.171951	0.143918
Cu9	Cu	0.993240	-0.171945	-0.144166
O10	O	0.987618	-0.354762	0.121670
C11	C	0.839723	-0.181103	-0.000106
C12	C	0.746463	-0.178618	-0.000095
C13	C	1.146755	-0.162792	-0.000145
C14	C	1.240015	-0.165278	-0.000166
C15	C	0.998034	0.057652	-0.000121
C16	C	0.995565	0.197063	-0.000126
C17	C	1.455598	-0.290722	-0.000136
C18	C	1.516282	-0.232467	-0.120240
C19	C	1.410767	-0.169774	-0.000145
C20	C	1.516258	-0.232444	0.119929
C21	C	1.575705	-0.174126	-0.000118
C22	C	1.470222	-0.111486	-0.120348
C23	C	1.470192	-0.111479	0.119929
C24	C	1.530858	-0.053136	-0.000205
C25	C	1.315750	-0.167270	-0.000162
C26	C	1.670721	-0.176620	-0.000112
C27	C	0.988444	-0.401547	-0.000131
C28	C	0.990913	-0.540958	-0.000135
N29	N	0.993243	-0.171954	0.346540
C30	C	1.070833	0.277523	-0.000130
C31	C	1.068508	0.408513	-0.000140
C32	C	0.915639	0.378572	-0.000135
C33	C	0.917965	0.247584	-0.000136
C34	C	1.159090	0.294810	-0.000127
C35	C	1.156765	0.425801	-0.000137
N36	N	0.993242	-0.171931	-0.346789
C37	C	1.049864	-0.086613	0.423188
C38	C	1.049861	-0.086598	0.576525
C39	C	0.936615	-0.257277	0.576553
C40	C	0.936614	-0.257285	0.423219
C41	C	1.115248	0.011924	0.423173
C42	C	1.115246	0.011939	0.576510
H43	H	1.536693	-0.283624	-0.221778
O44	O	1.187991	-0.023478	0.366214
C45	C	1.309710	0.034854	0.214980
C46	C	1.227354	0.075124	0.279379
H47	H	1.341568	0.114561	0.144786
H48	H	1.294846	-0.053061	0.144629
H49	H	1.353717	0.013272	0.307951
H50	H	1.183308	0.096773	0.186502
H51	H	1.242280	0.162999	0.349769
H52	H	1.179794	-0.008744	0.618118
O53	O	1.569768	0.066708	-0.000014
C54	C	1.664097	0.221696	0.126638
C55	C	1.620067	0.085956	0.126632
H56	H	1.704788	0.237293	0.229005
H57	H	1.614581	0.291514	0.125714
H58	H	1.705565	0.236745	0.025124
H59	H	1.578602	0.070785	0.228129
H60	H	1.669627	0.016208	0.127480
O61	O	0.844871	0.169376	-0.000408
C62	C	0.758811	0.004069	-0.126587
C63	C	0.841616	0.092586	-0.126474
H64	H	0.756160	-0.058057	-0.228485
H65	H	0.702922	0.062623	-0.126688
H66	H	0.756076	-0.057952	-0.024598
H67	H	0.844433	0.154625	-0.228445
H68	H	0.897466	0.033957	-0.126297
O69	O	0.881691	-0.340353	0.348833
C70	C	0.833683	-0.558671	0.302024
C71	C	0.895948	-0.464731	0.386326
H72	H	0.845176	-0.659250	0.332328
H73	H	0.843403	-0.544136	0.179241
H74	H	0.766326	-0.542159	0.332169
H75	H	0.963330	-0.481185	0.356303
H76	H	0.886155	-0.479288	0.509088
O77	O	0.840315	0.427800	-0.000333
C78	C	0.748954	0.558246	-0.126585
C79	C	0.834297	0.502607	-0.126528
H80	H	0.744053	0.618718	-0.228618
H81	H	0.744026	0.618910	-0.024713
H82	H	0.695571	0.478215	-0.126509
H83	H	0.887729	0.582558	-0.126656
H84	H	0.839151	0.441910	-0.228392
H85	H	1.422873	-0.391116	-0.000258
O86	O	1.097983	0.126809	0.373592
C87	C	0.998738	0.282488	0.369028
C88	C	1.018177	0.152354	0.425243
H89	H	0.934223	0.303193	0.410790
H90	H	0.998673	0.282539	0.244165
H91	H	1.048964	0.358117	0.410597
H92	H	0.967973	0.076651	0.383782
H93	H	1.018272	0.152409	0.550105
O94	O	1.445884	-0.050593	-0.241582
C95	C	1.330137	0.020123	-0.377561
C96	C	1.357584	-0.048882	-0.240220
H97	H	1.258747	0.021552	-0.376490
H98	H	1.349448	-0.031087	-0.479841
H99	H	1.361914	0.121079	-0.377978
H100	H	1.325821	-0.149841	-0.239661
H101	H	1.338288	0.002426	-0.138003
H102	H	1.193612	0.265901	-0.102069
H103	H	1.187194	0.259545	0.105051
O104	O	1.445477	-0.050616	0.240906
C105	C	1.377084	0.123801	0.335114
C106	C	1.405254	0.055224	0.197978
H107	H	1.344542	0.209371	0.300455
H108	H	1.434516	0.156021	0.405158
H109	H	1.331283	0.056713	0.401263
H110	H	1.451035	0.122240	0.131714
H111	H	1.347781	0.022984	0.128043
H112	H	1.536638	-0.283624	0.221468
H113	H	1.183439	0.471791	-0.105319
H114	H	1.190019	0.467989	0.101803
H115	H	0.890508	-0.326750	0.639001
O116	O	1.091032	0.120457	0.633445
C117	C	1.129174	0.302925	0.784594
C118	C	1.156693	0.180055	0.720225
H119	H	1.182253	0.351158	0.854745
H120	H	1.070502	0.280075	0.854983
H121	H	1.114408	0.368552	0.691607
H122	H	1.171505	0.114370	0.813118
H123	H	1.215339	0.202999	0.649797
