data_functionalizedCrystal
_audit_creation_method	'MofGen! by Chris Wilmer'
_symmetry_space_group_name_H-M	'P1'
_symmetry_Int_Tables_number	1
_symmetry_cell_setting	triclinic
loop_
_symmetry_equiv_pos_as_xyz
  x,y,z
_cell_length_a	12.759401
_cell_length_b	17.077402
_cell_length_c	12.759393
_cell_angle_alpha	89.966444
_cell_angle_beta	89.981425
_cell_angle_gamma	90.023919
loop_
_atom_site_label
_atom_site_type_symbol
_atom_site_fract_x
_atom_site_fract_y
_atom_site_fract_z
Zn1	Zn	1.606191	-0.312453	-0.593971
Zn2	Zn	1.606058	-0.443741	-0.418285
Zn3	Zn	1.430493	-0.312494	-0.418310
Zn4	Zn	1.430454	-0.443681	-0.593926
O5	O	1.518299	-0.378092	-0.506123
O6	O	1.753194	-0.329876	-0.570674
O7	O	1.582730	-0.426374	-0.271267
O8	O	1.453871	-0.202642	-0.441641
O9	O	1.753097	-0.426333	-0.441598
O10	O	1.582956	-0.202611	-0.570698
O11	O	1.453743	-0.329947	-0.271285
O12	O	1.283467	-0.329889	-0.441597
O13	O	1.453806	-0.426231	-0.740953
O14	O	1.283439	-0.426271	-0.570622
O15	O	1.582918	-0.329818	-0.740986
O16	O	1.582692	-0.553580	-0.441555
O17	O	1.453677	-0.553536	-0.570598
C18	C	1.245332	-0.378079	-0.506108
C19	C	1.128555	-0.378092	-0.506126
C20	C	1.073744	-0.327957	-0.573440
C21	C	0.964020	-0.327965	-0.573447
C22	C	0.963927	-0.428249	-0.438824
C23	C	1.073649	-0.428237	-0.438813
C24	C	1.518195	-0.582040	-0.506092
C25	C	1.518246	-0.669290	-0.506113
C26	C	1.585424	-0.710197	-0.573368
C27	C	1.585468	-0.792177	-0.573390
C28	C	1.518339	-0.833249	-0.506152
C29	C	1.451154	-0.792337	-0.438895
C30	C	1.451105	-0.710358	-0.438878
C31	C	1.451262	-0.963207	-0.438931
C32	C	1.451312	-1.045192	-0.438946
C33	C	1.585625	-1.045026	-0.573443
C34	C	1.585576	-0.963047	-0.573427
C35	C	1.518392	-0.922140	-0.506168
C36	C	1.792332	-0.378106	-0.506138
C37	C	1.909109	-0.378112	-0.506145
C38	C	1.518372	-0.378013	-0.780156
C39	C	1.518404	-0.377979	-0.896933
C40	C	1.518432	-0.173348	-0.506177
C41	C	1.518489	-0.086098	-0.506200
C42	C	1.451264	-0.327761	-0.951804
C43	C	1.451289	-0.327737	-1.061528
C44	C	1.585601	-0.428151	-1.061500
C45	C	1.585571	-0.428179	-0.951778
C46	C	1.518286	-0.378115	-0.233155
C47	C	1.518459	-0.377927	-0.116379
H48	H	1.118445	-0.287124	-0.628248
H49	H	1.640242	-0.929606	-0.628171
H50	H	1.396616	-0.286844	-1.106199
C51	C	1.659251	-0.483540	-1.121840
N52	N	1.714642	-0.525321	-1.167287
H53	H	0.919398	-0.287140	-0.628258
C54	C	0.903521	-0.483411	-0.364790
N55	N	0.858024	-0.524961	-0.309028
C56	C	1.377459	-1.090370	-0.364988
N57	N	1.321829	-1.124398	-0.309284
H58	H	1.640327	-1.078336	-0.628208
H59	H	1.396550	-0.929904	-0.384166
H60	H	1.640246	-0.469076	-0.907101
H61	H	1.118277	-0.469063	-0.383992
H62	H	1.396572	-0.286885	-0.907152
H63	H	1.396492	-0.825785	-0.384153
H64	H	1.640093	-0.676761	-0.628116
C65	C	1.659383	-0.837171	-0.647361
N66	N	1.715063	-0.871059	-0.703075
C67	C	1.377206	-0.665361	-0.364893
N68	N	1.321540	-0.631471	-0.309166
