data_functionalizedCrystal
_audit_creation_method	'MofGen! by Chris Wilmer'
_symmetry_space_group_name_H-M	'P1'
_symmetry_Int_Tables_number	1
_symmetry_cell_setting	triclinic
loop_
_symmetry_equiv_pos_as_xyz
  x,y,z
_cell_length_a	11.169417
_cell_length_b	18.050590
_cell_length_c	18.050591
_cell_angle_alpha	90.007244
_cell_angle_beta	89.999004
_cell_angle_gamma	90.019431
loop_
_atom_site_label
_atom_site_type_symbol
_atom_site_fract_x
_atom_site_fract_y
_atom_site_fract_z
Zn1	Zn	1.834647	-0.295807	0.419842
Zn2	Zn	1.834581	-0.419956	0.295650
Zn3	Zn	1.634006	-0.295786	0.295673
Zn4	Zn	1.633912	-0.419962	0.419806
O5	O	1.734286	-0.357878	0.357743
O6	O	2.002588	-0.312282	0.403373
O7	O	1.807986	-0.403473	0.191729
O8	O	1.660689	-0.191864	0.312169
O9	O	2.002539	-0.403493	0.312130
O10	O	1.808099	-0.191880	0.403395
O11	O	1.660624	-0.312246	0.191746
O12	O	1.466044	-0.312252	0.312134
O13	O	1.660528	-0.403504	0.523735
O14	O	1.465975	-0.403483	0.403334
O15	O	1.808008	-0.312288	0.523762
O16	O	1.807894	-0.523881	0.312095
O17	O	1.660464	-0.523886	0.403312
C18	C	1.422462	-0.357866	0.357733
C19	C	1.289062	-0.357879	0.357747
C20	C	1.734194	-0.550830	0.357713
C21	C	1.734264	-0.633375	0.357725
C22	C	1.814604	-0.832797	0.308191
C23	C	1.843888	-0.882154	0.375970
C24	C	1.734333	-0.784506	0.357755
C25	C	1.705171	-0.882230	0.290006
C26	C	1.734401	-0.930491	0.357778
C27	C	1.763673	-0.832776	0.425570
C28	C	1.624904	-0.832848	0.339560
C29	C	1.654147	-0.882183	0.407386
C30	C	1.734296	-0.700408	0.357741
C31	C	1.734437	-1.014587	0.357799
C32	C	2.047329	-0.357889	0.357753
C33	C	2.180729	-0.357894	0.357757
C34	C	1.734265	-0.357899	0.551448
C35	C	1.734256	-0.357908	0.633994
C36	C	1.734412	-0.164172	0.357789
C37	C	1.734465	-0.081626	0.357808
C38	C	1.654037	-0.407504	0.882805
C39	C	1.624721	-0.339752	0.833420
C40	C	1.734244	-0.357886	0.931115
C41	C	1.763509	-0.425645	0.833419
C42	C	1.734247	-0.357901	0.785129
C43	C	1.704872	-0.290099	0.882816
C44	C	1.843711	-0.376037	0.882819
C45	C	1.814437	-0.308239	0.833456
C46	C	1.734240	-0.357879	1.015213
C47	C	1.734252	-0.357900	0.701033
C48	C	1.734282	-0.357876	1.164791
C49	C	1.734239	-0.357878	1.082245
H50	H	1.882510	-0.811112	0.266320
O51	O	1.966506	-0.910844	0.396378
H52	H	1.965188	-0.972329	0.396726
O53	O	1.966275	-0.396420	0.911609
H54	H	2.027160	-0.407117	0.864204
O55	O	1.672434	-0.910878	0.214059
H56	H	1.582228	-0.890212	0.198647
H57	H	1.680015	-0.232786	0.904423
H58	H	1.788275	-0.811145	0.482923
H59	H	1.586293	-0.903730	0.449359
H60	H	1.532361	-0.811172	0.324136
O61	O	1.564131	-0.463006	0.911521
H62	H	1.473334	-0.447763	0.891737
O63	O	1.502113	-0.319425	0.804649
H64	H	1.435691	-0.360689	0.824401
H65	H	1.882267	-0.266237	0.811925
O66	O	1.796310	-0.501537	0.804676
H67	H	1.729598	-0.542610	0.824449
