data_functionalizedCrystal
_audit_creation_method	'MofGen! by Chris Wilmer'
_symmetry_space_group_name_H-M	'P1'
_symmetry_Int_Tables_number	1
_symmetry_cell_setting	triclinic
loop_
_symmetry_equiv_pos_as_xyz
  x,y,z
_cell_length_a	17.699104
_cell_length_b	17.699083
_cell_length_c	8.965430
_cell_angle_alpha	89.991076
_cell_angle_beta	90.004904
_cell_angle_gamma	96.712734
loop_
_atom_site_label
_atom_site_type_symbol
_atom_site_fract_x
_atom_site_fract_y
_atom_site_fract_z
O1	O	-1.004064	0.095790	-0.124101
O2	O	-0.504064	0.595790	0.375899
O3	O	-0.783688	0.108226	-0.124092
O4	O	-0.283688	0.608226	0.375908
O5	O	-0.900102	-0.008181	-0.124084
O6	O	-0.400102	0.491819	0.375916
O7	O	-0.887650	0.212197	-0.124109
O8	O	-0.387650	0.712197	0.375891
O9	O	-0.900096	-0.008192	0.123995
O10	O	-0.400096	0.491808	0.623995
O11	O	-0.783682	0.108215	0.123987
O12	O	-0.283682	0.608215	0.623987
O13	O	-1.004058	0.095779	0.123978
O14	O	-0.504058	0.595779	0.623978
Cu15	Cu	-0.893869	0.101996	0.146634
Cu16	Cu	-0.393869	0.601996	0.646634
Cu17	Cu	-0.893876	0.102009	-0.146748
Cu18	Cu	-0.393876	0.602009	0.353252
O19	O	-0.887643	0.212186	0.123969
O20	O	-0.387643	0.712186	0.623969
C21	C	-0.755488	0.107772	-0.000051
C22	C	-0.255488	0.607772	0.499949
C23	C	-0.671471	0.106427	-0.000047
C24	C	-0.171471	0.606427	0.499953
C25	C	-0.146600	0.167171	-0.000055
C26	C	0.353400	0.667171	0.499945
C27	C	-0.225543	0.168430	-0.000061
C28	C	0.274457	0.668430	0.499939
C29	C	-0.274161	0.100095	-0.000054
C30	C	0.225839	0.600095	0.499946
C31	C	-0.243831	0.030496	-0.000056
C32	C	0.256169	0.530496	0.499944
C33	C	-0.164889	0.029238	-0.000060
C34	C	0.335111	0.529238	0.499940
C35	C	-0.562197	0.035569	-0.000042
C36	C	-0.062197	0.535569	0.499958
C37	C	-0.641144	0.036833	-0.000033
C38	C	-0.141144	0.536833	0.499967
C39	C	-0.622852	0.174762	-0.000043
C40	C	-0.122852	0.674762	0.499957
C41	C	-0.543909	0.173503	-0.000047
C42	C	-0.043909	0.673503	0.499953
C43	C	-0.513587	0.103905	-0.000057
C44	C	-0.013587	0.603905	0.499943
C45	C	-0.427987	0.102541	-0.000052
C46	C	0.072013	0.602541	0.499948
C47	C	-0.359759	0.101459	-0.000048
C48	C	0.140241	0.601459	0.499952
C49	C	-0.899653	-0.036383	-0.000044
C50	C	-0.399653	0.463617	0.499956
C51	C	-0.898314	-0.120402	-0.000043
C52	C	-0.398314	0.379598	0.499957
C53	C	-0.966647	-0.169017	-0.000044
C54	C	-0.466647	0.330983	0.499956
C55	C	-0.965385	-0.247961	-0.000057
C56	C	-0.465385	0.252039	0.499943
C57	C	-0.895789	-0.278287	-0.000059
C58	C	-0.395789	0.221713	0.499941
C59	C	-0.827451	-0.229665	-0.000063
C60	C	-0.327451	0.270335	0.499937
C61	C	-0.828714	-0.150723	-0.000060
C62	C	-0.328714	0.349277	0.499940
C63	C	-0.822356	-0.548028	-0.000074
C64	C	-0.322356	-0.048028	0.499926
C65	C	-0.821098	-0.626976	-0.000072
C66	C	-0.321098	-0.126976	0.499928
C67	C	-0.959026	-0.645266	-0.000072
C68	C	-0.459026	-0.145266	0.499928
C69	C	-0.960289	-0.566324	-0.000069
C70	C	-0.460289	-0.066324	0.499931
C71	C	-0.891952	-0.517709	-0.000081
C72	C	-0.391952	-0.017709	0.499919
C73	C	-0.893321	-0.432110	-0.000069
C74	C	-0.393321	0.067890	0.499931
C75	C	-0.894419	-0.363885	-0.000060
C76	C	-0.394419	0.136115	0.499940
C77	C	-0.032258	0.096233	-0.000059
C78	C	0.467742	0.596233	0.499941
C79	C	-0.116275	0.097578	-0.000052
C80	C	0.383725	0.597578	0.499948
C81	C	-0.888093	0.240388	-0.000073
C82	C	-0.388093	0.740388	0.499927
C83	C	-0.889431	0.324406	-0.000084
C84	C	-0.389431	0.824406	0.499916
N85	N	-0.893869	0.101986	0.352983
N86	N	-0.393869	0.601986	0.852983
C87	C	-0.947295	0.047736	0.549657
C88	C	-0.447295	0.547736	1.049657
C89	C	-0.962464	0.115891	0.450171
C90	C	-0.462464	0.615891	0.950171
C91	C	-0.878733	0.033837	0.450261
C92	C	-0.378733	0.533837	0.950261
C93	C	-0.909086	0.170200	0.549606
C94	C	-0.409086	0.670200	1.049606
C95	C	-0.825326	0.088102	0.549705
C96	C	-0.325326	0.588102	1.049705
C97	C	-0.840466	0.156306	0.450264
C98	C	-0.340466	0.656306	0.950264
N99	N	-0.893883	0.102011	0.646903
N100	N	-0.393883	0.602011	1.146903
H101	H	-0.647550	0.231432	-0.000042
H102	H	-0.147550	0.731432	0.499958
N103	N	-0.925253	0.242530	0.604081
N104	N	-0.425253	0.742530	1.104081
N105	N	-0.936738	0.294058	0.514412
N106	N	-0.436738	0.794058	1.014412
H107	H	-0.948159	0.345140	0.552885
H108	H	-0.448159	0.845140	1.052885
N109	N	-0.752618	0.073340	0.604594
N110	N	-0.252618	0.573340	1.104594
N111	N	-0.694324	0.116837	0.570949
N112	N	-0.194324	0.616837	1.070949
H113	H	-0.642973	0.106405	0.609712
H114	H	-0.142973	0.606405	1.109712
H115	H	-0.764421	-0.651664	-0.000071
H116	H	-0.264421	-0.151664	0.499929
N117	N	-1.028841	-0.694916	-0.000092
N118	N	-0.528841	-0.194916	0.499908
N119	N	-1.090974	-0.667828	-0.000087
N120	N	-0.590974	-0.167828	0.499913
H121	H	-1.140280	-0.702891	-0.000098
H122	H	-0.640280	-0.202891	0.499902
H123	H	-0.865925	-0.023807	0.406621
H124	H	-0.365925	0.476193	0.906621
H125	H	-0.795289	0.202243	0.406898
H126	H	-0.295289	0.702243	0.906898
H127	H	-0.107020	0.222818	-0.000049
H128	H	0.392980	0.722818	0.499951
H129	H	-0.537518	-0.021102	-0.000045
H130	H	-0.037518	0.478898	0.499955
H131	H	-1.023320	-0.144333	-0.000034
H132	H	-0.523320	0.355667	0.499966
N133	N	-0.256507	0.239525	-0.000081
N134	N	0.243493	0.739525	0.499919
N135	N	-0.213090	0.300533	-0.000087
N136	N	0.286910	0.800533	0.499913
H137	H	-0.234957	0.350748	-0.000107
H138	H	0.265043	0.850748	0.499893
H139	H	-1.020435	0.127650	0.406451
H140	H	-0.520435	0.627650	0.906451
H141	H	-1.021028	-0.287541	-0.000055
H142	H	-0.521028	0.212459	0.499945
N143	N	-0.494260	0.243313	-0.000040
N144	N	0.005740	0.743313	0.499960
N145	N	-0.521346	0.305447	-0.000044
N146	N	-0.021346	0.805447	0.499956
H147	H	-0.486282	0.354752	-0.000042
H148	H	0.013718	0.854752	0.499958
N149	N	-0.690797	-0.032981	-0.000019
N150	N	-0.190797	0.467019	0.499981
N151	N	-0.663715	-0.095116	-0.000025
N152	N	-0.163715	0.404884	0.499975
H153	H	-0.698781	-0.144420	-0.000011
H154	H	-0.198781	0.355580	0.499989
H155	H	-0.766711	-0.508455	-0.000083
H156	H	-0.266711	-0.008455	0.499917
H157	H	-0.992499	0.001899	0.593297
H158	H	-0.492499	0.501899	1.093297
H159	H	-0.770785	-0.254362	-0.000073
H160	H	-0.270785	0.245638	0.499927
H161	H	-0.283422	-0.025143	-0.000059
H162	H	0.216578	0.474857	0.499941
H163	H	-0.140200	-0.027432	-0.000060
H164	H	0.359800	0.472568	0.499940
N165	N	-1.031386	-0.535361	-0.000053
N166	N	-0.531386	-0.035361	0.499947
N167	N	-1.092394	-0.578777	-0.000055
N168	N	-0.592394	-0.078777	0.499945
H169	H	-1.142609	-0.556911	-0.000048
H170	H	-0.642609	-0.056911	0.499952
H171	H	-0.773070	-0.111140	-0.000060
H172	H	-0.273070	0.388860	0.499940
