data_functionalizedCrystal
_audit_creation_method	'MofGen! by Chris Wilmer'
_symmetry_space_group_name_H-M	'P1'
_symmetry_Int_Tables_number	1
_symmetry_cell_setting	triclinic
loop_
_symmetry_equiv_pos_as_xyz
  x,y,z
_cell_length_a	14.971506
_cell_length_b	19.188930
_cell_length_c	14.048226
_cell_angle_alpha	89.988446
_cell_angle_beta	89.993237
_cell_angle_gamma	83.383585
loop_
_atom_site_label
_atom_site_type_symbol
_atom_site_fract_x
_atom_site_fract_y
_atom_site_fract_z
O1	O	1.186455	0.091055	-0.079178
O2	O	0.926000	0.101936	-0.079180
O3	O	1.063743	-0.005135	-0.079161
O4	O	1.048711	0.198127	-0.079198
O5	O	1.063727	-0.005142	0.079161
O6	O	0.925983	0.101930	0.079141
O7	O	1.186438	0.091049	0.079143
Zn8	Zn	1.056208	0.096488	0.104279
Zn9	Zn	1.056230	0.096497	-0.104316
O10	O	1.048695	0.198120	0.079123
C11	C	0.892670	0.101444	-0.000019
C12	C	0.793381	0.099978	-0.000019
C13	C	1.063248	-0.031151	0.000003
C14	C	1.061787	-0.108660	0.000011
C15	C	0.354796	0.157287	-0.000040
C16	C	0.448089	0.158659	-0.000044
C17	C	0.505641	0.095750	-0.000028
C18	C	0.469896	0.031465	-0.000018
C19	C	0.376605	0.030094	-0.000020
C20	C	0.664344	0.034327	-0.000010
C21	C	0.757642	0.035698	-0.000006
C22	C	0.735828	0.162892	-0.000034
C23	C	0.642537	0.161521	-0.000036
C24	C	0.606798	0.097236	-0.000024
C25	C	1.142611	-0.153320	0.000016
C26	C	1.141238	-0.226148	0.000001
C27	C	1.059037	-0.254314	-0.000000
C28	C	0.978203	-0.209645	-0.000011
C29	C	0.979578	-0.136818	-0.000005
N30	N	0.996198	-0.362527	0.053879
N31	N	0.994897	-0.431710	0.053875
C32	C	1.054888	-0.473736	-0.000020
N33	N	1.116243	-0.443967	-0.053900
N34	N	1.117547	-0.374778	-0.053892
C35	C	1.057537	-0.333281	-0.000007
C36	C	1.134229	-0.597365	-0.000033
C37	C	1.132853	-0.670194	-0.000054
C38	C	0.969815	-0.653689	-0.000056
C39	C	0.971194	-0.580861	-0.000044
C40	C	1.053403	-0.552704	-0.000028
C41	C	1.219768	0.091541	-0.000020
C42	C	1.319057	0.093007	-0.000026
C43	C	1.049190	0.224136	-0.000042
C44	C	1.050651	0.301645	-0.000057
N45	N	1.056200	0.096482	0.246640
N46	N	1.056245	0.096497	-0.246677
C47	C	1.117212	0.049091	0.296466
C48	C	1.117218	0.049090	0.396124
C49	C	1.056216	0.096485	0.445953
C50	C	0.995197	0.143879	0.396119
C51	C	0.995187	0.143876	0.296464
C52	C	0.995223	0.143884	0.603834
C53	C	0.995233	0.143889	0.703496
C54	C	1.117253	0.049099	0.703494
C55	C	1.117244	0.049095	0.603838
C56	C	1.056226	0.096490	0.554011
H57	H	0.307942	0.208515	-0.000045
O58	O	0.884020	-0.532686	-0.000026
H59	H	0.826628	-0.564504	-0.000018
O60	O	0.338050	-0.039236	0.000004
H61	H	0.393741	-0.082750	0.000027
O62	O	1.183004	-0.002032	0.242723
H63	H	1.225423	-0.034991	0.294117
H64	H	0.595679	0.212747	-0.000043
H65	H	1.198672	-0.706555	-0.000055
O66	O	1.183036	-0.002025	0.449854
H67	H	1.145536	-0.036021	0.495270
H68	H	0.635250	-0.018020	-0.000005
H69	H	0.945504	0.182466	0.255896
O70	O	1.183034	-0.002024	0.550088
H71	H	1.225458	-0.034986	0.601475
H72	H	0.477183	0.211001	-0.000064
O73	O	1.183073	-0.002014	0.757235
H74	H	1.225501	-0.034962	0.705843
O75	O	0.881155	-0.684062	-0.000056
H76	H	0.825183	-0.640768	-0.000060
H77	H	1.209552	-0.130399	0.000026
O78	O	1.228414	-0.274330	0.000019
H79	H	1.285809	-0.242515	0.000039
O80	O	0.889544	-0.240023	-0.000011
H81	H	0.833570	-0.196730	-0.000020
O82	O	0.929422	0.194992	0.757247
H83	H	0.886977	0.227937	0.705859
O84	O	0.774366	0.232231	-0.000057
H85	H	0.848905	0.222618	-0.000066
O86	O	0.929417	0.195005	0.550086
H87	H	0.887007	0.227969	0.601476
H88	H	0.804499	-0.015528	-0.000001
H89	H	0.913759	-0.100456	-0.000009
H90	H	0.945523	0.182467	0.436696
H91	H	1.201169	-0.574438	-0.000024
O92	O	0.531969	-0.036387	0.000010
H93	H	0.575014	-0.038805	-0.064510
