data_functionalizedCrystal
_audit_creation_method	'MofGen! by Chris Wilmer'
_symmetry_space_group_name_H-M	'P1'
_symmetry_Int_Tables_number	1
_symmetry_cell_setting	triclinic
loop_
_symmetry_equiv_pos_as_xyz
  x,y,z
_cell_length_a	29.839135
_cell_length_b	25.639239
_cell_length_c	25.639233
_cell_angle_alpha	89.975333
_cell_angle_beta	90.016634
_cell_angle_gamma	89.957589
loop_
_atom_site_label
_atom_site_type_symbol
_atom_site_fract_x
_atom_site_fract_y
_atom_site_fract_z
Zn1	Zn	0.686730	0.208179	0.295644
Zn2	Zn	0.936730	0.458179	0.545644
Zn3	Zn	1.186730	0.708179	0.795644
Zn4	Zn	1.436730	0.958179	1.045644
Zn5	Zn	0.686662	0.295598	0.208199
Zn6	Zn	0.936662	0.545598	0.458199
Zn7	Zn	1.186662	0.795598	0.708199
Zn8	Zn	1.436662	1.045598	0.958199
Zn9	Zn	0.611611	0.208182	0.208216
Zn10	Zn	0.861611	0.458182	0.458216
Zn11	Zn	1.111611	0.708182	0.708216
Zn12	Zn	1.361611	0.958182	0.958216
Zn13	Zn	0.611562	0.295589	0.295597
Zn14	Zn	0.861562	0.545589	0.545597
Zn15	Zn	1.111562	0.795589	0.795597
Zn16	Zn	1.361562	1.045589	1.045597
O17	O	0.649141	0.251887	0.251914
O18	O	0.899141	0.501887	0.501914
O19	O	1.149141	0.751887	0.751914
O20	O	1.399141	1.001887	1.001914
O21	O	0.749588	0.219778	0.284056
O22	O	0.999588	0.469778	0.534056
O23	O	1.249588	0.719778	0.784056
O24	O	1.499588	0.969778	1.034056
O25	O	0.676699	0.284007	0.135036
O26	O	0.926699	0.534007	0.385036
O27	O	1.176699	0.784007	0.635036
O28	O	1.426699	1.034007	0.885036
O29	O	0.621624	0.135017	0.219840
O30	O	0.871624	0.385017	0.469840
O31	O	1.121624	0.635017	0.719840
O32	O	1.371624	0.885017	0.969840
O33	O	0.749538	0.284004	0.219811
O34	O	0.999538	0.534004	0.469811
O35	O	1.249538	0.784004	0.719811
O36	O	1.499538	1.034004	0.969811
O37	O	0.676813	0.135014	0.284073
O38	O	0.926813	0.385014	0.534073
O39	O	1.176813	0.635014	0.784073
O40	O	1.426813	0.885014	1.034073
O41	O	0.621559	0.219783	0.135049
O42	O	0.871559	0.469783	0.385049
O43	O	1.121559	0.719783	0.635049
O44	O	1.371559	0.969783	0.885049
O45	O	0.548737	0.219775	0.219795
O46	O	0.798737	0.469775	0.469795
O47	O	1.048737	0.719775	0.719795
O48	O	1.298737	0.969775	0.969795
O49	O	0.621541	0.283989	0.368769
O50	O	0.871541	0.533989	0.618769
O51	O	1.121541	0.783989	0.868769
O52	O	1.371541	1.033989	1.118769
O53	O	0.548701	0.283992	0.283994
O54	O	0.798701	0.533992	0.533994
O55	O	1.048701	0.783992	0.783994
O56	O	1.298701	1.033992	1.033994
O57	O	0.676766	0.219769	0.368803
O58	O	0.926766	0.469769	0.618803
O59	O	1.176766	0.719769	0.868803
O60	O	1.426766	0.969769	1.118803
O61	O	0.676651	0.368762	0.219766
O62	O	0.926651	0.618762	0.469766
O63	O	1.176651	0.868762	0.719766
O64	O	1.426651	1.118762	0.969766
O65	O	0.621476	0.368756	0.283977
O66	O	0.871476	0.618756	0.533977
O67	O	1.121476	0.868756	0.783977
O68	O	1.371476	1.118756	1.033977
C69	C	0.532419	0.251883	0.251892
C70	C	0.782419	0.501883	0.501892
C71	C	1.032419	0.751883	0.751892
C72	C	1.282419	1.001883	1.001892
C73	C	0.482484	0.251894	0.251894
C74	C	0.732484	0.501894	0.501894
C75	C	0.982484	0.751894	0.751894
C76	C	1.232484	1.001894	1.001894
C77	C	0.172864	0.218495	0.285416
C78	C	0.422864	0.468495	0.535416
C79	C	0.672864	0.718495	0.785416
C80	C	0.922864	0.968495	1.035416
C81	C	-0.014810	0.218499	0.285431
C82	C	0.235190	0.468499	0.535431
C83	C	0.485190	0.718499	0.785431
C84	C	0.735190	0.968499	1.035431
O85	O	-0.039055	0.190090	0.313907
O86	O	0.210945	0.440090	0.563907
O87	O	0.460945	0.690090	0.813907
O88	O	0.710945	0.940090	1.063907
N89	N	-0.038301	0.251888	0.251933
N90	N	0.211699	0.501888	0.501933
N91	N	0.461699	0.751888	0.751933
N92	N	0.711699	1.001888	1.001933
C93	C	-0.014871	0.285276	0.218427
C94	C	0.235129	0.535276	0.468427
C95	C	0.485129	0.785276	0.718427
C96	C	0.735129	1.035276	0.968427
O97	O	-0.039158	0.313671	0.189932
O98	O	0.210842	0.563671	0.439932
O99	O	0.460842	0.813671	0.689932
O100	O	0.710842	1.063671	0.939932
C101	C	0.172801	0.285269	0.218410
C102	C	0.422801	0.535269	0.468410
C103	C	0.672801	0.785269	0.718410
C104	C	0.922801	1.035269	0.968410
C105	C	0.196290	0.251882	0.251913
C106	C	0.446290	0.501882	0.501913
C107	C	0.696290	0.751882	0.751913
C108	C	0.946290	1.001882	1.001913
C109	C	0.196353	0.185110	0.318916
C110	C	0.446353	0.435110	0.568916
C111	C	0.696353	0.685110	0.818916
C112	C	0.946353	0.935110	1.068916
C113	C	0.243268	0.185112	0.318914
C114	C	0.493268	0.435112	0.568914
C115	C	0.743268	0.685112	0.818914
C116	C	0.993268	0.935112	1.068914
C117	C	0.266694	0.218498	0.285412
C118	C	0.516694	0.468498	0.535412
C119	C	0.766694	0.718498	0.785412
C120	C	1.016694	0.968498	1.035412
C121	C	0.243205	0.251883	0.251911
C122	C	0.493205	0.501883	0.501911
C123	C	0.743205	0.751883	0.751911
C124	C	0.993205	1.001883	1.001911
C125	C	0.196230	0.318654	0.184902
C126	C	0.446230	0.568654	0.434902
C127	C	0.696230	0.818654	0.684902
C128	C	0.946230	1.068654	0.934902
C129	C	0.243151	0.318648	0.184900
C130	C	0.493151	0.568648	0.434900
C131	C	0.743151	0.818648	0.684900
C132	C	0.993151	1.068648	0.934900
C133	C	0.266640	0.285261	0.218403
C134	C	0.516640	0.535261	0.468403
C135	C	0.766640	0.785261	0.718403
C136	C	1.016640	1.035261	0.968403
C137	C	0.313547	0.285271	0.218407
C138	C	0.563547	0.535271	0.468407
C139	C	0.813547	0.785271	0.718407
C140	C	1.063547	1.035271	0.968407
N141	N	0.337039	0.251882	0.251904
N142	N	0.587039	0.501882	0.501904
N143	N	0.837039	0.751882	0.751904
N144	N	1.087039	1.001882	1.001904
C145	C	0.313612	0.218496	0.285407
C146	C	0.563612	0.468496	0.535407
C147	C	0.813612	0.718496	0.785407
C148	C	1.063612	0.968496	1.035407
C149	C	-0.113402	0.285277	0.218439
C150	C	0.136598	0.535277	0.468439
C151	C	0.386598	0.785277	0.718439
C152	C	0.636598	1.035277	0.968439
C153	C	-0.160320	0.285280	0.218444
C154	C	0.089680	0.535280	0.468444
C155	C	0.339680	0.785280	0.718444
C156	C	0.589680	1.035280	0.968444
C157	C	-0.160255	0.218502	0.285447
C158	C	0.089745	0.468502	0.535447
C159	C	0.339745	0.718502	0.785447
C160	C	0.589745	0.968502	1.035447
C161	C	-0.113336	0.218503	0.285444
C162	C	0.136664	0.468503	0.535444
C163	C	0.386664	0.718503	0.785444
C164	C	0.636664	0.968503	1.035444
C165	C	-0.089910	0.251889	0.251937
C166	C	0.160090	0.501889	0.501937
C167	C	0.410090	0.751889	0.751937
C168	C	0.660090	1.001889	1.001937
C169	C	0.412138	0.218502	0.285400
C170	C	0.662138	0.468502	0.535400
C171	C	0.912138	0.718502	0.785400
C172	C	1.162138	0.968502	1.035400
C173	C	0.459058	0.218508	0.285397
C174	C	0.709058	0.468508	0.535397
C175	C	0.959058	0.718508	0.785397
C176	C	1.209058	0.968508	1.035397
C177	C	0.458989	0.285283	0.218392
C178	C	0.708989	0.535283	0.468392
C179	C	0.958989	0.785283	0.718392
C180	C	1.208989	1.035283	0.968392
C181	C	0.412073	0.285279	0.218397
C182	C	0.662073	0.535279	0.468397
C183	C	0.912073	0.785279	0.718397
C184	C	1.162073	1.035279	0.968397
C185	C	0.388649	0.251884	0.251903
C186	C	0.638649	0.501884	0.501903
C187	C	0.888649	0.751884	0.751903
C188	C	1.138649	1.001884	1.001903
O189	O	0.337822	0.313661	0.189942
O190	O	0.587822	0.563661	0.439942
O191	O	0.837822	0.813661	0.689942
O192	O	1.087822	1.063661	0.939942
O193	O	0.337908	0.190096	0.313889
O194	O	0.587908	0.440096	0.563889
O195	O	0.837908	0.690096	0.813889
O196	O	1.087908	0.940096	1.063889
C197	C	0.125948	0.218494	0.285418
C198	C	0.375948	0.468494	0.535418
C199	C	0.625948	0.718494	0.785418
C200	C	0.875948	0.968494	1.035418
C201	C	0.102459	0.251879	0.251918
C202	C	0.352459	0.501879	0.501918
C203	C	0.602459	0.751879	0.751918
C204	C	0.852459	1.001879	1.001918
C205	C	0.125885	0.285265	0.218415
C206	C	0.375885	0.535265	0.468415
C207	C	0.625885	0.785265	0.718415
C208	C	0.875885	1.035265	0.968415
C209	C	0.055541	0.251881	0.251922
C210	C	0.305541	0.501881	0.501922
C211	C	0.555541	0.751881	0.751922
C212	C	0.805541	1.001881	1.001922
C213	C	0.032115	0.218495	0.285425
C214	C	0.282115	0.468495	0.535425
C215	C	0.532115	0.718495	0.785425
C216	C	0.782115	0.968495	1.035425
C217	C	0.055606	0.185106	0.318922
C218	C	0.305606	0.435106	0.568922
C219	C	0.555606	0.685106	0.818922
C220	C	0.805606	0.935106	1.068922
C221	C	0.102522	0.185107	0.318920
C222	C	0.352522	0.435107	0.568920
C223	C	0.602522	0.685107	0.818920
C224	C	0.852522	0.935107	1.068920
C225	C	0.102394	0.318654	0.184918
C226	C	0.352394	0.568654	0.434918
C227	C	0.602394	0.818654	0.684918
C228	C	0.852394	1.068654	0.934918
C229	C	0.055479	0.318650	0.184923
C230	C	0.305479	0.568650	0.434923
C231	C	0.555479	0.818650	0.684923
C232	C	0.805479	1.068650	0.934923
C233	C	0.032052	0.285264	0.218425
C234	C	0.282052	0.535264	0.468425
C235	C	0.532052	0.785264	0.718425
C236	C	0.782052	1.035264	0.968425
C237	C	0.649063	0.387730	0.251876
C238	C	0.899063	0.637730	0.501876
C239	C	1.149063	0.887730	0.751876
C240	C	1.399063	1.137730	1.001876
C241	C	0.649071	0.445844	0.251877
C242	C	0.899071	0.695844	0.501877
C243	C	1.149071	0.945844	0.751877
C244	C	1.399071	1.195844	1.001877
C245	C	0.677833	0.806167	0.285432
C246	C	0.927833	1.056167	0.535432
C247	C	1.177833	1.306167	0.785432
C248	C	1.427833	1.556167	1.035432
C249	C	0.677841	0.860771	0.285444
C250	C	0.927841	1.110771	0.535444
C251	C	1.177841	1.360771	0.785444
C252	C	1.427841	1.610771	1.035444
O253	O	0.702250	0.888975	0.313926
O254	O	0.952250	1.138975	0.563926
O255	O	1.202250	1.388975	0.813926
O256	O	1.452250	1.638975	1.063926
N257	N	0.649135	0.888126	0.251978
N258	N	0.899135	1.138126	0.501978
N259	N	1.149135	1.388126	0.751978
N260	N	1.399135	1.638126	1.001978
C261	C	0.620418	0.860874	0.218502
C262	C	0.870418	1.110874	0.468502
C263	C	1.120418	1.360874	0.718502
C264	C	1.370418	1.610874	0.968502
O265	O	0.596002	0.889155	0.190039
O266	O	0.846002	1.139155	0.440039
O267	O	1.096002	1.389155	0.690039
O268	O	1.346002	1.639155	0.940039
C269	C	0.620408	0.806270	0.218494
C270	C	0.870408	1.056270	0.468494
C271	C	1.120408	1.306270	0.718494
C272	C	1.370408	1.556270	0.968494
C273	C	0.649119	0.778919	0.251958
C274	C	0.899119	1.028919	0.501958
C275	C	1.149119	1.278919	0.751958
C276	C	1.399119	1.528919	1.001958
C277	C	0.706541	0.778815	0.318894
C278	C	0.956541	1.028815	0.568894
C279	C	1.206541	1.278815	0.818894
C280	C	1.456541	1.528815	1.068894
C281	C	0.706534	0.724215	0.318882
C282	C	0.956534	0.974215	0.568882
C283	C	1.206534	1.224215	0.818882
C284	C	1.456534	1.474215	1.068882
C285	C	0.677819	0.696966	0.285407
C286	C	0.927819	0.946966	0.535407
C287	C	1.177819	1.196966	0.785407
C288	C	1.427819	1.446966	1.035407
C289	C	0.649112	0.724318	0.251945
C290	C	0.899112	0.974318	0.501945
C291	C	1.149112	1.224318	0.751945
C292	C	1.399112	1.474318	1.001945
C293	C	0.591689	0.779019	0.185021
C294	C	0.841689	1.029019	0.435021
C295	C	1.091689	1.279019	0.685021
C296	C	1.341689	1.529019	0.935021
C297	C	0.591682	0.724412	0.185015
C298	C	0.841682	0.974412	0.435015
C299	C	1.091682	1.224412	0.685015
C300	C	1.341682	1.474412	0.935015
C301	C	0.620392	0.697060	0.218479
C302	C	0.870392	0.947060	0.468479
C303	C	1.120392	1.197060	0.718479
C304	C	1.370392	1.447060	0.968479
C305	C	0.620390	0.642469	0.218458
C306	C	0.870390	0.892469	0.468458
C307	C	1.120390	1.142469	0.718458
C308	C	1.370390	1.392469	0.968458
N309	N	0.649096	0.615114	0.251924
N310	N	0.899096	0.865114	0.501924
N311	N	1.149096	1.115114	0.751924
N312	N	1.399096	1.365114	1.001924
C313	C	0.677810	0.642363	0.285398
C314	C	0.927810	0.892363	0.535398
C315	C	1.177810	1.142363	0.785398
C316	C	1.427810	1.392363	1.035398
C317	C	0.620439	0.975544	0.218524
C318	C	0.870439	1.225544	0.468524
C319	C	1.120439	1.475544	0.718524
C320	C	1.370439	1.725544	0.968524
C321	C	0.620450	1.030147	0.218530
C322	C	0.870450	1.280147	0.468530
C323	C	1.120450	1.530147	0.718530
C324	C	1.370450	1.780147	0.968530
C325	C	0.677873	1.030041	0.285472
C326	C	0.927873	1.280041	0.535472
C327	C	1.177873	1.530041	0.785472
C328	C	1.427873	1.780041	1.035472
C329	C	0.677863	0.975437	0.285464
C330	C	0.927863	1.225437	0.535464
C331	C	1.177863	1.475437	0.785464
C332	C	1.427863	1.725437	1.035464
C333	C	0.649144	0.948190	0.251990
C334	C	0.899144	1.198190	0.501990
C335	C	1.149144	1.448190	0.751990
C336	C	1.399144	1.698190	1.001990
C337	C	0.677794	0.527698	0.285369
C338	C	0.927794	0.777698	0.535369
C339	C	1.177794	1.027698	0.785369
C340	C	1.427794	1.277698	1.035369
C341	C	0.677785	0.473092	0.285352
C342	C	0.927785	0.723092	0.535352
C343	C	1.177785	0.973092	0.785352
C344	C	1.427785	1.223092	1.035352
C345	C	0.620361	0.473203	0.218411
C346	C	0.870361	0.723203	0.468411
C347	C	1.120361	0.973203	0.718411
C348	C	1.370361	1.223203	0.968411
C349	C	0.620371	0.527804	0.218426
C350	C	0.870371	0.777804	0.468426
C351	C	1.120371	1.027804	0.718426
C352	C	1.370371	1.277804	0.968426
C353	C	0.649089	0.555050	0.251909
C354	C	0.899089	0.805050	0.501909
C355	C	1.149089	1.055050	0.751909
C356	C	1.399089	1.305050	1.001909
O357	O	0.595992	0.614231	0.189993
O358	O	0.845992	0.864231	0.439993
O359	O	1.095992	1.114231	0.689993
O360	O	1.345992	1.364231	0.939993
O361	O	0.702217	0.614075	0.313862
O362	O	0.952217	0.864075	0.563862
O363	O	1.202217	1.114075	0.813862
O364	O	1.452217	1.364075	1.063862
C365	C	0.766319	0.251892	0.251937
C366	C	1.016319	0.501892	0.501937
C367	C	1.266319	0.751892	0.751937
C368	C	1.516319	1.001892	1.001937
C369	C	0.816254	0.251893	0.251946
C370	C	1.066254	0.501893	0.501946
C371	C	1.316254	0.751893	0.751946
C372	C	1.566254	1.001893	1.001946
C373	C	0.649156	0.251878	0.388287
C374	C	0.899156	0.501878	0.638287
C375	C	1.149156	0.751878	0.888287
C376	C	1.399156	1.001878	1.138287
C377	C	0.649162	0.251874	0.446401
C378	C	0.899162	0.501874	0.696401
C379	C	1.149162	0.751874	0.946401
C380	C	1.399162	1.001874	1.196401
C381	C	0.649205	1.115514	0.251969
C382	C	0.899205	1.365514	0.501969
C383	C	1.149205	1.615514	0.751969
C384	C	1.399205	1.865514	1.001969
C385	C	0.649163	1.057400	0.252007
C386	C	0.899163	1.307400	0.502007
C387	C	1.149163	1.557400	0.752007
C388	C	1.399163	1.807400	1.002007
C389	C	0.649153	0.251859	0.116071
C390	C	0.899153	0.501859	0.366071
C391	C	1.149153	0.751859	0.616071
C392	C	1.399153	1.001859	0.866071
C393	C	0.649233	0.251715	0.057958
C394	C	0.899233	0.501715	0.307958
C395	C	1.149233	0.751715	0.557958
C396	C	1.399233	1.001715	0.807958
C397	C	0.677954	0.218335	0.806788
C398	C	0.927954	0.468335	1.056788
C399	C	1.177954	0.718335	1.306788
C400	C	1.427954	0.968335	1.556788
C401	C	0.677960	0.218321	0.861392
C402	C	0.927960	0.468321	1.111392
C403	C	1.177960	0.718321	1.361392
C404	C	1.427960	0.968321	1.611392
O405	O	0.702403	0.189867	0.889649
O406	O	0.952403	0.439867	1.139649
O407	O	1.202403	0.689867	1.389649
O408	O	1.452403	0.939867	1.639649
N409	N	0.649211	0.251751	0.888684
N410	N	0.899211	0.501751	1.138684
N411	N	1.149211	0.751751	1.388684
N412	N	1.399211	1.001751	1.638684
C413	C	0.620452	0.285195	0.861368
C414	C	0.870452	0.535195	1.111368
C415	C	1.120452	0.785195	1.361368
C416	C	1.370452	1.035195	1.611368
O417	O	0.596000	0.313628	0.889596
O418	O	0.846000	0.563628	1.139596
O419	O	1.096000	0.813628	1.389596
O420	O	1.346000	1.063628	1.639596
C421	C	0.620445	0.285206	0.806765
C422	C	0.870445	0.535206	1.056765
C423	C	1.120445	0.785206	1.306765
C424	C	1.370445	1.035206	1.556765
C425	C	0.649198	0.251777	0.779476
C426	C	0.899198	0.501777	1.029476
C427	C	1.149198	0.751777	1.279476
C428	C	1.399198	1.001777	1.529476
C429	C	0.706705	0.184909	0.779499
C430	C	0.956705	0.434909	1.029499
C431	C	1.206705	0.684909	1.279499
C432	C	1.456705	0.934909	1.529499
C433	C	0.706700	0.184924	0.724898
C434	C	0.956700	0.434924	0.974898
C435	C	1.206700	0.684924	1.224898
C436	C	1.456700	0.934924	1.474898
C437	C	0.677944	0.218366	0.697587
C438	C	0.927944	0.468366	0.947587
C439	C	1.177944	0.718366	1.197587
C440	C	1.427944	0.968366	1.447587
C441	C	0.649193	0.251793	0.724876
C442	C	0.899193	0.501793	0.974876
C443	C	1.149193	0.751793	1.224876
C444	C	1.399193	1.001793	1.474876
C445	C	0.591684	0.318647	0.779451
C446	C	0.841684	0.568647	1.029451
C447	C	1.091684	0.818647	1.279451
C448	C	1.341684	1.068647	1.529451
C449	C	0.591679	0.318655	0.724844
C450	C	0.841679	0.568655	0.974844
C451	C	1.091679	0.818655	1.224844
C452	C	1.341679	1.068655	1.474844
C453	C	0.620432	0.285226	0.697555
C454	C	0.870432	0.535226	0.947555
C455	C	1.120432	0.785226	1.197555
C456	C	1.370432	1.035226	1.447555
C457	C	0.620432	0.285250	0.642963
C458	C	0.870432	0.535250	0.892963
C459	C	1.120432	0.785250	1.142963
C460	C	1.370432	1.035250	1.392963
N461	N	0.649181	0.251819	0.615672
N462	N	0.899181	0.501819	0.865672
N463	N	1.149181	0.751819	1.115672
N464	N	1.399181	1.001819	1.365672
C465	C	0.677936	0.218377	0.642983
C466	C	0.927936	0.468377	0.892983
C467	C	1.177936	0.718377	1.142983
C468	C	1.427936	0.968377	1.392983
C469	C	0.620470	0.285168	0.976039
C470	C	0.870470	0.535168	1.226039
C471	C	1.120470	0.785168	1.476039
C472	C	1.370470	1.035168	1.726039
C473	C	0.620479	0.285159	1.030641
C474	C	0.870479	0.535159	1.280641
C475	C	1.120479	0.785159	1.530641
C476	C	1.370479	1.035159	1.780641
C477	C	0.677986	0.218285	1.030661
C478	C	0.927986	0.468285	1.280661
C479	C	1.177986	0.718285	1.530661
C480	C	1.427986	0.968285	1.780661
C481	C	0.677978	0.218296	0.976058
C482	C	0.927978	0.468296	1.226058
C483	C	1.177978	0.718296	1.476058
C484	C	1.427978	0.968296	1.726058
C485	C	0.649218	0.251737	0.948747
C486	C	0.899218	0.501737	1.198747
C487	C	1.149218	0.751737	1.448747
C488	C	1.399218	1.001737	1.698747
C489	C	0.677924	0.218412	0.528318
C490	C	0.927924	0.468412	0.778318
C491	C	1.177924	0.718412	1.028318
C492	C	1.427924	0.968412	1.278318
C493	C	0.677918	0.218432	0.473713
C494	C	0.927918	0.468432	0.723713
C495	C	1.177918	0.718432	0.973713
C496	C	1.427918	0.968432	1.223713
C497	C	0.620409	0.285305	0.473698
C498	C	0.870409	0.535305	0.723698
C499	C	1.120409	0.785305	0.973698
C500	C	1.370409	1.035305	1.223698
C501	C	0.620417	0.285287	0.528298
C502	C	0.870417	0.535287	0.778298
C503	C	1.120417	0.785287	1.028298
C504	C	1.370417	1.035287	1.278298
C505	C	0.649176	0.251837	0.555607
C506	C	0.899176	0.501837	0.805607
C507	C	1.149176	0.751837	1.055607
C508	C	1.399176	1.001837	1.305607
O509	O	0.596000	0.313688	0.614672
O510	O	0.846000	0.563688	0.864672
O511	O	1.096000	0.813688	1.114672
O512	O	1.346000	1.063688	1.364672
O513	O	0.702381	0.189944	0.614749
O514	O	0.952381	0.439944	0.864749
O515	O	1.202381	0.689944	1.114749
O516	O	1.452381	0.939944	1.364749
H517	H	0.036524	0.157923	0.346203
H518	H	0.286524	0.407923	0.596203
H519	H	0.536524	0.657923	0.846203
H520	H	0.786524	0.907923	1.096203
H521	H	0.597076	1.052412	0.191274
H522	H	0.847076	1.302412	0.441274
H523	H	1.097076	1.552412	0.691274
H524	H	1.347076	1.802412	0.941274
H525	H	0.597049	0.312402	0.953806
H526	H	0.847049	0.562402	1.203806
H527	H	1.097049	0.812402	1.453806
H528	H	1.347049	1.062402	1.703806
F529	F	0.708359	0.556687	0.321005
F530	F	0.958359	0.806687	0.571005
F531	F	1.208359	1.056687	0.821005
F532	F	1.458359	1.306687	1.071005
H533	H	0.177113	0.345841	0.157619
H534	H	0.427113	0.595841	0.407619
H535	H	0.677113	0.845841	0.657619
H536	H	0.927113	1.095841	0.907619
F537	F	0.737104	0.807807	0.354528
F538	F	0.987104	1.057807	0.604528
F539	F	1.237104	1.307807	0.854528
F540	F	1.487104	1.557807	1.104528
H541	H	0.568270	0.345868	0.801660
H542	H	0.818270	0.595868	1.051660
H543	H	1.068270	0.845868	1.301660
H544	H	1.318270	1.095868	1.551660
F545	F	0.589804	0.444194	0.182787
F546	F	0.839804	0.694194	0.432787
F547	F	1.089804	0.944194	0.682787
F548	F	1.339804	1.194194	0.932787
F549	F	0.708420	0.946332	0.321081
F550	F	0.958420	1.196332	0.571081
F551	F	1.208420	1.446332	0.821081
F552	F	1.458420	1.696332	1.071081
F553	F	0.708433	1.059050	0.321100
F554	F	0.958433	1.309050	0.571100
F555	F	1.208433	1.559050	0.821100
F556	F	1.458433	1.809050	1.071100
H557	H	0.121642	0.157920	0.346202
H558	H	0.371642	0.407920	0.596202
H559	H	0.621642	0.657920	0.846202
H560	H	0.871642	0.907920	1.096202
F561	F	0.708523	0.182852	0.444673
F562	F	0.958523	0.432852	0.694673
F563	F	1.208523	0.682852	0.944673
F564	F	1.458523	0.932852	1.194673
F565	F	0.589873	0.946550	0.182891
F566	F	0.839873	1.196550	0.432891
F567	F	1.089873	1.446550	0.682891
F568	F	1.339873	1.696550	0.932891
F569	F	0.737317	0.149317	0.808558
F570	F	0.987317	0.399317	1.058558
F571	F	1.237317	0.649317	1.308558
F572	F	1.487317	0.899317	1.558558
H573	H	0.036358	0.345843	0.157641
H574	H	0.286358	0.595843	0.407641
H575	H	0.536358	0.845843	0.657641
H576	H	0.786358	1.095843	0.907641
F577	F	0.561130	0.808117	0.149404
F578	F	0.811130	1.058117	0.399404
F579	F	1.061130	1.308117	0.649404
F580	F	1.311130	1.558117	0.899404
F581	F	0.127320	0.354186	0.149253
F582	F	0.377320	0.604186	0.399253
F583	F	0.627320	0.854186	0.649253
F584	F	0.877320	1.104186	0.899253
F585	F	0.708345	0.443985	0.320969
F586	F	0.958345	0.693985	0.570969
F587	F	1.208345	0.943985	0.820969
F588	F	1.458345	1.193985	1.070969
H589	H	0.730113	0.157702	0.702684
H590	H	0.980113	0.407702	0.952684
H591	H	1.230113	0.657702	1.202684
H592	H	1.480113	0.907702	1.452684
H593	H	0.729911	0.701948	0.346132
H594	H	0.979911	0.951948	0.596132
H595	H	1.229911	1.201948	0.846132
H596	H	1.479911	1.451948	1.096132
H597	H	0.568294	0.702230	0.157757
H598	H	0.818294	0.952230	0.407757
H599	H	1.068294	1.202230	0.657757
H600	H	1.318294	1.452230	0.907757
F601	F	0.589820	0.556915	0.182804
F602	F	0.839820	0.806915	0.432804
F603	F	1.089820	1.056915	0.682804
F604	F	1.339820	1.306915	0.932804
F605	F	0.708590	0.182691	1.059738
F606	F	0.958590	0.432691	1.309738
F607	F	1.208590	0.682691	1.559738
F608	F	1.458590	0.932691	1.809738
H609	H	0.701340	0.191172	0.550547
H610	H	0.951340	0.441172	0.800547
H611	H	1.201340	0.691172	1.050547
H612	H	1.451340	0.941172	1.300547
F613	F	0.561066	0.354248	0.695781
F614	F	0.811066	0.604248	0.945781
F615	F	1.061066	0.854248	1.195781
F616	F	1.311066	1.104248	1.445781
F617	F	0.589818	0.320869	0.557342
F618	F	0.839818	0.570869	0.807342
F619	F	1.089818	0.820869	1.057342
F620	F	1.339818	1.070869	1.307342
F621	F	0.589807	0.320894	0.444621
F622	F	0.839807	0.570894	0.694621
F623	F	1.089807	0.820894	0.944621
F624	F	1.339807	1.070894	1.194621
F625	F	0.708581	0.182716	0.947020
F626	F	0.958581	0.432716	1.197020
F627	F	1.208581	0.682716	1.447020
F628	F	1.458581	0.932716	1.697020
H629	H	0.597070	0.312386	1.052855
H630	H	0.847070	0.562386	1.302855
H631	H	1.097070	0.812386	1.552855
H632	H	1.347070	1.062386	1.802855
H633	H	0.478180	0.191319	0.312681
H634	H	0.728180	0.441319	0.562681
H635	H	0.978180	0.691319	0.812681
H636	H	1.228180	0.941319	1.062681
H637	H	0.393072	0.191307	0.312682
H638	H	0.643072	0.441307	0.562682
H639	H	0.893072	0.691307	0.812682
H640	H	1.143072	0.941307	1.062682
H641	H	0.177284	0.157920	0.346198
H642	H	0.427284	0.407920	0.596198
H643	H	0.677284	0.657920	0.846198
H644	H	0.927284	0.907920	1.096198
F645	F	-0.088341	0.182967	0.321102
F646	F	0.161659	0.432967	0.571102
F647	F	0.411659	0.682967	0.821102
F648	F	0.661659	0.932967	1.071102
F649	F	-0.185195	0.182969	0.321102
F650	F	0.064805	0.432969	0.571102
F651	F	0.314805	0.682969	0.821102
F652	F	0.564805	0.932969	1.071102
F653	F	-0.185313	0.320820	0.182790
F654	F	0.064687	0.570820	0.432790
F655	F	0.314687	0.820820	0.682790
F656	F	0.564687	1.070820	0.932790
F657	F	-0.088476	0.320810	0.182770
F658	F	0.161524	0.570810	0.432770
F659	F	0.411524	0.820810	0.682770
F660	F	0.661524	1.070810	0.932770
F661	F	0.268261	0.149575	0.354572
F662	F	0.518261	0.399575	0.604572
F663	F	0.768261	0.649575	0.854572
F664	F	1.018261	0.899575	1.104572
H665	H	0.262222	0.345835	0.157612
H666	H	0.512222	0.595835	0.407612
H667	H	0.762222	0.845835	0.657612
H668	H	1.012222	1.095835	0.907612
H669	H	0.478071	0.312466	0.191117
H670	H	0.728071	0.562466	0.441117
H671	H	0.978071	0.812466	0.691117
H672	H	1.228071	1.062466	0.941117
F673	F	0.387074	0.320827	0.182753
F674	F	0.637074	0.570827	0.432753
F675	F	0.887074	0.820827	0.682753
F676	F	1.137074	1.070827	0.932753
