data_functionalizedCrystal
_audit_creation_method	'MofGen! by Chris Wilmer'
_symmetry_space_group_name_H-M	'P1'
_symmetry_Int_Tables_number	1
_symmetry_cell_setting	triclinic
loop_
_symmetry_equiv_pos_as_xyz
  x,y,z
_cell_length_a	10.489741
_cell_length_b	10.489716
_cell_length_c	13.101039
_cell_angle_alpha	93.400284
_cell_angle_beta	86.610661
_cell_angle_gamma	84.534155
loop_
_atom_site_label
_atom_site_type_symbol
_atom_site_fract_x
_atom_site_fract_y
_atom_site_fract_z
O1	O	1.700985	0.173000	-0.085141
O2	O	1.329789	0.189892	-0.085156
O3	O	1.523850	-0.004154	-0.085152
O4	O	1.506924	0.367046	-0.085145
O5	O	1.509927	0.009791	0.085277
O6	O	1.315866	0.203837	0.085273
O7	O	1.687062	0.186946	0.085288
Zn8	Zn	1.499253	0.197606	0.112340
Zn9	Zn	1.517598	0.179232	-0.112208
O10	O	1.493001	0.380992	0.085284
C11	C	1.275296	0.195588	0.000056
C12	C	1.133667	0.191771	0.000050
C13	C	1.065538	0.068305	0.000058
C14	C	0.980270	0.119754	-0.083970
C15	C	0.966577	0.133533	0.084060
C16	C	1.050271	0.243264	-0.084047
C17	C	1.036581	0.257032	0.084059
C18	C	0.951343	0.308568	0.000011
C19	C	1.515617	-0.044714	0.000060
C20	C	1.511813	-0.186346	0.000050
C21	C	1.630816	-0.284018	0.000064
C22	C	1.574797	-0.368255	-0.083966
C23	C	1.561042	-0.354470	0.084064
C24	C	1.455849	-0.268723	-0.084050
C25	C	1.442105	-0.254925	0.084056
C26	C	1.386000	-0.339115	0.000005
C27	C	1.741555	0.181249	0.000073
C28	C	1.883184	0.185066	0.000073
C29	C	1.501234	0.421551	0.000070
C30	C	1.505038	0.563182	0.000073
N31	N	1.486743	0.210145	0.265588
N32	N	1.530118	0.166682	-0.265456
C33	C	1.469722	0.227217	0.474631
C34	C	1.547135	0.149615	0.525508
C35	C	1.537664	0.159114	0.641826
C36	C	1.479191	0.217719	0.358302
H37	H	0.955064	0.061699	-0.155012
O38	O	1.634424	0.061722	0.473105
C39	C	1.624380	0.071489	0.366950
H40	H	1.579282	0.171439	0.352359
H41	H	1.724035	0.054369	0.325977
H42	H	1.561704	-0.003443	0.336673
O43	O	1.094092	0.298722	-0.168790
C44	C	1.153412	0.408845	-0.138807
H45	H	1.185768	0.400493	-0.057714
H46	H	1.240245	0.417413	-0.193637
H47	H	1.082195	0.497676	-0.140824
H48	H	1.734336	-0.259348	-0.000017
H49	H	1.605500	-0.392129	0.155103
O50	O	1.382005	0.314854	0.526831
C51	C	1.257580	0.291039	0.500700
H52	H	1.258215	0.186548	0.471115
H53	H	1.188063	0.310867	0.571325
H54	H	1.225847	0.356444	0.438531
O55	O	1.641847	-0.427049	-0.168638
C56	C	1.770776	-0.399454	-0.168352
H57	H	1.794726	-0.372625	-0.086579
H58	H	1.836377	-0.487539	-0.200087
H59	H	1.785481	-0.315888	-0.218159
O60	O	1.403116	-0.223995	-0.168984
C61	C	1.495311	-0.164597	-0.227138
H62	H	1.595650	-0.203724	-0.208079
H63	H	1.483282	-0.185543	-0.312223
H64	H	1.481552	-0.056497	-0.208140
O65	O	0.892435	0.429781	-0.000218
C66	C	0.935386	0.487129	-0.088918
H67	H	0.973022	0.409155	-0.150565
H68	H	0.852284	0.549766	-0.118241
H69	H	1.015581	0.548839	-0.069674
H70	H	1.115245	-0.033200	-0.000049
O71	O	1.375302	-0.196272	0.168883
C72	C	1.325720	-0.289660	0.228874
H73	H	1.385305	-0.385839	0.210547
H74	H	1.329901	-0.259404	0.313539
H75	H	1.221863	-0.299252	0.211050
O76	O	1.262419	-0.368228	-0.000230
C77	C	1.207397	-0.324319	-0.088933
H78	H	1.286634	-0.314690	-0.150577
H79	H	1.140594	-0.395858	-0.118259
H80	H	1.150471	-0.226904	-0.069692
H81	H	1.061818	0.315044	0.155105
H82	H	0.929800	0.087082	0.155099
