data_functionalizedCrystal
_audit_creation_method	'MofGen! by Chris Wilmer'
_symmetry_space_group_name_H-M	'P1'
_symmetry_Int_Tables_number	1
_symmetry_cell_setting	triclinic
loop_
_symmetry_equiv_pos_as_xyz
  x,y,z
_cell_length_a	10.654550
_cell_length_b	17.699083
_cell_length_c	9.130313
_cell_angle_alpha	89.997869
_cell_angle_beta	89.996220
_cell_angle_gamma	83.883958
loop_
_atom_site_label
_atom_site_type_symbol
_atom_site_fract_x
_atom_site_fract_y
_atom_site_fract_z
O1	O	1.665973	0.106299	-0.121923
O2	O	1.300318	0.116427	-0.121900
O3	O	1.493476	0.001240	-0.121899
O4	O	1.472815	0.221487	-0.121924
O5	O	1.493474	0.001243	0.121700
O6	O	1.300315	0.116430	0.121699
O7	O	1.665971	0.106302	0.121676
Cu8	Cu	1.483143	0.111366	0.143930
Cu9	Cu	1.483146	0.111363	-0.144154
O10	O	1.472812	0.221490	0.121675
C11	C	1.253531	0.115685	-0.000097
C12	C	1.114127	0.113460	-0.000088
C13	C	1.033454	0.181281	-0.000117
C14	C	0.902470	0.179185	-0.000142
C15	C	0.932845	0.041443	-0.000115
C16	C	1.063826	0.043539	-0.000080
C17	C	1.015917	0.260805	-0.000139
C18	C	0.884933	0.258710	-0.000164
C19	C	1.492735	-0.026961	-0.000099
C20	C	1.490514	-0.110993	-0.000099
C21	C	1.603894	-0.158893	-0.000104
C22	C	1.601799	-0.237850	-0.000117
C23	C	1.486324	-0.268905	-0.000114
C24	C	1.372935	-0.220998	-0.000113
C25	C	1.375031	-0.142043	-0.000111
C26	C	1.364481	-0.539415	-0.000124
C27	C	1.362394	-0.618376	-0.000122
C28	C	1.591249	-0.635222	-0.000130
C29	C	1.593345	-0.556266	-0.000128
C30	C	1.479957	-0.508367	-0.000135
C31	C	1.482229	-0.422753	-0.000124
C32	C	1.484050	-0.354517	-0.000114
C33	C	1.712757	0.107044	-0.000130
C34	C	1.852161	0.109269	-0.000149
C35	C	1.473554	0.249690	-0.000128
C36	C	1.475775	0.333722	-0.000138
N37	N	1.483150	0.111369	0.346553
N38	N	1.483149	0.111355	-0.346777
C39	C	1.568702	0.060381	0.423205
C40	C	1.568699	0.060372	0.576542
C41	C	1.397587	0.162345	0.576561
C42	C	1.397585	0.162349	0.423226
C43	C	1.667496	0.001510	0.423195
C44	C	1.667493	0.001501	0.576532
H45	H	1.044703	0.291908	0.101809
F46	F	1.239482	-0.651425	-0.000122
F47	F	1.306527	0.216599	0.658174
F48	F	1.149681	-0.028644	-0.000020
F49	F	0.829695	0.297871	-0.133425
F50	F	1.640800	-0.074524	0.368798
F51	F	0.879299	-0.032967	-0.000106
F52	F	1.250036	-0.254051	-0.000127
H53	H	1.697927	-0.133615	-0.000097
H54	H	1.637942	-0.053472	0.624087
F55	F	1.061950	0.293900	-0.137607
F56	F	1.786250	0.025611	0.361015
F57	F	1.243803	-0.488447	-0.000136
F58	F	0.824679	0.290126	0.137290
F59	F	1.793343	0.018444	0.630925
H60	H	1.282705	-0.103043	-0.000107
H61	H	1.694125	-0.276847	-0.000118
F62	F	1.716250	-0.523220	-0.000133
H63	H	1.327912	0.203861	0.360818
F64	F	1.711928	-0.686206	-0.000128
