data_functionalizedCrystal
_audit_creation_method	'MofGen! by Chris Wilmer'
_symmetry_space_group_name_H-M	'P1'
_symmetry_Int_Tables_number	1
_symmetry_cell_setting	triclinic
loop_
_symmetry_equiv_pos_as_xyz
  x,y,z
_cell_length_a	11.026607
_cell_length_b	10.654541
_cell_length_c	9.482900
_cell_angle_alpha	99.425331
_cell_angle_beta	78.636152
_cell_angle_gamma	96.534973
loop_
_atom_site_label
_atom_site_type_symbol
_atom_site_fract_x
_atom_site_fract_y
_atom_site_fract_z
O1	O	1.633379	0.511462	-0.120903
O2	O	1.279568	0.451466	-0.120904
O3	O	1.464608	0.300491	-0.120894
O4	O	1.448338	0.662436	-0.120912
O5	O	1.427024	0.331315	0.120896
O6	O	1.241984	0.482290	0.120887
O7	O	1.595794	0.542285	0.120888
Cu8	Cu	1.415457	0.515102	0.142965
Cu9	Cu	1.459905	0.478649	-0.142981
O10	O	1.410754	0.693260	0.120879
C11	C	1.215472	0.455810	-0.000009
C12	C	1.080481	0.422815	-0.000009
C13	C	1.007442	0.513918	-0.000014
C14	C	0.867921	0.479818	-0.000014
C15	C	1.444622	0.268846	0.000000
C16	C	1.441049	0.128627	-0.000002
C17	C	1.662314	0.148689	0.000017
C18	C	1.771262	0.092846	0.000029
C19	C	1.767898	-0.038903	0.000025
C20	C	1.655575	-0.114814	0.000003
C21	C	1.546627	-0.058971	-0.000009
C22	C	1.550002	0.072783	-0.000000
C23	C	1.325366	-0.079034	-0.000039
C24	C	1.328726	0.052716	-0.000024
C25	C	1.213043	-0.154945	-0.000060
C26	C	1.104091	-0.099101	-0.000062
C27	C	1.107459	0.032657	-0.000056
C28	C	1.219778	0.108559	-0.000036
C29	C	1.659891	0.537941	-0.000010
C30	C	1.794884	0.570934	-0.000020
C31	C	1.430741	0.724905	-0.000019
C32	C	1.434315	0.865123	-0.000026
N33	N	1.384204	0.540742	0.344083
N34	N	1.491168	0.453001	-0.344099
C35	C	1.450678	0.486203	0.416286
C36	C	1.424684	0.507548	0.583702
H37	H	1.048201	0.617159	-0.000011
H38	H	0.835635	0.674184	-0.000015
C39	C	1.209340	-0.299864	-0.000061
H40	H	1.290308	-0.322251	-0.000035
H41	H	1.180833	-0.344123	-0.084383
H42	H	1.154603	-0.322621	0.084264
H43	H	0.827172	0.376566	-0.000047
C44	C	1.887734	-0.100340	0.000034
H45	H	1.869638	-0.189678	0.000017
H46	H	1.920636	-0.063888	0.084354
H47	H	1.946855	-0.085375	-0.084292
C48	C	1.321779	0.591958	0.667605
H49	H	1.283434	0.623394	0.600596
H50	H	1.356914	0.661672	0.726985
H51	H	1.261483	0.542860	0.726981
H52	H	1.308043	0.603231	0.406210
H53	H	1.567325	0.390497	0.593780
H54	H	1.039726	0.319570	-0.000041
C55	C	1.666010	0.293611	0.000040
H56	H	1.585036	0.315998	0.000041
H57	H	1.720748	0.316390	-0.084264
H58	H	1.694508	0.337854	0.084382
C59	C	1.894807	0.176348	0.000059
H60	H	1.881211	0.262814	0.000074
H61	H	1.952830	0.148139	-0.084251
H62	H	1.926590	0.169620	0.084395
H63	H	1.652848	-0.222092	-0.000018
H64	H	1.012647	-0.160918	-0.000089
H65	H	1.222530	0.215838	-0.000022
H66	H	1.526830	0.423703	0.354162
H67	H	1.018740	0.078114	-0.000072
