data_functionalizedCrystal
_audit_creation_method	'MofGen! by Chris Wilmer'
_symmetry_space_group_name_H-M	'P1'
_symmetry_Int_Tables_number	1
_symmetry_cell_setting	triclinic
loop_
_symmetry_equiv_pos_as_xyz
  x,y,z
_cell_length_a	17.038278
_cell_length_b	17.038272
_cell_length_c	12.503572
_cell_angle_alpha	93.777379
_cell_angle_beta	86.226501
_cell_angle_gamma	91.111028
loop_
_atom_site_label
_atom_site_type_symbol
_atom_site_fract_x
_atom_site_fract_y
_atom_site_fract_z
O1	O	1.052981	0.166285	-0.089331
O2	O	1.552981	0.666285	0.410669
O3	O	0.825170	0.163579	-0.089331
O4	O	1.325170	0.663579	0.410669
O5	O	0.937721	0.051026	-0.089323
O6	O	1.437721	0.551026	0.410677
O7	O	0.940430	0.278837	-0.089340
O8	O	1.440430	0.778837	0.410660
O9	O	0.929257	0.059506	0.089319
O10	O	1.429257	0.559506	0.589319
O11	O	0.816706	0.172058	0.089310
O12	O	1.316706	0.672058	0.589310
O13	O	1.044517	0.174764	0.089310
O14	O	1.544517	0.674764	0.589310
Cu15	Cu	0.929839	0.174186	0.105621
Cu16	Cu	1.429839	0.674186	0.605621
Cu17	Cu	0.939848	0.164157	-0.105643
Cu18	Cu	1.439848	0.664157	0.394357
O19	O	0.931966	0.287317	0.089302
O20	O	1.431966	0.787317	0.589302
C21	C	0.791645	0.165356	-0.000011
C22	C	1.291645	0.665356	0.499989
C23	C	0.704362	0.158009	-0.000011
C24	C	1.204362	0.658009	0.499989
C25	C	0.931026	0.025973	-0.000002
C26	C	1.431026	0.525973	0.499998
C27	C	0.923678	-0.061310	-0.000002
C28	C	1.423678	0.438690	0.499998
C29	C	0.210936	0.112871	-0.000011
C30	C	0.710936	0.612871	0.499989
C31	C	0.292947	0.119781	-0.000005
C32	C	0.792947	0.619781	0.499995
C33	C	0.329348	0.194154	-0.000016
C34	C	0.829348	0.694154	0.499984
C35	C	0.283731	0.261622	-0.000021
C36	C	0.783731	0.761622	0.499979
C37	C	0.201721	0.254712	-0.000019
C38	C	0.701721	0.754712	0.499981
C39	C	0.576735	0.218567	-0.000014
C40	C	1.076735	0.718567	0.499986
C41	C	0.658752	0.225472	-0.000019
C42	C	1.158752	0.725472	0.499981
C43	C	0.667962	0.083630	-0.000001
C44	C	1.167962	0.583630	0.499999
C45	C	0.585950	0.076726	-0.000006
C46	C	1.085950	0.576726	0.499994
C47	C	0.540340	0.144194	-0.000006
C48	C	1.040340	0.644194	0.499994
C49	C	0.413177	0.201219	-0.000013
C50	C	0.913177	0.701219	0.499987
C51	C	0.456513	0.137129	-0.000001
C52	C	0.956513	0.637129	0.499999
C53	C	0.991142	-0.106920	-0.000001
C54	C	1.491142	0.393080	0.499999
C55	C	0.984233	-0.188932	-0.000011
C56	C	1.484233	0.311068	0.499989
C57	C	0.909860	-0.225333	-0.000015
C58	C	1.409860	0.274667	0.499985
C59	C	0.842392	-0.179717	-0.000020
C60	C	1.342392	0.320283	0.499980
C61	C	0.849301	-0.097707	-0.000017
C62	C	1.349301	0.402293	0.499983
C63	C	0.885450	-0.472721	-0.000030
C64	C	1.385450	0.027279	0.499970
C65	C	0.878546	-0.554738	-0.000029
C66	C	1.378546	-0.054738	0.499971
C67	C	1.020388	-0.563947	-0.000023
C68	C	1.520388	-0.063947	0.499977
C69	C	1.027291	-0.481934	-0.000014
C70	C	1.527291	0.018066	0.499986
C71	C	0.959822	-0.436326	-0.000024
C72	C	1.459822	0.063674	0.499976
C73	C	0.902797	-0.309162	-0.000022
C74	C	1.402797	0.190838	0.499978
C75	C	0.966887	-0.352499	-0.000025
C76	C	1.466887	0.147501	0.499975
C77	C	1.078042	0.172987	-0.000013
C78	C	1.578042	0.672987	0.499987
C79	C	1.165326	0.180334	-0.000020
C80	C	1.665326	0.680334	0.499980
C81	C	0.938661	0.312369	-0.000021
C82	C	1.438661	0.812369	0.499979
C83	C	0.946009	0.399653	-0.000028
C84	C	1.446009	0.899653	0.499972
N85	N	0.922805	0.181239	0.254213
N86	N	1.422805	0.681239	0.754213
N87	N	0.946888	0.157098	-0.254234
N88	N	1.446888	0.657098	0.245766
C89	C	0.912458	0.191621	0.473328
C90	C	1.412458	0.691621	0.973328
C91	C	0.957233	0.146719	0.526658
C92	C	1.457233	0.646719	1.026658
C93	C	0.951475	0.152496	0.648581
C94	C	1.451475	0.652496	1.148581
C95	C	0.918214	0.185845	0.351394
C96	C	1.418214	0.685845	0.851394
H97	H	0.181305	0.052308	-0.000010
H98	H	0.681305	0.552308	0.499990
O99	O	1.013738	0.090050	0.465852
O100	O	1.513738	0.590050	0.965852
H101	H	1.074644	0.105060	0.487357
H102	H	1.574644	0.605060	0.987357
O103	O	0.452443	0.281432	-0.000028
O104	O	0.952443	0.781432	0.499972
H105	H	0.406953	0.327189	-0.000031
H106	H	0.906953	0.827189	0.499969
O107	O	0.322988	0.341841	-0.000022
O108	O	0.822988	0.841841	0.499978
H109	H	0.308481	0.371068	-0.072831
H110	H	0.808481	0.871068	0.427169
O111	O	0.822582	-0.348428	-0.000020
O112	O	1.322582	0.151572	0.499980
H113	H	0.776826	-0.302939	-0.000024
H114	H	1.276826	0.197061	0.499976
O115	O	0.417255	0.056915	0.000020
O116	O	0.917255	0.556915	0.500020
H117	H	0.438653	0.020771	-0.072784
H118	H	0.938653	0.520771	0.427216
O119	O	0.798321	-0.593992	-0.000035
O120	O	1.298321	-0.093992	0.499965
H121	H	0.788326	-0.627672	0.072785
H122	H	1.288326	-0.127672	0.572785
O123	O	0.855963	0.248296	0.534126
O124	O	1.355963	0.748296	1.034126
H125	H	0.860260	0.244003	0.621734
H126	H	1.360260	0.744003	1.121734
H127	H	0.330080	0.064845	0.000006
H128	H	0.830080	0.564845	0.500006
H129	H	0.705105	0.028701	-0.000000
H130	H	1.205105	0.528701	0.500000
O131	O	0.546687	-0.003490	0.000026
O132	O	1.046687	0.496510	0.500026
H133	H	0.592181	-0.049241	0.000047
H134	H	1.092181	0.450759	0.500047
H135	H	0.688385	0.286039	-0.000012
H136	H	1.188385	0.786039	0.499988
O137	O	0.527549	0.291334	-0.000016
O138	O	1.027549	0.791334	0.499984
H139	H	0.544524	0.323204	-0.072837
H140	H	1.044524	0.823204	0.427163
O141	O	0.152521	0.327474	-0.000034
O142	O	0.652521	0.827474	0.499966
H143	H	0.191609	0.380351	-0.000051
H144	H	0.691609	0.880351	0.499949
O145	O	0.812684	-0.423532	-0.000013
O146	O	1.312684	0.076468	0.499987
H147	H	0.759808	-0.462623	0.000003
H148	H	1.259808	0.037377	0.500003
H149	H	1.051704	-0.077289	0.000008
H150	H	1.551704	0.422711	0.500008
H151	H	1.039169	-0.226064	-0.000008
H152	H	1.539169	0.273936	0.499992
H153	H	1.087853	-0.452303	-0.000011
H154	H	1.587853	0.047697	0.499989
O155	O	1.093156	-0.613137	-0.000019
O156	O	1.593156	-0.113137	0.499981
H157	H	1.075861	-0.676280	-0.000029
H158	H	1.575861	-0.176280	0.499971
O159	O	0.762174	-0.218977	-0.000011
O160	O	1.262174	0.281023	0.499989
H161	H	0.759082	-0.259581	-0.072815
H162	H	1.259082	0.240419	0.427185
O163	O	0.776538	-0.048506	-0.000007
O164	O	1.276538	0.451494	0.499993
H165	H	0.723660	-0.087594	0.000003
H166	H	1.223660	0.412406	0.500003
H167	H	1.027442	-0.322859	-0.000046
H168	H	1.527442	0.177141	0.499954
