data_functionalizedCrystal
_audit_creation_method	'MofGen! by Chris Wilmer'
_symmetry_space_group_name_H-M	'P1'
_symmetry_Int_Tables_number	1
_symmetry_cell_setting	triclinic
loop_
_symmetry_equiv_pos_as_xyz
  x,y,z
_cell_length_a	21.295417
_cell_length_b	12.759401
_cell_length_c	12.759393
_cell_angle_alpha	90.019465
_cell_angle_beta	89.960780
_cell_angle_gamma	89.971285
loop_
_atom_site_label
_atom_site_type_symbol
_atom_site_fract_x
_atom_site_fract_y
_atom_site_fract_z
Zn1	Zn	-0.250602	-1.606140	-0.593954
Zn2	Zn	0.249398	-1.106140	-0.093954
Zn3	Zn	-0.355886	-1.605986	-0.418251
Zn4	Zn	0.144114	-1.105986	0.081749
Zn5	Zn	-0.250631	-1.430442	-0.418290
Zn6	Zn	0.249369	-0.930442	0.081710
Zn7	Zn	-0.355834	-1.430382	-0.593889
Zn8	Zn	0.144166	-0.930382	-0.093889
O9	O	-0.303238	-1.518237	-0.506096
O10	O	0.196762	-1.018237	-0.006096
O11	O	-0.264578	-1.753140	-0.570657
O12	O	0.235422	-1.253140	-0.070657
O13	O	-0.341958	-1.582660	-0.271235
O14	O	0.158042	-1.082660	0.228765
O15	O	-0.162538	-1.453838	-0.441636
O16	O	0.337462	-0.953838	0.058364
O17	O	-0.341929	-1.753027	-0.441569
O18	O	0.158071	-1.253027	0.058431
O19	O	-0.162516	-1.582922	-0.570696
O20	O	0.337484	-1.082922	-0.070696
O21	O	-0.264628	-1.453689	-0.271264
O22	O	0.235372	-0.953689	0.228736
O23	O	-0.264577	-1.283413	-0.441573
O24	O	0.235423	-0.783413	0.058427
O25	O	-0.341840	-1.453736	-0.740919
O26	O	0.158160	-0.953736	-0.240919
O27	O	-0.341869	-1.283369	-0.570585
O28	O	0.158131	-0.783369	-0.070585
O29	O	-0.264527	-1.582864	-0.740967
O30	O	0.235473	-1.082864	-0.240967
O31	O	-0.443968	-1.582602	-0.441506
O32	O	0.056032	-1.082602	0.058494
O33	O	-0.443930	-1.453586	-0.570547
O34	O	0.056070	-0.953586	-0.070547
C35	C	-0.303221	-1.245270	-0.506077
C36	C	0.196779	-0.745270	-0.006077
C37	C	-0.303229	-1.128493	-0.506094
C38	C	0.196771	-0.628493	-0.006094
C39	C	-0.263023	-1.073691	-0.573413
C40	C	0.236977	-0.573691	-0.073413
C41	C	-0.263027	-0.963967	-0.573418
C42	C	0.236973	-0.463967	-0.073418
C43	C	-0.343448	-0.963857	-0.438782
C44	C	0.156552	-0.463857	0.061218
C45	C	-0.343440	-1.073579	-0.438773
C46	C	0.156560	-0.573579	0.061227
C47	C	-0.466790	-1.518099	-0.506038
C48	C	0.033210	-1.018099	-0.006038
C49	C	-0.536758	-1.518137	-0.506048
C50	C	-0.036758	-1.018137	-0.006048
C51	C	-0.569624	-1.585375	-0.438926
C52	C	-0.069624	-1.085375	0.061074
C53	C	-0.635366	-1.585424	-0.438949
C54	C	-0.135366	-1.085424	0.061051
C55	C	-0.668240	-1.518216	-0.506084
C56	C	-0.168240	-1.018216	-0.006084
C57	C	-0.635367	-1.450974	-0.573220
C58	C	-0.135367	-0.950974	-0.073220
C59	C	-0.569626	-1.450934	-0.573202
C60	C	-0.069626	-0.950934	-0.073202
N61	N	-0.771504	-1.426309	-0.514087
N62	N	-0.271504	-0.926309	-0.014087
N63	N	-0.833955	-1.426350	-0.514099
N64	N	-0.333955	-0.926350	-0.014099
C65	C	-0.866315	-1.518334	-0.506145
C66	C	-0.366315	-1.018334	-0.006145
N67	N	-0.833864	-1.610278	-0.498159
N68	N	-0.333864	-1.110278	0.001841
N69	N	-0.771407	-1.610236	-0.498142
N70	N	-0.271407	-1.110236	0.001858
C71	C	-0.739526	-1.518253	-0.506112
C72	C	-0.239526	-1.018253	-0.006112
C73	C	-0.970466	-1.585631	-0.439044
C74	C	-0.470466	-1.085631	0.060956
C75	C	-1.036210	-1.585682	-0.439075
C76	C	-0.536210	-1.085682	0.060925
C77	C	-1.036209	-1.451222	-0.573341
C78	C	-0.536209	-0.951222	-0.073341
C79	C	-0.970467	-1.451181	-0.573315
C80	C	-0.470467	-0.951181	-0.073315
C81	C	-0.937599	-1.518384	-0.506161
C82	C	-0.437599	-1.018384	-0.006161
C83	C	-0.139048	-1.518404	-0.506178
C84	C	0.360952	-1.018404	-0.006178
C85	C	-0.069080	-1.518475	-0.506212
C86	C	0.430920	-1.018475	-0.006212
C87	C	-0.303175	-1.518310	-0.780130
C88	C	0.196825	-1.018310	-0.280130
C89	C	-0.303147	-1.518342	-0.896906
C90	C	0.196853	-1.018342	-0.396906
C91	C	-0.303250	-0.792270	-0.506112
C92	C	0.196750	-0.292270	-0.006112
C93	C	-0.303240	-0.909047	-0.506109
C94	C	0.196760	-0.409047	-0.006109
C95	C	-0.262874	-1.451211	-0.951783
C96	C	0.237126	-0.951211	-0.451783
C97	C	-0.262855	-1.451235	-1.061507
C98	C	0.237145	-0.951235	-0.561507
C99	C	-0.343384	-1.585531	-1.061468
C100	C	0.156616	-1.085531	-0.561468
C101	C	-0.343406	-1.585500	-0.951746
C102	C	0.156594	-1.085500	-0.451746
C103	C	-0.303256	-1.518224	-0.233129
C104	C	0.196744	-1.018224	0.266871
C105	C	-0.303106	-1.518397	-0.116353
C106	C	0.196894	-1.018397	0.383647
H107	H	-0.230279	-1.118398	-0.628227
H108	H	0.269721	-0.618398	-0.128227
C109	C	-0.218548	-1.377391	-1.121866
C110	C	0.281452	-0.877391	-0.621866
N111	N	-0.185172	-1.321770	-1.167328
N112	N	0.314828	-0.821770	-0.667328
H113	H	-0.376181	-1.118200	-0.383948
H114	H	0.123819	-0.618200	0.116052
H115	H	-0.376160	-1.640210	-1.106132
H116	H	0.123840	-1.140210	-0.606132
C117	C	-0.218800	-0.903689	-0.647478
C118	C	0.281200	-0.403689	-0.147478
N119	N	-0.185486	-0.858288	-0.703263
N120	N	0.314514	-0.358288	-0.203263
H121	H	-0.376187	-0.919133	-0.383973
H122	H	0.123813	-0.419133	0.116027
H123	H	-0.943704	-1.640355	-0.384366
H124	H	-0.443704	-1.140355	0.115634
C125	C	-0.671526	-1.659388	-0.365101
C126	C	-0.171526	-1.159388	0.134899
N127	N	-0.698759	-1.715096	-0.309475
N128	N	-0.198759	-1.215096	0.190525
C129	C	-0.533473	-1.659289	-0.365043
C130	C	-0.033473	-1.159289	0.134957
N131	N	-0.506244	-1.714957	-0.309389
N132	N	-0.006244	-1.214957	0.190611
C133	C	-0.671530	-1.377041	-0.647065
C134	C	-0.171530	-0.877041	-0.147065
N135	N	-0.698768	-1.321354	-0.702689
N136	N	-0.198768	-0.821354	-0.202689
C137	C	-0.533472	-1.376976	-0.647059
C138	C	-0.033472	-0.876976	-0.147059
N139	N	-0.506241	-1.321275	-0.702693
N140	N	-0.006241	-0.821275	-0.202693
C141	C	-1.072362	-1.659652	-0.365230
C142	C	-0.572362	-1.159652	0.134770
N143	N	-1.099592	-1.715366	-0.309606
N144	N	-0.599592	-1.215366	0.190394
H145	H	-1.062975	-1.396505	-0.628008
H146	H	-0.562975	-0.896505	-0.128008
H147	H	-0.943706	-1.396425	-0.627968
H148	H	-0.443706	-0.896425	-0.127968
C149	C	-0.218594	-1.377326	-0.891463
C150	C	0.281406	-0.877326	-0.391463
N151	N	-0.185243	-1.321670	-0.846033
N152	N	0.314757	-0.821670	-0.346033
H153	H	-0.376203	-1.640169	-0.907064
H154	H	0.123797	-1.140169	-0.407064
