data_functionalizedCrystal
_audit_creation_method	'MofGen! by Chris Wilmer'
_symmetry_space_group_name_H-M	'P1'
_symmetry_Int_Tables_number	1
_symmetry_cell_setting	triclinic
loop_
_symmetry_equiv_pos_as_xyz
  x,y,z
_cell_length_a	16.992694
_cell_length_b	11.026607
_cell_length_c	15.455313
_cell_angle_alpha	93.255562
_cell_angle_beta	87.142206
_cell_angle_gamma	99.627120
loop_
_atom_site_label
_atom_site_type_symbol
_atom_site_fract_x
_atom_site_fract_y
_atom_site_fract_z
O1	O	1.079936	0.255850	-0.072014
O2	O	1.579936	0.755850	0.427986
O3	O	0.851247	0.252986	-0.072040
O4	O	1.351247	0.752986	0.427960
O5	O	0.946638	0.075927	-0.072026
O6	O	1.446638	0.575927	0.427974
O7	O	0.984545	0.432909	-0.072028
O8	O	1.484545	0.932909	0.427972
O9	O	0.941177	0.086007	0.072235
O10	O	1.441177	0.586007	0.572235
O11	O	0.845786	0.263067	0.072221
O12	O	1.345786	0.763067	0.572221
O13	O	1.074474	0.265931	0.072247
O14	O	1.574474	0.765931	0.572247
Cu15	Cu	0.959632	0.265419	0.085406
Cu16	Cu	1.459632	0.765419	0.585406
Cu17	Cu	0.966090	0.253498	-0.085199
Cu18	Cu	1.466090	0.753498	0.414801
O19	O	0.979084	0.442990	0.072233
O20	O	1.479084	0.942990	0.572233
C21	C	0.818785	0.254344	0.000087
C22	C	1.318785	0.754344	0.500087
C23	C	0.730190	0.243358	0.000077
C24	C	1.230190	0.743358	0.500077
C25	C	0.694911	0.349355	0.000078
C26	C	1.194911	0.849355	0.500078
C27	C	0.611666	0.339026	0.000090
C28	C	1.111666	0.839026	0.500090
C29	C	0.563702	0.222699	0.000095
C30	C	1.063702	0.722699	0.500095
C31	C	0.598986	0.116694	0.000098
C32	C	1.098986	0.616694	0.500098
C33	C	0.682229	0.127024	0.000092
C34	C	1.182229	0.627024	0.500092
C35	C	0.314060	0.179884	0.000119
C36	C	0.814060	0.679884	0.500119
C37	C	0.230811	0.169561	0.000122
C38	C	0.730811	0.669561	0.500122
C39	C	0.243497	0.391895	0.000115
C40	C	0.743497	0.891895	0.500115
C41	C	0.326741	0.402215	0.000104
C42	C	0.826741	0.902215	0.500104
C43	C	0.362018	0.296210	0.000111
C44	C	0.862018	0.796210	0.500111
N45	N	0.478612	0.212138	0.000105
N46	N	0.978612	0.712138	0.500105
N47	N	0.447106	0.306772	0.000108
N48	N	0.947106	0.806772	0.500108
C49	C	0.936914	0.035078	0.000103
C50	C	1.436914	0.535078	0.500103
C51	C	0.916067	-0.101658	0.000097
C52	C	1.416067	0.398342	0.500097
C53	C	0.973629	-0.169881	0.000103
C54	C	1.473629	0.330119	0.500103
C55	C	0.952084	-0.311205	0.000097
C56	C	1.452084	0.188795	0.500097
C57	C	1.106937	0.264572	0.000118
C58	C	1.606937	0.764572	0.500118
C59	C	1.195532	0.275558	0.000122
C60	C	1.695532	0.775558	0.500122
C61	C	0.988808	0.483838	0.000102
C62	C	1.488808	0.983838	0.500102
C63	C	1.009655	0.620574	0.000102
C64	C	1.509655	1.120574	0.500102
N65	N	0.955095	0.273804	0.205401
N66	N	1.455095	0.773804	0.705401
N67	N	0.970632	0.245104	-0.205194
N68	N	1.470632	0.745104	0.294806
C69	C	0.995642	0.198614	0.250801
C70	C	1.495642	0.698614	0.750801
C71	C	0.992220	0.204967	0.341609
C72	C	1.492220	0.704967	0.841609
C73	C	0.948255	0.286517	0.387014
C74	C	1.448255	0.786517	0.887014
C75	C	0.907702	0.361709	0.341608
C76	C	1.407702	0.861709	0.841608
C77	C	0.911120	0.355349	0.250802
C78	C	1.411120	0.855349	0.750802
C79	C	0.933497	0.313936	0.658594
C80	C	1.433497	0.813936	1.158594
C81	C	0.930084	0.320293	0.749406
C82	C	1.430084	0.820293	1.249406
C83	C	1.014601	0.163549	0.749400
C84	C	1.514601	0.663549	1.249400
C85	C	1.018019	0.157201	0.658593
C86	C	1.518019	0.657201	1.158593
C87	C	0.977463	0.232389	0.613194
C88	C	1.477463	0.732389	1.113194
N89	N	0.944758	0.293015	0.479834
N90	N	1.444758	0.793015	0.979834
N91	N	0.980956	0.225883	0.520376
N92	N	1.480956	0.725883	1.020376
H93	H	0.365789	0.496940	0.000090
H94	H	0.865789	0.996940	0.500090
C95	C	0.572863	0.455624	0.000087
C96	C	1.072863	0.955624	0.500087
H97	H	0.613351	0.526382	0.000072
H98	H	1.113351	1.026382	0.500072
H99	H	0.538758	0.459739	0.050397
H100	H	1.038758	0.959739	0.550397
H101	H	0.542549	0.452694	-0.050224
H102	H	1.042549	0.952694	0.449776
C103	C	0.747669	0.477314	0.000068
C104	C	1.247669	0.977314	0.500068
H105	H	0.802299	0.468288	0.000057
H106	H	1.302299	0.968288	0.500057
H107	H	0.734735	0.524815	0.050375
H108	H	1.234735	1.024815	0.550375
H109	H	0.738526	0.517774	-0.050245
H110	H	1.238526	1.017774	0.449755
H111	H	0.214765	0.478198	0.000111
H112	H	0.714765	0.978198	0.500111
C113	C	0.178051	0.041595	0.000130
C114	C	0.678051	0.541595	0.500130
H115	H	0.210982	-0.020059	0.000140
H116	H	0.710982	0.479941	0.500140
H117	H	0.147213	0.029428	-0.050177
H118	H	0.647213	0.529428	0.449823
H119	H	0.143415	0.036469	0.050444
H120	H	0.643415	0.536469	0.550444
H121	H	0.342772	0.093566	0.000125
H122	H	0.842772	0.593566	0.500125
H123	H	0.894281	0.386706	0.786371
H124	H	1.394281	0.886706	1.286371
H125	H	0.559926	0.021978	0.000115
H126	H	1.059926	0.521978	0.500115
C127	C	0.721037	0.010426	0.000083
C128	C	1.221037	0.510426	0.500083
H129	H	0.680550	-0.060335	0.000078
H130	H	1.180550	0.439665	0.500078
H131	H	0.751351	0.013347	0.050386
H132	H	1.251351	0.513347	0.550386
H133	H	0.755141	0.006323	-0.050234
H134	H	1.255141	0.506323	0.449766
C135	C	0.827944	-0.164077	0.000082
C136	C	1.327944	0.335923	0.500082
H137	H	0.794624	-0.102948	0.000072
H138	H	1.294624	0.397052	0.500072
H139	H	0.815510	-0.210382	0.050384
H140	H	1.315510	0.289618	0.550384
H141	H	0.819328	-0.217394	-0.050237
H142	H	1.319328	0.282606	0.449763
H143	H	1.038860	-0.123663	0.000115
H144	H	1.538860	0.376337	0.500115
C145	C	0.863958	-0.373624	0.000086
C146	C	1.363958	0.126376	0.500086
H147	H	0.861038	-0.460421	0.000090
H148	H	1.361038	0.039579	0.500090
H149	H	0.840138	-0.352997	-0.050222
H150	H	1.340138	0.147003	0.449778
H151	H	0.836332	-0.345976	0.050399
H152	H	1.336332	0.154024	0.550399
C153	C	1.097782	-0.317009	0.000120
C154	C	1.597782	0.182991	0.500120
H155	H	1.100703	-0.230212	0.000130
H156	H	1.600703	0.269788	0.500130
H157	H	1.125414	-0.344657	-0.050181
H158	H	1.625414	0.155343	0.449819
H159	H	1.121592	-0.337637	0.050439
H160	H	1.621592	0.162363	0.550439
H161	H	1.053819	0.090797	0.621625
H162	H	1.553819	0.590797	1.121625
C163	C	1.044003	0.108907	0.200863
C164	C	1.544003	0.608907	0.700863
H165	H	1.067655	0.065028	0.240910
H166	H	1.567655	0.565028	0.740910
H167	H	1.084678	0.153919	0.165429
H168	H	1.584678	0.653919	0.665429
H169	H	1.009502	0.052405	0.165450
H170	H	1.509502	0.552405	0.665450
C171	C	1.036832	0.122270	0.391545
C172	C	1.536832	0.622270	0.891545
H173	H	1.063515	0.072806	0.351498
H174	H	1.563515	0.572806	0.851498
H175	H	0.999678	0.070728	0.426979
H176	H	1.499678	0.570728	0.926979
H177	H	1.074841	0.172268	0.426957
H178	H	1.574841	0.672268	0.926957
C179	C	1.059200	0.080838	0.799340
C180	C	1.559200	0.580838	1.299340
H181	H	1.050863	0.096294	0.859924
H182	H	1.550863	0.596294	1.359924
H183	H	1.114706	0.098343	0.784450
H184	H	1.614706	0.598343	1.284450
H185	H	1.039528	-0.003166	0.784464
H186	H	1.539528	0.496834	1.284464
C187	C	0.888896	0.396651	0.608667
C188	C	1.388896	0.896651	1.108667
H189	H	0.862232	0.446138	0.648717
H190	H	1.362232	0.946138	1.148717
H191	H	0.850885	0.346678	0.573252
H192	H	1.350885	0.846678	1.073252
H193	H	0.926062	0.448191	0.573236
H194	H	1.426062	0.948191	1.073236
H195	H	0.871900	0.428105	0.378583
H196	H	1.371900	0.928105	0.878583
H197	H	0.878101	0.416575	0.213838
H198	H	1.378101	0.916575	0.713838
