data_functionalizedCrystal
_audit_creation_method	'MofGen! by Chris Wilmer'
_symmetry_space_group_name_H-M	'P1'
_symmetry_Int_Tables_number	1
_symmetry_cell_setting	triclinic
loop_
_symmetry_equiv_pos_as_xyz
  x,y,z
_cell_length_a	12.645329
_cell_length_b	21.395362
_cell_length_c	21.395355
_cell_angle_alpha	89.951961
_cell_angle_beta	90.013708
_cell_angle_gamma	89.963759
loop_
_atom_site_label
_atom_site_type_symbol
_atom_site_fract_x
_atom_site_fract_y
_atom_site_fract_z
Zn1	Zn	-0.421645	-0.957915	0.354675
Zn2	Zn	0.078355	-0.457915	0.854675
Zn3	Zn	-0.598895	-0.957841	0.249906
Zn4	Zn	-0.098895	-0.457841	0.749906
Zn5	Zn	-0.421702	-0.853130	0.249869
Zn6	Zn	0.078298	-0.353130	0.749869
Zn7	Zn	-0.598924	-0.853122	0.354604
Zn8	Zn	-0.098924	-0.353122	0.854604
O9	O	-0.510291	-0.905502	0.302264
O10	O	-0.010291	-0.405502	0.802264
O11	O	-0.445122	-1.045583	0.340823
O12	O	0.054878	-0.545583	0.840823
O13	O	-0.575401	-0.943923	0.162223
O14	O	-0.075401	-0.443923	0.662223
O15	O	-0.273347	-0.867064	0.263786
O16	O	0.226653	-0.367064	0.763786
O17	O	-0.575346	-1.045528	0.263850
O18	O	-0.075346	-0.545528	0.763850
O19	O	-0.273306	-0.944049	0.340787
O20	O	0.226694	-0.444049	0.840787
O21	O	-0.445219	-0.866992	0.162196
O22	O	0.054781	-0.366992	0.662196
O23	O	-0.445247	-0.765451	0.263717
O24	O	0.054753	-0.265451	0.763717
O25	O	-0.575396	-0.867051	0.442291
O26	O	-0.075396	-0.367051	0.942291
O27	O	-0.575451	-0.765445	0.340665
O28	O	-0.075451	-0.265445	0.840665
O29	O	-0.445150	-0.944042	0.442344
O30	O	0.054850	-0.444042	0.942344
O31	O	-0.747246	-0.943915	0.263781
O32	O	-0.247246	-0.443915	0.763781
O33	O	-0.747267	-0.866979	0.340701
O34	O	-0.247267	-0.366979	0.840701
C35	C	-0.510359	-0.742714	0.302179
C36	C	-0.010359	-0.242714	0.802179
C37	C	-0.510413	-0.673073	0.302158
C38	C	-0.010413	-0.173073	0.802158
C39	C	-0.785721	-0.905455	0.302251
C40	C	-0.285721	-0.405455	0.802251
C41	C	-0.903551	-0.905493	0.302266
C42	C	-0.403551	-0.405493	0.802266
C43	C	-0.948491	-0.857070	0.350629
C44	C	-0.448491	-0.357070	0.850629
C45	C	-1.071051	-0.857270	0.350839
C46	C	-0.571051	-0.357270	0.850839
C47	C	-1.071289	-0.971644	0.320088
C48	C	-0.571289	-0.471644	0.820088
C49	C	-0.948691	-0.971306	0.320419
C50	C	-0.448691	-0.471306	0.820419
C51	C	-0.948826	-0.888464	0.236004
C52	C	-0.448826	-0.388464	0.736004
C53	C	-1.071435	-0.887065	0.236376
C54	C	-0.571435	-0.387065	0.736376
C55	C	-0.578303	-0.640373	0.342163
C56	C	-0.078303	-0.140373	0.842163
C57	C	-0.578281	-0.574938	0.342186
C58	C	-0.078281	-0.074938	0.842186
C59	C	-0.510382	-0.542205	0.302193
C60	C	-0.010382	-0.042205	0.802193
C61	C	-0.442479	-0.574912	0.262186
C62	C	0.057521	-0.074912	0.762186
C63	C	-0.442495	-0.640346	0.262168
C64	C	0.057505	-0.140346	0.762168
C65	C	-0.501849	-0.438479	0.245780
C66	C	-0.001849	0.061521	0.745780
C67	C	-0.501841	-0.373046	0.245797
C68	C	-0.001841	0.126954	0.745797
C69	C	-0.510327	-0.340384	0.302248
C70	C	-0.010327	0.159616	0.802248
C71	C	-0.518844	-0.373163	0.358684
C72	C	-0.018844	0.126837	0.858684
C73	C	-0.518860	-0.438597	0.358667
C74	C	-0.018860	0.061403	0.858667
C75	C	-0.510357	-0.471252	0.302208
C76	C	-0.010357	0.028748	0.802208
C77	C	-0.578197	-0.236732	0.342281
C78	C	-0.078197	0.263268	0.842281
C79	C	-0.578168	-0.171295	0.342305
C80	C	-0.078168	0.328705	0.842305
C81	C	-0.442371	-0.171271	0.262300
C82	C	0.057629	0.328729	0.762300
C83	C	-0.442395	-0.236706	0.262281
C84	C	0.057605	0.263294	0.762281
C85	C	-0.510313	-0.269433	0.302271
C86	C	-0.010313	0.230567	0.802271
C87	C	-0.233786	-0.905566	0.302290
C88	C	0.266214	-0.405566	0.802290
C89	C	-0.115956	-0.905593	0.302301
C90	C	0.384044	-0.405593	0.802301
C91	C	-0.510270	-0.905554	0.465687
C92	C	-0.010270	-0.405554	0.965687
C93	C	-0.510261	-0.905576	0.535328
C94	C	-0.010261	-0.405576	1.035328
C95	C	-0.510242	-0.068925	0.302331
C96	C	-0.010242	0.431075	0.802331
C97	C	-0.510266	-0.138567	0.302313
C98	C	-0.010266	0.361433	0.802313
C99	C	-0.510236	-0.905486	0.139476
C100	C	-0.010236	-0.405486	0.639476
C101	C	-0.509947	-0.905585	0.069835
C102	C	-0.009947	-0.405585	0.569835
C103	C	-0.442439	-0.945663	0.568070
C104	C	0.057561	-0.445663	1.068070
C105	C	-0.442393	-0.945663	0.633505
C106	C	0.057607	-0.445663	1.133505
C107	C	-0.510189	-0.905581	0.666197
C108	C	-0.010189	-0.405581	1.166197
C109	C	-0.578015	-0.865486	0.633447
C110	C	-0.078015	-0.365486	1.133447
C111	C	-0.578051	-0.865483	0.568013
C112	C	-0.078051	-0.365483	1.068013
C113	C	-0.605644	-0.900618	0.769865
C114	C	-0.105644	-0.400618	1.269865
C115	C	-0.605609	-0.900624	0.835298
C116	C	-0.105609	-0.400624	1.335298
C117	C	-0.510077	-0.905585	0.868017
C118	C	-0.010077	-0.405585	1.368017
C119	C	-0.414575	-0.910552	0.835296
C120	C	0.085425	-0.410552	1.335296
C121	C	-0.414611	-0.910549	0.769862
C122	C	0.085389	-0.410549	1.269862
C123	C	-0.510156	-0.905579	0.737149
C124	C	-0.010156	-0.405579	1.237149
C125	C	-0.442200	-0.945673	0.971711
C126	C	0.057800	-0.445673	1.471711
C127	C	-0.442152	-0.945668	1.037148
C128	C	0.057848	-0.445668	1.537148
C129	C	-0.577783	-0.865495	1.037089
C130	C	-0.077783	-0.365495	1.537089
C131	C	-0.577821	-0.865497	0.971654
C132	C	-0.077821	-0.365497	1.471654
C133	C	-0.510031	-0.905589	0.938969
C134	C	-0.010031	-0.405589	1.438969
H135	H	-0.919140	-0.807914	0.339631
H136	H	-0.419140	-0.307914	0.839631
N137	N	-0.369324	-0.988903	0.532817
N138	N	0.130676	-0.488903	1.032817
H139	H	-0.326351	-1.014298	0.563492
H140	H	0.173649	-0.514298	1.063492
H141	H	-0.320287	-0.963410	0.505645
H142	H	0.179713	-0.463410	1.005645
H143	H	-0.336783	-0.914592	0.861935
H144	H	0.163217	-0.414592	1.361935
N145	N	-0.708690	-0.895276	0.734577
N146	N	-0.208690	-0.395276	1.234577
H147	H	-0.769182	-0.892139	0.765233
H148	H	-0.269182	-0.392139	1.265233
H149	H	-0.718518	-0.933452	0.707464
H150	H	-0.218518	-0.433452	1.207464
H151	H	-0.919747	-0.923729	0.199971
H152	H	-0.419747	-0.423729	0.699971
N153	N	-0.907581	-0.871818	0.415294
N154	N	-0.407581	-0.371818	0.915294
H155	H	-0.860067	-0.909731	0.413397
H156	H	-0.360067	-0.409731	0.913397
H157	H	-0.969139	-0.880601	0.444051
H158	H	-0.469139	-0.380601	0.944051
N159	N	-1.109815	-0.872251	0.415890
N160	N	-0.609815	-0.372251	0.915890
H161	H	-1.082702	-0.914733	0.428882
H162	H	-0.582702	-0.414733	0.928882
H163	H	-1.189680	-0.872406	0.416258
H164	H	-0.689680	-0.372406	0.916258
N165	N	-0.369103	-0.988924	0.936455
N166	N	0.130897	-0.488924	1.436455
H167	H	-0.379432	-0.982849	0.890034
H168	H	0.120568	-0.482849	1.390034
H169	H	-0.385607	-1.033661	0.947942
H170	H	0.114393	-0.533661	1.447942
H171	H	-0.633211	-0.832849	0.660069
H172	H	-0.133211	-0.332849	1.160069
N173	N	-0.651401	-0.136023	0.385452
N174	N	-0.151401	0.363977	0.885452
H175	H	-0.635067	-0.147469	0.430234
H176	H	-0.135067	0.352531	0.930234
H177	H	-0.727089	-0.147379	0.375577
H178	H	-0.227089	0.352621	0.875577
N179	N	-0.528056	-0.337927	0.419563
N180	N	-0.028056	0.162073	0.919563
H181	H	-0.596741	-0.349309	0.440786
H182	H	-0.096741	0.150691	0.940786
H183	H	-0.526720	-0.291517	0.410942
H184	H	-0.026720	0.208483	0.910942
N185	N	-0.910711	-0.990397	0.384573
N186	N	-0.410711	-0.490397	0.884573
H187	H	-0.973609	-0.998952	0.412372
H188	H	-0.473609	-0.498952	0.912372
H189	H	-0.866937	-0.955582	0.403143
H190	H	-0.366937	-0.455582	0.903143
H191	H	-0.918951	-1.008626	0.286718
H192	H	-0.418951	-0.508626	0.786718
H193	H	-0.633494	-0.263379	0.374846
H194	H	-0.133494	0.236621	0.874846
H195	H	-1.100647	-0.838456	0.222960
H196	H	-0.600647	-0.338456	0.722960
H197	H	-1.102016	-0.919772	0.198434
H198	H	-0.602016	-0.419772	0.698434
N199	N	-1.109790	-1.020783	0.274880
N200	N	-0.609790	-0.520783	0.774880
H201	H	-1.156671	-1.000653	0.242358
H202	H	-0.656671	-0.500653	0.742358
H203	H	-1.151257	-1.053582	0.298371
H204	H	-0.651257	-0.553582	0.798371
N205	N	-0.369163	-0.271972	0.219131
N206	N	0.130837	0.228028	0.719131
H207	H	-0.385507	-0.260528	0.174350
H208	H	0.114493	0.239472	0.674350
H209	H	-0.379499	-0.318380	0.225239
H210	H	0.120501	0.181620	0.725239
N211	N	-0.492659	-0.337692	0.184931
N212	N	0.007341	0.162308	0.684931
H213	H	-0.553884	-0.349024	0.156823
H214	H	-0.053884	0.150976	0.656823
H215	H	-0.423961	-0.349100	0.163733
H216	H	0.076039	0.150900	0.663733
N217	N	-0.369257	-0.539609	0.219045
N218	N	0.130743	-0.039609	0.719045
H219	H	-0.293536	-0.551035	0.228847
H220	H	0.206464	-0.051035	0.728847
H221	H	-0.379648	-0.493206	0.225146
H222	H	0.120352	0.006794	0.725146
H223	H	-0.387159	-0.978305	0.660168
H224	H	0.112841	-0.478305	1.160168
H225	H	-0.494934	-0.465067	0.199808
H226	H	0.005066	0.034933	0.699808
H227	H	-0.387081	-0.144620	0.229740
H228	H	0.112919	0.355380	0.729740
H229	H	-1.101924	-0.986336	0.368000
H230	H	-0.601924	-0.486336	0.868000
H231	H	-0.633606	-0.667015	0.374726
H232	H	-0.133606	-0.167015	0.874726
H233	H	-0.633278	-0.832837	0.541355
H234	H	-0.133278	-0.332837	1.041355
H235	H	-0.387208	-0.666970	0.229592
H236	H	0.112792	-0.166970	0.729592
H237	H	-1.101261	-0.808298	0.339719
H238	H	-0.601261	-0.308298	0.839719
H239	H	-0.336851	-0.914592	0.743223
H240	H	0.163149	-0.414592	1.243223
N241	N	-0.651505	-0.539658	0.385336
N242	N	-0.151505	-0.039658	0.885336
H243	H	-0.694531	-0.570320	0.410667
H244	H	-0.194531	-0.070320	0.910667
H245	H	-0.700488	-0.512459	0.359785
H246	H	-0.200488	-0.012459	0.859785
H247	H	-0.386917	-0.978311	1.063805
H248	H	0.113083	-0.478311	1.563805
N249	N	-0.528043	-0.473953	0.419531
N250	N	-0.028043	0.026047	0.919531
H251	H	-0.533418	-0.443338	0.455298
H252	H	-0.033418	0.056662	0.955298
H253	H	-0.463472	-0.501138	0.425405
H254	H	0.036528	-0.001138	0.925405
H255	H	-0.633056	-0.832857	0.944995
H256	H	-0.133056	-0.332857	1.444995
N257	N	-0.908038	-0.825713	0.214508
N258	N	-0.408038	-0.325713	0.714508
H259	H	-0.859791	-0.807686	0.247510
H260	H	-0.359791	-0.307686	0.747510
H261	H	-0.969607	-0.796464	0.207406
H262	H	-0.469607	-0.296464	0.707406
H263	H	-0.632973	-0.832853	1.063706
H264	H	-0.132973	-0.332853	1.563706
H265	H	-0.683372	-0.896584	0.861935
H266	H	-0.183372	-0.396584	1.361935
