data_functionalizedCrystal
_audit_creation_method	'MofGen! by Chris Wilmer'
_symmetry_space_group_name_H-M	'P1'
_symmetry_Int_Tables_number	1
_symmetry_cell_setting	triclinic
loop_
_symmetry_equiv_pos_as_xyz
  x,y,z
_cell_length_a	16.625548
_cell_length_b	12.645330
_cell_length_c	16.625539
_cell_angle_alpha	89.975749
_cell_angle_beta	89.979432
_cell_angle_gamma	90.018760
loop_
_atom_site_label
_atom_site_type_symbol
_atom_site_fract_x
_atom_site_fract_y
_atom_site_fract_z
Zn1	Zn	1.232707	-0.422007	-0.455932
Zn2	Zn	1.482707	-0.172007	-0.205932
Zn3	Zn	1.732707	0.077993	0.044068
Zn4	Zn	1.982707	0.327993	0.294068
Zn5	Zn	1.232622	-0.599293	-0.321109
Zn6	Zn	1.482622	-0.349293	-0.071109
Zn7	Zn	1.732622	-0.099293	0.178891
Zn8	Zn	1.982622	0.150707	0.428891
Zn9	Zn	1.097869	-0.422048	-0.321113
Zn10	Zn	1.347869	-0.172048	-0.071113
Zn11	Zn	1.597869	0.077952	0.178887
Zn12	Zn	1.847869	0.327952	0.428887
Zn13	Zn	1.097851	-0.599232	-0.455899
Zn14	Zn	1.347851	-0.349232	-0.205899
Zn15	Zn	1.597851	-0.099232	0.044101
Zn16	Zn	1.847851	0.150768	0.294101
O17	O	1.165262	-0.510645	-0.388513
O18	O	1.415262	-0.260645	-0.138513
O19	O	1.665262	-0.010645	0.111487
O20	O	1.915262	0.239355	0.361487
O21	O	1.345528	-0.445533	-0.438060
O22	O	1.595528	-0.195533	-0.188060
O23	O	1.845528	0.054467	0.061940
O24	O	2.095528	0.304467	0.311940
O25	O	1.214718	-0.575824	-0.208277
O26	O	1.464718	-0.325824	0.041723
O27	O	1.714718	-0.075824	0.291723
O28	O	1.964718	0.174176	0.541723
O29	O	1.115799	-0.273695	-0.339012
O30	O	1.365799	-0.023695	-0.089012
O31	O	1.615799	0.226305	0.160988
O32	O	1.865799	0.476305	0.410988
O33	O	1.345465	-0.575784	-0.339006
O34	O	1.595465	-0.325784	-0.089006
O35	O	1.845465	-0.075784	0.160994
O36	O	2.095465	0.174216	0.410994
O37	O	1.214864	-0.273665	-0.438064
O38	O	1.464864	-0.023665	-0.188064
O39	O	1.714864	0.226335	0.061936
O40	O	1.964864	0.476335	0.311936
O41	O	1.115716	-0.445602	-0.208280
O42	O	1.365716	-0.195602	0.041720
O43	O	1.615716	0.054398	0.291720
O44	O	1.865716	0.304398	0.541720
O45	O	0.985034	-0.445543	-0.338980
O46	O	1.235034	-0.195543	-0.088980
O47	O	1.485034	0.054457	0.161020
O48	O	1.735034	0.304457	0.411020
O49	O	1.115768	-0.575681	-0.568736
O50	O	1.365768	-0.325681	-0.318736
O51	O	1.615768	-0.075681	-0.068736
O52	O	1.865768	0.174319	0.181264
O53	O	0.985021	-0.575720	-0.438007
O54	O	1.235021	-0.325720	-0.188007
O55	O	1.485021	-0.075720	0.061993
O56	O	1.735021	0.174280	0.311993
O57	O	1.214846	-0.445474	-0.568760
O58	O	1.464846	-0.195474	-0.318760
O59	O	1.714846	0.054526	-0.068760
O60	O	1.964846	0.304526	0.181240
O61	O	1.214701	-0.747632	-0.338973
O62	O	1.464701	-0.497632	-0.088973
O63	O	1.714701	-0.247632	0.161027
O64	O	1.964701	0.002368	0.411027
O65	O	1.115685	-0.747588	-0.438003
O66	O	1.365685	-0.497588	-0.188003
O67	O	1.615685	-0.247588	0.061997
O68	O	1.865685	0.002412	0.311997
C69	C	0.955771	-0.510630	-0.388491
C70	C	1.205771	-0.260630	-0.138491
C71	C	1.455771	-0.010630	0.111509
C72	C	1.705771	0.239370	0.361509
C73	C	0.866150	-0.510649	-0.388500
C74	C	1.116150	-0.260649	-0.138500
C75	C	1.366150	-0.010649	0.111500
C76	C	1.616150	0.239351	0.361500
C77	C	0.537975	-0.510656	-0.388534
C78	C	0.787975	-0.260656	-0.138534
C79	C	1.037975	-0.010656	0.111466
C80	C	1.287975	0.239344	0.361466
C81	C	0.629283	-0.510651	-0.388522
C82	C	0.879283	-0.260651	-0.138522
C83	C	1.129283	-0.010651	0.111478
C84	C	1.379283	0.239349	0.361478
C85	C	0.702059	-0.510653	-0.388517
C86	C	0.952059	-0.260653	-0.138517
C87	C	1.202059	-0.010653	0.111483
C88	C	1.452059	0.239347	0.361483
C89	C	0.793374	-0.510647	-0.388506
C90	C	1.043374	-0.260647	-0.138506
C91	C	1.293374	-0.010647	0.111494
C92	C	1.543374	0.239353	0.361494
C93	C	1.165203	-0.786075	-0.388502
C94	C	1.415203	-0.536075	-0.138502
C95	C	1.665203	-0.286075	0.111498
C96	C	1.915203	-0.036075	0.361498
C97	C	1.165252	-0.903905	-0.388524
C98	C	1.415252	-0.653905	-0.138524
C99	C	1.665252	-0.403905	0.111476
C100	C	1.915252	-0.153905	0.361476
C101	C	1.103218	-1.071485	-0.451015
C102	C	1.353218	-0.821485	-0.201015
C103	C	1.603218	-0.571485	0.048985
C104	C	1.853218	-0.321485	0.298985
C105	C	1.102901	-0.948925	-0.450815
C106	C	1.352901	-0.698925	-0.200815
C107	C	1.602901	-0.448925	0.049185
C108	C	1.852901	-0.198925	0.299185
C109	C	1.142250	-0.948498	-0.303549
C110	C	1.392250	-0.698498	-0.053549
C111	C	1.642250	-0.448498	0.196451
C112	C	1.892250	-0.198498	0.446451
C113	C	1.141872	-1.071097	-0.303928
C114	C	1.391872	-0.821097	-0.053928
C115	C	1.641872	-0.571097	0.196072
C116	C	1.891872	-0.321097	0.446072
C117	C	1.250667	-1.070992	-0.410318
C118	C	1.500667	-0.820992	-0.160318
C119	C	1.750667	-0.570992	0.089682
C120	C	2.000667	-0.320992	0.339682
C121	C	1.250144	-0.948386	-0.412177
C122	C	1.500144	-0.698386	-0.162177
C123	C	1.750144	-0.448386	0.087823
C124	C	2.000144	-0.198386	0.337823
C125	C	1.375571	-0.510661	-0.388536
C126	C	1.625571	-0.260661	-0.138536
C127	C	1.875571	-0.010661	0.111464
C128	C	2.125571	0.239339	0.361464
C129	C	1.465192	-0.510668	-0.388546
C130	C	1.715192	-0.260668	-0.138546
C131	C	1.965192	-0.010668	0.111454
C132	C	2.215192	0.239332	0.361454
C133	C	1.165315	-0.510566	-0.598822
C134	C	1.415315	-0.260566	-0.348822
C135	C	1.665315	-0.010566	-0.098822
C136	C	1.915315	0.239434	0.151178
C137	C	1.165337	-0.510533	-0.688443
C138	C	1.415337	-0.260533	-0.438443
C139	C	1.665337	-0.010533	-0.188443
C140	C	1.915337	0.239467	0.061557
C141	C	1.165343	-0.234140	-0.388542
C142	C	1.415343	0.015860	-0.138542
C143	C	1.665343	0.265860	0.111458
C144	C	1.915343	0.515860	0.361458
C145	C	1.165378	-0.116310	-0.388554
C146	C	1.415378	0.133690	-0.138554
C147	C	1.665378	0.383690	0.111446
C148	C	1.915378	0.633690	0.361446
C149	C	1.165374	-0.510414	-1.016619
C150	C	1.415374	-0.260414	-0.766619
C151	C	1.665374	-0.010414	-0.516619
C152	C	1.915374	0.239586	-0.266619
C153	C	1.165362	-0.510450	-0.925311
C154	C	1.415362	-0.260450	-0.675311
C155	C	1.665362	-0.010450	-0.425311
C156	C	1.915362	0.239550	-0.175311
C157	C	1.165356	-0.510474	-0.852534
C158	C	1.415356	-0.260474	-0.602534
C159	C	1.665356	-0.010474	-0.352534
C160	C	1.915356	0.239526	-0.102534
C161	C	1.165343	-0.510509	-0.761220
C162	C	1.415343	-0.260509	-0.511220
C163	C	1.665343	-0.010509	-0.261220
C164	C	1.915343	0.239491	-0.011220
C165	C	1.165256	-0.510647	-0.179022
C166	C	1.415256	-0.260647	0.070978
C167	C	1.665256	-0.010647	0.320978
C168	C	1.915256	0.239353	0.570978
C169	C	1.165390	-0.510382	-0.089402
C170	C	1.415390	-0.260382	0.160598
C171	C	1.665390	-0.010382	0.410598
C172	C	1.915390	0.239618	0.660598
H173	H	1.117477	-1.100897	-0.514231
H174	H	1.367477	-0.850897	-0.264231
H175	H	1.617477	-0.600897	-0.014231
H176	H	1.867477	-0.350897	0.235769
O177	O	1.199239	-1.110399	-0.240188
O178	O	1.449239	-0.860399	0.009812
O179	O	1.699239	-0.610399	0.259812
O180	O	1.949239	-0.360399	0.509812
H181	H	1.165796	-1.159115	-0.195815
H182	H	1.415796	-0.909115	0.054185
H183	H	1.665796	-0.659115	0.304185
H184	H	1.915796	-0.409115	0.554185
H185	H	1.296977	-1.099979	-0.364825
H186	H	1.546977	-0.849979	-0.114825
H187	H	1.796977	-0.599979	0.135175
H188	H	2.046977	-0.349979	0.385175
H189	H	1.117292	-0.918772	-0.513823
H190	H	1.367292	-0.668772	-0.263823
H191	H	1.617292	-0.418772	-0.013823
H192	H	1.867292	-0.168772	0.236177
H193	H	1.040384	-1.102387	-0.436781
H194	H	1.290384	-0.852387	-0.186781
H195	H	1.540384	-0.602387	0.063219
H196	H	1.790384	-0.352387	0.313219
H197	H	1.039671	-0.919692	-0.436396
H198	H	1.289671	-0.669692	-0.186396
H199	H	1.539671	-0.419692	0.063604
H200	H	1.789671	-0.169692	0.313604
O201	O	1.059287	-1.109118	-0.279514
O202	O	1.309287	-0.859118	-0.029514
O203	O	1.559287	-0.609118	0.220486
O204	O	1.809287	-0.359118	0.470486
H205	H	1.019995	-1.039938	-0.267552
H206	H	1.269995	-0.789938	-0.017552
H207	H	1.519995	-0.539938	0.232448
H208	H	1.769995	-0.289938	0.482448
H209	H	1.186089	-0.919338	-0.255739
H210	H	1.436089	-0.669338	-0.005739
H211	H	1.686089	-0.419338	0.244261
H212	H	1.936089	-0.169338	0.494261
O213	O	1.060523	-0.907967	-0.278678
O214	O	1.310523	-0.657967	-0.028678
O215	O	1.560523	-0.407967	0.221322
O216	O	1.810523	-0.157967	0.471322
H217	H	1.036156	-0.856078	-0.326697
H218	H	1.286156	-0.606078	-0.076697
H219	H	1.536156	-0.356078	0.173303
H220	H	1.786156	-0.106078	0.423303
O221	O	1.278465	-1.111831	-0.491006
O222	O	1.528465	-0.861831	-0.241006
O223	O	1.778465	-0.611831	0.008994
O224	O	2.028465	-0.361831	0.258994
H225	H	1.231795	-1.164890	-0.516498
H226	H	1.481795	-0.914890	-0.266498
H227	H	1.731795	-0.664890	-0.016498
H228	H	1.981795	-0.414890	0.233502
O229	O	1.273139	-0.909760	-0.495006
O230	O	1.523139	-0.659760	-0.245006
O231	O	1.773139	-0.409760	0.004994
O232	O	2.023139	-0.159760	0.254994
H233	H	1.224318	-0.859089	-0.519233
H234	H	1.474318	-0.609089	-0.269233
H235	H	1.724318	-0.359089	-0.019233
H236	H	1.974318	-0.109089	0.230767
O237	O	1.314722	-0.907833	-0.356284
O238	O	1.564722	-0.657833	-0.106284
O239	O	1.814722	-0.407833	0.143716
O240	O	2.064722	-0.157833	0.393716
H241	H	1.287197	-0.855107	-0.310569
H242	H	1.537197	-0.605107	-0.060569
H243	H	1.787197	-0.355107	0.189431
H244	H	2.037197	-0.105107	0.439431
