data_functionalizedCrystal
_audit_creation_method	'MofGen! by Chris Wilmer'
_symmetry_space_group_name_H-M	'P1'
_symmetry_Int_Tables_number	1
_symmetry_cell_setting	triclinic
loop_
_symmetry_equiv_pos_as_xyz
  x,y,z
_cell_length_a	16.625548
_cell_length_b	16.625546
_cell_length_c	16.625539
_cell_angle_alpha	89.971468
_cell_angle_beta	89.982945
_cell_angle_gamma	90.023536
loop_
_atom_site_label
_atom_site_type_symbol
_atom_site_fract_x
_atom_site_fract_y
_atom_site_fract_z
Zn1	Zn	-1.232652	0.320992	0.455898
Zn2	Zn	-0.732652	0.820992	0.955898
Zn3	Zn	-1.232564	0.455831	0.321060
Zn4	Zn	-0.732564	0.955831	0.821060
Zn5	Zn	-1.097823	0.321018	0.321078
Zn6	Zn	-0.597823	0.821018	0.821078
Zn7	Zn	-1.097785	0.455789	0.455850
Zn8	Zn	-0.597785	0.955789	0.955850
O9	O	-1.165206	0.388408	0.388471
O10	O	-0.665206	0.888408	0.888471
O11	O	-1.345473	0.338885	0.438024
O12	O	-0.845473	0.838885	0.938024
O13	O	-1.214669	0.437976	0.208230
O14	O	-0.714669	0.937976	0.708230
O15	O	-1.115761	0.208182	0.338990
O16	O	-0.615761	0.708182	0.838990
O17	O	-1.345408	0.437951	0.338959
O18	O	-0.845408	0.937951	0.838959
O19	O	-1.214820	0.208163	0.438041
O20	O	-0.714820	0.708163	0.938041
O21	O	-1.115675	0.338930	0.208243
O22	O	-0.615675	0.838930	0.708243
O23	O	-0.984985	0.338889	0.338944
O24	O	-0.484985	0.838889	0.838944
O25	O	-1.115696	0.437879	0.568689
O26	O	-0.615696	0.937879	1.068689
O27	O	-0.984957	0.437905	0.437960
O28	O	-0.484957	0.937905	0.937960
O29	O	-1.214783	0.338845	0.568724
O30	O	-0.714783	0.838845	1.068724
O31	O	-1.214632	0.568658	0.338912
O32	O	-0.714632	1.068658	0.838912
O33	O	-1.115611	0.568627	0.437942
O34	O	-0.615611	1.068627	0.937942
C35	C	-0.955715	0.388396	0.388449
C36	C	-0.455715	0.888396	0.888449
C37	C	-0.866094	0.388410	0.388458
C38	C	-0.366094	0.888410	0.888458
C39	C	-1.165130	0.597898	0.388438
C40	C	-0.665130	1.097898	0.888438
C41	C	-1.165171	0.687519	0.388450
C42	C	-0.665171	1.187519	0.888450
C43	C	-1.165245	0.388354	0.598780
C44	C	-0.665245	0.888354	1.098780
C45	C	-1.165262	0.388332	0.688402
C46	C	-0.665262	0.888332	1.188402
C47	C	-1.375515	0.388420	0.388494
C48	C	-0.875515	0.888420	0.888494
C49	C	-1.465136	0.388425	0.388504
C50	C	-0.965136	0.888425	0.888504
C51	C	-0.537918	0.388416	0.388493
C52	C	-0.037918	0.888416	0.888493
C53	C	-0.629227	0.388412	0.388481
C54	C	-0.129227	0.888412	0.888481
C55	C	-0.702003	0.388414	0.388475
C56	C	-0.202003	0.888414	0.888475
C57	C	-0.793318	0.388409	0.388464
C58	C	-0.293318	0.888409	0.888464
C59	C	-1.165305	0.178099	0.388523
C60	C	-0.665305	0.678099	0.888523
C61	C	-1.165347	0.088477	0.388545
C62	C	-0.665347	0.588477	0.888545
C63	C	-1.165311	1.015695	0.388534
C64	C	-0.665311	1.515695	0.888534
C65	C	-1.165270	0.924387	0.388513
C66	C	-0.665270	1.424387	0.888513
C67	C	-1.165240	0.851610	0.388492
C68	C	-0.665240	1.351610	0.888492
C69	C	-1.165200	0.760296	0.388471
C70	C	-0.665200	1.260296	0.888471
C71	C	-1.165213	0.388402	0.178981
C72	C	-0.665213	0.888402	0.678981
C73	C	-1.165352	0.388198	0.089360
C74	C	-0.665352	0.888198	0.589360
C75	C	-1.165275	0.388314	0.761184
C76	C	-0.665275	0.888314	1.261184
C77	C	-1.165294	0.388284	0.852493
C78	C	-0.665294	0.888284	1.352493
C79	C	-1.165313	0.388255	0.925269
C80	C	-0.665313	0.888255	1.425269
C81	C	-1.165333	0.388226	1.016583
C82	C	-0.665333	0.888226	1.516583
