data_functionalizedCrystal
_audit_creation_method	'MofGen! by Chris Wilmer'
_symmetry_space_group_name_H-M	'P1'
_symmetry_Int_Tables_number	1
_symmetry_cell_setting	triclinic
loop_
_symmetry_equiv_pos_as_xyz
  x,y,z
_cell_length_a	14.971486
_cell_length_b	10.654550
_cell_length_c	9.730223
_cell_angle_alpha	90.006075
_cell_angle_beta	89.999325
_cell_angle_gamma	84.049530
loop_
_atom_site_label
_atom_site_type_symbol
_atom_site_fract_x
_atom_site_fract_y
_atom_site_fract_z
O1	O	-1.187835	-0.163659	-0.114131
O2	O	-0.927541	-0.183257	-0.114169
O3	O	-1.063673	0.009345	-0.114141
O4	O	-1.051703	-0.356262	-0.114160
O5	O	-1.063662	0.009357	0.114439
O6	O	-0.927530	-0.183246	0.114411
O7	O	-1.187824	-0.163648	0.114449
Zn8	Zn	-1.057675	-0.173445	0.150722
Zn9	Zn	-1.057690	-0.173460	-0.150442
O10	O	-1.051692	-0.356250	0.114420
C11	C	-0.894206	-0.182375	0.000117
C12	C	-0.794895	-0.179749	0.000102
C13	C	-1.062788	0.056139	0.000149
C14	C	-1.060159	0.195555	0.000146
C15	C	-1.221159	-0.164530	0.000160
C16	C	-1.320470	-0.167156	0.000165
C17	C	-0.738285	-0.292898	0.000099
C18	C	-0.644972	-0.290422	0.000119
C19	C	-0.608271	-0.174797	0.000134
C20	C	-0.664888	-0.061639	0.000142
C21	C	-0.758199	-0.064116	0.000131
C22	C	-0.470397	-0.056485	0.000161
C23	C	-0.377080	-0.054007	0.000169
C24	C	-0.357171	-0.282791	0.000149
C25	C	-0.450482	-0.285268	0.000138
C26	C	-0.507092	-0.172110	0.000144
C27	C	-1.052577	-0.403044	0.000128
C28	C	-1.055206	-0.542460	0.000122
N29	N	-1.057672	-0.173434	0.356258
C30	C	-1.140311	0.275900	0.000157
C31	C	-1.137835	0.406894	0.000140
C32	C	-0.975048	0.377185	0.000107
C33	C	-0.977525	0.246193	0.000114
N34	N	-1.057700	-0.173461	-0.355978
C35	C	-1.002977	-0.097161	0.572117
C36	C	-1.002965	-0.097144	0.428234
C37	C	-1.112401	-0.249737	0.428173
C38	C	-1.112417	-0.249747	0.572053
H39	H	-0.768160	-0.387053	0.000086
Br40	Br	-0.862907	0.445917	0.000059
H41	H	-0.598884	-0.382559	0.000114
H42	H	-0.480361	-0.379420	0.000113
H43	H	-0.958423	-0.035043	0.630710
Br44	Br	-0.280344	-0.436363	0.000140
H45	H	-1.203103	0.472307	0.000146
H46	H	-1.156984	-0.311881	0.630599
Br47	Br	-0.327270	0.102914	0.000235
H48	H	-0.516488	0.035661	0.000168
H49	H	-0.958405	-0.035011	0.369696
H50	H	-0.804290	0.028022	0.000134
H51	H	-1.156949	-0.311848	0.369559
H52	H	-0.912251	0.180772	0.000101
Br53	Br	-0.615080	0.095284	0.000176
Br54	Br	-1.252456	0.207180	0.000202
