data_functionalizedCrystal
_audit_creation_method	'MofGen! by Chris Wilmer'
_symmetry_space_group_name_H-M	'P1'
_symmetry_Int_Tables_number	1
_symmetry_cell_setting	triclinic
loop_
_symmetry_equiv_pos_as_xyz
  x,y,z
_cell_length_a	11.169417
_cell_length_b	11.169409
_cell_length_c	11.169416
_cell_angle_alpha	89.969126
_cell_angle_beta	89.991438
_cell_angle_gamma	90.021649
loop_
_atom_site_label
_atom_site_type_symbol
_atom_site_fract_x
_atom_site_fract_y
_atom_site_fract_z
Zn1	Zn	-1.834962	-0.678613	-0.477767
Zn2	Zn	-1.501629	-0.345280	-0.144434
Zn3	Zn	-1.168296	-0.011947	0.188900
Zn4	Zn	-1.834852	-0.477935	-0.678507
Zn5	Zn	-1.501518	-0.144602	-0.345174
Zn6	Zn	-1.168185	0.188731	-0.011841
Zn7	Zn	-1.634248	-0.477941	-0.477831
Zn8	Zn	-1.300915	-0.144608	-0.144497
Zn9	Zn	-0.967582	0.188725	0.188836
Zn10	Zn	-1.634256	-0.678574	-0.678400
Zn11	Zn	-1.300922	-0.345241	-0.345067
Zn12	Zn	-0.967589	-0.011907	-0.011734
O13	O	-1.734579	-0.578266	-0.578126
O14	O	-1.401246	-0.244933	-0.244793
O15	O	-1.067913	0.088401	0.088540
O16	O	-2.002897	-0.652007	-0.504414
O17	O	-1.669564	-0.318674	-0.171080
O18	O	-1.336231	0.014660	0.162253
O19	O	-1.808192	-0.309986	-0.651959
O20	O	-1.474858	0.023347	-0.318625
O21	O	-1.141525	0.356680	0.014708
O22	O	-1.660917	-0.504580	-0.309873
O23	O	-1.327583	-0.171247	0.023461
O24	O	-0.994250	0.162087	0.356794
O25	O	-2.002816	-0.504570	-0.651897
O26	O	-1.669483	-0.171236	-0.318563
O27	O	-1.336149	0.162097	0.014770
O28	O	-1.808380	-0.652013	-0.309826
O29	O	-1.475047	-0.318679	0.023508
O30	O	-1.141714	0.014654	0.356841
O31	O	-1.660809	-0.309991	-0.504522
O32	O	-1.327476	0.023343	-0.171189
O33	O	-0.994143	0.356676	0.162144
O34	O	-1.466300	-0.504542	-0.504419
O35	O	-1.132966	-0.171208	-0.171085
O36	O	-0.799633	0.162125	0.162248
O37	O	-1.660929	-0.846529	-0.651714
O38	O	-1.327596	-0.513196	-0.318381
O39	O	-0.994263	-0.179862	0.014952
O40	O	-1.466305	-0.651945	-0.651776
O41	O	-1.132972	-0.318612	-0.318443
O42	O	-0.799638	0.014721	0.014890
O43	O	-1.808388	-0.846558	-0.504310
O44	O	-1.475054	-0.513225	-0.170976
O45	O	-1.141721	-0.179891	0.162357
O46	O	-1.808199	-0.504531	-0.846443
O47	O	-1.474866	-0.171198	-0.513110
O48	O	-1.141532	0.162135	-0.179776
O49	O	-1.660822	-0.651940	-0.846364
O50	O	-1.327489	-0.318606	-0.513031
O51	O	-0.994155	0.014727	-0.179698
C52	C	-1.422755	-0.578241	-0.578094
C53	C	-1.089421	-0.244907	-0.244760
C54	C	-0.756088	0.088426	0.088573
C55	C	-1.289355	-0.578258	-0.578109
C56	C	-0.956021	-0.244925	-0.244775
C57	C	-0.622688	0.088408	0.088558
C58	C	-1.734532	-0.578257	-0.889951
C59	C	-1.401199	-0.244923	-0.556618
C60	C	-1.067865	0.088410	-0.223284
C61	C	-1.734621	-0.578293	-1.023351
C62	C	-1.401288	-0.244960	-0.690018
C63	C	-1.067955	0.088374	-0.356684
C64	C	-1.734672	-0.891309	-0.577993
C65	C	-1.401338	-0.557975	-0.244660
C66	C	-1.068005	-0.224642	0.088674
C67	C	-1.734711	-1.024709	-0.577936
C68	C	-1.401378	-0.691375	-0.244603
C69	C	-1.068044	-0.358042	0.088730
C70	C	-1.047622	-0.578284	-0.578148
C71	C	-0.714288	-0.244951	-0.244815
C72	C	-0.380955	0.088383	0.088518
C73	C	-1.181022	-0.578271	-0.578128
C74	C	-0.847688	-0.244938	-0.244795
C75	C	-0.514355	0.088395	0.088539
C76	C	-1.734557	-0.266441	-0.578172
C77	C	-1.401223	0.066892	-0.244839
C78	C	-1.067890	0.400225	0.088494
C79	C	-1.734750	-0.133042	-0.577891
C80	C	-1.401417	0.200292	-0.244558
C81	C	-1.068083	0.533625	0.088775
C82	C	-1.734660	-0.578301	-0.265084
C83	C	-1.401327	-0.244968	0.068249
C84	C	-1.067993	0.088365	0.401583
C85	C	-1.734694	-0.578316	-0.131684
C86	C	-1.401361	-0.244983	0.201649
C87	C	-1.068028	0.088350	0.534983
