data_functionalizedCrystal
_audit_creation_method	'MofGen! by Chris Wilmer'
_symmetry_space_group_name_H-M	'P1'
_symmetry_Int_Tables_number	1
_symmetry_cell_setting	triclinic
loop_
_symmetry_equiv_pos_as_xyz
  x,y,z
_cell_length_a	16.992697
_cell_length_b	13.596369
_cell_length_c	16.974755
_cell_angle_alpha	86.337125
_cell_angle_beta	87.020742
_cell_angle_gamma	90.001277
loop_
_atom_site_label
_atom_site_type_symbol
_atom_site_fract_x
_atom_site_fract_y
_atom_site_fract_z
O1	O	-1.040200	0.095000	-0.167655
O2	O	-0.540200	0.595000	0.332345
O3	O	-0.811916	0.094886	-0.165815
O4	O	-0.311916	0.594886	0.334185
O5	O	-0.932430	0.085802	-0.052032
O6	O	-0.432430	0.585802	0.447968
O7	O	-0.919686	0.104084	-0.281437
O8	O	-0.419686	0.604084	0.218563
O9	O	-0.932418	-0.077782	-0.052025
O10	O	-0.432418	0.422218	0.447975
O11	O	-0.811904	-0.068697	-0.165808
O12	O	-0.311904	0.431303	0.334192
O13	O	-1.040188	-0.068584	-0.167647
O14	O	-0.540188	0.431416	0.332353
Zn15	Zn	-0.926044	-0.094613	-0.166726
Zn16	Zn	-0.426044	0.405387	0.333274
Zn17	Zn	-0.926060	0.120915	-0.166736
Zn18	Zn	-0.426060	0.620915	0.333264
O19	O	-0.919674	-0.059499	-0.281430
O20	O	-0.419674	0.440501	0.218570
C21	C	-0.782701	0.012910	-0.163445
C22	C	-0.282701	0.512910	0.336555
C23	C	-0.695665	0.012361	-0.156385
C24	C	-0.195665	0.512361	0.343615
N25	N	-0.926039	-0.241705	-0.166720
N26	N	-0.426039	0.258295	0.333280
C27	C	-0.645346	0.017789	-0.224502
C28	C	-0.145346	0.517789	0.275498
C29	C	-0.563567	0.017248	-0.217863
C30	C	-0.063567	0.517248	0.282137
C31	C	-0.532108	0.011285	-0.143108
C32	C	-0.032108	0.511285	0.356892
C33	C	-0.582433	0.005854	-0.074987
C34	C	-0.082433	0.505854	0.425013
C35	C	-0.664211	0.006388	-0.081626
C36	C	-0.164211	0.506388	0.418374
C37	C	-0.288542	0.009071	-0.115593
C38	C	0.211458	0.509071	0.384407
C39	C	-0.206758	0.008540	-0.108959
C40	C	0.293242	0.508540	0.391041
C41	C	-0.187898	0.019933	-0.251836
C42	C	0.312102	0.519933	0.248164
C43	C	-0.269677	0.020472	-0.258469
C44	C	0.230323	0.520472	0.241531
C45	C	-0.319995	0.015035	-0.190347
C46	C	0.180005	0.515035	0.309653
N47	N	-0.448517	0.010735	-0.136321
N48	N	0.051483	0.510735	0.363679
N49	N	-0.403585	0.015578	-0.197135
N50	N	0.096415	0.515578	0.302865
C51	C	-0.926059	-0.642995	-0.166737
C52	C	-0.426059	-0.142995	0.333263
C53	C	-0.926051	-0.531344	-0.166735
C54	C	-0.426051	-0.031344	0.333265
C55	C	-0.926049	-0.442354	-0.166729
C56	C	-0.426049	0.057646	0.333271
C57	C	-0.926041	-0.330695	-0.166726
C58	C	-0.426041	0.169305	0.333274
C59	C	-0.069403	0.013399	-0.170017
C60	C	0.430597	0.513399	0.329983
C61	C	-0.156440	0.013969	-0.177075
C62	C	0.343560	0.513969	0.322925
C63	C	-0.931942	0.001662	-0.022539
C64	C	-0.431942	0.501662	0.477461
C65	C	-0.930496	-0.005333	0.065330
C66	C	-0.430496	0.494667	0.565330
N67	N	-0.926071	0.268007	-0.166737
N68	N	-0.426071	0.768007	0.333263
C69	C	-0.920162	0.024642	-0.310923
C70	C	-0.420162	0.524642	0.189077
C71	C	-0.921608	0.031644	-0.398793
C72	C	-0.421608	0.531644	0.101207
C73	C	-0.922284	-0.054242	0.559940
C74	C	-0.422284	0.445758	1.059940
C75	C	-0.923651	-0.047674	0.477378
C76	C	-0.423651	0.452326	0.977378
C77	C	-0.924346	0.044782	0.436084
C78	C	-0.424346	0.544782	0.936084
C79	C	-0.923668	0.130675	0.477357
C80	C	-0.423668	0.630675	0.977357
C81	C	-0.922296	0.124105	0.559918
C82	C	-0.422296	0.624105	1.059918
C83	C	-0.928445	0.073991	0.189164
C84	C	-0.428445	0.573991	0.689164
C85	C	-0.929820	0.080553	0.106597
C86	C	-0.429820	0.580553	0.606597
C87	C	-0.929801	-0.097796	0.106624
C88	C	-0.429801	0.402204	0.606624
C89	C	-0.928434	-0.104357	0.189186
C90	C	-0.428434	0.395643	0.689186
C91	C	-0.927751	-0.018464	0.230451
C92	C	-0.427751	0.481536	0.730451
N93	N	-0.925745	0.051498	0.351693
N94	N	-0.425745	0.551498	0.851693
N95	N	-0.926346	-0.025181	0.314841
N96	N	-0.426346	0.474819	0.814841
H97	H	-0.670953	0.022645	-0.285375
H98	H	-0.170953	0.522645	0.214625
H99	H	-0.927871	-0.179644	0.222802
H100	H	-0.427871	0.320356	0.722802
C101	C	-0.304275	0.027016	-0.340705
C102	C	0.195725	0.527016	0.159295
N103	N	-0.330334	0.031943	-0.402647
N104	N	0.169666	0.531943	0.097353
C105	C	-0.930540	-0.192272	0.061225
C106	C	-0.430540	0.307728	0.561225
N107	N	-0.931092	-0.263435	0.027029
N108	N	-0.431092	0.236565	0.527029
H109	H	-0.930385	0.155846	0.072979
H110	H	-0.430385	0.655846	0.572979
C111	C	-0.508219	0.023202	-0.292798
C112	C	-0.008219	0.523202	0.207202
N113	N	-0.466532	0.027680	-0.349241
N114	N	0.033468	0.527680	0.150759
H115	H	-0.924213	-0.117612	0.443783
H116	H	-0.424213	0.382388	0.943783
H117	H	-0.927896	0.143931	0.222752
H118	H	-0.427896	0.643931	0.722752
H119	H	-0.146920	0.024357	-0.307297
H120	H	0.353080	0.524357	0.192703
C121	C	-0.172156	0.001981	-0.026719
C122	C	0.327844	0.501981	0.473281
N123	N	-0.146094	-0.002956	0.035221
N124	N	0.353906	0.497044	0.535221
H125	H	-0.924230	0.205954	0.443729
H126	H	-0.424230	0.705954	0.943729
H127	H	-0.921741	0.194044	0.593516
H128	H	-0.421741	0.694044	1.093516
H129	H	-0.556813	0.000985	-0.014119
H130	H	-0.056813	0.500985	0.485881
H131	H	-0.705180	0.001968	-0.026158
H132	H	-0.205180	0.501968	0.473842
C133	C	-0.921518	-0.155952	0.605355
C134	C	-0.421518	0.344048	1.105355
N135	N	-0.920938	-0.232562	0.639559
N136	N	-0.420938	0.267438	1.139559
H137	H	-0.329502	0.004643	-0.060123
H138	H	0.170498	0.504643	0.439877
