data_functionalizedCrystal
_audit_creation_method	'MofGen! by Chris Wilmer'
_symmetry_space_group_name_H-M	'P1'
_symmetry_Int_Tables_number	1
_symmetry_cell_setting	triclinic
loop_
_symmetry_equiv_pos_as_xyz
  x,y,z
_cell_length_a	15.500227
_cell_length_b	14.044220
_cell_length_c	14.044209
_cell_angle_alpha	93.188416
_cell_angle_beta	93.084513
_cell_angle_gamma	86.902009
loop_
_atom_site_label
_atom_site_type_symbol
_atom_site_fract_x
_atom_site_fract_y
_atom_site_fract_z
O1	O	0.071861	-1.281228	-0.226116
O2	O	0.071883	-1.004557	-0.217809
O3	O	0.071860	-1.138740	-0.083627
O4	O	0.071884	-1.147045	-0.360297
O5	O	-0.072027	-1.130595	-0.091735
O6	O	-0.072004	-0.996412	-0.225916
O7	O	-0.072026	-1.273082	-0.234223
Cu8	Cu	-0.085153	-1.134003	-0.230810
Cu9	Cu	0.085010	-1.143636	-0.221222
O10	O	-0.072003	-1.138899	-0.368405
C11	C	-0.000058	-0.964863	-0.218227
C12	C	-0.000050	-0.858721	-0.207382
N13	N	-0.204837	-1.127235	-0.237554
C14	C	-0.000085	-1.131032	-0.052059
C15	C	-0.000088	-1.120188	0.054084
C16	C	-0.250123	-1.184116	-0.180721
C17	C	-0.340695	-1.179007	-0.185831
C18	C	-0.385979	-1.117021	-0.247779
C19	C	-0.340687	-1.060133	-0.304614
C20	C	-0.250116	-1.065238	-0.299499
C21	C	-0.659443	-1.098629	-0.266191
C22	C	-0.750020	-1.093530	-0.271304
C23	C	-0.750022	-1.212404	-0.152519
C24	C	-0.659450	-1.217507	-0.147413
C25	C	-0.614165	-1.160616	-0.204245
C26	C	-0.478558	-1.111799	-0.253006
C27	C	-0.521588	-1.165834	-0.199012
N28	N	0.204694	-1.150412	-0.214471
C29	C	-0.000083	-1.312777	-0.233805
C30	C	-0.000085	-1.418919	-0.244650
C31	C	-0.000069	-0.664382	-0.187557
C32	C	-0.000066	-0.613252	-0.264471
C33	C	-0.000077	-0.505115	-0.253440
C34	C	-0.000059	-0.772529	-0.198586
C35	C	-0.000079	-1.100364	0.248422
C36	C	-0.000084	-1.177278	0.299551
C37	C	-0.000079	-1.166248	0.407688
C38	C	-0.000084	-1.111393	0.140275
C39	C	-0.000063	-1.146609	0.600027
C40	C	-0.000075	-1.157459	0.493884
H41	H	-0.213259	-1.234596	-0.130281
H42	H	-0.000031	-1.251415	0.262115
H43	H	-0.000056	-0.650691	-0.338604
C44	C	-0.479522	-0.999533	-0.365207
C45	C	-0.390461	-0.991998	-0.372712
H46	H	-0.510247	-0.957473	-0.407255
H47	H	-0.494376	-0.982941	-0.301454
H48	H	-0.494343	-1.063293	-0.381838
H49	H	-0.375639	-0.928238	-0.356073
H50	H	-0.375601	-1.008584	-0.436479
C51	C	-0.520618	-1.277388	-0.086111
C52	C	-0.609677	-1.285142	-0.078819
H53	H	-0.489892	-1.319001	-0.043621
H54	H	-0.506023	-1.213475	-0.069949
H55	H	-0.505538	-1.294447	-0.149709
H56	H	-0.624757	-1.268076	-0.015223
H57	H	-0.624278	-1.349069	-0.094975
H58	H	-0.000072	-1.026237	0.285859
H59	H	-0.377567	-1.225324	-0.139553
H60	H	-0.622579	-1.052307	-0.312467
C61	C	-0.000075	-0.514954	-0.095790
C62	C	-0.000072	-0.613849	-0.087483
H63	H	-0.000069	-0.483751	-0.034009
H64	H	-0.050250	-0.494186	-0.132307
H65	H	0.050103	-0.499856	-0.126675
H66	H	-0.050254	-0.628948	-0.056605
H67	H	0.050108	-0.634624	-0.050952
C68	C	-0.222199	-1.024717	-0.458428
C69	C	-0.200332	-1.002718	-0.361974
H70	H	-0.191459	-0.986119	-0.496995
H71	H	-0.282611	-1.012802	-0.470335
H72	H	-0.207340	-1.090148	-0.473369
H73	H	-0.215197	-0.937287	-0.347031
H74	H	-0.139906	-1.014625	-0.350062
C75	C	-0.777924	-1.252918	0.006409
C76	C	-0.799802	-1.274923	-0.090041
H77	H	-0.808653	-1.291518	0.044984
H78	H	-0.792779	-1.187495	0.021349
H79	H	-0.717502	-1.264834	0.018307
H80	H	-0.860223	-1.263000	-0.101940
H81	H	-0.784952	-1.340362	-0.104986
H82	H	-0.786886	-1.043051	-0.321753
H83	H	-0.515436	-1.061330	-0.303447
H84	H	-0.484715	-1.216299	-0.148570
