data_functionalizedCrystal
_audit_creation_method	'MofGen! by Chris Wilmer'
_symmetry_space_group_name_H-M	'P1'
_symmetry_Int_Tables_number	1
_symmetry_cell_setting	triclinic
loop_
_symmetry_equiv_pos_as_xyz
  x,y,z
_cell_length_a	6.817900
_cell_length_b	15.300992
_cell_length_c	17.982968
_cell_angle_alpha	95.456977
_cell_angle_beta	102.451960
_cell_angle_gamma	104.175078
loop_
_atom_site_label
_atom_site_type_symbol
_atom_site_fract_x
_atom_site_fract_y
_atom_site_fract_z
V1	V	-4.018558	-0.125604	-0.237779
O2	O	-4.002679	0.005167	-0.233017
O3	O	-3.973544	-0.248215	-0.236380
O4	O	-3.965022	-0.124053	-0.341380
O5	O	-4.011259	-0.119855	-0.127291
V6	V	-4.502413	-0.109917	-0.224537
O7	O	-4.279089	-0.160014	-0.266829
O8	O	-4.692079	-0.075507	-0.195487
O9	O	-4.324220	0.012694	-0.225936
O10	O	-4.635689	-0.240687	-0.229299
O11	O	-4.627108	-0.115666	-0.335025
O12	O	-4.332742	-0.111468	-0.120936
C13	C	-3.819535	-0.278093	-0.232688
C14	C	-3.863983	-0.378332	-0.232234
C15	C	-3.847683	-0.412299	-0.162227
C16	C	-3.889467	-0.506484	-0.161803
C17	C	-3.947535	-0.566701	-0.231388
C18	C	-3.963841	-0.532729	-0.301401
C19	C	-3.922072	-0.438545	-0.301824
C20	C	-4.050893	-0.729037	-0.300515
C21	C	-4.092661	-0.823228	-0.300092
C22	C	-4.018288	-0.796976	-0.160494
C23	C	-3.976519	-0.702792	-0.160917
C24	C	-3.992824	-0.668827	-0.230930
C25	C	-3.808664	-0.119711	-0.366624
C26	C	-3.846198	-0.119254	-0.451319
C27	C	-4.045877	-0.123558	-0.494999
C28	C	-4.081133	-0.123129	-0.574579
C29	C	-3.916711	-0.118402	-0.610478
C30	C	-3.717014	-0.114095	-0.566792
C31	C	-3.681757	-0.114518	-0.487213
C32	C	-3.859194	-0.112387	-0.887726
C33	C	-3.894468	-0.111967	-0.967312
C34	C	-4.258570	-0.120998	-0.975092
C35	C	-4.223313	-0.121421	-0.895513
C36	C	-4.023619	-0.117109	-0.851833
C37	C	-3.985391	-0.117573	-0.765543
C38	C	-3.954938	-0.117944	-0.696767
C39	C	-4.141572	0.042568	-0.229626
C40	C	-4.076362	0.142806	-0.230084
C41	C	-4.152443	-0.115813	-0.095688
C42	C	-4.094147	-0.116264	-0.010992
H43	H	-4.011137	-0.581766	-0.358059
H44	H	-4.357209	-0.125275	-0.866288
H45	H	-3.929226	-0.653765	-0.104254
F46	F	-4.154618	-0.887318	-0.374155
F47	F	-3.469230	-0.109930	-0.440725
F48	F	-3.719455	-0.106934	-1.005517
F49	F	-3.939431	-0.402397	-0.376336
F50	F	-3.785869	-0.348218	-0.088163
H51	H	-4.179777	-0.127414	-0.465776
F52	F	-4.471105	-0.125583	-1.021584
F53	F	-4.000927	-0.833126	-0.085980
F54	F	-3.646675	-0.107817	-0.841252
H55	H	-3.876197	-0.534135	-0.104796
H56	H	-4.064206	-0.701387	-0.357528
H57	H	-4.243726	-0.126628	-0.610139
H58	H	-3.583138	-0.110240	-0.596028
