data_functionalizedCrystal
_audit_creation_method	'MofGen! by Chris Wilmer'
_symmetry_space_group_name_H-M	'P1'
_symmetry_Int_Tables_number	1
_symmetry_cell_setting	triclinic
loop_
_symmetry_equiv_pos_as_xyz
  x,y,z
_cell_length_a	15.944551
_cell_length_b	19.288864
_cell_length_c	14.421503
_cell_angle_alpha	89.982498
_cell_angle_beta	89.996859
_cell_angle_gamma	83.317495
loop_
_atom_site_label
_atom_site_type_symbol
_atom_site_fract_x
_atom_site_fract_y
_atom_site_fract_z
O1	O	1.114184	0.089573	-0.077061
O2	O	1.614184	0.589573	0.422939
O3	O	0.869592	0.100617	-0.077089
O4	O	1.369592	0.600617	0.422911
O5	O	0.998956	-0.006017	-0.077017
O6	O	1.498956	0.493983	0.422983
O7	O	0.984821	0.196207	-0.077133
O8	O	1.484821	0.696207	0.422867
O9	O	0.998934	-0.006001	0.077207
O10	O	1.498934	0.493999	0.577207
O11	O	0.869571	0.100633	0.077134
O12	O	1.369571	0.600633	0.577134
O13	O	1.114163	0.089588	0.077163
O14	O	1.614163	0.589588	0.577163
Cu15	Cu	0.991865	0.095112	0.091230
Cu16	Cu	1.491865	0.595112	0.591230
Cu17	Cu	0.991890	0.095093	-0.091157
Cu18	Cu	1.491890	0.595093	0.408843
O19	O	0.984799	0.196222	0.077090
O20	O	1.484799	0.696222	0.577090
C21	C	0.838289	0.100167	0.000020
C22	C	1.338289	0.600167	0.500020
C23	C	0.745048	0.098792	0.000012
C24	C	1.245048	0.598792	0.500012
C25	C	0.998490	-0.031887	0.000108
C26	C	1.498490	0.468113	0.500108
C27	C	0.997125	-0.108994	0.000146
C28	C	1.497125	0.391006	0.500146
N29	N	0.991853	0.095125	0.219512
N30	N	1.491853	0.595125	0.719512
C31	C	0.530459	0.029410	0.000070
C32	C	1.030459	0.529410	0.500070
C33	C	0.469325	0.061621	-0.075989
C34	C	0.969325	0.561621	0.424011
C35	C	0.574332	0.096305	0.000024
C36	C	1.074332	0.596305	0.500024
C37	C	0.469326	0.061652	0.076063
C38	C	0.969326	0.561652	0.576063
C39	C	0.409429	0.093898	0.000040
C40	C	0.909429	0.593898	0.500040
C41	C	0.514427	0.128535	-0.076097
C42	C	1.014427	0.628535	0.423903
C43	C	0.514434	0.128557	0.076023
C44	C	1.014434	0.628557	0.576023
C45	C	0.453318	0.160816	-0.000054
C46	C	0.953318	0.660816	0.499946
C47	C	0.669329	0.097690	0.000014
C48	C	1.169329	0.597690	0.500014
C49	C	0.314433	0.092519	0.000044
C50	C	0.814433	0.592519	0.500044
C51	C	1.145466	0.090039	0.000052
C52	C	1.645466	0.590039	0.500052
C53	C	1.238707	0.091414	0.000054
C54	C	1.738707	0.591414	0.500054
C55	C	0.985265	0.222092	-0.000036
C56	C	1.485265	0.722092	0.499964
C57	C	0.986630	0.299199	-0.000080
C58	C	1.486630	0.799199	0.499920
C59	C	0.910725	0.343696	-0.000070
C60	C	1.410725	0.843696	0.499930
C61	C	0.912008	0.416146	-0.000049
C62	C	1.412008	0.916146	0.499951
C63	C	0.989200	0.444097	-0.000019
C64	C	1.489200	0.944097	0.499981
C65	C	1.065114	0.399591	-0.000034
C66	C	1.565114	0.899591	0.499966
C67	C	1.063830	0.327142	-0.000065
C68	C	1.563830	0.827142	0.499935
C69	C	1.049873	0.552512	0.054068
C70	C	1.549873	1.052512	0.554068
C71	C	1.051155	0.624960	0.054104
C72	C	1.551155	1.124960	0.554104
C73	C	0.993166	0.667553	0.000070
C74	C	1.493166	1.167553	0.500070
C75	C	0.933881	0.637691	-0.053988
C76	C	1.433881	1.137691	0.446012
C77	C	0.932596	0.565242	-0.054018
C78	C	1.432596	1.065242	0.445982
C79	C	0.990601	0.522655	0.000013
C80	C	1.490601	1.022655	0.500013
C81	C	0.918647	0.790609	0.000102
C82	C	1.418647	1.290609	0.500102
C83	C	0.919932	0.863060	0.000117
C84	C	1.419932	1.363060	0.500117
C85	C	1.073041	0.846503	0.000141
C86	C	1.573041	1.346503	0.500141
C87	C	1.071753	0.774054	0.000117
C88	C	1.571753	1.274054	0.500117
C89	C	0.994553	0.746111	0.000101
C90	C	1.494553	1.246111	0.500101
N91	N	0.991909	0.095075	-0.219438
N92	N	1.491909	0.595075	0.280562
C93	C	0.932025	0.144410	0.469132
C94	C	1.432025	0.644410	0.969132
C95	C	1.007873	0.157895	0.530934
C96	C	1.507873	0.657895	1.030934
C97	C	0.991874	0.095108	0.408673
C98	C	1.491874	0.595108	0.908673
C99	C	0.916045	0.081640	0.530965
C100	C	1.416045	0.581640	1.030965
C101	C	0.991887	0.095094	0.591394
C102	C	1.491887	0.595094	1.091394
C103	C	1.067760	0.108624	0.469114
C104	C	1.567760	0.608624	0.969114
C105	C	0.975882	0.032342	0.469140
C106	C	1.475882	0.532342	0.969140
C107	C	1.051785	0.045800	0.530914
C108	C	1.551785	0.545800	1.030914
C109	C	0.991865	0.095118	0.303412
C110	C	1.491865	0.595118	0.803412
C111	C	0.991904	0.095083	0.696653
C112	C	1.491904	0.595083	1.196653
H113	H	0.564006	-0.026108	0.000008
H114	H	1.064006	0.473892	0.500008
H115	H	1.097102	0.517838	0.098068
H116	H	1.597102	1.017838	0.598068
N117	N	0.540757	0.165966	-0.161379
N118	N	1.040757	0.665966	0.338621
H119	H	0.511947	0.215452	-0.161674
H120	H	1.011947	0.715452	0.338326
H121	H	0.604004	0.166590	-0.160828
H122	H	1.104004	0.666590	0.339172
H123	H	0.419945	0.216391	-0.000129
H124	H	0.919945	0.716391	0.499871
H125	H	0.850195	0.452382	-0.000039
H126	H	1.350195	0.952382	0.499961
N127	N	1.145706	0.279149	-0.000064
N128	N	1.645706	0.779149	0.499936
H129	H	1.148574	0.248699	0.057098
H130	H	1.648574	0.748699	0.557098
H131	H	1.148547	0.248789	-0.057281
H132	H	1.648547	0.748789	0.442719
H133	H	0.851913	0.070255	0.558136
H134	H	1.351913	0.570255	1.058136
H135	H	1.102458	0.004098	0.557870
H136	H	1.602458	0.504098	1.057870
H137	H	0.881464	0.186137	0.442006
H138	H	1.381464	0.686137	0.942006
H139	H	0.534448	0.156834	0.140297
H140	H	1.034448	0.656834	0.640297
H141	H	1.099425	0.649269	0.098125
H142	H	1.599425	1.149269	0.598125
N143	N	0.838062	0.911060	0.000125
N144	N	1.338062	1.411060	0.500125
H145	H	0.804374	0.902094	-0.057051
H146	H	1.304374	1.402094	0.442949
H147	H	0.804435	0.902026	0.057328
H148	H	1.304435	1.402026	0.557328
N149	N	0.442847	0.024172	0.161237
N150	N	0.942847	0.524172	0.661237
H151	H	0.471204	-0.025457	0.161193
H152	H	0.971204	0.474543	0.661193
H153	H	0.460060	0.048996	0.218608
H154	H	0.960060	0.548996	0.718608
H155	H	0.847864	0.320950	-0.000091
H156	H	1.347864	0.820950	0.499909
N157	N	0.442839	0.024140	-0.161124
N158	N	0.942839	0.524140	0.338876
H159	H	0.471190	-0.025491	-0.161042
H160	H	0.971190	0.474509	0.338958
H161	H	0.379526	0.023941	-0.160747
H162	H	0.879526	0.523941	0.339253
N163	N	0.835387	0.760464	0.000080
N164	N	1.335387	1.260464	0.500080
H165	H	0.787494	0.799649	0.000082
H166	H	1.287494	1.299649	0.500082
H167	H	0.831529	0.730787	-0.057103
H168	H	1.331529	1.230787	0.442897
H169	H	0.884325	0.540931	-0.098035
H170	H	1.384325	1.040931	0.401965
N171	N	0.871334	0.683618	-0.112280
N172	N	1.371334	1.183618	0.387720
H173	H	0.881147	0.734045	-0.104068
H174	H	1.381147	1.234045	0.395932
H175	H	0.878981	0.670126	-0.179675
H176	H	1.378981	1.170126	0.320325
H177	H	1.135892	0.869260	0.000098
H178	H	1.635892	1.369260	0.500098
N179	N	1.153622	0.726055	0.000116
N180	N	1.653622	1.226055	0.500116
H181	H	1.202719	0.754753	0.000140
H182	H	1.702719	1.254753	0.500140
H183	H	1.156412	0.695612	0.057278
H184	H	1.656412	1.195612	0.557278
H185	H	1.021411	0.210969	0.558077
H186	H	1.521411	0.710969	1.058077
H187	H	1.127965	0.422353	-0.000027
H188	H	1.627965	0.922353	0.499973
H189	H	1.131906	0.120073	0.442060
H190	H	1.631906	0.620073	0.942060
H191	H	0.962320	-0.020715	0.441975
H192	H	1.462320	0.479285	0.941975
