data_functionalizedCrystal
_audit_creation_method	'MofGen! by Chris Wilmer'
_symmetry_space_group_name_H-M	'P1'
_symmetry_Int_Tables_number	1
_symmetry_cell_setting	triclinic
loop_
_symmetry_equiv_pos_as_xyz
  x,y,z
_cell_length_a	16.120530
_cell_length_b	16.120444
_cell_length_c	16.959447
_cell_angle_alpha	92.867280
_cell_angle_beta	87.087433
_cell_angle_gamma	90.168401
loop_
_atom_site_label
_atom_site_type_symbol
_atom_site_fract_x
_atom_site_fract_y
_atom_site_fract_z
Zn1	Zn	1.254425	-0.395584	-0.526169
Zn2	Zn	1.247276	-0.534650	-0.400328
Zn3	Zn	1.115376	-0.388557	-0.386990
Zn4	Zn	1.108275	-0.527537	-0.525448
O5	O	1.181338	-0.461582	-0.459734
O6	O	1.369842	-0.419948	-0.515360
O7	O	1.229759	-0.515306	-0.287948
O8	O	1.139785	-0.273126	-0.400172
O9	O	1.364589	-0.522119	-0.422905
O10	O	1.241944	-0.278288	-0.502427
O11	O	1.132852	-0.407973	-0.278149
O12	O	0.998069	-0.401076	-0.399473
O13	O	1.127683	-0.509997	-0.636153
O14	O	0.992852	-0.503184	-0.501197
O15	O	1.235059	-0.413052	-0.636684
O16	O	1.222873	-0.650070	-0.422205
O17	O	1.120750	-0.644844	-0.514130
C18	C	0.965289	-0.450596	-0.448810
C19	C	0.872861	-0.445917	-0.444156
C20	C	1.170288	-0.677630	-0.469555
C21	C	1.165637	-0.770060	-0.473787
C22	C	1.205670	-0.983035	-0.437961
C23	C	1.157160	-0.939286	-0.481522
C24	C	1.161878	-0.845120	-0.477217
C25	C	1.200953	-1.077209	-0.442265
C26	C	0.703634	-0.437353	-0.435665
C27	C	0.659880	-0.485872	-0.483862
C28	C	0.565716	-0.481107	-0.479138
C29	C	0.797806	-0.442117	-0.440388
C30	C	1.398231	-0.472611	-0.470701
C31	C	1.490658	-0.477311	-0.475374
C32	C	1.181376	-0.461515	-0.665900
C33	C	1.181393	-0.461486	-0.753757
C34	C	1.192454	-0.244692	-0.449892
C35	C	1.197191	-0.152266	-0.445699
C36	C	1.125591	-0.511879	-1.124960
C37	C	1.237402	-0.410928	-1.125507
C38	C	1.237379	-0.410945	-1.042961
C39	C	1.181462	-0.461430	-1.001410
C40	C	1.125568	-0.511899	-1.042406
C41	C	1.293278	-0.360484	-1.001959
C42	C	1.293258	-0.360499	-0.919408
C43	C	1.237336	-0.410980	-0.877856
C44	C	1.181439	-0.461450	-0.918857
C45	C	1.125521	-0.511935	-0.877306
C46	C	1.069620	-0.562401	-0.918305
C47	C	1.069646	-0.562380	-1.000854
C48	C	1.237310	-0.411001	-0.795307
C49	C	1.125498	-0.511955	-0.794752
C50	C	1.181351	-0.461591	-0.254368
C51	C	1.181508	-0.461394	-0.166510
H52	H	1.250740	-0.949772	-0.397436
H53	H	1.338808	-0.319387	-1.035796
H54	H	1.112087	-0.972552	-0.522049
N55	N	0.701609	-0.542471	-0.540070
N56	N	0.779152	-0.546314	-0.543873
H57	H	0.808627	-0.586289	-0.583565
H58	H	0.670377	-0.392241	-0.390858
N59	N	1.068366	-0.563523	-0.752324
N60	N	1.018461	-0.608571	-0.788941
H61	H	0.978110	-0.644991	-0.758977
N62	N	1.012504	-0.613958	-0.875845
N63	N	0.961012	-0.582013	-0.825774
H64	H	0.920675	-0.618423	-0.795783
H65	H	1.024136	-0.603470	-1.034243
N66	N	1.068491	-0.563416	-1.166845
N67	N	1.068511	-0.563389	-1.240548
H68	H	1.028183	-0.599787	-1.270132
N69	N	1.294520	-0.359376	-1.167959
N70	N	1.294536	-0.359372	-1.241664
H71	H	1.334878	-0.322961	-1.271650
H72	H	1.338776	-0.319406	-0.886034
N73	N	1.294415	-0.359459	-0.753441
N74	N	1.344341	-0.314392	-0.790549
H75	H	1.384674	-0.277986	-0.760982
