data_functionalizedCrystal
_audit_creation_method	'MofGen! by Chris Wilmer'
_symmetry_space_group_name_H-M	'P1'
_symmetry_Int_Tables_number	1
_symmetry_cell_setting	triclinic
loop_
_symmetry_equiv_pos_as_xyz
  x,y,z
_cell_length_a	15.711867
_cell_length_b	15.624967
_cell_length_c	14.586319
_cell_angle_alpha	71.913215
_cell_angle_beta	90.004910
_cell_angle_gamma	78.967642
loop_
_atom_site_label
_atom_site_type_symbol
_atom_site_fract_x
_atom_site_fract_y
_atom_site_fract_z
O1	O	-1.147548	0.494702	-0.240784
O2	O	-0.647548	0.994702	0.259216
O3	O	-0.895799	0.426019	-0.217936
O4	O	-0.395799	0.926019	0.282064
O5	O	-1.028392	0.331333	-0.186453
O6	O	-0.528392	0.831333	0.313547
O7	O	-1.014954	0.589389	-0.272267
O8	O	-0.514954	1.089389	0.227733
O9	O	-1.028383	0.331328	-0.033971
O10	O	-0.528383	0.831328	0.466029
O11	O	-0.895790	0.426014	-0.065454
O12	O	-0.395790	0.926014	0.434546
O13	O	-1.147538	0.494697	-0.088301
O14	O	-0.647538	0.994697	0.411699
Cu15	Cu	-1.021663	0.460355	-0.062955
Cu16	Cu	-0.521663	0.960355	0.437045
Cu17	Cu	-1.021674	0.460361	-0.243283
Cu18	Cu	-0.521674	0.960361	0.256717
O19	O	-1.014945	0.589383	-0.119785
O20	O	-0.514945	1.089383	0.380215
C21	C	-0.863576	0.414797	-0.137963
C22	C	-0.363576	0.914797	0.362037
C23	C	-0.767577	0.381355	-0.126840
C24	C	-0.267577	0.881355	0.373160
C25	C	-0.642473	0.255462	-0.084973
C26	C	-0.142473	0.755462	0.415027
C27	C	-0.732678	0.286895	-0.095427
C28	C	-0.232678	0.786895	0.404573
C29	C	-0.712277	0.444420	-0.147815
C30	C	-0.212277	0.944420	0.352185
C31	C	-0.622068	0.413000	-0.137369
C32	C	-0.122068	0.913000	0.362631
C33	C	-0.587174	0.318520	-0.105946
C34	C	-0.087174	0.818520	0.394054
C35	C	-0.566769	0.476059	-0.158342
C36	C	-0.066769	0.976059	0.341658
C37	C	-0.476568	0.444641	-0.147892
C38	C	0.023432	0.944641	0.352108
C39	C	-0.441667	0.350165	-0.116468
C40	C	0.058333	0.850165	0.383532
C41	C	-0.496973	0.287103	-0.095496
C42	C	0.003027	0.787103	0.404504
C43	C	-0.601665	0.570539	-0.189758
C44	C	-0.101665	1.070539	0.310242
C45	C	-0.546366	0.633597	-0.210732
C46	C	-0.046366	1.133597	0.289268
C47	C	-0.456164	0.602180	-0.200288
C48	C	0.043836	1.102180	0.299712
C49	C	-0.421262	0.507704	-0.168865
C50	C	0.078738	1.007704	0.331135
C51	C	-0.400858	0.665243	-0.221261
C52	C	0.099142	1.165243	0.278739
C53	C	-0.310657	0.633825	-0.210811
C54	C	0.189343	1.133825	0.289189
C55	C	-0.331062	0.476286	-0.158414
C56	C	0.168938	0.976286	0.341586
C57	C	-1.027777	0.297540	-0.098977
C58	C	-0.527777	0.797540	0.401023
C59	C	-1.025947	0.196851	-0.065499
C60	C	-0.525947	0.696851	0.434501
C61	C	-1.023363	0.054926	0.064800
C62	C	-0.523363	0.554926	0.564800
C63	C	-1.025082	0.149538	0.033333
C64	C	-0.525082	0.649538	0.533333
C65	C	-1.025096	0.149563	-0.132904
C66	C	-0.525096	0.649563	0.367096
C67	C	-1.023381	0.054949	-0.101451
C68	C	-0.523381	0.554949	0.398549
C69	C	-1.022513	0.007638	-0.002598
C70	C	-0.522513	0.507638	0.497402
C71	C	-1.022532	0.007661	-0.168849
C72	C	-0.522532	0.507661	0.331151
C73	C	-1.020812	-0.086945	-0.137398
C74	C	-0.520812	0.413055	0.362602
C75	C	-1.019942	-0.134264	-0.038549
C76	C	-0.519942	0.365736	0.461451
C77	C	-1.020794	-0.086969	0.028853
C78	C	-0.520794	0.413031	0.528853
C79	C	-1.023393	0.054973	-0.267701
C80	C	-0.523393	0.554973	0.232299
C81	C	-1.022544	0.007685	-0.335099
C82	C	-0.522544	0.507685	0.164901
C83	C	-1.020830	-0.086922	-0.303649
C84	C	-0.520830	0.413078	0.196351
C85	C	-1.019960	-0.134240	-0.204800
C86	C	-0.519960	0.365760	0.295200
C87	C	-1.019978	-0.134217	-0.371051
C88	C	-0.519978	0.365783	0.128949
C89	C	-1.018258	-0.228823	-0.339599
C90	C	-0.518258	0.271177	0.160401
C91	C	-1.018240	-0.228846	-0.173349
C92	C	-0.518240	0.271154	0.326651
C93	C	-0.179761	0.505915	-0.168272
C94	C	0.320239	1.005915	0.331728
C95	C	-0.275763	0.539345	-0.179388
C96	C	0.224237	1.039345	0.320612
C97	C	-1.015560	0.623177	-0.207263
C98	C	-0.515560	1.123177	0.292737
C99	C	-1.017391	0.723866	-0.240747
C100	C	-0.517391	1.223866	0.259253
N101	N	-1.021662	0.460353	0.063878
N102	N	-0.521662	0.960353	0.563878
N103	N	-1.021682	0.460359	-0.370114
N104	N	-0.521682	0.960359	0.129886
C105	C	-1.080394	0.418453	0.312816
C106	C	-0.580394	0.918453	0.812816
C107	C	-1.080396	0.418451	0.408798
C108	C	-0.580396	0.918451	0.908798
C109	C	-0.962944	0.502260	0.380941
C110	C	-0.462944	1.002260	0.880941
C111	C	-0.962938	0.502255	0.284963
C112	C	-0.462938	1.002255	0.784963
C113	C	-1.021668	0.460354	0.250902
C114	C	-0.521668	0.960354	0.750902
C115	C	-1.021676	0.460358	0.442862
C116	C	-0.521676	0.960358	0.942862
C117	C	-1.021679	0.460356	0.546929
C118	C	-0.521679	0.960356	1.046929
C119	C	-1.021665	0.460354	0.146828
C120	C	-0.521665	0.960354	0.646828
H121	H	-0.740701	0.521347	-0.173396
H122	H	-0.240701	1.021347	0.326604
H123	H	-1.018534	-0.211300	-0.012943
H124	H	-0.518534	0.288700	0.487057
H125	H	-0.915113	0.536376	0.234548
H126	H	-0.415113	1.036376	0.734548
H127	H	-0.777701	0.235537	-0.078349
H128	H	-0.277701	0.735537	0.421651
H129	H	-0.368219	0.324586	-0.107952
H130	H	0.131781	0.824586	0.392048
H131	H	-1.128214	0.384332	0.285088
H132	H	-0.628214	0.884332	0.785088
H133	H	-0.915129	0.536377	0.408682
H134	H	-0.415129	1.036377	0.908682
Br135	Br	-0.283696	0.348061	-0.115769
Br136	Br	0.216304	0.848061	0.384231
Br137	Br	-0.448226	0.793461	-0.263890
Br138	Br	0.051774	1.293461	0.236110
H139	H	-0.614060	0.178527	-0.059395
H140	H	-0.114060	0.678527	0.440605
H141	H	-1.020676	-0.095683	-0.451536
H142	H	-0.520676	0.404317	0.048464
Br143	Br	-1.160094	0.361577	0.492825
Br144	Br	-0.660094	0.861577	0.992825
Br145	Br	-0.593732	0.761816	-0.253374
Br146	Br	-0.093732	1.261816	0.246626
Br147	Br	-1.026296	0.213783	-0.267059
Br148	Br	-0.526296	0.713783	0.232941
Br149	Br	-0.449607	0.158878	-0.052851
Br150	Br	0.050393	0.658878	0.447149
Br151	Br	-1.017083	-0.293060	-0.039190
Br152	Br	-0.517083	0.206940	0.460810
Br153	Br	-0.235602	0.719404	-0.239263
Br154	Br	0.264398	1.219404	0.260737
Br155	Br	-0.724082	0.613178	-0.203840
Br156	Br	-0.224082	1.113178	0.296160
H157	H	-1.024780	0.132005	-0.293304
H158	H	-0.524780	0.632005	0.206696
H159	H	-1.020092	-0.125491	0.109348
H160	H	-0.520092	0.374509	0.609348
Br161	Br	-1.026242	0.213714	0.124812
Br162	Br	-0.526242	0.713714	0.624812
Br163	Br	-1.022205	-0.009288	0.198958
Br164	Br	-0.522205	0.490712	0.698958
Br165	Br	-1.023744	0.071906	-0.469254
Br166	Br	-0.523744	0.571906	0.030746
H167	H	-1.017560	-0.267327	-0.394481
H168	H	-0.517560	0.232673	0.105519
