data_functionalizedCrystal
_audit_creation_method	'MofGen! by Chris Wilmer'
_symmetry_space_group_name_H-M	'P1'
_symmetry_Int_Tables_number	1
_symmetry_cell_setting	triclinic
loop_
_symmetry_equiv_pos_as_xyz
  x,y,z
_cell_length_a	15.698487
_cell_length_b	23.196402
_cell_length_c	23.196402
_cell_angle_alpha	90.005244
_cell_angle_beta	60.004720
_cell_angle_gamma	59.999019
loop_
_atom_site_label
_atom_site_type_symbol
_atom_site_fract_x
_atom_site_fract_y
_atom_site_fract_z
Zr1	Zr	0.932383	0.555363	-0.075635
O2	O	1.110094	0.463304	-0.167683
O3	O	0.754673	0.583585	-0.047419
O4	O	0.932381	0.583574	-0.167685
O5	O	0.932388	0.463322	0.047452
O6	O	0.932379	0.678446	-0.167684
O7	O	0.932386	0.463314	-0.047417
O8	O	0.614491	0.678464	0.047449
O9	O	1.250275	0.463304	-0.167681
O10	O	0.827766	0.666422	-0.035383
O11	O	0.827769	0.595626	0.035417
O12	O	1.036998	0.595614	-0.106180
O13	O	1.037001	0.524819	-0.035381
Zr14	Zr	0.932383	0.706685	0.075672
Zr15	Zr	0.932380	0.706672	-0.075634
Zr16	Zr	0.932387	0.555376	0.075671
Zr17	Zr	1.155956	0.555363	-0.075632
Zr18	Zr	0.708810	0.706685	0.075669
O19	O	1.110094	0.678464	0.047457
O20	O	1.110089	0.678445	-0.167682
O21	O	1.110099	0.463322	0.047455
O22	O	0.754673	0.798745	0.167721
O23	O	0.754668	0.798726	-0.047418
O24	O	0.754678	0.583603	0.167719
O25	O	0.932379	0.798726	-0.047415
O26	O	0.932386	0.678474	0.167723
O27	O	0.932388	0.583603	0.167722
O28	O	0.932381	0.798734	0.047455
O29	O	1.250273	0.583574	-0.167680
O30	O	0.614494	0.678474	0.167718
O31	O	0.614491	0.798745	0.167718
O32	O	0.614489	0.798734	0.047450
O33	O	1.250278	0.463314	-0.047413
O34	O	1.250275	0.583584	-0.047412
O35	O	0.827769	0.666434	0.106218
O36	O	0.827766	0.737229	0.035418
O37	O	1.036998	0.666422	-0.035380
O38	O	1.037001	0.595626	0.035420
C39	C	0.652728	0.631024	0.000014
C40	C	0.557815	0.631024	0.000013
C41	C	0.932388	0.631040	0.189280
C42	C	0.932389	0.631046	0.253514
C43	C	0.932379	0.820288	0.000020
C44	C	0.932378	0.884523	0.000020
C45	C	0.384032	0.631023	0.000025
C46	C	0.480737	0.631022	0.000020
C47	C	1.212039	0.631024	0.000023
C48	C	1.306952	0.631024	0.000024
C49	C	0.932388	0.441760	0.000017
C50	C	0.932389	0.377525	0.000017
C51	C	0.823164	0.951657	0.036980
C52	C	0.823163	1.012012	0.036976
C53	C	0.932381	1.005229	0.000023
C54	C	1.041608	0.938083	-0.036944
C55	C	1.041607	0.877730	-0.036946
C56	C	1.016057	1.072531	0.005303
C57	C	1.016054	1.132885	0.005310
C58	C	0.932390	1.191377	0.000023
C59	C	0.848708	1.189515	-0.005256
C60	C	0.848707	1.129162	-0.005258
C61	C	0.932394	1.070668	0.000020
C62	C	0.823167	1.323958	0.036980
C63	C	0.823170	1.384313	0.036972
C64	C	1.041619	1.310381	-0.036944
C65	C	1.041613	1.250029	-0.036941
C66	C	0.932384	1.256822	0.000026
C67	C	0.932379	0.631008	-0.189243
C68	C	0.932378	0.631003	-0.253476
C69	C	1.041603	0.594088	0.246733
C70	C	1.041604	0.594077	0.307088
C71	C	0.932386	0.631039	0.374222
C72	C	0.823158	0.667998	0.381000
C73	C	0.823160	0.668001	0.320646
C74	C	0.848709	0.692941	0.498158
C75	C	0.848712	0.692940	0.558510
C76	C	0.932377	0.631027	0.560376
C77	C	1.016059	0.569116	0.501876
C78	C	1.016060	0.569119	0.441522
C79	C	0.932372	0.631039	0.439670
C80	C	1.041600	0.594054	0.619036
C81	C	1.041597	0.594042	0.679393
C82	C	0.823148	0.667969	0.753305
C83	C	0.823154	0.667975	0.692949
C84	C	0.932383	0.631019	0.625816
C85	C	0.652723	0.820289	0.000016
C86	C	0.557809	0.884523	0.000015
C87	C	0.652732	0.631040	0.189276
C88	C	0.557821	0.631046	0.253508
C89	C	0.652728	0.820305	0.189277
C90	C	0.557815	0.884545	0.253510
C91	C	1.212039	0.441743	-0.189240
C92	C	1.306952	0.377503	-0.253472
C93	C	1.212043	0.441759	0.000022
C94	C	1.306958	0.377525	0.000023
C95	C	1.212035	0.631008	-0.189238
C96	C	1.306946	0.631002	-0.253471
C97	C	0.513237	0.877728	-0.036949
C98	C	0.424067	0.938077	-0.036965
C99	C	0.379466	1.005222	-0.000011
C100	C	0.424047	1.012016	0.036954
C101	C	0.513221	0.951667	0.036965
C102	C	0.513250	0.668009	0.320636
C103	C	0.424083	0.668012	0.380994
C104	C	0.379483	0.631055	0.374224
C105	C	0.424063	0.594087	0.307089
C106	C	0.513234	0.594080	0.246732
C107	C	0.513242	0.951674	0.246717
C108	C	0.424073	1.012040	0.307065
C109	C	0.379475	1.005276	0.374204
C110	C	0.424057	0.938140	0.380995
C111	C	0.513230	0.877775	0.320648
C112	C	1.351536	0.310375	-0.246680
C113	C	1.440732	0.250008	-0.307027
C114	C	1.485335	0.256772	-0.374167
C115	C	1.440747	0.323908	-0.380958
C116	C	1.351559	0.384273	-0.320611
C117	C	1.351540	0.384320	0.036981
C118	C	1.440734	0.323971	0.036979
C119	C	1.485338	0.256826	0.000023
C120	C	1.440752	0.250032	-0.036939
C121	C	1.351566	0.310381	-0.036941
C122	C	1.351517	0.667967	-0.246677
C123	C	1.440685	0.667975	-0.307025
C124	C	1.485285	0.631015	-0.374164
C125	C	1.440705	0.594050	-0.380956
C126	C	1.351533	0.594045	-0.320610
H127	H	0.734221	0.957194	0.067079
O128	O	0.283280	1.070306	-0.000027
H129	H	0.317504	1.102172	-0.023160
H130	H	0.780580	0.743352	0.606135
O131	O	0.561339	0.805314	-0.076819
H132	H	0.630835	0.764483	-0.070606
O133	O	1.159398	0.554172	0.672081
H134	H	1.211764	0.575535	0.642793
H135	H	1.557958	0.207614	-0.423299
H136	H	0.734220	0.698059	0.807966
O137	O	0.283285	0.631081	0.439330
H138	H	0.317512	0.607969	0.471204
O139	O	0.561189	0.554228	0.174355
H140	H	0.659562	0.513342	0.145037
H141	H	0.780568	0.743360	0.496651
O142	O	0.376040	1.084436	0.299710
H143	H	0.393200	1.113691	0.325416
O144	O	0.705355	0.707903	0.453406
H145	H	0.723700	0.701711	0.494235
O146	O	1.488860	0.331193	-0.453377
H147	H	1.529502	0.360492	-0.459529
O148	O	1.303472	0.303048	-0.076797
H149	H	1.349469	0.246219	-0.102485
H150	H	1.477020	0.329516	0.067081
H151	H	0.387797	0.698118	0.435653
O152	O	1.303458	0.456677	-0.327941
H153	H	1.349453	0.451231	-0.384767
O154	O	1.303465	0.554171	-0.327936
H155	H	1.378340	0.497367	-0.357241
O156	O	0.705365	1.084434	0.076847
H157	H	0.629413	1.079017	0.102555
O158	O	0.375922	0.554250	0.299790
H159	H	0.306408	0.560483	0.353042
O160	O	0.705360	1.331280	0.076837
H161	H	0.700121	1.305563	0.117692
O162	O	0.758476	1.127143	-0.010966
H163	H	0.700302	1.177950	-0.014649
O164	O	1.581471	0.631020	-0.439247
H165	H	1.605000	0.599113	-0.487079
H166	H	0.780578	1.237142	-0.009559
H167	H	1.130541	0.563959	0.564373
O168	O	1.488825	0.554178	-0.453373
H169	H	1.558331	0.560387	-0.494188
O170	O	0.705371	1.456728	0.076833
H171	H	0.629423	1.451307	0.102540
O172	O	1.159425	1.303053	-0.076827
H173	H	1.141080	1.356299	-0.070624
O174	O	0.561349	0.958978	0.174306
H175	H	0.515376	1.015802	0.179733
H176	H	0.306864	1.054434	0.423337
O177	O	0.375927	1.084437	0.076817
H178	H	0.306421	1.125254	0.070603
O179	O	0.561345	0.707873	0.327947
H180	H	0.601991	0.686507	0.357243
H181	H	1.557959	0.207692	0.000031
H182	H	1.130546	1.195364	-0.067033
O183	O	0.375933	0.930848	0.453411
H184	H	0.306425	0.984105	0.494227
O185	O	1.303436	0.303069	-0.174269
H186	H	1.320532	0.328811	-0.144999
O187	O	1.488866	0.177611	-0.076798
H188	H	1.558363	0.136795	-0.070577
O189	O	0.561276	0.959000	0.076847
H190	H	0.515262	1.015830	0.102546
O191	O	0.561278	0.805372	0.327978
H192	H	0.515264	0.810817	0.384804
O193	O	0.705359	0.707870	0.700255
H194	H	0.629411	0.733585	0.757077
O195	O	1.303464	0.456734	0.076832
H196	H	1.262857	0.462879	0.133633
H197	H	1.084187	0.518700	0.503391
H198	H	1.315218	0.698064	-0.192014
O199	O	1.106278	1.134903	0.011028
H200	H	1.164461	1.084090	0.014698
H201	H	1.476973	0.698076	-0.301481
O202	O	1.106289	1.009446	0.011017
H203	H	1.164458	1.020885	0.014704
O204	O	1.159412	0.930761	-0.076864
H205	H	1.141066	0.984007	-0.070672
H206	H	1.130544	0.823065	-0.067044
O207	O	1.488786	0.177606	-0.299689
H208	H	1.529380	0.171477	-0.270362
O209	O	1.159408	0.554223	0.174327
H210	H	1.235352	0.528517	0.179756
H211	H	1.130542	0.563979	0.301566
O212	O	0.705362	0.707889	0.327954
H213	H	0.629412	0.733600	0.384775
O214	O	1.106304	0.502350	0.378428
H215	H	1.164482	0.459293	0.389860
O216	O	0.375983	0.930742	-0.076829
H217	H	0.421967	0.873913	-0.102510
