data_functionalizedCrystal
_audit_creation_method	'MofGen! by Chris Wilmer'
_symmetry_space_group_name_H-M	'P1'
_symmetry_Int_Tables_number	1
_symmetry_cell_setting	triclinic
loop_
_symmetry_equiv_pos_as_xyz
  x,y,z
_cell_length_a	19.851628
_cell_length_b	21.606444
_cell_length_c	21.606444
_cell_angle_alpha	60.000398
_cell_angle_beta	90.002566
_cell_angle_gamma	59.997133
loop_
_atom_site_label
_atom_site_type_symbol
_atom_site_fract_x
_atom_site_fract_y
_atom_site_fract_z
Zr1	Zr	0.648970	0.677379	-0.081128
O2	O	0.541402	0.806512	-0.179961
O3	O	0.681946	0.548257	-0.050833
O4	O	0.681946	0.677378	-0.179950
O5	O	0.541402	0.677388	0.051009
O6	O	0.792807	0.677366	-0.179937
O7	O	0.541403	0.677390	-0.050844
O8	O	0.792808	0.446392	0.051030
O9	O	0.541401	0.908363	-0.179958
O10	O	0.778744	0.601354	-0.037899
O11	O	0.696008	0.601361	0.038103
O12	O	0.696008	0.753385	-0.113916
O13	O	0.613272	0.753392	-0.037913
Zr14	Zr	0.825781	0.677356	0.081336
Zr15	Zr	0.825782	0.677360	-0.081108
Zr16	Zr	0.648969	0.677376	0.081316
Zr17	Zr	0.648968	0.839820	-0.081122
Zr18	Zr	0.825782	0.514916	0.081331
O19	O	0.792804	0.806479	0.051041
O20	O	0.792806	0.806485	-0.179933
O21	O	0.541401	0.806506	0.051013
O22	O	0.933348	0.548224	0.180170
O23	O	0.933350	0.548230	-0.050805
O24	O	0.681945	0.548251	0.180142
O25	O	0.933348	0.677348	-0.050800
O26	O	0.792805	0.677358	0.180158
O27	O	0.681943	0.677370	0.180146
O28	O	0.933348	0.677346	0.051053
O29	O	0.681943	0.908347	-0.179942
O30	O	0.792808	0.446389	0.180151
O31	O	0.933349	0.446373	0.180167
O32	O	0.933350	0.446376	0.051045
O33	O	0.541400	0.908359	-0.050837
O34	O	0.681942	0.908344	-0.050821
O35	O	0.778743	0.601351	0.114124
O36	O	0.861478	0.601344	0.038122
O37	O	0.778742	0.753375	-0.037895
O38	O	0.696007	0.753382	0.038108
C39	C	0.737378	0.474180	0.000098
C40	C	0.737378	0.405220	0.000095
C41	C	0.780564	0.372819	-0.039578
C42	C	0.780566	0.308019	-0.039573
C43	C	0.737379	0.275625	0.000102
C44	C	0.694192	0.308029	0.039780
C45	C	0.694195	0.372824	0.039779
C46	C	0.694183	0.046720	0.039787
C47	C	0.694182	-0.018077	0.039783
C48	C	0.780554	-0.018085	-0.039566
C49	C	0.780557	0.046709	-0.039567
C50	C	0.737374	0.079104	0.000115
C51	C	0.737373	0.149367	0.000110
C52	C	0.737375	0.205369	0.000103
C53	C	0.516211	0.677392	0.000080
C54	C	0.441149	0.677400	0.000071
C55	C	0.214693	0.760274	-0.041351
C56	C	0.192333	0.718839	-0.071386
C57	C	0.303743	0.677377	0.000093
C58	C	0.192363	0.718818	0.030114
C59	C	0.171011	0.677362	0.000114
C60	C	0.282371	0.635942	-0.029984
C61	C	0.282399	0.635932	0.071556
C62	C	0.260091	0.594437	0.041538
C63	C	0.380205	0.677389	0.000079
C64	C	0.094554	0.677344	0.000126
C65	C	0.958540	0.677344	0.000129
C66	C	1.033601	0.677336	0.000137
C67	C	0.737377	0.677373	-0.203088
C68	C	0.737377	0.677374	-0.272050
C69	C	0.737373	0.880556	0.000111
C70	C	0.737372	0.949516	0.000113
C71	C	0.798451	0.677370	-0.304442
C72	C	0.798454	0.677363	-0.369235
C73	C	0.737378	0.677368	-0.401638
C74	C	0.676300	0.677371	-0.369241
C75	C	0.676302	0.677371	-0.304446
C76	C	0.676293	0.677370	-0.630551
C77	C	0.676295	0.677373	-0.695352
C78	C	0.798445	0.677363	-0.695340
C79	C	0.798447	0.677363	-0.630545
C80	C	0.737372	0.677360	-0.598151
C81	C	0.737371	0.677365	-0.527894
C82	C	0.737375	0.677370	-0.471897
C83	C	0.737374	0.677363	0.203297
C84	C	0.737373	0.677361	0.272259
C85	C	0.958542	0.474156	0.000122
C86	C	1.033604	0.405188	0.000129
C87	C	0.737376	0.474175	0.203290
C88	C	0.737377	0.405213	0.272250
C89	C	0.958541	0.474151	0.203315
C90	C	1.033602	0.405181	0.272283
C91	C	0.516210	0.880585	-0.203106
C92	C	0.441148	0.949555	-0.272074
C93	C	0.516208	0.880580	0.000086
C94	C	0.441146	0.949548	0.000080
C95	C	0.737374	0.880561	-0.203082
C96	C	0.737374	0.949523	-0.272041
C97	C	1.025668	0.372805	-0.039558
C98	C	1.096190	0.308011	-0.039567
C99	C	1.174647	0.275597	0.000115
C100	C	1.182582	0.307986	0.039802
C101	C	1.112061	0.372783	0.039807
C102	C	0.780563	0.372823	0.344323
C103	C	0.780560	0.308035	0.409124
C104	C	0.737375	0.275634	0.401850
C105	C	0.694183	0.308032	0.329769
C106	C	0.694182	0.372823	0.264970
C107	C	1.112046	0.372789	0.264998
C108	C	1.182582	0.307993	0.329795
C109	C	1.174671	0.275587	0.401875
C110	C	1.096218	0.307986	0.409158
C111	C	1.025685	0.372785	0.344362
C112	C	0.362704	0.981955	-0.264790
C113	C	0.292169	1.046771	-0.329586
C114	C	0.300080	1.079180	-0.401666
C115	C	0.378532	1.046777	-0.408950
C116	C	0.449065	0.981967	-0.344154
C117	C	0.449083	0.981938	0.039759
C118	C	0.378561	1.046749	0.039751
C119	C	0.300103	1.079166	0.000067
C120	C	0.292168	1.046774	-0.039617
C121	C	0.362689	0.981968	-0.039613
C122	C	0.780567	0.981902	-0.264743
C123	C	0.780583	1.046691	-0.329532
C124	C	0.737400	1.079103	-0.401618
C125	C	0.694205	1.046716	-0.408914
C126	C	0.694195	0.981925	-0.344126
H127	H	0.815719	-0.044471	-0.071874
H128	H	0.848184	0.677371	-0.278066
O129	O	0.355047	0.950350	-0.194761
C130	C	0.393264	0.859551	-0.154891
H131	H	0.396517	0.841809	-0.196930
H132	H	0.355858	0.840938	-0.119070
H133	H	0.458318	0.822483	-0.116433
O134	O	0.857721	0.677369	-0.598997
C135	C	0.820454	0.752679	-0.599087
H136	H	0.757162	0.805519	-0.645035
H137	H	0.860829	0.777824	-0.610827
H138	H	0.813237	0.735592	-0.541475
H139	H	0.153561	0.753868	0.055496
O140	O	0.616858	0.677533	-0.599203
C141	C	0.538671	0.752929	-0.652753
H142	H	0.545735	0.805623	-0.696906
H143	H	0.497186	0.778242	-0.622803
H144	H	0.509869	0.735889	-0.681851
O145	O	0.822499	0.404361	0.351264
C146	C	0.813229	0.468512	0.278622
H147	H	0.797335	0.457871	0.235670
H148	H	0.873340	0.463247	0.279350
H149	H	0.761517	0.536291	0.262106
H150	H	0.659024	0.073085	0.072101
H151	H	0.659033	0.281646	0.072089
O152	O	0.822450	0.950353	-0.194667
C153	C	0.813207	0.886204	-0.139037
H154	H	0.754872	0.896855	-0.164290
H155	H	0.808269	0.891461	-0.089069
H156	H	0.869003	0.818425	-0.118768
O157	O	0.216014	1.078192	-0.078222
C158	C	0.224117	1.035693	-0.113229
H159	H	0.287043	1.008990	-0.121099
H160	H	0.173518	1.084310	-0.170861
H161	H	0.218344	0.979417	-0.076036
H162	H	0.321066	0.600932	-0.055435
H163	H	1.232063	0.222834	0.000106
O164	O	0.737499	0.212665	0.464878
C165	C	0.784865	0.191045	0.530048
H166	H	0.830525	0.208902	0.515167
H167	H	0.820029	0.117807	0.575817
H168	H	0.742345	0.228940	0.551860
H169	H	1.089713	0.281648	-0.071885
H170	H	0.659017	0.399187	0.206287
H171	H	0.242640	1.131953	-0.454421
O172	O	0.652364	1.078072	-0.478925
C173	C	0.684094	1.008935	-0.487242
H174	H	0.749919	0.953838	-0.446203
H175	H	0.683989	1.033664	-0.547851
H176	H	0.644032	0.983398	-0.474397
H177	H	1.118535	0.399140	0.072128
H178	H	0.848178	0.677361	-0.721720
O179	O	1.258737	0.276606	0.078370
C180	C	1.250633	0.319054	0.113426
H181	H	1.187709	0.384750	0.082305
H182	H	1.301234	0.330184	0.111313
H183	H	1.256403	0.276553	0.175007
H184	H	0.815721	0.073085	-0.071877
H185	H	0.321206	0.600925	0.131970
O186	O	0.822597	0.276635	0.479080
C187	C	0.860702	0.319138	0.471596
H188	H	0.869245	0.345830	0.413773
H189	H	0.923442	0.270527	0.518068
H190	H	0.820235	0.375423	0.476898
H191	H	0.961815	0.399151	0.350304
H192	H	0.385038	1.073112	0.072070
O193	O	0.822550	1.078081	-0.322299
C194	C	0.860664	1.035569	-0.244780
H195	H	0.826779	1.008878	-0.210244
H196	H	0.858333	1.084174	-0.235741
H197	H	0.927699	0.979282	-0.225670
O198	O	0.216029	1.078110	-0.322366
C199	C	0.224181	1.035609	-0.244851
H200	H	0.287120	0.969929	-0.210306
H201	H	0.173604	1.024441	-0.235820
H202	H	0.218409	1.078089	-0.225744
H203	H	1.118503	0.399164	0.206313
H204	H	0.659012	-0.044450	0.072093
O205	O	0.525334	0.950474	0.078199
C206	C	0.568707	0.966319	0.027263
H207	H	0.541781	0.974379	-0.024960
H208	H	0.636582	0.908761	0.056056
H209	H	0.562833	1.028628	0.009504
O210	O	0.857813	0.677412	-0.400630
C211	C	0.911725	0.677398	-0.358131
H212	H	0.878820	0.704953	-0.325720
H213	H	0.931424	0.719676	-0.397988
H214	H	0.968525	0.607556	-0.316320
H215	H	1.089789	0.281592	0.467855
H216	H	0.626557	0.677376	-0.721733
H217	H	0.737415	1.131860	-0.454366
H218	H	0.659023	0.281642	0.323858
O219	O	0.386063	1.078328	-0.479027
C220	C	0.306981	1.142489	-0.534647
H221	H	0.260243	1.131848	-0.509383
H222	H	0.307738	1.137237	-0.584617
H223	H	0.289015	1.210263	-0.554916
H224	H	0.626573	0.677369	-0.395625
H225	H	0.815732	0.281637	-0.071878
H226	H	1.246454	0.281620	0.323851
H227	H	0.512936	0.955587	-0.350094
H228	H	0.242687	1.131936	0.000070
O229	O	0.355076	0.950349	-0.078040
C230	C	0.393257	0.859559	-0.027092
H231	H	0.441334	0.832066	0.025131
H232	H	0.424555	0.825977	-0.055873
H233	H	0.344758	0.847218	-0.009336
H234	H	0.659018	0.955568	-0.350079
H235	H	0.659027	0.399206	0.072083
O236	O	0.822589	0.404159	-0.078131
C237	C	0.860691	0.361676	-0.113160
H238	H	0.869238	0.296000	-0.082037
H239	H	0.923428	0.350500	-0.111018
H240	H	0.820218	0.404173	-0.174749
H241	H	1.232110	0.222824	0.454630
H242	H	0.196241	0.830367	-0.076448
H243	H	0.278698	0.524286	0.076586
O244	O	0.145983	0.760775	-0.143497
C245	C	0.121293	0.848151	-0.187015
H246	H	0.122743	0.868655	-0.147878
H247	H	0.055967	0.892662	-0.228441
H248	H	0.165202	0.853791	-0.219918
H249	H	0.961790	0.399197	-0.071880
O250	O	0.616891	0.677417	-0.273096
C251	C	0.562994	0.677401	-0.315578
H252	H	0.565896	0.704964	-0.375547
H253	H	0.497275	0.719671	-0.317992
H254	H	0.582225	0.607558	-0.287548
