data_functionalizedCrystal
_audit_creation_method	'MofGen! by Chris Wilmer'
_symmetry_space_group_name_H-M	'P1'
_symmetry_Int_Tables_number	1
_symmetry_cell_setting	triclinic
loop_
_symmetry_equiv_pos_as_xyz
  x,y,z
_cell_length_a	19.902436
_cell_length_b	14.560438
_cell_length_c	19.902436
_cell_angle_alpha	119.992192
_cell_angle_beta	89.994548
_cell_angle_gamma	59.996626
loop_
_atom_site_label
_atom_site_type_symbol
_atom_site_fract_x
_atom_site_fract_y
_atom_site_fract_z
Zr1	Zr	0.647322	1.005154	0.088103
O2	O	0.540029	1.196752	0.195387
O3	O	0.680212	0.813554	0.055216
O4	O	0.680212	1.005129	0.195379
O5	O	0.540030	1.005198	-0.055340
O6	O	0.790791	1.005111	0.195370
O7	O	0.540029	1.005178	0.055225
O8	O	0.790791	0.662419	-0.055356
O9	O	0.540029	1.347890	0.195385
O10	O	0.776764	0.892349	0.041181
O11	O	0.694240	0.892378	-0.041325
O12	O	0.694240	1.117933	0.123698
O13	O	0.611717	1.117961	0.041192
Zr14	Zr	0.823683	1.005159	-0.088250
Zr15	Zr	0.823682	1.005126	0.088088
Zr16	Zr	0.647322	1.005187	-0.088235
Zr17	Zr	0.647322	1.246202	0.088099
Zr18	Zr	0.823682	0.764111	-0.088246
O19	O	0.790792	1.196758	-0.055363
O20	O	0.790791	1.196712	0.195367
O21	O	0.540030	1.196799	-0.055343
O22	O	0.930975	0.813560	-0.195534
O23	O	0.930974	0.813514	0.055196
O24	O	0.680213	0.813601	-0.195514
O25	O	0.930974	1.005115	0.055193
O26	O	0.790792	1.005184	-0.195526
O27	O	0.680214	1.005202	-0.195517
O28	O	0.930975	1.005135	-0.055372
O29	O	0.680212	1.347868	0.195374
O30	O	0.790792	0.662445	-0.195521
O31	O	0.930975	0.662423	-0.195532
O32	O	0.930974	0.662396	-0.055367
O33	O	0.540030	1.347916	0.055220
O34	O	0.680213	1.347894	0.055209
O35	O	0.776764	0.892380	-0.123845
O36	O	0.859288	0.892351	-0.041339
O37	O	0.776764	1.117935	0.041178
O38	O	0.694241	1.117963	-0.041328
C39	C	0.735502	0.703643	-0.000069
C40	C	0.735502	0.601311	-0.000068
C41	C	0.514902	1.005192	-0.000056
C42	C	0.440033	1.005204	-0.000050
C43	C	0.778576	0.553220	0.043000
C44	C	0.778579	0.457061	0.042992
C45	C	0.692427	0.457096	-0.043152
C46	C	0.692429	0.553247	-0.043149
C47	C	0.869484	0.272121	0.055580
C48	C	0.912549	0.224042	0.098661
C49	C	0.911419	0.308756	0.175848
C50	C	0.867210	0.441570	0.209972
C51	C	0.824138	0.489651	0.166896
C52	C	0.825285	0.404917	0.089695
C53	C	0.601522	0.738197	-0.055728
C54	C	0.558444	0.786287	-0.098800
C55	C	0.559566	0.701580	-0.175987
C56	C	0.603761	0.568778	-0.210105
C57	C	0.646838	0.520688	-0.167033
C58	C	0.645718	0.605399	-0.089847
C59	C	0.168031	1.005140	-0.000081
C60	C	0.144464	1.147442	0.051722
C61	C	0.222301	1.147531	0.052010
C62	C	0.302974	1.005173	-0.000066
C63	C	0.300562	0.934491	0.037893
C64	C	0.222334	0.935400	0.038276
C65	C	0.223322	0.932501	-0.089867
C66	C	0.300244	0.935176	-0.089729
C67	C	0.379240	1.005183	-0.000057
C68	C	0.091765	1.005125	-0.000087
C69	C	0.956102	1.005121	-0.000091
C70	C	1.030972	1.005109	-0.000098
C71	C	0.735501	1.005115	0.220498
C72	C	0.735501	1.005101	0.295359
C73	C	0.735503	1.306670	-0.000078
C74	C	0.735503	1.409001	-0.000079
C75	C	0.735509	1.005116	0.432434
C76	C	0.787563	0.862823	0.408901
C77	C	0.787846	0.862761	0.486748
C78	C	0.735516	1.005129	0.567394
C79	C	0.773207	1.076194	0.565103
C80	C	0.773596	1.075259	0.486867
C81	C	0.645735	1.077374	0.487575
C82	C	0.645875	1.074721	0.564505
C83	C	0.735520	1.005143	0.643670
C84	C	0.735508	1.005105	0.356160
C85	C	0.735508	1.005180	0.779348
C86	C	0.735524	1.005143	0.704469
C87	C	0.956102	0.703607	-0.000087
C88	C	1.030971	0.601264	-0.000092
C89	C	0.735503	0.703684	-0.220641
C90	C	0.735503	0.601366	-0.295500
C91	C	0.956103	0.703648	-0.220659
C92	C	1.030973	0.601319	-0.295524
C93	C	0.514902	1.306665	0.220512
C94	C	0.440032	1.408994	0.295377
C95	C	0.514903	1.306706	-0.000060
C96	C	0.440033	1.409049	-0.000055
C97	C	0.735502	1.306629	0.220494
C98	C	0.735501	1.408946	0.295353
C99	C	1.023054	0.553201	0.042988
C100	C	1.093395	0.457053	0.043000
C101	C	1.171653	0.408961	-0.000073
C102	C	1.179568	0.457033	-0.043154
C103	C	1.109228	0.553187	-0.043161
C104	C	0.778580	0.553318	-0.373737
C105	C	0.778577	0.457194	-0.444081
C106	C	0.735501	0.409113	-0.436187
C107	C	0.692419	0.457171	-0.357943
C108	C	0.692418	0.553300	-0.287600
C109	C	1.109216	0.553249	-0.287614
C110	C	1.179571	0.457113	-0.357951
C111	C	1.171681	0.409043	-0.436197
C112	C	1.093429	0.457122	-0.444105
C113	C	1.023076	0.553262	-0.373769
C114	C	0.361788	1.457075	0.287467
C115	C	0.291433	1.553241	0.357803
C116	C	0.299324	1.601317	0.436050
C117	C	0.377575	1.553231	0.443958
C118	C	0.447928	1.457074	0.373622
C119	C	0.447950	1.457121	-0.043128
C120	C	0.377609	1.553297	-0.043120
C121	C	0.299352	1.601391	-0.000045
C122	C	0.291436	1.553315	0.043033
C123	C	0.361776	1.457148	0.043030
C124	C	0.778585	1.456997	0.287433
C125	C	0.778601	1.553122	0.357764
C126	C	0.735528	1.601201	0.436014
C127	C	0.692443	1.553141	0.443933
C128	C	0.692432	1.457011	0.373603
H129	H	0.813650	0.592350	0.078077
F130	F	0.594809	1.214384	0.513587
H131	H	0.788140	0.597786	0.194680
F132	F	0.353372	1.405924	0.204198
H133	H	1.087017	0.417968	-0.507823
H134	H	0.383990	1.592387	0.507675
H135	H	0.657374	1.592302	0.507653
F136	F	0.302588	0.998629	0.123430
H137	H	0.866285	0.510543	0.272830
F138	F	0.824433	1.405844	0.204160
H139	H	0.813657	0.592455	-0.380180
F140	F	0.531231	1.405956	-0.088975
H141	H	0.524479	0.740752	-0.211050
H142	H	0.946484	0.269603	0.210926
F143	F	0.531199	1.405905	0.382054
F144	F	1.262844	0.405957	-0.349516
H145	H	0.839649	1.025334	0.450436
F146	F	0.224440	1.703656	0.510901
H147	H	0.357376	0.829818	0.001976
F148	F	0.600332	0.828359	0.026422
F149	F	0.208160	1.604396	0.349369
H150	H	0.735543	1.679477	0.493275
F151	F	1.246565	0.306719	-0.511048
H152	H	0.604670	0.499805	-0.272955
F153	F	0.646579	0.405985	-0.349554
H154	H	0.737098	1.180887	0.621901
H155	H	0.657344	1.417899	0.380063
H156	H	0.959369	0.592388	-0.380222
F157	F	0.386051	1.604442	-0.088974
F158	F	0.092298	1.220078	0.137772
H159	H	0.242083	1.679697	-0.000049
F160	F	0.824435	0.406062	-0.527347
H161	H	0.738109	1.179676	0.506196
F162	F	0.824456	1.604259	0.349319
H163	H	0.735509	0.330839	-0.493472
F164	F	0.219978	1.220449	0.138579
F165	F	0.959599	0.082694	0.062342
H166	H	0.227709	1.592488	0.078104
H167	H	0.870419	0.203127	-0.007277
H168	H	0.838627	1.027422	0.566771
H169	H	0.355319	1.418010	0.078102
F170	F	1.117632	0.604398	-0.204345
F171	F	0.646592	0.405929	-0.089003
H172	H	0.682822	0.412549	-0.194818
H173	H	0.522451	0.894429	-0.071010
H174	H	0.105297	1.203305	0.026392
F175	F	0.220770	1.220013	0.018732
H176	H	0.357703	0.831317	-0.131576
H177	H	0.185791	0.985612	0.104346
H178	H	0.187010	0.978047	-0.121575
F179	F	0.299767	1.002521	-0.126802
F180	F	0.249369	0.795479	-0.140553
F181	F	0.247620	0.798938	-0.007844
H182	H	0.657342	0.592408	-0.223899
H183	H	0.762588	0.807029	0.485488
H184	H	0.853394	0.807530	0.369103
H185	H	0.762439	0.806670	0.369639
H186	H	0.854070	0.807267	0.485085
H187	H	0.614220	1.031519	0.451166
H188	H	0.617716	1.022896	0.564034
F189	F	0.590997	1.210557	0.639475
H190	H	0.959339	0.592356	0.078073
H191	H	1.228921	0.330666	-0.000062
F192	F	1.084953	0.405904	0.088852
H193	H	1.243295	0.417863	-0.078222
H194	H	1.115686	0.592307	-0.078246
