data_functionalizedCrystal
_audit_creation_method	'MofGen! by Chris Wilmer'
_symmetry_space_group_name_H-M	'P1'
_symmetry_Int_Tables_number	1
_symmetry_cell_setting	triclinic
loop_
_symmetry_equiv_pos_as_xyz
  x,y,z
_cell_length_a	17.077404
_cell_length_b	19.805405
_cell_length_c	17.077396
_cell_angle_alpha	90.028963
_cell_angle_beta	90.018362
_cell_angle_gamma	90.024696
loop_
_atom_site_label
_atom_site_type_symbol
_atom_site_fract_x
_atom_site_fract_y
_atom_site_fract_z
Zn1	Zn	1.200034	-0.269500	0.443816
Zn2	Zn	1.533367	0.063833	0.777150
Zn3	Zn	1.866700	0.397167	1.110483
Zn4	Zn	1.199932	-0.382693	0.312549
Zn5	Zn	1.533265	-0.049360	0.645882
Zn6	Zn	1.866599	0.283974	0.979216
Zn7	Zn	1.068765	-0.269519	0.312567
Zn8	Zn	1.402099	0.063814	0.645900
Zn9	Zn	1.735432	0.397148	0.979233
Zn10	Zn	1.068725	-0.382648	0.443775
Zn11	Zn	1.402058	-0.049315	0.777109
Zn12	Zn	1.735391	0.284018	1.110442
O13	O	1.134364	-0.326090	0.378177
O14	O	1.467697	0.007243	0.711510
O15	O	1.801031	0.340577	1.044844
O16	O	1.309867	-0.284526	0.426413
O17	O	1.643200	0.048808	0.759746
O18	O	1.976534	0.382141	1.093080
O19	O	1.182507	-0.367707	0.202704
O20	O	1.515840	-0.034374	0.536038
O21	O	1.849174	0.298960	0.869371
O22	O	1.086238	-0.174800	0.330002
O23	O	1.419571	0.158533	0.663335
O24	O	1.752905	0.491867	0.996668
O25	O	1.309792	-0.367688	0.329972
O26	O	1.643126	-0.034355	0.663305
O27	O	1.976459	0.298979	0.996638
O28	O	1.182680	-0.174786	0.426430
O29	O	1.516014	0.158548	0.759764
O30	O	1.849347	0.491881	1.093097
O31	O	1.086139	-0.284559	0.202717
O32	O	1.419473	0.048775	0.536051
O33	O	1.752806	0.382108	0.869384
O34	O	0.958913	-0.284515	0.329962
O35	O	1.292246	0.048818	0.663295
O36	O	1.625580	0.382151	0.996629
O37	O	1.086169	-0.367612	0.553628
O38	O	1.419502	-0.034279	0.886961
O39	O	1.752835	0.299055	1.220294
O40	O	0.958883	-0.367631	0.426360
O41	O	1.292216	-0.034297	0.759694
O42	O	1.625550	0.299036	1.093027
O43	O	1.182641	-0.284482	0.553658
O44	O	1.515974	0.048851	0.886991
O45	O	1.849307	0.382184	1.220324
O46	O	1.182467	-0.477404	0.329932
O47	O	1.515801	-0.144070	0.663265
O48	O	1.849134	0.189263	0.996599
O49	O	1.086070	-0.477371	0.426343
O50	O	1.419403	-0.144037	0.759677
O51	O	1.752737	0.189296	1.093010
C52	C	0.930416	-0.326071	0.378159
C53	C	1.263749	0.007262	0.711493
C54	C	1.597083	0.340596	1.044826
C55	C	0.843166	-0.326079	0.378170
C56	C	1.176500	0.007254	0.711504
C57	C	1.509833	0.340588	1.044837
C58	C	0.802216	-0.282853	0.428464
C59	C	1.135549	0.050480	0.761797
C60	C	1.468882	0.383813	1.095131
C61	C	0.720235	-0.282858	0.428468
C62	C	1.053569	0.050476	0.761801
C63	C	1.386902	0.383809	1.095134
C64	C	0.679207	-0.326092	0.378181
C65	C	1.012540	0.007242	0.711514
C66	C	1.345874	0.340575	1.044848
C67	C	0.720163	-0.369319	0.327882
C68	C	1.053496	-0.035986	0.661215
C69	C	1.386830	0.297348	0.994548
C70	C	0.802142	-0.369311	0.327875
C71	C	1.135475	-0.035978	0.661208
C72	C	1.468809	0.297356	0.994541
C73	C	0.549293	-0.369335	0.327901
C74	C	0.882626	-0.036001	0.661235
C75	C	1.215960	0.297332	0.994568
C76	C	0.467308	-0.369344	0.327909
C77	C	0.800642	-0.036011	0.661242
C78	C	1.133975	0.297323	0.994576
C79	C	0.467386	-0.282881	0.428494
C80	C	0.800720	0.050452	0.761827
C81	C	1.134053	0.383785	1.095161
C82	C	0.549365	-0.282873	0.428487
C83	C	0.882699	0.050460	0.761820
C84	C	1.216032	0.383794	1.095154
C85	C	0.590316	-0.326102	0.378189
C86	C	0.923649	0.007232	0.711522
C87	C	1.256983	0.340565	1.044855
C88	C	1.134274	-0.501946	0.378148
C89	C	1.467608	-0.168613	0.711482
C90	C	1.800941	0.164721	1.044815
C91	C	1.134308	-0.577178	0.378163
C92	C	1.467641	-0.243845	0.711496
C93	C	1.800975	0.089489	1.044829
C94	C	1.184496	-0.612457	0.428412
C95	C	1.517829	-0.279123	0.761745
C96	C	1.851162	0.054210	1.095079
C97	C	1.184524	-0.683145	0.428427
C98	C	1.517857	-0.349812	0.761760
C99	C	1.851191	-0.016478	1.095093
C100	C	1.134368	-0.718554	0.378187
C101	C	1.467701	-0.385220	0.711521
C102	C	1.801035	-0.051887	1.044854
C103	C	1.084175	-0.683270	0.327935
C104	C	1.417508	-0.349937	0.661269
C105	C	1.750841	-0.016603	0.994602
C106	C	1.084143	-0.612583	0.327925
C107	C	1.417476	-0.279250	0.661259
C108	C	1.750810	0.054084	0.994592
C109	C	1.084301	-0.968343	0.327976
C110	C	1.417634	-0.635010	0.661309
C111	C	1.750968	-0.301677	0.994642
C112	C	1.084338	-1.039035	0.327988
C113	C	1.417671	-0.705702	0.661321
C114	C	1.751005	-0.372369	0.994655
C115	C	1.184682	-1.038905	0.428477
C116	C	1.518015	-0.705572	0.761810
C117	C	1.851349	-0.372239	1.095144
C118	C	1.184650	-0.968218	0.428467
C119	C	1.517984	-0.634885	0.761800
C120	C	1.851317	-0.301552	1.095134
C121	C	1.134454	-0.932941	0.378218
C122	C	1.467788	-0.599608	0.711552
C123	C	1.801121	-0.266274	1.044885
C124	C	1.134423	-0.856293	0.378204
C125	C	1.467757	-0.522959	0.711538
C126	C	1.801090	-0.189626	1.044871
C127	C	1.134403	-0.795201	0.378197
C128	C	1.467736	-0.461867	0.711530
C129	C	1.801069	-0.128534	1.044863
C130	C	1.339108	-0.326110	0.378195
C131	C	1.672441	0.007224	0.711528
C132	C	2.005775	0.340557	1.044862
C133	C	1.426358	-0.326118	0.378203
C134	C	1.759691	0.007215	0.711536
C135	C	2.093025	0.340548	1.044869
C136	C	1.134411	-0.326040	0.582921
C137	C	1.467745	0.007293	0.916255
C138	C	1.801078	0.340627	1.249588
C139	C	1.134432	-0.326019	0.670171
C140	C	1.467765	0.007314	1.003504
C141	C	1.801098	0.340648	1.336838
C142	C	1.134475	-0.149547	0.378223
C143	C	1.467808	0.183786	0.711556
C144	C	1.801142	0.517119	1.044889
C145	C	1.134522	-0.074315	0.378242
C146	C	1.467856	0.259018	0.711575
C147	C	1.801189	0.592351	1.044909
C148	C	1.134362	-0.326091	0.174229
C149	C	1.467695	0.007242	0.507562
C150	C	1.801028	0.340576	0.840896
C151	C	1.134494	-0.325921	0.086980
C152	C	1.467827	0.007412	0.420313
C153	C	1.801160	0.340745	0.753646
C154	C	1.184667	-0.282730	0.711178
C155	C	1.518000	0.050604	1.044511
C156	C	1.851333	0.383937	1.377845
C157	C	1.184676	-0.282707	0.793159
C158	C	1.518009	0.050626	1.126492
C159	C	1.851343	0.383959	1.459825
C160	C	1.134454	-0.325978	0.834131
C161	C	1.467787	0.007356	1.167464
C162	C	1.801121	0.340689	1.500797
C163	C	1.084214	-0.369269	0.793118
C164	C	1.417547	-0.035936	1.126451
C165	C	1.750880	0.297398	1.459784
C166	C	1.084201	-0.369287	0.711139
C167	C	1.417534	-0.035954	1.044472
C168	C	1.750867	0.297379	1.377805
C169	C	1.084245	-0.369228	0.963988
C170	C	1.417578	-0.035895	1.297321
C171	C	1.750912	0.297438	1.630655
C172	C	1.084259	-0.369211	1.045973
C173	C	1.417592	-0.035877	1.379306
C174	C	1.750925	0.297456	1.712639
C175	C	1.184720	-0.282648	1.046008
C176	C	1.518054	0.050685	1.379341
C177	C	1.851387	0.384019	1.712674
C178	C	1.184708	-0.282666	0.964029
C179	C	1.518041	0.050667	1.297362
C180	C	1.851374	0.384000	1.630695
C181	C	1.134468	-0.325959	0.923022
C182	C	1.467801	0.007375	1.256355
C183	C	1.801135	0.340708	1.589688
H184	H	0.686751	-0.404518	0.286934
H185	H	1.020085	-0.071184	0.620267
H186	H	1.353418	0.262149	0.953600
H187	H	0.835483	-0.404509	0.286920
H188	H	1.168816	-0.071176	0.620253
H189	H	1.502150	0.262157	0.953587
H190	H	1.225551	-1.067637	0.469395
H191	H	1.558885	-0.734303	0.802728
H192	H	1.892218	-0.400970	1.136061
H193	H	1.225342	-0.583632	0.469320
H194	H	1.558675	-0.250298	0.802653
H195	H	1.892009	0.083035	1.135986
F196	F	1.030726	-0.575037	0.274444
F197	F	1.364059	-0.241704	0.607777
F198	F	1.697392	0.091629	0.941110
F199	F	1.238125	-0.236678	0.667580
F200	F	1.571458	0.096656	1.000913
F201	F	1.904791	0.429989	1.334247
F202	F	1.237932	-0.720688	0.481918
F203	F	1.571266	-0.387355	0.815251
F204	F	1.904599	-0.054021	1.148585
F205	F	1.238035	-0.930538	0.481936
F206	F	1.571369	-0.597204	0.815270
F207	F	1.904702	-0.263871	1.148603
F208	F	1.030732	-0.415360	0.667496
F209	F	1.364065	-0.082027	1.000830
F210	F	1.697399	0.251307	1.334163
H211	H	1.043431	-0.939626	0.287060
H212	H	1.376765	-0.606293	0.620393
H213	H	1.710098	-0.272959	0.953727
H214	H	0.582768	-0.247672	0.469440
H215	H	0.916102	0.085661	0.802773
H216	H	1.249435	0.418995	1.136106
F217	F	1.238170	-0.236656	0.836798
F218	F	1.571503	0.096677	1.170131
F219	F	1.904837	0.430011	1.503464
F220	F	0.423644	-0.415371	0.274403
F221	F	0.756978	-0.082038	0.607737
F222	F	1.090311	0.251296	0.941070
H223	H	1.043334	-0.712105	0.287033
H224	H	1.376667	-0.378772	0.620366
H225	H	1.710000	-0.045439	0.953699
H226	H	0.835615	-0.247649	0.469415
H227	H	1.168949	0.085684	0.802749
H228	H	1.502282	0.419018	1.136082
H229	H	0.686897	-0.247660	0.469423
H230	H	1.020230	0.085673	0.802757
H231	H	1.353564	0.419006	1.136090
F232	F	1.238164	-0.236617	0.920425
F233	F	1.571497	0.096716	1.253758
F234	F	1.904831	0.430050	1.587092
H235	H	1.225626	-0.247397	1.079400
H236	H	1.558959	0.085937	1.412733
H237	H	1.892293	0.419270	1.746066
H238	H	1.043491	-1.067863	0.287075
H239	H	1.376825	-0.734530	0.620409
H240	H	1.710158	-0.401197	0.953742
H241	H	1.043362	-0.404444	1.079330
H242	H	1.376695	-0.071111	1.412663
H243	H	1.710029	0.262223	1.745996
F244	F	1.030772	-0.415303	0.920347
F245	F	1.364106	-0.081970	1.253680
F246	F	1.697439	0.251363	1.587014
H247	H	0.434040	-0.247682	0.469447
H248	H	0.767374	0.085652	0.802781
H249	H	1.100707	0.418985	1.136114
F250	F	0.592874	-0.415346	0.274371
F251	F	0.926207	-0.082013	0.607704
F252	F	1.259540	0.251320	0.941037
F253	F	1.030760	-0.415318	0.836725
F254	F	1.364093	-0.081985	1.170059
F255	F	1.697427	0.251348	1.503392
