data_functionalizedCrystal
_audit_creation_method	'MofGen! by Chris Wilmer'
_symmetry_space_group_name_H-M	'P1'
_symmetry_Int_Tables_number	1
_symmetry_cell_setting	triclinic
loop_
_symmetry_equiv_pos_as_xyz
  x,y,z
_cell_length_a	6.817900
_cell_length_b	11.102288
_cell_length_c	17.078481
_cell_angle_alpha	95.111737
_cell_angle_beta	99.306161
_cell_angle_gamma	108.605689
loop_
_atom_site_label
_atom_site_type_symbol
_atom_site_fract_x
_atom_site_fract_y
_atom_site_fract_z
V1	V	-4.005700	-0.175542	-0.247362
V2	V	-3.505700	0.324458	0.252638
O3	O	-3.966747	0.008741	-0.242653
O4	O	-3.466747	0.508741	0.257347
O5	O	-3.983201	-0.348365	-0.245670
O6	O	-3.483201	0.151635	0.254330
O7	O	-3.936325	-0.172708	-0.355245
O8	O	-3.436325	0.327292	0.144755
O9	O	-4.013948	-0.168132	-0.132320
O10	O	-3.513948	0.331868	0.367680
V11	V	-4.488690	-0.153516	-0.233602
V12	V	-3.988690	0.346484	0.266398
O13	O	-4.268129	-0.223860	-0.277545
O14	O	-3.768129	0.276140	0.222455
O15	O	-4.676459	-0.105199	-0.203418
O16	O	-4.176459	0.394801	0.296582
O17	O	-4.287983	0.019306	-0.235293
O18	O	-3.787983	0.519306	0.264707
O19	O	-4.645040	-0.337799	-0.238311
O20	O	-4.145040	0.162201	0.261689
O21	O	-4.597839	-0.160927	-0.348644
O22	O	-4.097839	0.339073	0.151356
O23	O	-4.334858	-0.156350	-0.125719
O24	O	-3.834858	0.343650	0.374281
C25	C	-3.835182	-0.390499	-0.241768
C26	C	-3.335182	0.109501	0.258232
C27	C	-3.897933	-0.531783	-0.241104
C28	C	-3.397933	-0.031783	0.258896
C29	C	-3.775386	-0.166430	-0.381540
C30	C	-3.275386	0.333570	0.118460
C31	C	-3.800119	-0.165257	-0.469735
C32	C	-3.300119	0.334743	0.030265
C33	C	-4.109728	-0.604627	-0.244750
C34	C	-3.609728	-0.104627	0.255250
C35	C	-4.168680	-0.737379	-0.244132
C36	C	-3.668680	-0.237379	0.255868
C37	C	-3.804019	-0.724430	-0.236219
C38	C	-3.304019	-0.224430	0.263781
C39	C	-3.745073	-0.591682	-0.236842
C40	C	-3.245073	-0.091682	0.263158
C41	C	-3.994021	-0.171050	-0.515211
C42	C	-3.494021	0.328950	-0.015211
C43	C	-4.017249	-0.169946	-0.598079
C44	C	-3.517249	0.330054	-0.098079
C45	C	-3.846575	-0.163058	-0.635471
C46	C	-3.346575	0.336942	-0.135471
C47	C	-3.652655	-0.157261	-0.589988
C48	C	-3.152655	0.342739	-0.089988
C49	C	-3.629426	-0.158356	-0.507121
C50	C	-3.129426	0.341644	-0.007121
C51	C	-3.896497	-0.159097	-0.882874
C52	C	-3.396497	0.340903	-0.382874
C53	C	-3.919744	-0.158006	-0.965748
C54	C	-3.419744	0.341994	-0.465748
C55	C	-4.284335	-0.170689	-0.973832
C56	C	-3.784335	0.329311	-0.473832
C57	C	-4.261092	-0.171790	-0.890964
C58	C	-3.761092	0.328210	-0.390964
C59	C	-4.067172	-0.165986	-0.845488
C60	C	-3.567172	0.334014	-0.345488
N61	N	-3.870315	-0.161934	-0.720175
N62	N	-3.370315	0.338066	-0.220175
N63	N	-4.043431	-0.167101	-0.760784
N64	N	-3.543431	0.332899	-0.260784
C65	C	-4.099346	0.061434	-0.239193
C66	C	-3.599346	0.561434	0.260807
C67	C	-4.015832	0.202717	-0.239863
C68	C	-3.515832	0.702717	0.260137
C69	C	-4.159142	-0.162632	-0.099419
C70	C	-3.659142	0.337368	0.400581
C71	C	-4.113646	-0.163799	-0.011224
C72	C	-3.613646	0.336201	0.488776
H73	H	-4.234200	-0.555861	-0.248219
H74	H	-3.734200	-0.055861	0.251781
F75	F	-3.738079	-0.150676	-1.005541
F76	F	-3.238079	0.349324	-0.505541
H77	H	-3.513688	-0.151646	-0.620438
H78	H	-3.013688	0.348354	-0.120438
H79	H	-3.738621	-0.154416	-0.845862
H80	H	-3.238621	0.345584	-0.345862
H81	H	-3.572599	-0.532371	-0.233876
H82	H	-3.072599	-0.032371	0.266124
F83	F	-3.423045	-0.152181	-0.458721
F84	F	-2.923045	0.347819	0.041279
F85	F	-4.394098	-0.814900	-0.248015
F86	F	-3.894098	-0.314900	0.251985
H87	H	-3.679574	-0.773216	-0.232747
H88	H	-3.179574	-0.273216	0.267253
H89	H	-4.133011	-0.176666	-0.484774
H90	H	-3.633011	0.323334	0.015226
H91	H	-4.175138	-0.174656	-0.635101
H92	H	-3.675138	0.325344	-0.135101
F93	F	-4.442752	-0.179125	-0.851175
F94	F	-3.942752	0.320875	-0.351175
H95	H	-4.442218	-0.175412	-1.010867
H96	H	-3.942218	0.324588	-0.510867
