data_functionalizedCrystal
_audit_creation_method	'MofGen! by Chris Wilmer'
_symmetry_space_group_name_H-M	'P1'
_symmetry_Int_Tables_number	1
_symmetry_cell_setting	triclinic
loop_
_symmetry_equiv_pos_as_xyz
  x,y,z
_cell_length_a	23.532407
_cell_length_b	9.065218
_cell_length_c	7.540329
_cell_angle_alpha	90.001757
_cell_angle_beta	90.002386
_cell_angle_gamma	96.067719
loop_
_atom_site_label
_atom_site_type_symbol
_atom_site_fract_x
_atom_site_fract_y
_atom_site_fract_z
O1	O	0.756573	-0.179072	-0.147254
O2	O	1.256573	0.320928	0.352746
O3	O	0.590900	-0.204983	-0.147305
O4	O	1.090900	0.295017	0.352695
O5	O	0.677161	0.022784	-0.147275
O6	O	1.177161	0.522784	0.352725
O7	O	0.670312	-0.406838	-0.147285
O8	O	1.170312	0.093162	0.352715
O9	O	0.677156	0.022786	0.147690
O10	O	1.177156	0.522786	0.647690
O11	O	0.590895	-0.204980	0.147660
O12	O	1.090895	0.295020	0.647660
O13	O	0.756568	-0.179069	0.147711
O14	O	1.256568	0.320931	0.647711
Cu15	Cu	0.673731	-0.192024	0.174618
Cu16	Cu	1.173731	0.307976	0.674618
Cu17	Cu	0.673737	-0.192028	-0.174213
Cu18	Cu	1.173737	0.307972	0.325787
O19	O	0.670307	-0.406836	0.147680
O20	O	1.170307	0.093164	0.647680
C21	C	0.569676	-0.204321	0.000170
C22	C	1.069676	0.295679	0.500170
C23	C	0.506445	-0.202338	0.000151
C24	C	1.006445	0.297662	0.500151
C25	C	0.676500	0.077739	0.000204
C26	C	1.176500	0.577739	0.500204
C27	C	0.674532	0.241485	0.000195
C28	C	1.174532	0.741485	0.500195
N29	N	0.673731	-0.192021	0.419966
N30	N	1.173731	0.307979	0.919966
C31	C	0.108240	-0.324683	0.000228
C32	C	0.608240	0.175317	0.500228
C33	C	0.048826	-0.322840	0.000239
C34	C	0.548826	0.177160	0.500239
O35	O	0.012914	-0.436255	0.000301
O36	O	0.512914	0.063745	0.500301
N37	N	0.025206	-0.187433	0.000239
N38	N	0.525206	0.312567	0.500239
C39	C	0.061003	-0.053860	0.000247
C40	C	0.561003	0.446140	0.500247
O41	O	0.035456	0.061484	0.000249
O42	O	0.535456	0.561484	0.500249
C43	C	0.120415	-0.055704	0.000248
C44	C	0.620415	0.444296	0.500248
C45	C	0.144032	-0.191120	0.000230
C46	C	0.644032	0.308880	0.500230
C47	C	0.131857	-0.460088	0.000212
C48	C	0.631857	0.039912	0.500212
C49	C	0.191267	-0.461930	0.000198
C50	C	0.691267	0.038070	0.500198
C51	C	0.227059	-0.328367	0.000200
C52	C	0.727059	0.171633	0.500200
C53	C	0.203442	-0.192962	0.000216
C54	C	0.703442	0.307038	0.500216
C55	C	0.156211	0.077867	0.000268
C56	C	0.656211	0.577867	0.500268
C57	C	0.215627	0.076011	0.000271
C58	C	0.715627	0.576011	0.500271
C59	C	0.239244	-0.059405	0.000253
C60	C	0.739244	0.440595	0.500253
C61	C	0.298644	-0.061242	0.000204
C62	C	0.798644	0.438758	0.500204
N63	N	0.322264	-0.196649	0.000204
N64	N	0.822264	0.303351	0.500204
C65	C	0.286472	-0.330211	0.000202
C66	C	0.786472	0.169789	0.500202
C67	C	-0.063768	-0.049997	0.000246
C68	C	0.436232	0.450003	0.500246
C69	C	-0.123180	-0.048151	0.000231
C70	C	0.376820	0.451849	0.500231
C71	C	-0.135352	-0.317131	0.000228
C72	C	0.364648	0.182869	0.500228
C73	C	-0.075939	-0.318976	0.000229
C74	C	0.424061	0.181024	0.500229
C75	C	-0.040148	-0.185404	0.000246
C76	C	0.459852	0.314596	0.500246
C77	C	0.411237	-0.334070	0.000171
C78	C	0.911237	0.165930	0.500171
C79	C	0.470653	-0.335900	0.000149
C80	C	0.970653	0.164100	0.500149
C81	C	0.482820	-0.066921	0.000162
C82	C	0.982820	0.433079	0.500162
C83	C	0.423410	-0.065089	0.000174
C84	C	0.923410	0.434911	0.500174
C85	C	0.387619	-0.198676	0.000185
C86	C	0.887619	0.301324	0.500185
O87	O	0.334591	0.052114	0.000149
O88	O	0.834591	0.552114	0.500149
O89	O	0.312027	-0.445536	0.000223
O90	O	0.812027	0.054464	0.500223
C91	C	0.777791	-0.179731	0.000231
C92	C	1.277791	0.320269	0.500231
C93	C	0.841023	-0.181714	0.000239
C94	C	1.341023	0.318286	0.500239
C95	C	0.670968	-0.461791	0.000197
C96	C	1.170968	0.038209	0.500197
C97	C	0.672936	-0.625537	0.000195
C98	C	1.172936	-0.125537	0.500195
N99	N	0.673742	-0.192019	-0.419561
N100	N	1.173742	0.307981	0.080439
H101	H	0.489878	-0.446177	0.000133
H102	H	0.989878	0.053823	0.500133
C103	C	0.254995	0.222955	0.000282
C104	C	0.754995	0.722955	0.500282
N105	N	0.284646	0.333633	0.000283
N106	N	0.784646	0.833633	0.500283
C107	C	0.397430	0.083874	0.000171
C108	C	0.897430	0.583874	0.500171
N109	N	0.377867	0.196076	0.000184
N110	N	0.877867	0.696076	0.500184
C111	C	0.092494	-0.607031	0.000217
C112	C	0.592494	-0.107031	0.500217
N113	N	0.062849	-0.717718	0.000210
N114	N	0.562849	-0.217718	0.500210
C115	C	-0.049967	-0.467942	0.000229
C116	C	0.450033	0.032058	0.500229
N117	N	-0.030407	-0.580150	0.000236
N118	N	0.469593	-0.080150	0.500236
C119	C	0.522202	0.079991	0.000185
C120	C	1.022202	0.579991	0.500185
N121	N	0.551867	0.190646	0.000221
N122	N	1.051867	0.690646	0.500221
H123	H	-0.164505	-0.425885	0.000234
H124	H	0.335495	0.074115	0.500234
C125	C	-0.149151	0.100817	0.000239
C126	C	0.350849	0.600817	0.500239
N127	N	-0.168710	0.213025	0.000260
N128	N	0.331290	0.713025	0.500260
H129	H	-0.034629	0.058781	0.000243
H130	H	0.465371	0.558781	0.500243
H131	H	0.210490	-0.572199	0.000183
H132	H	0.710490	-0.072199	0.500183
C133	C	0.371876	-0.481023	0.000172
C134	C	0.871876	0.018977	0.500172
N135	N	0.342229	-0.591708	0.000160
N136	N	0.842229	-0.091708	0.500160
H137	H	0.136993	0.188137	0.000284
H138	H	0.636993	0.688137	0.500284
