data_functionalizedCrystal
_audit_creation_method	'MofGen! by Chris Wilmer'
_symmetry_space_group_name_H-M	'P1'
_symmetry_Int_Tables_number	1
_symmetry_cell_setting	triclinic
loop_
_symmetry_equiv_pos_as_xyz
  x,y,z
_cell_length_a	18.050589
_cell_length_b	18.050591
_cell_length_c	18.050582
_cell_angle_alpha	89.979078
_cell_angle_beta	90.018205
_cell_angle_gamma	89.975773
loop_
_atom_site_label
_atom_site_type_symbol
_atom_site_fract_x
_atom_site_fract_y
_atom_site_fract_z
Zn1	Zn	-0.295786	-1.135293	0.420054
Zn2	Zn	-0.419969	-1.135203	0.295873
Zn3	Zn	-0.295789	-1.011112	0.295865
Zn4	Zn	-0.419930	-1.011060	0.420009
O5	O	-0.357868	-1.073167	0.357950
O6	O	-0.312274	-1.239205	0.403603
O7	O	-0.403514	-1.118727	0.191948
O8	O	-0.191864	-1.027644	0.312354
O9	O	-0.403511	-1.239140	0.312369
O10	O	-0.191862	-1.118879	0.403595
O11	O	-0.312279	-1.027557	0.191942
O12	O	-0.312241	-0.907180	0.312311
O13	O	-0.403444	-1.027555	0.523940
O14	O	-0.403447	-0.907142	0.403519
O15	O	-0.312236	-1.118828	0.523973
O16	O	-0.523888	-1.118676	0.312325
O17	O	-0.523860	-1.027468	0.403527
C18	C	-0.550820	-1.073077	0.357938
C19	C	-0.633366	-1.073107	0.357958
C20	C	-0.357841	-0.880215	0.357909
C21	C	-0.357847	-0.797669	0.357909
C22	C	-0.357835	-1.073196	0.551656
C23	C	-0.357821	-1.073208	0.634202
C24	C	-0.832828	-1.023557	0.407536
C25	C	-0.882261	-1.005459	0.339767
C26	C	-0.784497	-1.073180	0.357967
C27	C	-0.882146	-1.091314	0.425744
C28	C	-0.930482	-1.073249	0.357983
C29	C	-0.832842	-1.055046	0.290162
C30	C	-0.832722	-1.140933	0.376186
C31	C	-0.882133	-1.122861	0.308370
C32	C	-0.700398	-1.073138	0.357959
C33	C	-1.014578	-1.073291	0.357983
C34	C	-0.164163	-1.073277	0.357979
C35	C	-0.081617	-1.073324	0.357991
C36	C	-0.357897	-1.266872	0.357992
C37	C	-0.357909	-1.349418	0.358010
C38	C	-0.308191	-0.598217	0.308425
C39	C	-0.375927	-0.548798	0.290154
C40	C	-0.357869	-0.646539	0.357943
C41	C	-0.290157	-0.548877	0.376212
C42	C	-0.357885	-0.500553	0.357974
C43	C	-0.425641	-0.598206	0.339637
C44	C	-0.339825	-0.598289	0.425726
C45	C	-0.407607	-0.548892	0.407481
C46	C	-0.357859	-0.730637	0.357923
C47	C	-0.357903	-0.416457	0.357994
C48	C	-0.357848	-1.073181	0.164998
C49	C	-0.357652	-1.073312	0.082453
C50	C	-0.407353	-1.023612	0.833635
C51	C	-0.425511	-1.091367	0.883034
C52	C	-0.357765	-1.073245	0.785332
C53	C	-0.339586	-1.005527	0.883014
C54	C	-0.357711	-1.073274	0.931317
C55	C	-0.375958	-1.141036	0.833645
C56	C	-0.290002	-1.055150	0.833620
C57	C	-0.308134	-1.122952	0.882998
C58	C	-0.357797	-1.073227	0.701234
C59	C	-0.357679	-1.073300	1.015414
H60	H	-0.811178	-0.981531	0.449395
N61	N	-0.804284	-1.034673	0.214224
H62	H	-0.822639	-1.071930	0.176745
H63	H	-0.748335	-1.034740	0.214759
N64	N	-0.911078	-0.929604	0.319347
H65	H	-0.893146	-0.892126	0.356811
H66	H	-0.967023	-0.930377	0.319016
H67	H	-0.903645	-1.164855	0.266409
N68	N	-0.214151	-1.034829	0.804833
H69	H	-0.179794	-1.025126	0.847922
H70	H	-0.217969	-0.988803	0.773228
N71	N	-0.910831	-1.111600	0.501658
H72	H	-0.941579	-1.158204	0.498174
H73	H	-0.942403	-1.069830	0.521384
H74	H	-0.810948	-1.198184	0.391613
H75	H	-0.232894	-0.527169	0.391625
N76	N	-0.319232	-0.929656	0.911736
H77	H	-0.318888	-0.930344	0.967685
H78	H	-0.356757	-0.892237	0.893727
H79	H	-0.449342	-0.981678	0.811961
N80	N	-0.252603	-0.626915	0.252902
H81	H	-0.266341	-0.608910	0.201723
H82	H	-0.252682	-0.682861	0.253682
H83	H	-0.391202	-0.527060	0.232844
N84	N	-0.501525	-0.626780	0.319098
H85	H	-0.501046	-0.682732	0.319191
H86	H	-0.515228	-0.608285	0.268087
N87	N	-0.252564	-1.178626	0.911547
H88	H	-0.266374	-1.229745	0.893496
H89	H	-0.252577	-1.177957	0.967495
H90	H	-0.324530	-0.620045	0.483019
N91	N	-0.463321	-0.520378	0.462970
H92	H	-0.514430	-0.538419	0.449088
H93	H	-0.462656	-0.464431	0.462963
H94	H	-0.391377	-1.198333	0.812050
N95	N	-0.501384	-1.111671	0.911787
H96	H	-0.538829	-1.074140	0.893835
H97	H	-0.500613	-1.112017	0.967733
