data_functionalizedCrystal
_audit_creation_method	'MofGen! by Chris Wilmer'
_symmetry_space_group_name_H-M	'P1'
_symmetry_Int_Tables_number	1
_symmetry_cell_setting	triclinic
loop_
_symmetry_equiv_pos_as_xyz
  x,y,z
_cell_length_a	17.699104
_cell_length_b	17.699092
_cell_length_c	16.776229
_cell_angle_alpha	89.995030
_cell_angle_beta	90.008863
_cell_angle_gamma	96.711057
loop_
_atom_site_label
_atom_site_type_symbol
_atom_site_fract_x
_atom_site_fract_y
_atom_site_fract_z
O1	O	-1.004071	0.095788	-0.066317
O2	O	-0.783696	0.108224	-0.066311
O3	O	-0.900106	-0.008183	-0.066312
O4	O	-0.887661	0.212194	-0.066316
O5	O	-0.900091	-0.008190	0.066264
O6	O	-0.783680	0.108216	0.066265
O7	O	-1.004056	0.095781	0.066260
Zn8	Zn	-0.893866	0.101997	0.087312
Zn9	Zn	-0.893886	0.102007	-0.087363
O10	O	-0.887645	0.212187	0.066261
C11	C	-0.755491	0.107772	-0.000022
C12	C	-0.671474	0.106427	-0.000020
C13	C	-0.899652	-0.036383	-0.000025
C14	C	-0.898311	-0.120401	-0.000029
C15	C	-0.146605	0.167170	-0.000021
C16	C	-0.225548	0.168430	-0.000025
C17	C	-0.274164	0.100095	-0.000024
C18	C	-0.243832	0.030496	-0.000028
C19	C	-0.164890	0.029238	-0.000031
C20	C	-0.562198	0.035569	-0.000021
C21	C	-0.641145	0.036833	-0.000016
C22	C	-0.622857	0.174761	-0.000015
C23	C	-0.543915	0.173503	-0.000017
C24	C	-0.513590	0.103905	-0.000025
C25	C	-0.427990	0.102540	-0.000023
C26	C	-0.359762	0.101458	-0.000021
C27	C	-0.897691	-0.159865	-0.072297
C28	C	-0.896426	-0.238808	-0.072298
C29	C	-0.895786	-0.278286	-0.000030
C30	C	-0.896404	-0.238817	0.072244
C31	C	-0.897663	-0.159875	0.072244
C32	C	-0.891324	-0.557182	0.072245
C33	C	-0.890066	-0.636131	0.072240
C34	C	-0.890086	-0.636115	-0.072297
C35	C	-0.891345	-0.557173	-0.072297
C36	C	-0.891959	-0.517710	-0.000023
C37	C	-0.893329	-0.432111	-0.000023
C38	C	-0.894421	-0.363885	-0.000029
C39	C	-0.032260	0.096232	-0.000027
C40	C	-0.116278	0.097577	-0.000023
C41	C	-0.888100	0.240387	-0.000028
C42	C	-0.889441	0.324405	-0.000029
N43	N	-0.893857	0.101990	0.206523
N44	N	-0.893900	0.102008	-0.206575
C45	C	-0.945420	0.050467	0.248240
C46	C	-0.945424	0.050466	0.331692
C47	C	-0.893869	0.101993	0.373426
C48	C	-0.842301	0.153519	0.331704
C49	C	-0.842294	0.153516	0.248253
C50	C	-0.842328	0.153534	0.668251
C51	C	-0.842341	0.153535	0.751707
C52	C	-0.945458	0.050485	0.751690
C53	C	-0.945451	0.050481	0.668239
C54	C	-0.893881	0.102004	0.626524
C55	C	-0.893876	0.102003	0.536036
C56	C	-0.893877	0.101998	0.463913
H57	H	-0.107027	0.222817	-0.000016
F58	F	-0.295574	-0.042231	-0.000030
H59	H	-0.140199	-0.027432	-0.000033
F60	F	-1.000342	-0.004354	0.796092
H61	H	-0.891870	-0.525034	-0.131145
H62	H	-0.898216	-0.127727	-0.131147
F63	F	-1.000296	-0.004373	0.203831
F64	F	-0.895767	-0.280804	-0.149216
F65	F	-0.889430	-0.678121	-0.149218
H66	H	-0.987409	0.008511	0.365657
F67	F	-0.257821	0.242500	-0.000027
F68	F	-0.895715	-0.280834	0.149158
F69	F	-0.889384	-0.678145	0.149161
F70	F	-0.891967	-0.515192	0.149165
F71	F	-1.000325	-0.004358	0.623826
F72	F	-0.787446	0.208370	0.623861
H73	H	-0.800305	0.195471	0.214288
F74	F	-0.898322	-0.117875	0.149162
F75	F	-0.787465	0.208380	0.796123
F76	F	-0.492178	0.246234	-0.000015
H77	H	-0.647557	0.231431	-0.000012
F78	F	-0.692885	-0.035902	-0.000016
H79	H	-0.800320	0.195471	0.365688
F80	F	-0.529934	-0.038503	-0.000044
