data_functionalizedCrystal
_audit_creation_method	'MofGen! by Chris Wilmer'
_symmetry_space_group_name_H-M	'P1'
_symmetry_Int_Tables_number	1
_symmetry_cell_setting	triclinic
loop_
_symmetry_equiv_pos_as_xyz
  x,y,z
_cell_length_a	14.044220
_cell_length_b	14.044190
_cell_length_c	9.130307
_cell_angle_alpha	89.995540
_cell_angle_beta	90.001362
_cell_angle_gamma	93.190328
loop_
_atom_site_label
_atom_site_type_symbol
_atom_site_fract_x
_atom_site_fract_y
_atom_site_fract_z
O1	O	-1.277172	-0.230161	0.121673
O2	O	-1.000500	-0.221856	0.121709
O3	O	-1.134680	-0.087672	0.121663
O4	O	-1.142993	-0.364345	0.121720
O5	O	-1.134670	-0.087681	-0.121936
O6	O	-1.000491	-0.221864	-0.121890
O7	O	-1.277162	-0.230170	-0.121926
Cu8	Cu	-1.138826	-0.226018	-0.144150
Cu9	Cu	-1.138837	-0.226008	0.143934
O10	O	-1.142983	-0.364353	-0.121879
C11	C	-0.964874	-0.218224	-0.000086
C12	C	-0.858731	-0.207380	-0.000073
C13	C	-1.312789	-0.233801	-0.000127
C14	C	-1.418932	-0.244646	-0.000130
C15	C	-1.131039	-0.052054	-0.000140
C16	C	-1.120191	0.054089	-0.000152
C17	C	-0.664392	-0.187553	-0.000106
C18	C	-0.613264	-0.264468	-0.000097
C19	C	-0.505128	-0.253436	-0.000115
C20	C	-0.772539	-0.198583	-0.000088
C21	C	-1.146624	-0.399971	-0.000073
C22	C	-1.157472	-0.506114	-0.000052
C23	C	-1.177292	0.299547	-0.000102
C24	C	-1.100375	0.248422	-0.000102
C25	C	-1.111404	0.140285	-0.000130
C26	C	-1.166265	0.407694	-0.000074
N27	N	-1.138824	-0.226025	-0.346773
C28	C	-1.013258	-0.100316	-0.653442
C29	C	-0.950454	-0.037489	-0.576775
C30	C	-0.950438	-0.037505	-0.423441
C31	C	-1.013234	-0.100354	-0.346772
C32	C	-1.076037	-0.163181	-0.423439
C33	C	-1.076045	-0.163160	-0.576776
C34	C	-1.201628	-0.288852	-0.423440
C35	C	-1.201641	-0.288842	-0.576774
C36	C	-1.264424	-0.351701	-0.346771
C37	C	-1.327224	-0.414534	-0.423438
C38	C	-1.327237	-0.414516	-0.576781
C39	C	-1.264445	-0.351669	-0.653441
N40	N	-1.138845	-0.225994	0.346557
H41	H	-0.650706	-0.338602	-0.000075
H42	H	-1.251418	0.262106	-0.000126
Cl43	Cl	-1.013263	-0.100302	-0.846205
Cl44	Cl	-0.606589	-0.073103	-0.000132
Cl45	Cl	-0.871515	0.041516	-0.673165
H46	H	-1.026243	0.285865	-0.000084
Cl47	Cl	-0.871496	0.041489	-0.327055
Cl48	Cl	-1.013225	-0.100358	-0.154008
Cl49	Cl	-1.264410	-0.351715	-0.154007
Cl50	Cl	-1.406164	-0.493529	-0.327048
H51	H	-1.378383	-0.465675	-0.639194
H52	H	-1.264447	-0.351651	-0.778293
