data_functionalizedCrystal
_audit_creation_method	'MofGen! by Chris Wilmer'
_symmetry_space_group_name_H-M	'P1'
_symmetry_Int_Tables_number	1
_symmetry_cell_setting	triclinic
loop_
_symmetry_equiv_pos_as_xyz
  x,y,z
_cell_length_a	16.959455
_cell_length_b	12.594516
_cell_length_c	16.959447
_cell_angle_alpha	89.974854
_cell_angle_beta	89.979626
_cell_angle_gamma	90.013073
loop_
_atom_site_label
_atom_site_type_symbol
_atom_site_fract_x
_atom_site_fract_y
_atom_site_fract_z
Zn1	Zn	1.208406	-0.423806	-0.447065
Zn2	Zn	1.208338	-0.601813	-0.314898
Zn3	Zn	1.076234	-0.423839	-0.314888
Zn4	Zn	1.076208	-0.601733	-0.447023
O5	O	1.142297	-0.512798	-0.380968
O6	O	1.319008	-0.447438	-0.429554
O7	O	1.190796	-0.578251	-0.204286
O8	O	1.093807	-0.274889	-0.332435
O9	O	1.318958	-0.578219	-0.332452
O10	O	1.190913	-0.274864	-0.429545
O11	O	1.093741	-0.447495	-0.204279
O12	O	0.965620	-0.447418	-0.332395
O13	O	1.093762	-0.578084	-0.557639
O14	O	0.965601	-0.578116	-0.429473
O15	O	1.190887	-0.447361	-0.557670
O16	O	1.190771	-0.750748	-0.332411
O17	O	1.093696	-0.750690	-0.429483
C18	C	0.936930	-0.512763	-0.380929
C19	C	0.849074	-0.512774	-0.380930
C20	C	0.477561	-0.580828	-0.330382
C21	C	0.477635	-0.444856	-0.431652
C22	C	0.560181	-0.444838	-0.431632
C23	C	0.601421	-0.512818	-0.380988
C24	C	0.560115	-0.580815	-0.330362
C25	C	0.601493	-0.376850	-0.482263
C26	C	0.684044	-0.376831	-0.482246
C27	C	0.725285	-0.444806	-0.431597
C28	C	0.683974	-0.512805	-0.380969
C29	C	0.725214	-0.580784	-0.330324
C30	C	0.683905	-0.648778	-0.279691
C31	C	0.601356	-0.648790	-0.279713
C32	C	0.807834	-0.444794	-0.431575
C33	C	0.807768	-0.580771	-0.330305
C34	C	1.142245	-0.789339	-0.380961
C35	C	1.142295	-0.907644	-0.380984
C36	C	1.089491	-0.976904	-0.433744
C37	C	1.070239	-1.047766	-0.361616
C38	C	1.161619	-1.047581	-0.453124
C39	C	1.123005	-0.976948	-0.308818
C40	C	1.214418	-0.976756	-0.400374
C41	C	1.195194	-1.047587	-0.328197
C42	C	1.348465	-0.512833	-0.381009
C43	C	1.436321	-0.512849	-0.381026
C44	C	1.142329	-0.512710	-0.587137
C45	C	1.142343	-0.512672	-0.674993
C46	C	1.142370	-0.235177	-0.380994
C47	C	1.142401	-0.116871	-0.381004
C48	C	1.091869	-0.580621	-1.046456
C49	C	1.193007	-0.444499	-1.046483
C50	C	1.192985	-0.444521	-0.963937
C51	C	1.142406	-0.512596	-0.922647
C52	C	1.091848	-0.580648	-0.963902
C53	C	1.243548	-0.376478	-0.922675
C54	C	1.243530	-0.376499	-0.840124
C55	C	1.192946	-0.444569	-0.798832
C56	C	1.142385	-0.512623	-0.840093
C57	C	1.091806	-0.580697	-0.798803
C58	C	1.041241	-0.648747	-0.840062
C59	C	1.041265	-0.648718	-0.922610
C60	C	1.192923	-0.444597	-0.716284
C61	C	1.091785	-0.580724	-0.716249
C62	C	1.142309	-0.512809	-0.175602
C63	C	1.142448	-0.512546	-0.087746
H64	H	0.717493	-0.704133	-0.238461
H65	H	1.050590	-0.636150	-0.682636
C66	C	1.029779	-0.935718	-0.493161
C67	C	0.992208	-1.021645	-0.529634
C68	C	0.937189	-0.983744	-0.584360
H69	H	1.056015	-0.894172	-0.531877
H70	H	0.991694	-0.893278	-0.466820
H71	H	1.030287	-1.064067	-0.555974
H72	H	0.965956	-1.063199	-0.490938
H73	H	0.899104	-0.941304	-0.558020
H74	H	0.963432	-0.942198	-0.623071
H75	H	0.911685	-1.042039	-0.609109
C76	C	0.986421	-0.722773	-0.967307
C77	C	1.003587	-0.828092	-0.947198
C78	C	0.953078	-0.896340	-0.988354
H79	H	0.993633	-0.713152	-1.022395
H80	H	0.933298	-0.707257	-0.953765
H81	H	1.056697	-0.843602	-0.960746
H82	H	0.996370	-0.837746	-0.892118
H83	H	0.899954	-0.880824	-0.974811
H84	H	0.960294	-0.886710	-1.043440
H85	H	0.964712	-0.967806	-0.974710
H86	H	0.717671	-0.321465	-0.523474
C87	C	0.556363	-0.722572	-0.224836
C88	C	0.475245	-0.708055	-0.235712
C89	C	0.433770	-0.776016	-0.185182
H90	H	0.569762	-0.706974	-0.171710
H91	H	0.569848	-0.794127	-0.236320
H92	H	0.461765	-0.636517	-0.224222
H93	H	0.461823	-0.723660	-0.288827
H94	H	0.447255	-0.847570	-0.196667
H95	H	0.447175	-0.760412	-0.132059
H96	H	0.378727	-0.766182	-0.192560
C97	C	0.989041	-1.089571	-0.339727
C98	C	0.990375	-1.200724	-0.339316
C99	C	0.915591	-1.239266	-0.319152
H100	H	0.951475	-1.065490	-0.377216
H101	H	0.974979	-1.064408	-0.288828
H102	H	1.004427	-1.225876	-0.390208
H103	H	1.027924	-1.224833	-0.301826
H104	H	0.901529	-1.214104	-0.268252
H105	H	0.878032	-1.215179	-0.356643
H106	H	0.916488	-1.314687	-0.318863
C107	C	0.556577	-0.303087	-0.537157
C108	C	0.475443	-0.317628	-0.526317
C109	C	0.434038	-0.249680	-0.576864
H110	H	0.570034	-0.318681	-0.590277
H111	H	0.570061	-0.231528	-0.525667
H112	H	0.461964	-0.389171	-0.537812
H113	H	0.461962	-0.302026	-0.473207
H114	H	0.447522	-0.178122	-0.565374
H115	H	0.447501	-0.265280	-0.629981
H116	H	0.378985	-0.259530	-0.569511
H117	H	0.841464	-0.389437	-0.472801
H118	H	0.443924	-0.636184	-0.289156
H119	H	0.444052	-0.389516	-0.472889
H120	H	0.841340	-0.636125	-0.289061
H121	H	1.000063	-0.704178	-0.806432
C122	C	1.101146	-0.935551	-0.227523
C123	C	1.101292	-0.824389	-0.228475
C124	C	1.081147	-0.786216	-0.153606
H125	H	1.138426	-0.960204	-0.189955
H126	H	1.050089	-0.960398	-0.213665
H127	H	1.152342	-0.799553	-0.242324
H128	H	1.064012	-0.799708	-0.266028
H129	H	1.030090	-0.811062	-0.139748
H130	H	1.118429	-0.810876	-0.116044
H131	H	1.081236	-0.710789	-0.154244
C132	C	1.254693	-1.088662	-0.268526
C133	C	1.234152	-1.052702	-0.193163
C134	C	1.288934	-1.090533	-0.138172
H135	H	1.305766	-1.063297	-0.281751
H136	H	1.254703	-1.164092	-0.269113
H137	H	1.234150	-0.977288	-0.192579
H138	H	1.183088	-1.078064	-0.179914
H139	H	1.288944	-1.165963	-0.138758
H140	H	1.340004	-1.065165	-0.151404
H141	H	1.275001	-1.066148	-0.087031
H142	H	1.050698	-0.636022	-1.080052
H143	H	1.234190	-0.389081	-1.080106
H144	H	1.275348	-0.945545	-0.416793
C145	C	1.183412	-1.088744	-0.534502
C146	C	1.196215	-1.002801	-0.585316
C147	C	1.216296	-1.040674	-0.660286
H148	H	1.141674	-1.131318	-0.554373
H149	H	1.230102	-1.130148	-0.531018
H150	H	1.149531	-0.961413	-0.588802
H151	H	1.237956	-0.960218	-0.565471
H152	H	1.262985	-1.082079	-0.656802
H153	H	1.174555	-1.083248	-0.680149
H154	H	1.224992	-0.982368	-0.694770
H155	H	1.284732	-0.321062	-0.956300
C156	C	1.298451	-0.302496	-0.795475
C157	C	1.342736	-0.242857	-0.849305
C158	C	1.393328	-0.174662	-0.808202
H159	H	1.332942	-0.343104	-0.763263
H160	H	1.268233	-0.256066	-0.763297
H161	H	1.372952	-0.289281	-0.881469
H162	H	1.308266	-0.202227	-0.881518
H163	H	1.363109	-0.128232	-0.776024
H164	H	1.427813	-0.215279	-0.775992
H165	H	1.423375	-0.134182	-0.844719
C166	C	1.247788	-0.370844	-0.671346
C167	C	1.236957	-0.385452	-0.590215
C168	C	1.287496	-0.317535	-0.548795
H169	H	1.236299	-0.299277	-0.684789
H170	H	1.300912	-0.386446	-0.684831
H171	H	1.183845	-0.369843	-0.576736
H172	H	1.248451	-0.457004	-0.576749
H173	H	1.340620	-0.333137	-0.562280
H174	H	1.276003	-0.245973	-0.562245
H175	H	1.280159	-0.327444	-0.493744
