data_functionalizedCrystal
_audit_creation_method	'MofGen! by Chris Wilmer'
_symmetry_space_group_name_H-M	'P1'
_symmetry_Int_Tables_number	1
_symmetry_cell_setting	triclinic
loop_
_symmetry_equiv_pos_as_xyz
  x,y,z
_cell_length_a	19.077312
_cell_length_b	12.759400
_cell_length_c	19.076919
_cell_angle_alpha	87.725144
_cell_angle_beta	85.331053
_cell_angle_gamma	87.720637
loop_
_atom_site_label
_atom_site_type_symbol
_atom_site_fract_x
_atom_site_fract_y
_atom_site_fract_z
Zn1	Zn	1.061708	-0.503163	0.355285
Zn2	Zn	1.066381	-0.672067	0.237410
Zn3	Zn	0.948564	-0.489633	0.242152
Zn4	Zn	0.943813	-0.672024	0.359993
O5	O	1.005116	-0.584222	0.298710
O6	O	1.160974	-0.531249	0.335694
O7	O	1.054697	-0.642223	0.139391
O8	O	0.963605	-0.344410	0.257175
O9	O	1.164408	-0.655342	0.249091
O10	O	1.046731	-0.354350	0.340293
O11	O	0.968137	-0.508190	0.142876
O12	O	0.849287	-0.508148	0.261739
O13	O	0.955508	-0.655268	0.458016
O14	O	0.845797	-0.642149	0.348316
O15	O	1.042124	-0.531207	0.454558
O16	O	1.050090	-0.819080	0.253656
O17	O	0.960040	-0.819048	0.343717
C18	C	0.821964	-0.573676	0.306053
C19	C	0.743610	-0.569191	0.309211
C20	C	0.302366	-0.536939	0.331870
C21	C	0.375988	-0.541173	0.328899
C22	C	0.414581	-0.607783	0.282250
C23	C	0.379547	-0.670173	0.238576
C24	C	0.305926	-0.665944	0.241551
C25	C	0.634955	-0.627352	0.268512
C26	C	0.708581	-0.631573	0.265539
C27	C	0.705017	-0.502574	0.355863
C28	C	0.631395	-0.498347	0.358831
C29	C	0.596368	-0.560740	0.315159
N30	N	0.489835	-0.612110	0.279211
N31	N	0.521115	-0.556418	0.318203
C32	C	1.005075	-0.857186	0.298697
C33	C	1.005121	-0.973966	0.298712
C34	C	1.052058	-1.028816	0.251865
C35	C	1.052101	-1.138544	0.251885
C36	C	0.958262	-1.138562	0.345602
C37	C	0.958224	-1.028837	0.345584
C38	C	1.098955	-0.973945	0.204993
C39	C	1.145896	-1.028794	0.158142
C40	C	1.145938	-1.138522	0.158162
C41	C	1.099040	-1.193400	0.205033
C42	C	1.188984	-0.594809	0.291339
C43	C	1.267338	-0.599321	0.288197
C44	C	0.997765	-0.594742	0.482580
C45	C	0.994632	-0.599225	0.560935
C46	C	1.005176	-0.310194	0.298738
C47	C	1.005202	-0.193419	0.298750
C48	C	1.012480	-0.573669	0.115554
C49	C	1.015749	-0.568898	0.037194
C50	C	1.038254	-0.536742	0.595946
C51	C	1.035302	-0.540949	0.669569
C52	C	0.988730	-0.607646	0.708179
C53	C	0.945103	-0.670132	0.673162
C54	C	0.948052	-0.665918	0.599541
C55	C	0.975071	-0.627170	0.928556
C56	C	0.972127	-0.631382	1.002182
C57	C	1.062325	-0.502197	0.998584
C58	C	1.065273	-0.497994	0.924962
C59	C	1.021643	-0.560475	0.889952
N60	N	0.985713	-0.611951	0.783433
N61	N	1.024658	-0.556164	0.814699
H62	H	0.733544	-0.451779	0.391418
H63	H	1.076180	-0.482433	0.564516
O64	O	1.104802	-0.441615	1.032558
C65	C	1.223818	-0.398755	1.050257
C66	C	1.175797	-0.467456	1.011748
H67	H	1.281227	-0.419607	1.033435
H68	H	1.213773	-0.413226	1.109514
H69	H	1.211997	-0.312506	1.036294
H70	H	1.187589	-0.553729	1.025653
H71	H	1.185850	-0.452895	0.952500
H72	H	0.920080	-1.183253	0.383761
H73	H	1.184083	-0.984107	0.119985
H74	H	0.907181	-0.724434	0.704604
O75	O	0.905660	-0.726732	0.565637
C76	C	0.815872	-0.855290	0.576972
C77	C	0.863853	-0.786488	0.615454
H78	H	0.782048	-0.903604	0.617232
H79	H	0.849578	-0.910181	0.541227
H80	H	0.780431	-0.802956	0.543960
H81	H	0.899301	-0.838741	0.648504
H82	H	0.830104	-0.731590	0.651156
H83	H	1.099084	-1.282749	0.205051
O84	O	1.077751	-0.480221	0.703468
C85	C	1.167503	-0.351607	0.692131
C86	C	1.119479	-0.420346	0.653652
H87	H	1.201241	-0.303164	0.651873
H88	H	1.203016	-0.403891	0.725098
H89	H	1.133761	-0.296821	0.727918
H90	H	1.153165	-0.475142	0.617829
H91	H	1.083961	-0.367999	0.620729
O92	O	1.110433	-0.433029	0.887507
C93	C	1.145603	-0.254991	0.863706
C94	C	1.094402	-0.328449	0.906147
H95	H	1.132670	-0.170425	0.878772
H96	H	1.140228	-0.262596	0.805060
H97	H	1.201856	-0.277589	0.875903
H98	H	1.038128	-0.305899	0.894010
H99	H	1.099838	-0.320834	0.964781
H100	H	0.920004	-0.984178	0.383732
O101	O	0.926821	-0.696197	1.039583
C102	C	0.837695	-0.823929	1.035385
C103	C	0.888953	-0.750557	0.992944
H104	H	0.807075	-0.867915	0.997696
H105	H	0.799423	-0.775589	1.071320
H106	H	0.868679	-0.882658	1.068567
H107	H	0.858027	-0.691814	0.959722
H108	H	0.927224	-0.798965	0.957054
O109	O	0.264986	-0.472210	0.377247
C110	C	0.269230	-0.344671	0.466498
C111	C	0.311646	-0.417945	0.415148
H112	H	0.306937	-0.300762	0.497144
H113	H	0.233313	-0.393076	0.504740
H114	H	0.236034	-0.285871	0.435583
H115	H	0.344883	-0.476759	0.446004
H116	H	0.347518	-0.369472	0.376906
O117	O	1.191561	-1.191640	0.112589
C118	C	1.284658	-1.180037	0.019660
C119	C	1.233018	-1.119754	0.071227
H120	H	1.318199	-1.121945	-0.013784
H121	H	1.253851	-1.227474	-0.015969
H122	H	1.320187	-1.235339	0.050596
H123	H	1.197476	-1.064398	0.040348
H124	H	1.263868	-1.072386	0.106856
H125	H	0.599977	-0.444109	0.396819
O126	O	0.410040	-0.480726	0.371395
C127	C	0.489411	-0.477026	0.463205
C128	C	0.450879	-0.545609	0.415127
H129	H	0.522450	-0.529455	0.498564
H130	H	0.449208	-0.428712	0.497102
H131	H	0.525140	-0.422123	0.429500
H132	H	0.415151	-0.600572	0.448778
H133	H	0.491120	-0.593851	0.381227
O134	O	0.746040	-0.696443	0.220304
C135	C	0.769888	-0.874393	0.184955
C136	C	0.727431	-0.801057	0.236234
H137	H	0.754847	-0.958987	0.197806
H138	H	0.828530	-0.866780	0.190336
H139	H	0.757681	-0.851685	0.128721
H140	H	0.739578	-0.823717	0.292489
H141	H	0.668801	-0.808681	0.230791
O142	O	0.271786	-0.726503	0.199197
C143	C	0.159948	-0.777117	0.163723
C144	C	0.198520	-0.708488	0.211738
H145	H	0.100706	-0.762559	0.173835
H146	H	0.173870	-0.863415	0.175421
H147	H	0.176720	-0.756127	0.106323
H148	H	0.181769	-0.729386	0.269153
H149	H	0.184597	-0.622208	0.199979
O150	O	0.932622	-0.687704	0.894517
C151	C	0.840807	-0.691583	0.815167
C152	C	0.888827	-0.622904	0.853694
H153	H	0.805396	-0.639221	0.782140
H154	H	0.806962	-0.739960	0.855372
H155	H	0.874553	-0.746427	0.779425
H156	H	0.855135	-0.567999	0.889435
H157	H	0.922675	-0.574598	0.813450
O158	O	0.600904	-0.688072	0.226190
C159	C	0.518126	-0.824544	0.219893
C160	C	0.556656	-0.755857	0.267908
H161	H	0.482332	-0.879349	0.253603
H162	H	0.558329	-0.872947	0.186057
H163	H	0.485156	-0.772122	0.184465
H164	H	0.589626	-0.808200	0.303379
H165	H	0.516417	-0.707446	0.301696
O166	O	0.417001	-0.735034	0.193340
C167	C	0.440835	-0.912980	0.157977
C168	C	0.398387	-0.839648	0.209264
H169	H	0.425791	-0.997574	0.170823
H170	H	0.499479	-0.905377	0.163353
H171	H	0.428625	-0.890261	0.101745
H172	H	0.410538	-0.862319	0.265516
H173	H	0.339755	-0.847262	0.203826
H174	H	1.098924	-0.884599	0.204970
