data_functionalizedCrystal
_audit_creation_method	'MofGen! by Chris Wilmer'
_symmetry_space_group_name_H-M	'P1'
_symmetry_Int_Tables_number	1
_symmetry_cell_setting	triclinic
loop_
_symmetry_equiv_pos_as_xyz
  x,y,z
_cell_length_a	14.908571
_cell_length_b	16.959447
_cell_length_c	14.908520
_cell_angle_alpha	93.266084
_cell_angle_beta	90.205961
_cell_angle_gamma	86.691780
loop_
_atom_site_label
_atom_site_type_symbol
_atom_site_fract_x
_atom_site_fract_y
_atom_site_fract_z
Zn1	Zn	1.353918	-0.537362	-0.437386
Zn2	Zn	1.345146	-0.412339	-0.587755
Zn3	Zn	1.203565	-0.397172	-0.428733
Zn4	Zn	1.194846	-0.536448	-0.579010
O5	O	1.274369	-0.470830	-0.508221
O6	O	1.478579	-0.527507	-0.464614
O7	O	1.326343	-0.299717	-0.566700
O8	O	1.230830	-0.409803	-0.304059
O9	O	1.472134	-0.435653	-0.575090
O10	O	1.341294	-0.512800	-0.310416
O11	O	1.222324	-0.288573	-0.449866
O12	O	1.076585	-0.408917	-0.441386
O13	O	1.215970	-0.647179	-0.560184
O14	O	1.070179	-0.511243	-0.551794
O15	O	1.332840	-0.647850	-0.456134
O16	O	1.317888	-0.434768	-0.712417
O17	O	1.207464	-0.525950	-0.705992
C18	C	1.040757	-0.458335	-0.494703
C19	C	0.940815	-0.453010	-0.488942
C20	C	0.746382	-0.549427	-0.593261
C21	C	0.652478	-0.544426	-0.587851
C22	C	0.659101	-0.438011	-0.472706
C23	C	0.753005	-0.443012	-0.478116
C24	C	0.796642	-0.498721	-0.538397
C25	C	0.890548	-0.503718	-0.543812
C26	C	0.897170	-0.397307	-0.428663
C27	C	0.803266	-0.392306	-0.423252
C28	C	1.274411	-0.676997	-0.508149
C29	C	1.274429	-0.764853	-0.508118
C30	C	1.213693	-1.135983	-0.562204
C31	C	1.335390	-1.136677	-0.453855
C32	C	1.335365	-1.054131	-0.453873
C33	C	1.274504	-1.012507	-0.508058
C34	C	1.213668	-1.053429	-0.562225
C35	C	1.396206	-1.013203	-0.399713
C36	C	1.396184	-0.930651	-0.399729
C37	C	1.335318	-0.889025	-0.453910
C38	C	1.274479	-0.929953	-0.508079
C39	C	1.213617	-0.888329	-0.562264
C40	C	1.152773	-0.929254	-0.616429
C41	C	1.152801	-1.011803	-0.616406
C42	C	1.335290	-0.806477	-0.453933
C43	C	1.213592	-0.805775	-0.562285
C44	C	1.508893	-0.483374	-0.521793
C45	C	1.608834	-0.488719	-0.527576
C46	C	1.260802	-0.481924	-0.741830
C47	C	1.255081	-0.486701	-0.841773
C48	C	1.274383	-0.265465	-0.508231
C49	C	1.274554	-0.177607	-0.508019
C50	C	1.359432	-0.400817	-1.036214
C51	C	1.354059	-0.405303	-1.130120
C52	C	1.238967	-0.500163	-1.123494
C53	C	1.244340	-0.495677	-1.029587
C54	C	1.304574	-0.446001	-0.985951
C55	C	1.309941	-0.441512	-0.892043
C56	C	1.194854	-0.536375	-0.885418
C57	C	1.189481	-0.540861	-0.979324
C58	C	1.288013	-0.459711	-0.273702
C59	C	1.293828	-0.454973	-0.173763
H60	H	0.781912	-0.594784	-0.642349
H61	H	0.938102	-0.356017	-0.383990
F62	F	0.598990	-0.598396	-0.646243
H63	H	1.398733	-0.368511	-1.171041
F64	F	1.423525	-0.347939	-0.989771
H65	H	1.103224	-0.895354	-0.660550
H66	H	0.767723	-0.346952	-0.374171
H67	H	0.926076	-0.549078	-0.592897
F68	F	0.612645	-0.378737	-0.408545
F69	F	1.148810	-0.761482	-0.619953
H70	H	1.103268	-1.045132	-0.660507
H71	H	1.164152	-1.169308	-0.606301
H72	H	1.189933	-0.540611	-1.159039
H73	H	1.384945	-1.170572	-0.409745
F74	F	1.460980	-1.057506	-0.342056
H75	H	1.445727	-0.897337	-0.355625
H76	H	1.140443	-0.581307	-1.014866
F77	F	1.136456	-0.584458	-0.831917
H78	H	1.384831	-0.773159	-0.409836
F79	F	1.374043	-0.388640	-0.845603
