data_functionalizedCrystal
_audit_creation_method	'MofGen! by Chris Wilmer'
_symmetry_space_group_name_H-M	'P1'
_symmetry_Int_Tables_number	1
_symmetry_cell_setting	triclinic
loop_
_symmetry_equiv_pos_as_xyz
  x,y,z
_cell_length_a	19.805407
_cell_length_b	19.805405
_cell_length_c	19.805398
_cell_angle_alpha	89.972363
_cell_angle_beta	89.984135
_cell_angle_gamma	90.026410
loop_
_atom_site_label
_atom_site_type_symbol
_atom_site_fract_x
_atom_site_fract_y
_atom_site_fract_z
Zn1	Zn	1.034711	-0.269490	-0.382712
Zn2	Zn	1.284711	-0.019490	-0.132712
Zn3	Zn	1.534711	0.230510	0.117288
Zn4	Zn	1.784711	0.480510	0.367288
Zn5	Zn	1.034633	-0.382675	-0.269520
Zn6	Zn	1.284633	-0.132675	-0.019520
Zn7	Zn	1.534633	0.117325	0.230480
Zn8	Zn	1.784633	0.367325	0.480480
Zn9	Zn	0.921533	-0.269505	-0.269536
Zn10	Zn	1.171533	-0.019505	-0.019536
Zn11	Zn	1.421533	0.230495	0.230464
Zn12	Zn	1.671533	0.480495	0.480464
Zn13	Zn	0.921489	-0.382642	-0.382667
Zn14	Zn	1.171489	-0.132642	-0.132667
Zn15	Zn	1.421489	0.117358	0.117333
Zn16	Zn	1.671489	0.367358	0.367333
O17	O	0.978091	-0.326078	-0.326109
O18	O	1.228091	-0.076078	-0.076109
O19	O	1.478091	0.173922	0.173891
O20	O	1.728091	0.423922	0.423891
O21	O	1.129417	-0.284511	-0.367708
O22	O	1.379417	-0.034511	-0.117708
O23	O	1.629417	0.215489	0.132292
O24	O	1.879417	0.465489	0.382292
O25	O	1.019616	-0.367683	-0.174805
O26	O	1.269616	-0.117683	0.075195
O27	O	1.519616	0.132317	0.325195
O28	O	1.769616	0.382317	0.575195
O29	O	0.936597	-0.174787	-0.284575
O30	O	1.186597	0.075213	-0.034575
O31	O	1.436597	0.325213	0.215425
O32	O	1.686597	0.575213	0.465425
O33	O	1.129360	-0.367668	-0.284547
O34	O	1.379360	-0.117668	-0.034547
O35	O	1.629360	0.132332	0.215453
O36	O	1.879360	0.382332	0.465453
O37	O	1.019748	-0.174775	-0.367724
O38	O	1.269748	0.075225	-0.117724
O39	O	1.519748	0.325225	0.132276
O40	O	1.769748	0.575225	0.382276
O41	O	0.936522	-0.284538	-0.174817
O42	O	1.186522	-0.034538	0.075183
O43	O	1.436522	0.215462	0.325183
O44	O	1.686522	0.465462	0.575183
O45	O	0.826810	-0.284506	-0.284531
O46	O	1.076810	-0.034506	-0.034531
O47	O	1.326810	0.215494	0.215469
O48	O	1.576810	0.465494	0.465469
O49	O	0.936522	-0.367612	-0.477389
O50	O	1.186522	-0.117612	-0.227389
O51	O	1.436522	0.132388	0.022611
O52	O	1.686522	0.382388	0.272611
O53	O	0.826778	-0.367627	-0.367648
O54	O	1.076778	-0.117627	-0.117648
O55	O	1.326778	0.132373	0.132352
O56	O	1.576778	0.382373	0.382352
O57	O	1.019706	-0.284480	-0.477422
O58	O	1.269706	-0.034480	-0.227422
O59	O	1.519706	0.215520	0.022578
O60	O	1.769706	0.465520	0.272578
O61	O	1.019573	-0.477387	-0.284503
O62	O	1.269573	-0.227387	-0.034503
O63	O	1.519573	0.022613	0.215497
O64	O	1.769573	0.272613	0.465497
O65	O	0.936447	-0.477363	-0.367632
O66	O	1.186447	-0.227363	-0.117632
O67	O	1.436447	0.022637	0.132368
O68	O	1.686447	0.272637	0.382368
C69	C	0.802235	-0.326065	-0.326087
C70	C	1.052235	-0.076065	-0.076087
C71	C	1.302235	0.173935	0.173913
C72	C	1.552235	0.423935	0.423913
C73	C	0.727003	-0.326076	-0.326093
C74	C	0.977003	-0.076076	-0.076093
C75	C	1.227003	0.173924	0.173907
C76	C	1.477003	0.423924	0.423907
C77	C	0.691660	-0.369422	-0.369302
C78	C	0.941660	-0.119422	-0.119302
C79	C	1.191660	0.130578	0.130698
C80	C	1.441660	0.380578	0.380698
C81	C	0.620972	-0.369424	-0.369312
C82	C	0.870972	-0.119424	-0.119312
C83	C	1.120972	0.130576	0.130688
C84	C	1.370972	0.380576	0.380688
C85	C	0.585628	-0.326081	-0.326109
C86	C	0.835628	-0.076081	-0.076109
C87	C	1.085628	0.173919	0.173891
C88	C	1.335628	0.423919	0.423891
C89	C	0.620976	-0.282730	-0.282898
C90	C	0.870976	-0.032730	-0.032898
C91	C	1.120976	0.217270	0.217102
C92	C	1.370976	0.467270	0.467102
C93	C	0.691663	-0.282726	-0.282892
C94	C	0.941663	-0.032726	-0.032892
C95	C	1.191663	0.217274	0.217108
C96	C	1.441663	0.467274	0.467108
C97	C	0.335903	-0.282745	-0.282920
C98	C	0.585903	-0.032745	-0.032920
C99	C	0.835903	0.217255	0.217080
C100	C	1.085903	0.467255	0.467080
C101	C	0.265211	-0.282754	-0.282928
C102	C	0.515211	-0.032754	-0.032928
C103	C	0.765211	0.217246	0.217072
C104	C	1.015211	0.467246	0.467072
C105	C	0.265211	-0.369443	-0.369340
C106	C	0.515211	-0.119443	-0.119340
C107	C	0.765211	0.130557	0.130660
C108	C	1.015211	0.380557	0.380660
C109	C	0.335899	-0.369439	-0.369334
C110	C	0.585899	-0.119439	-0.119334
C111	C	0.835899	0.130561	0.130666
C112	C	1.085899	0.380561	0.380666
C113	C	0.371241	-0.326085	-0.326126
C114	C	0.621241	-0.076085	-0.076126
C115	C	0.871241	0.173915	0.173874
C116	C	1.121241	0.423915	0.423874
C117	C	0.447889	-0.326084	-0.326117
C118	C	0.697889	-0.076084	-0.076117
C119	C	0.947889	0.173916	0.173883
C120	C	1.197889	0.423916	0.423883
C121	C	0.508981	-0.326086	-0.326114
C122	C	0.758981	-0.076086	-0.076114
C123	C	1.008981	0.173914	0.173886
C124	C	1.258981	0.423914	0.423886
C125	C	0.978015	-0.501934	-0.326076
C126	C	1.228015	-0.251934	-0.076076
C127	C	1.478015	-0.001934	0.173924
C128	C	1.728015	0.248066	0.423924
C129	C	0.978045	-0.577166	-0.326084
C130	C	1.228045	-0.327166	-0.076084
C131	C	1.478045	-0.077166	0.173916
C132	C	1.728045	0.172834	0.423916
C133	C	1.021371	-0.612500	-0.282845
C134	C	1.271371	-0.362500	-0.032845
C135	C	1.521371	-0.112500	0.217155
C136	C	1.771371	0.137500	0.467155
C137	C	1.021399	-0.683189	-0.282860
C138	C	1.271399	-0.433189	-0.032860
C139	C	1.521399	-0.183189	0.217140
C140	C	1.771399	0.066811	0.467140
C141	C	0.978098	-0.718542	-0.326111
C142	C	1.228098	-0.468542	-0.076111
C143	C	1.478098	-0.218542	0.173889
C144	C	1.728098	0.031458	0.423889
C145	C	0.934770	-0.683203	-0.369356
C146	C	1.184770	-0.433203	-0.119356
C147	C	1.434770	-0.183203	0.130644
C148	C	1.684770	0.066797	0.380644
C149	C	0.934746	-0.612516	-0.369344
C150	C	1.184746	-0.362516	-0.119344
C151	C	1.434746	-0.112516	0.130656
C152	C	1.684746	0.137484	0.380656
C153	C	0.934870	-0.968276	-0.369406
C154	C	1.184870	-0.718276	-0.119406
C155	C	1.434870	-0.468276	0.130594
C156	C	1.684870	-0.218276	0.380594
C157	C	0.934897	-1.038968	-0.369413
C158	C	1.184897	-0.788968	-0.119413
C159	C	1.434897	-0.538968	0.130587
C160	C	1.684897	-0.288968	0.380587
C161	C	1.021524	-1.038949	-0.282922
C162	C	1.271524	-0.788949	-0.032922
C163	C	1.521524	-0.538949	0.217078
C164	C	1.771524	-0.288949	0.467078
C165	C	1.021499	-0.968262	-0.282910
C166	C	1.271499	-0.718262	-0.032910
C167	C	1.521499	-0.468262	0.217090
C168	C	1.771499	-0.218262	0.467090
C169	C	0.978174	-0.932929	-0.326157
C170	C	1.228174	-0.682929	-0.076157
C171	C	1.478174	-0.432929	0.173843
C172	C	1.728174	-0.182929	0.423843
C173	C	0.978144	-0.856281	-0.326141
C174	C	1.228144	-0.606281	-0.076141
C175	C	1.478144	-0.356281	0.173859
C176	C	1.728144	-0.106281	0.423859
C177	C	0.978124	-0.795189	-0.326124
C178	C	1.228124	-0.545189	-0.076124
C179	C	1.478124	-0.295189	0.173876
C180	C	1.728124	-0.045189	0.423876
C181	C	1.154634	-0.326092	-0.326131
C182	C	1.404634	-0.076092	-0.076131
C183	C	1.654634	0.173908	0.173869
C184	C	1.904634	0.423908	0.423869
C185	C	1.229866	-0.326097	-0.326140
C186	C	1.479866	-0.076097	-0.076140
C187	C	1.729866	0.173903	0.173860
C188	C	1.979866	0.423903	0.423860
C189	C	0.978118	-0.326041	-0.502651
C190	C	1.228118	-0.076041	-0.252651
C191	C	1.478118	0.173959	-0.002651
C192	C	1.728118	0.423959	0.247349
C193	C	0.978129	-0.326025	-0.577883
C194	C	1.228129	-0.076025	-0.327883
C195	C	1.478129	0.173975	-0.077883
C196	C	1.728129	0.423975	0.172117
C197	C	0.978186	-0.149535	-0.326156
C198	C	1.228186	0.100465	-0.076156
C199	C	1.478186	0.350465	0.173844
C200	C	1.728186	0.600465	0.423844
C201	C	0.978227	-0.074303	-0.326177
C202	C	1.228227	0.175697	-0.076177
C203	C	1.478227	0.425697	0.173823
C204	C	1.728227	0.675697	0.423823
C205	C	1.021525	-0.282618	-1.039693
C206	C	1.271525	-0.032618	-0.789693
C207	C	1.521525	0.217382	-0.539693
C208	C	1.771525	0.467382	-0.289693
C209	C	1.021514	-0.282638	-0.969004
C210	C	1.271514	-0.032638	-0.719004
C211	C	1.521514	0.217362	-0.469004
C212	C	1.771514	0.467362	-0.219004
C213	C	0.978199	-0.325931	-0.933645
C214	C	1.228199	-0.075931	-0.683645
C215	C	1.478199	0.174069	-0.433645
C216	C	1.728199	0.424069	-0.183645
C217	C	0.934896	-0.369210	-0.968978
C218	C	1.184896	-0.119210	-0.718978
C219	C	1.434896	0.130790	-0.468978
C220	C	1.684896	0.380790	-0.218978
C221	C	0.934911	-0.369192	-1.039666
C222	C	1.184911	-0.119192	-0.789666
C223	C	1.434911	0.130808	-0.539666
C224	C	1.684911	0.380808	-0.289666
C225	C	0.934837	-0.369283	-0.683905
C226	C	1.184837	-0.119283	-0.433905
C227	C	1.434837	0.130717	-0.183905
C228	C	1.684837	0.380717	0.066095
C229	C	0.934825	-0.369296	-0.613213
C230	C	1.184825	-0.119296	-0.363213
C231	C	1.434825	0.130704	-0.113213
C232	C	1.684825	0.380704	0.136787
C233	C	1.021441	-0.282730	-0.613244
C234	C	1.271441	-0.032730	-0.363244
C235	C	1.521441	0.217270	-0.113244
C236	C	1.771441	0.467270	0.136756
C237	C	1.021455	-0.282712	-0.683931
C238	C	1.271455	-0.032712	-0.433931
C239	C	1.521455	0.217288	-0.183931
C240	C	1.771455	0.467288	0.066069
C241	C	0.978155	-0.325993	-0.719258
C242	C	1.228155	-0.075993	-0.469258
C243	C	1.478155	0.174007	-0.219258
C244	C	1.728155	0.424007	0.030742
C245	C	0.978168	-0.325971	-0.795906
C246	C	1.228168	-0.075971	-0.545906
C247	C	1.478168	0.174029	-0.295906
C248	C	1.728168	0.424029	-0.045906
C249	C	0.978182	-0.325950	-0.856998
C250	C	1.228182	-0.075950	-0.606998
C251	C	1.478182	0.174050	-0.356998
C252	C	1.728182	0.424050	-0.106998
C253	C	0.978104	-0.326067	-0.150253
C254	C	1.228104	-0.076067	0.099747
C255	C	1.478104	0.173933	0.349747
C256	C	1.728104	0.423933	0.599747
C257	C	0.978224	-0.325892	-0.075021
C258	C	1.228224	-0.075892	0.174979
C259	C	1.478224	0.174108	0.424979
C260	C	1.728224	0.424108	0.674979
H261	H	0.364670	-0.247449	-0.247733
H262	H	0.614670	0.002551	0.002267
H263	H	0.864670	0.252551	0.252267
H264	H	1.114670	0.502551	0.502267
H265	H	1.056679	-0.711955	-0.247649
H266	H	1.306679	-0.461955	0.002351
H267	H	1.556679	-0.211955	0.252351
H268	H	1.806679	0.038045	0.502351
O269	O	1.068155	-0.236054	-0.575143
O270	O	1.318155	0.013946	-0.325143
O271	O	1.568155	0.263946	-0.075143
O272	O	1.818155	0.513946	0.174857
H273	H	1.060878	-0.243344	-0.520049
H274	H	1.310878	0.006656	-0.270049
H275	H	1.560878	0.256656	-0.020049
H276	H	1.810878	0.506656	0.229951
H277	H	0.899466	-0.583747	-0.404555
H278	H	1.149466	-0.333747	-0.154555
H279	H	1.399466	-0.083747	0.095445
H280	H	1.649466	0.166253	0.345445
O281	O	0.888129	-0.415961	-0.721995
O282	O	1.138129	-0.165961	-0.471995
O283	O	1.388129	0.084039	-0.221995
O284	O	1.638129	0.334039	0.028005
H285	H	0.918408	-0.450400	-0.754188
H286	H	1.168408	-0.200400	-0.504188
H287	H	1.418408	0.049600	-0.254188
H288	H	1.668408	0.299600	-0.004188
O289	O	1.068218	-0.235962	-0.930903
O290	O	1.318218	0.014038	-0.680903
O291	O	1.568218	0.264038	-0.430903
O292	O	1.818218	0.514038	-0.180903
H293	H	1.060939	-0.243252	-0.875810
H294	H	1.310939	0.006748	-0.625810
H295	H	1.560939	0.256748	-0.375810
H296	H	1.810939	0.506748	-0.125810
H297	H	0.899548	-0.404549	-0.584425
H298	H	1.149548	-0.154549	-0.334425
H299	H	1.399548	0.095451	-0.084425
H300	H	1.649548	0.345451	0.165575
H301	H	1.056628	-0.583721	-0.247621
H302	H	1.306628	-0.333721	0.002379
H303	H	1.556628	-0.083721	0.252379
H304	H	1.806628	0.166279	0.502379
O305	O	1.068246	-0.235926	-1.077830
O306	O	1.318246	0.014074	-0.827830
O307	O	1.568246	0.264074	-0.577830
O308	O	1.818246	0.514074	-0.327830
H309	H	1.098358	-0.205844	-1.041385
H310	H	1.348358	0.044156	-0.791385
H311	H	1.598358	0.294156	-0.541385
H312	H	1.848358	0.544156	-0.291385
O313	O	0.227080	-0.236006	-0.236331
O314	O	0.477080	0.013994	0.013669
O315	O	0.727080	0.263994	0.263669
O316	O	0.977080	0.513994	0.513669
H317	H	0.240658	-0.182897	-0.248042
H318	H	0.490658	0.067103	0.001958
H319	H	0.740658	0.317103	0.251958
H320	H	0.990658	0.567103	0.501958
H321	H	0.899631	-0.404462	-0.940183
H322	H	1.149631	-0.154462	-0.690183
H323	H	1.399631	0.095538	-0.440183
H324	H	1.649631	0.345538	-0.190183
O325	O	1.068176	-0.236022	-0.722070
O326	O	1.318176	0.013978	-0.472070
O327	O	1.568176	0.263978	-0.222070
O328	O	1.818176	0.513978	0.027930
H329	H	1.098290	-0.205938	-0.685628
H330	H	1.348290	0.044062	-0.435628
H331	H	1.598290	0.294062	-0.185628
H332	H	1.848290	0.544062	0.064372
O333	O	0.888204	-0.415861	-1.077775
O334	O	1.138204	-0.165861	-0.827775
O335	O	1.388204	0.084139	-0.577775
O336	O	1.638204	0.334139	-0.327775
H337	H	0.858076	-0.445963	-1.041313
H338	H	1.108076	-0.195963	-0.791313
H339	H	1.358076	0.054037	-0.541313
H340	H	1.608076	0.304037	-0.291313
H341	H	1.056804	-1.067726	-0.247711
H342	H	1.306804	-0.817726	0.002289
H343	H	1.556804	-0.567726	0.252289
H344	H	1.806804	-0.317726	0.502289
O345	O	0.729784	-0.416162	-0.415906
O346	O	0.979784	-0.166162	-0.165906
O347	O	1.229784	0.083838	0.084094
O348	O	1.479784	0.333838	0.334094
H349	H	0.716193	-0.469272	-0.404213
H350	H	0.966193	-0.219272	-0.154213
H351	H	1.216193	0.030728	0.095787
H352	H	1.466193	0.280728	0.345787
O353	O	0.582849	-0.416305	-0.415785
O354	O	0.832849	-0.166305	-0.165785
O355	O	1.082849	0.083695	0.084215
O356	O	1.332849	0.333695	0.334215
H357	H	0.619301	-0.446495	-0.445772
H358	H	0.869301	-0.196495	-0.195772
H359	H	1.119301	0.053505	0.054228
H360	H	1.369301	0.303505	0.304228
O361	O	1.068206	-0.930129	-0.236265
O362	O	1.318206	-0.680129	0.013735
O363	O	1.568206	-0.430129	0.263735
O364	O	1.818206	-0.180129	0.513735
H365	H	1.098345	-0.966576	-0.206205
H366	H	1.348345	-0.716576	0.043795
H367	H	1.598345	-0.466576	0.293795
H368	H	1.848345	-0.216576	0.543795
H369	H	0.364672	-0.404735	-0.404512
H370	H	0.614672	-0.154735	-0.154512
H371	H	0.864672	0.095265	0.095488
H372	H	1.114672	0.345265	0.345488
H373	H	0.899592	-0.939513	-0.404618
H374	H	1.149592	-0.689513	-0.154618
H375	H	1.399592	-0.439513	0.095382
H376	H	1.649592	-0.189513	0.345382
O377	O	0.227094	-0.416197	-0.415953
O378	O	0.477094	-0.166197	-0.165953
O379	O	0.727094	0.083803	0.084047
O380	O	0.977094	0.333803	0.334047
H381	H	0.172003	-0.408915	-0.408709
H382	H	0.422003	-0.158915	-0.158709
H383	H	0.672003	0.091085	0.091291
H384	H	0.922003	0.341085	0.341291
H385	H	0.899517	-0.711993	-0.404575
H386	H	1.149517	-0.461993	-0.154575
H387	H	1.399517	-0.211993	0.095425
H388	H	1.649517	0.038007	0.345425
H389	H	0.899637	-1.067750	-0.404639
H390	H	1.149637	-0.817750	-0.154639
H391	H	1.399637	-0.567750	0.095361
H392	H	1.649637	-0.317750	0.345361
O393	O	0.729783	-0.235980	-0.236279
O394	O	0.979783	0.014020	0.013721
O395	O	1.229783	0.264020	0.263721
O396	O	1.479783	0.514020	0.513721
H397	H	0.716237	-0.182874	-0.247979
H398	H	0.966237	0.067126	0.002021
H399	H	1.216237	0.317126	0.252021
H400	H	1.466237	0.567126	0.502021
O401	O	0.582860	-0.235997	-0.236281
O402	O	0.832860	0.014003	0.013719
O403	O	1.082860	0.264003	0.263719
O404	O	1.332860	0.514003	0.513719
H405	H	0.527769	-0.243293	-0.243532
H406	H	0.777769	0.006707	0.006468
H407	H	1.027769	0.256707	0.256468
H408	H	1.277769	0.506707	0.506468
