data_functionalizedCrystal
_audit_creation_method	'MofGen! by Chris Wilmer'
_symmetry_space_group_name_H-M	'P1'
_symmetry_Int_Tables_number	1
_symmetry_cell_setting	triclinic
loop_
_symmetry_equiv_pos_as_xyz
  x,y,z
_cell_length_a	10.685980
_cell_length_b	21.295417
_cell_length_c	10.685314
_cell_angle_alpha	94.328649
_cell_angle_beta	89.642737
_cell_angle_gamma	94.395916
loop_
_atom_site_label
_atom_site_type_symbol
_atom_site_fract_x
_atom_site_fract_y
_atom_site_fract_z
Zn1	Zn	1.863476	-0.212071	-0.856464
Zn2	Zn	1.879384	-0.308728	-0.646669
Zn3	Zn	1.669764	-0.210876	-0.630614
Zn4	Zn	1.653616	-0.324710	-0.840273
O5	O	1.766560	-0.264096	-0.743505
O6	O	2.041140	-0.218704	-0.842129
O7	O	1.864993	-0.288559	-0.468996
O8	O	1.695561	-0.122944	-0.660630
O9	O	2.052828	-0.289718	-0.687993
O10	O	1.837880	-0.123822	-0.826561
O11	O	1.710987	-0.216668	-0.457201
O12	O	1.492068	-0.232165	-0.644931
O13	O	1.668038	-0.316957	-1.017964
O14	O	1.480204	-0.315799	-0.798966
O15	O	1.822222	-0.234202	-1.029859
O16	O	1.849335	-0.398939	-0.672294
O17	O	1.683464	-0.410681	-0.814534
C18	C	1.440617	-0.275587	-0.718450
C19	C	1.301175	-0.280519	-0.707761
C20	C	1.766405	-0.427651	-0.743429
C21	C	1.766450	-0.497618	-0.743447
C22	C	1.840505	-0.530889	-0.829901
C23	C	1.840547	-0.596631	-0.829936
C24	C	1.766549	-0.629099	-0.743495
C25	C	1.692478	-0.595821	-0.657034
C26	C	1.692429	-0.530080	-0.657010
N27	N	1.765489	-0.728184	-0.632985
N28	N	1.765543	-0.790635	-0.633011
C29	C	1.766691	-0.827171	-0.743562
N30	N	1.767808	-0.798896	-0.854090
N31	N	1.767760	-0.736440	-0.854063
C32	C	1.766594	-0.700383	-0.743511
C33	C	1.840795	-0.931726	-0.830061
C34	C	1.840828	-0.997470	-0.830097
C35	C	1.692767	-0.996658	-0.657184
C36	C	1.692727	-0.930916	-0.657159
C37	C	1.766748	-0.898454	-0.743596
C38	C	2.093776	-0.252561	-0.768658
C39	C	2.233215	-0.247646	-0.779377
C40	C	1.741554	-0.277496	-1.070700
C41	C	1.730898	-0.283205	-1.210131
C42	C	1.766748	-0.099903	-0.743611
C43	C	1.766828	-0.029934	-0.743656
C44	C	1.791541	-0.250702	-0.417588
C45	C	1.802440	-0.244806	-0.278176
H46	H	1.281710	-0.215725	-0.848866
N47	N	1.643817	-0.329922	-1.270858
N48	N	1.558382	-0.313548	-1.337870
H49	H	1.496877	-0.346542	-1.380767
H50	H	1.900840	-0.623726	-0.900351
H51	H	1.632430	-0.903825	-0.586755
H52	H	1.632225	-0.622260	-0.586655
H53	H	1.252675	-0.312438	-0.638260
H54	H	1.900774	-0.504460	-0.900286
H55	H	1.632123	-0.502991	-0.586607
N56	N	1.916408	-0.898572	-0.918358
N57	N	1.982518	-0.928290	-0.995554
H58	H	2.035922	-0.904877	-1.057915
H59	H	1.632508	-1.023093	-0.586809
H60	H	1.871835	-0.207554	-1.229756
H61	H	1.901132	-1.024558	-0.900504
