data_functionalizedCrystal
_audit_creation_method	'MofGen! by Chris Wilmer'
_symmetry_space_group_name_H-M	'P1'
_symmetry_Int_Tables_number	1
_symmetry_cell_setting	triclinic
loop_
_symmetry_equiv_pos_as_xyz
  x,y,z
_cell_length_a	17.038272
_cell_length_b	10.654541
_cell_length_c	9.730217
_cell_angle_alpha	90.000068
_cell_angle_beta	89.996329
_cell_angle_gamma	92.202258
loop_
_atom_site_label
_atom_site_type_symbol
_atom_site_fract_x
_atom_site_fract_y
_atom_site_fract_z
O1	O	0.109868	-1.678040	-0.114249
O2	O	0.120338	-1.313533	-0.114261
O3	O	0.001275	-1.493620	-0.114245
O4	O	0.228930	-1.497953	-0.114266
O5	O	0.001274	-1.493614	0.114336
O6	O	0.120337	-1.313527	0.114319
O7	O	0.109867	-1.678034	0.114331
Zn8	Zn	0.115102	-1.495780	0.150617
Zn9	Zn	0.115103	-1.495788	-0.150547
O10	O	0.228929	-1.497947	0.114314
C11	C	0.119569	-1.266661	0.000027
C12	C	0.117270	-1.127004	0.000023
C13	C	-0.027875	-1.489677	0.000045
C14	C	-0.114734	-1.477920	0.000044
N15	N	0.115100	-1.495784	0.356153
C16	C	-0.164246	-1.585864	0.000049
C17	C	-0.245858	-1.574809	0.000036
C18	C	-0.277957	-1.455809	0.000027
C19	C	-0.228439	-1.347857	0.000018
C20	C	-0.146828	-1.358913	0.000022
C21	C	-0.523933	-1.416751	0.000007
C22	C	-0.605550	-1.405704	0.000008
C23	C	-0.622963	-1.632657	0.000023
C24	C	-0.541350	-1.643703	0.000035
C25	C	-0.491839	-1.535750	0.000018
C26	C	-0.361377	-1.444507	0.000018
C27	C	-0.408420	-1.547054	0.000018
C28	C	0.258080	-1.501891	0.000021
C29	C	0.344939	-1.513648	0.000013
C30	C	0.110635	-1.724907	0.000039
C31	C	0.112934	-1.864564	0.000034
C32	C	0.259642	-1.112253	-0.000008
C33	C	0.329744	-1.039268	-0.000029
C34	C	0.327580	-0.908049	-0.000030
C35	C	0.255304	-0.849813	-0.000006
C36	C	0.185202	-0.922798	0.000015
C37	C	0.187374	-1.054019	0.000012
C38	C	0.042832	-0.937548	0.000055
C39	C	0.044995	-1.068768	0.000047
C40	C	-0.029443	-0.879312	0.000079
C41	C	-0.099548	-0.952297	0.000090
C42	C	-0.097380	-1.083524	0.000090
C43	C	-0.025108	-1.141753	0.000067
N44	N	0.115098	-1.495793	-0.356084
C45	C	0.009701	-1.655323	0.356159
C46	C	-0.042996	-1.735102	0.428101
C47	C	-0.042997	-1.735115	0.571981
C48	C	0.009704	-1.655338	0.643922
C49	C	0.062402	-1.575559	0.571979
C50	C	0.062398	-1.575558	0.428096
C51	C	0.167796	-1.416015	0.571973
C52	C	0.167801	-1.416007	0.428094
C53	C	0.220496	-1.336238	0.643914
C54	C	0.273199	-1.256464	0.571971
C55	C	0.273198	-1.256455	0.428083
C56	C	0.220498	-1.336228	0.356151
H57	H	-0.138118	-1.682766	0.000065
Cl58	Cl	0.220494	-1.336245	0.824793
H59	H	0.316101	-1.191509	0.630554
H60	H	-0.382282	-1.643943	-0.000005
H61	H	0.384663	-0.848624	-0.000037
Cl62	Cl	-0.685210	-1.768360	0.000039
H63	H	0.316107	-1.191485	0.369514
Cl64	Cl	0.262369	-1.277215	-0.000032
Cl65	Cl	0.009706	-1.655333	0.175280
Cl66	Cl	-0.185515	-1.175266	0.000127
H67	H	-0.387521	-1.347616	0.000014
Cl68	Cl	0.220495	-1.336230	0.175272
H69	H	-0.106516	-1.271013	0.000017
H70	H	-0.515222	-1.740605	0.000042
Cl71	Cl	-0.308099	-1.710518	0.000046
H72	H	-0.631681	-1.308795	0.000023
H73	H	-0.031201	-0.772466	0.000086
Cl74	Cl	-0.461701	-1.281038	-0.000017
H75	H	0.388590	-1.086699	-0.000044
Cl76	Cl	0.252585	-0.684850	0.000016
Cl77	Cl	-0.268791	-1.198256	-0.000010
H78	H	-0.158388	-0.904870	0.000108
H79	H	-0.085906	-1.800053	0.369515
Cl80	Cl	-0.022376	-1.306714	0.000059
H81	H	-0.085910	-1.800072	0.630557
H82	H	0.009694	-1.655342	0.761076
