data_functionalizedCrystal
_audit_creation_method	'MofGen! by Chris Wilmer'
_symmetry_space_group_name_H-M	'P1'
_symmetry_Int_Tables_number	1
_symmetry_cell_setting	triclinic
loop_
_symmetry_equiv_pos_as_xyz
  x,y,z
_cell_length_a	16.959455
_cell_length_b	17.640280
_cell_length_c	16.959447
_cell_angle_alpha	78.776124
_cell_angle_beta	89.982507
_cell_angle_gamma	78.797529
loop_
_atom_site_label
_atom_site_type_symbol
_atom_site_fract_x
_atom_site_fract_y
_atom_site_fract_z
Zn1	Zn	1.272084	-0.314742	-0.383353
Zn2	Zn	1.298741	-0.446920	-0.224484
Zn3	Zn	1.139909	-0.314759	-0.251188
Zn4	Zn	1.166608	-0.446869	-0.356633
O5	O	1.219335	-0.380822	-0.303915
O6	O	1.386234	-0.332290	-0.362286
O7	O	1.277653	-0.429416	-0.117410
O8	O	1.135113	-0.204151	-0.291077
O9	O	1.405818	-0.429400	-0.245566
O10	O	1.232222	-0.204139	-0.388179
O11	O	1.160960	-0.332318	-0.137029
O12	O	1.032837	-0.332269	-0.265168
O13	O	1.180618	-0.429314	-0.470794
O14	O	1.052453	-0.429330	-0.342639
O15	O	1.258111	-0.332241	-0.490426
O16	O	1.303542	-0.557518	-0.219657
O17	O	1.206465	-0.557481	-0.316746
C18	C	1.013964	-0.380796	-0.303902
C19	C	0.926109	-0.380804	-0.303911
C20	C	0.544390	-0.330241	-0.263690
C21	C	0.564897	-0.431468	-0.344172
C22	C	0.647441	-0.431457	-0.344169
C23	C	0.678463	-0.380838	-0.303925
C24	C	0.626941	-0.330230	-0.263684
C25	C	0.698969	-0.482069	-0.384403
C26	C	0.781518	-0.482061	-0.384401
C27	C	0.812541	-0.431437	-0.344162
C28	C	0.761014	-0.380827	-0.303919
C29	C	0.792036	-0.330208	-0.263676
C30	C	0.740510	-0.279593	-0.223438
C31	C	0.657964	-0.279606	-0.223444
C32	C	0.895087	-0.431423	-0.344155
C33	C	0.874588	-0.330196	-0.263670
C34	C	1.260815	-0.586178	-0.262421
C35	C	1.278632	-0.674030	-0.244697
C36	C	1.084303	-0.963005	-0.438854
C37	C	1.101046	-1.045555	-0.422174
C38	C	1.202195	-1.045529	-0.321177
C39	C	1.185463	-0.962977	-0.337852
C40	C	1.126515	-0.921721	-0.396690
C41	C	1.227675	-0.921693	-0.295688
C42	C	1.210941	-0.839148	-0.312358
C43	C	1.151994	-0.797887	-0.371193
C44	C	1.109781	-0.839176	-0.413361
C45	C	1.286619	-0.962950	-0.236846
C46	C	1.328831	-0.921666	-0.194682
C47	C	1.312101	-0.839120	-0.211356
C48	C	1.253154	-0.797859	-0.270190
C49	C	1.354315	-0.797830	-0.169188
C50	C	1.337580	-0.715286	-0.185858
C51	C	1.236420	-0.715314	-0.286860
C52	C	1.425509	-0.380849	-0.303928
C53	C	1.513368	-0.380860	-0.303934
C54	C	1.219369	-0.380770	-0.510094
C55	C	1.219383	-0.380747	-0.597955
C56	C	1.177715	-0.174665	-0.345587
C57	C	1.159979	-0.086812	-0.363346
C58	C	1.179044	-0.431279	-0.629011
C59	C	1.259730	-0.330190	-0.649457
C60	C	1.259742	-0.330164	-0.732008
C61	C	1.219403	-0.380695	-0.763065
C62	C	1.179052	-0.431253	-0.711570
C63	C	1.300084	-0.279601	-0.783510
C64	C	1.300096	-0.279573	-0.866067
C65	C	1.259762	-0.330109	-0.897124
C66	C	1.219411	-0.380669	-0.845624
C67	C	1.179071	-0.431201	-0.876680
C68	C	1.138725	-0.481766	-0.825180
C69	C	1.138717	-0.481789	-0.742627
C70	C	1.259769	-0.330086	-0.979677
C71	C	1.179079	-0.431175	-0.959239
C72	C	1.219336	-0.380818	-0.098549
C73	C	1.219430	-0.380617	-0.010734
H74	H	0.616005	-0.238399	-0.190684
H75	H	0.539634	-0.472685	-0.376931
H76	H	1.146233	-0.472327	-0.984517
H77	H	0.502434	-0.289030	-0.230932
H78	H	0.899838	-0.288971	-0.230904
H79	H	1.371954	-0.681672	-0.151523
H80	H	0.937036	-0.472635	-0.376913
H81	H	1.376824	-0.955268	-0.146773
H82	H	1.036307	-0.929413	-0.486773
H83	H	1.061785	-0.805584	-0.461279
H84	H	0.765780	-0.238382	-0.190667
H85	H	1.105868	-0.522956	-0.700689
H86	H	1.146198	-0.472450	-0.587076
H87	H	1.292569	-0.289046	-0.624166
H88	H	1.332951	-0.238401	-0.907991
H89	H	0.673705	-0.523286	-0.417161
H90	H	0.823464	-0.523274	-0.417166
H91	H	1.188424	-0.681722	-0.334779
H92	H	1.332923	-0.238459	-0.758218
H93	H	1.066677	-1.079165	-0.456523
H94	H	1.292611	-0.288911	-1.021606
H95	H	1.105875	-0.522904	-0.850478
H96	H	1.138365	-0.730673	-0.384759
H97	H	1.250188	-1.079130	-0.273269
H98	H	1.300244	-1.030163	-0.223277
H99	H	1.402304	-0.831433	-0.121276
