data_functionalizedCrystal
_audit_creation_method	'MofGen! by Chris Wilmer'
_symmetry_space_group_name_H-M	'P1'
_symmetry_Int_Tables_number	1
_symmetry_cell_setting	triclinic
loop_
_symmetry_equiv_pos_as_xyz
  x,y,z
_cell_length_a	16.625546
_cell_length_b	13.897449
_cell_length_c	13.897441
_cell_angle_alpha	90.026069
_cell_angle_beta	89.966553
_cell_angle_gamma	89.977604
loop_
_atom_site_label
_atom_site_type_symbol
_atom_site_fract_x
_atom_site_fract_y
_atom_site_fract_z
Zn1	Zn	-0.320977	-1.474671	-0.545499
Zn2	Zn	-0.070977	-1.224671	-0.295499
Zn3	Zn	0.179023	-0.974671	-0.045499
Zn4	Zn	0.429023	-0.724671	0.204501
Zn5	Zn	-0.455828	-1.474551	-0.384193
Zn6	Zn	-0.205828	-1.224551	-0.134193
Zn7	Zn	0.044172	-0.974551	0.115807
Zn8	Zn	0.294172	-0.724551	0.365807
Zn9	Zn	-0.321013	-1.313360	-0.384203
Zn10	Zn	-0.071013	-1.063360	-0.134203
Zn11	Zn	0.178987	-0.813360	0.115797
Zn12	Zn	0.428987	-0.563360	0.365797
Zn13	Zn	-0.455772	-1.313328	-0.545430
Zn14	Zn	-0.205772	-1.063328	-0.295430
Zn15	Zn	0.044228	-0.813328	-0.045430
Zn16	Zn	0.294228	-0.563328	0.204570
O17	O	-0.388397	-1.393977	-0.464831
O18	O	-0.138397	-1.143977	-0.214831
O19	O	0.111603	-0.893977	0.035169
O20	O	0.361603	-0.643977	0.285169
O21	O	-0.338874	-1.609636	-0.524126
O22	O	-0.088874	-1.359636	-0.274126
O23	O	0.161126	-1.109636	-0.024126
O24	O	0.411126	-0.859636	0.225874
O25	O	-0.437982	-1.453132	-0.249212
O26	O	-0.187982	-1.203132	0.000788
O27	O	0.062018	-0.953132	0.250788
O28	O	0.312018	-0.703132	0.500788
O29	O	-0.208176	-1.334821	-0.405632
O30	O	0.041824	-1.084821	-0.155632
O31	O	0.291824	-0.834821	0.094368
O32	O	0.541824	-0.584821	0.344368
O33	O	-0.437948	-1.609549	-0.405615
O34	O	-0.187948	-1.359549	-0.155615
O35	O	0.062052	-1.109549	0.094385
O36	O	0.312052	-0.859549	0.344385
O37	O	-0.208150	-1.453336	-0.524136
O38	O	0.041850	-1.203336	-0.274136
O39	O	0.291850	-0.953336	-0.024136
O40	O	0.541850	-0.703336	0.225864
O41	O	-0.338934	-1.334705	-0.249220
O42	O	-0.088934	-1.084705	0.000780
O43	O	0.161066	-0.834705	0.250780
O44	O	0.411066	-0.584705	0.500780
O45	O	-0.338880	-1.178374	-0.405565
O46	O	-0.088880	-0.928374	-0.155565
O47	O	0.161120	-0.678374	0.094435
O48	O	0.411120	-0.428374	0.344435
O49	O	-0.437853	-1.334767	-0.680421
O50	O	-0.187853	-1.084767	-0.430421
O51	O	0.062147	-0.834767	-0.180421
O52	O	0.312147	-0.584767	0.069579
O53	O	-0.437887	-1.178351	-0.524018
O54	O	-0.187887	-0.928351	-0.274018
O55	O	0.062113	-0.678351	-0.024018
O56	O	0.312113	-0.428351	0.225982
O57	O	-0.338820	-1.453305	-0.680472
O58	O	-0.088820	-1.203305	-0.430472
O59	O	0.161180	-0.953305	-0.180472
O60	O	0.411180	-0.703305	0.069528
O61	O	-0.568653	-1.453101	-0.405548
O62	O	-0.318653	-1.203101	-0.155548
O63	O	-0.068653	-0.953101	0.094452
O64	O	0.181347	-0.703101	0.344452
O65	O	-0.568611	-1.334651	-0.524009
O66	O	-0.318611	-1.084651	-0.274009
O67	O	-0.068611	-0.834651	-0.024009
O68	O	0.181389	-0.584651	0.225991
C69	C	-0.388382	-1.143363	-0.464786
C70	C	-0.138382	-0.893363	-0.214786
C71	C	0.111618	-0.643363	0.035214
C72	C	0.361618	-0.393363	0.285214
C73	C	-0.388394	-1.036149	-0.464789
C74	C	-0.138394	-0.786149	-0.214789
C75	C	0.111606	-0.536149	0.035211
C76	C	0.361606	-0.286149	0.285211
C77	C	-0.388396	-0.949079	-0.464801
C78	C	-0.138396	-0.699079	-0.214801
C79	C	0.111604	-0.449079	0.035199
C80	C	0.361604	-0.199079	0.285199
C81	C	-0.388400	-0.839847	-0.464826
C82	C	-0.138400	-0.589847	-0.214826
C83	C	0.111600	-0.339847	0.035174
C84	C	0.361600	-0.089847	0.285174
C85	C	-0.597888	-1.393886	-0.464791
C86	C	-0.347888	-1.143886	-0.214791
C87	C	-0.097888	-0.893886	0.035209
C88	C	0.152112	-0.643886	0.285209
C89	C	-0.687509	-1.393935	-0.464806
C90	C	-0.437509	-1.143935	-0.214806
C91	C	-0.187509	-0.893935	0.035194
C92	C	0.062491	-0.643935	0.285194
C93	C	-1.015685	-1.394104	-0.464906
C94	C	-0.765685	-1.144104	-0.214906
C95	C	-0.515685	-0.894104	0.035094
C96	C	-0.265685	-0.644104	0.285094
C97	C	-0.924376	-1.394054	-0.464881
C98	C	-0.674376	-1.144054	-0.214881
C99	C	-0.424376	-0.894054	0.035119
C100	C	-0.174376	-0.644054	0.285119
C101	C	-0.851600	-1.394019	-0.464856
C102	C	-0.601600	-1.144019	-0.214856
C103	C	-0.351600	-0.894019	0.035144
C104	C	-0.101600	-0.644019	0.285144
C105	C	-0.760286	-1.393970	-0.464831
C106	C	-0.510286	-1.143970	-0.214831
C107	C	-0.260286	-0.893970	0.035169
C108	C	-0.010286	-0.643970	0.285169
C109	C	-0.178088	-1.394095	-0.464893
C110	C	0.071912	-1.144095	-0.214893
C111	C	0.321912	-0.894095	0.035107
C112	C	0.571912	-0.644095	0.285107
C113	C	-0.088467	-1.394146	-0.464919
C114	C	0.161533	-1.144146	-0.214919
C115	C	0.411533	-0.894146	0.035081
C116	C	0.661533	-0.644146	0.285081
C117	C	-0.388326	-1.394046	-0.716424
C118	C	-0.138326	-1.144046	-0.466424
C119	C	0.111674	-0.894046	-0.216424
C120	C	0.361674	-0.644046	0.033576
C121	C	-0.388296	-1.394075	-0.823638
C122	C	-0.138296	-1.144075	-0.573638
C123	C	0.111704	-0.894075	-0.323638
C124	C	0.361704	-0.644075	-0.073638
C125	C	-0.388410	-0.645570	-0.464866
C126	C	-0.138410	-0.395570	-0.214866
C127	C	0.111590	-0.145570	0.035134
C128	C	0.361590	0.104430	0.285134
C129	C	-0.388408	-0.752784	-0.464850
C130	C	-0.138408	-0.502784	-0.214850
C131	C	0.111592	-0.252784	0.035150
C132	C	0.361592	-0.002784	0.285150
C133	C	-0.388241	-1.394101	-1.019934
C134	C	-0.138241	-1.144101	-0.769934
C135	C	0.111759	-0.894101	-0.519934
C136	C	0.361759	-0.644101	-0.269934
C137	C	-0.388274	-1.394084	-0.910701
C138	C	-0.138274	-1.144084	-0.660701
C139	C	0.111726	-0.894084	-0.410701
C140	C	0.361726	-0.644084	-0.160701
C141	C	-0.388410	-1.393965	-0.214217
C142	C	-0.138410	-1.143965	0.035783
C143	C	0.111590	-0.893965	0.285783
C144	C	0.361590	-0.643965	0.535783
C145	C	-0.388213	-1.394122	-0.107004
C146	C	-0.138213	-1.144122	0.142996
C147	C	0.111787	-0.894122	0.392996
C148	C	0.361787	-0.644122	0.642996
