data_functionalizedCrystal
_audit_creation_method	'MofGen! by Chris Wilmer'
_symmetry_space_group_name_H-M	'P1'
_symmetry_Int_Tables_number	1
_symmetry_cell_setting	triclinic
loop_
_symmetry_equiv_pos_as_xyz
  x,y,z
_cell_length_a	10.540539
_cell_length_b	19.188930
_cell_length_c	9.016244
_cell_angle_alpha	89.992636
_cell_angle_beta	89.994699
_cell_angle_gamma	83.835137
loop_
_atom_site_label
_atom_site_type_symbol
_atom_site_fract_x
_atom_site_fract_y
_atom_site_fract_z
O1	O	1.683725	0.098388	-0.123289
O2	O	1.314108	0.107659	-0.123309
O3	O	1.509583	0.001439	-0.123270
O4	O	1.488250	0.204608	-0.123329
O5	O	1.509554	0.001441	0.123411
O6	O	1.314079	0.107661	0.123372
O7	O	1.683697	0.098391	0.123392
Cu8	Cu	1.498885	0.103026	0.145905
Cu9	Cu	1.498919	0.103023	-0.145823
O10	O	1.488222	0.204611	0.123352
C11	C	1.266806	0.106965	0.000029
C12	C	1.125904	0.104885	0.000023
C13	C	1.508878	-0.024575	0.000075
C14	C	1.506804	-0.102094	0.000088
C15	C	0.944233	0.025184	0.000622
C16	C	1.090805	0.027292	0.000050
C17	C	1.063424	0.142224	-0.140849
C18	C	0.916938	0.139576	-0.140951
C19	C	0.916383	0.141157	0.139570
C20	C	1.063349	0.141872	0.141417
C21	C	1.621502	-0.146253	0.000101
C22	C	1.619554	-0.219090	0.000077
C23	C	1.502901	-0.247764	0.000070
C24	C	1.388187	-0.203595	0.000048
C25	C	1.390139	-0.130760	0.000057
N26	N	1.413724	-0.356363	0.084015
N27	N	1.411878	-0.425553	0.084010
C28	C	1.497014	-0.467212	0.000039
N29	N	1.584085	-0.437067	-0.083907
N30	N	1.585935	-0.367870	-0.083895
C31	C	1.500772	-0.326741	0.000059
C32	C	1.609608	-0.590350	0.000025
C33	C	1.607655	-0.663188	-0.000008
C34	C	1.376285	-0.647691	-0.000023
C35	C	1.378241	-0.574855	-0.000004
C36	C	1.494906	-0.546189	0.000026
C37	C	1.730998	0.099085	0.000050
C38	C	1.871901	0.101165	0.000047
C39	C	1.488927	0.230625	0.000004
C40	C	1.491000	0.308143	-0.000018
N41	N	1.498871	0.103028	0.351092
N42	N	1.498944	0.103016	-0.351009
C43	C	1.393992	0.159658	0.586103
C44	C	1.394216	0.159870	0.414212
C45	C	1.631229	0.119601	0.413432
C46	C	1.630654	0.120002	0.585376
C47	C	1.472714	0.029640	0.585655
C48	C	1.469658	0.030115	0.413700
H49	H	1.134054	-0.002088	0.101034
N50	N	1.263234	0.146661	0.640930
H51	H	1.243415	0.098790	0.607410
H52	H	1.261466	0.148936	0.752831
H53	H	1.084522	0.199206	-0.146107
N54	N	1.347663	0.008757	0.643160
H55	H	1.275817	0.044852	0.611880
H56	H	1.332836	-0.038475	0.601127
H57	H	1.133214	-0.002297	-0.101092
H58	H	1.372297	0.017553	0.372957
H59	H	0.867921	0.197202	0.140506
H60	H	1.293208	-0.226946	0.000039
H61	H	0.914710	-0.005341	-0.099826
N62	N	1.250457	-0.678602	-0.000014
H63	H	1.200230	-0.662530	-0.091457
H64	H	1.266720	-0.731438	0.000040
N65	N	0.880379	0.103017	-0.280409
H66	H	0.959384	0.088769	-0.341238
H67	H	0.838243	0.059955	-0.252967
H68	H	1.295820	0.149898	0.372066
H69	H	1.106597	0.116284	-0.245674
H70	H	1.711169	0.080409	0.626974
H71	H	1.654960	0.172529	0.370340
N72	N	1.564374	-0.028403	0.356822
H73	H	1.627847	-0.008390	0.289362
H74	H	1.610876	-0.052888	0.443339
H75	H	1.716500	-0.122918	0.000121
H76	H	1.296735	-0.094804	0.000047
N77	N	1.743271	-0.266729	0.000122
H78	H	1.724329	-0.317219	0.000119
H79	H	1.794158	-0.257380	-0.091309
N80	N	1.415997	0.232028	0.359671
H81	H	1.425533	0.263816	0.447326
H82	H	1.496136	0.228850	0.297530
N83	N	1.415858	0.231362	0.643245
H84	H	1.411447	0.231619	0.755148
H85	H	1.502738	0.243014	0.610441
N86	N	1.735431	-0.559424	0.000051
H87	H	1.807799	-0.598455	0.000044
H88	H	1.741289	-0.529531	-0.091387
N89	N	1.254530	-0.527220	-0.000010
H90	H	1.180333	-0.556435	-0.000018
H91	H	1.250291	-0.496670	0.091441
N92	N	1.731371	-0.710821	-0.000000
H93	H	1.805568	-0.681606	0.000025
H94	H	1.735578	-0.741386	0.091442
H95	H	1.653829	0.173535	0.625451
H96	H	1.711168	0.079472	0.372542
H97	H	1.549255	-0.012519	0.626323
H98	H	0.916311	-0.005469	0.101650
H99	H	0.885377	0.116048	0.246350
N100	N	0.851727	0.213484	-0.149409
H101	H	0.877040	0.241111	-0.060866
H102	H	0.878318	0.236472	-0.243550
N103	N	1.118378	0.105745	0.279473
H104	H	1.183558	0.065586	0.250563
H105	H	1.160630	0.140346	0.341937
N106	N	1.093775	0.216808	0.152672
H107	H	1.148782	0.227892	0.065883
H108	H	1.011826	0.249334	0.151462
