data_functionalizedCrystal
_audit_creation_method	'MofGen! by Chris Wilmer'
_symmetry_space_group_name_H-M	'P1'
_symmetry_Int_Tables_number	1
_symmetry_cell_setting	triclinic
loop_
_symmetry_equiv_pos_as_xyz
  x,y,z
_cell_length_a	14.628931
_cell_length_b	19.377372
_cell_length_c	19.376995
_cell_angle_alpha	86.407462
_cell_angle_beta	72.115126
_cell_angle_gamma	72.113075
loop_
_atom_site_label
_atom_site_type_symbol
_atom_site_fract_x
_atom_site_fract_y
_atom_site_fract_z
Zr1	Zr	1.204183	0.607294	-0.172933
O2	O	1.316740	0.523950	-0.256281
O3	O	1.037435	0.632843	-0.147382
O4	O	1.177082	0.652752	-0.276185
O5	O	1.217368	0.488336	-0.025877
O6	O	1.217349	0.754354	-0.291885
O7	O	1.177093	0.504040	-0.127478
O8	O	0.967546	0.718740	-0.061481
O9	O	1.467172	0.523950	-0.256281
O10	O	1.156143	0.719564	-0.148203
O11	O	1.156149	0.632019	-0.060661
O12	O	1.320566	0.655460	-0.212310
O13	O	1.320572	0.567915	-0.124768
Zr14	Zr	1.332640	0.744290	-0.035931
Zr15	Zr	1.268405	0.769336	-0.197974
Zr16	Zr	1.268419	0.582247	-0.010890
Zr17	Zr	1.444105	0.607294	-0.172933
Zr18	Zr	1.092719	0.744289	-0.035931
O19	O	1.499389	0.718740	-0.061482
O20	O	1.408055	0.754354	-0.291886
O21	O	1.408074	0.488336	-0.025877
O22	O	1.220084	0.827633	0.047417
O23	O	1.128750	0.863247	-0.182987
O24	O	1.128769	0.597229	0.083022
O25	O	1.319456	0.863247	-0.182987
O26	O	1.359742	0.698831	0.067321
O27	O	1.319474	0.597230	0.083021
O28	O	1.359731	0.847543	-0.081386
O29	O	1.518220	0.652752	-0.276185
O30	O	1.018604	0.698831	0.067321
O31	O	1.069652	0.827633	0.047417
O32	O	1.018594	0.847542	-0.081385
O33	O	1.518230	0.504041	-0.127479
O34	O	1.569278	0.632843	-0.147383
O35	O	1.216258	0.696123	0.003446
O36	O	1.216252	0.783668	-0.084096
O37	O	1.380674	0.719564	-0.148203
O38	O	1.380681	0.632020	-0.060662
C39	C	0.968307	0.675791	-0.104432
C40	C	0.866454	0.675791	-0.104432
C41	C	1.188080	0.473101	-0.073110
C42	C	1.160816	0.404309	-0.062479
C43	C	0.715782	0.632364	-0.061006
C44	C	0.821053	0.632363	-0.061005
C45	C	1.500272	0.010760	-0.194834
C46	C	1.474631	-0.053872	-0.184836
C47	C	1.302986	0.013057	-0.117913
C48	C	1.328614	0.077695	-0.127903
C49	C	1.427258	0.076540	-0.166365
C50	C	1.255600	0.143476	-0.099433
C51	C	1.281225	0.208108	-0.109426
C52	C	1.379864	0.206961	-0.147888
C53	C	1.452883	0.141173	-0.176357
C54	C	1.156955	0.144630	-0.060976
C55	C	1.083941	0.210410	-0.032507
C56	C	1.109567	0.275044	-0.042494
C57	C	1.208205	0.273896	-0.080956
C58	C	1.036547	0.340832	-0.014025
C59	C	1.062172	0.405464	-0.024017
C60	C	1.233830	0.338529	-0.090949
C61	C	1.568517	0.675792	-0.104432
C62	C	1.670370	0.675792	-0.104432
C63	C	1.188064	0.707121	-0.307123
C64	C	1.160794	0.717754	-0.375914
C65	C	1.348744	0.878483	-0.135754
C66	C	1.376007	0.947274	-0.146385
C67	C	1.036538	0.766200	-0.439412
C68	C	1.062172	0.756205	-0.374776
C69	C	1.233821	0.689280	-0.441694
C70	C	1.208200	0.699267	-0.506337
C71	C	1.109557	0.737728	-0.505190
C72	C	1.281220	0.670795	-0.572114
C73	C	1.255602	0.680784	-0.636751
C74	C	1.156965	0.719245	-0.635611
C75	C	1.083940	0.747717	-0.569827
C76	C	1.379864	0.632338	-0.573260
C77	C	1.452884	0.603866	-0.639037
C78	C	1.427265	0.613851	-0.703675
C79	C	1.328628	0.652312	-0.702536
C80	C	1.500290	0.585379	-0.769460
C81	C	1.474673	0.595368	-0.834097
C82	C	1.303010	0.662301	-0.767173
C83	C	1.348760	0.644462	0.098259
C84	C	1.376030	0.633829	0.167050
C85	C	1.048638	0.878482	-0.135754
C86	C	0.974049	0.947274	-0.146384
C87	C	1.048655	0.644461	0.098259
C88	C	0.974071	0.633828	0.167050
C89	C	1.128987	0.847152	0.066937
C90	C	1.081667	0.905311	0.125098
C91	C	1.407837	0.504431	-0.275801
C92	C	1.455157	0.446272	-0.333962
C93	C	1.488185	0.473101	-0.073110
C94	C	1.562774	0.404310	-0.062480
C95	C	1.488169	0.707122	-0.307123
C96	C	1.562752	0.717755	-0.375915
C97	C	0.907643	0.946118	-0.184846
C98	C	0.837563	1.010751	-0.194849
C99	C	0.833887	1.076538	-0.166384
C100	C	0.900303	1.077692	-0.127921
C101	C	0.970386	1.013060	-0.117923
C102	C	0.970425	0.662295	0.232826
C103	C	0.900361	0.652301	0.297469
C104	C	0.833939	0.613843	0.296335
C105	C	0.837590	0.585372	0.230553
C106	C	0.907658	0.595363	0.165912
C107	C	1.059445	0.978326	0.106714
C108	C	1.014996	1.032979	0.161356
C109	C	0.992764	1.014615	0.234380
C110	C	1.014992	0.941592	0.252763
C111	C	1.059447	0.886941	0.198123
C112	C	1.477391	0.373257	-0.315578
C113	C	1.521869	0.318604	-0.370220
C114	C	1.544106	0.336968	-0.443244
C115	C	1.521872	0.409991	-0.461627
C116	C	1.477401	0.464642	-0.406987
C117	C	1.629188	0.405466	-0.024025
C118	C	1.699287	0.340836	-0.014040
C119	C	1.702966	0.275049	-0.042507
C120	C	1.636547	0.273895	-0.080967
C121	C	1.566454	0.338525	-0.090956
C122	C	1.629156	0.756217	-0.374758
C123	C	1.699231	0.766221	-0.439391
C124	C	1.702905	0.737759	-0.505179
C125	C	1.636492	0.699296	-0.506334
C126	C	1.566414	0.689297	-0.441703
H127	H	0.676724	0.595188	-0.023825
H128	H	1.003624	0.211341	-0.001193
C129	C	0.756781	1.147628	-0.177382
N130	N	0.698700	1.201170	-0.185665
H131	H	1.136093	0.092001	-0.052847
H132	H	0.956567	1.059123	0.278865
H133	H	1.077538	0.993293	0.047258
C134	C	1.493385	0.646973	-0.442985
N135	N	1.438384	0.615091	-0.443957
C136	C	0.896240	1.150064	-0.096608
N137	N	0.893171	1.204576	-0.073018
H138	H	0.860109	0.595180	-0.023829
H139	H	1.024449	1.014010	-0.086600
C140	C	0.990521	0.921403	0.333096
N141	N	0.972080	0.906198	0.393604
H142	H	1.024503	0.693610	0.233763
H143	H	0.956230	0.341762	0.017285
C144	C	0.911674	0.873760	-0.216169
N145	N	0.914708	0.819262	-0.239769
C146	C	1.593015	0.276841	-0.503343
N147	N	1.629848	0.231549	-0.548606
C148	C	1.546316	0.238283	-0.349982
N149	N	1.564729	0.177787	-0.334737
C150	C	1.083884	0.806622	0.218357
N151	N	1.102289	0.746127	0.233604
H152	H	0.897401	0.675489	0.351024
H153	H	1.760045	0.222429	-0.034368
C154	C	0.756858	0.602867	0.367448
N155	N	0.698799	0.594606	0.421012
H156	H	1.459295	0.524095	-0.421964
C157	C	0.723132	0.726017	-0.154666
N158	N	0.762874	0.763845	-0.192506
H159	H	1.626203	0.459026	-0.000837
H160	H	1.539983	0.424935	-0.521090
C161	C	1.772332	0.342121	0.028275
N162	N	1.827345	0.343090	0.060149
H163	H	1.639554	0.220323	-0.104142
C164	C	0.990541	1.113300	0.141118
N165	N	0.972120	1.173796	0.125873
C166	C	1.342347	0.337259	-0.133254
N167	N	1.424077	0.336305	-0.165117
C168	C	1.625128	0.787537	-0.302398
N169	N	1.622096	0.811134	-0.247899
H170	H	1.534095	-0.107433	-0.208024
C171	C	1.561399	0.139903	-0.218662
N172	N	1.643130	0.138949	-0.250525
C173	C	1.772281	0.808529	-0.438103
N174	N	1.827301	0.840394	-0.437131
H175	H	1.459284	0.358290	-0.256122
H176	H	1.400724	0.259590	-0.156025
C177	C	1.780001	0.748765	-0.576270
N178	N	1.838073	0.757055	-0.629813
H179	H	1.002702	0.779391	-0.321217
C180	C	1.608788	0.009490	-0.237139
N181	N	1.690519	0.008536	-0.269002
H182	H	1.639495	0.676125	-0.559908
H183	H	0.827409	0.712971	-0.141616
H184	H	1.222670	0.013988	-0.086599
H185	H	1.400719	0.624208	-0.520626
C186	C	0.981854	0.477826	0.007304
N187	N	0.921356	0.532330	0.030895
H188	H	0.956210	0.797511	-0.438476
H189	H	1.222682	0.693612	-0.766236
C190	C	0.975426	0.790024	-0.568567
N191	N	0.893699	0.821891	-0.567620
H192	H	0.783491	1.009797	-0.226168
C193	C	0.764512	0.543073	0.229318
N194	N	0.709464	0.511218	0.228389
H195	H	1.314137	0.657968	-0.442618
C196	C	1.561390	0.561565	-0.640290
N197	N	1.643118	0.529703	-0.641235
C198	C	1.555000	0.564051	-0.906456
N199	N	1.615506	0.540465	-0.960959
H200	H	1.136111	0.727381	-0.688245
H201	H	1.580607	0.554070	-0.770383
H202	H	0.910613	0.572182	0.112357
H203	H	1.512378	0.337573	-0.122267
