data_functionalizedCrystal
_audit_creation_method	'MofGen! by Chris Wilmer'
_symmetry_space_group_name_H-M	'P1'
_symmetry_Int_Tables_number	1
_symmetry_cell_setting	triclinic
loop_
_symmetry_equiv_pos_as_xyz
  x,y,z
_cell_length_a	9.065218
_cell_length_b	23.532407
_cell_length_c	7.540329
_cell_angle_alpha	89.991770
_cell_angle_beta	89.996962
_cell_angle_gamma	83.932281
loop_
_atom_site_label
_atom_site_type_symbol
_atom_site_fract_x
_atom_site_fract_y
_atom_site_fract_z
O1	O	1.956284	0.083497	-0.147508
O2	O	1.526662	0.090346	-0.147513
O3	O	1.754428	0.004085	-0.147478
O4	O	1.728517	0.169758	-0.147543
O5	O	1.754415	0.004084	0.147487
O6	O	1.526648	0.090345	0.147453
O7	O	1.956270	0.083496	0.147457
Cu8	Cu	1.741458	0.086921	0.174387
Cu9	Cu	1.741474	0.086922	-0.174443
O10	O	1.728504	0.169757	0.147422
C11	C	1.471701	0.089687	-0.000030
C12	C	1.307955	0.087719	-0.000030
C13	C	1.753761	-0.017136	0.000009
C14	C	1.751778	-0.080368	0.000023
C15	C	1.874123	-0.478573	-0.000073
C16	C	1.872280	-0.537986	-0.000087
O17	O	1.985695	-0.573898	-0.000151
N18	N	1.736873	-0.561607	-0.000087
C19	C	1.603300	-0.525810	-0.000091
O20	O	1.487956	-0.551356	-0.000094
C21	C	1.605144	-0.466397	-0.000090
C22	C	1.740560	-0.442780	-0.000072
C23	C	2.009527	-0.454955	-0.000057
C24	C	2.011370	-0.395546	-0.000040
C25	C	1.877807	-0.359753	-0.000040
C26	C	1.742402	-0.383371	-0.000056
C27	C	1.471573	-0.430601	-0.000108
C28	C	1.473429	-0.371185	-0.000108
C29	C	1.608845	-0.347568	-0.000090
C30	C	1.610682	-0.288169	-0.000038
N31	N	1.746089	-0.264548	-0.000038
C32	C	1.879651	-0.300341	-0.000039
C33	C	1.599437	-0.650581	-0.000096
C34	C	1.597591	-0.709992	-0.000084
C35	C	1.866571	-0.722165	-0.000083
C36	C	1.868416	-0.662752	-0.000082
C37	C	1.734844	-0.626960	-0.000096
C38	C	1.883510	-0.175576	-0.000002
C39	C	1.885340	-0.116160	0.000022
C40	C	1.616360	-0.103993	0.000011
C41	C	1.614529	-0.163403	-0.000003
C42	C	1.748116	-0.199194	-0.000016
O43	O	1.497326	-0.252222	0.000019
O44	O	1.994976	-0.274786	-0.000059
C45	C	2.011231	0.084155	-0.000030
C46	C	2.174977	0.086123	-0.000041
C47	C	1.729170	0.190979	-0.000069
C48	C	1.731154	0.254210	-0.000094
N49	N	1.741458	0.086919	0.419736
N50	N	1.741486	0.086919	-0.419792
H51	H	1.995617	-0.096935	0.000041
H52	H	2.118297	-0.484092	-0.000064
H53	H	1.507618	-0.074840	0.000018
H54	H	1.978683	-0.643528	-0.000069
H55	H	1.504263	-0.182633	0.000031
H56	H	1.490659	-0.621442	-0.000092
C57	C	2.013489	-0.761544	-0.000117
H58	H	1.992986	-0.800309	-0.000144
H59	H	2.069066	-0.754321	0.102736
H60	H	2.069040	-0.754302	-0.102998
H61	H	1.992289	-0.204710	-0.000019
H62	H	2.121639	-0.376323	-0.000033
C63	C	1.326500	-0.331815	-0.000122
H64	H	1.346980	-0.293048	-0.000127
H65	H	1.270927	-0.339058	0.102729
H66	H	1.270956	-0.339046	-0.103006
C67	C	1.448634	-0.735964	-0.000090
H68	H	1.369361	-0.706134	-0.000100
H69	H	1.442307	-0.758896	0.102761
H70	H	1.442326	-0.758879	-0.102973
C71	C	1.322613	-0.456567	-0.000143
H72	H	1.243346	-0.426734	-0.000166
H73	H	1.316270	-0.479498	0.102708
H74	H	1.316310	-0.479482	-0.103026
