data_functionalizedCrystal
_audit_creation_method	'MofGen! by Chris Wilmer'
_symmetry_space_group_name_H-M	'P1'
_symmetry_Int_Tables_number	1
_symmetry_cell_setting	triclinic
loop_
_symmetry_equiv_pos_as_xyz
  x,y,z
_cell_length_a	16.625548
_cell_length_b	29.839131
_cell_length_c	16.625539
_cell_angle_alpha	90.032094
_cell_angle_beta	90.020568
_cell_angle_gamma	90.042488
loop_
_atom_site_label
_atom_site_type_symbol
_atom_site_fract_x
_atom_site_fract_y
_atom_site_fract_z
Zn1	Zn	1.232574	-0.178840	0.455888
Zn2	Zn	1.565908	0.154494	0.789221
Zn3	Zn	1.899241	0.487827	1.122555
Zn4	Zn	1.232433	-0.253971	0.321046
Zn5	Zn	1.565766	0.079363	0.654380
Zn6	Zn	1.899100	0.412696	0.987713
Zn7	Zn	1.097736	-0.178857	0.321069
Zn8	Zn	1.431069	0.154476	0.654402
Zn9	Zn	1.764403	0.487810	0.987735
Zn10	Zn	1.097662	-0.253945	0.455836
Zn11	Zn	1.430995	0.079388	0.789170
Zn12	Zn	1.764329	0.412722	1.122503
O13	O	1.165101	-0.216403	0.388460
O14	O	1.498435	0.116930	0.721793
O15	O	1.831768	0.450264	1.055126
O16	O	1.345388	-0.188810	0.438013
O17	O	1.678721	0.144524	0.771347
O18	O	2.012055	0.477857	1.104680
O19	O	1.214537	-0.244025	0.208217
O20	O	1.547870	0.089309	0.541550
O21	O	1.881204	0.422642	0.874884
O22	O	1.115713	-0.115987	0.338984
O23	O	1.449046	0.217346	0.672317
O24	O	1.782380	0.550679	1.005650
O25	O	1.345284	-0.244008	0.338946
O26	O	1.678617	0.089325	0.672279
O27	O	2.011951	0.422659	1.005612
O28	O	1.214778	-0.115975	0.438035
O29	O	1.548111	0.217358	0.771368
O30	O	1.881445	0.550692	1.104702
O31	O	1.115576	-0.188839	0.208233
O32	O	1.448909	0.144495	0.541567
O33	O	1.782242	0.477828	0.874900
O34	O	0.984894	-0.188814	0.338933
O35	O	1.318227	0.144520	0.672267
O36	O	1.651561	0.477853	1.005600
O37	O	1.115586	-0.243964	0.568676
O38	O	1.448920	0.089369	0.902009
O39	O	1.782253	0.422703	1.235342
O40	O	0.984839	-0.243981	0.437947
O41	O	1.318173	0.089353	0.771280
O42	O	1.651506	0.422686	1.104613
O43	O	1.214706	-0.188785	0.568714
O44	O	1.548039	0.144549	0.902047
O45	O	1.881373	0.477882	1.235380
O46	O	1.214465	-0.316834	0.338896
O47	O	1.547798	0.016499	0.672229
O48	O	1.881132	0.349832	1.005562
O49	O	1.115449	-0.316815	0.437925
O50	O	1.448783	0.016518	0.771258
O51	O	1.782116	0.349851	1.104592
C52	C	0.955610	-0.216397	0.388437
C53	C	1.288944	0.116937	0.721771
C54	C	1.622277	0.450270	1.055104
C55	C	0.865989	-0.216405	0.388447
C56	C	1.199323	0.116929	0.721780
C57	C	1.532656	0.450262	1.055113
C58	C	0.537814	-0.216408	0.388481
C59	C	0.871147	0.116926	0.721815
C60	C	1.204480	0.450259	1.055148
C61	C	0.629122	-0.216406	0.388469
C62	C	0.962455	0.116928	0.721802
C63	C	1.295789	0.450261	1.055136
C64	C	0.701899	-0.216406	0.388463
C65	C	1.035232	0.116927	0.721797
C66	C	1.368565	0.450260	1.055130
C67	C	0.793213	-0.216404	0.388452
C68	C	1.126546	0.116929	0.721786
C69	C	1.459880	0.450263	1.055119
C70	C	1.164956	-0.333126	0.388420
C71	C	1.498289	0.000208	0.721753
C72	C	1.831622	0.333541	1.055087
C73	C	1.164967	-0.383060	0.388430
C74	C	1.498301	-0.049727	0.721763
C75	C	1.831634	0.283607	1.055096
C76	C	1.216752	-0.692701	0.336971
C77	C	1.550086	-0.359367	0.670304
C78	C	1.883419	-0.026034	1.003637
C79	C	1.216852	-0.880374	0.337002
C80	C	1.550185	-0.547040	0.670335
C81	C	1.883519	-0.213707	1.003668
O82	O	1.260766	-0.904636	0.293219
O83	O	1.594100	-0.571303	0.626552
O84	O	1.927433	-0.237969	0.959885
N85	N	1.165268	-0.903845	0.388521
N86	N	1.498602	-0.570512	0.721854
N87	N	1.831935	-0.237178	1.055187
C88	C	1.113660	-0.880395	0.440039
C89	C	1.446993	-0.547062	0.773372
C90	C	1.780327	-0.213729	1.106706
O91	O	1.069793	-0.904665	0.483866
O92	O	1.403127	-0.571332	0.817199
O93	O	1.736460	-0.237999	1.150532
C94	C	1.113565	-0.692723	0.440011
C95	C	1.446899	-0.359390	0.773345
C96	C	1.780232	-0.026056	1.106678
C97	C	1.165146	-0.669254	0.388483
C98	C	1.498480	-0.335921	0.721817
C99	C	1.831813	-0.002588	1.055150
C100	C	1.268330	-0.669232	0.285447
C101	C	1.601663	-0.335898	0.618781
C102	C	1.934997	-0.002565	0.952114
C103	C	1.268302	-0.622316	0.285437
C104	C	1.601635	-0.288983	0.618770
C105	C	1.934968	0.044351	0.952104
C106	C	1.216695	-0.598870	0.336950
C107	C	1.550029	-0.265536	0.670283
C108	C	1.883362	0.067797	1.003616
C109	C	1.165118	-0.622339	0.388473
C110	C	1.498451	-0.289005	0.721806
C111	C	1.831785	0.044328	1.055140
C112	C	1.061962	-0.669274	0.491533
C113	C	1.395295	-0.335941	0.824866
C114	C	1.728628	-0.002608	1.158200
C115	C	1.061944	-0.622353	0.491523
C116	C	1.395277	-0.289020	0.824856
C117	C	1.728611	0.044313	1.158190
C118	C	1.113525	-0.598884	0.439995
C119	C	1.446858	-0.265551	0.773328
C120	C	1.780192	0.067782	1.106662
C121	C	1.113483	-0.551977	0.439975
C122	C	1.446817	-0.218644	0.773309
C123	C	1.780150	0.114690	1.106642
N124	N	1.165067	-0.528505	0.388456
N125	N	1.498400	-0.195172	0.721790
N126	N	1.831734	0.138161	1.055123
C127	C	1.216673	-0.551952	0.336944
C128	C	1.550006	-0.218619	0.670277
C129	C	1.883340	0.114715	1.003610
C130	C	1.113712	-0.978926	0.440049
C131	C	1.447046	-0.645593	0.773382
C132	C	1.780379	-0.312259	1.106716
C133	C	1.113735	-1.025844	0.440055
C134	C	1.447068	-0.692510	0.773388
C135	C	1.780402	-0.359177	1.106722
C136	C	1.216928	-1.025819	0.337019
C137	C	1.550262	-0.692485	0.670352
C138	C	1.883595	-0.359152	1.003685
C139	C	1.216901	-0.978900	0.337009
C140	C	1.550234	-0.645567	0.670342
C141	C	1.883568	-0.312233	1.003676
C142	C	1.165296	-0.955455	0.388530
C143	C	1.498629	-0.622121	0.721863
C144	C	1.831963	-0.288788	1.055197
C145	C	1.216609	-0.453426	0.336925
C146	C	1.549942	-0.120093	0.670258
C147	C	1.883275	0.213241	1.003592
C148	C	1.216573	-0.406506	0.336917
C149	C	1.549907	-0.073173	0.670250
C150	C	1.883240	0.260160	1.003584
C151	C	1.113383	-0.406535	0.439956
C152	C	1.446717	-0.073202	0.773289
C153	C	1.780050	0.260131	1.106623
C154	C	1.113416	-0.453451	0.439962
C155	C	1.446749	-0.120118	0.773295
C156	C	1.780082	0.213216	1.106628
C157	C	1.165035	-0.476895	0.388443
C158	C	1.498368	-0.143562	0.721777
C159	C	1.831701	0.189772	1.055110
O160	O	1.069599	-0.527685	0.483742
O161	O	1.402932	-0.194352	0.817075
O162	O	1.736265	0.138981	1.150409
O163	O	1.260546	-0.527674	0.293136
O164	O	1.593879	-0.194340	0.626470
O165	O	1.927212	0.138993	0.959803
C166	C	1.216781	-0.739616	0.336981
C167	C	1.550114	-0.406283	0.670314
C168	C	1.883448	-0.072949	1.003648
C169	C	1.165203	-0.763085	0.388504
C170	C	1.498537	-0.429752	0.721837
C171	C	1.831870	-0.096418	1.055171
C172	C	1.113597	-0.739639	0.440017
C173	C	1.446931	-0.406305	0.773350
C174	C	1.780264	-0.072972	1.106683
C175	C	1.165226	-0.810003	0.388510
C176	C	1.498559	-0.476670	0.721843
C177	C	1.831893	-0.143336	1.055177
C178	C	1.216832	-0.833449	0.336997
C179	C	1.550165	-0.500116	0.670331
C180	C	1.883499	-0.166783	1.003664
C181	C	1.268416	-0.809978	0.285479
C182	C	1.601749	-0.476645	0.618812
C183	C	1.935082	-0.143311	0.952145
C184	C	1.268387	-0.763062	0.285468
C185	C	1.601720	-0.429729	0.618802
C186	C	1.935054	-0.096396	0.952135
C187	C	1.062014	-0.763110	0.491536
C188	C	1.395347	-0.429777	0.824869
C189	C	1.728680	-0.096443	1.158202
C190	C	1.062046	-0.810026	0.491541
C191	C	1.395379	-0.476692	0.824875
C192	C	1.728713	-0.143359	1.158208
C193	C	1.113652	-0.833472	0.440028
C194	C	1.446985	-0.500139	0.773362
C195	C	1.780319	-0.166805	1.106695
C196	C	1.375410	-0.216410	0.388483
C197	C	1.708743	0.116924	0.721816
C198	C	2.042077	0.450257	1.055150
C199	C	1.465031	-0.216413	0.388493
C200	C	1.798365	0.116921	0.721826
C201	C	2.131698	0.450254	1.055159
C202	C	1.165154	-0.216370	0.598769
C203	C	1.498487	0.116964	0.932102
C204	C	1.831820	0.450297	1.265435
C205	C	1.165176	-0.216355	0.688390
C206	C	1.498509	0.116978	1.021723
C207	C	1.831843	0.450311	1.355057
C208	C	1.165269	-0.099225	0.388518
C209	C	1.498603	0.234109	0.721851
C210	C	1.831936	0.567442	1.055184
C211	C	1.165341	-0.049290	0.388542
C212	C	1.498674	0.284043	0.721876
C213	C	1.832008	0.617376	1.055209
C214	C	1.165095	-0.216404	0.178969
C215	C	1.498429	0.116929	0.512302
C216	C	1.831762	0.450263	0.845636
C217	C	1.165229	-0.216292	0.089348
C218	C	1.498563	0.117042	0.422682
C219	C	1.831896	0.450375	0.756015
C220	C	1.165213	-0.216305	1.016566
C221	C	1.498547	0.117028	1.349899
C222	C	1.831880	0.450362	1.683233
C223	C	1.165201	-0.216320	0.925257
C224	C	1.498534	0.117013	1.258591
C225	C	1.831867	0.450346	1.591924
C226	C	1.165195	-0.216330	0.852481
C227	C	1.498528	0.117003	1.185814
C228	C	1.831862	0.450336	1.519148
C229	C	1.165182	-0.216345	0.761167
C230	C	1.498515	0.116988	1.094500
C231	C	1.831848	0.450321	1.427833
H232	H	1.258577	-0.387399	0.294954
H233	H	1.591910	-0.054066	0.628287
H234	H	1.925243	0.279267	0.961621
N235	N	1.060670	-0.382574	0.492561
N236	N	1.394003	-0.049240	0.825894
N237	N	1.727336	0.284093	1.159227
N238	N	1.060659	-0.340683	0.492538
N239	N	1.393992	-0.007350	0.825871
N240	N	1.727326	0.325984	1.159205
H241	H	1.023432	-0.323758	0.529692
H242	H	1.356765	0.009575	0.863026
H243	H	1.690098	0.342908	1.196359
N244	N	1.321083	-0.739090	0.232843
N245	N	1.654416	-0.405757	0.566177
N246	N	1.987749	-0.072424	0.899510
N247	N	1.372438	-0.712869	0.261245
N248	N	1.705771	-0.379536	0.594578
N249	N	2.039104	-0.046202	0.927912
H250	H	1.409655	-0.695940	0.224076
H251	H	1.742988	-0.362606	0.557409
H252	H	2.076322	-0.029273	0.890742
H253	H	1.258903	-0.959794	0.295051
H254	H	1.592236	-0.626461	0.628384
H255	H	1.925570	-0.293128	0.961718
H256	H	1.310433	-0.829076	0.243533
H257	H	1.643766	-0.495743	0.576866
H258	H	1.977100	-0.162410	0.910199
H259	H	1.020035	-0.829130	0.533501
H260	H	1.353369	-0.495797	0.866834
H261	H	1.686702	-0.162463	1.200167
H262	H	1.310306	-0.603210	0.243481
H263	H	1.643639	-0.269877	0.576814
H264	H	1.976972	0.063456	0.910148
N265	N	1.060735	-0.477425	0.492604
N266	N	1.394068	-0.144092	0.825937
N267	N	1.727402	0.189242	1.159271
N268	N	1.089096	-0.503563	0.544023
N269	N	1.422429	-0.170230	0.877356
N270	N	1.755762	0.163103	1.210690
H271	H	1.051894	-0.520492	0.581209
H272	H	1.385228	-0.187159	0.914543
H273	H	1.718561	0.146175	1.247876
N274	N	1.269635	-1.049773	0.284390
N275	N	1.602968	-0.716440	0.617723
N276	N	1.936302	-0.383106	0.951056
N277	N	1.241310	-1.075989	0.232987
N278	N	1.574643	-0.742655	0.566320
N279	N	1.907977	-0.409322	0.899654
H280	H	1.278535	-1.092908	0.195822
H281	H	1.611868	-0.759575	0.529155
H282	H	1.945201	-0.426241	0.862489
N283	N	1.061005	-0.954975	0.492682
N284	N	1.394338	-0.621642	0.826016
N285	N	1.727672	-0.288309	1.159349
N286	N	1.089329	-0.928764	0.544093
N287	N	1.422662	-0.595431	0.877426
N288	N	1.755996	-0.262097	1.210759
H289	H	1.052104	-0.911850	0.581266
H290	H	1.385437	-0.578517	0.914599
H291	H	1.718770	-0.245184	1.247933
N292	N	1.009294	-0.739171	0.544166
N293	N	1.342627	-0.405838	0.877499
N294	N	1.675961	-0.072504	1.210832
N295	N	0.963247	-0.760138	0.590158
N296	N	1.296580	-0.426805	0.923491
N297	N	1.629914	-0.093471	1.256825
H298	H	0.926007	-0.743233	0.627330
H299	H	1.259341	-0.409900	0.960663
H300	H	1.592674	-0.076567	1.293996
N301	N	1.061027	-1.049814	0.492671
N302	N	1.394360	-0.716480	0.826004
N303	N	1.727694	-0.383147	1.159337
N304	N	0.986627	-1.044615	0.487250
N305	N	1.319960	-0.711281	0.820583
N306	N	1.653294	-0.377948	1.153917
H307	H	0.949401	-1.061542	0.524413
H308	H	1.282734	-0.728209	0.857746
H309	H	1.616068	-0.394876	1.191080
N310	N	1.269339	-0.477362	0.284295
N311	N	1.602672	-0.144029	0.617628
N312	N	1.936006	0.189304	0.950962
N313	N	1.315380	-0.456395	0.238297
N314	N	1.648713	-0.123061	0.571631
N315	N	1.982047	0.210272	0.904964
H316	H	1.352617	-0.473299	0.201123
H317	H	1.685951	-0.139966	0.534456
H318	H	2.019284	0.193368	0.867789
H319	H	1.310358	-0.688317	0.243499
H320	H	1.643692	-0.354983	0.576833
H321	H	1.977025	-0.021650	0.910166
N322	N	1.009264	-0.693238	0.544162
N323	N	1.342597	-0.359905	0.877496
N324	N	1.675930	-0.026572	1.210829
N325	N	0.934863	-0.688038	0.538751
N326	N	1.268196	-0.354705	0.872084
N327	N	1.601530	-0.021372	1.205418
H328	H	0.897641	-0.704962	0.575924
H329	H	1.230975	-0.371629	0.909257
H330	H	1.564308	-0.038295	1.242591
N331	N	1.009229	-0.598412	0.544162
N332	N	1.342562	-0.265079	0.877496
N333	N	1.675895	0.068255	1.210829
N334	N	0.963185	-0.619376	0.590163
N335	N	1.296518	-0.286042	0.923496
N336	N	1.629851	0.047291	1.256829
H337	H	0.925954	-0.602468	0.627339
H338	H	1.259287	-0.269135	0.960673
H339	H	1.592620	0.064198	1.294006
