data_functionalizedCrystal
_audit_creation_method	'MofGen! by Chris Wilmer'
_symmetry_space_group_name_H-M	'P1'
_symmetry_Int_Tables_number	1
_symmetry_cell_setting	triclinic
loop_
_symmetry_equiv_pos_as_xyz
  x,y,z
_cell_length_a	16.625548
_cell_length_b	19.121063
_cell_length_c	19.120904
_cell_angle_alpha	94.741613
_cell_angle_beta	92.422750
_cell_angle_gamma	92.470058
loop_
_atom_site_label
_atom_site_type_symbol
_atom_site_fract_x
_atom_site_fract_y
_atom_site_fract_z
Zn1	Zn	1.198001	-0.297091	-0.409769
Zn2	Zn	1.197901	-0.409738	-0.297120
Zn3	Zn	1.069179	-0.292094	-0.292122
Zn4	Zn	1.057117	-0.414721	-0.414741
O5	O	1.130549	-0.353411	-0.353438
O6	O	1.310819	-0.312040	-0.394837
O7	O	1.185832	-0.389956	-0.197997
O8	O	1.091357	-0.194294	-0.303556
O9	O	1.310746	-0.394801	-0.312074
O10	O	1.186002	-0.197966	-0.389991
O11	O	1.091260	-0.303523	-0.194325
O12	O	0.954747	-0.308355	-0.308377
O13	O	1.070799	-0.403293	-0.512542
O14	O	0.945885	-0.398448	-0.398464
O15	O	1.174306	-0.316871	-0.508889
O16	O	1.174136	-0.508862	-0.316895
O17	O	1.070702	-0.512522	-0.403310
C18	C	0.921060	-0.353400	-0.353418
C19	C	0.831438	-0.353413	-0.353427
C20	C	1.121121	-0.536223	-0.361200
C21	C	1.117159	-0.614432	-0.364544
C22	C	0.503261	-0.353419	-0.353457
C23	C	0.594570	-0.353415	-0.353446
C24	C	0.667346	-0.353416	-0.353441
C25	C	0.758661	-0.353412	-0.353432
C26	C	1.169189	-0.649247	-0.321160
C27	C	1.165468	-0.722733	-0.324309
C28	C	1.109713	-0.761402	-0.370839
C29	C	1.057681	-0.726582	-0.414227
C30	C	1.061407	-0.653098	-0.411081
C31	C	1.095772	-0.983374	-0.382590
C32	C	1.092049	-1.056863	-0.385731
C33	C	1.199838	-1.053009	-0.295814
C34	C	1.203555	-0.979523	-0.292669
C35	C	1.151526	-0.944710	-0.336060
C36	C	1.105907	-0.836516	-0.374057
C37	C	1.155337	-0.869597	-0.332845
C38	C	1.340857	-0.353422	-0.353459
C39	C	1.430477	-0.353427	-0.353467
C40	C	1.121218	-0.361196	-0.536959
C41	C	1.117242	-0.364513	-0.615164
C42	C	1.140036	-0.169886	-0.345662
C43	C	1.144079	-0.091678	-0.342348
C44	C	1.169262	-0.321078	-0.650005
C45	C	1.165516	-0.324193	-0.723488
C46	C	1.109753	-0.370746	-0.762128
C47	C	1.057728	-0.414182	-0.727282
C48	C	1.061471	-0.411064	-0.653801
C49	C	1.095753	-0.382409	-0.984089
C50	C	1.092016	-0.385525	-1.057575
C51	C	1.199804	-0.295534	-1.053775
C52	C	1.203544	-0.292423	-0.980293
C53	C	1.151516	-0.335857	-0.945453
C54	C	1.105925	-0.373932	-0.837239
C55	C	1.155342	-0.332667	-0.870344
C56	C	1.139893	-0.345606	-0.170629
C57	C	1.144036	-0.342090	-0.092416
H58	H	1.214587	-0.617767	-0.283268
Cl59	Cl	1.225433	-0.274138	-0.821766
H60	H	1.053407	-0.955034	-0.417919
H61	H	1.053400	-0.417786	-0.955732
Cl62	Cl	1.265203	-0.240933	-1.097577
H63	H	1.060526	-0.411838	-0.868708
Cl64	Cl	0.987623	-0.472704	-0.775859
H65	H	1.242198	-1.081362	-0.260489
Cl66	Cl	1.273649	-0.233897	-0.931721
H67	H	1.046656	-1.088346	-0.423634
H68	H	1.019103	-0.446426	-0.625434
H69	H	1.207836	-0.751076	-0.288981
H70	H	1.046605	-0.423436	-1.089034
Cl71	Cl	0.987593	-0.775195	-0.472726
Cl72	Cl	1.273661	-0.930916	-0.234182
Cl73	Cl	0.995997	-0.609330	-0.465625
H74	H	1.200736	-0.838110	-0.294963
Cl75	Cl	1.035816	-0.885135	-0.432549
Cl76	Cl	1.239371	-0.262555	-0.601436
H77	H	1.207878	-0.288825	-0.751851
