data_functionalizedCrystal
_audit_creation_method	'MofGen! by Chris Wilmer'
_symmetry_space_group_name_H-M	'P1'
_symmetry_Int_Tables_number	1
_symmetry_cell_setting	triclinic
loop_
_symmetry_equiv_pos_as_xyz
  x,y,z
_cell_length_a	15.944551
_cell_length_b	10.489741
_cell_length_c	9.565339
_cell_angle_alpha	90.000900
_cell_angle_beta	89.999279
_cell_angle_gamma	95.981044
loop_
_atom_site_label
_atom_site_type_symbol
_atom_site_fract_x
_atom_site_fract_y
_atom_site_fract_z
O1	O	0.118501	-1.692410	-0.116177
O2	O	0.129624	-1.321060	-0.116199
O3	O	0.001849	-1.516876	-0.116175
O4	O	0.246276	-1.496594	-0.116201
O5	O	0.001857	-1.516860	0.116345
O6	O	0.129632	-1.321045	0.116321
O7	O	0.118509	-1.692395	0.116343
Zn8	Zn	0.124072	-1.506717	0.153250
Zn9	Zn	0.124061	-1.506738	-0.153106
O10	O	0.246284	-1.496579	0.116319
C11	C	0.128788	-1.273532	0.000058
C12	C	0.126275	-1.131938	0.000050
C13	C	-0.029446	-1.516026	0.000085
C14	C	-0.122708	-1.513502	0.000086
C15	C	0.119345	-1.739922	0.000083
C16	C	0.121858	-1.881517	0.000082
C17	C	-0.338330	-1.386093	0.000059
C18	C	-0.398988	-1.445250	0.114709
C19	C	-0.293461	-1.508935	0.000075
C20	C	-0.398979	-1.445294	-0.114537
C21	C	-0.458400	-1.504515	0.000058
C22	C	-0.352890	-1.568126	0.114820
C23	C	-0.352875	-1.568153	-0.114530
C24	C	-0.413515	-1.627399	0.000148
C25	C	-0.198443	-1.511478	0.000086
C26	C	-0.553417	-1.501982	0.000058
C27	C	0.277579	-1.497429	0.000056
C28	C	0.370841	-1.499953	0.000046
N29	N	0.124078	-1.506713	0.362329
C30	C	0.044975	-1.064925	0.000072
C31	C	0.083376	-0.972273	-0.114573
C32	C	0.083403	-0.972292	0.114673
C33	C	0.164709	-1.041151	-0.114690
C34	C	0.164725	-1.041179	0.114659
C35	C	0.203186	-0.948554	-0.000014
N36	N	0.124048	-1.506752	-0.362185
C37	C	0.183150	-1.416127	0.453521
C38	C	0.200146	-1.531388	0.546705
C39	C	0.107089	-1.391501	0.546701
C40	C	0.141112	-1.622032	0.453461
C41	C	0.048022	-1.482069	0.453449
C42	C	0.064986	-1.597414	0.546591
H43	H	-0.419405	-1.393286	0.211631
O44	O	-0.452471	-1.749069	0.000125
C45	C	-0.540612	-1.745398	-0.001005
H46	H	-0.555990	-1.649789	-0.045647
H47	H	-0.565934	-1.756512	0.110269
C48	C	-0.563022	-1.972957	-0.037422
C49	C	-0.581911	-1.855532	-0.092262
H50	H	-0.588499	-2.040896	-0.093708
H51	H	-0.503641	-1.975432	-0.036655
H52	H	-0.584126	-1.982201	0.055305
H53	H	-0.560799	-1.846284	-0.184981
H54	H	-0.641291	-1.853059	-0.093047
O55	O	0.005359	-1.689013	0.594813
C56	C	-0.035833	-1.753604	0.480759
H57	H	0.006791	-1.743189	0.384872
H58	H	-0.097065	-1.710357	0.457764
C59	C	-0.108042	-1.909443	0.634531
C60	C	-0.055688	-1.896660	0.516764
H61	H	-0.120294	-1.997685	0.656741
H62	H	-0.080293	-1.865924	0.711373
H63	H	-0.159063	-1.873396	0.615353
H64	H	-0.004664	-1.932692	0.535949
H65	H	-0.083429	-1.940188	0.439925
O66	O	-0.328525	-1.629965	0.230542
C67	C	-0.240218	-1.631574	0.229165
H68	H	-0.210517	-1.549701	0.161215
H69	H	-0.223894	-1.726814	0.184849
C70	C	-0.242411	-1.715834	0.462772
C71	C	-0.205930	-1.615269	0.379324
H72	H	-0.221259	-1.705782	0.555397
H73	H	-0.301905	-1.714755	0.463699
H74	H	-0.228804	-1.795190	0.425825
H75	H	-0.219546	-1.535916	0.416261
H76	H	-0.146437	-1.616335	0.378407
H77	H	0.233152	-1.339591	0.412657
H78	H	-0.332436	-1.620072	-0.211456
O79	O	-0.028637	-1.456906	0.404595
C80	C	-0.046296	-1.335278	0.452048
H81	H	0.015263	-1.274744	0.478253
H82	H	-0.087526	-1.346943	0.549523
C83	C	-0.168657	-1.342781	0.304622
C84	C	-0.093048	-1.268428	0.336797
H85	H	-0.197499	-1.301546	0.233534
H86	H	-0.156762	-1.424726	0.272656
H87	H	-0.203004	-1.352496	0.385862
H88	H	-0.058698	-1.258728	0.255563
H89	H	-0.104938	-1.186479	0.368747
O90	O	0.205858	-1.077691	0.230137
C91	C	0.277125	-1.137495	0.189031
H92	H	0.297021	-1.104482	0.079290
H93	H	0.260904	-1.245943	0.189443
C94	C	0.325574	-1.141469	0.426600
C95	C	0.350015	-1.100914	0.291819
H96	H	0.370535	-1.118910	0.490007
H97	H	0.277558	-1.101183	0.454296
H98	H	0.312055	-1.231840	0.426924
H99	H	0.363522	-1.010543	0.291493
H100	H	0.398035	-1.141184	0.264125
O101	O	0.276918	-1.556073	0.595519
C102	C	0.339035	-1.460346	0.548082
H103	H	0.308371	-1.369846	0.521935
H104	H	0.370635	-1.495640	0.450574
C105	C	0.443289	-1.541507	0.695418
C106	C	0.405627	-1.430349	0.663315
H107	H	0.484368	-1.523007	0.766495
H108	H	0.401440	-1.606004	0.727374
H109	H	0.469615	-1.570907	0.614152
H110	H	0.379293	-1.400960	0.744575
H111	H	0.447473	-1.365847	0.631375
O112	O	0.158415	-1.738196	0.404584
C113	C	0.158266	-1.736750	0.257193
H114	H	0.170792	-1.633689	0.218648
H115	H	0.094265	-1.780386	0.217226
C116	C	0.212255	-1.942024	0.249587
C117	C	0.227646	-1.815444	0.202246
H118	H	0.255049	-1.990570	0.215691
H119	H	0.212352	-1.943001	0.348888
H120	H	0.158918	-1.978370	0.216278
H121	H	0.280977	-1.779095	0.235570
H122	H	0.227560	-1.814462	0.102950
O123	O	0.090054	-1.275143	0.595391
C124	C	0.152521	-1.179921	0.547997
H125	H	0.183513	-1.215127	0.449871
H126	H	0.202211	-1.158883	0.632910
C127	C	0.073703	-1.013523	0.634593
C128	C	0.111763	-1.056761	0.514067
H129	H	0.048564	-0.937550	0.613669
H130	H	0.031619	-1.077676	0.666529
H131	H	0.115118	-0.996002	0.705343
H132	H	0.070346	-1.074297	0.443326
H133	H	0.153839	-0.992608	0.482119
H134	H	-0.021859	-1.115541	-0.000064
O135	O	-0.299358	-1.264432	0.000428
C136	C	-0.322738	-1.200120	0.121513
H137	H	-0.344286	-1.273334	0.205583
H138	H	-0.376487	-1.140513	0.095351
C139	C	-0.220100	-1.021565	0.072297
C140	C	-0.246558	-1.111488	0.175558
H141	H	-0.173110	-0.966888	0.105633
H142	H	-0.204349	-1.064890	-0.009283
H143	H	-0.264897	-0.971906	0.050505
H144	H	-0.201765	-1.161156	0.197335
H145	H	-0.262299	-1.068169	0.257144
H146	H	0.199079	-1.071509	-0.211724
O147	O	-0.423206	-1.383128	-0.230131
C148	C	-0.384576	-1.255949	-0.229680
H149	H	-0.325212	-1.249831	-0.162562
H150	H	-0.430224	-1.189793	-0.184939
C151	C	-0.433819	-1.222169	-0.462724
C152	C	-0.360903	-1.214657	-0.380298
H153	H	-0.419219	-1.196695	-0.555632
H154	H	-0.459847	-1.307850	-0.463027
H155	H	-0.471851	-1.167039	-0.425424
H156	H	-0.322876	-1.269798	-0.417589
H157	H	-0.334867	-1.128984	-0.380005
H158	H	0.048973	-0.941742	-0.211493
H159	H	0.270090	-0.898203	-0.000084
H160	H	0.048992	-0.941784	0.211598
