data_functionalizedCrystal
_audit_creation_method	'MofGen! by Chris Wilmer'
_symmetry_space_group_name_H-M	'P1'
_symmetry_Int_Tables_number	1
_symmetry_cell_setting	triclinic
loop_
_symmetry_equiv_pos_as_xyz
  x,y,z
_cell_length_a	10.654550
_cell_length_b	10.489741
_cell_length_c	9.130313
_cell_angle_alpha	89.995761
_cell_angle_beta	89.999724
_cell_angle_gamma	84.512052
loop_
_atom_site_label
_atom_site_type_symbol
_atom_site_fract_x
_atom_site_fract_y
_atom_site_fract_z
O1	O	1.667923	0.179162	-0.121689
O2	O	1.302453	0.196231	-0.121716
O3	O	1.493504	0.002095	-0.121693
O4	O	1.476872	0.373299	-0.121712
O5	O	1.493491	0.002089	0.121906
O6	O	1.302440	0.196226	0.121883
O7	O	1.667910	0.179156	0.121910
Cu8	Cu	1.485174	0.187691	0.144139
Cu9	Cu	1.485189	0.187697	-0.143945
O10	O	1.476859	0.373293	0.121887
C11	C	1.255648	0.194975	0.000080
C12	C	1.116203	0.191225	0.000070
C13	C	1.492241	-0.045439	0.000105
C14	C	1.488483	-0.187067	0.000102
C15	C	1.036771	0.305530	0.000068
C16	C	0.905748	0.301999	0.000094
C17	C	0.933603	0.069849	0.000117
C18	C	1.064623	0.073381	0.000102
C19	C	1.366923	-0.255148	0.000083
C20	C	1.424340	-0.347301	0.120194
C21	C	1.424382	-0.347270	-0.119976
C22	C	1.545951	-0.277354	0.120313
C23	C	1.545976	-0.277314	-0.119965
C24	C	1.603481	-0.369439	0.000176
C25	C	1.714715	0.180413	0.000110
C26	C	1.854160	0.184162	0.000111
C27	C	1.478122	0.420827	0.000085
C28	C	1.481880	0.562454	0.000079
N29	N	1.485172	0.187685	0.346761
N30	N	1.485201	0.187693	-0.346568
C31	C	1.569798	0.101758	0.423423
C32	C	1.569810	0.101758	0.576760
C33	C	1.400565	0.273624	0.576760
C34	C	1.400548	0.273617	0.423426
H35	H	1.078762	0.401486	0.000054
H36	H	1.638702	0.031785	0.361007
N37	N	1.309316	0.366319	0.659453
H38	H	1.255701	0.420752	0.587616
H39	H	1.253364	0.316965	0.723095
H40	H	1.372937	-0.378207	-0.221530
N41	N	1.309258	0.366289	0.340727
H42	H	1.255657	0.420732	0.412558
H43	H	1.357830	0.423135	0.277084
H44	H	0.841079	0.395078	0.000096
H45	H	0.891590	-0.026096	0.000151
H46	H	1.129300	-0.019705	0.000107
H47	H	1.372900	-0.378290	0.221732
N48	N	1.234536	-0.189314	0.000214
H49	H	1.188780	-0.214588	0.091024
H50	H	1.238113	-0.093452	-0.000769
N51	N	1.614022	-0.236566	0.254971
H52	H	1.616109	-0.140511	0.254172
H53	H	1.568405	-0.262699	0.345500
H54	H	1.703517	-0.418912	0.000250
H55	H	1.638719	0.031787	0.639174
N56	N	1.614067	-0.236220	-0.254462
H57	H	1.568078	-0.261377	-0.345149
H58	H	1.616806	-0.140256	-0.252811
