data_functionalizedCrystal
_audit_creation_method	'MofGen! by Chris Wilmer'
_symmetry_space_group_name_H-M	'P1'
_symmetry_Int_Tables_number	1
_symmetry_cell_setting	triclinic
loop_
_symmetry_equiv_pos_as_xyz
  x,y,z
_cell_length_a	16.625548
_cell_length_b	18.050590
_cell_length_c	18.050591
_cell_angle_alpha	90.018837
_cell_angle_beta	90.008826
_cell_angle_gamma	90.019620
loop_
_atom_site_label
_atom_site_type_symbol
_atom_site_fract_x
_atom_site_fract_y
_atom_site_fract_z
Zn1	Zn	1.232609	-0.295718	0.419908
Zn2	Zn	1.232549	-0.419892	0.295716
Zn3	Zn	1.097798	-0.295723	0.295732
Zn4	Zn	1.097750	-0.419873	0.419865
O5	O	1.165177	-0.357802	0.357805
O6	O	1.345433	-0.312196	0.403445
O7	O	1.214669	-0.403430	0.191794
O8	O	1.115726	-0.191797	0.312229
O9	O	1.345389	-0.403426	0.312202
O10	O	1.214771	-0.191794	0.403460
O11	O	1.115668	-0.312203	0.191805
O12	O	0.984960	-0.312185	0.312187
O13	O	1.115645	-0.403394	0.523795
O14	O	0.984924	-0.403399	0.403387
O15	O	1.214725	-0.312178	0.523827
O16	O	1.214623	-0.523814	0.312160
O17	O	1.115587	-0.523800	0.403371
C18	C	0.955686	-0.357791	0.357784
C19	C	0.866065	-0.357804	0.357793
C20	C	0.537889	-0.357809	0.357825
C21	C	0.629198	-0.357806	0.357814
C22	C	0.701974	-0.357807	0.357808
C23	C	0.793288	-0.357803	0.357798
C24	C	1.165115	-0.550754	0.357776
C25	C	1.165162	-0.633300	0.357788
C26	C	1.219130	-0.832731	0.308256
C27	C	1.238812	-0.882074	0.376036
C28	C	1.165208	-0.784430	0.357817
C29	C	1.145608	-0.882168	0.290068
C30	C	1.165253	-0.930415	0.357840
C31	C	1.184928	-0.832686	0.425633
C32	C	1.091689	-0.832776	0.339619
C33	C	1.111343	-0.882097	0.407446
C34	C	1.165183	-0.700332	0.357803
C35	C	1.165278	-1.014511	0.357862
C36	C	1.375486	-0.357813	0.357826
C37	C	1.465107	-0.357818	0.357836
C38	C	1.165186	-0.357784	0.551511
C39	C	1.165190	-0.357776	0.634057
C40	C	1.165261	-0.164096	0.357851
C41	C	1.165297	-0.081550	0.357871
C42	C	1.219076	-0.308185	0.882899
C43	C	1.238772	-0.375936	0.833484
C44	C	1.165189	-0.357804	0.931177
C45	C	1.145531	-0.290044	0.833510
C46	C	1.165192	-0.357787	0.785192
C47	C	1.184924	-0.425590	0.882849
C48	C	1.091649	-0.339652	0.882879
C49	C	1.111317	-0.407449	0.833487
C50	C	1.165190	-0.357813	1.015275
C51	C	1.165191	-0.357786	0.701095
C52	C	1.165169	-0.357829	1.164853
C53	C	1.165188	-0.357815	1.082307
H54	H	1.301005	-0.903731	0.391443
H55	H	1.201641	-0.482899	0.904432
N56	N	1.050973	-0.910629	0.463044
H57	H	1.050984	-0.966579	0.462451
H58	H	0.995616	-0.891846	0.449719
N59	N	1.123506	-0.214150	0.804799
H60	H	1.114016	-0.179578	0.847925
H61	H	1.072941	-0.217745	0.773989
N62	N	1.123619	-0.910945	0.214159
H63	H	1.068468	-0.892237	0.200021
H64	H	1.123333	-0.966891	0.214889
N65	N	1.279551	-0.804010	0.252801
H66	H	1.278744	-0.748062	0.252852
H67	H	1.265267	-0.822833	0.201770
N68	N	1.009331	-0.804063	0.319190
H69	H	0.994555	-0.822031	0.267967
H70	H	1.009860	-0.748117	0.319856
N71	N	1.207006	-0.804027	0.501564
H72	H	1.206875	-0.748076	0.501081
H73	H	1.262362	-0.822449	0.515386
H74	H	1.065748	-0.449451	0.811928
N75	N	1.279477	-0.252686	0.911651
H76	H	1.335016	-0.266493	0.893685
H77	H	1.278612	-0.252781	0.967596
N78	N	1.321148	-0.396272	0.804736
H79	H	1.361816	-0.358768	0.822704
H80	H	1.320326	-0.396597	0.748790
N81	N	1.009289	-0.319299	0.911644
H82	H	0.994486	-0.268084	0.893729
H83	H	1.009832	-0.319980	0.967589
