data_functionalizedCrystal
_audit_creation_method	'MofGen! by Chris Wilmer'
_symmetry_space_group_name_H-M	'P1'
_symmetry_Int_Tables_number	1
_symmetry_cell_setting	triclinic
loop_
_symmetry_equiv_pos_as_xyz
  x,y,z
_cell_length_a	15.944551
_cell_length_b	17.699083
_cell_length_c	16.776229
_cell_angle_alpha	89.992455
_cell_angle_beta	89.997350
_cell_angle_gamma	83.390876
loop_
_atom_site_label
_atom_site_type_symbol
_atom_site_fract_x
_atom_site_fract_y
_atom_site_fract_z
O1	O	1.114322	0.097616	-0.066207
O2	O	1.614322	0.597616	0.433793
O3	O	0.869747	0.109651	-0.066227
O4	O	1.369747	0.609651	0.433773
O5	O	0.998944	-0.006544	-0.066209
O6	O	1.498944	0.493456	0.433791
O7	O	0.985125	0.213811	-0.066224
O8	O	1.485125	0.713811	0.433776
O9	O	0.998927	-0.006551	0.066367
O10	O	1.498927	0.493449	0.566367
O11	O	0.869730	0.109643	0.066350
O12	O	1.369730	0.609643	0.566350
O13	O	1.114305	0.097609	0.066370
O14	O	1.614305	0.597609	0.566370
Zn15	Zn	0.992015	0.103625	0.087409
Zn16	Zn	1.492015	0.603625	0.587409
Zn17	Zn	0.992037	0.103634	-0.087266
Zn18	Zn	1.492037	0.603634	0.412734
O19	O	0.985107	0.213803	0.066352
O20	O	1.485107	0.713803	0.566352
C21	C	0.998440	-0.034746	0.000079
C22	C	1.498440	0.465254	0.500079
C23	C	0.996955	-0.118766	0.000079
C24	C	1.496955	0.381234	0.500079
C25	C	0.838445	0.109147	0.000059
C26	C	1.338445	0.609147	0.500059
C27	C	0.745203	0.107650	0.000052
C28	C	1.245203	0.607650	0.500052
C29	C	1.072791	-0.167258	0.000087
C30	C	1.572791	0.332742	0.500087
C31	C	1.071390	-0.246203	0.000080
C32	C	1.571390	0.253797	0.500080
C33	C	0.994152	-0.276656	0.000071
C34	C	1.494152	0.223344	0.500071
C35	C	0.918310	-0.228158	0.000061
C36	C	1.418310	0.271842	0.500061
C37	C	0.919712	-0.149214	0.000063
C38	C	1.419712	0.350786	0.500063
C39	C	0.912656	-0.546531	0.000054
C40	C	1.412656	-0.046531	0.500054
C41	C	0.911260	-0.625481	0.000055
C42	C	1.411260	-0.125481	0.500055
C43	C	1.064334	-0.643520	0.000071
C44	C	1.564334	-0.143520	0.500071
C45	C	1.065735	-0.564576	0.000073
C46	C	1.565735	-0.064576	0.500073
C47	C	0.989894	-0.516085	0.000059
C48	C	1.489894	-0.016085	0.500059
C49	C	0.991414	-0.430484	0.000065
C50	C	1.491414	0.069516	0.500065
C51	C	0.992632	-0.362256	0.000070
C52	C	1.492632	0.137744	0.500070
C53	C	0.530505	0.032046	0.000072
C54	C	1.030505	0.532046	0.500072
C55	C	0.469419	0.067158	-0.065297
C56	C	0.969419	0.567158	0.434703
C57	C	0.574482	0.104940	0.000061
C58	C	1.074482	0.604940	0.500061
C59	C	0.469425	0.067168	0.065413
C60	C	0.969425	0.567168	0.565413
C61	C	0.409575	0.102317	0.000074
C62	C	0.909575	0.602317	0.500074
C63	C	0.514625	0.140071	-0.065362
C64	C	1.014625	0.640071	0.434638
C65	C	0.514637	0.140071	0.065406
C66	C	1.014637	0.640071	0.565406
C67	C	0.453569	0.175235	0.000021
C68	C	0.953569	0.675235	0.500021
C69	C	0.669481	0.106449	0.000053
C70	C	1.169481	0.606449	0.500053
C71	C	0.314577	0.100814	0.000076
C72	C	0.814577	0.600814	0.500076
C73	C	1.145606	0.098112	0.000082
C74	C	1.645606	0.598112	0.500082
C75	C	1.238849	0.099610	0.000084
C76	C	1.738849	0.599610	0.500084
C77	C	0.985611	0.242005	0.000062
C78	C	1.485611	0.742005	0.500062
C79	C	0.987097	0.326026	0.000057
C80	C	1.487097	0.826026	0.500057
N81	N	0.992005	0.103618	0.206620
N82	N	1.492005	0.603618	0.706620
N83	N	0.992053	0.103635	-0.206477
N84	N	1.492053	0.603635	0.293523
C85	C	1.049231	0.052188	0.248345
C86	C	1.549231	0.552188	0.748345
C87	C	1.049236	0.052187	0.331797
C88	C	1.549236	0.552187	0.831797
C89	C	0.992018	0.103621	0.373523
C90	C	1.492018	0.603621	0.873523
C91	C	0.934786	0.155053	0.331793
C92	C	1.434786	0.655053	0.831793
C93	C	0.934778	0.155050	0.248342
C94	C	1.434778	0.655050	0.748342
C95	C	0.934816	0.155068	0.668340
C96	C	1.434816	0.655068	1.168340
C97	C	0.934830	0.155069	0.751796
C98	C	1.434830	0.655069	1.251796
C99	C	1.049274	0.052206	0.751795
C100	C	1.549274	0.552206	1.251795
C101	C	1.049266	0.052202	0.668345
C102	C	1.549266	0.552202	1.168345
C103	C	0.992032	0.103632	0.626621
C104	C	1.492032	0.603632	1.126621
C105	C	0.992026	0.103631	0.536133
C106	C	1.492026	0.603631	1.036133
C107	C	0.992027	0.103626	0.464010
C108	C	1.492027	0.603626	0.964010
H109	H	1.135687	-0.142470	0.000099
H110	H	1.635687	0.357530	0.500099
H111	H	0.888178	0.196928	0.214370
H112	H	1.388178	0.696928	0.714370
C113	C	0.541539	0.181709	-0.140093
C114	C	1.041539	0.681709	0.359907
H115	H	0.601030	0.182387	-0.139652
H116	H	1.101030	0.682387	0.360348
H117	H	0.514496	0.232418	-0.140265
H118	H	1.014496	0.732418	0.359735
H119	H	0.525709	0.156002	-0.186466
H120	H	1.025709	0.656002	0.313534
C121	C	0.442347	0.025520	-0.139953
C122	C	0.942347	0.525520	0.360047
H123	H	0.404608	0.059261	-0.170733
H124	H	0.904608	0.559261	0.329267
H125	H	0.414977	-0.017020	-0.124245
H126	H	0.914977	0.482980	0.375755
H127	H	0.490764	0.008642	-0.170947
H128	H	0.990764	0.508642	0.329053
H129	H	0.850901	-0.507059	0.000043
H130	H	1.350901	-0.007059	0.500043
H131	H	1.128630	-0.539786	0.000084
H132	H	1.628630	-0.039786	0.500084
C133	C	1.154810	-0.299541	0.000096
C134	C	1.654810	0.200459	0.500096
H135	H	1.201010	-0.270098	0.000113
H136	H	1.701010	0.229902	0.500113
H137	H	1.157460	-0.330708	-0.046136
H138	H	1.657460	0.169292	0.453864
H139	H	1.157432	-0.330716	0.046335
H140	H	1.657432	0.169284	0.546335
H141	H	0.855422	-0.252959	0.000049
H142	H	1.355422	0.247041	0.500049
C143	C	0.575700	-0.049678	-0.000021
C144	C	1.075700	0.450322	0.499979
H145	H	0.560342	-0.075450	-0.046527
H146	H	1.060342	0.424550	0.453473
H147	H	0.559595	-0.075850	0.045942
H148	H	1.059595	0.424150	0.545942
H149	H	0.635060	-0.048145	0.000443
H150	H	1.135060	0.451855	0.500443
H151	H	0.888234	0.196954	0.785768
H152	H	1.388234	0.696954	1.285768
H153	H	0.857958	-0.109733	0.000056
H154	H	1.357958	0.390267	0.500056
C155	C	0.442366	0.025504	0.140070
C156	C	0.942366	0.525504	0.640070
H157	H	0.404618	0.059228	0.170853
H158	H	0.904618	0.559228	0.670853
H159	H	0.490781	0.008612	0.171055
H160	H	0.990781	0.508612	0.671055
H161	H	0.414990	-0.017031	0.124355
H162	H	0.914990	0.482969	0.624355
H163	H	0.420283	0.235793	-0.000020
H164	H	0.920283	0.735793	0.499980
H165	H	0.534696	0.170873	0.120670
H166	H	1.034696	0.670873	0.620670
H167	H	1.095828	0.010308	0.214378
H168	H	1.595828	0.510308	0.714378
C169	C	1.112192	-0.004378	0.377692
C170	C	1.612192	0.495622	0.877692
H171	H	1.146276	-0.035002	0.340889
H172	H	1.646276	0.464998	0.840889
H173	H	1.082057	-0.035907	0.410258
H174	H	1.582057	0.464093	0.910258
H175	H	1.147100	0.022881	0.410233
H176	H	1.647100	0.522881	0.910233
H177	H	1.126087	-0.683011	0.000078
H178	H	1.626087	-0.183011	0.500078
C179	C	1.112203	-0.004376	0.622450
C180	C	1.612203	0.495624	1.122450
H181	H	1.146281	-0.035012	0.659253
H182	H	1.646281	0.464988	1.159253
H183	H	1.147106	0.022866	0.589884
H184	H	1.647106	0.522866	1.089884
H185	H	1.082043	-0.035903	0.589910
H186	H	1.582043	0.464097	1.089910
H187	H	1.095875	0.010327	0.785775
H188	H	1.595875	0.510327	1.285775
C189	C	0.871849	0.211630	0.377689
C190	C	1.371849	0.711630	0.877689
H191	H	0.880055	0.204273	0.433365
H192	H	1.380055	0.704273	0.933365
H193	H	0.815808	0.203380	0.364024
H194	H	1.315808	0.703380	0.864024
H195	H	0.880870	0.262150	0.363999
H196	H	1.380870	0.762150	0.863999
C197	C	0.871884	0.211656	0.622451
C198	C	1.371884	0.711656	1.122451
H199	H	0.880069	0.204290	0.566774
H200	H	1.380069	0.704290	1.066774
H201	H	0.880918	0.262169	0.636125
H202	H	1.380918	0.762169	1.136125
H203	H	0.815839	0.203414	0.636131
H204	H	1.315839	0.703414	1.136131
C205	C	0.826294	-0.658978	0.000035
C206	C	1.326294	-0.158978	0.500035
H207	H	0.781326	-0.618793	0.000018
H208	H	1.281326	-0.118793	0.500018
H209	H	0.822554	-0.689405	0.046265
H210	H	1.322554	-0.189405	0.546265
H211	H	0.822584	-0.689393	-0.046205
H212	H	1.322584	-0.189393	0.453795
