data_functionalizedCrystal
_audit_creation_method	'MofGen! by Chris Wilmer'
_symmetry_space_group_name_H-M	'P1'
_symmetry_Int_Tables_number	1
_symmetry_cell_setting	triclinic
loop_
_symmetry_equiv_pos_as_xyz
  x,y,z
_cell_length_a	6.817900
_cell_length_b	14.858565
_cell_length_c	10.943881
_cell_angle_alpha	93.394533
_cell_angle_beta	108.843448
_cell_angle_gamma	104.523916
loop_
_atom_site_label
_atom_site_type_symbol
_atom_site_fract_x
_atom_site_fract_y
_atom_site_fract_z
V1	V	-4.093494	-0.128644	-0.402912
O2	O	-4.074321	0.006209	-0.394872
O3	O	-4.049764	-0.255105	-0.400513
O4	O	-4.071822	-0.126653	-0.578474
O5	O	-4.052111	-0.123132	-0.215679
V6	V	-4.573054	-0.112515	-0.380474
O7	O	-4.363447	-0.164023	-0.452132
O8	O	-4.753299	-0.077136	-0.331255
O9	O	-4.393578	0.013946	-0.382874
O10	O	-4.709624	-0.247368	-0.388515
O11	O	-4.731834	-0.118026	-0.567707
O12	O	-4.371520	-0.114506	-0.204913
C13	C	-3.895036	-0.285934	-0.394249
C14	C	-3.940746	-0.389317	-0.393457
C15	C	-4.108053	-0.767888	-0.390577
C16	C	-4.061494	-0.662558	-0.391378
C17	C	-4.024400	-0.578606	-0.392016
C18	C	-3.977840	-0.473269	-0.392819
C19	C	-3.923171	-0.122079	-0.621254
C20	C	-3.986766	-0.121288	-0.764778
C21	C	-4.215458	-0.125668	-0.855674
C22	C	-4.115708	-0.045728	-0.921187
C23	C	-4.199779	-0.199763	-0.954988
C24	C	-3.886143	-0.041295	-0.828387
C25	C	-3.970275	-0.195400	-0.862197
C26	C	-3.870358	-0.115438	-0.927661
C27	C	-4.211647	0.044770	-0.389134
C28	C	-4.145177	0.148153	-0.389934
C29	C	-4.183511	-0.119082	-0.162126
C30	C	-4.099155	-0.119868	-0.018600
H31	H	-4.360641	-0.129903	-0.823817
H32	H	-4.177787	0.017561	-0.947542
H33	H	-4.333016	-0.266722	-1.009922
H34	H	-3.724871	-0.111082	-0.959249
H35	H	-3.753027	0.025735	-0.773599
H36	H	-3.908258	-0.258695	-0.835819
