data_functionalizedCrystal
_audit_creation_method	'MofGen! by Chris Wilmer'
_symmetry_space_group_name_H-M	'P1'
_symmetry_Int_Tables_number	1
_symmetry_cell_setting	triclinic
loop_
_symmetry_equiv_pos_as_xyz
  x,y,z
_cell_length_a	6.817900
_cell_length_b	15.300992
_cell_length_c	14.858340
_cell_angle_alpha	94.838748
_cell_angle_beta	104.519754
_cell_angle_gamma	104.175078
loop_
_atom_site_label
_atom_site_type_symbol
_atom_site_fract_x
_atom_site_fract_y
_atom_site_fract_z
V1	V	-4.041762	-0.125334	-0.290242
O2	O	-4.025418	0.005431	-0.284428
O3	O	-3.996612	-0.247947	-0.288534
O4	O	-3.998337	-0.123665	-0.416700
O5	O	-4.023681	-0.119710	-0.155375
V6	V	-4.524324	-0.109662	-0.274077
O7	O	-4.305128	-0.159711	-0.325700
O8	O	-4.711156	-0.075285	-0.238618
O9	O	-4.346269	0.012951	-0.275785
O10	O	-4.658065	-0.240427	-0.279890
O11	O	-4.659802	-0.115285	-0.408943
O12	O	-4.344543	-0.111330	-0.147619
C13	C	-3.842242	-0.277829	-0.284027
C14	C	-3.886646	-0.378068	-0.283473
C15	C	-3.863515	-0.412114	-0.198019
C16	C	-3.905257	-0.506301	-0.197503
C17	C	-3.970116	-0.566439	-0.282440
C18	C	-3.993253	-0.532387	-0.367901
C19	C	-3.951526	-0.438203	-0.368417
C20	C	-4.080219	-0.728696	-0.366819
C21	C	-4.121946	-0.822887	-0.366303
C22	C	-4.033950	-0.796794	-0.195904
C23	C	-3.992222	-0.702610	-0.196421
C24	C	-4.015359	-0.668565	-0.281881
C25	C	-3.844441	-0.119295	-0.447514
C26	C	-3.890241	-0.118742	-0.550896
C27	C	-3.927433	-0.118292	-0.634853
C28	C	-3.974108	-0.117724	-0.740181
C29	C	-4.011324	-0.117271	-0.824132
C30	C	-4.058003	-0.116705	-0.929466
C31	C	-4.163980	0.042828	-0.280289
C32	C	-4.098815	0.143067	-0.280849
C33	C	-4.161781	-0.115704	-0.116800
C34	C	-4.095219	-0.116252	-0.013417
H35	H	-4.015104	-0.824518	-0.126319
H36	H	-3.939400	-0.653646	-0.127257
C37	C	-4.193306	-0.889038	-0.459732
H38	H	-4.201139	-0.855275	-0.510704
H39	H	-4.094711	-0.923380	-0.460101
H40	H	-4.328126	-0.929262	-0.466037
H41	H	-4.099096	-0.700982	-0.436411
H42	H	-3.970385	-0.410485	-0.438003
C43	C	-3.792197	-0.345971	-0.104587
H44	H	-3.784428	-0.379742	-0.053622
H45	H	-3.657388	-0.305739	-0.098261
H46	H	-3.890825	-0.311638	-0.104232
C47	C	-3.879792	-0.543748	-0.103503
H48	H	-3.835159	-0.494442	-0.052991
H49	H	-4.010938	-0.582888	-0.102726
H50	H	-3.777523	-0.577004	-0.096791
C51	C	-4.064596	-0.598532	-0.461333
H52	H	-4.072413	-0.564764	-0.512301
H53	H	-3.965999	-0.632873	-0.461699
H54	H	-4.199420	-0.638758	-0.467648
