data_functionalizedCrystal
_audit_creation_method	'MofGen! by Chris Wilmer'
_symmetry_space_group_name_H-M	'P1'
_symmetry_Int_Tables_number	1
_symmetry_cell_setting	triclinic
loop_
_symmetry_equiv_pos_as_xyz
  x,y,z
_cell_length_a	29.839131
_cell_length_b	29.839134
_cell_length_c	25.639233
_cell_angle_alpha	89.986665
_cell_angle_beta	89.980415
_cell_angle_gamma	90.021992
loop_
_atom_site_label
_atom_site_type_symbol
_atom_site_fract_x
_atom_site_fract_y
_atom_site_fract_z
Zn1	Zn	-0.179141	0.686725	-0.295616
Zn2	Zn	0.320859	1.186725	0.204384
Zn3	Zn	-0.254255	0.686655	-0.208179
Zn4	Zn	0.245745	1.186655	0.291821
Zn5	Zn	-0.179115	0.611606	-0.208193
Zn6	Zn	0.320885	1.111606	0.291807
Zn7	Zn	-0.254219	0.611555	-0.295582
Zn8	Zn	0.245781	1.111555	0.204418
O9	O	-0.216683	0.649135	-0.251893
O10	O	0.283317	1.149135	0.248107
O11	O	-0.189131	0.749582	-0.284025
O12	O	0.310869	1.249582	0.215975
O13	O	-0.244292	0.676692	-0.135016
O14	O	0.255708	1.176692	0.364984
O15	O	-0.116251	0.621621	-0.219810
O16	O	0.383749	1.121621	0.280190
O17	O	-0.244317	0.749532	-0.219786
O18	O	0.255683	1.249532	0.280214
O19	O	-0.116270	0.676810	-0.284039
O20	O	0.383730	1.176810	0.215961
O21	O	-0.189086	0.621554	-0.135026
O22	O	0.310914	1.121554	0.364974
O23	O	-0.189051	0.548732	-0.219778
O24	O	0.310949	1.048732	0.280222
O25	O	-0.244256	0.621534	-0.368752
O26	O	0.255744	1.121534	0.131248
O27	O	-0.244230	0.548695	-0.283982
O28	O	0.255770	1.048695	0.216018
O29	O	-0.189096	0.676761	-0.368777
O30	O	0.310904	1.176761	0.131223
O31	O	-0.317118	0.676643	-0.219753
O32	O	0.182882	1.176643	0.280247
O33	O	-0.317091	0.621467	-0.283968
O34	O	0.182909	1.121467	0.216032
C35	C	-0.216634	0.532413	-0.251878
C36	C	0.283366	1.032413	0.248122
C37	C	-0.216625	0.482478	-0.251884
C38	C	0.283375	0.982478	0.248116
C39	C	-0.188007	0.125913	-0.285408
C40	C	0.311993	0.625913	0.214592
C41	C	-0.187971	0.313587	-0.285396
C42	C	0.312029	0.813587	0.214604
O43	O	-0.163582	0.337870	-0.313897
O44	O	0.336418	0.837870	0.186103
N45	N	-0.216654	0.337033	-0.251897
N46	N	0.283346	0.837033	0.248103
C47	C	-0.245350	0.313558	-0.218400
C48	C	0.254650	0.813558	0.281600
O49	O	-0.269750	0.337807	-0.189911
O50	O	0.230250	0.837807	0.310089
C51	C	-0.245388	0.125886	-0.218416
C52	C	0.254612	0.625886	0.281584
C53	C	-0.216700	0.102442	-0.251913
C54	C	0.283300	0.602442	0.248087
C55	C	-0.159321	0.102469	-0.318903
C56	C	0.340679	0.602469	0.181097
C57	C	-0.159329	0.055554	-0.318904
C58	C	0.340671	0.555554	0.181096
C59	C	-0.188022	0.032083	-0.285409
C60	C	0.311978	0.532083	0.214591
C61	C	-0.216708	0.055527	-0.251914
C62	C	0.283292	0.555527	0.248086
C63	C	-0.274087	0.102413	-0.184922
C64	C	0.225913	0.602413	0.315078
C65	C	-0.274095	0.055492	-0.184930
C66	C	0.225905	0.555492	0.315070
C67	C	-0.245406	0.032047	-0.218428
C68	C	0.254594	0.532047	0.281572
C69	C	-0.245409	-0.014860	-0.218420
C70	C	0.254591	0.485140	0.281580
N71	N	-0.216725	-0.038307	-0.251919
N72	N	0.283275	0.461693	0.248081
C73	C	-0.188032	-0.014835	-0.285414
C74	C	0.311968	0.485165	0.214586
C75	C	-0.245328	0.412089	-0.218394
C76	C	0.254672	0.912089	0.281606
C77	C	-0.245318	0.459007	-0.218390
C78	C	0.254682	0.959007	0.281610
C79	C	-0.187939	0.459032	-0.285386
C80	C	0.312061	0.959032	0.214614
C81	C	-0.187947	0.412113	-0.285388
C82	C	0.312053	0.912113	0.214612
C83	C	-0.216645	0.388643	-0.251893
C84	C	0.283355	0.888643	0.248107
C85	C	-0.188050	-0.113361	-0.285412
C86	C	0.311950	0.386639	0.214588
C87	C	-0.188059	-0.160281	-0.285409
C88	C	0.311941	0.339719	0.214591
C89	C	-0.245439	-0.160301	-0.218414
C90	C	0.254561	0.339699	0.281586
C91	C	-0.245429	-0.113386	-0.218416
C92	C	0.254571	0.386614	0.281584
C93	C	-0.216733	-0.089917	-0.251919
C94	C	0.283267	0.410083	0.248081
O95	O	-0.269788	-0.039173	-0.189938
O96	O	0.230212	0.460827	0.310062
O97	O	-0.163644	-0.039092	-0.313907
O98	O	0.336356	0.460908	0.186093
C99	C	-0.187999	0.172829	-0.285407
C100	C	0.312001	0.672829	0.214593
C101	C	-0.216685	0.196273	-0.251912
C102	C	0.283315	0.696273	0.248088
C103	C	-0.245378	0.172802	-0.218417
C104	C	0.254622	0.672802	0.281583
C105	C	-0.216675	0.243191	-0.251907
C106	C	0.283325	0.743191	0.248093
C107	C	-0.187982	0.266662	-0.285402
C108	C	0.312018	0.766662	0.214598
C109	C	-0.159299	0.243216	-0.318901
C110	C	0.340701	0.743216	0.181099
C111	C	-0.159306	0.196300	-0.318902
C112	C	0.340694	0.696300	0.181098
C113	C	-0.274061	0.196248	-0.184918
C114	C	0.225939	0.696248	0.315082
C115	C	-0.274051	0.243164	-0.184920
C116	C	0.225949	0.743164	0.315080
C117	C	-0.245358	0.266635	-0.218414
C118	C	0.254642	0.766635	0.281586
C119	C	-0.333405	0.649054	-0.251867
C120	C	0.166595	1.149054	0.248133
C121	C	-0.383339	0.649060	-0.251873
C122	C	0.116661	1.149060	0.248127
C123	C	-0.692984	0.677917	-0.218505
C124	C	-0.192984	1.177917	0.281495
C125	C	-0.880657	0.677973	-0.218525
C126	C	-0.380657	1.177973	0.281475
O127	O	-0.904923	0.702444	-0.190134
O128	O	-0.404923	1.202444	0.309866
N129	N	-0.904125	0.649228	-0.251932
N130	N	-0.404125	1.149228	0.248068
C131	C	-0.880671	0.620470	-0.285339
C132	C	-0.380671	1.120470	0.214661
O133	O	-0.904938	0.596026	-0.313758
O134	O	-0.404938	1.096026	0.186242
C135	C	-0.692999	0.620417	-0.285321
C136	C	-0.192999	1.120417	0.214679
C137	C	-0.669534	0.649160	-0.251908
C138	C	-0.169534	1.149160	0.248092
C139	C	-0.669519	0.706659	-0.185095
C140	C	-0.169519	1.206659	0.314905
C141	C	-0.622604	0.706643	-0.185088
C142	C	-0.122604	1.206643	0.314912
C143	C	-0.599153	0.677886	-0.218491
C144	C	-0.099153	1.177886	0.281509
C145	C	-0.622618	0.649144	-0.251901
C146	C	-0.122618	1.149144	0.248099
C147	C	-0.669546	0.591661	-0.318730
C148	C	-0.169546	1.091661	0.181270
C149	C	-0.622625	0.591652	-0.318723
C150	C	-0.122625	1.091652	0.181277
C151	C	-0.599160	0.620395	-0.285310
C152	C	-0.099160	1.120395	0.214690
C153	C	-0.552252	0.620371	-0.285297
C154	C	-0.052252	1.120371	0.214703
N155	N	-0.528785	0.649116	-0.251890
N156	N	-0.028785	1.149116	0.248110
C157	C	-0.552235	0.677873	-0.218487
C158	C	-0.052235	1.177873	0.281513
C159	C	-0.979201	0.620499	-0.285345
C160	C	-0.479201	1.120499	0.214655
C161	C	-1.026119	0.620512	-0.285349
C162	C	-0.526119	1.120512	0.214651
C163	C	-1.026102	0.678015	-0.218536
C164	C	-0.526102	1.178015	0.281464
C165	C	-0.979184	0.678000	-0.218530
C166	C	-0.479184	1.178000	0.281470
C167	C	-0.955734	0.649244	-0.251938
C168	C	-0.455734	1.149244	0.248062
C169	C	-0.453710	0.677837	-0.218475
C170	C	0.046290	1.177837	0.281525
C171	C	-0.406790	0.677818	-0.218470
C172	C	0.093210	1.177818	0.281530
C173	C	-0.406811	0.620316	-0.285285
C174	C	0.093189	1.120316	0.214715
C175	C	-0.453726	0.620334	-0.285289
C176	C	0.046274	1.120334	0.214711
C177	C	-0.477175	0.649098	-0.251882
C178	C	0.022825	1.149098	0.248118
O179	O	-0.527958	0.595917	-0.313678
O180	O	-0.027958	1.095917	0.186322
O181	O	-0.527961	0.702321	-0.190081
O182	O	-0.027961	1.202321	0.309919
C183	C	-0.739900	0.677933	-0.218512
C184	C	-0.239900	1.177933	0.281488
C185	C	-0.763365	0.649192	-0.251921
C186	C	-0.263365	1.149192	0.248079
C187	C	-0.739914	0.620435	-0.285324
C188	C	-0.239914	1.120435	0.214676
C189	C	-0.810282	0.649205	-0.251925
C190	C	-0.310282	1.149205	0.248075
C191	C	-0.833733	0.677962	-0.218522
C192	C	-0.333733	1.177962	0.281478
C193	C	-0.810265	0.706706	-0.185115
C194	C	-0.310265	1.206706	0.314885
C195	C	-0.763350	0.706690	-0.185109
C196	C	-0.263350	1.206690	0.314891
C197	C	-0.763382	0.591690	-0.318731
C198	C	-0.263382	1.091690	0.181269
C199	C	-0.810297	0.591708	-0.318735
C200	C	-0.310297	1.091708	0.181265
C201	C	-0.833747	0.620465	-0.285332
C202	C	-0.333747	1.120465	0.214668
C203	C	-0.099504	0.649229	-0.251930
C204	C	0.400496	1.149229	0.248070
C205	C	-0.049570	0.649269	-0.251946
C206	C	0.450430	1.149269	0.248054
C207	C	-0.216675	0.649150	-0.388266
C208	C	0.283325	1.149150	0.111734
C209	C	-0.216671	0.649156	-0.446380
C210	C	0.283329	1.149156	0.053620
C211	C	-0.216731	0.766314	-0.251908
C212	C	0.283269	1.266314	0.248092
C213	C	-0.216752	0.816248	-0.251914
C214	C	0.283248	1.316248	0.248086
C215	C	-0.187864	0.677949	-0.806762
C216	C	0.312136	1.177949	-0.306762
C217	C	-0.187852	0.677954	-0.861366
C218	C	0.312148	1.177954	-0.361366
O219	O	-0.163412	0.702399	-0.889618
O220	O	0.336588	1.202399	-0.389618
N221	N	-0.216566	0.649205	-0.888663
N222	N	0.283434	1.149205	-0.388663
C223	C	-0.245291	0.620446	-0.861352
C224	C	0.254709	1.120446	-0.361352
O225	O	-0.269713	0.595993	-0.889584
O226	O	0.230287	1.095993	-0.389584
C227	C	-0.245301	0.620438	-0.806749
C228	C	0.254699	1.120438	-0.306749
C229	C	-0.216588	0.649192	-0.779455
C230	C	0.283412	1.149192	-0.279455
C231	C	-0.159154	0.706700	-0.779468
C232	C	0.340846	1.206700	-0.279468
C233	C	-0.159167	0.706695	-0.724867
C234	C	0.340833	1.206695	-0.224867
C235	C	-0.187891	0.677939	-0.697560
C236	C	0.312109	1.177939	-0.197560
C237	C	-0.216601	0.649187	-0.724854
C238	C	0.283399	1.149187	-0.224854
C239	C	-0.274024	0.591677	-0.779439
C240	C	0.225976	1.091677	-0.279439
C241	C	-0.274031	0.591671	-0.724832
C242	C	0.225969	1.091671	-0.224832
C243	C	-0.245318	0.620426	-0.697538
C244	C	0.254682	1.120426	-0.197538
C245	C	-0.245338	0.620426	-0.642947
C246	C	0.254662	1.120426	-0.142947
N247	N	-0.216624	0.649175	-0.615650
N248	N	0.283376	1.149175	-0.115650
C249	C	-0.187900	0.677931	-0.642957
C250	C	0.312100	1.177931	-0.142957
C251	C	-0.245268	0.620463	-0.976023
C252	C	0.254732	1.120463	-0.476023
C253	C	-0.245261	0.620472	-1.030625
C254	C	0.254739	1.120472	-0.530625
C255	C	-0.187821	0.677981	-1.030635
C256	C	0.312179	1.177981	-0.530635
C257	C	-0.187830	0.677973	-0.976032
C258	C	0.312170	1.177973	-0.476032
C259	C	-0.216554	0.649212	-0.948726
C260	C	0.283446	1.149212	-0.448726
C261	C	-0.187930	0.677919	-0.528292
C262	C	0.312070	1.177919	-0.028292
C263	C	-0.187947	0.677912	-0.473686
C264	C	0.312053	1.177912	0.026314
C265	C	-0.245385	0.620403	-0.473681
C266	C	0.254615	1.120403	0.026319
C267	C	-0.245370	0.620410	-0.528282
C268	C	0.254630	1.120410	-0.028282
C269	C	-0.216639	0.649170	-0.555586
C270	C	0.283361	1.149170	-0.055586
O271	O	-0.269764	0.595992	-0.614660
O272	O	0.230236	1.095992	-0.114660
O273	O	-0.163478	0.702376	-0.614718
O274	O	0.336522	1.202376	-0.114718
C275	C	-0.216658	0.649147	-0.116050
C276	C	0.283342	1.149147	0.383950
C277	C	-0.216535	0.649228	-0.057936
C278	C	0.283465	1.149228	0.442064
H279	H	-0.297428	0.177143	-0.157642
H280	H	0.202572	0.677143	0.342358
O281	O	-1.048893	0.706025	-0.186180
O282	O	-0.548893	1.206025	0.313820
C283	C	-1.101809	0.766719	-0.179289
C284	C	-0.601809	1.266719	0.320711
C285	C	-1.076026	0.735017	-0.215974
C286	C	-0.576026	1.235017	0.284026
H287	H	-1.123760	0.790161	-0.203361
H288	H	-0.623760	1.290161	0.296639
H289	H	-1.076987	0.787298	-0.155440
H290	H	-0.576987	1.287298	0.344560
H291	H	-1.123794	0.746143	-0.151898
H292	H	-0.623794	1.246143	0.348102
H293	H	-1.054041	0.755558	-0.243396
H294	H	-0.554041	1.255558	0.256604
H295	H	-1.100872	0.714436	-0.239786
H296	H	-0.600872	1.214436	0.260214
H297	H	-0.387686	0.701224	-0.191260
H298	H	0.112314	1.201224	0.308740
O299	O	-0.273265	-0.183085	-0.185806
O300	O	0.226735	0.316915	0.314194
C301	C	-0.294994	-0.197456	-0.096832
C302	C	0.205006	0.302544	0.403168
C303	C	-0.263443	-0.171632	-0.133697
C304	C	0.236557	0.328368	0.366303
H305	H	-0.287071	-0.188198	-0.054695
H306	H	0.212929	0.311802	0.445305
H307	H	-0.290070	-0.235021	-0.102547
H308	H	0.209930	0.264979	0.397453
H309	H	-0.331225	-0.188241	-0.105970
H310	H	0.168775	0.311759	0.394030
H311	H	-0.227200	-0.180809	-0.124582
H312	H	0.272800	0.319191	0.375418
H313	H	-0.268406	-0.134073	-0.127976
H314	H	0.231594	0.365927	0.372024
H315	H	-0.164683	-0.094258	-0.312694
H316	H	0.335317	0.405742	0.187306
H317	H	-0.297466	0.036384	-0.157656
H318	H	0.202534	0.536384	0.342344
O319	O	-0.476542	0.592362	-0.317667
O320	O	0.023458	1.092362	0.182333
C321	C	-0.529574	0.531740	-0.324653
C322	C	-0.029574	1.031740	0.175347
C323	C	-0.503761	0.563379	-0.287920
C324	C	-0.003761	1.063379	0.212080
H325	H	-0.551594	0.508305	-0.300618
H326	H	-0.051594	1.008305	0.199382
H327	H	-0.504771	0.511150	-0.348514
H328	H	-0.004771	1.011150	0.151486
H329	H	-0.551491	0.552366	-0.352030
H330	H	-0.051491	1.052366	0.147970
H331	H	-0.481843	0.542787	-0.260511
H332	H	0.018157	1.042787	0.239489
H333	H	-0.528589	0.583970	-0.264096
H334	H	-0.028589	1.083970	0.235904
O335	O	-0.131311	0.734658	-0.806047
O336	O	0.368689	1.234658	-0.306047
C337	C	-0.125278	0.795351	-0.867668
C338	C	0.374722	1.295351	-0.367668
C339	C	-0.156859	0.763706	-0.837613
C340	C	0.343141	1.263706	-0.337613
H341	H	-0.145921	0.818850	-0.893187
H342	H	0.354079	1.318850	-0.393187
H343	H	-0.101778	0.774775	-0.893269
H344	H	0.398222	1.274775	-0.393269
H345	H	-0.104751	0.815874	-0.838764
H346	H	0.395249	1.315874	-0.338764
H347	H	-0.177416	0.743175	-0.866479
H348	H	0.322584	1.243175	-0.366479
H349	H	-0.180330	0.784307	-0.812004
H350	H	0.319670	1.284307	-0.312004
O351	O	-0.131426	0.173599	-0.351494
O352	O	0.368574	0.673599	0.148506
C353	C	-0.074495	0.178593	-0.417923
C354	C	0.425505	0.678593	0.082077
C355	C	-0.106055	0.204353	-0.381045
C356	C	0.393945	0.704353	0.118955
H357	H	-0.053968	0.203447	-0.441816
H358	H	0.446032	0.703447	0.058184
H359	H	-0.095135	0.156643	-0.445258
H360	H	0.404865	0.656643	0.054742
H361	H	-0.050995	0.156614	-0.393964
H362	H	0.449005	0.656614	0.106036
H363	H	-0.129561	0.226357	-0.404961
H364	H	0.370439	0.726357	0.095039
H365	H	-0.085387	0.226275	-0.353708
H366	H	0.414613	0.726275	0.146292
O367	O	-0.273224	0.481708	-0.185829
O368	O	0.226776	0.981708	0.314171
C369	C	-0.330120	0.476719	-0.119360
C370	C	0.169880	0.976719	0.380640
C371	C	-0.298543	0.450956	-0.156215
C372	C	0.201457	0.950956	0.343785
H373	H	-0.350592	0.451867	-0.095399
H374	H	0.149408	0.951867	0.404601
H375	H	-0.353668	0.498674	-0.143287
H376	H	0.146332	0.998674	0.356713
H377	H	-0.309452	0.498694	-0.092082
H378	H	0.190548	0.998694	0.407918
H379	H	-0.319176	0.428957	-0.183500
H380	H	0.180824	0.928957	0.316500
H381	H	-0.274994	0.429030	-0.132255
H382	H	0.225006	0.929030	0.367745
H383	H	-0.829398	0.568298	-0.345943
H384	H	-0.329398	1.068298	0.154057
H385	H	-0.268698	0.392984	-0.191117
H386	H	0.231302	0.892984	0.308883
H387	H	-0.268785	-0.094297	-0.191135
H388	H	0.231215	0.405703	0.308865
H389	H	-1.045220	0.597102	-0.312552
H390	H	-0.545220	1.097102	0.187448
O391	O	-0.273200	0.592458	-0.554854
O392	O	0.226800	1.092458	-0.054854
C393	C	-0.279195	0.531776	-0.616457
C394	C	0.220805	1.031776	-0.116457
C395	C	-0.247633	0.563417	-0.586413
C396	C	0.252367	1.063417	-0.086413
H397	H	-0.258536	0.508283	-0.641971
H398	H	0.241464	1.008283	-0.141971
H399	H	-0.302683	0.552354	-0.642062
H400	H	0.197317	1.052354	-0.142062
H401	H	-0.299737	0.511245	-0.587546
H402	H	0.200263	1.011245	-0.087546
H403	H	-0.227062	0.583955	-0.615286
H404	H	0.272938	1.083955	-0.115286
H405	H	-0.224174	0.542813	-0.560800
H406	H	0.275826	1.042813	-0.060800
H407	H	-0.135934	0.262334	-0.346172
H408	H	0.364066	0.762334	0.153828
H409	H	-0.297448	0.121493	-0.157645
H410	H	0.202552	0.621493	0.342355
H411	H	-0.268660	0.597042	-0.953794
H412	H	0.231340	1.097042	-0.453794
O413	O	-0.131450	0.032853	-0.351497
O414	O	0.368550	0.532853	0.148503
C415	C	-0.074521	0.037847	-0.417928
C416	C	0.425479	0.537847	0.082072
C417	C	-0.106079	0.063607	-0.381048
C418	C	0.393921	0.563607	0.118952
H419	H	-0.053994	0.062700	-0.441822
H420	H	0.446006	0.562700	0.058178
H421	H	-0.095162	0.015898	-0.445263
H422	H	0.404838	0.515898	0.054737
H423	H	-0.051020	0.015867	-0.393971
H424	H	0.448980	0.515867	0.106029
H425	H	-0.129586	0.085611	-0.404963
H426	H	0.370414	0.585611	0.095037
H427	H	-0.085409	0.085528	-0.353712
H428	H	0.414591	0.585528	0.146288
O429	O	-0.740629	0.734656	-0.152637
O430	O	-0.240629	1.234656	0.347363
C431	C	-0.745582	0.791674	-0.086347
C432	C	-0.245582	1.291674	0.413653
C433	C	-0.771365	0.760030	-0.123104
C434	C	-0.271365	1.260030	0.376896
H435	H	-0.770420	0.812190	-0.062452
H436	H	-0.270420	1.312190	0.437548
H437	H	-0.723604	0.815176	-0.110346
H438	H	-0.223604	1.315176	0.389654
H439	H	-0.723628	0.771054	-0.059003
H440	H	-0.223628	1.271054	0.440997
H441	H	-0.793343	0.780614	-0.150456
H442	H	-0.293343	1.280614	0.349544
H443	H	-0.793314	0.736527	-0.099072
H444	H	-0.293314	1.236527	0.400928
H445	H	-0.135956	0.121575	-0.346182
H446	H	0.364044	0.621575	0.153818
H447	H	-0.164695	-0.179367	-0.312686
H448	H	0.335305	0.320633	0.187314
H449	H	-0.688643	0.568253	-0.345936
H450	H	-0.188643	1.068253	0.154064
O451	O	-0.160091	0.705825	-0.447093
O452	O	0.339909	1.205825	0.052907
C453	C	-0.134619	0.731277	-0.362983
C454	C	0.365381	1.231277	0.137017
C455	C	-0.166199	0.699656	-0.393031
C456	C	0.333801	1.199656	0.106969
H457	H	-0.139540	0.726294	-0.319269
H458	H	0.360460	1.226294	0.180731
H459	H	-0.142514	0.767509	-0.373681
H460	H	0.357486	1.267509	0.126319
H461	H	-0.098396	0.723415	-0.373758
H462	H	0.401604	1.223415	0.126242
H463	H	-0.202433	0.707478	-0.382272
H464	H	0.297567	1.207478	0.117728
H465	H	-0.158265	0.663434	-0.382330
H466	H	0.341735	1.163434	0.117670
O467	O	-0.956495	0.592517	-0.317813
O468	O	-0.456495	1.092517	0.182187
C469	C	-0.961476	0.535497	-0.384098
C470	C	-0.461476	1.035497	0.115902
C471	C	-0.987243	0.567159	-0.347350
C472	C	-0.487243	1.067159	0.152650
H473	H	-0.986324	0.514993	-0.407995
H474	H	-0.486324	1.014993	0.092005
H475	H	-0.939548	0.511983	-0.360091
H476	H	-0.439548	1.011983	0.139909
H477	H	-0.939474	0.556102	-0.411439
H478	H	-0.439474	1.056102	0.088561
H479	H	-1.009270	0.546590	-0.320001
H480	H	-0.509270	1.046590	0.179999
H481	H	-1.009143	0.590674	-0.371389
H482	H	-0.509143	1.090674	0.128611
O483	O	-0.301963	0.265865	-0.152360
O484	O	0.198037	0.765865	0.347640
C485	C	-0.358863	0.260876	-0.085895
C486	C	0.141137	0.760876	0.414105
C487	C	-0.327281	0.235113	-0.122745
C488	C	0.172719	0.735113	0.377255
H489	H	-0.379334	0.236024	-0.061934
H490	H	0.120666	0.736024	0.438066
H491	H	-0.382411	0.282827	-0.109827
H492	H	0.117589	0.782827	0.390173
H493	H	-0.338198	0.282854	-0.058618
H494	H	0.161802	0.782854	0.441382
H495	H	-0.347910	0.213110	-0.150029
H496	H	0.152090	0.713110	0.349971
H497	H	-0.303732	0.213190	-0.098780
H498	H	0.196268	0.713190	0.401220
H499	H	-0.164449	0.701387	-0.953813
H500	H	0.335551	1.201387	-0.453813
H501	H	-0.164586	0.393028	-0.312664
H502	H	0.335414	0.893028	0.187336
H503	H	-0.603534	0.568235	-0.345930
H504	H	-0.103534	1.068235	0.154070
O505	O	-0.301873	0.563685	-0.698288
O506	O	0.198127	1.063685	-0.198288
C507	C	-0.307915	0.503033	-0.636614
C508	C	0.192085	1.003033	-0.136614
C509	C	-0.276331	0.534690	-0.666649
C510	C	0.223669	1.034690	-0.166649
H511	H	-0.287278	0.479589	-0.611019
H512	H	0.212722	0.979589	-0.111019
H513	H	-0.328424	0.482455	-0.665485
H514	H	0.171576	0.982455	-0.165485
H515	H	-0.331432	0.523645	-0.611076
H516	H	0.168568	1.023645	-0.111076
H517	H	-0.252787	0.514113	-0.692188
H518	H	0.247213	1.014113	-0.192188
H519	H	-0.255855	0.555269	-0.637750
H520	H	0.244145	1.055269	-0.137750
H521	H	-0.164533	0.701336	-0.550516
H522	H	0.335467	1.201336	-0.050516
O523	O	-0.160110	0.481905	-0.317909
O524	O	0.339890	0.981905	0.182091
C525	C	-0.134660	0.554203	-0.347571
C526	C	0.365340	1.054203	0.152429
C527	C	-0.166200	0.528352	-0.310720
C528	C	0.333800	1.028352	0.189280
H529	H	-0.139566	0.591759	-0.341764
H530	H	0.360434	1.091759	0.158236
H531	H	-0.142609	0.545023	-0.389725
H532	H	0.357391	1.045023	0.110275
H533	H	-0.098428	0.544959	-0.338480
H534	H	0.401572	1.044959	0.161520
H535	H	-0.202443	0.537581	-0.319764
H536	H	0.297557	1.037581	0.180236
H537	H	-0.158212	0.537534	-0.268577
H538	H	0.341788	1.037534	0.231423
H539	H	-0.387710	0.596901	-0.312480
H540	H	0.112290	1.096901	0.187520
H541	H	-0.829367	0.730120	-0.157916
H542	H	-0.329367	1.230120	0.342084
H543	H	-0.297404	0.568262	-0.801652
H544	H	0.202596	1.068262	-0.301652
H545	H	-0.472795	0.701261	-0.191274
H546	H	0.027205	1.201261	0.308726
O547	O	-0.599883	0.734611	-0.152620
O548	O	-0.099883	1.234611	0.347380
C549	C	-0.604835	0.791635	-0.086337
C550	C	-0.104835	1.291635	0.413663
C551	C	-0.630618	0.759987	-0.123089
C552	C	-0.130618	1.259987	0.376911
H553	H	-0.629674	0.812153	-0.062444
H554	H	-0.129674	1.312153	0.437556
H555	H	-0.582860	0.815136	-0.110341
H556	H	-0.082860	1.315136	0.389659
H557	H	-0.582880	0.771019	-0.058991
H558	H	-0.082880	1.271019	0.441009
H559	H	-0.652598	0.780567	-0.150442
H560	H	-0.152598	1.280567	0.349558
H561	H	-0.652566	0.736485	-0.099053
H562	H	-0.152566	1.236485	0.400947
H563	H	-0.688608	0.730079	-0.157894
H564	H	-0.188608	1.230079	0.342106
H565	H	-0.744292	0.568273	-0.345933
H566	H	-0.244292	1.068273	0.154067
O567	O	-0.131229	0.734638	-0.698439
O568	O	0.368771	1.234638	-0.198439
C569	C	-0.074271	0.791693	-0.704232
C570	C	0.425729	1.291693	-0.204232
C571	C	-0.105884	0.760064	-0.734222
C572	C	0.394116	1.260064	-0.234222
H573	H	-0.053778	0.812265	-0.733150
H574	H	0.446222	1.312265	-0.233150
H575	H	-0.050745	0.771105	-0.678685
H576	H	0.449255	1.271105	-0.178685
H577	H	-0.094913	0.815149	-0.678653
H578	H	0.405087	1.315149	-0.178653
H579	H	-0.085277	0.736601	-0.759830
H580	H	0.414723	1.236601	-0.259830
H581	H	-0.129411	0.780680	-0.759736
H582	H	0.370589	1.280680	-0.259736
H583	H	-0.960081	0.701406	-0.191323
H584	H	-0.460081	1.201406	0.308677
H585	H	-0.164431	0.701395	-1.052878
H586	H	0.335569	1.201395	-0.552878
H587	H	-0.268646	0.597063	-1.052843
H588	H	0.231354	1.097063	-0.552843
O589	O	-0.273243	0.592483	-0.447069
O590	O	0.226757	1.092483	0.052931
C591	C	-0.298725	0.567008	-0.362938
C592	C	0.201275	1.067008	0.137062
C593	C	-0.267149	0.598645	-0.393013
C594	C	0.232851	1.098645	0.106987
H595	H	-0.293816	0.571985	-0.319228
H596	H	0.206184	1.071985	0.180772
H597	H	-0.290815	0.530781	-0.373630
H598	H	0.209185	1.030781	0.126370
H599	H	-0.334948	0.574859	-0.373698
H600	H	0.165052	1.074859	0.126302
H601	H	-0.230915	0.590834	-0.382269
H602	H	0.269085	1.090834	0.117731
H603	H	-0.275098	0.634863	-0.382318
H604	H	0.224902	1.134863	0.117682
