data_functionalizedCrystal
_audit_creation_method	'MofGen! by Chris Wilmer'
_symmetry_space_group_name_H-M	'P1'
_symmetry_Int_Tables_number	1
_symmetry_cell_setting	triclinic
loop_
_symmetry_equiv_pos_as_xyz
  x,y,z
_cell_length_a	16.120566
_cell_length_b	16.120531
_cell_length_c	16.120297
_cell_angle_alpha	84.389419
_cell_angle_beta	89.874982
_cell_angle_gamma	90.174626
loop_
_atom_site_label
_atom_site_type_symbol
_atom_site_fract_x
_atom_site_fract_y
_atom_site_fract_z
Zn1	Zn	-1.224936	0.422251	-0.554851
Zn2	Zn	-1.224816	0.554934	-0.422147
Zn3	Zn	-1.093677	0.408168	-0.408087
Zn4	Zn	-1.078814	0.554167	-0.554071
O5	O	-1.155561	0.484880	-0.484789
O6	O	-1.340955	0.446066	-0.543457
O7	O	-1.213591	0.529892	-0.303650
O8	O	-1.117359	0.293406	-0.421998
O9	O	-1.340867	0.543548	-0.445960
O10	O	-1.213795	0.303753	-0.529824
O11	O	-1.117243	0.422064	-0.293320
O12	O	-0.975671	0.421320	-0.421242
O13	O	-1.092027	0.542242	-0.670807
O14	O	-0.964751	0.528586	-0.528496
O15	O	-1.199382	0.445323	-0.671379
O16	O	-1.199179	0.671462	-0.445205
O17	O	-1.091911	0.670899	-0.542129
C18	C	-0.940124	0.473342	-0.473260
C19	C	-0.847957	0.468427	-0.468348
C20	C	-0.679207	0.459435	-0.459387
C21	C	-0.632751	0.510397	-0.510201
C22	C	-0.538852	0.505394	-0.505215
C23	C	-0.773114	0.464437	-0.464372
C24	C	-0.371839	0.496465	-0.496351
C25	C	-0.464006	0.501407	-0.501243
C26	C	-1.143941	0.701423	-0.495127
C27	C	-1.139044	0.794066	-0.499582
C28	C	-1.130107	0.963688	-0.507732
C29	C	-1.181048	1.005231	-0.461800
C30	C	-1.176076	1.099614	-0.466335
C31	C	-1.135078	0.869296	-0.503199
C32	C	-1.144060	0.495268	-0.702180
C33	C	-1.139159	0.499694	-0.794819
C34	C	-1.167220	1.267491	-0.474413
C35	C	-1.172115	1.174847	-0.469948
C36	C	-1.130182	0.507756	-0.964429
C37	C	-1.181116	0.461763	-1.005997
C38	C	-1.176121	0.466249	-1.100374
C39	C	-1.135176	0.503272	-0.870044
C40	C	-1.167068	0.474475	-0.268243
C41	C	-1.172142	0.469822	-0.175602
H42	H	-0.648462	0.412052	-0.412142
H43	H	-1.228394	0.969912	-0.419070
Cl44	Cl	-1.057010	1.018214	-0.573698
H45	H	-0.663498	0.557784	-0.557451
H46	H	-1.228473	0.419017	-0.970706
Cl47	Cl	-1.057073	0.573751	-1.018915
