data_functionalizedCrystal
_audit_creation_method	'MofGen! by Chris Wilmer'
_symmetry_space_group_name_H-M	'P1'
_symmetry_Int_Tables_number	1
_symmetry_cell_setting	triclinic
loop_
_symmetry_equiv_pos_as_xyz
  x,y,z
_cell_length_a	16.109301
_cell_length_b	14.044220
_cell_length_c	15.186229
_cell_angle_alpha	89.995248
_cell_angle_beta	89.999362
_cell_angle_gamma	88.325179
loop_
_atom_site_label
_atom_site_type_symbol
_atom_site_fract_x
_atom_site_fract_y
_atom_site_fract_z
O1	O	1.112195	0.121835	-0.073175
O2	O	0.871261	0.136997	-0.073189
O3	O	0.988112	-0.008568	-0.073174
O4	O	0.995345	0.267399	-0.073191
O5	O	0.988103	-0.008570	0.073284
O6	O	0.871253	0.136995	0.073268
O7	O	1.112187	0.121832	0.073282
Zn8	Zn	0.991718	0.129413	0.096528
Zn9	Zn	0.991730	0.129416	-0.096435
O10	O	0.995336	0.267397	0.073267
C11	C	0.840236	0.136381	0.000038
C12	C	0.747804	0.134540	0.000033
C13	C	0.531640	0.216634	0.000038
C14	C	0.444790	0.214896	0.000043
C15	C	0.451815	0.042189	0.000050
C16	C	0.538663	0.043927	0.000051
C17	C	0.578573	0.131153	0.000040
C18	C	0.404875	0.127677	0.000045
C19	C	0.310709	0.125792	0.000052
C20	C	0.672745	0.133038	0.000036
C21	C	0.984941	-0.043882	0.000055
C22	C	0.975498	-0.149105	0.000056
C23	C	0.958232	-0.341761	0.000042
C24	C	1.025212	-0.399415	0.000043
C25	C	1.015605	-0.506616	0.000036
C26	C	0.967838	-0.234551	0.000050
C27	C	1.143211	0.122448	0.000053
C28	C	1.235644	0.124289	0.000053
C29	C	0.998506	0.302711	0.000036
C30	C	1.007950	0.407934	0.000030
N31	N	0.991716	0.129411	0.228221
N32	N	0.991737	0.129411	-0.228128
C33	C	1.043479	0.064976	0.453951
C34	C	1.043481	0.064974	0.546141
C35	C	0.939969	0.193848	0.546136
C36	C	0.939963	0.193845	0.453948
C37	C	0.991723	0.129410	0.407858
C38	C	0.991731	0.129411	0.592235
C39	C	0.991734	0.129409	0.692192
C40	C	0.991719	0.129411	0.307895
H41	H	0.406580	0.284504	0.000043
O42	O	0.889776	0.256407	0.591046
C43	C	0.900865	0.242581	0.682298
H44	H	0.964337	0.207174	0.694887
H45	H	0.850284	0.195028	0.708471
C46	C	0.817608	0.383031	0.714155
C47	C	0.895569	0.339551	0.729617
H48	H	0.814337	0.442845	0.743345
H49	H	0.810134	0.392344	0.652677
H50	H	0.775466	0.343394	0.735966
H51	H	0.937709	0.379182	0.707796
H52	H	0.903050	0.330246	0.791093
O53	O	1.102292	-0.362418	0.000022
C54	C	1.162681	-0.437138	0.000050
H55	H	1.134497	-0.504342	-0.027691
H56	H	1.184770	-0.451109	0.070317
C57	C	1.271496	-0.326560	-0.023292
C58	C	1.236882	-0.409100	-0.057371
H59	H	1.317269	-0.309265	-0.058708
H60	H	1.230812	-0.276220	-0.023308
H61	H	1.289897	-0.338214	0.035264
H62	H	1.218473	-0.397442	-0.115921
H63	H	1.277566	-0.459439	-0.057366
H64	H	1.085623	0.012508	0.416427
O65	O	1.093803	0.002515	0.591012
C66	C	1.148873	0.053295	0.644314
H67	H	1.121259	0.127454	0.658123
H68	H	1.210793	0.059757	0.608781
C69	C	1.196601	-0.091228	0.714926
C70	C	1.162681	-0.000146	0.731892
H71	H	1.205123	-0.124193	0.768946
H72	H	1.159502	-0.125440	0.679013
H73	H	1.248198	-0.085829	0.685313
H74	H	1.111081	-0.005545	0.761494
H75	H	1.199772	0.034065	0.767812
H76	H	0.897813	0.246315	0.416416
H77	H	0.419309	-0.028827	0.000065
H78	H	0.893680	-0.372911	0.000036
H79	H	0.564132	0.287658	0.000035
H80	H	0.576877	-0.025686	0.000055
