data_functionalizedCrystal
_audit_creation_method	'MofGen! by Chris Wilmer'
_symmetry_space_group_name_H-M	'P1'
_symmetry_Int_Tables_number	1
_symmetry_cell_setting	triclinic
loop_
_symmetry_equiv_pos_as_xyz
  x,y,z
_cell_length_a	10.540514
_cell_length_b	10.540539
_cell_length_c	13.596369
_cell_angle_alpha	89.996161
_cell_angle_beta	89.994172
_cell_angle_gamma	84.520326
loop_
_atom_site_label
_atom_site_type_symbol
_atom_site_fract_x
_atom_site_fract_y
_atom_site_fract_z
O1	O	1.685907	0.178750	-0.081799
O2	O	2.185907	0.678750	0.418201
O3	O	1.316490	0.195639	-0.081797
O4	O	1.816490	0.695639	0.418203
O5	O	1.509627	0.002487	-0.081797
O6	O	2.009627	0.502487	0.418203
O7	O	1.492771	0.371902	-0.081799
O8	O	1.992771	0.871902	0.418201
O9	O	1.509607	0.002477	0.081786
O10	O	2.009607	0.502477	0.581786
O11	O	1.316471	0.195629	0.081785
O12	O	1.816471	0.695629	0.581785
O13	O	1.685888	0.178739	0.081784
O14	O	2.185888	0.678739	0.581784
Zn15	Zn	1.501176	0.187182	0.107757
Zn16	Zn	2.001176	0.687182	0.607757
Zn17	Zn	1.501202	0.187196	-0.107770
Zn18	Zn	2.001202	0.687196	0.392230
O19	O	1.492751	0.371891	0.081784
O20	O	1.992751	0.871891	0.581784
C21	C	1.269177	0.194374	-0.000006
C22	C	1.769177	0.694374	0.499994
C23	C	1.128227	0.190605	-0.000006
C24	C	1.628227	0.690605	0.499994
C25	C	1.057522	0.328745	-0.000008
C26	C	1.557522	0.828745	0.499992
C27	C	0.910908	0.324871	-0.000385
C28	C	1.410908	0.824871	0.499615
C29	C	0.935901	0.115484	-0.093243
C30	C	1.435901	0.615484	0.406757
C31	C	1.082440	0.120338	-0.093316
C32	C	1.582440	0.620338	0.406684
C33	C	1.082821	0.118282	0.092715
C34	C	1.582821	0.618282	0.592715
C35	C	0.935842	0.116949	0.093935
C36	C	1.435842	0.616949	0.593935
C37	C	1.508353	-0.044821	-0.000007
C38	C	2.008353	0.455179	0.499993
C39	C	1.504571	-0.185769	-0.000013
C40	C	2.004571	0.314231	0.499987
C41	C	1.359652	-0.369182	-0.000379
C42	C	1.859652	0.130818	0.499621
C43	C	1.363486	-0.222564	-0.000011
C44	C	1.863486	0.277436	0.499989
C45	C	1.572456	-0.247438	0.093401
C46	C	2.072456	0.252562	0.593401
C47	C	1.567641	-0.393982	0.093480
C48	C	2.067641	0.106018	0.593480
C49	C	1.570533	-0.394489	-0.092544
C50	C	2.070533	0.105511	0.407456
C51	C	1.571832	-0.247507	-0.093780
C52	C	2.071832	0.252493	0.406220
C53	C	1.733201	0.180004	-0.000010
C54	C	2.233201	0.680004	0.499990
C55	C	1.874151	0.183774	-0.000016
C56	C	2.374151	0.683774	0.499984
C57	C	1.494025	0.419199	-0.000008
C58	C	1.994025	0.919199	0.499992
C59	C	1.497807	0.560147	-0.000009
C60	C	1.997807	1.060147	0.499991
N61	N	1.501168	0.187172	0.254849
N62	N	2.001168	0.687172	0.754849
N63	N	1.501220	0.187196	-0.254862
N64	N	2.001220	0.687196	0.245138
C65	C	1.501200	0.187198	0.656140
C66	C	2.001200	0.687198	1.156140
C67	C	1.501187	0.187195	0.544489
C68	C	2.001187	0.687195	1.044489
C69	C	1.501185	0.187186	0.455498
C70	C	2.001185	0.687186	0.955498
C71	C	1.501171	0.187181	0.343840
C72	C	2.001171	0.687181	0.843840
H73	H	0.869185	0.378363	-0.067608
H74	H	1.369185	0.878363	0.432392
F75	F	1.510852	-0.435705	-0.185088
F76	F	2.010852	0.064295	0.314912
H77	H	1.303928	-0.397773	-0.067368
H78	H	1.803928	0.102227	0.432632
H79	H	1.522161	-0.206640	-0.162884
H80	H	2.022161	0.293360	0.337116
F81	F	1.095441	0.402265	0.087022
F82	F	1.595441	0.902265	0.587022
H83	H	1.525283	-0.204839	0.162917
H84	H	2.025283	0.295161	0.662917
H85	H	1.669107	-0.441960	0.097717
H86	H	2.169107	0.058040	0.597717
H87	H	0.868237	0.378584	0.066428
H88	H	1.368237	0.878584	0.566428
H89	H	1.087757	0.383967	-0.066765
H90	H	1.587757	0.883967	0.433235
F91	F	1.119346	0.185540	-0.184753
F92	F	1.619346	0.685540	0.315247
H93	H	1.674694	-0.223295	-0.099421
H94	H	2.174694	0.276705	0.400579
H95	H	1.130446	0.018865	-0.097296
H96	H	1.630446	0.518865	0.402704
H97	H	0.913587	0.011852	-0.096446
H98	H	1.413587	0.511852	0.403554
F99	F	1.703729	-0.456229	-0.093368
F100	F	2.203729	0.043771	0.406632
H101	H	1.309679	-0.180808	0.067064
H102	H	1.809679	0.319192	0.567064
F103	F	0.880323	0.176764	-0.184276
F104	F	1.380323	0.676764	0.315724
F105	F	0.882248	0.182176	0.184087
F106	F	1.382248	0.682176	0.684087
F107	F	1.502039	-0.430844	0.184749
F108	F	2.002039	0.069156	0.684749
F109	F	1.123974	0.178378	0.185106
F110	F	1.623974	0.678378	0.685106
F111	F	1.707881	-0.218235	0.097944
F112	F	2.207881	0.281765	0.597944
H113	H	1.130077	0.016388	0.093615
H114	H	1.630077	0.516388	0.593615
F115	F	0.904223	-0.017478	0.101664
F116	F	1.404223	0.482522	0.601664
F117	F	1.293667	-0.166863	-0.087536
F118	F	1.793667	0.333137	0.412464
F119	F	1.286902	-0.409092	0.086450
F120	F	1.786902	0.090908	0.586450
