data_functionalizedCrystal
_audit_creation_method	'MofGen! by Chris Wilmer'
_symmetry_space_group_name_H-M	'P1'
_symmetry_Int_Tables_number	1
_symmetry_cell_setting	triclinic
loop_
_symmetry_equiv_pos_as_xyz
  x,y,z
_cell_length_a	14.044220
_cell_length_b	19.188930
_cell_length_c	12.503572
_cell_angle_alpha	93.506241
_cell_angle_beta	86.164750
_cell_angle_gamma	88.166830
loop_
_atom_site_label
_atom_site_type_symbol
_atom_site_fract_x
_atom_site_fract_y
_atom_site_fract_z
O1	O	1.262485	0.164589	-0.089229
O2	O	1.762485	0.664589	0.410771
O3	O	0.986542	0.158515	-0.089255
O4	O	1.486542	0.658515	0.410745
O5	O	1.132475	0.060411	-0.089220
O6	O	1.632475	0.560411	0.410780
O7	O	1.116552	0.262693	-0.089264
O8	O	1.616552	0.762693	0.410736
O9	O	1.121500	0.067803	0.089419
O10	O	1.621500	0.567803	0.589419
O11	O	0.975567	0.165907	0.089384
O12	O	1.475567	0.665907	0.589384
O13	O	1.251510	0.171980	0.089411
O14	O	1.751510	0.671980	0.589411
Cu15	Cu	1.112536	0.169618	0.105709
Cu16	Cu	1.612536	0.669618	0.605709
Cu17	Cu	1.125516	0.160877	-0.105553
Cu18	Cu	1.625516	0.660877	0.394447
O19	O	1.105577	0.270084	0.089376
O20	O	1.605577	0.770084	0.589376
C21	C	0.945752	0.159553	0.000061
C22	C	1.445752	0.659553	0.500061
C23	C	0.840559	0.151624	0.000052
C24	C	1.340559	0.651624	0.500052
C25	C	1.126472	0.038063	0.000102
C26	C	1.626472	0.538063	0.500102
C27	C	1.124923	-0.039541	0.000112
C28	C	1.624923	0.460459	0.500112
C29	C	0.647956	0.137129	0.000077
C30	C	1.147956	0.637129	0.500077
C31	C	0.590090	0.193363	0.000069
C32	C	1.090090	0.693363	0.500069
C33	C	0.482920	0.185298	0.000083
C34	C	0.982920	0.685298	0.500083
C35	C	0.755137	0.145193	0.000063
C36	C	1.255137	0.645193	0.500063
C37	C	1.210552	-0.078939	0.000125
C38	C	1.710552	0.421061	0.500125
C39	C	1.209099	-0.151857	0.000108
C40	C	1.709099	0.348143	0.500108
C41	C	1.122010	-0.185374	0.000098
C42	C	1.622010	0.314626	0.500098
C43	C	1.036370	-0.145968	0.000079
C44	C	1.536370	0.354032	0.500079
C45	C	1.037826	-0.073051	0.000086
C46	C	1.537826	0.426949	0.500086
N47	N	1.051706	-0.295160	0.060886
N48	N	1.551706	0.204840	0.560886
N49	N	1.050328	-0.364427	0.060882
N50	N	1.550328	0.135573	0.560882
C51	C	1.117616	-0.405067	0.000076
C52	C	1.617616	0.094933	0.500076
N53	N	1.186348	-0.373823	-0.060712
N54	N	1.686348	0.126177	0.439288
N55	N	1.187729	-0.304548	-0.060704
N56	N	1.687729	0.195452	0.439296
C57	C	1.120421	-0.264440	0.000091
C58	C	1.620421	0.235560	0.500091
C59	C	1.201676	-0.523532	0.000069
C60	C	1.701676	-0.023532	0.500069
C61	C	1.200219	-0.596451	0.000045
C62	C	1.700219	-0.096451	0.500045
C63	C	1.027487	-0.590560	0.000028
C64	C	1.527487	-0.090560	0.500028
C65	C	1.028947	-0.517642	0.000041
C66	C	1.528947	-0.017642	0.500041
C67	C	1.116043	-0.484132	0.000067
C68	C	1.616043	0.015868	0.500067
C69	C	1.292301	0.170943	0.000092
C70	C	1.792301	0.670943	0.500092
C71	C	1.397493	0.178872	0.000094
C72	C	1.897493	0.678872	0.500094
C73	C	1.111580	0.292433	0.000051
C74	C	1.611580	0.792433	0.500051
C75	C	1.113129	0.370037	0.000034
C76	C	1.613129	0.870037	0.500034
N77	N	1.103414	0.175766	0.254299
N78	N	1.603414	0.675766	0.754299
N79	N	1.134645	0.154724	-0.254143
N80	N	1.634645	0.654724	0.245857
C81	C	1.089995	0.184816	0.473411
C82	C	1.589995	0.684816	0.973411
C83	C	1.148061	0.145676	0.526752
C84	C	1.648061	0.645676	1.026752
C85	C	1.140595	0.150712	0.648673
C86	C	1.640595	0.650712	1.148673
C87	C	1.097461	0.179782	0.351478
C88	C	1.597461	0.679782	0.851478
H89	H	0.621038	0.247564	0.000052
H90	H	1.121038	0.747564	0.500052
H91	H	0.617011	0.082933	0.000094
H92	H	1.117011	0.582933	0.500094
H93	H	1.281473	-0.051660	0.000142
H94	H	1.781473	0.448340	0.500142
H95	H	1.269952	-0.628529	0.000050
H96	H	1.769952	-0.128529	0.500050
H97	H	0.959218	-0.485563	0.000036
H98	H	1.459218	0.014437	0.500036
H99	H	1.034680	0.222105	0.519305
H100	H	1.534680	0.722105	1.019305
N101	N	1.296579	-0.192101	0.000120
N102	N	1.796579	0.307899	0.500120
N103	N	1.374335	-0.162173	0.000140
N104	N	1.874335	0.337827	0.500140
H105	H	1.436119	-0.190593	0.000151
H106	H	1.936119	0.309407	0.500151
H107	H	1.203381	0.108386	0.480852
H108	H	1.703381	0.608386	0.980852
N109	N	0.947419	-0.180212	0.000060
N110	N	1.447419	0.319788	0.500060
N111	N	0.946130	-0.245316	0.000055
N112	N	1.446130	0.254684	0.500055
H113	H	0.883306	-0.269502	0.000037
H114	H	1.383306	0.230498	0.500037
H115	H	1.272595	-0.496247	0.000085
H116	H	1.772595	0.003753	0.500085
N117	N	0.950346	-0.032814	0.000066
N118	N	1.450346	0.467186	0.500066
N119	N	0.872592	-0.062745	0.000047
N120	N	1.372592	0.437255	0.500047
H121	H	0.810806	-0.034327	0.000034
H122	H	1.310806	0.465673	0.500034
N123	N	0.938535	-0.624799	0.000006
N124	N	1.438535	-0.124799	0.500006
N125	N	0.937245	-0.689903	-0.000006
N126	N	1.437245	-0.189903	0.499994
H127	H	0.874421	-0.714088	-0.000026
H128	H	1.374421	-0.214088	0.499974
