data_functionalizedCrystal
_audit_creation_method	'MofGen! by Chris Wilmer'
_symmetry_space_group_name_H-M	'P1'
_symmetry_Int_Tables_number	1
_symmetry_cell_setting	triclinic
loop_
_symmetry_equiv_pos_as_xyz
  x,y,z
_cell_length_a	6.817900
_cell_length_b	16.418049
_cell_length_c	10.992410
_cell_angle_alpha	93.843616
_cell_angle_beta	108.764651
_cell_angle_gamma	103.389670
loop_
_atom_site_label
_atom_site_type_symbol
_atom_site_fract_x
_atom_site_fract_y
_atom_site_fract_z
V1	V	-4.086920	-0.115886	-0.401046
O2	O	-4.073689	0.005569	-0.392946
O3	O	-4.037641	-0.229782	-0.398750
O4	O	-4.064933	-0.114103	-0.575751
O5	O	-4.046208	-0.110911	-0.214720
V6	V	-4.567240	-0.101359	-0.378705
O7	O	-4.355206	-0.147753	-0.450051
O8	O	-4.749152	-0.069492	-0.329699
O9	O	-4.393313	0.012538	-0.381000
O10	O	-4.697868	-0.222813	-0.386805
O11	O	-4.725349	-0.106334	-0.565031
O12	O	-4.366021	-0.103141	-0.204000
C13	C	-3.881573	-0.257548	-0.392539
C14	C	-3.922744	-0.350660	-0.391827
C15	C	-3.916385	-0.109987	-0.618320
C16	C	-3.979686	-0.109283	-0.761145
C17	C	-4.200504	-0.569149	-0.396640
C18	C	-4.239178	-0.656639	-0.395982
C19	C	-3.873016	-0.648094	-0.383119
C20	C	-3.834349	-0.560608	-0.383786
C21	C	-3.998096	-0.521137	-0.390540
C22	C	-4.075438	-0.696113	-0.389215
C23	C	-4.117369	-0.790973	-0.388502
C24	C	-3.956164	-0.426271	-0.391256
C25	C	-3.848321	-0.102870	-0.956243
C26	C	-3.782517	-0.103949	-0.807764
C27	C	-4.158227	-0.191869	-0.838572
C28	C	-4.222713	-0.191138	-0.987135
C29	C	-4.138189	-0.031223	-0.948479
C30	C	-4.067573	-0.030831	-0.799465
C31	C	-4.212722	0.040299	-0.387208
C32	C	-4.150791	0.133410	-0.387928
C33	C	-4.177909	-0.107261	-0.161424
C34	C	-4.093847	-0.107960	-0.018597
H35	H	-4.333839	-0.537015	-0.402138
H36	H	-3.669520	-0.521515	-0.378823
O37	O	-4.355286	-0.201006	-0.800471
H38	H	-4.311151	-0.204406	-0.694909
H39	H	-4.193449	-0.249242	-1.033632
O40	O	-4.457481	-0.708425	-0.402547
H41	H	-4.564832	-0.666276	-0.407343
H42	H	-3.739703	-0.680242	-0.377617
H43	H	-3.648065	-0.044567	-0.754192
O44	O	-3.711721	-0.023681	-0.980890
H45	H	-3.817356	0.012896	-1.037851
O46	O	-3.689303	-0.177996	-0.775170
H47	H	-3.787099	-0.220788	-0.729733
H48	H	-3.810382	-0.158007	-1.004451
O49	O	-4.461548	-0.200654	-1.043660
H50	H	-4.530523	-0.205763	-0.964863
H51	H	-4.098730	-0.250115	-0.813194
H52	H	-4.050064	0.031491	-0.968593
O53	O	-3.896910	0.050101	-0.729814
H54	H	-3.750102	0.034525	-0.668151
H55	H	-4.209914	-0.029861	-0.766949
O56	O	-4.374323	-0.035180	-1.002601
H57	H	-4.459766	-0.091494	-1.079063
