data_functionalizedCrystal
_audit_creation_method	'MofGen! by Chris Wilmer'
_symmetry_space_group_name_H-M	'P1'
_symmetry_Int_Tables_number	1
_symmetry_cell_setting	triclinic
loop_
_symmetry_equiv_pos_as_xyz
  x,y,z
_cell_length_a	17.699083
_cell_length_b	10.723024
_cell_length_c	16.776229
_cell_angle_alpha	89.994545
_cell_angle_beta	89.998886
_cell_angle_gamma	83.875442
loop_
_atom_site_label
_atom_site_type_symbol
_atom_site_fract_x
_atom_site_fract_y
_atom_site_fract_z
O1	O	1.005074	0.157797	-0.066174
O2	O	0.784825	0.178327	-0.066200
O3	O	0.900030	-0.013601	-0.066184
O4	O	0.889869	0.349725	-0.066191
O5	O	0.900014	-0.013613	0.066393
O6	O	0.784809	0.178315	0.066376
O7	O	1.005058	0.157785	0.066402
Zn8	Zn	0.894931	0.168048	0.087439
Zn9	Zn	0.894952	0.168064	-0.087237
O10	O	0.889854	0.349713	0.066386
C11	C	0.756616	0.177585	0.000085
C12	C	0.672584	0.175378	0.000075
C13	C	0.624673	0.288036	0.000073
C14	C	0.545717	0.285955	0.000083
C15	C	0.514672	0.171215	0.000090
C16	C	0.562589	0.058549	0.000094
C17	C	0.641544	0.060631	0.000090
C18	C	0.244173	0.050148	0.000114
C19	C	0.165212	0.048075	0.000116
C20	C	0.148346	0.275473	0.000108
C21	C	0.227301	0.277555	0.000103
C22	C	0.275210	0.164889	0.000112
C23	C	0.360824	0.167147	0.000102
C24	C	0.429060	0.168956	0.000094
C25	C	0.899283	-0.060094	0.000103
C26	C	0.897070	-0.198610	0.000100
C27	C	0.961533	-0.274698	0.000107
C28	C	0.959248	-0.417863	0.000104
C29	C	1.033268	0.158527	0.000115
C30	C	1.117300	0.160734	0.000120
C31	C	0.890601	0.396206	0.000097
C32	C	0.892813	0.534723	0.000095
N33	N	0.894923	0.168037	0.206650
N34	N	0.894966	0.168065	-0.206448
C35	C	0.945952	0.083086	0.248374
C36	C	0.945956	0.083085	0.331826
C37	C	0.894934	0.168042	0.373553
C38	C	0.843900	0.252997	0.331822
C39	C	0.843893	0.252991	0.248372
C40	C	0.843928	0.253021	0.668370
C41	C	0.843941	0.253023	0.751826
C42	C	0.945991	0.083115	0.751824
C43	C	0.945983	0.083109	0.668374
C44	C	0.894947	0.168059	0.626651
C45	C	0.894942	0.168058	0.536162
C46	C	0.894942	0.168050	0.464040
H47	H	0.649943	0.381471	0.000067
H48	H	0.987507	0.013911	0.365798
C49	C	1.001273	-0.009274	0.797170
C50	C	0.960569	-0.085600	0.845072
C51	C	1.011469	-0.170728	0.886845
H52	H	1.033030	0.035403	0.829783
H53	H	1.031649	-0.059941	0.760393
H54	H	0.930206	-0.034939	0.881844
H55	H	0.928816	-0.130304	0.812478
H56	H	1.041845	-0.221396	0.850068
H57	H	1.043222	-0.126041	0.919454
H58	H	0.983858	-0.222533	0.919346
H59	H	0.802340	0.322165	0.214401
C60	C	1.001259	-0.009386	0.203139
C61	C	0.988321	-0.131958	0.223462
C62	C	1.039248	-0.217194	0.181811
H63	H	1.051872	0.003883	0.216781
H64	H	0.993959	0.002661	0.147450
H65	H	0.995628	-0.144000	0.279138
H66	H	0.937718	-0.145267	0.209818
H67	H	1.031947	-0.205148	0.126123
H68	H	1.089858	-0.203914	0.195456
H69	H	1.030472	-0.300369	0.195589
C70	C	1.001188	-0.009408	0.623048
C71	C	0.960370	-0.085669	0.575230
C72	C	1.011167	-0.171001	0.533493
H73	H	1.031531	-0.060114	0.659822
H74	H	1.032985	0.035150	0.590384
H75	H	0.928586	-0.130224	0.607891
H76	H	0.930030	-0.034998	0.538441
H77	H	1.042964	-0.126443	0.500829
H78	H	1.041507	-0.221698	0.570273
H79	H	0.983480	-0.222746	0.501039
H80	H	0.840190	-0.239457	0.000089
H81	H	1.014433	-0.483241	0.000113
H82	H	1.018413	-0.233851	0.000118
H83	H	0.802374	0.322193	0.634405
C84	C	0.493740	0.408314	-0.000087
C85	C	0.507842	0.477397	-0.068312
C86	C	0.459970	0.590119	-0.068500
H87	H	0.503175	0.455523	0.046086
H88	H	0.442258	0.390703	-0.000123
H89	H	0.559311	0.495011	-0.068269
H90	H	0.498401	0.430227	-0.114496
H91	H	0.408489	0.572509	-0.068536
H92	H	0.469409	0.637316	-0.022324
H93	H	0.469527	0.637001	-0.114793
C94	C	0.788539	0.345434	0.377018
C95	C	0.801425	0.468028	0.356688
C96	C	0.750433	0.553217	0.398295
H97	H	0.795795	0.333452	0.432707
H98	H	0.737944	0.332055	0.363330
H99	H	0.852007	0.481402	0.370381
H100	H	0.794163	0.480050	0.301006
H101	H	0.699839	0.539837	0.384607
H102	H	0.757694	0.541224	0.453982
H103	H	0.759165	0.636406	0.384501
H104	H	0.837625	-0.399906	0.000094
H105	H	0.802390	0.322208	0.785798
H106	H	0.252572	0.370988	0.000094
H107	H	0.537306	-0.034875	0.000111
C108	C	0.096364	0.397840	-0.000057
C109	C	0.110465	0.466926	-0.068282
C110	C	0.062590	0.579645	-0.068470
H111	H	0.105798	0.445048	0.046116
H112	H	0.044884	0.380225	-0.000094
H113	H	0.161934	0.484544	-0.068238
H114	H	0.101027	0.419755	-0.114466
H115	H	0.011110	0.562030	-0.068506
H116	H	0.072028	0.626842	-0.022293
H117	H	0.072146	0.626528	-0.114762
C118	C	0.131609	-0.076599	0.000005
C119	C	0.155917	-0.144711	-0.068186
C120	C	0.124985	-0.259565	-0.068311
H121	H	0.077726	-0.061877	-0.000037
H122	H	0.148033	-0.123041	0.046218
H123	H	0.139488	-0.098279	-0.114387
H124	H	0.209796	-0.159466	-0.068158
H125	H	0.141410	-0.306007	-0.022098
H126	H	0.071103	-0.244831	-0.068351
H127	H	0.141480	-0.305798	-0.114574
C128	C	0.296309	-0.072037	0.000150
C129	C	0.372100	-0.045668	0.000165
C130	C	0.420152	-0.158199	0.000205
H131	H	0.286928	-0.119174	-0.046071
H132	H	0.286880	-0.119115	0.046400
H133	H	0.381525	0.001390	-0.046080
H134	H	0.381505	0.001451	0.046382
H135	H	0.410724	-0.205277	0.046455
H136	H	0.410765	-0.205328	-0.046016
H137	H	0.471582	-0.140323	0.000223
C138	C	0.693437	-0.061819	0.000046
C139	C	0.649353	-0.162751	0.000030
C140	C	0.697130	-0.275574	-0.000018
H141	H	0.724606	-0.065917	0.046264
H142	H	0.724575	-0.065797	-0.046206
H143	H	0.618228	-0.158776	0.046278
H144	H	0.618185	-0.158695	-0.046184
H145	H	0.728268	-0.279552	-0.046270
H146	H	0.728297	-0.279659	0.046201
H147	H	0.667226	-0.344070	-0.000036
