data_functionalizedCrystal
_audit_creation_method	'MofGen! by Chris Wilmer'
_symmetry_space_group_name_H-M	'P1'
_symmetry_Int_Tables_number	1
_symmetry_cell_setting	triclinic
loop_
_symmetry_equiv_pos_as_xyz
  x,y,z
_cell_length_a	17.699083
_cell_length_b	15.944493
_cell_length_c	16.176319
_cell_angle_alpha	89.987703
_cell_angle_beta	89.997690
_cell_angle_gamma	83.379029
loop_
_atom_site_label
_atom_site_type_symbol
_atom_site_fract_x
_atom_site_fract_y
_atom_site_fract_z
O1	O	1.004238	0.106209	0.068620
O2	O	0.783880	0.120029	0.068646
O3	O	0.900099	-0.009172	0.068639
O4	O	0.888019	0.235410	0.068627
O5	O	0.900088	-0.009148	-0.068854
O6	O	0.783869	0.120053	-0.068848
O7	O	1.004227	0.106233	-0.068873
Cu8	Cu	0.894047	0.113145	-0.081415
Cu9	Cu	0.894060	0.113117	0.081187
O10	O	0.888008	0.235433	-0.068867
C11	C	0.755677	0.119546	-0.000097
C12	C	0.671657	0.118060	-0.000087
C13	C	0.899600	-0.040454	-0.000104
C14	C	0.898120	-0.133699	-0.000093
C15	C	0.623151	0.193898	-0.000091
C16	C	0.544206	0.192497	-0.000102
C17	C	0.513767	0.115257	-0.000102
C18	C	0.562279	0.039413	-0.000101
C19	C	0.641223	0.040815	-0.000096
C20	C	0.243908	0.033759	-0.000121
C21	C	0.164958	0.032363	-0.000123
C22	C	0.146890	0.185441	-0.000127
C23	C	0.225834	0.186843	-0.000122
C24	C	0.274339	0.110999	-0.000125
C25	C	0.359940	0.112519	-0.000115
C26	C	0.428167	0.113737	-0.000107
C27	C	0.966529	-0.369603	-0.000117
C28	C	0.929644	-0.420105	0.067678
C29	C	0.895377	-0.304415	-0.000103
C30	C	0.929616	-0.420058	-0.067879
C31	C	0.892733	-0.469319	-0.000116
C32	C	0.858511	-0.353688	0.067748
C33	C	0.858494	-0.353638	-0.067870
C34	C	0.821557	-0.404107	-0.000059
C35	C	0.896902	-0.209418	-0.000095
C36	C	0.891202	-0.564312	-0.000119
C37	C	1.032430	0.106716	-0.000128
C38	C	1.116450	0.108202	-0.000133
C39	C	0.888507	0.266715	-0.000122
C40	C	0.889987	0.359961	-0.000127
N41	N	0.894043	0.113164	-0.195780
C42	C	0.848175	0.062216	-0.761161
C43	C	0.848173	0.062222	-0.674614
C44	C	0.894063	0.113110	-0.631355
C45	C	0.939964	0.163987	-0.674648
C46	C	0.939969	0.163976	-0.761193
C47	C	0.939945	0.164035	-0.325619
C48	C	0.939935	0.164044	-0.239068
C49	C	0.848150	0.062281	-0.239041
C50	C	0.848155	0.062270	-0.325586
C51	C	0.894058	0.113144	-0.368871
C52	C	0.894060	0.113135	-0.462715
C53	C	0.894058	0.113124	-0.537513
N54	N	0.894070	0.113091	0.195552
H55	H	0.647927	0.256796	-0.000090
H56	H	0.810776	0.020855	-0.203788
O57	O	0.984636	0.213411	-0.367564
C58	C	1.061459	0.190020	-0.346415
H59	H	1.064705	0.157439	-0.283569
H60	H	1.089351	0.144917	-0.395110
C61	C	1.099324	0.309426	-0.419616
C62	C	1.103312	0.269415	-0.342425
H63	H	1.125143	0.358398	-0.417158
H64	H	1.047568	0.325183	-0.433868
H65	H	1.122567	0.271831	-0.460187
H66	H	1.080060	0.307005	-0.301858
H67	H	1.155065	0.253666	-0.328166
H68	H	0.828484	-0.324815	0.125125
H69	H	0.959675	-0.449043	-0.125191
H70	H	0.810803	0.020792	-0.639374
O71	O	0.803703	0.012735	-0.803270
C72	C	0.849864	-0.044668	-0.853297
H73	H	0.906014	-0.018606	-0.866274
H74	H	0.861461	-0.107821	-0.819920
C75	C	0.739808	-0.089276	-0.919561
C76	C	0.808770	-0.057263	-0.935506
H77	H	0.714458	-0.097049	-0.970271
H78	H	0.708708	-0.050605	-0.885855
H79	H	0.749482	-0.141900	-0.891746
H80	H	0.799094	-0.004635	-0.963311
H81	H	0.839867	-0.095926	-0.969219
O82	O	0.135479	-0.042725	-0.000019
C83	C	0.160247	-0.088960	0.071197
H84	H	0.214998	-0.066190	0.094940
H85	H	0.114563	-0.079148	0.121061
C86	C	0.107810	-0.211442	0.020399
C87	C	0.175059	-0.183481	0.049557
H88	H	0.116943	-0.269747	0.007053
H89	H	0.091120	-0.180292	-0.027579
H90	H	0.069746	-0.203258	0.061957
H91	H	0.213118	-0.191655	0.007996
H92	H	0.191755	-0.214634	0.097528
H93	H	0.760221	-0.419444	-0.000014
O94	O	0.803558	0.012760	-0.367481
C95	C	0.763034	-0.032131	-0.310718
H96	H	0.794358	-0.037069	-0.249021
H97	H	0.703619	0.002555	-0.301529
C98	C	0.718240	-0.115287	-0.420246
C99	C	0.756716	-0.121359	-0.344471
H100	H	0.714340	-0.170326	-0.441068
H101	H	0.745540	-0.085041	-0.458489
H102	H	0.668732	-0.086378	-0.412578
H103	H	0.806226	-0.150257	-0.352142
H104	H	0.729425	-0.151612	-0.306230
O105	O	0.984561	0.213356	-0.196952
C106	C	1.036213	0.162065	-0.146884
H107	H	1.012666	0.099774	-0.133904
H108	H	1.093111	0.149118	-0.180227
C109	C	1.076507	0.284175	-0.080629
C110	C	1.047582	0.207672	-0.064681
H111	H	1.083523	0.312308	-0.029924
H112	H	1.041710	0.318732	-0.114363
H113	H	1.123918	0.273376	-0.108417
H114	H	1.000168	0.218473	-0.036904
H115	H	1.082372	0.173118	-0.030940
H116	H	0.504715	0.254253	-0.000104
O117	O	0.532752	-0.035640	-0.000246
C118	C	0.557558	-0.081860	-0.071441
H119	H	0.573972	-0.036682	-0.121216
H120	H	0.609017	-0.128772	-0.055338
C121	C	0.472809	-0.185492	-0.042593
C122	C	0.492963	-0.130003	-0.103729
H123	H	0.432966	-0.215193	-0.062508
H124	H	0.456098	-0.154355	0.005375
H125	H	0.515697	-0.224578	-0.029179
H126	H	0.450078	-0.090912	-0.117134
H127	H	0.509665	-0.161135	-0.151700
H128	H	0.977332	0.205416	-0.639419
H129	H	0.680716	-0.020940	-0.000092
O130	O	0.984571	0.213475	-0.803116
C131	C	1.025088	0.258376	-0.746379
H132	H	0.993752	0.263335	-0.684689
H133	H	1.084499	0.223687	-0.737160
C134	C	1.069911	0.341497	-0.855957
C135	C	1.031420	0.347593	-0.780190
H136	H	1.073821	0.396529	-0.876814
H137	H	1.042617	0.311244	-0.894183
H138	H	1.119416	0.312586	-0.848264
H139	H	0.981914	0.376495	-0.787886
H140	H	1.058707	0.377853	-0.741966
H141	H	0.250612	0.249739	-0.000118
H142	H	0.283391	-0.027998	-0.000124
O143	O	1.039630	-0.351062	-0.000195
C144	C	1.052666	-0.304301	-0.071742
H145	H	1.009867	-0.317030	-0.121543
H146	H	1.045868	-0.234088	-0.056243
C147	C	1.186472	-0.315239	-0.042395
C148	C	1.133909	-0.330879	-0.103564
H149	H	1.236587	-0.331629	-0.062023
H150	H	1.177690	-0.346740	0.005809
H151	H	1.180797	-0.256728	-0.029485
H152	H	1.139578	-0.389390	-0.116465
H153	H	1.142694	-0.299388	-0.151771
O154	O	0.822566	-0.319081	-0.136217
C155	C	0.746563	-0.337567	-0.136787
H156	H	0.741593	-0.396159	-0.097672
H157	H	0.708068	-0.281842	-0.110162
C158	C	0.728362	-0.281923	-0.274254
C159	C	0.722258	-0.353891	-0.226218
H160	H	0.713367	-0.291988	-0.329420
H161	H	0.779565	-0.269465	-0.273870
H162	H	0.696282	-0.235492	-0.252057
H163	H	0.754345	-0.400317	-0.248409
H164	H	0.671059	-0.366357	-0.226608
O165	O	0.965549	-0.454597	0.136072
C166	C	0.992722	-0.390350	0.183688
H167	H	0.999815	-0.333781	0.142477
H168	H	0.950353	-0.370318	0.235057
C169	C	1.061347	-0.493128	0.272594
C170	C	1.070064	-0.423650	0.221977
H171	H	1.109054	-0.513669	0.296216
H172	H	1.043038	-0.536412	0.240516
H173	H	1.026037	-0.476425	0.315395
H174	H	1.105366	-0.440357	0.179171
H175	H	1.088381	-0.380369	0.254048
H176	H	0.107387	0.247196	-0.000129
