data_functionalizedCrystal
_audit_creation_method	'MofGen! by Chris Wilmer'
_symmetry_space_group_name_H-M	'P1'
_symmetry_Int_Tables_number	1
_symmetry_cell_setting	triclinic
loop_
_symmetry_equiv_pos_as_xyz
  x,y,z
_cell_length_a	10.489741
_cell_length_b	27.732048
_cell_length_c	9.565339
_cell_angle_alpha	89.987544
_cell_angle_beta	89.999736
_cell_angle_gamma	83.590915
loop_
_atom_site_label
_atom_site_type_symbol
_atom_site_fract_x
_atom_site_fract_y
_atom_site_fract_z
O1	O	1.691053	0.068193	-0.116191
O2	O	1.319576	0.074594	-0.116214
O3	O	1.516852	0.001069	-0.116175
O4	O	1.493777	0.141717	-0.116230
O5	O	1.516842	0.001063	0.116345
O6	O	1.319566	0.074587	0.116306
O7	O	1.691043	0.068186	0.116329
Zn8	Zn	1.505303	0.071386	0.153235
Zn9	Zn	1.505316	0.071394	-0.153120
O10	O	1.493767	0.141711	0.116290
C11	C	1.272061	0.074107	0.000043
C12	C	1.130495	0.072661	0.000036
C13	C	1.064411	0.025879	0.000067
C14	C	0.971318	0.047981	-0.114583
C15	C	0.971341	0.047986	0.114663
C16	C	1.039266	0.094782	-0.114709
C17	C	1.039300	0.094780	0.114640
C18	C	0.946232	0.116916	-0.000038
C19	C	1.516363	-0.016944	0.000089
C20	C	1.514904	-0.070608	0.000100
C21	C	1.622299	-0.408745	0.000035
C22	C	1.616888	-0.610439	0.000015
O23	O	1.715093	-0.641075	-0.000040
N24	N	1.499911	-0.630301	0.000009
C25	C	1.384279	-0.599736	-0.000001
O26	O	1.284660	-0.621258	-0.000021
C27	C	1.389692	-0.398044	0.000009
C28	C	1.506676	-0.378184	0.000029
C29	C	1.739274	-0.388886	0.000054
C30	C	1.740625	-0.338465	0.000066
C31	C	1.625002	-0.307904	0.000060
C32	C	1.508028	-0.327764	0.000042
C33	C	1.274062	-0.367480	-0.000011
C34	C	1.275425	-0.317054	-0.000012
C35	C	1.392409	-0.297195	0.000008
C36	C	1.393757	-0.246783	0.000048
N37	N	1.510733	-0.226920	0.000054
C38	C	1.626356	-0.257481	0.000060
C39	C	1.381446	-0.705628	-0.000003
C40	C	1.380092	-0.756051	-0.000003
C41	C	1.612701	-0.766751	0.000010
C42	C	1.614053	-0.716327	0.000020
C43	C	1.498422	-0.685766	0.000003
C44	C	1.629186	-0.151594	0.000088
C45	C	1.630527	-0.101169	0.000106
C46	C	1.397919	-0.090474	0.000085
C47	C	1.396577	-0.140895	0.000074
C48	C	1.512221	-0.171454	0.000071
O49	O	1.295604	-0.216118	0.000088
O50	O	1.725961	-0.235950	0.000049
C51	C	1.620947	-0.459166	0.000023
C52	C	1.503973	-0.479025	0.000004
C53	C	1.388350	-0.448464	-0.000002
C54	C	1.502619	-0.529448	0.000004
C55	C	1.618242	-0.560009	0.000010
C56	C	1.735219	-0.540147	0.000016
C57	C	1.736570	-0.489727	0.000029
C58	C	1.271374	-0.468327	-0.000008
C59	C	1.270032	-0.518748	-0.000019
C60	C	1.385654	-0.549308	-0.000013
C61	C	1.738559	0.068673	0.000069
C62	C	1.880124	0.070119	0.000067
C63	C	1.494257	0.159724	0.000023
C64	C	1.495715	0.213388	0.000003
N65	N	1.505303	0.071379	0.362315
N66	N	1.505326	0.071397	-0.362199
C67	C	1.595846	0.037109	0.546668
C68	C	1.620762	0.080739	0.453415
C69	C	1.480444	0.027753	0.453499
C70	C	1.530299	0.115049	0.546599
C71	C	1.389931	0.062034	0.546691
C72	C	1.414798	0.105695	0.453480
H73	H	0.895116	0.155414	-0.000115
Cl74	Cl	1.085891	0.125312	0.264278
H75	H	1.069229	0.114564	-0.211747
Cl76	Cl	1.714120	-0.007595	0.609849
H77	H	1.287280	-0.680750	-0.000017
H78	H	0.941230	0.028181	0.211592
Cl79	Cl	1.130051	-0.278638	-0.000036
Cl80	Cl	1.126987	-0.392433	-0.000046
H81	H	1.292385	0.054105	0.587693
H82	H	1.718338	0.088654	0.412444
Cl83	Cl	1.296591	0.150498	0.390693
H84	H	1.723354	-0.176470	0.000080
Cl85	Cl	1.143681	-0.033504	-0.000082
Cl86	Cl	0.924785	0.017427	-0.264216
Cl87	Cl	1.562961	0.172034	0.609466
Cl88	Cl	1.777603	-0.076207	0.000129
H89	H	1.835885	-0.322301	0.000077
Cl90	Cl	1.447956	-0.029219	0.390367
Cl91	Cl	1.884649	-0.427297	0.000064
H92	H	1.709312	-0.700161	0.000036
Cl93	Cl	1.249510	-0.165862	0.000075
Cl94	Cl	1.758055	-0.805179	0.000011
H95	H	1.284832	-0.772216	0.000005
Cl96	Cl	1.252573	-0.052046	0.000075
Cl97	Cl	1.883644	-0.464769	0.000042
Cl98	Cl	1.126003	-0.429914	-0.000018
Cl99	Cl	1.122950	-0.543706	-0.000038
Cl100	Cl	1.880571	-0.578576	0.000030
