data_functionalizedCrystal
_audit_creation_method	'MofGen! by Chris Wilmer'
_symmetry_space_group_name_H-M	'P1'
_symmetry_Int_Tables_number	1
_symmetry_cell_setting	triclinic
loop_
_symmetry_equiv_pos_as_xyz
  x,y,z
_cell_length_a	12.759401
_cell_length_b	19.805405
_cell_length_c	19.805383
_cell_angle_alpha	89.896967
_cell_angle_beta	89.936694
_cell_angle_gamma	90.027935
loop_
_atom_site_label
_atom_site_type_symbol
_atom_site_fract_x
_atom_site_fract_y
_atom_site_fract_z
Zn1	Zn	1.606620	-0.268959	-0.382663
Zn2	Zn	1.606346	-0.382293	-0.269471
Zn3	Zn	1.430789	-0.269126	-0.269493
Zn4	Zn	1.430875	-0.382114	-0.382623
O5	O	1.518658	-0.325623	-0.326063
O6	O	1.753605	-0.283997	-0.367655
O7	O	1.582907	-0.367426	-0.174757
O8	O	1.454193	-0.174387	-0.284531
O9	O	1.753403	-0.367264	-0.284494
O10	O	1.583375	-0.174264	-0.367676
O11	O	1.453926	-0.284283	-0.174773
O12	O	1.283780	-0.284110	-0.284492
O13	O	1.454339	-0.366959	-0.477346
O14	O	1.283843	-0.367121	-0.367609
O15	O	1.583458	-0.283824	-0.477375
O16	O	1.582990	-0.476986	-0.284455
O17	O	1.454073	-0.476855	-0.367588
C18	C	1.245690	-0.325615	-0.326049
C19	C	1.128914	-0.325627	-0.326059
C20	C	1.074112	-0.368918	-0.369270
C21	C	0.964388	-0.368920	-0.369284
C22	C	0.964277	-0.282341	-0.282870
C23	C	1.073999	-0.282335	-0.282860
C24	C	1.518539	-0.501479	-0.326030
C25	C	1.518585	-0.576711	-0.326038
C26	C	1.585777	-0.612101	-0.282797
C27	C	1.585822	-0.682789	-0.282812
C28	C	1.518668	-0.718087	-0.326065
C29	C	1.451473	-0.682692	-0.369312
C30	C	1.451434	-0.612005	-0.369300
C31	C	1.451628	-0.967765	-0.369362
C32	C	1.451669	-1.038457	-0.369369
C33	C	1.586016	-1.038550	-0.282874
C34	C	1.585977	-0.967863	-0.282862
C35	C	1.518786	-0.932474	-0.326110
C36	C	1.518740	-0.855825	-0.326095
C37	C	1.518708	-0.794734	-0.326078
C38	C	1.792691	-0.325632	-0.326076
C39	C	1.909467	-0.325636	-0.326082
C40	C	1.518939	-0.325353	-0.502606
C41	C	1.519059	-0.325238	-0.577838
C42	C	1.518805	-0.149080	-0.326110
C43	C	1.518868	-0.073848	-0.326131
C44	C	1.518438	-0.325843	-0.150206
C45	C	1.518521	-0.325767	-0.074974
C46	C	1.451826	-0.369328	-0.039431
C47	C	1.451898	-0.369251	0.031257
C48	C	1.518671	-0.325616	0.066401
C49	C	1.585370	-0.282051	0.030853
C50	C	1.585291	-0.282125	-0.039834
C51	C	1.585685	-0.281750	0.315925
C52	C	1.585760	-0.281681	0.386617
C53	C	1.452292	-0.368876	0.387017
C54	C	1.452214	-0.368950	0.316330
C55	C	1.518907	-0.325382	0.280788
C56	C	1.518827	-0.325466	0.204140
C57	C	1.518758	-0.325536	0.143048
H58	H	1.118820	-0.404167	-0.404447
H59	H	0.919773	-0.404171	-0.404471
H60	H	1.397456	-0.404863	-0.068040
Br61	Br	1.360440	-0.919746	-0.428057
Br62	Br	0.889743	-0.223590	-0.224245
Br63	Br	1.148380	-0.223573	-0.224219
Br64	Br	1.677116	-0.919963	-0.224157
Br65	Br	1.675792	-0.222994	-0.088073
H66	H	1.640457	-0.583367	-0.247571
Br67	Br	1.676389	-0.222459	0.434312
H68	H	1.640536	-0.711601	-0.247599
Br69	Br	1.360247	-0.563974	-0.427992
H70	H	1.397600	-0.404729	0.060194
Br71	Br	1.361598	-0.428176	0.268638
Br72	Br	1.677209	-1.086581	-0.224180
H73	H	1.397983	-0.404348	0.415964
Br74	Br	1.676258	-0.222661	0.267699
H75	H	1.639733	-0.246520	0.059472
H76	H	1.396985	-1.067194	-0.404597
H77	H	1.396799	-0.711436	-0.404533
