data_functionalizedCrystal
_audit_creation_method	'MofGen! by Chris Wilmer'
_symmetry_space_group_name_H-M	'P1'
_symmetry_Int_Tables_number	1
_symmetry_cell_setting	triclinic
loop_
_symmetry_equiv_pos_as_xyz
  x,y,z
_cell_length_a	16.992694
_cell_length_b	16.974959
_cell_length_c	16.053942
_cell_angle_alpha	88.925455
_cell_angle_beta	87.253706
_cell_angle_gamma	87.028296
loop_
_atom_site_label
_atom_site_type_symbol
_atom_site_fract_x
_atom_site_fract_y
_atom_site_fract_z
O1	O	1.037471	0.170243	0.057837
O2	O	0.809180	0.168410	0.057985
O3	O	0.929315	0.054974	0.065621
O4	O	0.917336	0.283678	0.050201
O5	O	0.935890	0.048752	-0.072816
O6	O	0.815756	0.162188	-0.080452
O7	O	1.044046	0.164020	-0.080600
Zn8	Zn	0.930945	0.162116	-0.102506
Zn9	Zn	0.922281	0.170314	0.079891
O10	O	0.923911	0.277456	-0.088236
C11	C	0.783250	0.162940	-0.011071
C12	C	0.696190	0.155902	-0.010587
C13	C	0.646099	0.223811	-0.015166
C14	C	0.564298	0.217192	-0.014732
C15	C	0.532590	0.142665	-0.009712
C16	C	0.582688	0.074752	-0.005135
C17	C	0.664487	0.081371	-0.005575
C18	C	0.288933	0.115233	-0.007884
C19	C	0.207127	0.108620	-0.007442
C20	C	0.188743	0.251061	-0.017040
C21	C	0.270544	0.257673	-0.017475
C22	C	0.320635	0.189760	-0.012903
N23	N	0.448977	0.135899	-0.009265
N24	N	0.404247	0.196527	-0.013356
C25	C	0.932022	0.022464	-0.001614
C26	C	0.930282	-0.065137	0.004299
C27	C	1.069976	0.169490	-0.011542
C28	C	1.157036	0.176528	-0.012021
C29	C	0.920173	-0.557871	0.045769
C30	C	0.921801	-0.475561	0.040197
C31	C	0.926193	-0.437814	-0.038051
C32	C	0.928965	-0.482382	-0.110732
C33	C	0.927343	-0.564691	-0.105159
C34	C	0.931433	-0.192013	-0.062810
C35	C	0.933052	-0.109698	-0.068377
C36	C	0.925889	-0.102883	0.082553
C37	C	0.924263	-0.185194	0.088119
C38	C	0.927040	-0.229755	0.015438
N39	N	0.927854	-0.353680	-0.043748
N40	N	0.925384	-0.313888	0.021136
C41	C	0.921204	0.309966	-0.021000
C42	C	0.922943	0.397567	-0.026906
N43	N	0.936863	0.156521	-0.226987
C44	C	0.967496	0.127656	-0.748664
C45	C	0.963338	0.131579	-0.661523
C46	C	0.908048	0.183745	-0.621347
C47	C	0.856919	0.231998	-0.668317
C48	C	0.861081	0.228078	-0.755456
C49	C	0.889896	0.200854	-0.361097
C50	C	0.885736	0.204768	-0.273951
C51	C	0.992157	0.104350	-0.267163
C52	C	0.996311	0.100432	-0.354304
C53	C	0.945185	0.148687	-0.401267
N54	N	0.903795	0.187754	-0.532275
N55	N	0.949443	0.144682	-0.490338
N56	N	0.916369	0.175903	0.204372
H57	H	0.705272	0.026073	-0.001846
H58	H	0.923629	-0.066593	0.141726
C59	C	0.172251	0.026631	-0.001918
N60	N	0.145982	-0.035120	0.002244
C61	C	1.048389	0.051269	-0.215497
N62	N	1.090745	0.011286	-0.176582
H63	H	0.671908	0.284498	-0.019253
C64	C	0.509201	0.291897	-0.019784
N65	N	0.467702	0.348167	-0.023596
C66	C	0.915350	-0.599386	0.131849
N67	N	0.911723	-0.630652	0.196688
H68	H	0.936605	-0.078966	-0.132100
C69	C	0.934475	-0.241019	-0.142762
N70	N	0.936763	-0.277933	-0.202986
C71	C	1.028318	0.070267	-0.792849
N72	N	1.074132	0.027041	-0.826127
H73	H	0.932546	-0.451642	-0.174444
C74	C	0.833647	0.253929	-0.412744
N75	N	0.791276	0.293905	-0.451647
H76	H	0.920692	-0.215922	0.151837
H77	H	0.919547	-0.439282	0.099378
C78	C	0.930388	-0.613708	-0.185109
N79	N	0.932683	-0.650627	-0.245329
C80	C	0.804835	0.281152	-0.807116
N81	N	0.762470	0.321130	-0.846025
H82	H	1.004970	0.092293	-0.623286
H83	H	0.296354	0.318361	-0.021553
C84	C	1.057112	0.043021	-0.398490
N85	N	1.102897	-0.000234	-0.431769
H86	H	0.840709	0.247250	-0.241244
H87	H	0.147951	0.306352	-0.020764
C88	C	0.344023	0.040526	-0.002849
N89	N	0.385519	-0.015748	0.000945
C90	C	0.547807	-0.007229	0.000386
N91	N	0.521535	-0.068978	0.004547
C92	C	0.796099	0.289381	-0.624120
N93	N	0.750285	0.332601	-0.590831
