data_functionalizedCrystal
_audit_creation_method	'MofGen! by Chris Wilmer'
_symmetry_space_group_name_H-M	'P1'
_symmetry_Int_Tables_number	1
_symmetry_cell_setting	triclinic
loop_
_symmetry_equiv_pos_as_xyz
  x,y,z
_cell_length_a	16.120490
_cell_length_b	16.120444
_cell_length_c	17.077396
_cell_angle_alpha	92.869489
_cell_angle_beta	87.084783
_cell_angle_gamma	90.165174
loop_
_atom_site_label
_atom_site_type_symbol
_atom_site_fract_x
_atom_site_fract_y
_atom_site_fract_z
Zn1	Zn	1.254466	-0.395674	-0.522512
Zn2	Zn	1.754466	0.104326	-0.022512
Zn3	Zn	1.247307	-0.534735	-0.397540
Zn4	Zn	1.747307	-0.034735	0.102460
Zn5	Zn	1.115406	-0.388634	-0.384296
Zn6	Zn	1.615406	0.111366	0.115704
Zn7	Zn	1.108316	-0.527620	-0.521799
Zn8	Zn	1.608316	-0.027620	-0.021799
O9	O	1.181374	-0.461666	-0.456537
O10	O	1.681374	0.038334	0.043463
O11	O	1.369882	-0.420045	-0.511776
O12	O	1.869882	0.079955	-0.011776
O13	O	1.229782	-0.515386	-0.285936
O14	O	1.729782	-0.015386	0.214064
O15	O	1.139816	-0.273205	-0.397387
O16	O	1.639816	0.226795	0.102613
O17	O	1.364622	-0.522212	-0.419958
O18	O	1.864622	-0.022212	0.080042
O19	O	1.241983	-0.278377	-0.498934
O20	O	1.741983	0.221623	0.001066
O21	O	1.132875	-0.408046	-0.276206
O22	O	1.632875	0.091954	0.223794
O23	O	0.998100	-0.401147	-0.396695
O24	O	1.498100	0.098853	0.103305
O25	O	1.127732	-0.510085	-0.631740
O26	O	1.627732	-0.010085	-0.131740
O27	O	0.992891	-0.503259	-0.497718
O28	O	1.492891	-0.003259	0.002282
O29	O	1.235108	-0.413146	-0.632265
O30	O	1.735108	0.086854	-0.132265
O31	O	1.222906	-0.650154	-0.419266
O32	O	1.722906	-0.150154	0.080734
O33	O	1.120790	-0.644927	-0.510559
O34	O	1.620790	-0.144927	-0.010559
C35	C	0.965323	-0.450668	-0.445693
C36	C	1.465323	0.049332	0.054307
C37	C	0.872895	-0.445983	-0.441073
C38	C	1.372895	0.054017	0.058927
C39	C	0.659924	-0.485961	-0.480501
C40	C	1.159924	0.014039	0.019499
C41	C	0.703671	-0.437437	-0.432638
C42	C	1.203671	0.062563	0.067362
C43	C	0.797836	-0.442193	-0.437332
C44	C	1.297836	0.057807	0.062668
C45	C	0.565751	-0.481206	-0.475807
C46	C	1.065751	0.018794	0.024193
C47	C	1.170325	-0.677713	-0.466291
C48	C	1.670325	-0.177713	0.033709
C49	C	1.165674	-0.770143	-0.470493
C50	C	1.665674	-0.270143	0.029507
C51	C	1.205704	-0.983119	-0.434914
C52	C	1.705704	-0.483119	0.065086
C53	C	1.157198	-0.939369	-0.478176
C54	C	1.657198	-0.439369	0.021824
C55	C	1.161915	-0.845203	-0.473900
C56	C	1.661915	-0.345203	0.026100
C57	C	1.200988	-1.077294	-0.439189
C58	C	1.700988	-0.577294	0.060811
C59	C	1.398268	-0.472707	-0.467424
C60	C	1.898268	0.027293	0.032576
C61	C	1.490696	-0.477413	-0.472063
C62	C	1.990696	0.022587	0.027937
C63	C	1.181427	-0.461607	-0.661281
C64	C	1.681427	0.038393	-0.161281
C65	C	1.181450	-0.461582	-0.748531
C66	C	1.681450	0.038418	-0.248531
C67	C	1.192489	-0.244776	-0.446763
C68	C	1.692489	0.255224	0.053237
C69	C	1.197226	-0.152350	-0.442598
C70	C	1.697226	0.347650	0.057402
C71	C	1.237363	-0.411101	-0.789795
C72	C	1.737363	0.088899	-0.289795
C73	C	1.237374	-0.411074	-0.871775
C74	C	1.737374	0.088926	-0.371775
C75	C	1.181476	-0.461533	-0.912489
C76	C	1.681476	0.038467	-0.412489
C77	C	1.125557	-0.512016	-0.871219
C78	C	1.625557	-0.012016	-0.371219
C79	C	1.125543	-0.512038	-0.789240
C80	C	1.625543	-0.012038	-0.289240
C81	C	1.125593	-0.511967	-1.042088
C82	C	1.625593	-0.011967	-0.542088
C83	C	1.125609	-0.511947	-1.124073
C84	C	1.625609	-0.011947	-0.624073
C85	C	1.237425	-0.411004	-1.124623
C86	C	1.737425	0.088996	-0.624623
C87	C	1.237410	-0.411026	-1.042644
C88	C	1.737410	0.088974	-0.542644
C89	C	1.181492	-0.461510	-1.001380
C90	C	1.681492	0.038490	-0.501380
C91	C	1.181372	-0.461667	-0.252589
C92	C	1.681372	0.038333	0.247411
C93	C	1.181522	-0.461466	-0.165337
C94	C	1.681522	0.038534	0.334663
H95	H	1.112127	-0.972635	-0.518424
H96	H	1.612127	-0.472635	-0.018424
H97	H	0.670405	-0.392322	-0.388135
H98	H	1.170405	0.107678	0.111865
H99	H	0.693188	-0.531073	-0.524999
H100	H	1.193188	-0.031073	-0.024999
F101	F	1.296862	-0.357400	-0.746471
F102	F	1.796862	0.142600	-0.246471
H103	H	1.250771	-0.949857	-0.394667
H104	H	1.750771	-0.449857	0.105333
F105	F	1.296912	-0.357375	-0.915691
F106	F	1.796912	0.142625	-0.415691
H107	H	1.282932	-0.369943	-1.009497
H108	H	1.782932	0.130057	-0.509497
F109	F	1.296938	-0.357275	-1.168540
F110	F	1.796938	0.142725	-0.668540
H111	H	1.080090	-0.553033	-1.157220
H112	H	1.580090	-0.053033	-0.657220
H113	H	1.080047	-0.553063	-1.008492
H114	H	1.580047	-0.053063	-0.508492
H115	H	1.080041	-0.553097	-0.904375
H116	H	1.580041	-0.053097	-0.404375
F117	F	1.066031	-0.565764	-0.745324
F118	F	1.566031	-0.065764	-0.245324
