data_functionalizedCrystal
_audit_creation_method	'MofGen! by Chris Wilmer'
_symmetry_space_group_name_H-M	'P1'
_symmetry_Int_Tables_number	1
_symmetry_cell_setting	triclinic
loop_
_symmetry_equiv_pos_as_xyz
  x,y,z
_cell_length_a	15.995350
_cell_length_b	19.188930
_cell_length_c	15.072220
_cell_angle_alpha	89.993728
_cell_angle_beta	89.991149
_cell_angle_gamma	83.318578
loop_
_atom_site_label
_atom_site_type_symbol
_atom_site_fract_x
_atom_site_fract_y
_atom_site_fract_z
O1	O	1.110666	0.089991	-0.073718
O2	O	0.866850	0.101105	-0.073737
O3	O	0.995794	-0.006090	-0.073709
O4	O	0.981722	0.197186	-0.073745
O5	O	0.995763	-0.006084	0.073856
O6	O	0.866819	0.101111	0.073828
O7	O	1.110634	0.089997	0.073848
Zn8	Zn	0.988721	0.095555	0.097267
Zn9	Zn	0.988763	0.095547	-0.097156
O10	O	0.981690	0.197192	0.073820
C11	C	0.835641	0.100648	0.000043
C12	C	0.742696	0.099271	0.000037
C13	C	0.404967	0.094324	0.000056
C14	C	0.452680	0.017982	0.000398
C15	C	0.549365	0.019360	0.000059
C16	C	0.572518	0.096778	0.000047
C17	C	0.531311	0.134429	-0.084223
C18	C	0.434683	0.132511	-0.084287
C19	C	0.434302	0.134095	0.083522
C20	C	0.531247	0.134077	0.084629
C21	C	0.667211	0.098169	0.000039
C22	C	0.310274	0.092936	0.000058
C23	C	0.995323	-0.032099	0.000076
C24	C	0.993955	-0.109607	0.000083
C25	C	1.069615	-0.154338	0.000093
C26	C	1.068330	-0.227165	0.000079
C27	C	0.991380	-0.255258	0.000072
C28	C	0.915710	-0.210517	0.000057
C29	C	0.916997	-0.137691	0.000062
N30	N	0.932550	-0.363410	0.050287
N31	N	0.931333	-0.432592	0.050284
C32	C	0.987497	-0.474676	0.000054
N33	N	1.044937	-0.444966	-0.050161
N34	N	1.046158	-0.375779	-0.050154
C35	C	0.989976	-0.334224	0.000066
C36	C	1.061769	-0.598375	0.000048
C37	C	1.060480	-0.671204	0.000028
C38	C	0.907859	-0.654553	0.000015
C39	C	0.909149	-0.581727	0.000025
C40	C	0.986106	-0.553643	0.000046
C41	C	1.141843	0.090454	0.000065
C42	C	1.234789	0.091831	0.000066
C43	C	0.982162	0.223201	0.000033
C44	C	0.983530	0.300709	0.000019
N45	N	0.988699	0.095560	0.229956
N46	N	0.988792	0.095537	-0.229845
C47	C	0.988762	0.095544	0.589157
C48	C	0.919536	0.152710	0.551535
C49	C	0.919693	0.152918	0.448710
C50	C	0.988730	0.095552	0.410953
C51	C	1.076036	0.111464	0.448248
C52	C	1.075648	0.111870	0.551106
C53	C	0.971460	0.022298	0.551269
C54	C	0.969454	0.022787	0.448405
C55	C	0.988717	0.095555	0.310240
C56	C	0.988780	0.095543	0.689871
H57	H	0.577345	-0.010441	-0.060444
N58	N	1.144768	-0.568079	0.000070
H59	H	1.148719	-0.538221	-0.054623
H60	H	1.148632	-0.538281	0.054818
N61	N	1.142089	-0.719454	0.000035
H62	H	1.191033	-0.690608	0.000052
H63	H	1.144860	-0.750039	0.054736
N64	N	1.096781	0.181414	0.414105
H65	H	1.051841	0.219632	0.433813
H66	H	1.153089	0.191120	0.438480
H67	H	0.845205	-0.677425	0.000005
N68	N	0.933959	0.224305	0.585719
H69	H	0.931044	0.224586	0.652659
H70	H	0.991272	0.235522	0.566097
H71	H	0.546404	0.190533	0.089710
N72	N	0.827544	-0.533475	0.000020
H73	H	0.778600	-0.562320	0.000014
H74	H	0.824742	-0.502903	0.054726
N75	N	0.833721	0.140364	0.415302
H76	H	0.795380	0.134645	0.467393
H77	H	0.809511	0.181673	0.378171
N78	N	0.832710	-0.240806	0.000051
H79	H	0.828786	-0.270647	-0.054652
H80	H	0.828810	-0.270619	0.054789
N81	N	1.095880	0.182628	0.582877
H82	H	1.148665	0.176399	0.620189
H83	H	1.104926	0.213229	0.530022
H84	H	0.854420	0.143386	0.576294
N85	N	0.888969	0.002037	0.585663
H86	H	0.861975	0.040139	0.626161
H87	H	0.850209	-0.004145	0.534087
H88	H	1.132280	-0.131477	0.000107
H89	H	0.930714	0.207273	0.424087
N90	N	1.031932	-0.036206	0.414378
H91	H	1.062663	-0.060947	0.466084
H92	H	1.001134	-0.070633	0.380222
N93	N	0.835384	-0.089447	0.000065
H94	H	0.832506	-0.058871	0.054773
H95	H	0.832571	-0.058896	-0.054668
N96	N	1.038330	-0.034055	0.583491
H97	H	1.079637	-0.012285	0.622440
H98	H	1.011054	-0.070105	0.618665
N99	N	0.410573	0.096134	-0.167713
H100	H	0.462692	0.081493	-0.204100
H101	H	0.382777	0.053283	-0.151300
N102	N	1.145885	0.058795	0.584079
H103	H	1.176967	0.035244	0.531795
H104	H	1.186140	0.083314	0.621221
N105	N	0.587157	-0.019837	0.080078
H106	H	0.541014	-0.038170	0.115889
H107	H	0.628667	-0.060439	0.059893
N108	N	0.569018	0.099783	-0.167294
H109	H	0.596265	0.135217	-0.203575
H110	H	0.612752	0.059703	-0.150465
N111	N	1.145892	0.057781	0.415862
H112	H	1.121558	0.022546	0.376606
H113	H	1.187955	0.082105	0.380970
N114	N	0.884356	0.006811	0.416182
H115	H	0.858396	0.046534	0.377477
H116	H	0.891194	-0.038167	0.380760
H117	H	0.433211	-0.012395	-0.059692
N118	N	0.428284	-0.022438	0.080453
H119	H	0.386062	0.008342	0.117275
H120	H	0.402506	-0.065364	0.060288
N121	N	0.549752	0.209766	-0.088403
H122	H	0.585079	0.220239	-0.035583
H123	H	0.581383	0.217502	-0.144883
N124	N	0.391667	0.206744	-0.089345
H125	H	0.408360	0.234245	-0.036377
H126	H	0.409212	0.229600	-0.145659
N127	N	0.407216	0.101043	0.168137
H128	H	0.343840	0.103134	0.169327
H129	H	0.433029	0.050489	0.170876
N130	N	0.567540	0.097675	0.167214
H131	H	0.610537	0.057191	0.149921
H132	H	0.595407	0.132066	0.204583
H133	H	1.129943	-0.263592	0.000084
N134	N	0.391963	0.208653	0.084270
H135	H	0.353962	0.216660	0.030836
H136	H	0.357484	0.216995	0.140210
