data_functionalizedCrystal
_audit_creation_method	'MofGen! by Chris Wilmer'
_symmetry_space_group_name_H-M	'P1'
_symmetry_Int_Tables_number	1
_symmetry_cell_setting	triclinic
loop_
_symmetry_equiv_pos_as_xyz
  x,y,z
_cell_length_a	10.967926
_cell_length_b	10.967829
_cell_length_c	9.130313
_cell_angle_alpha	77.870844
_cell_angle_beta	102.128987
_cell_angle_gamma	87.248880
loop_
_atom_site_label
_atom_site_type_symbol
_atom_site_fract_x
_atom_site_fract_y
_atom_site_fract_z
O1	O	1.657171	0.175026	0.252309
O2	O	1.294021	0.191779	0.156416
O3	O	1.483972	0.001826	0.252312
O4	O	1.467219	0.364979	0.156412
O5	O	1.483970	0.001831	0.495909
O6	O	1.294018	0.191784	0.400013
O7	O	1.657168	0.175031	0.495905
Cu8	Cu	1.475593	0.183408	0.470202
Cu9	Cu	1.475596	0.183402	0.182120
O10	O	1.467217	0.364984	0.400009
C11	C	1.247520	0.190562	0.266785
C12	C	1.108967	0.186914	0.232733
C13	C	1.482752	-0.044672	0.385538
C14	C	1.479104	-0.183226	0.419583
C15	C	1.047194	0.185290	0.343742
C16	C	0.903992	0.181520	0.308551
C17	C	1.477480	-0.244995	0.308570
C18	C	1.473709	-0.388198	0.343755
C19	C	1.703669	0.176248	0.385533
C20	C	1.842222	0.179896	0.419575
C21	C	1.468437	0.411482	0.266781
C22	C	1.472085	0.550036	0.232726
N23	N	1.475600	0.183412	0.672825
N24	N	1.475599	0.183389	-0.020499
C25	C	1.559733	0.099329	0.791938
C26	C	1.559729	0.099314	0.945278
C27	C	1.391457	0.267475	0.860374
C28	C	1.391456	0.267483	0.707038
C29	C	1.656887	0.002246	0.840958
C30	C	1.656884	0.002231	0.994298
H31	H	1.100326	0.186684	0.464836
N32	N	0.912589	0.181759	0.579983
H33	H	0.880542	0.258390	0.610635
H34	H	0.899432	0.103892	0.654296
N35	N	1.473929	-0.379603	0.072309
H36	H	1.476358	-0.287276	0.069907
H37	H	1.550557	-0.411746	0.041742
N38	N	1.479172	-0.174608	0.148119
H39	H	1.481551	-0.082276	0.145707
H40	H	1.555752	-0.206682	0.117396
N41	N	1.776895	0.042471	0.798087
H42	H	1.772514	0.041008	0.686871
H43	H	1.788486	0.130167	0.813119
H44	H	0.850866	0.180115	0.187451
H45	H	1.322948	0.335923	0.888248
H46	H	1.472302	-0.441328	0.464852
N47	N	1.038607	0.185045	0.072331
H48	H	0.946282	0.182612	0.069929
H49	H	1.051842	0.262866	-0.001999
N50	N	1.477251	-0.253594	0.579988
H51	H	1.474823	-0.345920	0.582387
H52	H	1.555076	-0.240356	0.654306
H53	H	1.626579	-0.088406	1.057075
N54	N	1.783893	0.030547	1.074347
H55	H	1.783942	0.030544	1.184980
H56	H	1.849945	-0.035476	1.070731
H57	H	1.322938	0.335938	0.610054
H58	H	1.635595	-0.093668	0.818175
