data_functionalizedCrystal
_audit_creation_method	'MofGen! by Chris Wilmer'
_symmetry_space_group_name_H-M	'P1'
_symmetry_Int_Tables_number	1
_symmetry_cell_setting	triclinic
loop_
_symmetry_equiv_pos_as_xyz
  x,y,z
_cell_length_a	14.908520
_cell_length_b	19.077367
_cell_length_c	19.077174
_cell_angle_alpha	90.114431
_cell_angle_beta	95.695642
_cell_angle_gamma	84.519511
loop_
_atom_site_label
_atom_site_type_symbol
_atom_site_fract_x
_atom_site_fract_y
_atom_site_fract_z
Zn1	Zn	-0.322800	-1.076262	-0.369368
Zn2	Zn	-0.468538	-1.065179	-0.258675
Zn3	Zn	-0.323312	-0.954020	-0.256606
Zn4	Zn	-0.480638	-0.951916	-0.381413
O5	O	-0.398822	-1.011844	-0.316516
O6	O	-0.336855	-1.173352	-0.350510
O7	O	-0.444424	-1.046676	-0.159843
O8	O	-0.196411	-0.975755	-0.265657
O9	O	-0.443928	-1.165209	-0.269184
O10	O	-0.196035	-1.065566	-0.348503
O11	O	-0.337727	-0.965008	-0.158322
O12	O	-0.349460	-0.855182	-0.277336
O13	O	-0.464550	-0.972168	-0.478373
O14	O	-0.465047	-0.853635	-0.369032
O15	O	-0.348587	-1.063525	-0.469524
O16	O	-0.596977	-1.044635	-0.280864
O17	O	-0.605866	-0.961421	-0.371039
C18	C	-0.408622	-0.828853	-0.324267
C19	C	-0.412838	-0.750568	-0.327601
C20	C	-0.354554	-0.714581	-0.281496
C21	C	-0.358523	-0.641024	-0.284629
C22	C	-0.420771	-0.603455	-0.333870
C23	C	-0.479061	-0.639448	-0.379977
C24	C	-0.475096	-0.713003	-0.376841
C25	C	-0.439095	-0.383383	-0.348360
C26	C	-0.443054	-0.309822	-0.351495
C27	C	-0.322517	-0.311403	-0.256145
C28	C	-0.318554	-0.384960	-0.253016
C29	C	-0.376846	-0.420946	-0.299120
N30	N	-0.424827	-0.528268	-0.337075
N31	N	-0.372794	-0.496131	-0.295911
C32	C	-0.634308	-1.001617	-0.327498
C33	C	-0.735047	-0.997307	-0.332217
C34	C	-0.915028	-1.075954	-0.247254
C35	C	-1.009681	-1.071907	-0.251685
C36	C	-1.019009	-0.985169	-0.345514
C37	C	-0.924356	-0.989217	-0.341083
C38	C	-0.872368	-1.034610	-0.291950
C39	C	-0.777713	-1.038653	-0.287516
C40	C	-0.787042	-0.951919	-0.381348
C41	C	-0.881696	-0.947872	-0.385779
C42	C	-0.162417	-1.022131	-0.305505
C43	C	-0.061675	-1.026515	-0.300813
C44	C	-0.407861	-1.018848	-0.500218
C45	C	-0.411713	-1.021833	-0.578501
C46	C	-0.388979	-0.195550	-0.308727
C47	C	-0.384770	-0.273835	-0.305390
C48	C	-0.357973	-0.980717	-0.614486
C49	C	-0.361600	-0.983518	-0.688042
C50	C	-0.418963	-1.027440	-0.725611
C51	C	-0.472710	-1.068557	-0.689620
C52	C	-0.469087	-1.065751	-0.616066
C53	C	-0.435760	-1.040386	-0.945679
C54	C	-0.439377	-1.043190	-1.019238
C55	C	-0.328267	-0.958150	-1.017654
C56	C	-0.324645	-0.955351	-0.944099
C57	C	-0.378395	-0.996466	-0.908115
N58	N	-0.422670	-1.030306	-0.800796
N59	N	-0.374693	-0.993596	-0.832931
C60	C	-0.389750	-1.004911	-0.133523
C61	C	-0.385636	-1.002074	-0.055223
H62	H	-0.267871	-0.415543	-0.212913
C63	C	-0.524121	-0.738311	-0.497149
C64	C	-0.539157	-0.752566	-0.427523
H65	H	-0.563670	-0.762739	-0.528435
H66	H	-0.535395	-0.689134	-0.506060
H67	H	-0.463103	-0.753404	-0.504171
H68	H	-0.600174	-0.737468	-0.420499
H69	H	-0.527890	-0.801754	-0.418608
C70	C	-0.586280	-1.067169	-0.928743
C71	C	-0.494831	-1.085591	-0.906136
H72	H	-0.622746	-1.095084	-0.904332
H73	H	-0.601487	-1.018818	-0.919301
H74	H	-0.596628	-1.075122	-0.977927
H75	H	-0.484482	-1.077633	-0.856952
H76	H	-0.479619	-1.133953	-0.915572
C77	C	-0.919038	-0.828633	-0.426407
C78	C	-0.938841	-0.897977	-0.439785
H79	H	-0.954312	-0.797830	-0.459751
H80	H	-0.932814	-0.815904	-0.380246
H81	H	-0.856557	-0.825136	-0.430162
H82	H	-1.001321	-0.901475	-0.436024
H83	H	-0.925072	-0.910709	-0.485957
H84	H	-0.872699	-1.112910	-0.207243
C85	C	-0.538653	-0.525992	-0.427128
C86	C	-0.547484	-0.598154	-0.434106
H87	H	-0.580891	-0.500503	-0.460551
H88	H	-0.550147	-0.511552	-0.380925
H89	H	-0.478933	-0.516982	-0.435189
H90	H	-0.607202	-0.607165	-0.426041
H91	H	-0.535996	-0.612600	-0.480321
C92	C	-0.778004	-1.123986	-0.195220
C93	C	-0.720566	-1.088549	-0.233512
H94	H	-0.742723	-1.154794	-0.161883
H95	H	-0.815286	-1.090716	-0.171283
H96	H	-0.814946	-1.150492	-0.226525
H97	H	-0.683628	-1.062039	-0.202207
H98	H	-0.683268	-1.121825	-0.257449
H99	H	-0.752299	-0.918252	-0.417741
H100	H	-0.275059	-0.282095	-0.218609
H101	H	-1.044411	-1.105575	-0.215290
C102	C	-0.235821	-0.708746	-0.187554
C103	C	-0.286134	-0.755872	-0.227364
H104	H	-0.193588	-0.734237	-0.154130
H105	H	-0.204268	-0.682740	-0.217891
H106	H	-0.275489	-0.677309	-0.163633
H107	H	-0.246467	-0.787306	-0.251289
H108	H	-0.317689	-0.781890	-0.197022
H109	H	-0.311256	-0.944955	-0.583903
H110	H	-0.317842	-0.950034	-0.717338
C111	C	-0.177745	-0.931384	-1.034611
C112	C	-0.269194	-0.912954	-1.057210
H113	H	-0.141278	-0.903481	-1.059036
H114	H	-0.167385	-0.923425	-0.985436
H115	H	-0.162549	-0.979744	-1.044049
H116	H	-0.284392	-0.864595	-1.047768
H117	H	-0.279559	-0.920907	-1.106398
H118	H	-1.061353	-0.948217	-0.385520
C119	C	-0.285763	-0.837145	-0.924450
C120	C	-0.261590	-0.907069	-0.902807
H121	H	-0.246835	-0.807340	-0.898955
H122	H	-0.280229	-0.832936	-0.973400
H123	H	-0.346619	-0.823734	-0.915660
H124	H	-0.200736	-0.920482	-0.911602
H125	H	-0.267116	-0.911281	-0.853846
H126	H	-0.486090	-1.078959	-1.049824
C127	C	-0.345592	-0.555273	-0.192798
C128	C	-0.294478	-0.601486	-0.233911
H129	H	-0.306057	-0.530874	-0.161471
H130	H	-0.383200	-0.522358	-0.222568
H131	H	-0.382173	-0.581248	-0.166463
H132	H	-0.257902	-0.575510	-0.260250
H133	H	-0.256855	-0.634405	-0.204137
C134	C	-0.527595	-1.110621	-0.803075
C135	C	-0.535766	-1.116837	-0.730914
H136	H	-0.566520	-1.140432	-0.828565
H137	H	-0.543988	-1.063187	-0.817749
H138	H	-0.466736	-1.124041	-0.811849
H139	H	-0.596624	-1.103412	-0.722139
H140	H	-0.519379	-1.164281	-0.716236
C141	C	-0.579275	-1.150092	-0.625015
C142	C	-0.528161	-1.110947	-0.576509
H143	H	-0.615745	-1.177995	-0.600592
H144	H	-0.616995	-1.118991	-0.656618
H145	H	-0.539748	-1.179849	-0.650723
H146	H	-0.567689	-1.081187	-0.550804
H147	H	-0.490438	-1.142052	-0.544893
C148	C	-0.561797	-0.315644	-0.445441
C149	C	-0.511472	-0.268526	-0.405633
H150	H	-0.604030	-0.290148	-0.478862
H151	H	-0.522144	-0.347084	-0.469360
H152	H	-0.593360	-0.341648	-0.415098
H153	H	-0.479904	-0.242526	-0.435976
H154	H	-0.551131	-0.237074	-0.381713
H155	H	-0.486561	-0.412673	-0.385902
