data_functionalizedCrystal
_audit_creation_method	'MofGen! by Chris Wilmer'
_symmetry_space_group_name_H-M	'P1'
_symmetry_Int_Tables_number	1
_symmetry_cell_setting	triclinic
loop_
_symmetry_equiv_pos_as_xyz
  x,y,z
_cell_length_a	12.827893
_cell_length_b	12.759394
_cell_length_c	12.827885
_cell_angle_alpha	89.970470
_cell_angle_beta	89.980728
_cell_angle_gamma	90.014016
loop_
_atom_site_label
_atom_site_type_symbol
_atom_site_fract_x
_atom_site_fract_y
_atom_site_fract_z
Zn1	Zn	1.597681	-0.418211	-0.590851
Zn2	Zn	1.597580	-0.593927	-0.416112
Zn3	Zn	1.422922	-0.418263	-0.416124
Zn4	Zn	1.422912	-0.593849	-0.590812
O5	O	1.510274	-0.506062	-0.503474
O6	O	1.743903	-0.441531	-0.567682
O7	O	1.574373	-0.570679	-0.269877
O8	O	1.446151	-0.271235	-0.439324
O9	O	1.743829	-0.570629	-0.439302
O10	O	1.574545	-0.271197	-0.567694
O11	O	1.446053	-0.441619	-0.269886
O12	O	1.276685	-0.441544	-0.439286
O13	O	1.446134	-0.570496	-0.737053
O14	O	1.276677	-0.570546	-0.567628
O15	O	1.574535	-0.441456	-0.737081
O16	O	1.574363	-0.740938	-0.439264
O17	O	1.446036	-0.740881	-0.567616
C18	C	1.238764	-0.506043	-0.503455
C19	C	1.122611	-0.506060	-0.503471
C20	C	1.070862	-0.442292	-0.567096
C21	C	0.950812	-0.442308	-0.567115
C22	C	1.510216	-0.779030	-0.503457
C23	C	1.510286	-0.895807	-0.503485
C24	C	1.643883	-0.895609	-0.637257
C25	C	1.710715	-0.950371	-0.704152
C26	C	1.710777	-1.060092	-0.704174
C27	C	1.643998	-1.115055	-0.637298
C28	C	1.577167	-1.060293	-0.570403
C29	C	1.577114	-0.950569	-0.570386
C30	C	1.443566	-1.060490	-0.436638
C31	C	1.443508	-0.950769	-0.436608
C32	C	1.376787	-1.115453	-0.369761
C33	C	1.309959	-1.060691	-0.302860
C34	C	1.309901	-0.950962	-0.302839
C35	C	1.376676	-0.896007	-0.369714
C36	C	1.782844	-0.506083	-0.503495
C37	C	1.898997	-0.506091	-0.503504
C38	C	1.510345	-0.505962	-0.776045
C39	C	1.510375	-0.505919	-0.892198
C40	C	1.510360	-0.232029	-0.503515
C41	C	1.510397	-0.115252	-0.503532
C42	C	1.573919	-0.442053	-0.943997
C43	C	1.573952	-0.442007	-1.064047
C44	C	1.510263	-0.506087	-0.231965
C45	C	1.510435	-0.505834	-0.115812
H46	H	0.943492	-0.560694	-0.449035
H47	H	1.765084	-0.905611	-0.758604
H48	H	1.455990	-0.560556	-0.936728
O49	O	1.775783	-1.113131	-0.769197
C50	C	1.834684	-1.041099	-0.828247
H51	H	1.838297	-0.962913	-0.785433
H52	H	1.917025	-1.072739	-0.839481
H53	H	1.796359	-1.029400	-0.907574
O54	O	1.069560	-0.571356	-0.438550
C55	C	1.096134	-0.676117	-0.461203
H56	H	1.175427	-0.678403	-0.501288
H57	H	1.099715	-0.723142	-0.385702
H58	H	1.034749	-0.711517	-0.514935
O59	O	1.123866	-0.377049	-0.632107
C60	C	1.052443	-0.317783	-0.691292
H61	H	0.974591	-0.314028	-0.648577
H62	H	1.084076	-0.235045	-0.702555
H63	H	1.040905	-0.356349	-0.770602
O64	O	1.245012	-0.897608	-0.237955
C65	C	1.259294	-0.788977	-0.252249
H66	H	1.293478	-0.773902	-0.332918
H67	H	1.180999	-0.747345	-0.245091
H68	H	1.314953	-0.757844	-0.190298
O69	O	1.643928	-0.789026	-0.637396
C70	C	1.717218	-0.752258	-0.710741
H71	H	1.731859	-0.815431	-0.771822
H72	H	1.685632	-0.678847	-0.750354
H73	H	1.793424	-0.732764	-0.669356
O74	O	1.638806	-0.376625	-1.117065
C75	C	1.615997	-0.271897	-1.090502
H76	H	1.575874	-0.269676	-1.011227
H77	H	1.691433	-0.224789	-1.086888
H78	H	1.562244	-0.236540	-1.151911
O79	O	1.445675	-0.571123	-1.062567
C80	C	1.505195	-0.638967	-0.999448
H81	H	1.584412	-0.601909	-0.983219
H82	H	1.462679	-0.653003	-0.922645
H83	H	1.516624	-0.716849	-1.041439
H84	H	1.644046	-1.204396	-0.637331
H85	H	0.906310	-0.387717	-0.621590
O86	O	1.638653	-0.376811	-0.890766
C87	C	1.579106	-0.309012	-0.827654
H88	H	1.499878	-0.346077	-0.811402
H89	H	1.621585	-0.295040	-0.750861
H90	H	1.567704	-0.231096	-0.869662
H91	H	1.376839	-1.204794	-0.369788
H92	H	1.255589	-1.105450	-0.248419
H93	H	1.376639	-0.806666	-0.369699
