data_functionalizedCrystal
_audit_creation_method	'MofGen! by Chris Wilmer'
_symmetry_space_group_name_H-M	'P1'
_symmetry_Int_Tables_number	1
_symmetry_cell_setting	triclinic
loop_
_symmetry_equiv_pos_as_xyz
  x,y,z
_cell_length_a	6.817900
_cell_length_b	19.551136
_cell_length_c	9.514088
_cell_angle_alpha	92.292231
_cell_angle_beta	118.843545
_cell_angle_gamma	101.650842
loop_
_atom_site_label
_atom_site_type_symbol
_atom_site_fract_x
_atom_site_fract_y
_atom_site_fract_z
V1	V	-4.208640	-0.097917	-0.501544
O2	O	-4.201672	0.003431	-0.491183
O3	O	-4.150275	-0.192928	-0.498897
O4	O	-4.243503	-0.096970	-0.719928
O5	O	-4.107799	-0.093191	-0.268622
V6	V	-4.682770	-0.085729	-0.473590
O7	O	-4.490502	-0.124654	-0.562864
O8	O	-4.851104	-0.058992	-0.412269
O9	O	-4.517928	0.009281	-0.476237
O10	O	-4.807135	-0.187077	-0.483951
O11	O	-4.901008	-0.090455	-0.706512
O12	O	-4.424700	-0.086676	-0.255206
C13	C	-3.990158	-0.216072	-0.491186
C14	C	-4.024280	-0.293747	-0.490478
C15	C	-3.944977	-0.319873	-0.342965
C16	C	-3.977091	-0.392855	-0.342250
C17	C	-4.088471	-0.439710	-0.489053
C18	C	-4.167794	-0.413577	-0.636586
C19	C	-4.135698	-0.340596	-0.637298
C20	C	-4.093566	-0.560984	-0.595498
C21	C	-4.125644	-0.633963	-0.594779
C22	C	-4.187477	-0.664808	-0.486864
C23	C	-4.217183	-0.622663	-0.379639
C24	C	-4.185088	-0.549682	-0.380351
C25	C	-4.123285	-0.518847	-0.488298
C26	C	-4.142992	-0.770069	-0.338566
C27	C	-4.175123	-0.843054	-0.337857
C28	C	-4.365807	-0.863774	-0.632196
C29	C	-4.333695	-0.790791	-0.632902
C30	C	-4.222276	-0.743942	-0.486081
C31	C	-4.109077	-0.093668	-0.773131
C32	C	-4.218800	-0.093522	-0.951666
C33	C	-4.341385	0.032422	-0.483943
C34	C	-4.286505	0.110097	-0.484662
C35	C	-4.222464	-0.089981	-0.201994
C36	C	-4.091980	-0.090123	-0.023457
H37	H	-4.398258	-0.769520	-0.753022
F38	F	-3.840349	-0.086472	-0.925275
F39	F	-4.282970	-0.655483	-0.264767
H40	H	-4.052268	-0.731923	-0.219016
H41	H	-4.411331	-0.096323	-1.026797
H42	H	-3.854268	-0.281733	-0.223413
H43	H	-4.258484	-0.451730	-0.756114
F44	F	-3.892678	-0.420667	-0.185240
H45	H	-4.209283	-0.515371	-0.293047
H46	H	-4.110554	-0.864323	-0.217730
H47	H	-4.456496	-0.901922	-0.751727
H48	H	-4.043218	-0.535877	-0.683382
F49	F	-4.093963	-0.678807	-0.708864
H50	H	-4.200286	-0.319327	-0.757424
