data_functionalizedCrystal
_audit_creation_method	'MofGen! by Chris Wilmer'
_symmetry_space_group_name_H-M	'P1'
_symmetry_Int_Tables_number	1
_symmetry_cell_setting	triclinic
loop_
_symmetry_equiv_pos_as_xyz
  x,y,z
_cell_length_a	13.262402
_cell_length_b	9.616153
_cell_length_c	13.339070
_cell_angle_alpha	90.004341
_cell_angle_beta	99.431904
_cell_angle_gamma	74.083875
loop_
_atom_site_label
_atom_site_type_symbol
_atom_site_fract_x
_atom_site_fract_y
_atom_site_fract_z
O1	O	1.432391	-0.426180	0.136446
O2	O	1.131129	-0.312222	0.151276
O3	O	1.247185	-0.356126	-0.003549
O4	O	1.316336	-0.382276	0.291270
O5	O	1.247176	-0.587414	-0.003559
O6	O	1.131120	-0.543509	0.151265
O7	O	1.432382	-0.657468	0.136435
Zn8	Zn	1.281750	-0.637211	0.143848
Zn9	Zn	1.281762	-0.332479	0.143863
O10	O	1.316326	-0.613563	0.291260
C11	C	1.091779	-0.412982	0.150439
C12	C	0.974537	-0.368633	0.147948
N13	N	1.281749	-0.845185	0.143838
C14	C	0.919460	-0.221718	0.146783
C15	C	0.809307	-0.180053	0.144452
C16	C	0.754219	-0.285297	0.143279
C17	C	0.809294	-0.432214	0.144438
C18	C	0.919459	-0.473884	0.146776
C19	C	0.754217	-0.537463	0.143273
C20	C	0.809293	-0.684380	0.144432
C21	C	0.919447	-0.726043	0.146769
C22	C	0.974536	-0.620799	0.147942
C23	C	0.644052	-0.495793	0.140935
C24	C	0.644051	-0.747959	0.140928
C25	C	0.754204	-0.789625	0.143259
C26	C	1.344230	-1.089149	0.061300
C27	C	1.343910	-0.927860	0.060988
C28	C	1.165389	-0.859701	0.120293
C29	C	1.165736	-1.021050	0.119714
C30	C	1.334749	-1.085105	0.250213
C31	C	1.337026	-0.924737	0.249506
C32	C	1.471733	-0.556705	0.137272
C33	C	1.588975	-0.601045	0.139763
C34	C	1.235500	-0.467350	-0.041293
C35	C	1.200682	-0.454174	-0.153741
N36	N	1.281769	-0.124507	0.143865
C37	C	1.471407	-0.556582	-0.517391
C38	C	1.504123	-0.568970	-0.411741
C39	C	1.428266	-0.540272	-0.347236
C40	C	1.319686	-0.499183	-0.388392
C41	C	1.286967	-0.486804	-0.494053
C42	C	1.243825	-0.470494	-0.323897
C43	C	1.135246	-0.429406	-0.365053
C44	C	1.102532	-0.417028	-0.470704
C45	C	1.178389	-0.445726	-0.535209
C46	C	1.276545	-0.482873	-0.218236
C47	C	1.092105	-0.413096	-0.194898
C48	C	1.059388	-0.400707	-0.300549
C49	C	1.328012	-0.502337	0.329003
C50	C	1.362830	-0.515504	0.441452
H51	H	0.599221	-0.376172	0.139993
C52	C	1.460026	-1.185319	0.080034
N53	N	1.547245	-1.257769	0.094144
C54	C	1.108364	-0.783623	0.016673
N55	N	1.065419	-0.726329	-0.061378
H56	H	0.764473	-0.060433	0.143510
C57	C	1.282740	-0.849792	0.336445
N58	N	1.241844	-0.793338	0.401926
H59	H	1.307523	-1.115796	-0.017164
C60	C	1.095704	-0.666621	0.150455
N61	N	1.186966	-0.701129	0.152330
H62	H	1.116504	-0.802889	0.178805
C63	C	0.980065	-0.105968	0.148074
N64	N	1.025714	-0.018777	0.149047
H65	H	1.364951	-0.516328	-0.184738
C66	C	1.449182	-1.183292	0.280630
N67	N	1.535375	-1.257248	0.303527
H68	H	0.599199	-0.833658	0.139977
C69	C	1.452877	-0.916878	0.273632
N70	N	1.540137	-0.910951	0.291801
C71	C	1.464258	-0.553891	-0.231017
N72	N	1.491373	-0.564143	-0.143477
C73	C	0.814808	-0.951233	0.144573
N74	N	0.860457	-1.072958	0.145576
C75	C	1.273706	-1.113558	0.333227
N76	N	1.227725	-1.134998	0.395746
H77	H	1.306865	-0.875296	-0.017928
H78	H	1.592528	-0.602426	-0.378239
C79	C	1.554837	-0.588155	-0.588352
N80	N	1.617682	-0.611939	-0.641802
H81	H	1.151757	-0.435636	-0.621240
H82	H	1.429412	-0.920628	0.075077
H83	H	0.964288	-0.845673	0.147722
C84	C	1.109011	-1.050419	0.014916
N85	N	1.066286	-1.072532	-0.064022
C86	C	1.098903	-1.048489	0.197825
N87	N	1.048557	-1.069147	0.256651
C88	C	0.983091	-0.371844	-0.515973
N89	N	0.893128	-0.337809	-0.550067
H90	H	0.664527	-0.251364	0.141382
C91	C	0.939953	-0.355530	-0.345835
N92	N	0.849994	-0.321508	-0.379945
C93	C	1.008655	-0.381521	-0.123946
N94	N	0.945807	-0.357742	-0.070500
