data_functionalizedCrystal
_audit_creation_method	'MofGen! by Chris Wilmer'
_symmetry_space_group_name_H-M	'P1'
_symmetry_Int_Tables_number	1
_symmetry_cell_setting	triclinic
loop_
_symmetry_equiv_pos_as_xyz
  x,y,z
_cell_length_a	23.532407
_cell_length_b	12.837942
_cell_length_c	22.610064
_cell_angle_alpha	89.981502
_cell_angle_beta	90.003992
_cell_angle_gamma	88.838809
loop_
_atom_site_label
_atom_site_type_symbol
_atom_site_fract_x
_atom_site_fract_y
_atom_site_fract_z
O1	O	-0.762473	-0.125788	0.049110
O2	O	-0.262473	0.374212	0.549110
O3	O	-0.597654	-0.143986	0.049127
O4	O	-0.097654	0.356014	0.549127
O5	O	-0.676409	0.015978	0.049115
O6	O	-0.176409	0.515978	0.549115
O7	O	-0.683718	-0.285752	0.049122
O8	O	-0.183718	0.214248	0.549122
O9	O	-0.676406	0.016027	-0.049254
O10	O	-0.176406	0.516027	0.450746
O11	O	-0.597651	-0.143937	-0.049242
O12	O	-0.097651	0.356063	0.450758
O13	O	-0.762471	-0.125740	-0.049259
O14	O	-0.262471	0.374260	0.450741
Zn15	Zn	-0.680061	-0.134831	-0.064869
Zn16	Zn	-0.180061	0.365169	0.435131
Zn17	Zn	-0.680064	-0.134895	0.064737
Zn18	Zn	-0.180064	0.365105	0.564737
O19	O	-0.683716	-0.285704	-0.049247
O20	O	-0.183716	0.214296	0.450753
C21	C	-0.576410	-0.143498	-0.000055
C22	C	-0.076410	0.356502	0.499945
C23	C	-0.513113	-0.142105	-0.000049
C24	C	-0.013113	0.357895	0.499951
C25	C	-0.673938	0.054598	-0.000069
C26	C	-0.173938	0.554598	0.499931
C27	C	-0.666574	0.169599	-0.000067
C28	C	-0.166574	0.669599	0.499933
C29	C	-0.783714	-0.126227	-0.000076
C30	C	-0.283714	0.373773	0.499924
C31	C	-0.847011	-0.127621	-0.000078
C32	C	-0.347011	0.372379	0.499922
C33	C	-0.118940	-0.228030	-0.000074
C34	C	0.381060	0.271970	0.499926
C35	C	-0.059466	-0.226735	-0.000077
C36	C	0.440534	0.273265	0.499923
O37	O	-0.027291	-0.306388	-0.000097
O38	O	0.472709	0.193612	0.499903
N39	N	-0.031383	-0.131637	-0.000078
N40	N	0.468617	0.368363	0.499922
C41	C	-0.062778	-0.037827	-0.000082
C42	C	0.437222	0.462173	0.499918
O43	O	-0.033430	0.043181	-0.000084
O44	O	0.466570	0.543181	0.499916
C45	C	-0.122251	-0.039122	-0.000082
C46	C	0.377749	0.460878	0.499918
C47	C	-0.150331	-0.134226	-0.000075
C48	C	0.349669	0.365774	0.499925
C49	C	-0.147020	-0.323126	-0.000067
C50	C	0.352980	0.176874	0.499933
C51	C	-0.206490	-0.324420	-0.000062
C52	C	0.293510	0.175580	0.499938
C53	C	-0.237881	-0.230617	-0.000064
C54	C	0.262119	0.269383	0.499936
C55	C	-0.209801	-0.135520	-0.000071
C56	C	0.290199	0.364480	0.499929
C57	C	-0.153645	0.054687	-0.000090
C58	C	0.346355	0.554687	0.499910
C59	C	-0.213122	0.053384	-0.000091
C60	C	0.286878	0.553384	0.499909
C61	C	-0.241202	-0.041721	-0.000084
C62	C	0.258798	0.458279	0.499916
C63	C	-0.300662	-0.043011	-0.000067
C64	C	0.199338	0.456989	0.499933
N65	N	-0.328745	-0.138109	-0.000066
N66	N	0.171255	0.361891	0.499934
C67	C	-0.297354	-0.231913	-0.000065
C68	C	0.202646	0.268087	0.499935
C69	C	0.062120	-0.035113	-0.000082
C70	C	0.562120	0.464887	0.499918
C71	C	0.121593	-0.033817	-0.000077
C72	C	0.621593	0.466183	0.499923
C73	C	0.124901	-0.222726	-0.000073
C74	C	0.624901	0.277274	0.499927
C75	C	0.065428	-0.224022	-0.000074
C76	C	0.565428	0.275978	0.499926
C77	C	0.034038	-0.130212	-0.000081
C78	C	0.534038	0.369788	0.499919
C79	C	-0.422246	-0.234622	-0.000054
C80	C	0.077754	0.265378	0.499946
C81	C	-0.481722	-0.235908	-0.000047
C82	C	0.018278	0.264092	0.499953
C83	C	-0.485025	-0.046999	-0.000054
C84	C	0.014975	0.453001	0.499946
C85	C	-0.425555	-0.045713	-0.000058
C86	C	0.074445	0.454287	0.499942
C87	C	-0.394167	-0.139533	-0.000060
C88	C	0.105833	0.360467	0.499940
O89	O	-0.332873	0.036600	-0.000050
O90	O	0.167127	0.536600	0.499950
O91	O	-0.326709	-0.312907	-0.000071
O92	O	0.173291	0.187093	0.499929
C93	C	-0.686186	-0.324323	-0.000062
C94	C	-0.186186	0.175677	0.499938
C95	C	-0.693550	-0.439324	-0.000060
C96	C	-0.193550	0.060676	0.499940
N97	N	-0.680063	-0.134786	-0.153321
N98	N	-0.180063	0.365214	0.346679
C99	C	-0.755107	0.411469	-0.000064
C100	C	-0.255107	0.911469	0.499936
C101	C	-0.748190	0.519523	-0.000062
C102	C	-0.248190	1.019523	0.499938
C103	C	-0.645824	0.493765	-0.000058
C104	C	-0.145824	0.993765	0.499942
C105	C	-0.652741	0.385710	-0.000059
C106	C	-0.152741	0.885710	0.499941
C107	C	-0.707384	0.344566	-0.000063
C108	C	-0.207384	0.844566	0.499937
C109	C	-0.714300	0.236510	-0.000069
C110	C	-0.214300	0.736510	0.499931
C111	C	-0.611934	0.210753	-0.000061
C112	C	-0.111934	0.710753	0.499939
C113	C	-0.605018	0.318808	-0.000059
C114	C	-0.105018	0.818808	0.499941
N115	N	-0.680065	-0.134931	0.153189
N116	N	-0.180065	0.365069	0.653189
C117	C	-0.642203	-0.072175	0.561833
C118	C	-0.142203	0.427825	1.061833
C119	C	-0.642204	-0.072161	0.623753
C120	C	-0.142204	0.427839	1.123753
O121	O	-0.610018	-0.018848	0.655773
O122	O	-0.110018	0.481152	1.155773
N123	N	-0.680066	-0.134811	0.654726
N124	N	-0.180066	0.365189	1.154726
C125	C	-0.717934	-0.197470	0.623777
C126	C	-0.217934	0.302530	1.123777
O127	O	-0.750139	-0.250756	0.655808
O128	O	-0.250139	0.249244	1.155808
C129	C	-0.717935	-0.197477	0.561858
C130	C	-0.217935	0.302523	1.061858
C131	C	-0.680067	-0.134832	0.530888
C132	C	-0.180067	0.365168	1.030888
C133	C	-0.604338	-0.009534	0.530862
C134	C	-0.104338	0.490466	1.030862
C135	C	-0.604337	-0.009549	0.468947
C136	C	-0.104337	0.490451	0.968947
C137	C	-0.642201	-0.072205	0.438002
C138	C	-0.142201	0.427795	0.938002
C139	C	-0.680065	-0.134847	0.468972
C140	C	-0.180065	0.365153	0.968972
C141	C	-0.755805	-0.260130	0.530910
C142	C	-0.255805	0.239870	1.030910
C143	C	-0.755804	-0.260131	0.468987
C144	C	-0.255804	0.239869	0.968987
C145	C	-0.717935	-0.197486	0.438016
C146	C	-0.217935	0.302514	0.938016
C147	C	-0.717928	-0.197519	0.376111
C148	C	-0.217928	0.302481	0.876111
N149	N	-0.680066	-0.134869	0.345138
N150	N	-0.180066	0.365131	0.845138
C151	C	-0.642202	-0.072213	0.376083
C152	C	-0.142202	0.427787	0.876083
C153	C	-0.717929	-0.197449	0.753811
C154	C	-0.217929	0.302551	1.253811
C155	C	-0.717925	-0.197448	0.815728
C156	C	-0.217925	0.302552	1.315728
C157	C	-0.642196	-0.072137	0.815700
C158	C	-0.142196	0.427863	1.315700
C159	C	-0.642197	-0.072145	0.753781
C160	C	-0.142197	0.427855	1.253781
C161	C	-0.680066	-0.134799	0.722837
C162	C	-0.180066	0.365201	1.222837
C163	C	-0.642202	-0.072250	0.246055
C164	C	-0.142202	0.427750	0.746055
C165	C	-0.642202	-0.072274	0.184134
C166	C	-0.142202	0.427726	0.684134
C167	C	-0.717933	-0.197580	0.184168
C168	C	-0.217933	0.302420	0.684168
C169	C	-0.717931	-0.197560	0.246084
C170	C	-0.217931	0.302440	0.746084
C171	C	-0.680063	-0.134887	0.277026
C172	C	-0.180063	0.365113	0.777026
O173	O	-0.750099	-0.250802	0.344051
O174	O	-0.250099	0.249198	0.844051
O175	O	-0.610007	-0.018925	0.344044
O176	O	-0.110007	0.481075	0.844044
H177	H	-0.504582	-0.313357	-0.000041
H178	H	-0.004582	0.186643	0.499959
N179	N	-0.758774	-0.265133	0.279485
N180	N	-0.258774	0.234867	0.779485
H181	H	-0.784235	-0.219845	0.305157
H182	H	-0.284235	0.280155	0.805157
H183	H	-0.736658	-0.315987	0.305160
H184	H	-0.236658	0.184013	0.805160
H185	H	-0.611366	-0.021216	0.271241
H186	H	-0.111366	0.478784	0.771241
H187	H	-0.748755	-0.248473	0.840939
H188	H	-0.248755	0.251527	1.340939
H189	H	-0.396697	-0.311020	-0.000058
H190	H	0.103303	0.188980	0.499942
H191	H	-0.748765	-0.248479	0.728620
H192	H	-0.248765	0.251521	1.228620
N193	N	-0.601361	-0.004692	0.150733
N194	N	-0.101361	0.495308	0.650733
H195	H	-0.607103	-0.014204	0.106811
H196	H	-0.107103	0.485796	0.606811
H197	H	-0.561055	-0.025401	0.161566
H198	H	-0.061055	0.474599	0.661566
H199	H	-0.787052	0.573993	-0.000061
H200	H	-0.287052	1.073993	0.499939
H201	H	-0.510594	0.029373	-0.000053
H202	H	-0.010594	0.529373	0.499947
H203	H	-0.748759	-0.248596	0.158962
H204	H	-0.248759	0.251404	0.658962
H205	H	-0.130793	0.132132	-0.000096
H206	H	0.369207	0.632132	0.499904
N207	N	-0.236772	-0.426997	-0.000052
N208	N	0.263228	0.073003	0.499948
H209	H	-0.207854	-0.486216	-0.000051
H210	H	0.292146	0.013784	0.499949
H211	H	-0.261380	-0.431643	-0.036517
H212	H	0.238620	0.068357	0.463483
N213	N	-0.796654	-0.327689	0.564304
N214	N	-0.296654	0.172311	1.064304
H215	H	-0.820641	-0.367368	0.535296
H216	H	-0.320641	0.132632	1.035296
H217	H	-0.822074	-0.282330	0.589977
H218	H	-0.322074	0.217670	1.089977
N219	N	-0.563507	0.058048	0.435547
N220	N	-0.063507	0.558048	0.935547
H221	H	-0.539529	0.097747	0.464554
H222	H	-0.039529	0.597747	0.964554
H223	H	-0.585641	0.108843	0.409852
H224	H	-0.085641	0.608843	0.909852
H225	H	-0.121467	-0.399517	-0.000068
H226	H	0.378533	0.100483	0.499932
N227	N	0.035144	-0.326597	-0.000064
N228	N	0.535144	0.173403	0.499936
H229	H	0.064060	-0.385819	-0.000061
H230	H	0.564060	0.114181	0.499939
H231	H	0.010538	-0.331240	-0.036531
H232	H	0.510538	0.168760	0.463469
N233	N	-0.560457	0.138594	-0.000063
N234	N	-0.060457	0.638594	0.499937
H235	H	-0.573128	0.063898	-0.000066
H236	H	-0.073128	0.563898	0.499934
H237	H	-0.536896	0.151832	0.036405
H238	H	-0.036896	0.651832	0.536405
N239	N	-0.601356	-0.004553	0.849082
N240	N	-0.101356	0.495447	1.349082
H241	H	-0.607106	-0.014057	0.893006
H242	H	-0.107106	0.485943	1.393006
H243	H	-0.608594	0.070879	0.838243
H244	H	-0.108594	0.570879	1.338243
H245	H	0.150470	-0.299106	-0.000075
H246	H	0.650470	0.200894	0.499925
N247	N	-0.546083	0.363183	-0.000061
N248	N	-0.046083	0.863183	0.499939
H249	H	-0.524907	0.338725	0.036404
H250	H	-0.024907	0.838725	0.536404
H251	H	-0.548988	0.441781	-0.000082
H252	H	-0.048988	0.941781	0.499918
H253	H	-0.758794	0.203013	-0.000075
H254	H	-0.258794	0.703013	0.499925
H255	H	0.144450	0.043627	-0.000073
H256	H	0.644450	0.543627	0.499927
N257	N	0.028266	0.066073	-0.000086
N258	N	0.528266	0.566073	0.499914
H259	H	0.055085	0.126507	-0.000086
H260	H	0.555085	0.626507	0.499914
H261	H	0.003520	0.069639	0.036381
H262	H	0.503520	0.569639	0.536381
H263	H	-0.573505	0.041494	0.556051
H264	H	-0.073505	0.541494	1.056051
H265	H	-0.611361	-0.021133	0.728569
H266	H	-0.111361	0.478867	1.228569
H267	H	-0.238677	0.129777	-0.000097
H268	H	0.261323	0.629777	0.499903
H269	H	-0.799600	0.377969	-0.000073
H270	H	-0.299600	0.877969	0.499927
N271	N	-0.796655	-0.327698	0.435612
N272	N	-0.296655	0.172302	0.935612
H273	H	-0.820643	-0.367375	0.464631
H274	H	-0.320643	0.132625	0.964631
H275	H	-0.774541	-0.378514	0.409933
H276	H	-0.274541	0.121486	0.909933
H277	H	-0.402691	0.031729	-0.000055
H278	H	0.097309	0.531729	0.499945
H279	H	-0.601336	0.527283	-0.000048
H280	H	-0.101336	1.027283	0.499952
