data_functionalizedCrystal
_audit_creation_method	'MofGen! by Chris Wilmer'
_symmetry_space_group_name_H-M	'P1'
_symmetry_Int_Tables_number	1
_symmetry_cell_setting	triclinic
loop_
_symmetry_equiv_pos_as_xyz
  x,y,z
_cell_length_a	21.395364
_cell_length_b	21.395361
_cell_length_c	21.395355
_cell_angle_alpha	89.978489
_cell_angle_beta	89.975484
_cell_angle_gamma	90.026472
loop_
_atom_site_label
_atom_site_type_symbol
_atom_site_fract_x
_atom_site_fract_y
_atom_site_fract_z
Zn1	Zn	0.957859	-0.249582	-0.354248
Zn2	Zn	1.457859	0.250418	0.145752
Zn3	Zn	0.957761	-0.354342	-0.249465
Zn4	Zn	1.457761	0.145658	0.250535
Zn5	Zn	0.853074	-0.249574	-0.249485
Zn6	Zn	1.353074	0.250426	0.250515
Zn7	Zn	0.853043	-0.354318	-0.354205
Zn8	Zn	1.353043	0.145682	0.145795
O9	O	0.905434	-0.301954	-0.301851
O10	O	1.405434	0.198046	0.198149
O11	O	1.045524	-0.263492	-0.340358
O12	O	1.545524	0.236508	0.159642
O13	O	0.943847	-0.340451	-0.161789
O14	O	1.443847	0.159549	0.338211
O15	O	0.867028	-0.161897	-0.263408
O16	O	1.367028	0.338103	0.236592
O17	O	1.045452	-0.340458	-0.263374
O18	O	1.545452	0.159542	0.236626
O19	O	0.944013	-0.161903	-0.340377
O20	O	1.444013	0.338097	0.159623
O21	O	0.866933	-0.263479	-0.161804
O22	O	1.366933	0.236521	0.338196
O23	O	0.765392	-0.263456	-0.263366
O24	O	1.265392	0.236544	0.236634
O25	O	0.866975	-0.340418	-0.441889
O26	O	1.366975	0.159582	0.058111
O27	O	0.765369	-0.340410	-0.340304
O28	O	1.265369	0.159590	0.159696
O29	O	0.943983	-0.263469	-0.441920
O30	O	1.443983	0.236531	0.058080
O31	O	0.943817	-0.442016	-0.263333
O32	O	1.443817	0.057984	0.236667
O33	O	0.866881	-0.441999	-0.340285
O34	O	1.366881	0.058001	0.159715
C35	C	0.742647	-0.301930	-0.301833
C36	C	1.242647	0.198070	0.198167
C37	C	0.673006	-0.301935	-0.301840
C38	C	1.173006	0.198065	0.198160
C39	C	0.171246	-0.261972	-0.342010
C40	C	0.671246	0.238028	0.157990
C41	C	0.236681	-0.261967	-0.342010
C42	C	0.736681	0.238033	0.157990
C43	C	0.269367	-0.301973	-0.301865
C44	C	0.769367	0.198027	0.198135
C45	C	0.236612	-0.341998	-0.261728
C46	C	0.736612	0.158002	0.238272
C47	C	0.171178	-0.342006	-0.261734
C48	C	0.671178	0.157994	0.238266
C49	C	0.373004	-0.306825	-0.245397
C50	C	0.873004	0.193175	0.254603
C51	C	0.438437	-0.306813	-0.245390
C52	C	0.938437	0.193187	0.254610
C53	C	0.471188	-0.301952	-0.301847
C54	C	0.971188	0.198048	0.198153
C55	C	0.438498	-0.297091	-0.358313
C56	C	0.938498	0.202909	0.141687
C57	C	0.373064	-0.297099	-0.358318
C58	C	0.873064	0.202901	0.141682
C59	C	0.340320	-0.301969	-0.301854
C60	C	0.840320	0.198031	0.198146
C61	C	0.574888	-0.261928	-0.341984
C62	C	1.074888	0.238072	0.158016
C63	C	0.640324	-0.261928	-0.341985
C64	C	1.140324	0.238072	0.158015
C65	C	0.640254	-0.341955	-0.261698
C66	C	1.140254	0.158045	0.238302
C67	C	0.574818	-0.341959	-0.261702
C68	C	1.074818	0.158041	0.238298
C69	C	0.542139	-0.301942	-0.301845
C70	C	1.042139	0.198058	0.198155
C71	C	0.905352	-0.464742	-0.301816
C72	C	1.405352	0.035258	0.198184
C73	C	0.905374	-0.534383	-0.301822
C74	C	1.405374	-0.034383	0.198178
C75	C	0.945470	-0.567084	-0.261794
C76	C	1.445470	-0.067084	0.238206
C77	C	0.945499	-0.632520	-0.261808
C78	C	1.445499	-0.132520	0.238192
C79	C	0.905421	-0.665251	-0.301843
C80	C	1.405421	-0.165251	0.198157
C81	C	0.865322	-0.632542	-0.341879
C82	C	1.365322	-0.132542	0.158121
C83	C	0.865298	-0.567108	-0.341868
C84	C	1.365298	-0.067108	0.158132
C85	C	0.849006	-0.768962	-0.306753
C86	C	1.349006	-0.268962	0.193247
C87	C	0.849029	-0.834395	-0.306759
C88	C	1.349029	-0.334395	0.193241
C89	C	0.905494	-0.867072	-0.301880
C90	C	1.405494	-0.367072	0.198120
C91	C	0.961938	-0.834308	-0.296981
C92	C	1.461938	-0.334308	0.203019
C93	C	0.961915	-0.768873	-0.296970
C94	C	1.461915	-0.268873	0.203030
C95	C	0.905442	-0.736203	-0.301860
C96	C	1.405442	-0.236203	0.198140
C97	C	0.945625	-0.970726	-0.261865
C98	C	1.445625	-0.470726	0.238135
C99	C	0.945655	-1.036162	-0.261883
C100	C	1.445655	-0.536162	0.238117
C101	C	0.865472	-1.036183	-0.341951
C102	C	1.365472	-0.536183	0.158049
C103	C	0.865448	-0.970748	-0.341936
C104	C	1.365448	-0.470748	0.158064
C105	C	0.905523	-0.938023	-0.301890
C106	C	1.405523	-0.438023	0.198110
C107	C	1.068858	-0.301979	-0.301868
C108	C	1.568858	0.198021	0.198132
C109	C	1.138499	-0.301989	-0.301876
C110	C	1.638499	0.198011	0.198124
C111	C	0.905486	-0.301941	-0.465274
C112	C	1.405486	0.198059	0.034726
C113	C	0.905509	-0.301936	-0.534915
C114	C	1.405509	0.198064	-0.034915
C115	C	0.905535	-0.138531	-0.301899
C116	C	1.405535	0.361469	0.198101
C117	C	0.905577	-0.068889	-0.301920
C118	C	1.405577	0.431111	0.198080
C119	C	0.945605	-0.261867	-0.567646
C120	C	1.445605	0.238133	-0.067646
C121	C	0.945604	-0.261840	-0.633081
C122	C	1.445604	0.238160	-0.133081
C123	C	0.905513	-0.301893	-0.665784
C124	C	1.405513	0.198107	-0.165784
C125	C	0.865409	-0.341965	-0.633045
C126	C	1.365409	0.158035	-0.133045
C127	C	0.865407	-0.341986	-0.567611
C128	C	1.365407	0.158014	-0.067611
C129	C	0.900538	-0.358308	-0.769446
C130	C	1.400538	0.141692	-0.269446
C131	C	0.900544	-0.358288	-0.834879
C132	C	1.400544	0.141712	-0.334879
C133	C	0.905517	-0.301827	-0.867604
C134	C	1.405517	0.198173	-0.367604
C135	C	0.910497	-0.245385	-0.834889
C136	C	1.410497	0.254615	-0.334889
C137	C	0.910494	-0.245406	-0.769454
C138	C	1.410494	0.254594	-0.269454
C139	C	0.905511	-0.301874	-0.736736
C140	C	1.405511	0.198126	-0.236736
C141	C	0.945615	-0.261725	-0.971287
C142	C	1.445615	0.238275	-0.471287
C143	C	0.945610	-0.261697	-1.036724
C144	C	1.445610	0.238303	-0.536724
C145	C	0.865418	-0.341828	-1.036687
C146	C	1.365418	0.158172	-0.536687
C147	C	0.865420	-0.341850	-0.971252
C148	C	1.365420	0.158150	-0.471252
C149	C	0.905522	-0.301800	-0.938556
C150	C	1.405522	0.198200	-0.438556
C151	C	0.905419	-0.301921	-0.139063
C152	C	1.405419	0.198079	0.360937
C153	C	0.905518	-0.301750	-0.069422
C154	C	1.405518	0.198250	0.430578
H155	H	0.465163	-0.293130	-0.404285
H156	H	0.965163	0.206870	0.095715
H157	H	0.144516	-0.374594	-0.229051
H158	H	0.644516	0.125406	0.270949
H159	H	0.978264	-0.229110	-0.944665
H160	H	1.478264	0.270890	-0.444665
H161	H	0.896320	-0.404274	-0.742807
H162	H	1.396320	0.095726	-0.242807
N163	N	0.539635	-0.218773	-0.385280
N164	N	1.039635	0.281227	0.114720
H165	H	0.570312	-0.193424	-0.410710
H166	H	1.070312	0.306576	0.089290
H167	H	0.512490	-0.244321	-0.414230
H168	H	1.012490	0.255679	0.085770
H169	H	0.896494	-0.404247	-0.861511
H170	H	1.396494	0.095753	-0.361511
H171	H	0.832773	-0.374483	-0.944602
H172	H	1.332773	0.125517	-0.444602
N173	N	0.822048	-0.531829	-0.385038
N174	N	1.322048	-0.031829	0.114962
H175	H	0.831759	-0.543181	-0.429817
H176	H	1.331759	-0.043181	0.070183
H177	H	0.777307	-0.543273	-0.375214
H178	H	1.277307	-0.043273	0.124786
H179	H	0.978258	-0.229254	-0.541029
H180	H	1.478258	0.270746	-0.041029
H181	H	0.144643	-0.229390	-0.374700
H182	H	0.644643	0.270610	0.125300
H183	H	0.666986	-0.229343	-0.374672
H184	H	1.166986	0.270657	0.125328
N185	N	0.915862	-0.184478	-0.870169
N186	N	1.415862	0.315522	-0.370169
H187	H	0.954470	-0.185317	-0.897335
H188	H	1.454470	0.314683	-0.397335
H189	H	0.877667	-0.178617	-0.897264
H190	H	1.377667	0.321383	-0.397264
N191	N	0.788149	-0.869723	-0.312045
N192	N	1.288149	-0.369723	0.187955
H193	H	0.788986	-0.896851	-0.350659
H194	H	1.288986	-0.396851	0.149341
H195	H	0.782328	-0.896860	-0.273847
H196	H	1.282328	-0.396860	0.226153
N197	N	0.988858	-0.218623	-0.668389
N198	N	1.488858	0.281377	-0.168389
H199	H	1.017875	-0.244087	-0.695546
H200	H	1.517875	0.255913	-0.195546
H201	H	0.963375	-0.189581	-0.695494
H202	H	1.463375	0.310419	-0.195494
H203	H	0.263229	-0.374572	-0.229043
H204	H	0.763229	0.125428	0.270957
H205	H	0.548155	-0.374542	-0.229018
H206	H	1.048155	0.125458	0.270982
H207	H	0.465048	-0.310767	-0.199413
H208	H	0.965048	0.189233	0.300587
N209	N	0.822175	-0.385024	-1.071954
N210	N	1.322175	0.114976	-0.571954
H211	H	0.847619	-0.414054	-1.099113
H212	H	1.347619	0.085946	-0.599113
H213	H	0.796781	-0.410372	-1.041249
H214	H	1.296781	0.089628	-0.541249
H215	H	0.832691	-0.659196	-0.374477
H216	H	1.332691	-0.159196	0.125523
N217	N	0.337682	-0.312072	-0.184501
N218	N	0.837682	0.187928	0.315499
H219	H	0.368318	-0.315145	-0.148731
H220	H	0.868318	0.184855	0.351269
H221	H	0.310542	-0.273893	-0.178754
H222	H	0.810542	0.226107	0.321246
H223	H	0.978103	-0.540442	-0.229187
H224	H	1.478103	-0.040442	0.270813
N225	N	0.915866	-0.184535	-0.734167
N226	N	1.415866	0.315465	-0.234167
H227	H	0.919019	-0.148762	-0.764822
H228	H	1.419019	0.351238	-0.264822
H229	H	0.877694	-0.178721	-0.707002
H230	H	1.377694	0.321279	-0.207002
H231	H	0.978260	-0.229065	-1.063372
H232	H	1.478260	0.270935	-0.563372
N233	N	0.822158	-0.385156	-0.668312
N234	N	1.322158	0.114844	-0.168312
H235	H	0.828242	-0.379061	-0.714732
H236	H	1.328242	0.120939	-0.214732
H237	H	0.831873	-0.429912	-0.656879
H238	H	1.331873	0.070088	-0.156879
N239	N	0.675498	-0.385110	-0.218402
N240	N	1.175498	0.114890	0.281598
H241	H	0.721920	-0.379035	-0.224489
H242	H	1.221920	0.120965	0.275511
H243	H	0.664042	-0.375297	-0.173672
H244	H	1.164042	0.124703	0.326328
N245	N	0.337938	-0.291952	-0.419299
N246	N	0.837938	0.208048	0.080701
H247	H	0.310772	-0.253363	-0.418685
H248	H	0.810772	0.246637	0.081315
H249	H	0.368767	-0.288937	-0.454935
H250	H	0.868767	0.211063	0.045065
N251	N	0.822150	-0.385197	-0.532304
N252	N	1.322150	0.114803	-0.032304
H253	H	0.796747	-0.410563	-0.562947
H254	H	1.296747	0.089437	-0.062947
H255	H	0.847627	-0.414209	-0.505160
H256	H	1.347627	0.085791	-0.005160
H257	H	0.978310	-1.062787	-0.229289
H258	H	1.478310	-0.562787	0.270711
N259	N	0.272012	-0.218806	-0.385299
N260	N	0.772012	0.281194	0.114701
H261	H	0.241381	-0.193458	-0.410730
H262	H	0.741381	0.306542	0.089270
H263	H	0.299157	-0.189774	-0.359840
H264	H	0.799157	0.310226	0.140160
N265	N	0.988748	-0.667801	-0.218634
N266	N	1.488748	-0.167801	0.281366
H267	H	1.014132	-0.637141	-0.193265
H268	H	1.514132	-0.137141	0.306735
H269	H	0.963262	-0.694986	-0.189623
H270	H	1.463262	-0.194986	0.310377
H271	H	1.007873	-0.742198	-0.292983
H272	H	1.507873	-0.242198	0.207017
H273	H	1.007918	-0.860912	-0.293008
H274	H	1.507918	-0.360912	0.206992
H275	H	0.832843	-1.062833	-0.374552
H276	H	1.332843	-0.562833	0.125448
N277	N	0.988847	-0.935424	-0.218676
N278	N	1.488847	-0.435424	0.281324
H279	H	1.014257	-0.966072	-0.193323
H280	H	1.514257	-0.466072	0.306677
H281	H	1.017819	-0.908234	-0.244201
H282	H	1.517819	-0.408234	0.255799
H283	H	0.832795	-0.944121	-0.374528
H284	H	1.332795	-0.444121	0.125472
N285	N	0.788101	-0.733721	-0.312023
N286	N	1.288101	-0.233721	0.187977
H287	H	0.752349	-0.764404	-0.315123
H288	H	1.252349	-0.264404	0.184877
H289	H	0.782291	-0.706596	-0.273838
H290	H	1.282291	-0.206596	0.226162
