data_functionalizedCrystal
_audit_creation_method	'MofGen! by Chris Wilmer'
_symmetry_space_group_name_H-M	'P1'
_symmetry_Int_Tables_number	1
_symmetry_cell_setting	triclinic
loop_
_symmetry_equiv_pos_as_xyz
  x,y,z
_cell_length_a	16.109301
_cell_length_b	16.109301
_cell_length_c	15.186229
_cell_angle_alpha	89.994833
_cell_angle_beta	89.999362
_cell_angle_gamma	83.461481
loop_
_atom_site_label
_atom_site_type_symbol
_atom_site_fract_x
_atom_site_fract_y
_atom_site_fract_z
O1	O	1.103131	0.106866	-0.073176
O2	O	0.861069	0.120165	-0.073190
O3	O	0.988749	-0.007515	-0.073174
O4	O	0.975450	0.234547	-0.073192
O5	O	0.988741	-0.007517	0.073284
O6	O	0.861060	0.120164	0.073267
O7	O	1.103122	0.106864	0.073282
Zn8	Zn	0.982090	0.113514	0.096528
Zn9	Zn	0.982101	0.113516	-0.096436
O10	O	0.975441	0.234545	0.073265
C11	C	0.830090	0.119626	0.000037
C12	C	0.737794	0.118011	0.000032
C13	C	0.515522	0.190018	0.000036
C14	C	0.428801	0.188494	0.000042
C15	C	0.448676	0.037006	0.000050
C16	C	0.535394	0.038530	0.000051
C17	C	0.568815	0.115039	0.000039
C18	C	0.395376	0.111990	0.000045
C19	C	0.301350	0.110337	0.000051
C20	C	0.662847	0.116693	0.000035
C21	C	0.988206	-0.038491	0.000056
C22	C	0.986591	-0.130786	0.000057
C23	C	1.058599	-0.353059	0.000047
C24	C	1.057075	-0.439779	0.000040
C25	C	0.905586	-0.419905	0.000034
C26	C	0.907111	-0.333186	0.000035
C27	C	0.983620	-0.299766	0.000046
C28	C	0.980571	-0.473205	0.000038
C29	C	0.978918	-0.567231	0.000030
C30	C	0.985273	-0.205734	0.000052
C31	C	1.134101	0.107404	0.000053
C32	C	1.226397	0.109019	0.000052
C33	C	0.975984	0.265521	0.000034
C34	C	0.977600	0.357816	0.000027
N35	N	0.982088	0.113511	0.228220
N36	N	0.982109	0.113512	-0.228129
C37	C	1.038644	0.056994	0.453950
C38	C	1.038647	0.056992	0.546140
C39	C	0.925547	0.170032	0.546135
C40	C	0.925541	0.170030	0.453947
C41	C	0.982094	0.113511	0.407857
C42	C	0.982103	0.113512	0.592235
C43	C	0.982105	0.113510	0.692191
C44	C	0.982091	0.113512	0.307894
H45	H	0.385413	0.249550	0.000041
C46	C	0.411909	-0.047150	0.000053
C47	C	0.355019	-0.069033	0.076101
C48	C	0.318254	-0.153191	0.076100
C49	C	0.338378	-0.215464	0.000051
C50	C	0.395270	-0.193582	-0.076002
C51	C	0.432036	-0.109425	-0.076002
H52	H	0.340120	-0.022933	0.132402
H53	H	0.276138	-0.169389	0.132400
H54	H	0.311162	-0.277762	0.000051
H55	H	0.410170	-0.239682	-0.132303
H56	H	0.474151	-0.093227	-0.132302
C57	C	1.100845	-0.005181	0.403251
C58	C	1.100846	-0.005189	0.301848
C59	C	1.163047	-0.067368	0.251152
C60	C	1.225246	-0.129539	0.301860
C61	C	1.225248	-0.129534	0.403268
C62	C	1.163047	-0.067355	0.453964
H63	H	1.054800	0.040836	0.264307
H64	H	1.163045	-0.067371	0.176083
H65	H	1.271291	-0.175568	0.264332
H66	H	1.271294	-0.175559	0.440810
H67	H	1.163049	-0.067352	0.529034
H68	H	0.843295	-0.447127	0.000027
C69	C	0.863333	0.232203	0.403235
C70	C	0.801156	0.294403	0.453926
C71	C	0.738949	0.356571	0.403214
C72	C	0.738919	0.356539	0.301811
C73	C	0.801097	0.294337	0.251115
C74	C	0.863304	0.232169	0.301827
H75	H	0.801177	0.294429	0.528996
H76	H	0.692921	0.402617	0.440744
H77	H	0.692869	0.402559	0.264271
H78	H	0.801076	0.294311	0.176045
H79	H	0.909333	0.186123	0.264297
H80	H	1.084694	0.010969	0.583667
H81	H	0.846050	-0.289792	0.000032
C82	C	0.552287	0.274175	0.000032
C83	C	0.609172	0.296050	0.076081
C84	C	0.645934	0.380209	0.076080
C85	C	0.625811	0.442493	0.000028
C86	C	0.568922	0.420619	-0.076027
C87	C	0.532160	0.336460	-0.076025
H88	H	0.624072	0.249942	0.132384
H89	H	0.688047	0.396401	0.132381
H90	H	0.653024	0.504792	0.000027
H91	H	0.554023	0.466727	-0.132329
H92	H	0.490047	0.320269	-0.132326
H93	H	0.578788	-0.022530	0.000056
H94	H	0.879503	0.216049	0.583670
H95	H	1.120897	-0.325851	0.000054
C96	C	1.139553	-0.498402	0.000043
C97	C	1.223706	-0.461637	0.000053
C98	C	1.306188	-0.520259	0.000055
C99	C	1.304518	-0.615648	0.000047
C100	C	1.220362	-0.652418	0.000037
C101	C	1.137880	-0.593795	0.000035
H102	H	1.224945	-0.391020	0.000060
H103	H	1.368486	-0.493039	0.000062
H104	H	1.365577	-0.659044	0.000048
H105	H	1.219123	-0.723034	0.000030
H106	H	1.075582	-0.621015	0.000028
