data_functionalizedCrystal
_audit_creation_method	'MofGen! by Chris Wilmer'
_symmetry_space_group_name_H-M	'P1'
_symmetry_Int_Tables_number	1
_symmetry_cell_setting	triclinic
loop_
_symmetry_equiv_pos_as_xyz
  x,y,z
_cell_length_a	14.519709
_cell_length_b	16.992694
_cell_length_c	16.053810
_cell_angle_alpha	87.261482
_cell_angle_beta	87.418242
_cell_angle_gamma	92.825816
loop_
_atom_site_label
_atom_site_type_symbol
_atom_site_fract_x
_atom_site_fract_y
_atom_site_fract_z
O1	O	0.191920	-1.043950	0.069327
O2	O	0.189773	-0.815663	0.069352
O3	O	0.057043	-0.935859	0.069331
O4	O	0.324651	-0.923754	0.069348
O5	O	0.064349	-0.929270	-0.069526
O6	O	0.197079	-0.809074	-0.069506
O7	O	0.199226	-1.037361	-0.069530
Zn8	Zn	0.199312	-0.922171	-0.091565
Zn9	Zn	0.189687	-0.930852	0.091386
O10	O	0.331956	-0.917165	-0.069510
C11	C	0.190666	-0.783152	-0.000074
C12	C	0.182430	-0.696097	-0.000065
C13	C	0.026296	-0.932000	-0.000097
C14	C	-0.076207	-0.930310	-0.000098
N15	N	0.205881	-0.916253	-0.216424
C16	C	-0.451551	-0.924087	-0.000075
C17	C	-0.347118	-0.925815	-0.000082
C18	C	-0.263882	-0.927198	-0.000087
C19	C	-0.159443	-0.928926	-0.000092
C20	C	0.362703	-0.921024	-0.000079
C21	C	0.465206	-0.922715	-0.000073
C22	C	0.198333	-1.069872	-0.000103
C23	C	0.206569	-1.156927	-0.000106
C24	C	0.261890	-0.645968	-0.000061
C25	C	0.254147	-0.564170	-0.000073
C26	C	0.166943	-0.532503	-0.000083
C27	C	0.087478	-0.582638	-0.000089
C28	C	0.095222	-0.664434	-0.000083
C29	C	0.134847	-0.288859	-0.000107
C30	C	0.127109	-0.207056	-0.000111
C31	C	0.293779	-0.188594	-0.000095
C32	C	0.301515	-0.270393	-0.000084
C33	C	0.222050	-0.320521	-0.000095
N34	N	0.159027	-0.448892	-0.000092
N35	N	0.229968	-0.404129	-0.000092
C36	C	0.239573	-0.885622	-0.740051
C37	C	0.234997	-0.889779	-0.652645
C38	C	0.173963	-0.945097	-0.608944
C39	C	0.117496	-0.996255	-0.652654
C40	C	0.122068	-0.992093	-0.740059
C41	C	0.153985	-0.963249	-0.347538
C42	C	0.149419	-0.967408	-0.260128
C43	C	0.266920	-0.860931	-0.260124
C44	C	0.271490	-0.856777	-0.347530
C45	C	0.215019	-0.907933	-0.391233
N46	N	0.169286	-0.949349	-0.519601
N47	N	0.219692	-0.903676	-0.480574
N48	N	0.183111	-0.936778	0.216245
H49	H	0.332900	-0.671745	-0.000052
H50	H	0.016475	-0.556847	-0.000110
C51	C	0.082273	-1.028260	-0.212059
C52	C	0.077229	-1.032829	-0.115917
C53	C	0.010088	-1.093680	-0.067850
C54	C	-0.052008	-1.149961	-0.115924
C55	C	-0.046965	-1.145394	-0.212071
C56	C	0.020175	-1.084544	-0.260138
H57	H	0.123198	-0.991165	-0.080325
H58	H	0.006355	-1.097060	0.003324
H59	H	-0.101710	-1.195006	-0.080342
H60	H	-0.092934	-1.187059	-0.247663
H61	H	0.023908	-1.081164	-0.331313
H62	H	0.280971	-0.848124	-0.617061
H63	H	0.289277	-0.840580	-0.775626
H64	H	0.321189	-0.811733	-0.383109
C65	C	0.381186	-0.133452	-0.000091
C66	C	0.447207	-0.140490	0.072019
C67	C	0.534618	-0.085348	0.072020
C68	C	0.556010	-0.023167	-0.000090
C69	C	0.489988	-0.016126	-0.072205
C70	C	0.402576	-0.071268	-0.072206
H71	H	0.431373	-0.186522	0.125403
H72	H	0.583492	-0.090560	0.125405
H73	H	0.620717	0.017653	-0.000089
H74	H	0.505822	0.029907	-0.125589
H75	H	0.353703	-0.066056	-0.125591
H76	H	0.318852	-0.523358	-0.000068
C77	C	0.397441	-0.305224	-0.000076
C78	C	0.484849	-0.250083	-0.000074
C79	C	0.580775	-0.284915	-0.000062
C80	C	0.589295	-0.374888	-0.000052
C81	C	0.501885	-0.430034	-0.000054
C82	C	0.405958	-0.395202	-0.000066
H83	H	0.478545	-0.183475	-0.000081
H84	H	0.645482	-0.244092	-0.000060
H85	H	0.660306	-0.400672	-0.000042
H86	H	0.508189	-0.496642	-0.000046
H87	H	0.341251	-0.436025	-0.000068
H88	H	0.056094	-0.181277	-0.000118
H89	H	0.070141	-0.329663	-0.000117
C90	C	0.007815	-0.719580	-0.000086
C91	C	-0.058203	-0.712539	-0.072198
C92	C	-0.145612	-0.767684	-0.072205
C93	C	-0.167002	-0.829871	-0.000101
C94	C	-0.100982	-0.836914	0.072016
C95	C	-0.013574	-0.781769	0.072023
H96	H	-0.042370	-0.666502	-0.125578
H97	H	-0.194484	-0.762469	-0.125591
H98	H	-0.231707	-0.870692	-0.000107
H99	H	-0.116816	-0.882951	0.125396
H100	H	0.035298	-0.786984	0.125409
C101	C	0.050357	-1.057106	-0.604588
C102	C	0.045321	-1.061689	-0.508447
C103	C	-0.021818	-1.122544	-0.460384
C104	C	-0.083920	-1.178817	-0.508462
C105	C	-0.078886	-1.174236	-0.604609
C106	C	-0.011748	-1.113381	-0.652672
H107	H	0.091294	-1.020031	-0.472852
H108	H	-0.025544	-1.125935	-0.389210
H109	H	-0.133620	-1.223866	-0.472883
H110	H	-0.124860	-1.215894	-0.640204
H111	H	-0.008022	-1.109990	-0.723847
H112	H	0.312895	-0.819282	-0.224534
H113	H	0.108006	-1.004903	-0.383114
H114	H	0.076090	-1.033749	-0.775642
