data_functionalizedCrystal
_audit_creation_method	'MofGen! by Chris Wilmer'
_symmetry_space_group_name_H-M	'P1'
_symmetry_Int_Tables_number	1
_symmetry_cell_setting	triclinic
loop_
_symmetry_equiv_pos_as_xyz
  x,y,z
_cell_length_a	18.050589
_cell_length_b	19.805407
_cell_length_c	19.805399
_cell_angle_alpha	90.016886
_cell_angle_beta	89.976299
_cell_angle_gamma	89.971779
loop_
_atom_site_label
_atom_site_type_symbol
_atom_site_fract_x
_atom_site_fract_y
_atom_site_fract_z
Zn1	Zn	-0.295666	-1.034709	-0.382745
Zn2	Zn	0.037667	-0.701376	-0.049411
Zn3	Zn	0.371000	-0.368043	0.283922
Zn4	Zn	-0.419862	-1.034626	-0.269567
Zn5	Zn	-0.086528	-0.701292	0.063767
Zn6	Zn	0.246805	-0.367959	0.397100
Zn7	Zn	-0.295690	-0.921529	-0.269569
Zn8	Zn	0.037643	-0.588196	0.063764
Zn9	Zn	0.370977	-0.254863	0.397098
Zn10	Zn	-0.419819	-0.921484	-0.382713
Zn11	Zn	-0.086486	-0.588150	-0.049380
Zn12	Zn	0.246848	-0.254817	0.283953
O13	O	-0.357759	-0.978087	-0.326148
O14	O	-0.024426	-0.644754	0.007185
O15	O	0.308907	-0.311420	0.340518
O16	O	-0.312149	-1.129415	-0.367743
O17	O	0.021184	-0.796081	-0.034410
O18	O	0.354518	-0.462748	0.298923
O19	O	-0.403418	-1.019607	-0.174850
O20	O	-0.070084	-0.686274	0.158483
O21	O	0.263249	-0.352941	0.491816
O22	O	-0.191762	-0.936597	-0.284596
O23	O	0.141571	-0.603263	0.048737
O24	O	0.474905	-0.269930	0.382071
O25	O	-0.403395	-1.129353	-0.284592
O26	O	-0.070061	-0.796020	0.048741
O27	O	0.263272	-0.462687	0.382075
O28	O	-0.191745	-1.019750	-0.367746
O29	O	0.141588	-0.686416	-0.034412
O30	O	0.474922	-0.353083	0.298921
O31	O	-0.312189	-0.936516	-0.174852
O32	O	0.021144	-0.603182	0.158481
O33	O	0.354478	-0.269849	0.491814
O34	O	-0.312148	-0.826807	-0.284566
O35	O	0.021185	-0.493473	0.048767
O36	O	0.354519	-0.160140	0.382101
O37	O	-0.403322	-0.936519	-0.477434
O38	O	-0.069989	-0.603186	-0.144101
O39	O	0.263344	-0.269853	0.189232
O40	O	-0.403345	-0.826773	-0.367693
O41	O	-0.070012	-0.493440	-0.034359
O42	O	0.263322	-0.160107	0.298974
O43	O	-0.312108	-1.019706	-0.477457
O44	O	0.021226	-0.686372	-0.144124
O45	O	0.354559	-0.353039	0.189210
O46	O	-0.523781	-1.019563	-0.284562
O47	O	-0.190447	-0.686230	0.048771
O48	O	0.142886	-0.352897	0.382105
O49	O	-0.523749	-0.936438	-0.367690
O50	O	-0.190416	-0.603105	-0.034357
O51	O	0.142917	-0.269772	0.298976
C52	C	-0.357745	-0.802231	-0.326127
C53	C	-0.024412	-0.468898	0.007207
C54	C	0.308922	-0.135564	0.340540
C55	C	-0.357757	-0.726999	-0.326133
C56	C	-0.024423	-0.393666	0.007200
C57	C	0.308910	-0.060332	0.340533
C58	C	-0.550711	-0.978005	-0.326137
C59	C	-0.217378	-0.644672	0.007196
C60	C	0.115955	-0.311339	0.340529
C61	C	-0.633257	-0.978032	-0.326155
C62	C	-0.299924	-0.644699	0.007178
C63	C	0.033410	-0.311366	0.340512
C64	C	-0.357708	-0.978117	-0.502691
C65	C	-0.024374	-0.644783	-0.169358
C66	C	0.308959	-0.311450	0.163975
C67	C	-0.357686	-0.978129	-0.577923
C68	C	-0.024352	-0.644796	-0.244590
C69	C	0.308981	-0.311463	0.088743
C70	C	-0.832718	-0.932873	-0.371344
C71	C	-0.499384	-0.599540	-0.038011
C72	C	-0.166051	-0.266207	0.295322
C73	C	-0.882158	-0.916378	-0.309581
C74	C	-0.548825	-0.583045	0.023752
C75	C	-0.215492	-0.249711	0.357085
C76	C	-0.784387	-0.978099	-0.326164
C77	C	-0.451054	-0.644765	0.007169
C78	C	-0.117721	-0.311432	0.340503
C79	C	-0.882029	-0.994627	-0.387934
C80	C	-0.548695	-0.661294	-0.054601
C81	C	-0.215362	-0.327961	0.278733
C82	C	-0.930373	-0.978162	-0.326178
C83	C	-0.597039	-0.644828	0.007156
C84	C	-0.263706	-0.311495	0.340489
C85	C	-0.832741	-0.961571	-0.264368
C86	C	-0.499407	-0.628238	0.068965
C87	C	-0.166074	-0.294904	0.402299
C88	C	-0.832607	-1.039849	-0.342762
C89	C	-0.499273	-0.706516	-0.009429
C90	C	-0.165940	-0.373182	0.323904
C91	C	-0.882025	-1.023377	-0.280957
C92	C	-0.548692	-0.690044	0.052377
C93	C	-0.215358	-0.356710	0.385710
C94	C	-0.700289	-0.978061	-0.326157
C95	C	-0.366956	-0.644727	0.007177
C96	C	-0.033623	-0.311394	0.340510
C97	C	-1.014469	-0.978200	-0.326178
C98	C	-0.681136	-0.644866	0.007155
C99	C	-0.347802	-0.311533	0.340489
C100	C	-0.164054	-0.978187	-0.326175
C101	C	0.169280	-0.644854	0.007159
C102	C	0.502613	-0.311521	0.340492
C103	C	-0.081508	-0.978230	-0.326186
C104	C	0.251826	-0.644897	0.007148
C105	C	0.585159	-0.311564	0.340481
C106	C	-0.357774	-1.154630	-0.326171
C107	C	-0.024441	-0.821296	0.007163
C108	C	0.308893	-0.487963	0.340496
C109	C	-0.357780	-1.229862	-0.326180
C110	C	-0.024447	-0.896528	0.007153
C111	C	0.308886	-0.563195	0.340486
C112	C	-0.405315	-0.691655	-0.369347
C113	C	-0.071981	-0.358322	-0.036014
C114	C	0.261352	-0.024989	0.297319
C115	C	-0.405316	-0.620967	-0.369357
C116	C	-0.071983	-0.287633	-0.036023
C117	C	0.261351	0.045700	0.297310
C118	C	-0.357763	-0.585623	-0.326148
C119	C	-0.024429	-0.252290	0.007185
C120	C	0.308904	0.081043	0.340518
C121	C	-0.310200	-0.620972	-0.282933
C122	C	0.023134	-0.287639	0.050401
C123	C	0.356467	0.045695	0.383734
C124	C	-0.310195	-0.691659	-0.282927
C125	C	0.023138	-0.358326	0.050406
C126	C	0.356472	-0.024993	0.383740
C127	C	-0.310216	-0.335899	-0.282955
C128	C	0.023117	-0.002566	0.050378
C129	C	0.356451	0.330768	0.383712
C130	C	-0.310226	-0.265207	-0.282962
C131	C	0.023108	0.068127	0.050371
C132	C	0.356441	0.401460	0.383704
C133	C	-0.405337	-0.265206	-0.369385
C134	C	-0.072004	0.068127	-0.036051
C135	C	0.261330	0.401460	0.297282
C136	C	-0.405332	-0.335893	-0.369379
C137	C	-0.071999	-0.002560	-0.036046
C138	C	0.261334	0.330773	0.297288
C139	C	-0.357767	-0.371236	-0.326166
C140	C	-0.024434	-0.037903	0.007167
C141	C	0.308900	0.295431	0.340501
C142	C	-0.357765	-0.447884	-0.326157
C143	C	-0.024432	-0.114551	0.007176
C144	C	0.308902	0.218782	0.340509
C145	C	-0.357768	-0.508976	-0.326153
C146	C	-0.024434	-0.175643	0.007180
C147	C	0.308899	0.157690	0.340513
C148	C	-0.310179	-0.934876	-0.613268
C149	C	0.023155	-0.601543	-0.279934
C150	C	0.356488	-0.268209	0.053399
C151	C	-0.310164	-0.934885	-0.683956
C152	C	0.023169	-0.601552	-0.350623
C153	C	0.356503	-0.268219	-0.017290
C154	C	-0.357654	-0.978152	-0.719299
C155	C	-0.024320	-0.644819	-0.385966
C156	C	0.309013	-0.311485	-0.052632
C157	C	-0.405166	-1.021407	-0.683949
C158	C	-0.071833	-0.688074	-0.350616
C159	C	0.261501	-0.354741	-0.017283
C160	C	-0.405184	-1.021394	-0.613262
C161	C	-0.071850	-0.688061	-0.279929
C162	C	0.261483	-0.354727	0.053404
C163	C	-0.405096	-1.021461	-0.969023
C164	C	-0.071763	-0.688128	-0.635690
C165	C	0.261570	-0.354794	-0.302356
C166	C	-0.405074	-1.021472	-1.039715
C167	C	-0.071740	-0.688139	-0.706382
C168	C	0.261593	-0.354806	-0.373048
C169	C	-0.310077	-0.934952	-1.039717
C170	C	0.023256	-0.601619	-0.706384
C171	C	0.356590	-0.268285	-0.373050
C172	C	-0.310095	-0.934939	-0.969030
C173	C	0.023239	-0.601606	-0.635696
C174	C	0.356572	-0.268272	-0.302363
C175	C	-0.357609	-0.978191	-0.933686
C176	C	-0.024276	-0.644858	-0.600353
C177	C	0.309057	-0.311525	-0.267020
C178	C	-0.357626	-0.978180	-0.857038
C179	C	-0.024292	-0.644847	-0.523705
C180	C	0.309041	-0.311513	-0.190371
C181	C	-0.357634	-0.978167	-0.795946
C182	C	-0.024301	-0.644834	-0.462613
C183	C	0.309032	-0.311501	-0.129279
C184	C	-0.357757	-0.978096	-0.150292
C185	C	-0.024424	-0.644763	0.183041
C186	C	0.308910	-0.311430	0.516374
C187	C	-0.357570	-0.978215	-0.075061
C188	C	-0.024236	-0.644882	0.258272
C189	C	0.309097	-0.311548	0.591606
H190	H	-0.903940	-0.864187	-0.295555
H191	H	-0.570606	-0.530854	0.037779
H192	H	-0.237273	-0.197520	0.371112
H193	H	-0.271482	-0.899661	-0.712731
H194	H	0.061851	-0.566328	-0.379397
H195	H	0.395185	-0.232995	-0.046064
H196	H	-0.271421	-0.899709	-0.940257
H197	H	0.061912	-0.566376	-0.606924
H198	H	0.395245	-0.233042	-0.273591
N199	N	-0.453910	-0.584879	-0.413497
N200	N	-0.120577	-0.251546	-0.080164
N201	N	0.212756	0.081788	0.253169
N202	N	-0.522430	-0.592751	-0.408894
N203	N	-0.189097	-0.259417	-0.075561
N204	N	0.144237	0.073916	0.257773
H205	H	-0.556753	-0.567266	-0.440071
H206	H	-0.223420	-0.233933	-0.106737
H207	H	0.109913	0.099401	0.226596
H208	H	-0.444041	-0.720427	-0.404530
H209	H	-0.110707	-0.387093	-0.071197
H210	H	0.222626	-0.053760	0.262136
H211	H	-0.811180	-0.947556	-0.212121
H212	H	-0.477847	-0.614222	0.121213
H213	H	-0.144513	-0.280889	0.454546
N214	N	-0.453917	-0.371984	-0.413515
N215	N	-0.120583	-0.038651	-0.080182
N216	N	0.212750	0.294682	0.253152
N217	N	-0.496376	-0.340419	-0.452097
N218	N	-0.163043	-0.007085	-0.118764
N219	N	0.170290	0.326248	0.214569
H220	H	-0.530689	-0.365906	-0.483271
H221	H	-0.197356	-0.032573	-0.149938
H222	H	0.135977	0.300760	0.183396
N223	N	-0.261544	-0.890774	-1.075831
N224	N	0.071789	-0.557441	-0.742497
N225	N	0.405122	-0.224107	-0.409164
N226	N	-0.261531	-0.890789	-1.138944
N227	N	0.071802	-0.557455	-0.805610
N228	N	0.405135	-0.224122	-0.472277
H229	H	-0.227254	-0.859591	-1.164449
H230	H	0.106080	-0.526258	-0.831116
H231	H	0.439413	-0.192924	-0.497782
N232	N	-0.909010	-1.071387	-0.232974
N233	N	-0.575677	-0.738054	0.100359
N234	N	-0.242343	-0.404720	0.433692
N235	N	-0.893067	-1.065223	-0.171872
N236	N	-0.559734	-0.731889	0.161462
N237	N	-0.226401	-0.398556	0.494795
H238	H	-0.912126	-1.099127	-0.137982
H239	H	-0.578793	-0.765794	0.195352
H240	H	-0.245460	-0.432460	0.528685
N241	N	-0.453586	-1.065679	-1.075807
N242	N	-0.120253	-0.732346	-0.742474
N243	N	0.213081	-0.399012	-0.409141
N244	N	-0.496004	-1.104296	-1.044244
N245	N	-0.162670	-0.770963	-0.710911
N246	N	0.170663	-0.437629	-0.377577
H247	H	-0.530262	-1.135518	-1.069734
H248	H	-0.196929	-0.802184	-0.736401
H249	H	0.136405	-0.468851	-0.403067
N250	N	-0.805290	-1.105308	-0.360401
N251	N	-0.471956	-0.771974	-0.027067
N252	N	-0.138623	-0.438641	0.306266
N253	N	-0.821028	-1.130482	-0.416468
N254	N	-0.487695	-0.797149	-0.083135
N255	N	-0.154361	-0.463815	0.250198
H256	H	-0.801735	-1.176713	-0.428933
H257	H	-0.468402	-0.843380	-0.095599
H258	H	-0.135068	-0.510047	0.237734
H259	H	-0.443794	-1.056672	-0.940255
H260	H	-0.110461	-0.723339	-0.606921
H261	H	0.222873	-0.390006	-0.273588
H262	H	-0.903679	-1.008582	-0.440167
H263	H	-0.570346	-0.675249	-0.106834
H264	H	-0.237012	-0.341916	0.226500
N265	N	-0.453922	-0.229093	-0.413523
N266	N	-0.120588	0.104240	-0.080189
N267	N	0.212745	0.437573	0.253144
N268	N	-0.453923	-0.165980	-0.413525
N269	N	-0.120589	0.167353	-0.080191
N270	N	0.212744	0.500686	0.253142
H271	H	-0.488237	-0.140476	-0.444694
H272	H	-0.154903	0.192858	-0.111361
H273	H	0.178430	0.526191	0.221973
H274	H	-0.443836	-1.056632	-0.712731
H275	H	-0.110503	-0.723299	-0.379398
H276	H	0.222830	-0.389966	-0.046064
N277	N	-0.261645	-0.229114	-0.238818
N278	N	0.071689	0.104220	0.094515
N279	N	0.405022	0.437553	0.427848
N280	N	-0.219180	-0.260676	-0.200239
N281	N	0.114154	0.072657	0.133095
N282	N	0.447487	0.405990	0.466428
H283	H	-0.184872	-0.235186	-0.169062
H284	H	0.148462	0.098147	0.164271
H285	H	0.481795	0.431481	0.497604
H286	H	-0.271491	-0.364666	-0.247763
H287	H	0.061843	-0.031333	0.085570
H288	H	0.395176	0.302000	0.418904
H289	H	-0.271478	-0.592190	-0.247754
H290	H	0.061856	-0.258857	0.085579
H291	H	0.395189	0.074477	0.418912
N292	N	-0.261656	-0.890692	-0.577167
N293	N	0.071678	-0.557359	-0.243834
N294	N	0.405011	-0.224025	0.089499
N295	N	-0.193127	-0.895223	-0.585075
N296	N	0.140206	-0.561890	-0.251742
N297	N	0.473540	-0.228557	0.081592
H298	H	-0.158856	-0.864018	-0.559580
H299	H	0.174478	-0.530684	-0.226246
H300	H	0.507811	-0.197351	0.107087
H301	H	-0.443863	-1.056621	-0.584486
H302	H	-0.110530	-0.723287	-0.251152
H303	H	0.222803	-0.389954	0.082181
N304	N	-0.261604	-0.727754	-0.238787
N305	N	0.071729	-0.394421	0.094546
N306	N	0.405063	-0.061087	0.427880
N307	N	-0.219145	-0.696192	-0.200214
N308	N	0.114188	-0.362858	0.133120
N309	N	0.447521	-0.029525	0.466453
H310	H	-0.184822	-0.721682	-0.169041
H311	H	0.148511	-0.388349	0.164292
H312	H	0.481845	-0.055016	0.497625
H313	H	-0.811067	-0.894571	-0.409498
H314	H	-0.477733	-0.561238	-0.076165
H315	H	-0.144400	-0.227905	0.257169
