data_functionalizedCrystal
_audit_creation_method	'MofGen! by Chris Wilmer'
_symmetry_space_group_name_H-M	'P1'
_symmetry_Int_Tables_number	1
_symmetry_cell_setting	triclinic
loop_
_symmetry_equiv_pos_as_xyz
  x,y,z
_cell_length_a	12.759401
_cell_length_b	18.101397
_cell_length_c	12.759393
_cell_angle_alpha	89.963674
_cell_angle_beta	89.981266
_cell_angle_gamma	90.020627
loop_
_atom_site_label
_atom_site_type_symbol
_atom_site_fract_x
_atom_site_fract_y
_atom_site_fract_z
Zn1	Zn	1.606216	-0.294792	-0.593937
Zn2	Zn	2.106216	0.205208	-0.093937
Zn3	Zn	1.606092	-0.418651	-0.418238
Zn4	Zn	2.106092	0.081349	0.081762
Zn5	Zn	1.430517	-0.294828	-0.418276
Zn6	Zn	1.930517	0.205172	0.081724
Zn7	Zn	1.430489	-0.418597	-0.593880
Zn8	Zn	1.930489	0.081403	-0.093880
O9	O	1.518328	-0.356717	-0.506083
O10	O	2.018328	0.143283	-0.006083
O11	O	1.753220	-0.311230	-0.570638
O12	O	2.253220	0.188770	-0.070638
O13	O	1.582761	-0.402263	-0.271222
O14	O	2.082761	0.097737	0.228778
O15	O	1.453888	-0.191191	-0.441618
O16	O	1.953888	0.308809	0.058382
O17	O	1.753129	-0.402229	-0.441553
O18	O	2.253129	0.097771	0.058447
O19	O	1.582973	-0.191164	-0.570675
O20	O	2.082973	0.308836	-0.070675
O21	O	1.453767	-0.311291	-0.271250
O22	O	1.953767	0.188709	0.228750
O23	O	1.283492	-0.311239	-0.441562
O24	O	1.783492	0.188761	0.058438
O25	O	1.453839	-0.402136	-0.740909
O26	O	1.953839	0.097864	-0.240909
O27	O	1.283471	-0.402171	-0.570578
O28	O	1.783471	0.097829	-0.070578
O29	O	1.582945	-0.311178	-0.740950
O30	O	2.082945	0.188822	-0.240950
O31	O	1.582734	-0.522277	-0.441498
O32	O	2.082734	-0.022277	0.058502
O33	O	1.453719	-0.522237	-0.570541
O34	O	1.953719	-0.022237	-0.070541
C35	C	1.245361	-0.356704	-0.506069
C36	C	1.745361	0.143296	-0.006069
C37	C	1.128584	-0.356716	-0.506087
C38	C	1.628584	0.143284	-0.006087
C39	C	1.518238	-0.549128	-0.506032
C40	C	2.018238	-0.049128	-0.006032
C41	C	1.518296	-0.631442	-0.506045
C42	C	2.018296	-0.131442	-0.006045
C43	C	1.073739	-0.404140	-0.573154
C44	C	1.573739	0.095860	-0.073154
C45	C	0.964015	-0.404149	-0.573166
C46	C	1.464015	0.095851	-0.073166
C47	C	0.963991	-0.309308	-0.439034
C48	C	1.463991	0.190692	0.060966
C49	C	1.073713	-0.309295	-0.439029
C50	C	1.573713	0.190705	0.060971
C51	C	1.128610	-0.451560	-0.640213
C52	C	1.628610	0.048440	-0.140213
C53	C	1.073764	-0.498989	-0.707285
C54	C	1.573764	0.001011	-0.207285
C55	C	0.964040	-0.498998	-0.707296
C56	C	1.464040	0.001002	-0.207296
C57	C	0.909162	-0.451579	-0.640236
C58	C	1.409162	0.048421	-0.140236
C59	C	1.518430	-0.930533	-0.506141
C60	C	2.018430	-0.430533	-0.006141
C61	C	1.599376	-0.899202	-0.424733
C62	C	2.099376	-0.399202	0.075267
C63	C	1.599657	-0.813583	-0.424944
C64	C	2.099657	-0.313583	0.075056
C65	C	1.518364	-0.782150	-0.506093
C66	C	2.018364	-0.282150	-0.006093
C67	C	1.548383	-0.813150	-0.616833
C68	C	2.048383	-0.313150	-0.116833
C69	C	1.549009	-0.898795	-0.616390
C70	C	2.049009	-0.398795	-0.116390
C71	C	1.407249	-0.899044	-0.477767
C72	C	1.907249	-0.399044	0.022233
C73	C	1.407798	-0.813395	-0.475295
C74	C	1.907798	-0.313395	0.024705
C75	C	1.518324	-0.698291	-0.506072
C76	C	2.018324	-0.198291	-0.006072
C77	C	1.518472	-1.014392	-0.506169
C78	C	2.018472	-0.514392	-0.006169
C79	C	1.792362	-0.356731	-0.506098
C80	C	2.292362	0.143269	-0.006098
C81	C	1.909138	-0.356738	-0.506104
C82	C	2.409138	0.143262	-0.006104
C83	C	1.518403	-0.356647	-0.780116
C84	C	2.018403	0.143353	-0.280116
C85	C	1.518435	-0.356617	-0.896893
C86	C	2.018435	0.143383	-0.396893
C87	C	1.518447	-0.163555	-0.506157
C88	C	2.018447	0.336445	-0.006157
C89	C	1.518498	-0.081241	-0.506189
C90	C	2.018498	0.418759	-0.006189
C91	C	1.585689	-0.309212	-1.061504
C92	C	2.085689	0.190788	-0.561504
C93	C	1.585666	-0.309245	-0.951779
C94	C	2.085666	0.190755	-0.451779
C95	C	1.451229	-0.403965	-0.951737
C96	C	1.951229	0.096035	-0.451737
C97	C	1.451258	-0.403936	-1.061459
C98	C	1.951258	0.096064	-0.561459
C99	C	1.652917	-0.261832	-1.116384
C100	C	2.152917	0.238168	-0.616384
C101	C	1.720124	-0.214484	-1.061548
C102	C	2.220124	0.285516	-0.561548
C103	C	1.720102	-0.214517	-0.951824
C104	C	2.220102	0.285483	-0.451824
C105	C	1.652872	-0.261897	-0.896936
C106	C	2.152872	0.238103	-0.396936
C107	C	1.518314	-0.356734	-0.233115
C108	C	2.018314	0.143266	0.266885
C109	C	1.518486	-0.356555	-0.116339
C110	C	2.018486	0.143445	0.383661
H111	H	1.118454	-0.537591	-0.761889
H112	H	1.618454	-0.037591	-0.261889
N113	N	1.378720	-0.455064	-0.892541
N114	N	1.878720	0.044936	-0.392541
H115	H	1.388898	-0.447897	-0.814712
H116	H	1.888898	0.052103	-0.314712
H117	H	1.303698	-0.443528	-0.911720
H118	H	1.803698	0.056472	-0.411720
N119	N	1.792627	-0.163386	-1.120753
N120	N	2.292627	0.336614	-0.620753
H121	H	1.776335	-0.110479	-1.101670
H122	H	2.276335	0.389521	-0.601670
H123	H	1.867656	-0.174957	-1.101645
H124	H	2.367656	0.325043	-0.601645
N125	N	1.371087	-0.927734	-0.372649
N126	N	1.871087	-0.427734	0.127351
H127	H	1.359087	-0.884849	-0.323491
H128	H	1.859087	-0.384849	0.176509
H129	H	1.303567	-0.956145	-0.381755
H130	H	1.803567	-0.456145	0.118245
H131	H	1.396536	-0.442487	-1.106107
H132	H	1.896536	0.057513	-0.606107
H133	H	1.491228	-0.792786	-0.679120
H134	H	1.991228	-0.292786	-0.179120
H135	H	1.580876	-0.792627	-0.342831
H136	H	2.080876	-0.292627	0.157169
H137	H	1.492634	-0.919517	-0.679135
H138	H	1.992634	-0.419517	-0.179135
N139	N	1.654833	-0.784673	-0.649213
N140	N	2.154833	-0.284673	-0.149213
H141	H	1.683763	-0.751699	-0.592318
H142	H	2.183763	-0.251699	-0.092318
H143	H	1.703821	-0.827741	-0.660603
H144	H	2.203821	-0.327741	-0.160603
N145	N	1.246953	-0.451554	-0.640211
N146	N	1.746953	0.048446	-0.140211
H147	H	1.273410	-0.400767	-0.659659
H148	H	1.773410	0.099233	-0.159659
H149	H	1.273265	-0.465132	-0.568085
H150	H	1.773265	0.034868	-0.068085
N151	N	1.792596	-0.163459	-0.892682
N152	N	2.292596	0.336541	-0.392682
H153	H	1.776313	-0.110539	-0.911790
H154	H	2.276313	0.389461	-0.411790
H155	H	1.782351	-0.170730	-0.814864
H156	H	2.282351	0.329270	-0.314864
H157	H	1.681283	-0.920668	-0.443291
H158	H	2.181283	-0.420668	0.056709
H159	H	0.919388	-0.537611	-0.761916
H160	H	1.419388	-0.037611	-0.261916
N161	N	0.790816	-0.451592	-0.640244
N162	N	1.290816	0.048408	-0.140244
H163	H	0.764377	-0.414361	-0.587582
H164	H	1.264377	0.085639	-0.087582
H165	H	0.764502	-0.438066	-0.712389
H166	H	1.264502	0.061934	-0.212389
H167	H	1.630277	-0.918712	-0.640426
H168	H	2.130277	-0.418712	-0.140426
N169	N	0.904803	-0.258181	-0.366691
N170	N	1.404803	0.241819	0.133309
H171	H	0.859294	-0.223903	-0.409468
H172	H	1.359294	0.276097	0.090532
H173	H	0.859323	-0.288307	-0.317949
H174	H	1.359323	0.211693	0.182051
N175	N	1.132877	-0.258145	-0.366697
N176	N	1.632877	0.241855	0.133303
H177	H	1.081470	-0.228110	-0.324211
H178	H	1.581470	0.271890	0.175789
H179	H	1.178377	-0.288243	-0.317997
H180	H	1.678377	0.211757	0.182003
H181	H	1.580822	-0.919851	-0.342374
H182	H	2.080822	-0.419851	0.157626
H183	H	1.652940	-0.261798	-1.205727
H184	H	2.152940	0.238202	-0.705727
N185	N	1.652855	-0.261941	-0.778590
N186	N	2.152855	0.238059	-0.278590
H187	H	1.705634	-0.224762	-0.752178
H188	H	2.205634	0.275238	-0.252178
H189	H	1.580751	-0.248355	-0.752237
H190	H	2.080751	0.251645	-0.252237
H191	H	1.385163	-0.793142	-0.393798
H192	H	1.885163	-0.293142	0.106202
N193	N	1.708743	-0.786360	-0.449812
N194	N	2.208743	-0.286360	0.050188
H195	H	1.756834	-0.829996	-0.460686
H196	H	2.256834	-0.329996	0.039314
H197	H	1.706828	-0.755438	-0.515697
H198	H	2.206828	-0.255438	-0.015697
H199	H	1.344243	-0.792006	-0.530246
H200	H	1.844243	-0.292006	-0.030246
N201	N	1.327354	-0.925880	-0.556300
N202	N	1.827354	-0.425880	-0.056300
H203	H	1.362945	-0.958275	-0.610001
H204	H	1.862945	-0.458275	-0.110001
H205	H	1.271342	-0.955206	-0.518855
H206	H	1.771342	-0.455206	-0.018855
