data_functionalizedCrystal
_audit_creation_method	'MofGen! by Chris Wilmer'
_symmetry_space_group_name_H-M	'P1'
_symmetry_Int_Tables_number	1
_symmetry_cell_setting	triclinic
loop_
_symmetry_equiv_pos_as_xyz
  x,y,z
_cell_length_a	19.288864
_cell_length_b	9.065218
_cell_length_c	17.766277
_cell_angle_alpha	89.995554
_cell_angle_beta	89.976791
_cell_angle_gamma	84.076066
loop_
_atom_site_label
_atom_site_type_symbol
_atom_site_fract_x
_atom_site_fract_y
_atom_site_fract_z
O1	O	0.922782	0.184032	-0.062833
O2	O	0.720714	0.208857	-0.062781
O3	O	0.825925	-0.018344	-0.062807
O4	O	0.817571	0.411233	-0.062808
O5	O	0.825906	-0.018356	0.062382
O6	O	0.720695	0.208846	0.062407
O7	O	0.922763	0.184020	0.062355
Cu8	Cu	0.821727	0.196432	0.073812
Cu9	Cu	0.821750	0.196445	-0.074238
O10	O	0.817552	0.411222	0.062381
C11	C	0.694822	0.208053	-0.000180
C12	C	0.617700	0.205655	-0.000161
C13	C	0.825112	-0.073309	-0.000213
C14	C	0.822712	-0.237067	-0.000216
C15	C	0.574039	0.338966	-0.000173
C16	C	0.501574	0.336713	-0.000181
C17	C	0.472774	0.201142	-0.000192
C18	C	0.516445	0.067812	-0.000176
C19	C	0.588908	0.070069	-0.000160
C20	C	0.363691	0.094571	-0.044077
C21	C	0.291229	0.092320	-0.044097
C22	C	0.249274	0.194176	-0.000238
C23	C	0.279789	0.298308	0.043632
C24	C	0.352252	0.300565	0.043648
C25	C	0.394201	0.198680	-0.000209
C26	C	0.127038	0.325054	-0.000258
C27	C	0.054572	0.322796	-0.000262
C28	C	0.069445	0.053891	-0.000264
C29	C	0.141909	0.056153	-0.000253
C30	C	0.170701	0.191739	-0.000253
C31	C	0.948655	0.184825	-0.000247
C32	C	1.025777	0.187223	-0.000272
C33	C	0.818365	0.466186	-0.000214
C34	C	0.820765	0.629945	-0.000216
N35	N	0.821717	0.196421	0.177942
N36	N	0.821766	0.196444	-0.178368
C37	C	0.868320	0.095866	0.217318
C38	C	0.868324	0.095859	0.296120
C39	C	0.821732	0.196433	0.335543
C40	C	0.775120	0.296996	0.296158
C41	C	0.775113	0.296991	0.217358
C42	C	0.813476	0.330849	0.460382
C43	C	0.813489	0.330856	0.539181
C44	C	0.821750	0.196451	0.578589
C45	C	0.830014	0.062032	0.539189
C46	C	0.830007	0.062026	0.460389
C47	C	0.821734	0.196450	0.420989
C48	C	0.868360	0.095879	0.703411
C49	C	0.868359	0.095871	0.782214
C50	C	0.775159	0.297021	0.782251
C51	C	0.775156	0.297017	0.703449
C52	C	0.821761	0.196448	0.664034
H53	H	0.597476	0.449370	-0.000175
C54	C	0.723856	0.407619	0.174039
H55	H	0.730525	0.393209	0.121463
H56	H	0.732018	0.506034	0.186946
H57	H	0.677400	0.391844	0.186974
C58	C	0.233652	0.410357	0.091882
H59	H	0.262202	0.472698	0.118006
H60	H	0.208187	0.358472	0.127145
H61	H	0.202106	0.469050	0.060254
H62	H	0.737210	0.378905	0.671387
C63	C	0.385817	0.415086	0.091907
H64	H	0.350457	0.475423	0.118032
H65	H	0.410811	0.475534	0.060297
H66	H	0.416884	0.364942	0.127182
H67	H	0.906275	0.013971	0.328185
H68	H	0.177459	-0.052404	-0.000247
H69	H	0.466018	0.445275	-0.000189
C70	C	0.636940	-0.076576	-0.000152
H71	H	0.684220	-0.055814	-0.000139
H72	H	0.628142	-0.132187	-0.043810
H73	H	0.628098	-0.132188	0.043508
H74	H	0.150482	0.435456	-0.000247
C75	C	0.804393	0.478704	0.417040
H76	H	0.799485	0.558757	0.451789
H77	H	0.763970	0.481917	0.386320
H78	H	0.844134	0.486662	0.386281
H79	H	0.266390	0.007536	-0.079822
C80	C	0.919575	-0.014771	0.173966
H81	H	0.947326	-0.074669	0.208707
H82	H	0.948816	0.038132	0.143203
H83	H	0.894198	-0.076058	0.143248
C84	C	0.839086	-0.085819	0.417049
H85	H	0.844103	-0.165868	0.451798
H86	H	0.879448	-0.088937	0.386202
H87	H	0.799295	-0.093872	0.386417
C88	C	0.006541	0.469442	-0.000276
H89	H	-0.040739	0.448683	-0.000277
H90	H	0.015385	0.525050	-0.043932
H91	H	0.015339	0.525057	0.043385
H92	H	0.906307	0.013978	0.814274
C93	C	0.839097	-0.085823	0.582527
H94	H	0.837909	-0.066574	0.635100
H95	H	0.882569	-0.138674	0.569597
H96	H	0.802405	-0.143425	0.569632
C97	C	0.919614	-0.014754	0.660051
H98	H	0.947363	-0.074661	0.694791
H99	H	0.948857	0.038152	0.629293
H100	H	0.894237	-0.076033	0.629329
H101	H	0.397845	0.011625	-0.079796
H102	H	0.045997	-0.056494	-0.000320
H103	H	0.492991	-0.042571	-0.000196
H104	H	0.806764	0.440308	0.571255
C105	C	0.723908	0.407651	0.825606
H106	H	0.730588	0.393259	0.878177
H107	H	0.677454	0.391882	0.812718
H108	H	0.732072	0.506072	0.812682
H109	H	0.737183	0.378883	0.328260
