data_functionalizedCrystal
_audit_creation_method	'MofGen! by Chris Wilmer'
_symmetry_space_group_name_H-M	'P1'
_symmetry_Int_Tables_number	1
_symmetry_cell_setting	triclinic
loop_
_symmetry_equiv_pos_as_xyz
  x,y,z
_cell_length_a	19.077105
_cell_length_b	13.032721
_cell_length_c	19.077271
_cell_angle_alpha	80.848327
_cell_angle_beta	89.912562
_cell_angle_gamma	95.201395
loop_
_atom_site_label
_atom_site_type_symbol
_atom_site_fract_x
_atom_site_fract_y
_atom_site_fract_z
Zn1	Zn	1.013292	-0.505542	0.481843
Zn2	Zn	1.513292	-0.005542	0.981843
Zn3	Zn	1.003041	-0.673461	0.378098
Zn4	Zn	1.503041	-0.173461	0.878098
Zn5	Zn	0.901779	-0.491502	0.358487
Zn6	Zn	1.401779	0.008498	0.858487
Zn7	Zn	0.880894	-0.672874	0.490802
Zn8	Zn	1.380894	-0.172874	0.990802
O9	O	0.949751	-0.585845	0.427308
O10	O	1.449751	-0.085845	0.927308
O11	O	1.109719	-0.533939	0.472540
O12	O	1.609719	-0.033939	0.972540
O13	O	0.994059	-0.643693	0.276705
O14	O	1.494059	-0.143693	0.776705
O15	O	0.929602	-0.347186	0.362894
O16	O	1.429602	0.152814	0.862894
O17	O	1.102188	-0.657308	0.396319
O18	O	1.602188	-0.157308	0.896319
O19	O	1.011530	-0.357501	0.453523
O20	O	1.511530	0.142499	0.953523
O21	O	0.919662	-0.510009	0.262297
O22	O	1.419662	-0.010009	0.762297
O23	O	0.801221	-0.509440	0.371581
O24	O	1.301221	-0.009440	0.871581
O25	O	0.894006	-0.656307	0.588405
O26	O	1.394006	-0.156307	1.088405
O27	O	0.785877	-0.642693	0.468792
O28	O	1.285877	-0.142693	0.968792
O29	O	0.991278	-0.533370	0.581824
O30	O	1.491278	-0.033370	1.081824
O31	O	0.973807	-0.819562	0.405005
O32	O	1.473807	-0.319562	0.905005
O33	O	0.884066	-0.819131	0.487808
O34	O	1.384066	-0.319131	0.987808
C35	C	0.768194	-0.574480	0.419031
C36	C	1.268194	-0.074480	0.919031
C37	C	0.690520	-0.569644	0.415509
C38	C	1.190520	-0.069644	0.915509
C39	C	0.646052	-0.636846	0.464404
C40	C	1.146052	-0.136846	0.964404
C41	C	0.573070	-0.632289	0.461097
C42	C	1.073070	-0.132289	0.961097
C43	C	0.544557	-0.560533	0.408891
C44	C	1.044557	-0.060533	0.908891
C45	C	0.589030	-0.493324	0.359993
C46	C	1.089030	0.006676	0.859993
C47	C	0.662011	-0.497877	0.363304
C48	C	1.162011	0.002123	0.863304
C49	C	0.327143	-0.539461	0.393572
C50	C	0.827143	-0.039461	0.893572
C51	C	0.254157	-0.534915	0.390263
C52	C	0.754157	-0.034915	0.890263
C53	C	0.238201	-0.673879	0.491368
C54	C	0.738201	-0.173879	0.991368
C55	C	0.311184	-0.678430	0.494671
C56	C	0.811184	-0.178430	0.994671
C57	C	0.355651	-0.611217	0.445776
C58	C	0.855651	-0.111217	0.945776
N59	N	0.469957	-0.555875	0.405508
N60	N	0.969957	-0.055875	0.905508
N61	N	0.430250	-0.615871	0.449163
N62	N	0.930250	-0.115871	0.949163
C63	C	0.925576	-0.857251	0.449523
C64	C	1.425576	-0.357251	0.949523
C65	C	0.915297	-0.973365	0.459054
C66	C	1.415297	-0.473365	0.959054
C67	C	0.955152	-1.025315	0.422367
C68	C	1.455152	-0.525315	0.922367
C69	C	0.944529	-1.145325	0.432216
C70	C	1.444529	-0.645325	0.932216
C71	C	1.132018	-0.597255	0.435617
C72	C	1.632018	-0.097255	0.935617
C73	C	1.209689	-0.602117	0.439158
C74	C	1.709689	-0.102117	0.939158
C75	C	0.941456	-0.596339	0.611446
C76	C	1.441456	-0.096339	1.111446
C77	C	0.937921	-0.600811	0.689915
C78	C	1.437921	-0.100811	1.189915
C79	C	0.974039	-0.313381	0.405022
C80	C	1.474039	0.186619	0.905022
C81	C	0.984389	-0.197273	0.395525
C82	C	1.484389	0.302727	0.895525
C83	C	0.986902	-0.538908	0.723355
C84	C	1.486902	-0.038908	1.223355
C85	C	0.983572	-0.543105	0.797084
C86	C	1.483572	-0.043105	1.297084
C87	C	0.931264	-0.609212	0.837373
C88	C	1.431264	-0.109212	1.337373
C89	C	0.882278	-0.671117	0.803929
C90	C	1.382278	-0.171117	1.303929
C91	C	0.885605	-0.666914	0.730200
C92	C	1.385605	-0.166914	1.230200
C93	C	0.915880	-0.628642	1.058245
C94	C	1.415880	-0.128642	1.558245
C95	C	0.912558	-0.632843	1.131978
C96	C	1.412558	-0.132843	1.631978
C97	C	1.013852	-0.504829	1.125128
C98	C	1.513852	-0.004829	1.625128
C99	C	1.017177	-0.500636	1.051399
C100	C	1.517177	-0.000636	1.551399
C101	C	0.968188	-0.562537	1.017961
C102	C	1.468188	-0.062537	1.517961
N103	N	0.927861	-0.613506	0.912736
N104	N	1.427861	-0.113506	1.412736
N105	N	0.971589	-0.558237	0.942598
N106	N	1.471589	-0.058237	1.442598
C107	C	0.958006	-0.575414	1.243887
C108	C	1.458006	-0.075414	1.743887
C109	C	0.961539	-0.570940	1.165418
C110	C	1.461539	-0.070940	1.665418
H111	H	0.536866	-0.687013	0.500912
H112	H	1.036866	-0.187013	1.000912
H113	H	0.334393	-0.736864	0.537182
H114	H	0.834393	-0.236864	1.037182
F115	F	0.676390	-0.713224	0.519966
F116	F	1.176390	-0.213224	1.019966
F117	F	0.889649	-1.203311	0.482808
F118	F	1.389649	-0.703311	0.982808
H119	H	0.839685	-0.724939	0.836737
H120	H	1.339685	-0.224939	1.336737
H121	H	0.201988	-0.728599	0.531177
H122	H	0.701988	-0.228599	1.031177
F123	F	1.039276	-1.139290	0.344940
F124	F	1.539276	-0.639290	0.844940
F125	F	1.010036	-0.967326	0.371786
F126	F	1.510036	-0.467326	0.871786
H127	H	0.873313	-1.017736	0.497757
H128	H	1.373313	-0.517736	0.997757
H129	H	1.029499	-0.485080	0.690557
H130	H	1.529499	0.014920	1.190557
H131	H	0.230945	-0.476471	0.347754
H132	H	0.730945	0.023529	0.847754
H133	H	0.363340	-0.484739	0.353753
H134	H	0.863340	0.015261	0.853753
H135	H	1.023459	-0.492700	0.824307
H136	H	1.523459	0.007300	1.324307
F137	F	0.558683	-0.416949	0.304435
F138	F	1.058683	0.083051	0.804435
F139	F	0.709338	-0.426349	0.311264
F140	F	1.209338	0.073651	0.811264
H141	H	1.053734	-0.454431	1.152362
H142	H	1.553734	0.045569	1.652362
H143	H	0.869959	-0.686678	1.164780
H144	H	1.369959	-0.186678	1.664780
F145	F	1.072851	-0.430277	1.008526
F146	F	1.572851	0.069723	1.508526
F147	F	0.863742	-0.694524	1.022666
F148	F	1.363742	-0.194524	1.522666
H149	H	0.845713	-0.717311	0.702974
H150	H	1.345713	-0.217311	1.202974
