data_functionalizedCrystal
_audit_creation_method	'MofGen! by Chris Wilmer'
_symmetry_space_group_name_H-M	'P1'
_symmetry_Int_Tables_number	1
_symmetry_cell_setting	triclinic
loop_
_symmetry_equiv_pos_as_xyz
  x,y,z
_cell_length_a	14.853567
_cell_length_b	19.188924
_cell_length_c	13.930277
_cell_angle_alpha	89.993371
_cell_angle_beta	89.995755
_cell_angle_gamma	83.388448
loop_
_atom_site_label
_atom_site_type_symbol
_atom_site_fract_x
_atom_site_fract_y
_atom_site_fract_z
O1	O	1.195859	0.091155	-0.079769
O2	O	0.933338	0.102014	-0.079786
O3	O	1.072178	-0.005046	-0.079766
O4	O	1.057020	0.198215	-0.079790
O5	O	1.072158	-0.005048	0.079896
O6	O	0.933319	0.102012	0.079876
O7	O	1.195839	0.091153	0.079893
Zn8	Zn	1.064576	0.096582	0.105234
Zn9	Zn	1.064602	0.096585	-0.105127
O10	O	1.057000	0.198213	0.079872
C11	C	0.899743	0.101521	0.000043
C12	C	0.799667	0.100047	0.000037
C13	C	0.387524	0.030218	0.000066
C14	C	0.365532	0.157408	0.000050
C15	C	0.459558	0.158794	0.000047
C16	C	0.517571	0.095891	0.000052
C17	C	0.481559	0.031602	0.000060
C18	C	0.495577	0.223082	0.000029
C19	C	0.589609	0.224471	0.000025
C20	C	0.647624	0.161567	0.000037
C21	C	0.611606	0.097276	0.000046
C22	C	0.669620	0.034373	0.000051
C23	C	0.633604	-0.029919	0.000067
C24	C	0.539575	-0.031301	0.000072
C25	C	0.741654	0.162949	0.000032
C26	C	0.763655	0.035758	0.000045
C27	C	1.071678	-0.031060	0.000066
C28	C	1.070208	-0.108570	0.000068
C29	C	1.069532	-0.144969	-0.086964
C30	C	1.068137	-0.217797	-0.086971
C31	C	1.067437	-0.254223	0.000059
C32	C	1.068108	-0.217814	0.087102
C33	C	1.069493	-0.144987	0.087107
N34	N	1.116557	-0.373724	0.064836
N35	N	1.115243	-0.442906	0.064825
C36	C	1.063261	-0.473646	0.000049
N37	N	1.012654	-0.432591	-0.064731
N38	N	1.013972	-0.363403	-0.064723
C39	C	1.065934	-0.333192	0.000063
C40	C	1.061072	-0.589014	-0.086997
C41	C	1.059672	-0.661842	-0.087001
C42	C	1.059652	-0.661859	0.087075
C43	C	1.061042	-0.589031	0.087076
C44	C	1.061757	-0.552613	0.000037
C45	C	1.229435	0.091646	0.000062
C46	C	1.329510	0.093121	0.000061
C47	C	1.057500	0.224227	0.000038
C48	C	1.058970	0.301737	0.000030
N49	N	1.064566	0.096580	0.248800
N50	N	1.064619	0.096582	-0.248694
C51	C	1.003121	0.143973	0.701060
C52	C	1.126107	0.049192	0.701048
C53	C	1.126096	0.049190	0.600552
C54	C	1.064598	0.096581	0.550306
C55	C	1.003111	0.143973	0.600555
C56	C	1.187588	0.001803	0.550295
C57	C	1.187581	0.001799	0.449793
C58	C	1.126078	0.049187	0.399545
C59	C	1.064587	0.096581	0.449801
C60	C	1.003089	0.143972	0.399555
C61	C	0.941593	0.191363	0.449808
C62	C	0.941607	0.191361	0.550307
C63	C	1.126064	0.049189	0.299046
C64	C	1.003078	0.143972	0.299049
H65	H	0.770974	0.215295	0.000020
H66	H	0.810885	-0.015466	0.000052
Br67	Br	0.712347	-0.115284	0.000062
H68	H	1.059074	-0.691516	0.157936
H69	H	0.891525	0.229952	0.408886
Br70	Br	1.070498	-0.095548	-0.205086
Br71	Br	1.067217	-0.267208	-0.205094
H72	H	0.510241	-0.083645	0.000108
H73	H	1.067535	-0.247477	0.157962
H74	H	0.891541	0.229946	0.591230
H75	H	1.061600	-0.559395	0.157947
Br76	Br	0.286800	0.242772	0.000026
Br77	Br	1.271056	-0.062505	0.618482
H78	H	0.448336	0.274294	0.000016
H79	H	1.176136	0.010607	0.258134
Br80	Br	0.338649	-0.057032	0.000096
Br81	Br	0.919660	0.208283	0.769255
Br82	Br	0.638480	0.311722	0.000004
Br83	Br	1.070406	-0.095583	0.205231
H84	H	1.061649	-0.559360	-0.157869
H85	H	1.059117	-0.691477	-0.157875
H86	H	0.952996	0.182561	0.258145
H87	H	1.176181	0.010611	0.741961
Br88	Br	1.271034	-0.062516	0.381597
