data_functionalizedCrystal
_audit_creation_method	'MofGen! by Chris Wilmer'
_symmetry_space_group_name_H-M	'P1'
_symmetry_Int_Tables_number	1
_symmetry_cell_setting	triclinic
loop_
_symmetry_equiv_pos_as_xyz
  x,y,z
_cell_length_a	10.723024
_cell_length_b	10.723024
_cell_length_c	9.798715
_cell_angle_alpha	90.001323
_cell_angle_beta	89.996597
_cell_angle_gamma	95.532131
loop_
_atom_site_label
_atom_site_type_symbol
_atom_site_fract_x
_atom_site_fract_y
_atom_site_fract_z
O1	O	-1.657187	0.175025	0.113475
O2	O	-1.294035	0.191778	0.113479
O3	O	-1.483988	0.001825	0.113475
O4	O	-1.467234	0.364978	0.113479
O5	O	-1.483974	0.001824	-0.113507
O6	O	-1.294021	0.191777	-0.113503
O7	O	-1.657173	0.175024	-0.113507
Zn8	Zn	-1.475595	0.183400	-0.149543
Zn9	Zn	-1.475613	0.183402	0.149516
O10	O	-1.467220	0.364976	-0.113503
C11	C	-1.247528	0.190558	-0.000011
C12	C	-1.108974	0.186911	-0.000009
C13	C	-1.482762	-0.044675	-0.000013
C14	C	-1.479114	-0.183229	-0.000006
C15	C	-1.703680	0.176243	-0.000013
C16	C	-1.842234	0.179891	-0.000006
C17	C	-1.468447	0.411477	-0.000011
C18	C	-1.472094	0.550031	-0.000009
C19	C	-1.033991	0.293198	-0.000007
C20	C	-0.890788	0.289431	-0.000006
N21	N	-1.475591	0.183398	-0.353643
C22	C	-1.585401	0.741788	-0.000008
C23	C	-1.581634	0.598585	-0.000010
C24	C	-1.548356	0.255759	-0.421421
C25	C	-1.548376	0.255758	-0.578583
N26	N	-1.475627	0.183394	0.353615
H27	H	-1.075814	0.386984	-0.000014
H28	H	-1.610643	0.317706	-0.363095
Cl29	Cl	-0.791315	0.429921	0.000008
Cl30	Cl	-1.331599	0.649496	-0.000017
H31	H	-0.906659	0.088896	0.000001
Cl32	Cl	-1.334308	0.752212	0.000005
H33	H	-1.672624	0.534152	-0.000018
Cl34	Cl	-1.379430	0.087745	-0.556410
Cl35	Cl	-1.379434	0.087736	-0.443681
H36	H	-1.067152	0.093125	0.000025
H37	H	-1.679187	0.783610	-0.000015
H38	H	-1.610666	0.317716	-0.636871
