data_functionalizedCrystal
_audit_creation_method	'MofGen! by Chris Wilmer'
_symmetry_space_group_name_H-M	'P1'
_symmetry_Int_Tables_number	1
_symmetry_cell_setting	triclinic
loop_
_symmetry_equiv_pos_as_xyz
  x,y,z
_cell_length_a	19.077312
_cell_length_b	29.839131
_cell_length_c	19.077174
_cell_angle_alpha	92.262165
_cell_angle_beta	90.075859
_cell_angle_gamma	87.741726
loop_
_atom_site_label
_atom_site_type_symbol
_atom_site_fract_x
_atom_site_fract_y
_atom_site_fract_z
Zn1	Zn	1.090077	-0.215848	-0.354066
Zn2	Zn	1.340077	0.034152	-0.104066
Zn3	Zn	1.590077	0.284152	0.145934
Zn4	Zn	1.840077	0.534152	0.395934
Zn5	Zn	1.085256	-0.287839	-0.236543
Zn6	Zn	1.335256	-0.037839	0.013457
Zn7	Zn	1.585256	0.212161	0.263457
Zn8	Zn	1.835256	0.462161	0.513457
Zn9	Zn	0.967863	-0.209841	-0.241299
Zn10	Zn	1.217863	0.040159	0.008701
Zn11	Zn	1.467863	0.290159	0.258701
Zn12	Zn	1.717863	0.540159	0.508701
Zn13	Zn	0.972518	-0.288062	-0.358732
Zn14	Zn	1.222518	-0.038062	-0.108732
Zn15	Zn	1.472518	0.211938	0.141268
Zn16	Zn	1.722518	0.461938	0.391268
O17	O	1.028928	-0.250397	-0.297660
O18	O	1.278928	-0.000397	-0.047660
O19	O	1.528928	0.249603	0.202340
O20	O	1.778928	0.499603	0.452340
O21	O	1.187765	-0.227819	-0.334533
O22	O	1.437765	0.022181	-0.084533
O23	O	1.687765	0.272181	0.165467
O24	O	1.937765	0.522181	0.415467
O25	O	1.065717	-0.274886	-0.138844
O26	O	1.315717	-0.024886	0.111156
O27	O	1.565717	0.225114	0.361156
O28	O	1.815717	0.475114	0.611156
O29	O	0.984145	-0.147773	-0.256295
O30	O	1.234145	0.102227	-0.006295
O31	O	1.484145	0.352227	0.243705
O32	O	1.734145	0.602227	0.493705
O33	O	1.184223	-0.280711	-0.248190
O34	O	1.434223	-0.030711	0.001810
O35	O	1.684223	0.219289	0.251810
O36	O	1.934223	0.469289	0.501810
O37	O	1.073934	-0.152187	-0.339145
O38	O	1.323934	0.097813	-0.089145
O39	O	1.573934	0.347813	0.160855
O40	O	1.823934	0.597813	0.410855
O41	O	0.979470	-0.217580	-0.142338
O42	O	1.229470	0.032420	0.107662
O43	O	1.479470	0.282420	0.357662
O44	O	1.729470	0.532420	0.607662
O45	O	0.870153	-0.217796	-0.260820
O46	O	1.120153	0.032204	-0.010820
O47	O	1.370153	0.282204	0.239180
O48	O	1.620153	0.532204	0.489180
O49	O	0.992078	-0.281089	-0.456443
O50	O	1.242078	-0.031089	-0.206443
O51	O	1.492078	0.218911	0.043557
O52	O	1.742078	0.468911	0.293557
O53	O	0.873572	-0.275264	-0.347097
O54	O	1.123572	-0.025264	-0.097097
O55	O	1.373572	0.224736	0.152903
O56	O	1.623572	0.474736	0.402903
O57	O	1.078448	-0.228034	-0.453015
O58	O	1.328448	0.021966	-0.203015
O59	O	1.578448	0.271966	0.046985
O60	O	1.828448	0.521966	0.296985
O61	O	1.070231	-0.350733	-0.252714
O62	O	1.320231	-0.100733	-0.002714
O63	O	1.570231	0.149267	0.247286
O64	O	1.820231	0.399267	0.497286
O65	O	0.987403	-0.350897	-0.342486
O66	O	1.237403	-0.100897	-0.092486
O67	O	1.487403	0.149103	0.157514
O68	O	1.737403	0.399103	0.407514
C69	C	0.846367	-0.245903	-0.304981
C70	C	1.096367	0.004097	-0.054981
C71	C	1.346367	0.254097	0.195019
C72	C	1.596367	0.504097	0.445019
C73	C	0.768267	-0.243991	-0.308130
C74	C	1.018267	0.006009	-0.058130
C75	C	1.268267	0.256009	0.191870
C76	C	1.518267	0.506009	0.441870
C77	C	0.328849	-0.230245	-0.330721
C78	C	0.578849	0.019755	-0.080721
C79	C	0.828849	0.269755	0.169279
C80	C	1.078849	0.519755	0.419279
C81	C	0.402232	-0.232049	-0.327758
C82	C	0.652232	0.017951	-0.077758
C83	C	0.902232	0.267951	0.172242
C84	C	1.152232	0.517951	0.422242
C85	C	0.437067	-0.260440	-0.281250
C86	C	0.687067	-0.010440	-0.031250
C87	C	0.937067	0.239560	0.218750
C88	C	1.187067	0.489560	0.468750
C89	C	0.398516	-0.287032	-0.237706
C90	C	0.648516	-0.037032	0.012294
C91	C	0.898516	0.212968	0.262294
C92	C	1.148516	0.462968	0.512294
C93	C	0.325134	-0.285229	-0.240673
C94	C	0.575134	-0.035229	0.009327
C95	C	0.825134	0.214771	0.259327
C96	C	1.075134	0.464771	0.509327
C97	C	0.656335	-0.268780	-0.267553
C98	C	0.906335	-0.018780	-0.017553
C99	C	1.156335	0.231220	0.232447
C100	C	1.406335	0.481220	0.482447
C101	C	0.729721	-0.270580	-0.264588
C102	C	0.979721	-0.020580	-0.014588
C103	C	1.229721	0.229420	0.235412
C104	C	1.479721	0.479420	0.485412
C105	C	0.733432	-0.215597	-0.354642
C106	C	0.983432	0.034403	-0.104642
C107	C	1.233432	0.284403	0.145358
C108	C	1.483432	0.534403	0.395358
C109	C	0.660049	-0.213796	-0.357601
C110	C	0.910049	0.036204	-0.107601
C111	C	1.160049	0.286204	0.142399
C112	C	1.410049	0.536204	0.392399
C113	C	0.621505	-0.240389	-0.314060
C114	C	0.871505	0.009611	-0.064060
C115	C	1.121505	0.259611	0.185940
C116	C	1.371505	0.509611	0.435940
N117	N	0.512076	-0.262284	-0.278219
N118	N	0.762076	-0.012284	-0.028219
N119	N	1.012076	0.237716	0.221781
N120	N	1.262076	0.487716	0.471781
N121	N	0.546497	-0.238547	-0.317095
N122	N	0.796497	0.011453	-0.067095
N123	N	1.046497	0.261453	0.182905
N124	N	1.296497	0.511453	0.432905
C125	C	1.028819	-0.367116	-0.297605
C126	C	1.278819	-0.117116	-0.047605
C127	C	1.528819	0.132884	0.202395
C128	C	1.778819	0.382884	0.452395
C129	C	1.028837	-0.417051	-0.297603
C130	C	1.278837	-0.167051	-0.047603
C131	C	1.528837	0.082949	0.202397
C132	C	1.778837	0.332949	0.452397
C133	C	1.075675	-0.728962	-0.340864
C134	C	1.325675	-0.478962	-0.090864
C135	C	1.575675	-0.228962	0.159136
C136	C	1.825675	0.021038	0.409136
C137	C	1.075753	-0.916639	-0.340903
C138	C	1.325753	-0.666639	-0.090903
C139	C	1.575753	-0.416639	0.159097
C140	C	1.825753	-0.166639	0.409097
O141	O	1.115469	-0.942828	-0.377646
O142	O	1.365469	-0.692828	-0.127646
O143	O	1.615469	-0.442828	0.122354
O144	O	1.865469	-0.192828	0.372354
N145	N	1.029051	-0.937844	-0.297733
N146	N	1.279051	-0.687844	-0.047733
N147	N	1.529051	-0.437844	0.202267
N148	N	1.779051	-0.187844	0.452267
C149	C	0.982323	-0.912128	-0.254554
C150	C	1.232323	-0.662128	-0.004554
C151	C	1.482323	-0.412128	0.245446
C152	C	1.732323	-0.162128	0.495446
O153	O	0.942597	-0.934472	-0.217841
O154	O	1.192597	-0.684472	0.032159
O155	O	1.442597	-0.434472	0.282159
O156	O	1.692597	-0.184472	0.532159
C157	C	0.982242	-0.724453	-0.254519
C158	C	1.232242	-0.474453	-0.004519
C159	C	1.482242	-0.224453	0.245481
C160	C	1.732242	0.025547	0.495481
C161	C	1.028952	-0.703250	-0.297686
C162	C	1.278952	-0.453250	-0.047686
C163	C	1.528952	-0.203250	0.202314
C164	C	1.778952	0.046750	0.452314
C165	C	1.122380	-0.707759	-0.384029
C166	C	1.372380	-0.457759	-0.134029
C167	C	1.622380	-0.207759	0.115971
C168	C	1.872380	0.042241	0.365971
C169	C	1.122363	-0.660843	-0.384016
C170	C	1.372363	-0.410843	-0.134016
C171	C	1.622363	-0.160843	0.115984
C172	C	1.872363	0.089157	0.365984
C173	C	1.075640	-0.635130	-0.340838
C174	C	1.325640	-0.385130	-0.090838
C175	C	1.575640	-0.135130	0.159162
C176	C	1.825640	0.114870	0.409162
C177	C	1.028935	-0.656334	-0.297673
C178	C	1.278935	-0.406334	-0.047673
C179	C	1.528935	-0.156334	0.202327
C180	C	1.778935	0.093666	0.452327
C181	C	0.935511	-0.698738	-0.211343
C182	C	1.185511	-0.448738	0.038657
C183	C	1.435511	-0.198738	0.288657
C184	C	1.685511	0.051262	0.538657
C185	C	0.935494	-0.651817	-0.211340
C186	C	1.185494	-0.401817	0.038660
C187	C	1.435494	-0.151817	0.288660
C188	C	1.685494	0.098183	0.538660
C189	C	0.982204	-0.630613	-0.254507
C190	C	1.232204	-0.380613	-0.004507
C191	C	1.482204	-0.130613	0.245493
C192	C	1.732204	0.119387	0.495493
C193	C	0.982194	-0.583705	-0.254482
C194	C	1.232194	-0.333705	-0.004482
C195	C	1.482194	-0.083705	0.245518
C196	C	1.732194	0.166295	0.495518
N197	N	1.028896	-0.562499	-0.297653
N198	N	1.278896	-0.312499	-0.047653
N199	N	1.528896	-0.062499	0.202347
N200	N	1.778896	0.187501	0.452347
C201	C	1.075619	-0.588211	-0.340830
C202	C	1.325619	-0.338211	-0.090830
C203	C	1.575619	-0.088211	0.159170
C204	C	1.825619	0.161789	0.409170
C205	C	0.982370	-1.010661	-0.254574
C206	C	1.232370	-0.760661	-0.004574
C207	C	1.482370	-0.510661	0.245426
C208	C	1.732370	-0.260661	0.495426
C209	C	0.982391	-1.057579	-0.254582
C210	C	1.232391	-0.807579	-0.004582
C211	C	1.482391	-0.557579	0.245418
C212	C	1.732391	-0.307579	0.495418
C213	C	1.075819	-1.062086	-0.340933
C214	C	1.325819	-0.812086	-0.090933
C215	C	1.575819	-0.562086	0.159067
C216	C	1.825819	-0.312086	0.409067
C217	C	1.075801	-1.015167	-0.340921
C218	C	1.325801	-0.765167	-0.090921
C219	C	1.575801	-0.515167	0.159079
C220	C	1.825801	-0.265167	0.409079
C221	C	1.029071	-0.989455	-0.297744
C222	C	1.279071	-0.739455	-0.047744
C223	C	1.529071	-0.489455	0.202256
C224	C	1.779071	-0.239455	0.452256
C225	C	1.075579	-0.489684	-0.340799
C226	C	1.325579	-0.239684	-0.090799
C227	C	1.575579	0.010316	0.159201
C228	C	1.825579	0.260316	0.409201
C229	C	1.075560	-0.442763	-0.340780
C230	C	1.325560	-0.192763	-0.090780
C231	C	1.575560	0.057237	0.159220
C232	C	1.825560	0.307237	0.409220
C233	C	0.982129	-0.438260	-0.254433
C234	C	1.232129	-0.188260	-0.004433
C235	C	1.482129	0.061740	0.245567
C236	C	1.732129	0.311740	0.495567
C237	C	0.982150	-0.485177	-0.254448
C238	C	1.232150	-0.235177	-0.004448
C239	C	1.482150	0.014823	0.245552
C240	C	1.732150	0.264823	0.495552
C241	C	1.028878	-0.510888	-0.297638
C242	C	1.278878	-0.260888	-0.047638
C243	C	1.528878	-0.010888	0.202362
C244	C	1.778878	0.239112	0.452362
O245	O	0.942494	-0.557487	-0.217765
O246	O	1.192494	-0.307487	0.032235
O247	O	1.442494	-0.057487	0.282235
O248	O	1.692494	0.192513	0.532235
O249	O	1.115328	-0.565860	-0.377549
O250	O	1.365328	-0.315860	-0.127549
O251	O	1.615328	-0.065860	0.122451
O252	O	1.865328	0.184140	0.372451
C253	C	1.075692	-0.775879	-0.340877
C254	C	1.325692	-0.525879	-0.090877
C255	C	1.575692	-0.275879	0.159123
C256	C	1.825692	-0.025879	0.409123
C257	C	1.028987	-0.797082	-0.297712
C258	C	1.278987	-0.547082	-0.047712
C259	C	1.528987	-0.297082	0.202288
C260	C	1.778987	-0.047082	0.452288
C261	C	0.982264	-0.771370	-0.254535
C262	C	1.232264	-0.521370	-0.004535
C263	C	1.482264	-0.271370	0.245465
C264	C	1.732264	-0.021370	0.495465
C265	C	1.029008	-0.844001	-0.297720
C266	C	1.279008	-0.594001	-0.047720
C267	C	1.529008	-0.344001	0.202280
C268	C	1.779008	-0.094001	0.452280
C269	C	1.075730	-0.869713	-0.340898
C270	C	1.325730	-0.619713	-0.090898
C271	C	1.575730	-0.369713	0.159102
C272	C	1.825730	-0.119713	0.409102
C273	C	1.122432	-0.848508	-0.384068
C274	C	1.372432	-0.598508	-0.134068
C275	C	1.622432	-0.348508	0.115932
C276	C	1.872432	-0.098508	0.365932
C277	C	1.122415	-0.801591	-0.384055
C278	C	1.372415	-0.551591	-0.134055
C279	C	1.622415	-0.301591	0.115945
C280	C	1.872415	-0.051591	0.365945
C281	C	0.935562	-0.792576	-0.211364
C282	C	1.185562	-0.542576	0.038636
C283	C	1.435562	-0.292576	0.288636
C284	C	1.685562	-0.042576	0.538636
C285	C	0.935584	-0.839492	-0.211380
C286	C	1.185584	-0.589492	0.038620
C287	C	1.435584	-0.339492	0.288620
C288	C	1.685584	-0.089492	0.538620
C289	C	0.982306	-0.865205	-0.254558
C290	C	1.232306	-0.615205	-0.004558
C291	C	1.482306	-0.365205	0.245442
C292	C	1.732306	-0.115205	0.495442
C293	C	1.212202	-0.254910	-0.290311
C294	C	1.462202	-0.004910	-0.040311
C295	C	1.712202	0.245090	0.209689
C296	C	1.962202	0.495090	0.459689
C297	C	1.290303	-0.256833	-0.287179
C298	C	1.540303	-0.006833	-0.037179
C299	C	1.790303	0.243167	0.212821
C300	C	2.040303	0.493167	0.462821
C301	C	1.036320	-0.255257	-0.480938
C302	C	1.286320	-0.005257	-0.230938
C303	C	1.536320	0.244743	0.019062
C304	C	1.786320	0.494743	0.269062
C305	C	1.039470	-0.257327	-0.559040
C306	C	1.289470	-0.007327	-0.309040
C307	C	1.539470	0.242673	-0.059040
C308	C	1.789470	0.492673	0.190960
C309	C	1.029058	-0.133224	-0.297730
C310	C	1.279058	0.116776	-0.047730
C311	C	1.529058	0.366776	0.202270
C312	C	1.779058	0.616776	0.452270
C313	C	1.029113	-0.083292	-0.297760
C314	C	1.279113	0.166708	-0.047760
C315	C	1.529113	0.416708	0.202240
C316	C	1.779113	0.666708	0.452240
C317	C	0.996047	-0.228465	-0.597550
C318	C	1.246047	0.021535	-0.347550
C319	C	1.496047	0.271535	-0.097550
C320	C	1.746047	0.521535	0.152450
C321	C	0.999004	-0.230414	-0.670936
C322	C	1.249004	0.019586	-0.420936
C323	C	1.499004	0.269586	-0.170936
C324	C	1.749004	0.519586	0.079064
C325	C	1.045388	-0.261224	-0.705808
C326	C	1.295388	-0.011224	-0.455808
C327	C	1.545388	0.238776	-0.205808
C328	C	1.795388	0.488776	0.044192
C329	C	1.088813	-0.290090	-0.667292
C330	C	1.338813	-0.040090	-0.417292
C331	C	1.588813	0.209910	-0.167292
C332	C	1.838813	0.459910	0.082708
C333	C	1.085852	-0.288142	-0.593909
C334	C	1.335852	-0.038142	-0.343909
C335	C	1.585852	0.211858	-0.093909
C336	C	1.835852	0.461858	0.156091
C337	C	1.059056	-0.270250	-0.925087
C338	C	1.309056	-0.020250	-0.675087
C339	C	1.559056	0.229750	-0.425087
C340	C	1.809056	0.479750	-0.175087
C341	C	1.062015	-0.272194	-0.998476
C342	C	1.312015	-0.022194	-0.748476
C343	C	1.562015	0.227806	-0.498476
C344	C	1.812015	0.477806	-0.248476
C345	C	0.972205	-0.212519	-1.002114
C346	C	1.222205	0.037481	-0.752114
C347	C	1.472205	0.287481	-0.502114
C348	C	1.722205	0.537481	-0.252114
C349	C	0.969251	-0.210573	-0.928729
C350	C	1.219251	0.039427	-0.678729
C351	C	1.469251	0.289427	-0.428729
C352	C	1.719251	0.539427	-0.178729
C353	C	1.012673	-0.239440	-0.890219
C354	C	1.262673	0.010560	-0.640219
C355	C	1.512673	0.260560	-0.390219
C356	C	1.762673	0.510560	-0.140219
N357	N	1.048413	-0.263216	-0.780820
N358	N	1.298413	-0.013216	-0.530820
N359	N	1.548413	0.236784	-0.280820
N360	N	1.798413	0.486784	-0.030820
N361	N	1.009644	-0.237449	-0.815210
N362	N	1.259644	0.012551	-0.565210
N363	N	1.509644	0.262551	-0.315210
N364	N	1.759644	0.512551	-0.065210
C365	C	1.021606	-0.245526	-0.115094
C366	C	1.271606	0.004474	0.134906
C367	C	1.521606	0.254474	0.384906
C368	C	1.771606	0.504474	0.634906
C369	C	1.018592	-0.243332	-0.036987
C370	C	1.268592	0.006668	0.213013
C371	C	1.518592	0.256668	0.463013
C372	C	1.768592	0.506668	0.713013
H373	H	0.433613	-0.210399	-0.363217
H374	H	0.683613	0.039601	-0.113217
H375	H	0.933613	0.289601	0.136783
H376	H	1.183613	0.539601	0.386783
Br377	Br	0.918940	-0.975772	-0.195975
Br378	Br	1.168940	-0.725772	0.054025
Br379	Br	1.418940	-0.475772	0.304025
Br380	Br	1.668940	-0.225772	0.554025
H381	H	0.944362	-1.074839	-0.219422
H382	H	1.194362	-0.824839	0.030578
H383	H	1.444362	-0.574839	0.280578
H384	H	1.694362	-0.324839	0.530578
Br385	Br	0.785746	-0.179510	-0.413732
Br386	Br	1.035746	0.070490	-0.163732
Br387	Br	1.285746	0.320490	0.086268
Br388	Br	1.535746	0.570490	0.336268
Br389	Br	0.918723	-0.403356	-0.195836
Br390	Br	1.168723	-0.153356	0.054164
Br391	Br	1.418723	0.096644	0.304164
Br392	Br	1.668723	0.346644	0.554164
Br393	Br	0.918769	-0.513954	-0.195852
Br394	Br	1.168769	-0.263954	0.054148
Br395	Br	1.418769	-0.013954	0.304148
Br396	Br	1.668769	0.236046	0.554148
Br397	Br	0.872190	-0.868262	-0.152786
Br398	Br	1.122190	-0.618262	0.097214
Br399	Br	1.372190	-0.368262	0.347214
Br400	Br	1.622190	-0.118262	0.597214
Br401	Br	0.272821	-0.321321	-0.181586
Br402	Br	0.522821	-0.071321	0.068414
Br403	Br	0.772821	0.178679	0.318414
Br404	Br	1.022821	0.428679	0.568414
Br405	Br	1.138958	-0.413990	-0.399366
Br406	Br	1.388958	-0.163990	-0.149366
Br407	Br	1.638958	0.086010	0.100634
Br408	Br	1.888958	0.336010	0.350634
H409	H	0.931479	-0.185485	-0.900341
H410	H	1.181479	0.064515	-0.650341
H411	H	1.431479	0.314515	-0.400341
H412	H	1.681479	0.564515	-0.150341
H413	H	0.963642	-0.206913	-0.702288
H414	H	1.213642	0.043087	-0.452288
H415	H	1.463642	0.293087	-0.202288
H416	H	1.713642	0.543087	0.047712
Br417	Br	0.913277	-0.173346	-1.054381
Br418	Br	1.163277	0.076654	-0.804381
Br419	Br	1.413277	0.326654	-0.554381
Br420	Br	1.663277	0.576654	-0.304381
H421	H	1.126576	-0.315178	-0.695692
H422	H	1.376576	-0.065178	-0.445692
H423	H	1.626576	0.184822	-0.195692
H424	H	1.876576	0.434822	0.054308
H425	H	1.160450	-0.784331	-0.419206
H426	H	1.410450	-0.534331	-0.169206
H427	H	1.660450	-0.284331	0.080794
H428	H	1.910450	-0.034331	0.330794
Br429	Br	0.776998	-0.309122	-0.201479
Br430	Br	1.026998	-0.059122	0.048521
Br431	Br	1.276998	0.190878	0.298521
Br432	Br	1.526998	0.440878	0.548521
Br433	Br	1.124977	-0.314005	-1.045803
Br434	Br	1.374977	-0.064005	-0.795803
Br435	Br	1.624977	0.185995	-0.545803
Br436	Br	1.874977	0.435995	-0.295803
H437	H	0.624960	-0.290433	-0.232097
H438	H	0.874960	-0.040433	0.017903
H439	H	1.124960	0.209567	0.267903
H440	H	1.374960	0.459567	0.517903
Br441	Br	0.612778	-0.175264	-0.420723
Br442	Br	0.862778	0.074736	-0.170723
Br443	Br	1.112778	0.324736	0.079277
Br444	Br	1.362778	0.574736	0.329277
Br445	Br	1.117990	-0.309424	-0.872833
Br446	Br	1.367990	-0.059424	-0.622833
Br447	Br	1.617990	0.190576	-0.372833
Br448	Br	1.867990	0.440576	-0.122833
H449	H	1.113625	-0.510612	-0.375973
H450	H	1.363625	-0.260612	-0.125973
H451	H	1.613625	-0.010612	0.124027
H452	H	1.863625	0.239388	0.374027
H453	H	0.897476	-0.715994	-0.176191
H454	H	1.147476	-0.465994	0.073809
H455	H	1.397476	-0.215994	0.323809
H456	H	1.647476	0.034006	0.573809
Br457	Br	0.933100	-0.186646	-0.550230
Br458	Br	1.183100	0.063354	-0.300230
Br459	Br	1.433100	0.313354	-0.050230
Br460	Br	1.683100	0.563354	0.199770
Br461	Br	1.144779	-0.327317	-0.541643
Br462	Br	1.394779	-0.077317	-0.291643
Br463	Br	1.644779	0.172683	-0.041643
Br464	Br	1.894779	0.422683	0.208357
Br465	Br	0.872070	-0.616924	-0.152741
Br466	Br	1.122070	-0.366924	0.097259
Br467	Br	1.372070	-0.116924	0.347259
Br468	Br	1.622070	0.133076	0.597259
H469	H	1.160396	-0.643582	-0.419169
H470	H	1.410396	-0.393582	-0.169169
H471	H	1.660396	-0.143582	0.080831
H472	H	1.910396	0.106418	0.330831
H473	H	0.300491	-0.207123	-0.368589
H474	H	0.550491	0.042877	-0.118589
H475	H	0.800491	0.292877	0.131411
H476	H	1.050491	0.542877	0.381411
Br477	Br	1.185795	-0.742646	-0.442640
Br478	Br	1.435795	-0.492646	-0.192640
Br479	Br	1.685795	-0.242646	0.057360
Br480	Br	1.935795	0.007354	0.307360
Br481	Br	0.445791	-0.325566	-0.174592
Br482	Br	0.695791	-0.075566	0.075408
Br483	Br	0.945791	0.174434	0.325408
Br484	Br	1.195791	0.424434	0.575408
Br485	Br	1.139195	-0.986396	-0.399507
Br486	Br	1.389195	-0.736396	-0.149507
Br487	Br	1.639195	-0.486396	0.100493
Br488	Br	1.889195	-0.236396	0.350493
Br489	Br	1.139229	-1.096991	-0.399530
Br490	Br	1.389229	-0.846991	-0.149530
Br491	Br	1.639229	-0.596991	0.100470
Br492	Br	1.889229	-0.346991	0.350470
H493	H	1.160478	-0.869451	-0.419223
H494	H	1.410478	-0.619451	-0.169223
H495	H	1.660478	-0.369451	0.080777
H496	H	1.910478	-0.119451	0.330777
Br497	Br	0.872141	-0.757687	-0.152765
Br498	Br	1.122141	-0.507687	0.097235
Br499	Br	1.372141	-0.257687	0.347235
Br500	Br	1.622141	-0.007687	0.597235
