data_functionalizedCrystal
_audit_creation_method	'MofGen! by Chris Wilmer'
_symmetry_space_group_name_H-M	'P1'
_symmetry_Int_Tables_number	1
_symmetry_cell_setting	triclinic
loop_
_symmetry_equiv_pos_as_xyz
  x,y,z
_cell_length_a	25.639242
_cell_length_b	29.839125
_cell_length_c	25.639239
_cell_angle_alpha	89.983129
_cell_angle_beta	90.033587
_cell_angle_gamma	89.979564
loop_
_atom_site_label
_atom_site_type_symbol
_atom_site_fract_x
_atom_site_fract_y
_atom_site_fract_z
Zn1	Zn	0.799219	-0.254109	-0.208295
Zn2	Zn	1.299219	0.245891	0.291705
Zn3	Zn	0.799144	-0.178980	-0.295711
Zn4	Zn	1.299144	0.321020	0.204289
Zn5	Zn	0.711797	-0.178981	-0.208284
Zn6	Zn	1.211797	0.321019	0.291716
Zn7	Zn	0.711741	-0.254071	-0.295694
Zn8	Zn	1.211741	0.245929	0.204306
O9	O	0.755475	-0.216535	-0.251996
O10	O	1.255475	0.283465	0.248004
O11	O	0.872374	-0.244159	-0.219903
O12	O	1.372374	0.255841	0.280097
O13	O	0.787550	-0.116113	-0.284116
O14	O	1.287550	0.383887	0.215884
O15	O	0.723449	-0.188963	-0.135120
O16	O	1.223449	0.311037	0.364880
O17	O	0.872319	-0.188962	-0.284127
O18	O	1.372319	0.311038	0.215873
O19	O	0.787677	-0.244160	-0.135128
O20	O	1.287677	0.255840	0.364872
O21	O	0.723376	-0.116114	-0.219884
O22	O	1.223376	0.383886	0.280116
O23	O	0.638624	-0.188926	-0.219867
O24	O	1.138624	0.311074	0.280133
O25	O	0.723352	-0.316943	-0.284098
O26	O	1.223352	0.183057	0.215902
O27	O	0.638583	-0.244094	-0.284086
O28	O	1.138583	0.255906	0.215914
O29	O	0.787622	-0.316971	-0.219886
O30	O	1.287622	0.183029	0.280114
O31	O	0.787495	-0.188925	-0.368874
O32	O	1.287495	0.311075	0.131126
O33	O	0.723280	-0.244093	-0.368861
O34	O	1.223280	0.255907	0.131139
C35	C	0.619633	-0.216506	-0.251974
C36	C	1.119633	0.283494	0.248026
C37	C	0.561519	-0.216504	-0.251977
C38	C	1.061519	0.283496	0.248023
C39	C	0.755489	-0.333714	-0.251991
C40	C	1.255489	0.166286	0.248009
C41	C	0.755495	-0.383648	-0.251989
C42	C	1.255495	0.116352	0.248011
C43	C	0.310338	-0.187859	-0.218501
C44	C	0.810338	0.312141	0.281499
C45	C	0.364942	-0.187853	-0.218496
C46	C	0.864942	0.312147	0.281504
O47	O	0.393190	-0.163473	-0.190003
O48	O	0.893190	0.336527	0.309997
N49	N	0.392245	-0.216527	-0.251983
N50	N	0.892245	0.283473	0.248017
C51	C	0.364940	-0.245211	-0.285474
C52	C	0.864940	0.254789	0.214526
O53	O	0.393177	-0.269600	-0.313957
O54	O	0.893177	0.230400	0.186043
C55	C	0.310337	-0.245219	-0.285476
C56	C	0.810337	0.254781	0.214524
C57	C	0.283037	-0.216540	-0.251990
C58	C	0.783037	0.283460	0.248010
C59	C	0.283039	-0.159183	-0.185017
C60	C	0.783039	0.340817	0.314983
C61	C	0.228438	-0.159188	-0.185023
C62	C	0.728438	0.340812	0.314977
C63	C	0.201137	-0.187869	-0.218512
C64	C	0.701137	0.312131	0.281488
C65	C	0.228437	-0.216545	-0.251996
C66	C	0.728437	0.283455	0.248004
C67	C	0.283033	-0.273905	-0.318964
C68	C	0.783033	0.226095	0.181036
C69	C	0.228426	-0.273911	-0.318962
C70	C	0.728426	0.226089	0.181038
C71	C	0.201126	-0.245232	-0.285476
C72	C	0.701126	0.254768	0.214524
C73	C	0.146535	-0.245232	-0.285491
C74	C	0.646535	0.254768	0.214509
N75	N	0.119233	-0.216558	-0.252003
N76	N	0.619233	0.283442	0.247997
C77	C	0.146534	-0.187877	-0.218514
C78	C	0.646534	0.312123	0.281486
C79	C	0.479611	-0.245193	-0.285467
C80	C	0.979611	0.254807	0.214533
C81	C	0.534213	-0.245184	-0.285468
C82	C	1.034213	0.254816	0.214532
C83	C	0.534212	-0.187826	-0.218490
C84	C	1.034212	0.312174	0.281510
C85	C	0.479608	-0.187834	-0.218491
C86	C	0.979608	0.312166	0.281509
C87	C	0.452308	-0.216520	-0.251980
C88	C	0.952308	0.283480	0.248020
C89	C	0.031869	-0.187890	-0.218529
C90	C	0.531869	0.312110	0.281471
C91	C	-0.022737	-0.187896	-0.218539
C92	C	0.477263	0.312104	0.281461
C93	C	-0.022731	-0.245255	-0.285516
C94	C	0.477269	0.254745	0.214484
C95	C	0.031870	-0.245247	-0.285508
C96	C	0.531870	0.254753	0.214492
C97	C	0.059168	-0.216563	-0.252010
C98	C	0.559168	0.283437	0.247990
O99	O	0.118253	-0.269601	-0.313968
O100	O	0.618253	0.230399	0.186032
O101	O	0.118290	-0.163496	-0.190031
O102	O	0.618290	0.336504	0.309969
C103	C	0.788996	-0.693309	-0.218467
C104	C	1.288996	-0.193309	0.281533
C105	C	0.789022	-0.880982	-0.218422
C106	C	1.289022	-0.380982	0.281578
O107	O	0.817467	-0.905262	-0.189970
O108	O	1.317467	-0.405262	0.310030
N109	N	0.755565	-0.904433	-0.251849
N110	N	1.255565	-0.404433	0.248151
C111	C	0.722096	-0.880963	-0.285287
C112	C	1.222096	-0.380963	0.214713
O113	O	0.693636	-0.905216	-0.313714
O114	O	1.193636	-0.405216	0.186286
C115	C	0.722068	-0.693291	-0.285329
C116	C	1.222068	-0.193291	0.214671
C117	C	0.755531	-0.669842	-0.251903
C118	C	1.255531	-0.169842	0.248097
C119	C	0.822456	-0.669861	-0.185044
C120	C	1.322456	-0.169861	0.314956
C121	C	0.822451	-0.622945	-0.185057
C122	C	1.322451	-0.122945	0.314943
C123	C	0.788987	-0.599478	-0.218494
C124	C	1.288987	-0.099478	0.281506
C125	C	0.755526	-0.622927	-0.251917
C126	C	1.255526	-0.122927	0.248083
C127	C	0.688597	-0.669821	-0.318764
C128	C	1.188597	-0.169821	0.181236
C129	C	0.688592	-0.622900	-0.318770
C130	C	1.188592	-0.122900	0.181230
C131	C	0.722055	-0.599452	-0.285345
C132	C	1.222055	-0.099452	0.214655
C133	C	0.722057	-0.552544	-0.285367
C134	C	1.222057	-0.052544	0.214633
N135	N	0.755514	-0.529093	-0.251940
N136	N	1.255514	-0.029093	0.248060
C137	C	0.788979	-0.552560	-0.218503
C138	C	1.288979	-0.052560	0.281497
C139	C	0.722114	-0.979494	-0.285264
C140	C	1.222114	-0.479494	0.214736
C141	C	0.722122	-1.026412	-0.285254
C142	C	1.222122	-0.526412	0.214746
C143	C	0.789047	-1.026428	-0.218388
C144	C	1.289047	-0.526428	0.281612
C145	C	0.789042	-0.979509	-0.218401
C146	C	1.289042	-0.479509	0.281599
C147	C	0.755571	-0.956043	-0.251837
C148	C	1.255571	-0.456043	0.248163
C149	C	0.788967	-0.454035	-0.218535
C150	C	1.288967	0.045965	0.281465
C151	C	0.788960	-0.407115	-0.218553
C152	C	1.288960	0.092885	0.281447
C153	C	0.722033	-0.407103	-0.285416
C154	C	1.222033	0.092897	0.214584
C155	C	0.722041	-0.454018	-0.285400
C156	C	1.222041	0.045982	0.214600
C157	C	0.755510	-0.477483	-0.251955
C158	C	1.255510	0.022517	0.248045
O159	O	0.693623	-0.528236	-0.313800
O160	O	1.193623	-0.028236	0.186200
O161	O	0.817427	-0.528300	-0.190073
O162	O	1.317427	-0.028300	0.309927
C163	C	0.789001	-0.740225	-0.218453
C164	C	1.289001	-0.240225	0.281547
C165	C	0.755541	-0.763673	-0.251876
C166	C	1.255541	-0.263673	0.248124
C167	C	0.722076	-0.740206	-0.285313
C168	C	1.222076	-0.240206	0.214687
C169	C	0.755549	-0.810591	-0.251867
C170	C	1.255549	-0.310591	0.248133
C171	C	0.789013	-0.834058	-0.218430
C172	C	1.289013	-0.334058	0.281570
C173	C	0.822471	-0.810607	-0.185003
C174	C	1.322471	-0.310607	0.314997
C175	C	0.822466	-0.763692	-0.185017
C176	C	1.322466	-0.263692	0.314983
C177	C	0.688619	-0.763657	-0.318740
C178	C	1.188619	-0.263657	0.181260
C179	C	0.688627	-0.810573	-0.318724
C180	C	1.188627	-0.310573	0.181276
C181	C	0.722092	-0.834040	-0.285288
C182	C	1.222092	-0.334040	0.214712
C183	C	0.891848	-0.216565	-0.252018
C184	C	1.391848	0.283435	0.247982
C185	C	0.949962	-0.216577	-0.252028
C186	C	1.449962	0.283423	0.247972
C187	C	0.755387	-0.216515	-0.387839
C188	C	1.255387	0.283485	0.112161
C189	C	0.755398	-0.216521	-0.445953
C190	C	1.255398	0.283479	0.054047
C191	C	0.755491	-0.099813	-0.251963
C192	C	1.255491	0.400187	0.248037
C193	C	0.755587	-0.049879	-0.251818
C194	C	1.255587	0.450121	0.248182
C195	C	0.788999	-0.187858	-0.806310
C196	C	1.288999	0.312142	-0.306310
C197	C	0.789020	-0.187864	-0.860914
C198	C	1.289020	0.312136	-0.360914
O199	O	0.817498	-0.163471	-0.889146
O200	O	1.317498	0.336529	-0.389146
N201	N	0.755567	-0.216565	-0.888235
N202	N	1.255567	0.283435	-0.388235
C203	C	0.722096	-0.245265	-0.860949
C204	C	1.222096	0.254735	-0.360949
O205	O	0.693644	-0.269679	-0.889201
O206	O	1.193644	0.230321	-0.389201
C207	C	0.722079	-0.245261	-0.806345
C208	C	1.222079	0.254739	-0.306345
C209	C	0.755530	-0.216555	-0.779027
C210	C	1.255530	0.283445	-0.279027
C211	C	0.822448	-0.159154	-0.778991
C212	C	1.322448	0.340846	-0.278991
C213	C	0.822427	-0.159148	-0.724391
C214	C	1.322427	0.340852	-0.224391
C215	C	0.788957	-0.187845	-0.697109
C216	C	1.288957	0.312155	-0.197109
C217	C	0.755509	-0.216548	-0.724427
C218	C	1.255509	0.283452	-0.224427
C219	C	0.688611	-0.273963	-0.779060
C220	C	1.188611	0.226037	-0.279060
C221	C	0.688597	-0.273957	-0.724453
C222	C	1.188597	0.226043	-0.224453
C223	C	0.722047	-0.245251	-0.697135
C224	C	1.222047	0.254749	-0.197135
C225	C	0.722018	-0.245239	-0.642544
C226	C	1.222018	0.254761	-0.142544
N227	N	0.755470	-0.216538	-0.615223
N228	N	1.255470	0.283462	-0.115223
C229	C	0.788940	-0.187841	-0.642505
C230	C	1.288940	0.312159	-0.142505
C231	C	0.722135	-0.245272	-0.975619
C232	C	1.222135	0.254728	-0.475619
C233	C	0.722150	-0.245274	-1.030222
C234	C	1.222150	0.254726	-0.530222
C235	C	0.789074	-0.187873	-1.030183
C236	C	1.289074	0.312127	-0.530183
C237	C	0.789057	-0.187869	-0.975580
C238	C	1.289057	0.312131	-0.475580
C239	C	0.755588	-0.216571	-0.948298
C240	C	1.255588	0.283429	-0.448298
C241	C	0.788893	-0.187829	-0.527840
C242	C	1.288893	0.312171	-0.027840
C243	C	0.788867	-0.187824	-0.473235
C244	C	1.288867	0.312176	0.026765
C245	C	0.721945	-0.245226	-0.473278
C246	C	1.221945	0.254774	0.026722
C247	C	0.721968	-0.245230	-0.527879
C248	C	1.221968	0.254770	-0.027879
C249	C	0.755447	-0.216530	-0.555158
C250	C	1.255447	0.283470	-0.055158
O251	O	0.693556	-0.269621	-0.614278
O252	O	1.193556	0.230379	-0.114278
O253	O	0.817392	-0.163436	-0.614246
O254	O	1.317392	0.336564	-0.114246
C255	C	0.755578	-0.216566	-0.115623
C256	C	1.255578	0.283434	0.384377
C257	C	0.755621	-0.216579	-0.057509
C258	C	1.255621	0.283421	0.442491
H259	H	-0.044962	-0.164541	-0.191270
H260	H	0.455038	0.335459	0.308730
Cl261	Cl	0.317350	-0.123122	-0.142910
Cl262	Cl	0.817350	0.376878	0.357090
Cl263	Cl	0.066178	-0.151828	-0.176418
Cl264	Cl	0.566178	0.348172	0.323582
Cl265	Cl	0.194127	-0.123138	-0.142918
Cl266	Cl	0.694127	0.376862	0.357082
Cl267	Cl	0.831110	-0.950036	-0.176378
Cl268	Cl	1.331110	-0.450036	0.323622
Cl269	Cl	0.194109	-0.309976	-0.361064
Cl270	Cl	0.694109	0.190024	0.138936
H271	H	0.457385	-0.164483	-0.191222
H272	H	0.957385	0.335517	0.308778
Cl273	Cl	0.864535	-0.734221	-0.142993
Cl274	Cl	1.364535	-0.234221	0.357007
Cl275	Cl	0.646561	-0.310059	-0.813390
Cl276	Cl	1.146561	0.189941	-0.313390
Cl277	Cl	0.680089	-0.281358	-1.064558
Cl278	Cl	1.180089	0.218642	-0.564558
H279	H	0.849721	-0.829722	-0.157780
H280	H	1.349721	-0.329722	0.342220
H281	H	0.054098	-0.268596	-0.312778
H282	H	0.554098	0.231404	0.187222
H283	H	0.694859	-0.960392	-0.312495
H284	H	1.194859	-0.460392	0.187505
Cl285	Cl	0.317339	-0.309962	-0.361062
Cl286	Cl	0.817339	0.190038	0.138938
Cl287	Cl	0.680051	-0.281354	-0.941328
Cl288	Cl	1.180051	0.218646	-0.441328
H289	H	0.556450	-0.164473	-0.191220
H290	H	1.056450	0.335527	0.308780
H291	H	0.849707	-0.688963	-0.157813
H292	H	1.349707	-0.188963	0.342187
H293	H	0.816296	-0.164495	-0.953341
H294	H	1.316296	0.335505	-0.453341
Cl295	Cl	0.680060	-1.055884	-0.327285
Cl296	Cl	1.180060	-0.555884	0.172715
Cl297	Cl	0.568526	-0.281232	-0.327574
Cl298	Cl	1.068526	0.218768	0.172426
H299	H	0.661348	-0.688905	-0.345982
H300	H	1.161348	-0.188905	0.154018
H301	H	0.661343	-0.297331	-0.702243
H302	H	1.161343	0.202669	-0.202243
H303	H	0.816296	-1.045542	-0.191163
H304	H	1.316296	-0.545542	0.308837
Cl305	Cl	0.679964	-0.377593	-0.327447
Cl306	Cl	1.179964	0.122407	0.172553
H307	H	0.661331	-0.603797	-0.345993
H308	H	1.161331	-0.103797	0.154007
Cl309	Cl	-0.057062	-0.281304	-0.327620
Cl310	Cl	0.442938	0.218696	0.172380
Cl311	Cl	0.445296	-0.281256	-0.327576
Cl312	Cl	0.945296	0.218744	0.172424
H313	H	0.661378	-0.829660	-0.345948
H314	H	1.161378	-0.329660	0.154052
Cl315	Cl	0.831032	-0.377640	-0.176530
Cl316	Cl	1.331032	0.122360	0.323470
Cl317	Cl	0.646544	-0.734163	-0.360779
Cl318	Cl	1.146544	-0.234163	0.139221
Cl319	Cl	0.830923	-0.151733	-0.438895
Cl320	Cl	1.330923	0.348267	0.061105
Cl321	Cl	0.830979	-0.151748	-0.562126
Cl322	Cl	1.330979	0.348252	-0.062126
Cl323	Cl	0.864490	-0.123065	-0.690056
Cl324	Cl	1.364490	0.376935	-0.190056
H325	H	0.816329	-0.164508	-1.052406
H326	H	1.316329	0.335492	-0.552406
H327	H	0.849706	-0.135786	-0.801199
H328	H	1.349706	0.364214	-0.301199
H329	H	0.816218	-0.473134	-0.191299
H330	H	1.316218	0.026866	0.308701
Cl331	Cl	0.679874	-0.281303	-0.438970
Cl332	Cl	1.179874	0.218697	0.061030
Cl333	Cl	0.864518	-0.593474	-0.143031
Cl334	Cl	1.364518	-0.093474	0.356969
Cl335	Cl	0.679976	-0.483497	-0.327424
Cl336	Cl	1.179976	0.016503	0.172576
Cl337	Cl	0.679905	-0.281309	-0.562223
Cl338	Cl	1.179905	0.218691	-0.062223
