data_functionalizedCrystal
_audit_creation_method	'MofGen! by Chris Wilmer'
_symmetry_space_group_name_H-M	'P1'
_symmetry_Int_Tables_number	1
_symmetry_cell_setting	triclinic
loop_
_symmetry_equiv_pos_as_xyz
  x,y,z
_cell_length_a	17.699077
_cell_length_b	10.654549
_cell_length_c	16.176319
_cell_angle_alpha	89.994326
_cell_angle_beta	89.993140
_cell_angle_gamma	83.883747
loop_
_atom_site_label
_atom_site_type_symbol
_atom_site_fract_x
_atom_site_fract_y
_atom_site_fract_z
O1	O	1.005093	0.158773	-0.068734
O2	O	1.505093	0.658773	0.431266
O3	O	0.784845	0.179442	-0.068737
O4	O	1.284845	0.679442	0.431263
O5	O	0.900031	-0.013720	-0.068732
O6	O	1.400031	0.486280	0.431268
O7	O	0.889907	0.351935	-0.068739
O8	O	1.389907	0.851935	0.431261
O9	O	0.900015	-0.013733	0.068761
O10	O	1.400015	0.486267	0.568761
O11	O	0.784829	0.179430	0.068756
O12	O	1.284829	0.679430	0.568756
O13	O	1.005077	0.158761	0.068760
O14	O	1.505077	0.658761	0.568760
Cu15	Cu	0.894951	0.169094	0.081312
Cu16	Cu	1.394951	0.669094	0.581312
Cu17	Cu	0.894970	0.169109	-0.081290
Cu18	Cu	1.394970	0.669109	0.418710
O19	O	0.889891	0.351923	0.068754
O20	O	1.389891	0.851923	0.568754
C21	C	0.756636	0.178697	0.000009
C22	C	1.256636	0.678697	0.500009
C23	C	0.672603	0.176479	0.000007
C24	C	1.172603	0.676479	0.500007
C25	C	0.633120	0.175427	0.074956
C26	C	1.133120	0.675427	0.574956
C27	C	0.554164	0.173323	0.074957
C28	C	1.054164	0.673323	0.574957
C29	C	0.514692	0.172279	0.000008
C30	C	1.014692	0.672279	0.500008
C31	C	0.554181	0.173327	-0.074946
C32	C	1.054181	0.673327	0.425054
C33	C	0.633136	0.175423	-0.074946
C34	C	1.133136	0.675423	0.425054
C35	C	0.235763	0.164876	-0.074947
C36	C	0.735763	0.664876	0.425053
C37	C	0.156802	0.162785	-0.074942
C38	C	0.656802	0.662785	0.425058
C39	C	0.156792	0.162776	0.074955
C40	C	0.656792	0.662776	0.574955
C41	C	0.235747	0.164872	0.074955
C42	C	0.735747	0.664872	0.574955
C43	C	0.275229	0.165913	0.000001
C44	C	0.775229	0.665913	0.500001
C45	C	0.360843	0.168192	0.000001
C46	C	0.860843	0.668192	0.500001
C47	C	0.429080	0.170009	0.000007
C48	C	0.929080	0.670009	0.500007
C49	C	0.899279	-0.060511	0.000013
C50	C	1.399279	0.439489	0.500013
C51	C	0.897053	-0.199915	0.000011
C52	C	1.397053	0.300085	0.500011
C53	C	1.030609	-0.492242	0.000017
C54	C	1.530609	0.007758	0.500017
C55	C	1.100525	-0.441932	0.000020
C56	C	1.600525	0.058068	0.500020
C57	C	1.102619	-0.310950	0.000019
C58	C	1.602619	0.189050	0.500019
C59	C	1.034790	-0.230275	0.000017
C60	C	1.534790	0.269725	0.500017
C61	C	0.964874	-0.280586	0.000015
C62	C	1.464874	0.219414	0.500015
C63	C	0.962787	-0.411572	0.000013
C64	C	1.462787	0.088428	0.500013
C65	C	0.827136	-0.250226	0.000008
C66	C	1.327136	0.249774	0.500008
C67	C	0.825040	-0.381207	0.000003
C68	C	1.325040	0.118793	0.500003
C69	C	0.759307	-0.169551	0.000006
C70	C	1.259307	0.330449	0.500006
C71	C	0.689390	-0.219861	-0.000003
C72	C	1.189390	0.280139	0.499997
C73	C	0.687298	-0.350851	-0.000003
C74	C	1.187298	0.149149	0.499997
C75	C	0.755124	-0.431518	-0.000000
C76	C	1.255124	0.068482	0.500000
C77	C	1.033286	0.159506	0.000012
C78	C	1.533286	0.659506	0.500012
C79	C	1.117319	0.161724	0.000008
C80	C	1.617319	0.661724	0.500008
C81	C	0.890643	0.398714	0.000007
C82	C	1.390643	0.898714	0.500007
C83	C	0.892869	0.538118	0.000004
C84	C	1.392869	1.038118	0.500004
N85	N	0.894944	0.169083	0.195677
N86	N	1.394944	0.669083	0.695677
N87	N	0.894984	0.169110	-0.195655
N88	N	1.394984	0.669110	0.304345
C89	C	0.945964	0.083586	0.238944
C90	C	1.445964	0.583586	0.738944
C91	C	0.945967	0.083584	0.325491
C92	C	1.445967	0.583584	0.825491
C93	C	0.894954	0.169087	0.368770
C94	C	1.394954	0.669087	0.868770
C95	C	0.843929	0.254589	0.325497
C96	C	1.343929	0.754589	0.825497
C97	C	0.843922	0.254583	0.238952
C98	C	1.343922	0.754583	0.738952
C99	C	0.843955	0.254612	0.674525
C100	C	1.343955	0.754612	1.174525
C101	C	0.843967	0.254614	0.761077
C102	C	1.343967	0.754614	1.261077
C103	C	0.946000	0.083614	0.761064
C104	C	1.446000	0.583614	1.261064
C105	C	0.945993	0.083608	0.674519
C106	C	1.445993	0.583608	1.174519
C107	C	0.894966	0.169104	0.631254
C108	C	1.394966	0.669104	1.131254
C109	C	0.894961	0.169103	0.537410
C110	C	1.394961	0.669103	1.037410
C111	C	0.894962	0.169096	0.462612
C112	C	1.394962	0.669096	0.962612
H113	H	0.665281	0.176281	-0.135977
H114	H	1.165281	0.676281	0.364023
H115	H	0.987535	0.013988	0.639284
H116	H	1.487535	0.513988	1.139284
H117	H	1.159551	-0.269989	0.000026
H118	H	1.659551	0.230011	0.500026
H119	H	0.761018	-0.062900	0.000010
H120	H	1.261018	0.437100	0.500010
C121	C	1.175133	-0.530669	0.000019
C122	C	1.675133	-0.030669	0.500019
H123	H	1.217071	-0.481944	0.000027
H124	H	1.717071	0.018056	0.500027
H125	H	1.177187	-0.582391	-0.047927
H126	H	1.677187	-0.082391	0.452073
H127	H	1.177174	-0.582400	0.047973
H128	H	1.677174	-0.082400	0.547973
H129	H	0.987511	0.013965	0.360718
H130	H	1.487511	0.513965	0.860718
C131	C	0.787849	0.348663	0.808687
C132	C	1.287849	0.848663	1.308687
H133	H	0.795169	0.336428	0.866426
H134	H	1.295169	0.836428	1.366426
H135	H	0.737267	0.335126	0.794521
H136	H	1.237267	0.835126	1.294521
H137	H	0.796504	0.432466	0.794493
H138	H	1.296504	0.932466	1.294493
H139	H	0.987548	0.013994	0.796300
H140	H	1.487548	0.513994	1.296300
C141	C	0.610391	-0.406189	-0.000004
C142	C	1.110391	0.093811	0.499996
H143	H	0.618855	-0.495751	0.000001
H144	H	1.118855	0.004249	0.500001
H145	H	0.582441	-0.378474	-0.047950
H146	H	1.082441	0.121526	0.452050
H147	H	0.582434	-0.378491	0.047950
H148	H	1.082434	0.121509	0.547950
H149	H	0.802408	0.324229	0.639306
H150	H	1.302408	0.824229	1.139306
H151	H	1.036502	-0.123625	0.000027
H152	H	1.536502	0.376375	0.500027
C153	C	0.752827	-0.575594	0.000002
C154	C	1.252827	-0.075594	0.500002
H155	H	0.803235	-0.616430	0.000010
H156	H	1.303235	-0.116430	0.500010
H157	H	0.726924	-0.599621	-0.047944
H158	H	1.226924	-0.099621	0.452056
H159	H	0.726916	-0.599621	0.047956
H160	H	1.226916	-0.099621	0.547956
H161	H	0.987507	0.013965	0.203711
H162	H	1.487507	0.513965	0.703711
C163	C	0.113384	0.161632	-0.157389
C164	C	0.613384	0.661632	0.342611
H165	H	0.148207	0.162541	-0.202029
H166	H	0.648207	0.662541	0.297971
H167	H	0.077196	0.234020	-0.160507
H168	H	0.577196	0.734020	0.339493
H169	H	0.087973	0.087604	-0.160496
H170	H	0.587973	0.587604	0.339504
C171	C	0.787817	0.348643	0.373102
C172	C	1.287817	0.848643	0.873102
H173	H	0.795133	0.336412	0.430842
H174	H	1.295133	0.836412	0.930842
H175	H	0.737234	0.335113	0.358934
H176	H	1.237234	0.835113	0.858934
H177	H	0.796479	0.432440	0.358905
H178	H	1.296479	0.932440	0.858905
H179	H	0.802376	0.324202	0.203725
H180	H	1.302376	0.824202	0.703725
H181	H	0.665252	0.176287	0.135987
H182	H	1.165252	0.676287	0.635987
H183	H	0.522022	0.172445	0.135987
H184	H	1.022022	0.672445	0.635987
H185	H	0.522037	0.172469	-0.135970
H186	H	1.022037	0.672469	0.364030
C187	C	0.279163	0.166012	0.157398
C188	C	0.779163	0.666012	0.657398
H189	H	0.244341	0.165071	0.202036
H190	H	0.744341	0.665071	0.702036
H191	H	0.304577	0.240028	0.160516
H192	H	0.804577	0.740028	0.660516
H193	H	0.315351	0.093613	0.160509
H194	H	0.815351	0.593613	0.660509
H195	H	0.267901	0.165720	-0.135979
H196	H	0.767901	0.665720	0.364021
C197	C	0.113353	0.161725	0.157404
C198	C	0.613353	0.661725	0.657404
H199	H	0.060675	0.160347	0.146674
H200	H	0.560675	0.660347	0.646674
H201	H	0.120921	0.235304	0.188150
H202	H	0.620921	0.735304	0.688150
H203	H	0.131656	0.088888	0.188247
H204	H	0.631656	0.588888	0.688247
C205	C	0.614787	-0.131127	-0.000004
C206	C	1.114787	0.368873	0.499996
H207	H	0.572846	-0.179845	-0.000005
H208	H	1.072846	0.320155	0.499995
H209	H	0.612749	-0.079386	-0.047947
H210	H	1.112749	0.420614	0.452053
H211	H	0.612733	-0.079415	0.047953
H212	H	1.112733	0.420585	0.547953
C213	C	1.028308	-0.636318	0.000010
C214	C	1.528308	-0.136318	0.500010
H215	H	1.078715	-0.677159	0.000014
H216	H	1.578715	-0.177159	0.500014
H217	H	1.002404	-0.660332	-0.047938
H218	H	1.502404	-0.160332	0.452062
H219	H	1.002396	-0.660353	0.047962
H220	H	1.502396	-0.160353	0.547962
