data_functionalizedCrystal
_audit_creation_method	'MofGen! by Chris Wilmer'
_symmetry_space_group_name_H-M	'P1'
_symmetry_Int_Tables_number	1
_symmetry_cell_setting	triclinic
loop_
_symmetry_equiv_pos_as_xyz
  x,y,z
_cell_length_a	6.817900
_cell_length_b	11.102289
_cell_length_c	17.078481
_cell_angle_alpha	95.111625
_cell_angle_beta	99.306161
_cell_angle_gamma	108.605707
loop_
_atom_site_label
_atom_site_type_symbol
_atom_site_fract_x
_atom_site_fract_y
_atom_site_fract_z
V1	V	-4.005700	-0.175542	-0.247361
O2	O	-3.966747	0.008741	-0.242653
O3	O	-3.983201	-0.348365	-0.245670
O4	O	-3.936325	-0.172708	-0.355244
O5	O	-4.013948	-0.168132	-0.132319
V6	V	-4.488690	-0.153516	-0.233602
O7	O	-4.268129	-0.223859	-0.277545
O8	O	-4.676459	-0.105199	-0.203418
O9	O	-4.287983	0.019306	-0.235293
O10	O	-4.645040	-0.337799	-0.238310
O11	O	-4.597839	-0.160927	-0.348644
O12	O	-4.334858	-0.156350	-0.125719
C13	C	-3.835182	-0.390499	-0.241767
C14	C	-3.897933	-0.531783	-0.241103
C15	C	-3.775386	-0.166430	-0.381540
C16	C	-3.800119	-0.165257	-0.469735
C17	C	-4.109727	-0.604627	-0.244749
C18	C	-4.168680	-0.737379	-0.244131
C19	C	-3.804020	-0.724430	-0.236219
C20	C	-3.745073	-0.591682	-0.236842
C21	C	-4.320260	-0.612103	-0.249313
C22	C	-4.379213	-0.744855	-0.248696
C23	C	-3.994021	-0.171049	-0.515211
C24	C	-4.017249	-0.169946	-0.598079
C25	C	-3.846575	-0.163058	-0.635470
C26	C	-3.652655	-0.157261	-0.589988
C27	C	-3.629426	-0.158356	-0.507121
C28	C	-3.896497	-0.159097	-0.882874
C29	C	-3.919744	-0.158006	-0.965748
C30	C	-4.284335	-0.170689	-0.973832
C31	C	-4.261092	-0.171790	-0.890963
C32	C	-4.067172	-0.165986	-0.845488
N33	N	-3.870314	-0.161934	-0.720175
N34	N	-4.043431	-0.167101	-0.760784
C35	C	-4.099346	0.061434	-0.239194
C36	C	-4.015832	0.202717	-0.239863
C37	C	-4.159142	-0.162632	-0.099419
C38	C	-4.113646	-0.163799	-0.011223
H39	H	-3.572618	-0.532379	-0.233883
H40	H	-3.679575	-0.773217	-0.232751
H41	H	-4.407441	-0.592813	-0.307012
H42	H	-4.442218	-0.175412	-1.010867
H43	H	-3.738621	-0.154416	-0.845861
H44	H	-4.133011	-0.176666	-0.484773
H45	H	-4.344261	-0.558943	-0.193375
C46	C	-4.523324	-0.822957	-0.328088
C47	C	-4.746833	-0.914987	-0.328193
C48	C	-4.890939	-0.993097	-0.407581
C49	C	-4.811536	-0.979177	-0.486865
C50	C	-4.588014	-0.887143	-0.486763
C51	C	-4.443909	-0.809033	-0.407375
H52	H	-4.805623	-0.925295	-0.269499
H53	H	-5.056405	-1.061226	-0.407656
H54	H	-4.918211	-1.036998	-0.545633
H55	H	-4.529225	-0.876835	-0.545457
H56	H	-4.278443	-0.740904	-0.407300
H57	H	-4.453706	-0.769889	-0.194502
H58	H	-3.513688	-0.151646	-0.620438
C59	C	-4.230554	-0.176322	-0.648097
C60	C	-4.325058	-0.070852	-0.629239
C61	C	-4.538374	-0.077226	-0.679255
C62	C	-4.657186	-0.189071	-0.748128
C63	C	-4.562683	-0.294550	-0.766990
C64	C	-4.349367	-0.288176	-0.716974
H65	H	-4.237105	0.011950	-0.578252
H66	H	-4.608330	0.000857	-0.665292
H67	H	-4.815095	-0.193789	-0.785153
H68	H	-4.650635	-0.377352	-0.817977
H69	H	-4.279410	-0.366259	-0.730937
H70	H	-4.400077	-0.177397	-0.860525
H71	H	-3.780748	-0.152394	-0.996189
H72	H	-3.471517	-0.153607	-0.470092
