data_functionalizedCrystal
_audit_creation_method	'MofGen! by Chris Wilmer'
_symmetry_space_group_name_H-M	'P1'
_symmetry_Int_Tables_number	1
_symmetry_cell_setting	triclinic
loop_
_symmetry_equiv_pos_as_xyz
  x,y,z
_cell_length_a	12.594516
_cell_length_b	14.908783
_cell_length_c	14.908308
_cell_angle_alpha	89.788727
_cell_angle_beta	93.270509
_cell_angle_gamma	93.309297
loop_
_atom_site_label
_atom_site_type_symbol
_atom_site_fract_x
_atom_site_fract_y
_atom_site_fract_z
Zn1	Zn	-0.372278	1.345326	-0.587852
Zn2	Zn	-0.539464	1.353911	-0.437502
Zn3	Zn	-0.371126	1.203639	-0.428823
Zn4	Zn	-0.559846	1.194937	-0.579125
O5	O	-0.460679	1.274453	-0.508326
O6	O	-0.386408	1.472292	-0.575192
O7	O	-0.508122	1.341212	-0.310527
O8	O	-0.222331	1.222483	-0.449939
O9	O	-0.509239	1.478600	-0.464731
O10	O	-0.223178	1.326579	-0.566777
O11	O	-0.384445	1.230808	-0.304151
O12	O	-0.404208	1.076657	-0.441477
O13	O	-0.543976	1.207652	-0.706107
O14	O	-0.542859	1.070264	-0.551903
O15	O	-0.406171	1.318142	-0.712518
O16	O	-0.691116	1.332774	-0.456269
O17	O	-0.706090	1.215977	-0.560319
C18	C	-0.475621	1.040835	-0.494802
C19	C	-0.482041	0.940891	-0.489037
C20	C	-0.366399	0.746505	-0.593405
C21	C	-0.372427	0.652598	-0.587992
C22	C	-0.500119	0.659169	-0.472794
C23	C	-0.494091	0.753076	-0.478207
C24	C	-0.427230	0.796740	-0.538515
C25	C	-0.421208	0.890648	-0.543933
C26	C	-0.548894	0.897218	-0.428731
C27	C	-0.554922	0.803311	-0.423318
C28	C	-0.737223	1.274386	-0.508310
C29	C	-0.855527	1.274438	-0.508337
C30	C	-1.003721	1.210963	-0.564902
C31	C	-0.929148	1.291663	-0.591699
C32	C	-0.928531	1.193744	-0.481582
C33	C	-0.991733	1.355324	-0.535221
C34	C	-0.991122	1.257352	-0.425062
C35	C	-0.916575	1.338111	-0.451831
C36	C	-0.183054	1.274544	-0.508363
C37	C	-0.064747	1.274582	-0.508379
C38	C	-0.477476	1.260969	-0.742849
C39	C	-0.484634	1.255222	-0.842789
C40	C	-0.445679	1.508984	-0.521903
C41	C	-0.439287	1.608927	-0.527689
C42	C	-0.354563	1.359474	-1.037265
C43	C	-0.361285	1.354078	-1.131168
C44	C	-0.504793	1.239029	-1.124499
C45	C	-0.498071	1.244425	-1.030596
C46	C	-0.422955	1.304651	-0.986983
C47	C	-0.416239	1.310051	-0.893079
C48	C	-0.559741	1.194998	-0.886411
C49	C	-0.566463	1.189602	-0.980314
C50	C	-0.443867	1.287937	-0.274718
C51	C	-0.436398	1.293858	-0.174788
H52	H	-0.366767	0.926198	-0.593040
Br53	Br	-0.275677	0.805767	-0.675260
H54	H	-0.598435	0.938130	-0.384043
H55	H	-1.018518	1.242808	-0.354639
Br56	Br	-0.883532	1.315867	-0.709106
Br57	Br	-0.606717	1.157292	-1.183704
Br58	Br	-1.067053	1.121494	-0.644667
Br59	Br	-0.268460	1.428480	-1.199407
Br60	Br	-0.314302	1.391789	-0.833889
Br61	Br	-0.590834	0.599896	-0.390940
Br62	Br	-0.853559	1.427773	-0.372134
Br63	Br	-0.645651	0.744045	-0.341470
Br64	Br	-0.252638	1.441219	-0.978072
H65	H	-1.019492	1.423643	-0.557949
Br66	Br	-0.882046	1.079903	-0.443834
H67	H	-0.627618	1.140566	-1.015837
H68	H	-0.322890	0.611700	-0.632686
Br69	Br	-0.652579	1.120604	-0.818167
