data_functionalizedCrystal
_audit_creation_method	'MofGen! by Chris Wilmer'
_symmetry_space_group_name_H-M	'P1'
_symmetry_Int_Tables_number	1
_symmetry_cell_setting	triclinic
loop_
_symmetry_equiv_pos_as_xyz
  x,y,z
_cell_length_a	13.339070
_cell_length_b	27.732064
_cell_length_c	11.804365
_cell_angle_alpha	101.735477
_cell_angle_beta	74.875130
_cell_angle_gamma	99.139359
loop_
_atom_site_label
_atom_site_type_symbol
_atom_site_fract_x
_atom_site_fract_y
_atom_site_fract_z
O1	O	1.359079	0.234814	-0.099029
O2	O	1.065044	0.203074	-0.099027
O3	O	1.221186	0.149804	-0.099033
O4	O	1.202937	0.288085	-0.099023
O5	O	1.180080	0.163808	0.099025
O6	O	1.023938	0.217079	0.099030
O7	O	1.317973	0.248819	0.099029
Cu8	Cu	1.167202	0.234227	0.117113
Cu9	Cu	1.215815	0.217666	-0.117112
O10	O	1.161831	0.302089	0.099034
C11	C	1.006885	0.204715	0.000001
C12	C	0.894831	0.188734	0.000001
C13	C	0.528113	0.312996	-0.000009
C14	C	0.633393	0.328013	-0.000013
C15	C	0.698758	0.293194	-0.000009
C16	C	0.658831	0.243356	-0.000002
C17	C	0.553542	0.228338	-0.000008
C18	C	0.724187	0.208536	-0.000007
C19	C	0.684261	0.158698	-0.000000
C20	C	0.578982	0.143682	-0.000005
C21	C	0.513618	0.178500	-0.000009
C22	C	0.829476	0.223555	-0.000002
C23	C	0.854906	0.138896	-0.000000
C24	C	0.749625	0.123880	0.000004
C25	C	1.200248	0.138746	-0.000008
C26	C	1.199089	0.084931	-0.000019
C27	C	1.098914	-0.305935	-0.000023
C28	C	1.103188	-0.103687	-0.000025
O29	O	1.025465	-0.083140	-0.000072
N30	N	1.195777	-0.071811	-0.000025
C31	C	1.287305	-0.090500	-0.000033
O32	O	1.366158	-0.058748	-0.000046
C33	C	1.283032	-0.292748	-0.000040
C34	C	1.190435	-0.324621	-0.000028
C35	C	1.006325	-0.337808	-0.000012
C36	C	1.005256	-0.388366	-0.000005
C37	C	1.096777	-0.407052	-0.000009
C38	C	1.189366	-0.375180	-0.000021
C39	C	1.374561	-0.311438	-0.000057
C40	C	1.373485	-0.362004	-0.000061
C41	C	1.280888	-0.393877	-0.000049
C42	C	1.279818	-0.444425	-0.000018
N43	N	1.187229	-0.476300	-0.000018
C44	C	1.095709	-0.457614	-0.000013
C45	C	1.289542	0.015683	-0.000027
C46	C	1.290610	0.066245	-0.000023
C47	C	1.106492	0.053055	-0.000017
C48	C	1.105424	0.002492	-0.000012
C49	C	1.196953	-0.016193	-0.000027
C50	C	1.093471	-0.563791	0.000002
C51	C	1.092409	-0.614353	0.000014
C52	C	1.276527	-0.601158	0.000001
C53	C	1.277588	-0.550600	-0.000004
C54	C	1.186052	-0.531918	-0.000008
O55	O	1.357503	-0.465006	0.000016
O56	O	1.016873	-0.489376	-0.000027
C57	C	1.099983	-0.255377	-0.000030
C58	C	1.192572	-0.223504	-0.000041
C59	C	1.284093	-0.242190	-0.000046
C60	C	1.193641	-0.172942	-0.000037
C61	C	1.102120	-0.154256	-0.000033
C62	C	1.009531	-0.186132	-0.000032
C63	C	1.008462	-0.236691	-0.000026
C64	C	1.376682	-0.210314	-0.000046
C65	C	1.377743	-0.159756	-0.000052
C66	C	1.286222	-0.141070	-0.000047
C67	C	1.376132	0.247178	-0.000003
C68	C	1.488188	0.263159	-0.000011
C69	C	1.182769	0.313147	0.000006
C70	C	1.183930	0.366961	0.000010
N71	N	1.133018	0.245877	0.281855
N72	N	1.250007	0.206013	-0.281854
C73	C	1.332095	0.178030	0.655797
C74	C	1.357954	0.169215	0.531135
C75	C	1.301722	0.188379	0.468809
C76	C	1.219627	0.216361	0.531157
C77	C	1.193771	0.225180	0.655832
C78	C	1.163398	0.235530	0.468844
C79	C	1.081303	0.263511	0.531193
C80	C	1.055450	0.272328	0.655855
C81	C	1.111682	0.253164	0.718181
C82	C	1.189254	0.226710	0.344169
C83	C	1.050930	0.273860	0.344204
C84	C	1.025070	0.282675	0.468867
H85	H	1.017001	-0.640302	0.000030
F86	F	0.810806	0.309178	-0.000011
F87	F	0.675880	0.381051	-0.000025
H88	H	1.018934	-0.548586	-0.000001
H89	H	1.453150	-0.133808	-0.000053
H90	H	0.958227	0.305459	0.519647
F91	F	0.458547	0.350045	-0.000029
H92	H	1.005142	0.289467	0.293459
H93	H	0.933060	-0.262638	-0.000014
F94	F	0.968088	0.302114	0.722212
H95	H	0.931794	-0.322600	-0.000012
F96	F	0.401563	0.162521	-0.000002
F97	F	0.536499	0.090638	-0.000031
F98	F	0.707120	0.070840	0.000010
H99	H	0.908127	0.110544	-0.000002
H100	H	1.451211	-0.225523	-0.000051
H101	H	0.929856	-0.414314	-0.000005
H102	H	1.030022	-0.023455	0.000003
F103	F	1.009089	0.072950	-0.000011
F104	F	1.389160	0.100163	-0.000019
H105	H	1.256096	0.203928	0.293416
H106	H	1.364080	0.000475	-0.000037
H107	H	1.449964	-0.285495	-0.000068
H108	H	1.377877	0.162432	0.706551
F109	F	1.373923	-0.621054	0.000006
H110	H	0.861973	0.264133	-0.000003
F111	F	1.376132	-0.516675	0.000020
H112	H	1.090625	0.260339	0.819692
H113	H	1.448023	-0.377214	-0.000080
H114	H	0.935010	-0.170909	-0.000021
H115	H	1.322780	0.181201	0.367303
H116	H	1.424796	0.146433	0.480375
