data_functionalizedCrystal
_audit_creation_method	'MofGen! by Chris Wilmer'
_symmetry_space_group_name_H-M	'P1'
_symmetry_Int_Tables_number	1
_symmetry_cell_setting	triclinic
loop_
_symmetry_equiv_pos_as_xyz
  x,y,z
_cell_length_a	11.792241
_cell_length_b	10.868271
_cell_length_c	11.792241
_cell_angle_alpha	90.005281
_cell_angle_beta	84.193416
_cell_angle_gamma	90.000107
loop_
_atom_site_label
_atom_site_type_symbol
_atom_site_fract_x
_atom_site_fract_y
_atom_site_fract_z
O1	O	-1.506908	-0.102203	-0.155568
O2	O	-1.173575	0.231130	0.177765
O3	O	-0.840242	0.564463	0.511098
O4	O	-1.176567	-0.102232	-0.171601
O5	O	-0.843234	0.231101	0.161732
O6	O	-0.509901	0.564435	0.495065
O7	O	-1.349754	-0.102208	0.001586
O8	O	-1.016421	0.231125	0.334919
O9	O	-0.683088	0.564458	0.668252
O10	O	-1.333721	-0.102227	-0.328755
O11	O	-1.000388	0.231106	0.004578
O12	O	-0.667055	0.564440	0.337911
O13	O	-1.349740	0.102436	0.001592
O14	O	-1.016407	0.435770	0.334926
O15	O	-0.683073	0.769103	0.668259
O16	O	-1.176553	0.102413	-0.171595
O17	O	-0.843220	0.435746	0.161739
O18	O	-0.509886	0.769079	0.495072
O19	O	-1.506894	0.102441	-0.155562
O20	O	-1.173561	0.435775	0.177772
O21	O	-0.840227	0.769108	0.511105
Zn22	Zn	-1.341721	0.134919	-0.163577
Zn23	Zn	-1.008388	0.468252	0.169756
Zn24	Zn	-0.675055	0.801585	0.503090
Zn25	Zn	-1.341740	-0.134709	-0.163586
Zn26	Zn	-1.008407	0.198624	0.169747
Zn27	Zn	-0.675073	0.531957	0.503081
O28	O	-1.333707	0.102418	-0.328749
O29	O	-1.000374	0.435751	0.004585
O30	O	-0.667040	0.769084	0.337918
C31	C	-1.134269	0.000087	-0.170591
C32	C	-0.800936	0.333420	0.162742
C33	C	-0.467603	0.666753	0.496076
C34	C	-1.008255	0.000076	-0.167576
C35	C	-0.674922	0.333409	0.165757
C36	C	-0.341589	0.666743	0.499090
C37	C	-1.348740	0.000114	0.043880
C38	C	-1.015407	0.333447	0.377213
C39	C	-0.682073	0.666780	0.710547
C40	C	-1.345726	0.000112	0.169894
C41	C	-1.012392	0.333445	0.503227
C42	C	-0.679059	0.666779	0.836560
C43	C	-1.549192	0.000120	-0.156572
C44	C	-1.215859	0.333453	0.176761
C45	C	-0.882525	0.666787	0.510095
C46	C	-1.675206	0.000123	-0.159587
C47	C	-1.341873	0.333456	0.173747
C48	C	-1.008539	0.666789	0.507080
C49	C	-0.777543	0.000112	-0.162034
C50	C	-0.444210	0.333445	0.171300
C51	C	-0.110877	0.666778	0.504633
C52	C	-0.905928	0.000092	-0.165113
C53	C	-0.572595	0.333425	0.168220
C54	C	-0.239262	0.666759	0.501553
N55	N	-1.341717	0.318933	-0.163570
N56	N	-1.008383	0.652266	0.169763
N57	N	-0.675050	0.985600	0.503096
N58	N	-1.341754	-0.318723	-0.163584
N59	N	-1.008420	0.014610	0.169749
N60	N	-0.675087	0.347943	0.503083
C61	C	-1.341734	0.569939	-0.163584
C62	C	-1.008401	0.903272	0.169750
C63	C	-0.675068	1.236606	0.503083
C64	C	-1.341721	0.430261	-0.163580
C65	C	-1.008387	0.763595	0.169754
C66	C	-0.675054	1.096928	0.503087
C67	C	-1.334721	0.000093	-0.371043
C68	C	-1.001388	0.333426	-0.037710
C69	C	-0.668055	0.666760	0.295624
C70	C	-1.337736	0.000087	-0.497057
C71	C	-1.004402	0.333420	-0.163723
C72	C	-0.671069	0.666753	0.169610
C73	C	-1.340183	0.000091	0.400606
C74	C	-1.006849	0.333424	0.733939
C75	C	-0.673516	0.666758	1.067272
C76	C	-1.343262	0.000102	0.272221
C77	C	-1.009929	0.333436	0.605554
C78	C	-0.676596	0.666769	0.938887
