data_functionalizedCrystal
_audit_creation_method	'MofGen! by Chris Wilmer'
_symmetry_space_group_name_H-M	'P1'
_symmetry_Int_Tables_number	1
_symmetry_cell_setting	triclinic
loop_
_symmetry_equiv_pos_as_xyz
  x,y,z
_cell_length_a	14.519709
_cell_length_b	14.519709
_cell_length_c	12.996460
_cell_angle_alpha	90.004595
_cell_angle_beta	90.007122
_cell_angle_gamma	96.319855
loop_
_atom_site_label
_atom_site_type_symbol
_atom_site_fract_x
_atom_site_fract_y
_atom_site_fract_z
O1	O	0.120894	-1.223863	0.085435
O2	O	0.370894	-0.973863	0.335435
O3	O	0.620894	-0.723863	0.585435
O4	O	0.870894	-0.473863	0.835435
O5	O	0.135130	-0.955386	0.085467
O6	O	0.385130	-0.705386	0.335467
O7	O	0.635130	-0.455386	0.585467
O8	O	0.885130	-0.205386	0.835467
O9	O	-0.006227	-1.096742	0.085441
O10	O	0.243773	-0.846742	0.335441
O11	O	0.493773	-0.596742	0.585441
O12	O	0.743773	-0.346742	0.835441
O13	O	0.262250	-1.082506	0.085461
O14	O	0.512250	-0.832506	0.335461
O15	O	0.762250	-0.582506	0.585461
O16	O	1.012250	-0.332506	0.835461
O17	O	-0.006236	-1.096740	-0.085693
O18	O	0.243764	-0.846740	0.164307
O19	O	0.493764	-0.596740	0.414307
O20	O	0.743764	-0.346740	0.664307
O21	O	0.135121	-0.955383	-0.085667
O22	O	0.385121	-0.705383	0.164333
O23	O	0.635121	-0.455383	0.414333
O24	O	0.885121	-0.205383	0.664333
O25	O	0.120884	-1.223860	-0.085699
O26	O	0.370884	-0.973860	0.164301
O27	O	0.620884	-0.723860	0.414301
O28	O	0.870884	-0.473860	0.664301
Cu29	Cu	0.128002	-1.089622	-0.101309
Cu30	Cu	0.378002	-0.839622	0.148691
Cu31	Cu	0.628002	-0.589622	0.398691
Cu32	Cu	0.878002	-0.339622	0.648691
Cu33	Cu	0.128013	-1.089624	0.101077
Cu34	Cu	0.378013	-0.839624	0.351077
Cu35	Cu	0.628013	-0.589624	0.601077
Cu36	Cu	0.878013	-0.339624	0.851077
O37	O	0.262241	-1.082503	-0.085673
O38	O	0.512241	-0.832503	0.164327
O39	O	0.762241	-0.582503	0.414327
O40	O	1.012241	-0.332503	0.664327
C41	C	0.134462	-0.921025	-0.000096
C42	C	0.384462	-0.671025	0.249904
C43	C	0.634462	-0.421025	0.499904
C44	C	0.884462	-0.171025	0.749904
C45	C	0.132474	-0.818643	-0.000084
C46	C	0.382474	-0.568643	0.249916
C47	C	0.632474	-0.318643	0.499916
C48	C	0.882474	-0.068643	0.749916
C49	C	-0.040591	-1.096078	-0.000126
C50	C	0.209409	-0.846078	0.249874
C51	C	0.459409	-0.596078	0.499874
C52	C	0.709409	-0.346078	0.749874
C53	C	-0.142972	-1.094090	-0.000126
C54	C	0.107028	-0.844090	0.249874
C55	C	0.357028	-0.594090	0.499874
C56	C	0.607028	-0.344090	0.749874
N57	N	0.128014	-1.089627	0.243424
N58	N	0.378014	-0.839627	0.493424
N59	N	0.628014	-0.589627	0.743424
N60	N	0.878014	-0.339627	0.993424
C61	C	-0.517868	-1.086770	-0.000099
C62	C	-0.267868	-0.836770	0.249901
C63	C	-0.017868	-0.586770	0.499901
C64	C	0.232132	-0.336770	0.749901
C65	C	-0.413560	-1.088803	-0.000107
C66	C	-0.163560	-0.838803	0.249893
C67	C	0.086440	-0.588803	0.499893
C68	C	0.336440	-0.338803	0.749893
C69	C	-0.330423	-1.090430	-0.000114
C70	C	-0.080423	-0.840430	0.249886
C71	C	0.169577	-0.590430	0.499886
C72	C	0.419577	-0.340430	0.749886
C73	C	-0.226109	-1.092463	-0.000120
C74	C	0.023891	-0.842463	0.249880
C75	C	0.273891	-0.592463	0.499880
C76	C	0.523891	-0.342463	0.749880
C77	C	0.296605	-1.083168	-0.000103
C78	C	0.546605	-0.833168	0.249897
C79	C	0.796605	-0.583168	0.499897
C80	C	1.046605	-0.333168	0.749897
C81	C	0.398987	-1.085156	-0.000096
C82	C	0.648987	-0.835156	0.249904
C83	C	0.898987	-0.585156	0.499904
C84	C	1.148987	-0.335156	0.749904
C85	C	0.121553	-1.258221	-0.000134
C86	C	0.371553	-1.008221	0.249866
C87	C	0.621553	-0.758221	0.499866
C88	C	0.871553	-0.508221	0.749866
C89	C	0.123541	-1.360602	-0.000139
C90	C	0.373541	-1.110602	0.249861
C91	C	0.623541	-0.860602	0.499861
C92	C	0.873541	-0.610602	0.749861
C93	C	0.125154	-0.443748	-0.000132
C94	C	0.375154	-0.193748	0.249868
C95	C	0.625154	0.056252	0.499868
C96	C	0.875154	0.306252	0.749868
C97	C	0.127187	-0.548056	-0.000118
C98	C	0.377187	-0.298056	0.249882
C99	C	0.627187	-0.048056	0.499882
C100	C	0.877187	0.201944	0.749882
C101	C	0.128814	-0.631192	-0.000107
C102	C	0.378814	-0.381192	0.249893
C103	C	0.628814	-0.131192	0.499893
C104	C	0.878814	0.118808	0.749893
C105	C	0.130847	-0.735507	-0.000095
C106	C	0.380847	-0.485507	0.249905
C107	C	0.630847	-0.235507	0.499905
C108	C	0.880847	0.014493	0.749905
N109	N	0.127993	-1.089626	-0.243656
N110	N	0.377993	-0.839626	0.006344
N111	N	0.627993	-0.589626	0.256344
N112	N	0.877993	-0.339626	0.506344
C113	C	0.128005	-1.089622	0.663238
C114	C	0.378005	-0.839622	0.913238
C115	C	0.628005	-0.589622	1.163238
C116	C	0.878005	-0.339622	1.413238
C117	C	0.128010	-1.089620	0.546433
C118	C	0.378010	-0.839620	0.796433
C119	C	0.628010	-0.589620	1.046433
C120	C	0.878010	-0.339620	1.296433
C121	C	0.128009	-1.089624	0.453335
C122	C	0.378009	-0.839624	0.703335
C123	C	0.628009	-0.589624	0.953335
C124	C	0.878009	-0.339624	1.203335
C125	C	0.128015	-1.089623	0.336522
C126	C	0.378015	-0.839623	0.586522
C127	C	0.628015	-0.589623	0.836522
C128	C	0.878015	-0.339623	1.086522
