data_functionalizedCrystal
_audit_creation_method	'MofGen! by Chris Wilmer'
_symmetry_space_group_name_H-M	'P1'
_symmetry_Int_Tables_number	1
_symmetry_cell_setting	triclinic
loop_
_symmetry_equiv_pos_as_xyz
  x,y,z
_cell_length_a	17.038272
_cell_length_b	16.992694
_cell_length_c	15.455313
_cell_angle_alpha	92.857794
_cell_angle_beta	92.858370
_cell_angle_gamma	89.110110
loop_
_atom_site_label
_atom_site_type_symbol
_atom_site_fract_x
_atom_site_fract_y
_atom_site_fract_z
O1	O	0.163265	-1.054714	-0.072022
O2	O	0.161438	-0.826308	-0.072048
O3	O	0.048451	-0.939153	-0.072029
O4	O	0.276252	-0.941869	-0.072042
O5	O	0.054884	-0.932698	0.072232
O6	O	0.167870	-0.819853	0.072213
O7	O	0.169698	-1.048259	0.072239
Cu8	Cu	0.169371	-0.933466	0.085398
Cu9	Cu	0.161764	-0.941100	-0.085207
O10	O	0.282684	-0.935414	0.072219
C11	C	0.162304	-0.793711	0.000079
C12	C	0.155293	-0.706200	0.000070
C13	C	0.022384	-0.933456	0.000102
C14	C	-0.064871	-0.926089	0.000101
C15	C	0.168831	-1.080856	0.000109
C16	C	0.175842	-1.168367	0.000113
C17	C	-0.110741	-0.993729	0.000109
C18	C	-0.192726	-0.986802	0.000100
C19	C	-0.228840	-0.912235	0.000089
C20	C	-0.182964	-0.844590	0.000078
C21	C	-0.100981	-0.851518	0.000080
C22	C	-0.476134	-0.887761	0.000074
C23	C	-0.558124	-0.880838	0.000074
C24	C	-0.567881	-1.023051	0.000095
C25	C	-0.485895	-1.029972	0.000103
C26	C	-0.440026	-0.962327	0.000087
C27	C	-0.312642	-0.905153	0.000082
C28	C	-0.356226	-0.969410	0.000087
C29	C	0.308751	-0.941110	0.000087
C30	C	0.396006	-0.948478	0.000082
N31	N	0.174722	-0.928103	0.205393
C32	C	0.222933	-0.660471	0.000066
C33	C	0.216342	-0.578245	0.000079
C34	C	0.142110	-0.541748	0.000088
C35	C	0.074465	-0.587482	0.000094
C36	C	0.081058	-0.669707	0.000088
C37	C	0.114789	-0.296326	0.000113
C38	C	0.108202	-0.214095	0.000117
C39	C	0.250079	-0.204863	0.000103
C40	C	0.256665	-0.287091	0.000091
C41	C	0.189020	-0.332818	0.000102
N42	N	0.135371	-0.457699	0.000098
N43	N	0.195760	-0.416865	0.000098
N44	N	0.156408	-0.946469	-0.205202
C45	C	0.126741	-0.976063	0.250795
C46	C	0.130795	-0.972014	0.341602
C47	C	0.182835	-0.920010	0.387005
C48	C	0.230817	-0.872045	0.341597
C49	C	0.226759	-0.876090	0.250791
C50	C	0.200332	-0.902549	0.658584
C51	C	0.204388	-0.898510	0.749396
C52	C	0.104365	-0.998479	0.749395
C53	C	0.100314	-1.002522	0.658588
C54	C	0.148294	-0.954554	0.613187
N55	N	0.186981	-0.915872	0.479825
N56	N	0.144143	-0.958688	0.520369
H57	H	-0.230070	-1.041882	0.000109
H58	H	0.273186	-0.829697	0.378569
H59	H	-0.456497	-1.090692	0.000112
C60	C	-0.128629	-1.133602	0.000114
C61	C	-0.071049	-1.075697	0.000115
H62	H	-0.104125	-1.184207	0.000109
H63	H	-0.158159	-1.125695	0.050418
H64	H	-0.162644	-1.130183	-0.050196
H65	H	-0.037036	-1.079112	0.050429
H66	H	-0.041505	-1.083607	-0.050194
C67	C	-0.697888	-1.075581	0.000091
C68	C	-0.618301	-1.097403	0.000099
H69	H	-0.729014	-1.121486	0.000085
H70	H	-0.707077	-1.042988	0.050392
H71	H	-0.711550	-1.047479	-0.050222
H72	H	-0.604638	-1.125500	0.050416
H73	H	-0.609108	-1.130009	-0.050207
C74	C	-0.540251	-0.740957	0.000027
C75	C	-0.597823	-0.798868	0.000048
H76	H	-0.564761	-0.690356	0.000005
H77	H	-0.506239	-0.744354	0.050333
H78	H	-0.510716	-0.748880	-0.050282
H79	H	-0.627354	-0.790949	0.050360
H80	H	-0.631848	-0.795469	-0.050264
H81	H	-0.212375	-0.783876	0.000063
H82	H	-0.438798	-0.832680	0.000062
H83	H	0.057940	-1.044869	0.621622
C84	C	0.342586	-0.681212	-0.074102
C85	C	0.304534	-0.700582	0.000055
H86	H	0.392966	-0.705969	-0.074103
H87	H	0.312279	-0.698834	-0.124399
H88	H	0.348331	-0.625695	-0.074089
H89	H	0.298784	-0.756099	0.000038
H90	H	0.334849	-0.682964	0.050365
C91	C	-0.099566	-0.710252	0.000066
C92	C	-0.050557	-0.777166	0.000074
H93	H	-0.068435	-0.664350	0.000064
H94	H	-0.133985	-0.712760	-0.050237
H95	H	-0.129506	-0.708260	0.050378
H96	H	-0.020621	-0.779161	-0.050241
H97	H	-0.016124	-0.774657	0.050382
H98	H	0.271422	-0.541016	0.000075
H99	H	0.265828	-0.837035	0.213825
H100	H	0.047750	-0.184383	0.000123
C101	C	0.028275	-1.074464	0.259925
C102	C	0.069536	-1.033227	0.200892
H103	H	-0.007047	-1.109750	0.229117
H104	H	0.064325	-1.103387	0.295329
H105	H	-0.000447	-1.038218	0.295354
H106	H	0.098262	-1.069472	0.165466
H107	H	0.033481	-1.004302	0.165473
C108	C	0.029575	-0.977447	0.443723
C109	C	0.078054	-1.024739	0.391502
H110	H	-0.002990	-1.010001	0.474522
H111	H	0.061143	-0.945905	0.483760
H112	H	-0.002314	-0.944372	0.408299
H113	H	0.109948	-1.057811	0.426928
H114	H	0.046483	-1.056295	0.351461
H115	H	-0.326819	-1.030124	0.000077
C116	C	-0.027388	-1.034401	0.777364
C117	C	0.051618	-1.051192	0.799302
H118	H	-0.059954	-1.066947	0.808172
H119	H	-0.038552	-0.980625	0.792256
H120	H	-0.037242	-1.044256	0.716784
H121	H	0.061473	-1.041332	0.859881
H122	H	0.062786	-1.104980	0.784416
C123	C	0.302833	-0.800074	0.740280
C124	C	0.261582	-0.841330	0.799305
H125	H	0.338134	-0.764771	0.771094
H126	H	0.331569	-0.836300	0.704857
H127	H	0.266769	-0.771160	0.704869
H128	H	0.297646	-0.870249	0.834712
H129	H	0.232845	-0.805098	0.834743
H130	H	0.239400	-0.863493	0.621625
C131	C	-0.045185	-0.566727	0.074266
C132	C	-0.007133	-0.547367	0.000104
H133	H	-0.095559	-0.541959	0.074270
H134	H	-0.050937	-0.622235	0.074259
H135	H	-0.014868	-0.549103	0.124566
H136	H	-0.037447	-0.564997	-0.050196
H137	H	-0.001384	-0.491847	0.000104
H138	H	0.059707	-0.333548	0.000122
C139	C	-0.402490	-0.818188	-0.074081
C140	C	-0.352346	-0.823190	0.000079
H141	H	-0.427006	-0.767589	-0.074079
H142	H	-0.372947	-0.826084	-0.124377
H143	H	-0.441533	-0.857491	-0.074072
H144	H	-0.313299	-0.783890	0.000067
H145	H	-0.381891	-0.815286	0.050388
H146	H	0.025978	-0.706939	0.000090
C147	C	0.343068	-0.377476	-0.074124
C148	C	0.338269	-0.327191	0.000054
H149	H	0.393452	-0.402224	-0.074159
H150	H	0.303744	-0.416485	-0.074108
H151	H	0.335277	-0.347817	-0.124413
H152	H	0.346055	-0.356851	0.050343
H153	H	0.377606	-0.288177	0.000046
C154	C	0.390979	-0.203999	0.000085
C155	C	0.324432	-0.154600	0.000096
H156	H	0.436882	-0.172967	0.000078
H157	H	0.392842	-0.234016	0.050388
H158	H	0.388348	-0.238508	-0.050227
H159	H	0.327060	-0.120094	0.050412
H160	H	0.322569	-0.124569	-0.050211
