data_functionalizedCrystal
_audit_creation_method	'MofGen! by Chris Wilmer'
_symmetry_space_group_name_H-M	'P1'
_symmetry_Int_Tables_number	1
_symmetry_cell_setting	triclinic
loop_
_symmetry_equiv_pos_as_xyz
  x,y,z
_cell_length_a	11.169417
_cell_length_b	15.297327
_cell_length_c	15.298259
_cell_angle_alpha	91.656652
_cell_angle_beta	80.337768
_cell_angle_gamma	99.707226
loop_
_atom_site_label
_atom_site_type_symbol
_atom_site_fract_x
_atom_site_fract_y
_atom_site_fract_z
Zn1	Zn	1.646391	-0.262964	0.555518
Zn2	Zn	1.634552	-0.434812	0.434379
Zn3	Zn	1.473549	-0.288353	0.409070
Zn4	Zn	1.406092	-0.409408	0.580809
O5	O	1.540146	-0.348884	0.494944
O6	O	1.812767	-0.285766	0.539456
O7	O	1.636472	-0.436642	0.308451
O8	O	1.529663	-0.162404	0.407320
O9	O	1.804069	-0.412023	0.450456
O10	O	1.656649	-0.143751	0.514915
O11	O	1.518183	-0.329039	0.289856
O12	O	1.296655	-0.304405	0.431843
O13	O	1.414692	-0.368724	0.700024
O14	O	1.247094	-0.393343	0.558019
O15	O	1.591239	-0.261133	0.681443
O16	O	1.571061	-0.554024	0.474979
O17	O	1.403212	-0.535359	0.582561
C18	C	1.228327	-0.348873	0.494930
C19	C	1.094920	-0.348886	0.494949
C20	C	1.478561	-0.576472	0.534280
C21	C	1.452318	-0.673830	0.551137
C22	C	1.728143	-0.986984	0.374759
C23	C	1.752799	-0.895512	0.358917
C24	C	1.677681	-0.840087	0.406970
C25	C	1.577902	-0.876143	0.470870
C26	C	1.553238	-0.967624	0.486709
C27	C	1.502776	-0.820727	0.518920
C28	C	1.402998	-0.856783	0.582820
C29	C	1.378338	-0.948256	0.598657
C30	C	1.453456	-1.003681	0.550603
C31	C	1.527441	-0.729246	0.503081
C32	C	1.352536	-0.709886	0.615031
C33	C	1.327880	-0.801358	0.630874
C34	C	1.853183	-0.348896	0.494958
C35	C	1.986580	-0.348901	0.494964
C36	C	1.496761	-0.309263	0.723403
C37	C	1.478273	-0.292378	0.820759
C38	C	1.602002	-0.120405	0.455473
C39	C	1.628361	-0.023041	0.438653
C40	C	1.583449	-0.388289	0.267362
C41	C	1.602236	-0.404926	0.169964
C42	C	1.672506	-0.468885	1.133908
C43	C	1.689869	-0.484754	1.042438
C44	C	1.636972	-0.436662	0.987014
C45	C	1.566708	-0.372697	1.023069
C46	C	1.549335	-0.356831	1.114548
C47	C	1.513801	-0.324608	0.967654
C48	C	1.443537	-0.260643	1.003709
C49	C	1.426169	-0.244780	1.095179
C50	C	1.479066	-0.292872	1.150604
C51	C	1.531174	-0.340474	0.876175
C52	C	1.408003	-0.228419	0.856815
C53	C	1.390640	-0.212550	0.948284
H54	H	1.608681	-0.699898	0.451053
F55	F	1.221691	-0.839742	0.698878
H56	H	1.697761	-0.765608	0.394066
H57	H	1.789286	-1.032120	0.335636
F58	F	1.858994	-0.857145	0.290919
H59	H	1.291367	-0.664759	0.654159
H60	H	1.433388	-1.078165	0.563501
F61	F	1.605952	-0.408547	0.837813
F62	F	1.655457	-0.453550	0.889663
H63	H	1.364929	-0.189259	0.811688
F64	F	1.272140	-0.986627	0.666660
H65	H	1.747064	-0.536843	1.013091
F66	F	1.728781	-0.520069	1.192899
H67	H	1.464936	-0.279953	1.225086
H68	H	1.368942	-0.192704	1.124533
F69	F	1.315862	-0.144477	0.986668
