data_functionalizedCrystal
_audit_creation_method	'MofGen! by Chris Wilmer'
_symmetry_space_group_name_H-M	'P1'
_symmetry_Int_Tables_number	1
_symmetry_cell_setting	triclinic
loop_
_symmetry_equiv_pos_as_xyz
  x,y,z
_cell_length_a	19.188928
_cell_length_b	12.503552
_cell_length_c	19.188920
_cell_angle_alpha	93.497196
_cell_angle_beta	83.142693
_cell_angle_gamma	86.472133
loop_
_atom_site_label
_atom_site_type_symbol
_atom_site_fract_x
_atom_site_fract_y
_atom_site_fract_z
O1	O	-0.930207	0.089762	-0.083092
O2	O	-0.430207	0.589762	0.416908
O3	O	-0.726891	0.089676	-0.094832
O4	O	-0.226891	0.589676	0.405168
O5	O	-0.834417	0.089686	0.012693
O6	O	-0.334417	0.589686	0.512693
O7	O	-0.822680	0.089752	-0.190616
O8	O	-0.322680	0.589752	0.309384
O9	O	-0.826321	-0.088958	0.004599
O10	O	-0.326321	0.411042	0.504599
O11	O	-0.718795	-0.088967	-0.102925
O12	O	-0.218795	0.411033	0.397075
O13	O	-0.922111	-0.088882	-0.091185
O14	O	-0.422111	0.411118	0.408815
Cu15	Cu	-0.819714	-0.105236	-0.097794
Cu16	Cu	-0.319714	0.394764	0.402206
Cu17	Cu	-0.829288	0.106030	-0.088223
Cu18	Cu	-0.329288	0.606030	0.411777
O19	O	-0.814584	-0.088892	-0.198710
O20	O	-0.314584	0.411108	0.301290
C21	C	-0.696831	0.000343	-0.098499
C22	C	-0.196831	0.500343	0.401501
C23	C	-0.619325	0.000308	-0.097361
C24	C	-0.119325	0.500308	0.402639
N25	N	-0.812985	-0.253830	-0.104526
N26	N	-0.312985	0.246170	0.395474
C27	C	-0.845918	-0.526260	-0.071581
C28	C	-0.345918	-0.026260	0.428419
C29	C	-0.803092	-0.472939	-0.114428
C30	C	-0.303092	0.027061	0.385572
C31	C	-0.808598	-0.351015	-0.108917
C32	C	-0.308598	0.148985	0.391083
C33	C	-0.840413	-0.648195	-0.077091
C34	C	-0.340413	-0.148195	0.422909
C35	C	-0.574401	0.000342	-0.160451
C36	C	-0.074401	0.500342	0.339549
C37	C	-0.501578	0.000348	-0.159379
C38	C	-0.001578	0.500348	0.340621
C39	C	-0.473682	0.000342	-0.095213
C40	C	0.026318	0.500342	0.404787
C41	C	-0.518616	0.000301	-0.032116
C42	C	-0.018616	0.500301	0.467884
C43	C	-0.591438	0.000285	-0.033189
C44	C	-0.091438	0.500285	0.466811
N45	N	-0.368460	0.061161	-0.043412
N46	N	0.131540	0.561161	0.456588
N47	N	-0.299282	0.061179	-0.042396
N48	N	0.200718	0.561179	0.457604
C49	C	-0.254276	0.000390	-0.091975
C50	C	0.245724	0.500390	0.408025
N51	N	-0.281060	-0.060405	-0.142618
N52	N	0.218940	0.439595	0.357382
N53	N	-0.350244	-0.060418	-0.143636
N54	N	0.149756	0.439582	0.356364
C55	C	-0.394721	0.000359	-0.094042
C56	C	0.105279	0.500359	0.405958
C57	C	-0.130387	0.000429	-0.153908
C58	C	0.369613	0.500429	0.346092
C59	C	-0.057562	0.000428	-0.152834
C60	C	0.442438	0.500428	0.347166
C61	C	-0.074603	0.000392	-0.025568
C62	C	0.425397	0.500392	0.474432
C63	C	-0.147426	0.000382	-0.026644
C64	C	0.352574	0.500382	0.473356
C65	C	-0.175314	0.000405	-0.090816
C66	C	0.324686	0.500405	0.409184
C67	C	0.047831	0.000435	-0.087521
C68	C	0.547831	0.500435	0.412479
C69	C	-0.029672	0.000419	-0.088668
C70	C	0.470328	0.500419	0.411332
C71	C	-0.829990	0.000357	0.034657
C72	C	-0.329990	0.500357	0.534657
C73	C	-0.828850	0.000336	0.112161
C74	C	-0.328850	0.500336	0.612161
N75	N	-0.836023	0.254624	-0.081485
N76	N	-0.336023	0.754624	0.418515
C77	C	-0.884314	0.000225	0.673927
C78	C	-0.384314	0.500225	1.173927
C79	C	-0.885391	0.000237	0.601104
C80	C	-0.385391	0.500237	1.101104
C81	C	-0.822297	0.000222	0.556169
C82	C	-0.322297	0.500222	1.056169
C83	C	-0.758122	0.000169	0.584060
C84	C	-0.258122	0.500169	1.084060
C85	C	-0.757047	0.000146	0.656881
C86	C	-0.257047	0.500146	1.156881
N87	N	-0.779376	0.061043	0.438243
N88	N	-0.279376	0.561043	0.938243
N89	N	-0.780402	0.061067	0.369067
N90	N	-0.280402	0.561067	0.869067
C91	C	-0.825532	0.000288	0.336762
C92	C	-0.325532	0.500288	0.836762
N93	N	-0.869610	-0.060502	0.376249
N94	N	-0.369610	0.439498	0.876249
N95	N	-0.868586	-0.060520	0.445432
N96	N	-0.368586	0.439480	0.945432
C97	C	-0.823456	0.000246	0.477206
C98	C	-0.323456	0.500246	0.977206
C99	C	-0.890871	0.000347	0.229916
C100	C	-0.390871	0.500347	0.729916
C101	C	-0.891944	0.000352	0.157092
C102	C	-0.391944	0.500352	0.657092
C103	C	-0.764674	0.000295	0.140049
C104	C	-0.264674	0.500295	0.640049
C105	C	-0.763602	0.000279	0.212872
C106	C	-0.263602	0.500279	0.712872
C107	C	-0.826703	0.000310	0.257802
C108	C	-0.326703	0.500310	0.757802
C109	C	-0.819011	0.000366	0.779323
C110	C	-0.319011	0.500366	1.279323
C111	C	-0.820147	0.000177	0.701811
C112	C	-0.320147	0.500177	1.201811
H113	H	-0.886715	-0.480346	-0.030762
H114	H	-0.386715	0.019654	0.469238
H115	H	-0.762293	-0.518859	-0.155251
H116	H	-0.262293	-0.018859	0.344749
C117	C	-1.011086	0.000336	0.625260
C118	C	-0.511086	0.500336	1.125260
C119	C	-0.955929	0.000308	0.570445
C120	C	-0.455929	0.500308	1.070445
H121	H	-1.054632	0.000391	0.606332
H122	H	-0.554632	0.500391	1.106332
H123	H	-1.005210	-0.061973	0.650483
H124	H	-0.505210	0.438027	1.150483
H125	H	-1.010828	0.062621	0.656133
H126	H	-0.510828	0.562621	1.156133
H127	H	-0.956184	-0.061981	0.539574
H128	H	-0.456184	0.438019	1.039574
H129	H	-0.961806	0.062624	0.545211
H130	H	-0.461806	0.562624	1.045211
C131	C	-0.382378	0.000400	-0.214235
C132	C	0.117622	0.500400	0.285765
C133	C	-0.452184	0.000390	-0.228732
C134	C	0.047816	0.500390	0.271268
H135	H	-0.351887	0.000419	-0.257052
H136	H	0.148113	0.500419	0.242948
H137	H	-0.376791	0.062684	-0.185093
H138	H	0.123209	0.562684	0.314907
H139	H	-0.371110	-0.061910	-0.190740
H140	H	0.128890	0.438090	0.309260
H141	H	-0.463454	0.062704	-0.252222
H142	H	0.036546	0.562704	0.247778
H143	H	-0.457773	-0.061901	-0.257886
H144	H	0.042227	0.438099	0.242114
C145	C	-0.550237	0.000376	-0.286139
C146	C	-0.050237	0.500376	0.213861
C147	C	-0.605053	0.000351	-0.230988
C148	C	-0.105053	0.500351	0.269012
H149	H	-0.569163	0.000372	-0.329685
H150	H	-0.069163	0.500372	0.170315
H151	H	-0.525033	0.062677	-0.280251
H152	H	-0.025033	0.562677	0.219749
H153	H	-0.519344	-0.061917	-0.285888
H154	H	-0.019344	0.438083	0.214112
H155	H	-0.635943	0.062648	-0.231236
H156	H	-0.135943	0.562648	0.268764
H157	H	-0.630269	-0.061957	-0.236877
H158	H	-0.130269	0.438043	0.263123
C159	C	-0.414552	0.000330	0.026038
C160	C	0.085448	0.500330	0.526038
C161	C	-0.487957	0.000300	0.038417
C162	C	0.012043	0.500300	0.538417
H163	H	-0.395627	0.000333	0.069584
H164	H	0.104373	0.500333	0.569584
H165	H	-0.396279	-0.061952	-0.002748
H166	H	0.103721	0.438048	0.497252
H167	H	-0.401968	0.062642	0.002890
H168	H	0.098032	0.562642	0.502890
H169	H	-0.500541	-0.062016	0.061560
H170	H	-0.000541	0.437984	0.561560
H171	H	-0.506236	0.062589	0.067214
H172	H	-0.006236	0.562589	0.567214
C173	C	-0.645820	-0.091705	0.542947
C174	C	-0.145820	0.408295	1.042947
C175	C	-0.688768	0.000155	0.534669
C176	C	-0.188768	0.500155	1.034669
H177	H	-0.603005	-0.091717	0.512451
H178	H	-0.103005	0.408283	1.012451
H179	H	-0.635998	-0.091719	0.590302
H180	H	-0.135998	0.408281	1.090302
H181	H	-0.669328	-0.153977	0.531689
H182	H	-0.169328	0.346023	1.031689
H183	H	-0.665262	0.062428	0.545932
H184	H	-0.165262	0.562428	1.045932
H185	H	-0.698589	0.000180	0.487303
H186	H	-0.198589	0.500180	0.987303
H187	H	-0.051895	0.000453	0.026680
H188	H	0.448105	0.500453	0.526680
H189	H	-0.628016	0.000257	0.018188
H190	H	-0.128016	0.500257	0.518188
H191	H	-0.153094	0.000432	-0.206161
H192	H	0.346906	0.500432	0.293839
H193	H	-0.020985	0.000450	-0.204212
H194	H	0.479015	0.500450	0.295788
H195	H	-0.184005	0.000360	0.024731
H196	H	0.315995	0.500360	0.524731
H197	H	-0.935695	0.000244	0.710505
H198	H	-0.435695	0.500244	1.210505
C199	C	-0.652401	0.091928	0.668932
C200	C	-0.152401	0.591928	1.168932
C201	C	-0.686510	0.000106	0.687536
C202	C	-0.186510	0.500106	1.187536
H203	H	-0.608857	0.091906	0.687863
H204	H	-0.108857	0.591906	1.187863
H205	H	-0.644010	0.091925	0.619138
H206	H	-0.144010	0.591925	1.119138
H207	H	-0.681200	0.154226	0.687190
H208	H	-0.181200	0.654226	1.187190
H209	H	-0.657713	-0.062193	0.669274
H210	H	-0.157713	0.437807	1.169274
H211	H	-0.694898	0.000099	0.737341
H212	H	-0.194898	0.500099	1.237341
C213	C	-1.016778	0.000397	0.239450
C214	C	-0.516778	0.500397	0.739450
C215	C	-0.960228	0.000367	0.279308
C216	C	-0.460228	0.500367	0.779308
H217	H	-1.059595	0.000403	0.269943
H218	H	-0.559595	0.500403	0.769943
H219	H	-1.017373	0.062695	0.213513
H220	H	-0.517373	0.562695	0.713513
H221	H	-1.011723	-0.061899	0.207872
H222	H	-0.511723	0.438101	0.707872
H223	H	-0.965281	0.062668	0.310883
H224	H	-0.465281	0.562668	0.810883
H225	H	-0.959634	-0.061937	0.305257
H226	H	-0.459634	0.438063	0.805257
H227	H	-0.944198	0.000384	0.134391
H228	H	-0.444198	0.500384	0.634391
C229	C	-0.696207	0.092128	0.052435
C230	C	-0.196207	0.592128	0.552435
C231	C	-0.695318	0.000282	0.090666
C232	C	-0.195318	0.500282	0.590666
H233	H	-0.653386	0.092118	0.021949
H234	H	-0.153386	0.592118	0.521949
H235	H	-0.734571	0.092145	0.025403
H236	H	-0.234571	0.592145	0.525403
H237	H	-0.701257	0.154410	0.084025
H238	H	-0.201257	0.654410	0.584025
H239	H	-0.690273	-0.062000	0.059076
H240	H	-0.190273	0.438000	0.559076
H241	H	-0.656943	0.000255	0.117699
H242	H	-0.156943	0.500255	0.617699
H243	H	-0.711351	0.000248	0.235575
H244	H	-0.211351	0.500248	0.735575
