data_functionalizedCrystal
_audit_creation_method	'MofGen! by Chris Wilmer'
_symmetry_space_group_name_H-M	'P1'
_symmetry_Int_Tables_number	1
_symmetry_cell_setting	triclinic
loop_
_symmetry_equiv_pos_as_xyz
  x,y,z
_cell_length_a	12.594517
_cell_length_b	18.215405
_cell_length_c	18.215399
_cell_angle_alpha	89.969449
_cell_angle_beta	89.979999
_cell_angle_gamma	90.024685
loop_
_atom_site_label
_atom_site_type_symbol
_atom_site_fract_x
_atom_site_fract_y
_atom_site_fract_z
Zn1	Zn	1.627188	-0.292996	-0.416106
Zn2	Zn	1.960521	0.040338	-0.082773
Zn3	Zn	2.293854	0.373671	0.250561
Zn4	Zn	1.627055	-0.416067	-0.293034
Zn5	Zn	1.960389	-0.082734	0.040299
Zn6	Zn	2.293722	0.250600	0.373633
Zn7	Zn	1.449196	-0.293018	-0.293053
Zn8	Zn	1.782529	0.040315	0.040280
Zn9	Zn	2.115862	0.373648	0.373614
Zn10	Zn	1.449146	-0.416025	-0.416059
Zn11	Zn	1.782480	-0.082691	-0.082725
Zn12	Zn	2.115813	0.250642	0.250608
O13	O	1.538146	-0.354526	-0.354563
O14	O	1.871480	-0.021193	-0.021229
O15	O	2.204813	0.312140	0.312104
O16	O	1.776116	-0.309330	-0.399792
O17	O	2.109449	0.024004	-0.066459
O18	O	2.442783	0.357337	0.266875
O19	O	1.603427	-0.399772	-0.190052
O20	O	1.936760	-0.066438	0.143281
O21	O	2.270094	0.266895	0.476614
O22	O	1.472883	-0.190031	-0.309404
O23	O	1.806216	0.143302	0.023930
O24	O	2.139549	0.476636	0.357263
O25	O	1.776019	-0.399750	-0.309372
O26	O	2.109352	-0.066416	0.023962
O27	O	2.442685	0.266917	0.357295
O28	O	1.603653	-0.190014	-0.399810
O29	O	1.936986	0.143319	-0.066477
O30	O	2.270319	0.476652	0.266856
O31	O	1.472754	-0.309368	-0.190066
O32	O	1.806088	0.023965	0.143267
O33	O	2.139421	0.357298	0.476601
O34	O	1.300243	-0.309327	-0.309358
O35	O	1.633577	0.024006	0.023975
O36	O	1.966910	0.357339	0.357309
O37	O	1.472799	-0.399677	-0.519049
O38	O	1.806132	-0.066344	-0.185716
O39	O	2.139465	0.266989	0.147618
O40	O	1.300207	-0.399699	-0.399730
O41	O	1.633540	-0.066366	-0.066396
O42	O	1.966874	0.266967	0.266937
O43	O	1.603605	-0.309289	-0.519084
O44	O	1.936938	0.024045	-0.185751
O45	O	2.270272	0.357378	0.147583
O46	O	1.603379	-0.519046	-0.309326
O47	O	1.936712	-0.185712	0.024008
O48	O	2.270046	0.147621	0.357341
O49	O	1.472670	-0.519015	-0.399711
O50	O	1.806004	-0.185681	-0.066378
O51	O	2.139337	0.147652	0.266955
C52	C	1.538034	-0.545733	-0.354527
C53	C	1.871367	-0.212399	-0.021194
C54	C	2.204700	0.120934	0.312139
C55	C	1.538083	-0.627532	-0.354537
C56	C	1.871416	-0.294198	-0.021204
C57	C	2.204750	0.039135	0.312130
C58	C	1.261605	-0.354512	-0.354541
C59	C	1.594939	-0.021178	-0.021208
C60	C	1.928272	0.312155	0.312126
C61	C	1.143300	-0.354523	-0.354549
C62	C	1.476633	-0.021190	-0.021216
C63	C	1.809966	0.312144	0.312117
C64	C	1.606303	-0.815717	-0.307560
C65	C	1.939636	-0.482384	0.025774
C66	C	2.272970	-0.149051	0.359107
C67	C	1.606351	-0.892576	-0.307578
C68	C	1.939684	-0.559243	0.025756
C69	C	2.273017	-0.225909	0.359089
C70	C	1.470126	-0.892584	-0.401619
C71	C	1.803459	-0.559250	-0.068285
C72	C	2.136792	-0.225917	0.265048
C73	C	1.470084	-0.815726	-0.401604
C74	C	1.803417	-0.482393	-0.068271
C75	C	2.136751	-0.149060	0.265063
C76	C	1.538171	-0.777295	-0.354570
C77	C	1.871505	-0.443962	-0.021237
C78	C	2.204838	-0.110628	0.312096
C79	C	1.538260	-0.931011	-0.354603
C80	C	1.871594	-0.597678	-0.021270
C81	C	2.204927	-0.264344	0.312064
C82	C	1.538311	-1.014345	-0.354623
C83	C	1.871645	-0.681011	-0.021289
C84	C	2.204978	-0.347678	0.312044
C85	C	1.538122	-0.693956	-0.354552
C86	C	1.871455	-0.360623	-0.021218
C87	C	2.204789	-0.027290	0.312115
C88	C	1.074036	-0.305303	-0.305490
C89	C	1.407369	0.028031	0.027843
C90	C	1.740702	0.361364	0.361177
C91	C	1.003210	-0.372431	-0.287381
C92	C	1.336544	-0.039097	0.045952
C93	C	1.669877	0.294236	0.379286
C94	C	1.003326	-0.287428	-0.372671
C95	C	1.336659	0.045905	-0.039337
C96	C	1.669993	0.379239	0.293996
C97	C	1.074033	-0.421686	-0.336405
C98	C	1.407366	-0.088353	-0.003072
C99	C	1.740699	0.244980	0.330261
C100	C	1.074155	-0.336639	-0.421726
C101	C	1.407488	-0.003305	-0.088393
C102	C	1.740822	0.330028	0.244940
C103	C	1.003362	-0.403813	-0.403643
C104	C	1.336695	-0.070480	-0.070310
C105	C	1.670028	0.262854	0.263024
C106	C	1.815767	-0.354542	-0.354585
C107	C	2.149100	-0.021208	-0.021252
C108	C	2.482434	0.312125	0.312082
C109	C	1.934072	-0.354548	-0.354594
C110	C	2.267406	-0.021215	-0.021261
C111	C	2.600739	0.312118	0.312072
C112	C	1.538211	-0.354476	-0.546516
C113	C	1.871544	-0.021142	-0.213182
C114	C	2.204878	0.312191	0.120151
C115	C	1.538239	-0.354454	-0.628315
C116	C	1.871572	-0.021121	-0.294981
C117	C	2.204905	0.312213	0.038352
C118	C	1.538288	-0.162574	-0.354614
C119	C	1.871621	0.170760	-0.021281
C120	C	2.204955	0.504093	0.312052
C121	C	1.538348	-0.080775	-0.354636
C122	C	1.871682	0.252559	-0.021303
C123	C	2.205015	0.585892	0.312030
C124	C	1.606374	-0.307345	-0.816528
C125	C	1.939707	0.025989	-0.483195
C126	C	2.273041	0.359322	-0.149861
C127	C	1.606387	-0.307323	-0.893387
C128	C	1.939720	0.026010	-0.560054
C129	C	2.273053	0.359343	-0.226720
C130	C	1.470179	-0.401450	-0.893339
C131	C	1.803512	-0.068116	-0.560006
C132	C	2.136845	0.265217	-0.226673
C133	C	1.470161	-0.401467	-0.816482
C134	C	1.803495	-0.068134	-0.483149
C135	C	2.136828	0.265200	-0.149815
C136	C	1.538265	-0.354415	-0.778078
C137	C	1.871598	-0.021082	-0.444745
C138	C	2.204932	0.312251	-0.111412
C139	C	1.538295	-0.354377	-0.931795
C140	C	1.871628	-0.021044	-0.598461
C141	C	2.204962	0.312290	-0.265128
C142	C	1.538308	-0.354354	-1.015128
C143	C	1.871642	-0.021021	-0.681795
C144	C	2.204975	0.312313	-0.348462
C145	C	1.538251	-0.354437	-0.694739
C146	C	1.871584	-0.021104	-0.361406
C147	C	2.204917	0.312229	-0.028073
C148	C	1.538143	-0.354524	-0.163357
C149	C	1.871476	-0.021191	0.169977
C150	C	2.204810	0.312143	0.503310
C151	C	1.538321	-0.354338	-0.081558
C152	C	1.871655	-0.021005	0.251775
C153	C	2.204988	0.312328	0.585109
H154	H	1.661832	-0.923856	-0.269298
H155	H	1.995165	-0.590523	0.064036
H156	H	2.328499	-0.257189	0.397369
H157	H	1.414690	-0.923884	-0.439911
H158	H	1.748023	-0.590550	-0.106578
H159	H	2.081357	-0.257217	0.226756
N160	N	1.675840	-0.776461	-0.259511
N161	N	2.009174	-0.443128	0.073822
N162	N	2.342507	-0.109794	0.407155
N163	N	1.668844	-0.785100	-0.191601
N164	N	2.002177	-0.451767	0.141732
N165	N	2.335511	-0.118434	0.475066
H166	H	1.717957	-0.757377	-0.157665
H167	H	2.051291	-0.424044	0.175668
H168	H	2.384624	-0.090711	0.509002
N169	N	1.675960	-0.259233	-0.932651
N170	N	2.009293	0.074101	-0.599317
N171	N	2.342626	0.407434	-0.265984
N172	N	1.736752	-0.217226	-0.898350
N173	N	2.070086	0.116107	-0.565016
N174	N	2.403419	0.449441	-0.231683
H175	H	1.785890	-0.183258	-0.926079
H176	H	2.119224	0.150075	-0.592745
H177	H	2.452557	0.483409	-0.259412
H178	H	1.661825	-0.269030	-0.785262
H179	H	1.995159	0.064303	-0.451929
H180	H	2.328492	0.397636	-0.118595
N181	N	1.112958	-0.253128	-0.253387
N182	N	1.446291	0.080205	0.079946
N183	N	1.779625	0.413538	0.413280
N184	N	1.049231	-0.216293	-0.215851
N185	N	1.382564	0.117040	0.117482
N186	N	1.715898	0.450374	0.450816
H187	H	1.076719	-0.179447	-0.179052
H188	H	1.410053	0.153887	0.154281
H189	H	1.743386	0.487220	0.487614
N190	N	0.964132	-0.391425	-0.216134
N191	N	1.297465	-0.058091	0.117199
N192	N	1.630799	0.275242	0.450532
N193	N	0.986764	-0.352311	-0.161987
N194	N	1.320097	-0.018978	0.171346
N195	N	1.653431	0.314355	0.504680
H196	H	0.959171	-0.365722	-0.111667
H197	H	1.292504	-0.032389	0.221667
H198	H	1.625838	0.300944	0.555000
H199	H	1.414603	-0.784441	-0.439889
H200	H	1.747936	-0.451107	-0.106556
H201	H	2.081270	-0.117774	0.226777
H202	H	1.104962	-0.478455	-0.321034
H203	H	1.438295	-0.145122	0.012299
H204	H	1.771629	0.188212	0.345633
H205	H	0.972525	-0.445496	-0.445150
H206	H	1.305858	-0.112163	-0.111817
H207	H	1.639192	0.221171	0.221517
H208	H	1.105341	-0.321475	-0.478500
H209	H	1.438674	0.011858	-0.145167
H210	H	1.772007	0.345191	0.188166
N211	N	0.964362	-0.216232	-0.391867
N212	N	1.297695	0.117101	-0.058534
N213	N	1.631028	0.450435	0.274800
N214	N	0.987017	-0.161977	-0.352905
N215	N	1.320350	0.171356	-0.019572
N216	N	1.653684	0.504690	0.313761
H217	H	0.959501	-0.111693	-0.366456
H218	H	1.292834	0.221641	-0.033123
H219	H	1.626168	0.554974	0.300210
N220	N	1.400622	-0.449504	-0.932581
N221	N	1.733955	-0.116171	-0.599247
N222	N	2.067289	0.217163	-0.265914
N223	N	1.400646	-0.449483	-1.001203
N224	N	1.733979	-0.116150	-0.667869
N225	N	2.067312	0.217183	-0.334536
H226	H	1.351521	-0.483423	-1.028917
H227	H	1.684854	-0.150090	-0.695584
H228	H	2.018187	0.183243	-0.362250
H229	H	1.414691	-0.439797	-0.785175
H230	H	1.748025	-0.106464	-0.451842
H231	H	2.081358	0.226870	-0.118509
