data_functionalizedCrystal
_audit_creation_method	'MofGen! by Chris Wilmer'
_symmetry_space_group_name_H-M	'P1'
_symmetry_Int_Tables_number	1
_symmetry_cell_setting	triclinic
loop_
_symmetry_equiv_pos_as_xyz
  x,y,z
_cell_length_a	16.974800
_cell_length_b	10.967829
_cell_length_c	16.053802
_cell_angle_alpha	80.477515
_cell_angle_beta	91.074188
_cell_angle_gamma	84.835183
loop_
_atom_site_label
_atom_site_type_symbol
_atom_site_fract_x
_atom_site_fract_y
_atom_site_fract_z
O1	O	1.051014	0.157359	-0.021026
O2	O	1.551014	0.657359	0.478974
O3	O	0.821785	0.176256	-0.039240
O4	O	1.321785	0.676256	0.460760
O5	O	0.940460	-0.012873	-0.004004
O6	O	1.440460	0.487127	0.495996
O7	O	0.932338	0.346488	-0.056263
O8	O	1.432338	0.846488	0.443737
O9	O	0.933928	-0.002506	0.132922
O10	O	1.433928	0.497494	0.632922
O11	O	0.815252	0.186623	0.097685
O12	O	1.315252	0.686623	0.597685
O13	O	1.044481	0.167726	0.115900
O14	O	1.544481	0.667726	0.615900
Zn15	Zn	0.928829	0.178820	0.128532
Zn16	Zn	1.428829	0.678820	0.628532
Zn17	Zn	0.937436	0.165161	-0.051873
Zn18	Zn	1.437436	0.665161	0.448127
O19	O	0.925805	0.356855	0.080663
O20	O	1.425805	0.856855	0.580663
C21	C	0.789144	0.180531	0.027367
C22	C	1.289144	0.680531	0.527367
C23	C	0.701618	0.177809	0.021842
C24	C	1.201618	0.677809	0.521842
C25	C	0.656942	0.182178	0.093887
C26	C	1.156942	0.682178	0.593887
C27	C	0.574703	0.179601	0.088701
C28	C	1.074703	0.679601	0.588701
C29	C	0.537141	0.172663	0.011468
C30	C	1.037141	0.672663	0.511468
C31	C	0.581824	0.168290	-0.060582
C32	C	1.081824	0.668290	0.439418
C33	C	0.664062	0.170858	-0.055394
C34	C	1.164062	0.670858	0.444606
C35	C	0.291568	0.164367	-0.012052
C36	C	0.791568	0.664367	0.487948
C37	C	0.209324	0.161803	-0.017235
C38	C	0.709324	0.661803	0.482765
C39	C	0.202209	0.173112	0.132049
C40	C	0.702209	0.673112	0.632049
C41	C	0.284448	0.175687	0.137229
C42	C	0.784448	0.675687	0.637229
C43	C	0.329124	0.171307	0.065180
C44	C	0.829124	0.671307	0.565180
N45	N	0.453080	0.170033	0.006164
N46	N	0.953080	0.670033	0.506164
N47	N	0.413185	0.173929	0.070486
N48	N	0.913185	0.673929	0.570486
C49	C	0.936109	-0.053683	0.071002
C50	C	1.436109	0.446317	0.571002
C51	C	0.932868	-0.190727	0.090497
C52	C	1.432868	0.309273	0.590497
C53	C	0.934808	-0.257190	0.028257
C54	C	1.434808	0.242810	0.528257
C55	C	0.931458	-0.398832	0.048404
C56	C	1.431458	0.101168	0.548404
C57	C	1.077122	0.163451	0.049290
C58	C	1.577122	0.663451	0.549290
C59	C	1.164648	0.166172	0.054810
C60	C	1.664648	0.666172	0.554810
C61	C	0.930156	0.397664	0.005655
C62	C	1.430156	0.897664	0.505655
C63	C	0.933398	0.534708	-0.013845
C64	C	1.433398	1.034708	0.486155
N65	N	0.922961	0.188142	0.251655
N66	N	1.422961	0.688142	0.751655
N67	N	0.943311	0.155830	-0.174994
N68	N	1.443311	0.655830	0.325006
C69	C	0.973477	0.107696	0.310339
C70	C	1.473477	0.607696	0.810339
C71	C	0.969379	0.114228	0.396529
C72	C	1.469379	0.614228	0.896529
C73	C	0.914769	0.201213	0.424032
C74	C	1.414769	0.701213	0.924032
C75	C	0.864248	0.281662	0.365341
C76	C	1.364248	0.781662	0.865341
C77	C	0.868342	0.275123	0.279153
C78	C	1.368342	0.775123	0.779153
C79	C	0.896884	0.229741	0.680128
C80	C	1.396884	0.729741	1.180128
C81	C	0.892795	0.236276	0.766322
C82	C	1.392795	0.736276	1.266322
C83	C	0.997926	0.068839	0.797505
C84	C	1.497926	0.568839	1.297505
C85	C	1.002019	0.062313	0.711313
C86	C	1.502019	0.562313	1.211313
C87	C	0.951495	0.142758	0.652630
C88	C	1.451495	0.642758	1.152630
N89	N	0.910581	0.207894	0.512131
N90	N	1.410581	0.707894	1.012131
N91	N	0.955679	0.136070	0.564533
N92	N	1.455679	0.636070	1.064533
H93	H	0.700436	0.167302	-0.114061
H94	H	1.200436	0.667302	0.385939
H95	H	0.848323	0.307115	0.788708
H96	H	1.348323	0.807115	1.288708
H97	H	0.937529	-0.417337	-0.082054
H98	H	1.437529	0.082663	0.417946
C99	C	0.927273	-0.255512	0.182638
C100	C	1.427273	0.244488	0.682638
N101	N	0.923059	-0.304307	0.252041
N102	N	1.423059	0.195693	0.752041
H103	H	1.010512	0.048722	0.444310
H104	H	1.510512	0.548722	0.944310
C105	C	0.940406	-0.192404	-0.063884
C106	C	1.440406	0.307596	0.436116
N107	N	0.944625	-0.143610	-0.133286
N108	N	1.444625	0.356390	0.366714
H109	H	0.927312	-0.446786	0.116611
H110	H	1.427312	0.053214	0.616611
H111	H	1.017949	0.036869	0.287953
H112	H	1.517949	0.536869	0.787953
H113	H	1.046486	-0.008517	0.688923
H114	H	1.546486	0.491483	1.188923
C115	C	1.053492	-0.019654	0.862063
C116	C	1.553492	0.480346	1.362063
N117	N	1.095344	-0.086316	0.910690
N118	N	1.595344	0.413684	1.410690
C119	C	0.841410	0.318394	0.615571
C120	C	1.341410	0.818394	1.115571
N121	N	0.799661	0.385230	0.566937
N122	N	1.299661	0.885230	1.066937
H123	H	0.827206	0.340630	0.231372
H124	H	1.327206	0.840630	0.731372
C125	C	0.698251	0.189809	0.178850
C126	C	1.198251	0.689809	0.678850
N127	N	0.729364	0.195552	0.242848
N128	N	1.229364	0.695552	0.742848
C129	C	0.525560	0.184437	0.167952
C130	C	1.025560	0.684437	0.667952
N131	N	0.488546	0.188088	0.227647
N132	N	0.988546	0.688088	0.727647
C133	C	0.804168	0.377336	0.395598
C134	C	1.304168	0.877336	0.895598
N135	N	0.758915	0.449398	0.418387
N136	N	1.258915	0.949398	0.918387
H137	H	0.315026	0.181331	0.200121
H138	H	0.815026	0.681331	0.700121
H139	H	0.178744	0.156157	-0.080131
H140	H	0.678744	0.656157	0.419869
C141	C	0.153060	0.177917	0.211299
C142	C	0.653060	0.677917	0.711299
N143	N	0.116041	0.181530	0.270994
N144	N	0.616041	0.681530	0.770994
H145	H	0.551235	0.162632	-0.123465
H146	H	1.051235	0.662632	0.376535
C147	C	0.340702	0.159538	-0.091306
C148	C	0.840702	0.659538	0.408694
N149	N	0.377713	0.155896	-0.151004
N150	N	0.877713	0.655896	0.348996
