data_functionalizedCrystal
_audit_creation_method	'MofGen! by Chris Wilmer'
_symmetry_space_group_name_H-M	'P1'
_symmetry_Int_Tables_number	1
_symmetry_cell_setting	triclinic
loop_
_symmetry_equiv_pos_as_xyz
  x,y,z
_cell_length_a	14.908571
_cell_length_b	17.640280
_cell_length_c	17.640968
_cell_angle_alpha	65.682561
_cell_angle_beta	74.904415
_cell_angle_gamma	74.921313
loop_
_atom_site_label
_atom_site_type_symbol
_atom_site_fract_x
_atom_site_fract_y
_atom_site_fract_z
Zn1	Zn	1.555676	-0.299421	-0.465002
Zn2	Zn	2.055676	0.200579	0.034998
Zn3	Zn	1.555601	-0.465086	-0.299360
Zn4	Zn	2.055601	0.034914	0.200640
Zn5	Zn	1.375958	-0.319733	-0.319659
Zn6	Zn	1.875958	0.180267	0.180341
Zn7	Zn	1.427677	-0.431792	-0.431770
Zn8	Zn	1.927677	0.068208	0.068230
O9	O	1.478728	-0.379008	-0.378948
O10	O	1.978728	0.120992	0.121052
O11	O	1.684415	-0.326830	-0.448442
O12	O	2.184415	0.173170	0.051558
O13	O	1.510095	-0.468240	-0.185812
O14	O	2.010095	0.031760	0.314188
O15	O	1.378185	-0.200810	-0.361342
O16	O	1.878185	0.299190	0.138658
O17	O	1.684360	-0.448544	-0.326746
O18	O	2.184360	0.051456	0.173254
O19	O	1.510223	-0.185887	-0.468125
O20	O	2.010223	0.314113	0.031875
O21	O	1.378112	-0.361450	-0.200726
O22	O	1.878112	0.138550	0.299274
O23	O	1.254070	-0.329165	-0.329118
O24	O	1.754070	0.170835	0.170882
O25	O	1.466333	-0.391798	-0.552418
O26	O	1.966333	0.108202	-0.052418
O27	O	1.292068	-0.411494	-0.411485
O28	O	1.792068	0.088506	0.088515
O29	O	1.560373	-0.294545	-0.576834
O30	O	2.060373	0.205455	-0.076834
O31	O	1.560245	-0.576898	-0.294521
O32	O	2.060245	-0.076898	0.205479
O33	O	1.466260	-0.552437	-0.391802
O34	O	1.966260	-0.052437	0.108198
C35	C	1.239686	-0.368921	-0.368898
C36	C	1.739686	0.131079	0.131102
C37	C	1.137430	-0.364622	-0.364615
C38	C	1.637430	0.135378	0.135385
C39	C	0.984900	-0.442465	-0.442161
C40	C	1.484900	0.057535	0.057839
C41	C	0.888822	-0.438428	-0.438139
C42	C	1.388822	0.061572	0.061861
C43	C	0.849196	-0.352506	-0.352554
C44	C	1.349196	0.147494	0.147446
C45	C	0.945273	-0.356543	-0.356576
C46	C	1.445273	0.143457	0.143424
C47	C	1.013123	-0.401525	-0.401380
C48	C	1.513123	0.098475	0.098620
C49	C	1.109202	-0.405567	-0.405397
C50	C	1.609202	0.094433	0.094603
C51	C	1.069574	-0.319640	-0.319818
C52	C	1.569574	0.180360	0.180182
C53	C	0.973496	-0.315603	-0.315796
C54	C	1.473496	0.184397	0.184204
C55	C	1.518885	-0.594802	-0.337372
C56	C	2.018885	-0.094802	0.162628
C57	C	1.536153	-0.687117	-0.319617
C58	C	2.036153	-0.187117	0.180383
C59	C	1.347975	-0.927239	-0.514148
C60	C	1.847975	-0.427239	-0.014148
C61	C	1.364198	-1.013989	-0.497438
C62	C	1.864198	-0.513989	0.002562
C63	C	1.462158	-1.039378	-0.396250
C64	C	1.962158	-0.539378	0.103750
C65	C	1.445946	-0.952628	-0.412955
C66	C	1.945946	-0.452628	0.087045
C67	C	1.388853	-0.896565	-0.471904
C68	C	1.888853	-0.396565	0.028096
C69	C	1.486825	-0.921954	-0.370710
C70	C	1.986825	-0.421954	0.129290
C71	C	1.470610	-0.835212	-0.387410
C72	C	1.970610	-0.335212	0.112590
C73	C	1.413518	-0.779145	-0.446355
C74	C	1.913518	-0.279145	0.053645
C75	C	1.372639	-0.809823	-0.488604
C76	C	1.872639	-0.309823	0.011396
C77	C	1.543912	-0.978019	-0.311757
C78	C	2.043912	-0.478019	0.188243
C79	C	1.584790	-0.947345	-0.269513
C80	C	2.084790	-0.447345	0.230487
C81	C	1.568582	-0.860601	-0.286217
C82	C	2.068582	-0.360601	0.213783
C83	C	1.511489	-0.804533	-0.345161
C84	C	2.011489	-0.304533	0.154839
C85	C	1.609460	-0.829922	-0.243968
C86	C	2.109460	-0.329922	0.256032
C87	C	1.593246	-0.743180	-0.260668
C88	C	2.093246	-0.243180	0.239332
C89	C	1.495275	-0.717791	-0.361861
C90	C	1.995275	-0.217791	0.138139
C91	C	1.718704	-0.389135	-0.389037
C92	C	2.218704	0.110865	0.110963
C93	C	1.820968	-0.393451	-0.393336
C94	C	2.320968	0.106549	0.106664
C95	C	1.519131	-0.337192	-0.595609
C96	C	2.019131	0.162808	-0.095609
C97	C	1.536348	-0.319372	-0.687937
C98	C	2.036348	0.180628	-0.187937
C99	C	1.438443	-0.162369	-0.420705
C100	C	1.938443	0.337631	0.079295
C101	C	1.421276	-0.070051	-0.438499
C102	C	1.921276	0.429949	0.061501
C103	C	1.348201	-0.513945	-0.928032
C104	C	1.848201	-0.013945	-0.428032
C105	C	1.364396	-0.497191	-1.014791
C106	C	1.864396	0.002809	-0.514791
C107	C	1.462312	-0.395931	-1.040203
C108	C	1.962312	0.104069	-0.540203
C109	C	1.446121	-0.412673	-0.953444
C110	C	1.946121	0.087327	-0.453444
C111	C	1.389065	-0.471682	-0.897365
C112	C	1.889065	0.028318	-0.397365
C113	C	1.486985	-0.370410	-0.922778
C114	C	1.986985	0.129590	-0.422778
C115	C	1.470799	-0.387155	-0.836027
C116	C	1.970799	0.112845	-0.336027
C117	C	1.413749	-0.446162	-0.779942
C118	C	1.913749	0.053838	-0.279942
C119	C	1.372879	-0.488426	-0.810614
C120	C	1.872879	0.011574	-0.310614
C121	C	1.544046	-0.311406	-0.978858
C122	C	2.044046	0.188594	-0.478858
C123	C	1.584911	-0.269143	-0.948191
C124	C	2.084911	0.230857	-0.448191
C125	C	1.568720	-0.285883	-0.861439
C126	C	2.068720	0.214117	-0.361439
C127	C	1.511669	-0.344891	-0.805355
C128	C	2.011669	0.155109	-0.305355
C129	C	1.609589	-0.243619	-0.830767
C130	C	2.109589	0.256381	-0.330767
C131	C	1.593403	-0.260364	-0.744016
C132	C	2.093403	0.239636	-0.244016
C133	C	1.495483	-0.361635	-0.718603
C134	C	1.995483	0.138365	-0.218603
C135	C	1.438525	-0.420604	-0.163143
C136	C	1.938525	0.079396	0.336857
C137	C	1.421442	-0.438197	-0.070868
C138	C	1.921442	0.061803	0.429132
H139	H	1.164444	-0.442196	-0.441877
H140	H	1.664444	0.057804	0.058123
Br141	Br	0.881408	-0.254552	-0.255000
Br142	Br	1.381408	0.245448	0.245000
Br143	Br	1.107879	-0.264088	-0.264457
Br144	Br	1.607879	0.235912	0.235543
Br145	Br	1.539639	-1.115469	-0.316252
Br146	Br	2.039639	-0.615469	0.183748
H147	H	1.301715	-0.561974	-0.882371
H148	H	1.801715	-0.061974	-0.382371
H149	H	1.508769	-0.347888	-1.085873
H150	H	2.008769	0.152112	-0.585873
H151	H	1.326393	-0.536456	-0.764953
H152	H	1.826393	-0.036456	-0.264953
Br153	Br	1.662346	-0.189067	-1.024304
Br154	Br	2.162346	0.310933	-0.524304
Br155	Br	1.308697	-1.055617	-0.554763
Br156	Br	1.808697	-0.555617	-0.054763
H157	H	1.557225	-0.297777	-1.049495
H158	H	2.057225	0.202223	-0.549495
Br159	Br	1.687034	-0.163552	-0.906881
Br160	Br	2.187034	0.336448	-0.406881
Br161	Br	1.648710	-0.701547	-0.203325
Br162	Br	2.148710	-0.201547	0.296675
H163	H	1.631272	-0.993003	-0.221514
H164	H	2.131272	-0.493003	0.278486
Br165	Br	1.417804	-0.641696	-0.441876
Br166	Br	1.917804	-0.141696	0.058124
Br167	Br	1.391788	-0.468897	-0.662205
Br168	Br	1.891788	0.031103	-0.162205
Br169	Br	1.308929	-0.554554	-1.056407
Br170	Br	1.808929	-0.054554	-0.556407
H171	H	1.448997	-0.409665	-0.672943
H172	H	1.948997	0.090335	-0.172943
H173	H	1.400310	-0.708515	-0.459945
H174	H	1.900310	-0.208515	0.040055
H175	H	1.040144	-0.479097	-0.478636
H176	H	1.540144	0.020903	0.021364
H177	H	1.626678	-0.225948	-0.719047
H178	H	2.126678	0.274052	-0.219047
Br179	Br	0.850522	-0.493986	-0.493491
Br180	Br	1.350522	0.006014	0.006509
H181	H	0.793937	-0.315877	-0.316084
H182	H	1.293937	0.184123	0.183916
H183	H	1.326156	-0.764173	-0.536612
H184	H	1.826156	-0.264173	-0.036612
H185	H	1.557114	-1.048649	-0.298164
H186	H	2.057114	-0.548649	0.201836
Br187	Br	1.270504	-0.851144	-0.594162
Br188	Br	1.770504	-0.351144	-0.094162
H189	H	1.655938	-0.875582	-0.195966
H190	H	2.155938	-0.375582	0.304034
