data_functionalizedCrystal
_audit_creation_method	'MofGen! by Chris Wilmer'
_symmetry_space_group_name_H-M	'P1'
_symmetry_Int_Tables_number	1
_symmetry_cell_setting	triclinic
loop_
_symmetry_equiv_pos_as_xyz
  x,y,z
_cell_length_a	15.995350
_cell_length_b	11.026607
_cell_length_c	9.482944
_cell_angle_alpha	81.873049
_cell_angle_beta	79.530296
_cell_angle_gamma	96.039196
loop_
_atom_site_label
_atom_site_type_symbol
_atom_site_fract_x
_atom_site_fract_y
_atom_site_fract_z
O1	O	-1.148793	-0.173269	0.120765
O2	O	-0.907933	-0.192589	0.120794
O3	O	-1.008400	-0.006275	0.120777
O4	O	-1.048326	-0.359582	0.120782
O5	O	-0.979895	0.027466	-0.121013
O6	O	-0.879428	-0.158847	-0.120996
O7	O	-1.120288	-0.139528	-0.121025
Cu8	Cu	-0.997255	-0.146107	-0.143087
Cu9	Cu	-1.030966	-0.186010	0.142857
O10	O	-1.019821	-0.325841	-0.121007
C11	C	-0.862366	-0.174920	-0.000097
C12	C	-0.769056	-0.172528	-0.000086
C13	C	-0.986783	0.055806	-0.000116
C14	C	-0.964827	0.190519	-0.000108
C15	C	-1.165856	-0.157197	-0.000130
C16	C	-1.259167	-0.159590	-0.000132
C17	C	-0.430009	-0.163926	-0.000116
C18	C	-0.457380	-0.031163	-0.000658
C19	C	-0.554496	-0.033635	-0.000103
C20	C	-0.598214	-0.168192	-0.000102
C21	C	-0.583268	-0.252905	0.137967
C22	C	-0.486143	-0.249587	0.138073
C23	C	-0.453801	-0.213958	-0.136887
C24	C	-0.550528	-0.213673	-0.138702
C25	C	-0.693277	-0.170611	-0.000089
C26	C	-0.334947	-0.161512	-0.000119
C27	C	-1.041439	-0.387922	-0.000112
C28	C	-1.063396	-0.522637	-0.000110
N29	N	-0.973551	-0.118040	-0.344205
C30	C	-1.025452	0.264325	-0.000113
C31	C	-1.002761	0.403558	-0.000105
C32	C	-1.023968	-0.177730	-0.416409
C33	C	-1.004251	-0.154367	-0.583825
N34	N	-1.054675	-0.214066	0.343975
H35	H	-0.563503	0.031621	-0.099077
H36	H	-0.896125	0.230408	-0.000090
H37	H	-1.112441	-0.282468	-0.593907
H38	H	-0.934055	0.443442	-0.000087
H39	H	-1.132117	0.437465	-0.000009
H40	H	-1.081731	-0.246125	-0.354284
Br41	Br	-0.907978	-0.040344	-0.687351
H42	H	-0.915792	-0.049638	-0.406331
Br43	Br	-0.425261	-0.376796	-0.138444
Br44	Br	-0.599143	-0.375286	-0.152603
H45	H	-0.441437	0.007890	0.097810
Br46	Br	-0.393724	0.080271	-0.165692
Br47	Br	-0.632681	-0.418860	0.146566
H48	H	-0.586236	0.004321	0.099042
H49	H	-0.469316	-0.347878	0.144339
Br50	Br	-0.463913	-0.194047	0.310095
H51	H	-0.616905	-0.221789	0.240720
H52	H	-0.414390	-0.155975	-0.241541
Br53	Br	-0.563847	-0.110151	-0.308949
H54	H	-1.094154	0.224436	-0.000130
