data_functionalizedCrystal
_audit_creation_method	'MofGen! by Chris Wilmer'
_symmetry_space_group_name_H-M	'P1'
_symmetry_Int_Tables_number	1
_symmetry_cell_setting	triclinic
loop_
_symmetry_equiv_pos_as_xyz
  x,y,z
_cell_length_a	19.188930
_cell_length_b	19.188930
_cell_length_c	18.266242
_cell_angle_alpha	89.988525
_cell_angle_beta	89.977082
_cell_angle_gamma	83.144779
loop_
_atom_site_label
_atom_site_type_symbol
_atom_site_fract_x
_atom_site_fract_y
_atom_site_fract_z
O1	O	0.926149	0.087169	-0.061124
O2	O	0.722838	0.098903	-0.061075
O3	O	0.830361	-0.008620	-0.061087
O4	O	0.818627	0.194691	-0.061113
O5	O	0.830343	-0.008625	0.060675
O6	O	0.722820	0.098897	0.060687
O7	O	0.926131	0.087163	0.060638
Zn8	Zn	0.824473	0.093029	0.079994
Zn9	Zn	0.824497	0.093037	-0.080432
O10	O	0.818608	0.194686	0.060649
C11	C	0.696818	0.098520	-0.000188
C12	C	0.619313	0.097380	-0.000169
C13	C	0.829972	-0.034634	-0.000204
C14	C	0.828831	-0.112138	-0.000197
C15	C	0.574389	0.160470	-0.000188
C16	C	0.501566	0.159399	-0.000196
C17	C	0.473669	0.095233	-0.000199
C18	C	0.518603	0.032133	-0.000175
C19	C	0.591425	0.033207	-0.000160
N20	N	0.365695	0.046188	-0.041663
N21	N	0.296516	0.045172	-0.041679
C22	C	0.254260	0.091994	-0.000243
N23	N	0.283795	0.139881	0.041200
N24	N	0.352980	0.140899	0.041213
C25	C	0.394707	0.094062	-0.000215
C26	C	0.130372	0.153928	-0.000270
C27	C	0.057547	0.152853	-0.000274
C28	C	0.074586	0.025586	-0.000261
C29	C	0.147409	0.026662	-0.000250
C30	C	0.175298	0.090835	-0.000258
C31	C	0.891922	-0.157062	-0.000209
C32	C	0.890850	-0.229886	-0.000220
C33	C	0.826684	-0.257782	-0.000206
C34	C	0.763585	-0.212849	-0.000198
C35	C	0.764658	-0.140026	-0.000194
N36	N	0.777631	-0.365789	0.041244
N37	N	0.776615	-0.434968	0.041242
C38	C	0.823446	-0.477191	-0.000220
N39	N	0.871341	-0.447624	-0.041669
N40	N	0.872359	-0.378439	-0.041664
C41	C	0.825513	-0.336745	-0.000210
C42	C	0.885379	-0.601079	-0.000245
C43	C	0.884305	-0.673904	-0.000261
C44	C	0.757038	-0.656865	-0.000231
C45	C	0.758114	-0.584042	-0.000222
C46	C	0.822287	-0.556154	-0.000226
C47	C	0.952151	0.087546	-0.000252
C48	C	1.029656	0.088687	-0.000276
C49	C	0.818997	0.220700	-0.000236
C50	C	0.820138	0.298204	-0.000247
N51	N	0.824461	0.093024	0.189481
N52	N	0.824513	0.093037	-0.189919
C53	C	0.872088	0.045436	0.227785
C54	C	0.872092	0.045433	0.304430
C55	C	0.824477	0.093030	0.342768
C56	C	0.776841	0.140621	0.304455
C57	C	0.776834	0.140618	0.227812
N58	N	0.815401	0.154837	0.463094
N59	N	0.815413	0.154838	0.535902
C60	C	0.824496	0.093040	0.573691
N61	N	0.833582	0.031239	0.535920
N62	N	0.833574	0.031240	0.463106
C63	C	0.824480	0.093038	0.425875
C64	C	0.872131	0.045444	0.695101
C65	C	0.872130	0.045440	0.771748
C66	C	0.776882	0.140634	0.771772
C67	C	0.776879	0.140632	0.695127
C68	C	0.824507	0.093038	0.656796
H69	H	0.597091	0.212725	-0.000196
N70	N	0.728247	0.189252	0.655985
N71	N	0.728250	0.189246	0.587554
H72	H	0.693901	0.223585	0.559908
H73	H	0.935683	-0.710481	-0.000274
H74	H	0.713281	-0.103448	-0.000184
H75	H	0.628003	-0.018171	-0.000145
N76	N	0.455664	0.223846	-0.000206
N77	N	0.458056	0.266575	0.051114
H78	H	0.425639	0.312090	0.051107
H79	H	0.944176	-0.134360	-0.000214
H80	H	0.495885	-0.020111	-0.000188
N81	N	0.920773	-0.003173	0.810888
N82	N	0.964038	0.018863	0.853642
H83	H	0.998387	-0.015474	0.881291
N84	N	0.193312	-0.037778	-0.000231
N85	N	0.235819	-0.051378	0.051105
H86	H	0.268239	-0.096891	0.051121
N87	N	0.728195	0.189245	0.188683
N88	N	0.750213	0.232531	0.145898
H89	H	0.715863	0.266877	0.118262
N90	N	0.158853	0.219481	-0.000274
N91	N	0.118730	0.275810	-0.000283
H92	H	0.138843	0.322108	-0.000285
N93	N	0.011665	0.217309	-0.000285
N94	N	0.036579	0.274597	-0.000290
H95	H	0.004175	0.320121	-0.000297
H96	H	0.910868	0.006681	0.196579
N97	N	0.691499	-0.685363	-0.000209
N98	N	0.676695	-0.724112	0.051117
H99	H	0.630406	-0.744242	0.051130
H100	H	0.706738	-0.547464	-0.000208
H101	H	0.937632	-0.578372	-0.000251
N102	N	0.046102	-0.039960	-0.000244
N103	N	0.007344	-0.054758	0.051081
H104	H	-0.012775	-0.101052	0.051097
H105	H	0.942228	-0.266470	-0.000233
N106	N	0.920746	-0.003186	0.343556
N107	N	0.963263	-0.045678	0.309323
H108	H	0.997626	-0.080015	0.336953
H109	H	0.910910	0.006688	0.663892
N110	N	0.698047	-0.241352	-0.000189
N111	N	0.697096	-0.306372	-0.000192
H112	H	0.650808	-0.326504	-0.000190
N113	N	0.728241	0.189243	0.810935
N114	N	0.728250	0.189236	0.879366
H115	H	0.693894	0.223564	0.907029
N116	N	0.728203	0.189231	0.343624
N117	N	0.728217	0.189228	0.412055
H118	H	0.693862	0.223557	0.439719
