data_functionalizedCrystal
_audit_creation_method	'MofGen! by Chris Wilmer'
_symmetry_space_group_name_H-M	'P1'
_symmetry_Int_Tables_number	1
_symmetry_cell_setting	triclinic
loop_
_symmetry_equiv_pos_as_xyz
  x,y,z
_cell_length_a	9.065218
_cell_length_b	15.995350
_cell_length_c	7.540329
_cell_angle_alpha	89.998640
_cell_angle_beta	90.005135
_cell_angle_gamma	95.745837
loop_
_atom_site_label
_atom_site_type_symbol
_atom_site_fract_x
_atom_site_fract_y
_atom_site_fract_z
O1	O	-1.957507	0.122771	-0.147563
O2	O	-1.527985	0.132841	-0.147546
O3	O	-1.754488	0.006007	-0.147553
O4	O	-1.731005	0.249604	-0.147556
O5	O	-1.754474	0.006006	0.147412
O6	O	-1.527972	0.132839	0.147419
O7	O	-1.957494	0.122769	0.147402
Cu8	Cu	-1.742732	0.127804	0.174343
Cu9	Cu	-1.742748	0.127806	-0.174487
O10	O	-1.730992	0.249603	0.147409
C11	C	-1.473015	0.131872	-0.000061
C12	C	-1.309240	0.128978	-0.000055
C13	C	-1.753510	-0.025196	-0.000074
C14	C	-1.750600	-0.118168	-0.000084
C15	C	-1.012465	0.123738	-0.000076
C16	C	-1.176239	0.126631	-0.000061
C17	C	-1.740147	-0.455995	-0.000078
C18	C	-1.578837	-0.409784	-0.000733
C19	C	-1.581748	-0.313072	-0.000068
C20	C	-1.745332	-0.288395	-0.000082
C21	C	-1.824888	-0.328870	0.168351
C22	C	-1.820836	-0.425537	0.168492
C23	C	-1.824184	-0.425867	-0.166938
C24	C	-1.824146	-0.328922	-0.169164
C25	C	-1.748271	-0.193675	-0.000078
C26	C	-1.737214	-0.550715	-0.000069
C27	C	-1.731969	0.280806	-0.000074
C28	C	-1.734880	0.373778	-0.000076
N29	N	-1.742731	0.127802	0.419692
N30	N	-1.742760	0.127801	-0.419836
H31	H	-1.519211	-0.285123	-0.120807
H32	H	-1.769621	-0.300908	0.293703
Cl33	Cl	-2.008326	-0.303805	-0.184895
H34	H	-1.945069	-0.313833	0.174605
Cl35	Cl	-2.003679	-0.473942	0.180302
Cl36	Cl	-1.484524	-0.270783	0.186667
Cl37	Cl	-1.742751	-0.458182	-0.364042
Cl38	Cl	-1.735079	-0.287038	-0.361573
H39	H	-1.514368	-0.428804	-0.121519
Cl40	Cl	-2.007805	-0.473512	-0.168708
Cl41	Cl	-1.731243	-0.454476	0.362890
H42	H	-1.514643	-0.429866	0.119386
