data_functionalizedCrystal
_audit_creation_method	'MofGen! by Chris Wilmer'
_symmetry_space_group_name_H-M	'P1'
_symmetry_Int_Tables_number	1
_symmetry_cell_setting	triclinic
loop_
_symmetry_equiv_pos_as_xyz
  x,y,z
_cell_length_a	10.654550
_cell_length_b	15.944551
_cell_length_c	9.130313
_cell_angle_alpha	89.997799
_cell_angle_beta	89.996220
_cell_angle_gamma	83.991820
loop_
_atom_site_label
_atom_site_type_symbol
_atom_site_fract_x
_atom_site_fract_y
_atom_site_fract_z
O1	O	1.666308	0.117973	-0.121923
O2	O	1.300684	0.129213	-0.121900
O3	O	1.493480	0.001376	-0.121899
O4	O	1.473511	0.245810	-0.121924
O5	O	1.493478	0.001379	0.121700
O6	O	1.300681	0.129216	0.121699
O7	O	1.666305	0.117976	0.121676
Cu8	Cu	1.483493	0.123596	0.143930
Cu9	Cu	1.483496	0.123592	-0.144154
O10	O	1.473509	0.245813	0.121675
C11	C	1.253895	0.128389	-0.000098
C12	C	1.114484	0.125920	-0.000088
C13	C	1.034024	0.201188	-0.000117
C14	C	0.903034	0.198863	-0.000142
C15	C	0.932975	0.045995	-0.000116
C16	C	1.063963	0.048321	-0.000080
C17	C	1.016737	0.289446	-0.000139
C18	C	0.885746	0.287121	-0.000164
C19	C	1.492650	-0.029921	-0.000099
C20	C	1.490165	-0.123182	-0.000098
C21	C	1.364720	-0.338765	-0.000111
C22	C	1.422971	-0.399443	0.119995
C23	C	1.485668	-0.293934	-0.000109
C24	C	1.423002	-0.399430	-0.120175
C25	C	1.481317	-0.458872	-0.000126
C26	C	1.543953	-0.353384	0.120095
C27	C	1.543967	-0.353364	-0.120182
C28	C	1.602306	-0.414024	-0.000048
C29	C	1.488172	-0.198917	-0.000098
C30	C	1.478822	-0.553887	-0.000127
C31	C	1.713094	0.118800	-0.000130
C32	C	1.852505	0.121269	-0.000149
C33	C	1.474339	0.277110	-0.000128
C34	C	1.476824	0.370371	-0.000139
N35	N	1.483500	0.123599	0.346552
N36	N	1.483499	0.123583	-0.346777
C37	C	1.568892	0.067012	0.423205
C38	C	1.568889	0.067002	0.576542
C39	C	1.398098	0.180173	0.576560
C40	C	1.398096	0.180178	0.423226
C41	C	1.667501	0.001676	0.423195
C42	C	1.667498	0.001666	0.576532
H43	H	1.052030	0.317547	-0.105314
H44	H	1.328553	0.226248	0.360817
C45	C	1.436414	-0.481997	-0.340619
C46	C	1.353925	-0.426952	-0.257247
H47	H	1.393758	-0.498988	-0.425231
H48	H	1.506980	-0.454126	-0.369494
H49	H	1.464430	-0.530214	-0.283678
H50	H	1.325917	-0.378731	-0.314185
H51	H	1.283336	-0.454822	-0.228374
H52	H	1.637774	-0.059344	0.624087
H53	H	0.891824	-0.017184	-0.000131
C54	C	0.916403	0.349152	0.235057
C55	C	0.823611	0.323131	0.141796
H56	H	0.878038	0.371385	0.322690
H57	H	0.975758	0.302320	0.257898
H58	H	0.958330	0.391411	0.187835
H59	H	0.781690	0.280867	0.189013
H60	H	0.764234	0.369969	0.118957
C61	C	1.876394	0.032887	0.513427
C62	C	1.797528	0.021090	0.632717
H63	H	1.956663	0.044882	0.548117
H64	H	1.885953	-0.016901	0.455628
H65	H	1.840058	0.078693	0.455648
H66	H	1.833861	-0.024720	0.690490
H67	H	1.787973	0.070883	0.690541
H68	H	1.646893	-0.062886	0.381583
H69	H	1.702787	-0.446602	0.000014
H70	H	1.045620	0.323965	0.101809
C71	C	1.210054	-0.244687	-0.125799
C72	C	1.229195	-0.294584	0.000042
H73	H	1.126385	-0.217418	-0.125703
H74	H	1.268323	-0.203499	-0.126727
H75	H	1.222451	-0.279311	-0.210313
H76	H	1.216807	-0.259959	0.084556
H77	H	1.170908	-0.335777	0.000984
C78	C	0.925306	0.361552	-0.221253
C79	C	0.828817	0.332008	-0.137796
H80	H	0.890159	0.389258	-0.306218
H81	H	0.967296	0.400059	-0.164609
H82	H	0.983893	0.315369	-0.249550
H83	H	0.770235	0.378192	-0.109489
H84	H	0.786807	0.293497	-0.194451
H85	H	1.758420	0.022134	0.375629
C86	C	1.080395	-0.103015	-0.000038
C87	C	1.152406	-0.034416	-0.000032
H88	H	1.135000	-0.154094	-0.000015
H89	H	1.028661	-0.100734	0.084889
H90	H	1.028704	-0.100744	-0.085008
H91	H	1.204091	-0.036683	0.084944
H92	H	1.204162	-0.036698	-0.084968
H93	H	1.371814	-0.419846	0.221540
C94	C	1.531098	-0.269521	-0.339147
C95	C	1.612968	-0.325779	-0.257266
H96	H	1.573694	-0.252486	-0.423780
H97	H	1.459638	-0.296473	-0.367971
H98	H	1.504455	-0.221442	-0.281224
H99	H	1.639604	-0.373861	-0.315186
H100	H	1.684451	-0.298827	-0.228444
C101	C	1.614592	-0.238309	0.256125
C102	C	1.612947	-0.326003	0.257328
H103	H	1.657176	-0.221406	0.340853
H104	H	1.657269	-0.222174	0.170949
H105	H	1.530443	-0.211874	0.255783
H106	H	1.697097	-0.352438	0.257660
H107	H	1.570272	-0.342146	0.342527
H108	H	1.328563	0.226238	0.639004
