data_functionalizedCrystal
_audit_creation_method	'MofGen! by Chris Wilmer'
_symmetry_space_group_name_H-M	'P1'
_symmetry_Int_Tables_number	1
_symmetry_cell_setting	triclinic
loop_
_symmetry_equiv_pos_as_xyz
  x,y,z
_cell_length_a	29.839131
_cell_length_b	25.639242
_cell_length_c	25.639233
_cell_angle_alpha	90.023283
_cell_angle_beta	89.980415
_cell_angle_gamma	89.963922
loop_
_atom_site_label
_atom_site_type_symbol
_atom_site_fract_x
_atom_site_fract_y
_atom_site_fract_z
Zn1	Zn	-0.178972	-0.799215	-0.295755
Zn2	Zn	0.321028	-0.299215	0.204245
Zn3	Zn	-0.254086	-0.799134	-0.208318
Zn4	Zn	0.245914	-0.299134	0.291682
Zn5	Zn	-0.178964	-0.711791	-0.208317
Zn6	Zn	0.321036	-0.211791	0.291683
Zn7	Zn	-0.254069	-0.711732	-0.295706
Zn8	Zn	0.245931	-0.211732	0.204294
O9	O	-0.216523	-0.755468	-0.252024
O10	O	0.283477	-0.255468	0.247976
O11	O	-0.188947	-0.872370	-0.284177
O12	O	0.311053	-0.372370	0.215823
O13	O	-0.244126	-0.787539	-0.135153
O14	O	0.255874	-0.287539	0.364847
O15	O	-0.116098	-0.723447	-0.219936
O16	O	0.383902	-0.223447	0.280064
O17	O	-0.244133	-0.872310	-0.219937
O18	O	0.255867	-0.372310	0.280063
O19	O	-0.116104	-0.787677	-0.284176
O20	O	0.383896	-0.287677	0.215824
O21	O	-0.188934	-0.723369	-0.135152
O22	O	0.311066	-0.223369	0.364848
O23	O	-0.188916	-0.638618	-0.219889
O24	O	0.311084	-0.138618	0.280111
O25	O	-0.244103	-0.723346	-0.368878
O26	O	0.255897	-0.223346	0.131122
O27	O	-0.244095	-0.638575	-0.284093
O28	O	0.255905	-0.138575	0.215907
O29	O	-0.188930	-0.787619	-0.368914
O30	O	0.311070	-0.287619	0.131086
O31	O	-0.316951	-0.787482	-0.219890
O32	O	0.183049	-0.287482	0.280110
O33	O	-0.316938	-0.723268	-0.284094
O34	O	0.183062	-0.223268	0.215906
C35	C	-0.216503	-0.619626	-0.251986
C36	C	0.283497	-0.119626	0.248014
C37	C	-0.216506	-0.561512	-0.251982
C38	C	0.283494	-0.061512	0.248018
C39	C	-0.187742	-0.310332	-0.218637
C40	C	0.312258	0.189668	0.281363
C41	C	-0.187738	-0.364936	-0.218632
C42	C	0.312262	0.135064	0.281368
O43	O	-0.163256	-0.393185	-0.190259
O44	O	0.336744	0.106815	0.309741
N45	N	-0.216511	-0.392238	-0.252003
N46	N	0.283489	0.107762	0.247997
C47	C	-0.245287	-0.364932	-0.285385
C48	C	0.254713	0.135068	0.214615
O49	O	-0.269760	-0.393168	-0.313770
O50	O	0.230240	0.106832	0.186230
C51	C	-0.245288	-0.310329	-0.285392
C52	C	0.254712	0.189671	0.214608
C53	C	-0.216516	-0.283030	-0.252016
C54	C	0.283484	0.216970	0.247984
C55	C	-0.158972	-0.283033	-0.185264
C56	C	0.341028	0.216967	0.314736
C57	C	-0.158977	-0.228433	-0.185268
C58	C	0.341023	0.271567	0.314732
C59	C	-0.187751	-0.201131	-0.218646
C60	C	0.312249	0.298869	0.281354
C61	C	-0.216521	-0.228430	-0.252020
C62	C	0.283479	0.271570	0.247980
C63	C	-0.274061	-0.283024	-0.318776
C64	C	0.225939	0.216976	0.181224
C65	C	-0.274060	-0.228417	-0.318781
C66	C	0.225940	0.271583	0.181219
C67	C	-0.245288	-0.201118	-0.285404
C68	C	0.254712	0.298882	0.214596
C69	C	-0.245300	-0.146527	-0.285403
C70	C	0.254700	0.353473	0.214597
N71	N	-0.216527	-0.119226	-0.252032
N72	N	0.283473	0.380774	0.247968
C73	C	-0.187752	-0.146528	-0.218654
C74	C	0.312248	0.353472	0.281346
C75	C	-0.245281	-0.479603	-0.285368
C76	C	0.254719	0.020397	0.214632
C77	C	-0.245282	-0.534205	-0.285358
C78	C	0.254718	-0.034205	0.214642
C79	C	-0.187733	-0.534206	-0.218606
C80	C	0.312267	-0.034206	0.281394
C81	C	-0.187734	-0.479602	-0.218613
C82	C	0.312266	0.020398	0.281387
C83	C	-0.216508	-0.452301	-0.251997
C84	C	0.283492	0.047699	0.248003
C85	C	-0.187765	-0.031863	-0.218665
C86	C	0.312235	0.468137	0.281335
C87	C	-0.187773	0.022743	-0.218671
C88	C	0.312227	0.522743	0.281329
C89	C	-0.245321	0.022739	-0.285425
C90	C	0.254679	0.522739	0.214575
C91	C	-0.245314	-0.031862	-0.285417
C92	C	0.254686	0.468138	0.214583
C93	C	-0.216532	-0.059161	-0.252036
C94	C	0.283468	0.440839	0.247964
O95	O	-0.269768	-0.118244	-0.313763
O96	O	0.230232	0.381756	0.186237
O97	O	-0.163279	-0.118285	-0.190279
O98	O	0.336721	0.381715	0.309721
C99	C	-0.333245	-0.755374	-0.251998
C100	C	0.166755	-0.255374	0.248002
C101	C	-0.383180	-0.755381	-0.252004
C102	C	0.116820	-0.255381	0.247996
C103	C	-0.692817	-0.788965	-0.218642
C104	C	-0.192817	-0.288965	0.281358
C105	C	-0.880490	-0.789030	-0.218662
C106	C	-0.380490	-0.289030	0.281338
O107	O	-0.904750	-0.817509	-0.190276
O108	O	-0.404750	-0.317509	0.309724
N109	N	-0.903965	-0.755577	-0.252063
N110	N	-0.403965	-0.255577	0.247937
C111	C	-0.880518	-0.722108	-0.285464
C112	C	-0.380518	-0.222108	0.214536
O113	O	-0.904791	-0.693659	-0.313878
O114	O	-0.404791	-0.193659	0.186122
C115	C	-0.692846	-0.722046	-0.285446
C116	C	-0.192846	-0.222046	0.214554
C117	C	-0.669374	-0.755498	-0.252039
C118	C	-0.169374	-0.255498	0.247961
C119	C	-0.669345	-0.822415	-0.185238
C120	C	-0.169345	-0.322415	0.314762
C121	C	-0.622430	-0.822396	-0.185231
C122	C	-0.122430	-0.322396	0.314769
C123	C	-0.598987	-0.788928	-0.218628
C124	C	-0.098987	-0.288928	0.281372
C125	C	-0.622459	-0.755479	-0.252032
C126	C	-0.122459	-0.255479	0.247968
C127	C	-0.669400	-0.688580	-0.318849
C128	C	-0.169400	-0.188580	0.181151
C129	C	-0.622479	-0.688568	-0.318843
C130	C	-0.122479	-0.188568	0.181157
C131	C	-0.599007	-0.722020	-0.285436
C132	C	-0.099007	-0.222020	0.214564
C133	C	-0.552100	-0.721993	-0.285423
C134	C	-0.052100	-0.221993	0.214577
N135	N	-0.528625	-0.755446	-0.252022
N136	N	-0.028625	-0.255446	0.247978
C137	C	-0.552069	-0.788914	-0.218624
C138	C	-0.052069	-0.288914	0.281376
C139	C	-0.979049	-0.722141	-0.285471
C140	C	-0.479049	-0.222141	0.214529
C141	C	-1.025967	-0.722156	-0.285475
C142	C	-0.525967	-0.222156	0.214525
C143	C	-1.025936	-0.789079	-0.218673
C144	C	-0.525936	-0.289079	0.281327
C145	C	-0.979017	-0.789062	-0.218667
C146	C	-0.479017	-0.289062	0.281333
C147	C	-0.955574	-0.755595	-0.252069
C148	C	-0.455574	-0.255595	0.247931
C149	C	-0.453543	-0.788872	-0.218612
C150	C	0.046457	-0.288872	0.281388
C151	C	-0.406623	-0.788849	-0.218607
C152	C	0.093377	-0.288849	0.281393
C153	C	-0.406658	-0.721928	-0.285410
C154	C	0.093342	-0.221928	0.214590
C155	C	-0.453574	-0.721949	-0.285414
C156	C	0.046426	-0.221949	0.214586
C157	C	-0.477015	-0.755425	-0.252013
C158	C	0.022985	-0.255425	0.247987
O159	O	-0.527811	-0.693533	-0.313798
O160	O	-0.027811	-0.193533	0.186202
O161	O	-0.527788	-0.817366	-0.190223
O162	O	-0.027788	-0.317366	0.309777
C163	C	-0.739733	-0.788984	-0.218649
C164	C	-0.239733	-0.288984	0.281351
C165	C	-0.763205	-0.755535	-0.252053
C166	C	-0.263205	-0.255535	0.247947
C167	C	-0.739762	-0.722067	-0.285450
C168	C	-0.239762	-0.222067	0.214550
C169	C	-0.810123	-0.755549	-0.252057
C170	C	-0.310123	-0.255549	0.247943
C171	C	-0.833566	-0.789017	-0.218659
C172	C	-0.333566	-0.289017	0.281341
C173	C	-0.810092	-0.822470	-0.185258
C174	C	-0.310092	-0.322470	0.314742
C175	C	-0.763176	-0.822451	-0.185251
C176	C	-0.263176	-0.322451	0.314749
C177	C	-0.763236	-0.688614	-0.318851
C178	C	-0.263236	-0.188614	0.181149
C179	C	-0.810151	-0.688635	-0.318855
C180	C	-0.310151	-0.188635	0.181145
C181	C	-0.833595	-0.722102	-0.285457
C182	C	-0.333595	-0.222102	0.214543
C183	C	-0.099344	-0.755577	-0.252061
C184	C	0.400656	-0.255577	0.247939
C185	C	-0.049410	-0.755624	-0.252077
C186	C	0.450590	-0.255624	0.247923
C187	C	-0.216515	-0.755485	-0.388397
C188	C	0.283485	-0.255485	0.111603
C189	C	-0.216512	-0.755492	-0.446511
C190	C	0.283488	-0.255492	0.053489
C191	C	-0.216542	0.108159	-0.252055
C192	C	0.283458	0.608159	0.247945
C193	C	-0.216548	0.050045	-0.252049
C194	C	0.283452	0.550045	0.247951
C195	C	-0.187698	-0.789002	-0.806899
C196	C	0.312302	-0.289002	-0.306899
C197	C	-0.187685	-0.789008	-0.861503
C198	C	0.312315	-0.289008	-0.361503
O199	O	-0.163239	-0.817457	-0.889760
O200	O	0.336761	-0.317457	-0.389760
N201	N	-0.216406	-0.755550	-0.888794
N202	N	0.283594	-0.255550	-0.388794
C203	C	-0.245139	-0.722079	-0.861477
C204	C	0.254861	-0.222079	-0.361477
O205	O	-0.269567	-0.693621	-0.889704
O206	O	0.230433	-0.193621	-0.389704
C207	C	-0.245148	-0.722071	-0.806874
C208	C	0.254852	-0.222071	-0.306874
C209	C	-0.216429	-0.755535	-0.779586
C210	C	0.283571	-0.255535	-0.279586
C211	C	-0.158980	-0.822463	-0.779610
C212	C	0.341020	-0.322463	-0.279610
C213	C	-0.158993	-0.822457	-0.725010
C214	C	0.341007	-0.322457	-0.225010
C215	C	-0.187724	-0.788990	-0.697697
C216	C	0.312276	-0.288990	-0.197697
C217	C	-0.216442	-0.755529	-0.724985
C218	C	0.283558	-0.255529	-0.224985
C219	C	-0.273878	-0.688598	-0.779559
C220	C	0.226122	-0.188598	-0.279559
C221	C	-0.273885	-0.688592	-0.724952
C222	C	0.226115	-0.188592	-0.224952
C223	C	-0.245165	-0.722056	-0.697664
C224	C	0.254835	-0.222056	-0.197664
C225	C	-0.245186	-0.722056	-0.643072
C226	C	0.254814	-0.222056	-0.143072
N227	N	-0.216465	-0.755514	-0.615782
N228	N	0.283535	-0.255514	-0.115782
C229	C	-0.187734	-0.788981	-0.643094
C230	C	0.312266	-0.288981	-0.143094
C231	C	-0.245115	-0.722100	-0.976148
C232	C	0.254885	-0.222100	-0.476148
C233	C	-0.245108	-0.722110	-1.030750
C234	C	0.254892	-0.222110	-0.530750
C235	C	-0.187654	-0.789039	-1.030772
C236	C	0.312346	-0.289039	-0.530772
C237	C	-0.187664	-0.789030	-0.976169
C238	C	0.312336	-0.289030	-0.476169
C239	C	-0.216394	-0.755558	-0.948857
C240	C	0.283606	-0.255558	-0.448857
C241	C	-0.187764	-0.788967	-0.528429
C242	C	0.312236	-0.288967	-0.028429
C243	C	-0.187781	-0.788959	-0.473824
C244	C	0.312219	-0.288959	0.026176
C245	C	-0.245233	-0.722029	-0.473807
C246	C	0.254767	-0.222029	0.026193
C247	C	-0.245218	-0.722038	-0.528407
C248	C	0.254782	-0.222038	-0.028407
C249	C	-0.216480	-0.755509	-0.555717
C250	C	0.283520	-0.255509	-0.055717
O251	O	-0.269618	-0.693620	-0.614780
O252	O	0.230382	-0.193620	-0.114780
O253	O	-0.163305	-0.817430	-0.614860
O254	O	0.336695	-0.317430	-0.114860
C255	C	-0.216498	-0.755482	-0.116181
C256	C	0.283502	-0.255482	0.383819
C257	C	-0.216375	-0.755576	-0.058068
C258	C	0.283625	-0.255576	0.441932
H259	H	-0.135547	-0.206211	-0.158089
H260	H	0.364453	0.293789	0.341911
C261	C	-0.276506	-0.563934	-0.321537
C262	C	0.223494	-0.063934	0.178463
C263	C	-0.270356	-0.617599	-0.314385
C264	C	0.229644	-0.117599	0.185615
C265	C	-0.299114	-0.644999	-0.347703
C266	C	0.200886	-0.144999	0.152297
H267	H	-0.270004	-0.555067	-0.356701
H268	H	0.229996	-0.055067	0.143299
H269	H	-0.306691	-0.554991	-0.313816
H270	H	0.193309	-0.054991	0.186184
H271	H	-0.240177	-0.626538	-0.322110
H272	H	0.259823	-0.126538	0.177890
H273	H	-0.276861	-0.626482	-0.279228
H274	H	0.223139	-0.126482	0.220772
H275	H	-0.329299	-0.636056	-0.339982
H276	H	0.170701	-0.136056	0.160018
H277	H	-0.292610	-0.636127	-0.382865
H278	H	0.207390	-0.136127	0.117135
H279	H	-0.294948	-0.681413	-0.342852
H280	H	0.205052	-0.181413	0.157148
H281	H	-0.268746	-0.054090	-0.312591
H282	H	0.231254	0.445910	0.187409
H283	H	-0.688428	-0.849671	-0.158042
H284	H	-0.188428	-0.349671	0.341958
H285	H	-0.297277	-0.661328	-0.702717
H286	H	0.202723	-0.161328	-0.202717
H287	H	-0.268513	-0.694842	-0.953914
H288	H	0.231487	-0.194842	-0.453914
H289	H	-0.297490	-0.305241	-0.345955
H290	H	0.202510	0.194759	0.154045
C291	C	-0.156483	0.052286	-0.182413
C292	C	0.343517	0.552286	0.317587
C293	C	-0.131274	0.016685	-0.153193
C294	C	0.368726	0.516685	0.346807
C295	C	-0.102442	0.043879	-0.119794
C296	C	0.397558	0.543879	0.380206
H297	H	-0.173589	0.073611	-0.159550
H298	H	0.326411	0.573611	0.340450
H299	H	-0.136911	0.073553	-0.202445
H300	H	0.363089	0.573553	0.297555
H301	H	-0.150844	-0.004573	-0.133163
H302	H	0.349156	0.495427	0.366837
H303	H	-0.114159	-0.004641	-0.176043
H304	H	0.385841	0.495359	0.323957
H305	H	-0.082870	0.065146	-0.139826
H306	H	0.417130	0.565146	0.360174
H307	H	-0.119551	0.065202	-0.096934
H308	H	0.380449	0.565202	0.403066
H309	H	-0.085331	0.019727	-0.099968
H310	H	0.414669	0.519727	0.400032
H311	H	-0.135581	-0.849716	-0.801843
H312	H	0.364419	-0.349716	-0.301843
H313	H	-0.959909	-0.816301	-0.191464
H314	H	-0.459909	-0.316301	0.308536
C315	C	-0.305349	-0.198871	-0.355049
C316	C	0.194651	0.301129	0.144951
C317	C	-0.330549	-0.234470	-0.384267
C318	C	0.169451	0.265530	0.115733
C319	C	-0.359380	-0.207273	-0.417677
C320	C	0.140620	0.292727	0.082323
H321	H	-0.288242	-0.177592	-0.377914
H322	H	0.211758	0.322408	0.122086
H323	H	-0.324926	-0.177558	-0.335026
H324	H	0.175074	0.322442	0.164974
H325	H	-0.310974	-0.255774	-0.404289
H326	H	0.189026	0.244226	0.095711
H327	H	-0.347665	-0.255750	-0.361416
H328	H	0.152335	0.244250	0.138584
H329	H	-0.378957	-0.185960	-0.397653
H330	H	0.121043	0.314040	0.102347
H331	H	-0.342270	-0.185995	-0.440538
H332	H	0.157730	0.314005	0.059462
H333	H	-0.376485	-0.231422	-0.437501
H334	H	0.123515	0.268578	0.062499
C335	C	-0.276454	-0.449936	-0.321675
C336	C	0.223546	0.050064	0.178325
C337	C	-0.251065	-0.418633	-0.355258
C338	C	0.248935	0.081367	0.144742
C339	C	-0.279765	-0.391306	-0.388715
C340	C	0.220235	0.108694	0.111285
H341	H	-0.296013	-0.428569	-0.301697
H342	H	0.203987	0.071431	0.198303
H343	H	-0.293581	-0.474003	-0.341576
H344	H	0.206419	0.025997	0.158424
H345	H	-0.233946	-0.394569	-0.335359
H346	H	0.266054	0.105431	0.164641
H347	H	-0.231507	-0.439987	-0.375247
H348	H	0.268493	0.060013	0.124753
H349	H	-0.296891	-0.415372	-0.408616
H350	H	0.203109	0.084628	0.091384
H351	H	-0.299323	-0.369942	-0.368733
H352	H	0.200677	0.130058	0.131267
H353	H	-0.262542	-0.370067	-0.411508
H354	H	0.237458	0.129933	0.088492
H355	H	-0.164258	-0.816288	-1.053020
H356	H	0.335742	-0.316288	-0.553020
C357	C	-0.276510	0.052481	-0.321645
C358	C	0.223490	0.552481	0.178355
C359	C	-0.270342	0.106142	-0.314512
C360	C	0.229658	0.606142	0.185488
C361	C	-0.299059	0.133559	-0.347877
C362	C	0.200941	0.633559	0.152123
H363	H	-0.306705	0.043623	-0.313966
H364	H	0.193295	0.543623	0.186034
H365	H	-0.269973	0.043542	-0.356798
H366	H	0.230027	0.543542	0.143202
H367	H	-0.276883	0.115078	-0.279367
H368	H	0.223117	0.615078	0.220633
H369	H	-0.240154	0.115016	-0.322195
H370	H	0.259846	0.615016	0.177805
H371	H	-0.292522	0.124620	-0.383030
H372	H	0.207478	0.624620	0.116970
H373	H	-0.329252	0.124697	-0.340195
H374	H	0.170748	0.624697	0.159805
H375	H	-0.294876	0.169970	-0.343046
H376	H	0.205124	0.669970	0.156954
H377	H	-0.387563	-0.694677	-0.312600
H378	H	0.112437	-0.194677	0.187400
C379	C	-0.381221	-0.825228	-0.182316
C380	C	0.118779	-0.325228	0.317684
C381	C	-0.411798	-0.854551	-0.153082
C382	C	0.088202	-0.354551	0.346918
C383	C	-0.388415	-0.888073	-0.119652
C384	C	0.111585	-0.388073	0.380348
H385	H	-0.362942	-0.805296	-0.159463
H386	H	0.137058	-0.305296	0.340537
H387	H	-0.362901	-0.848017	-0.202327
H388	H	0.137099	-0.348017	0.297673
H389	H	-0.430110	-0.831765	-0.133073
H390	H	0.069890	-0.331765	0.366927
H391	H	-0.430077	-0.874494	-0.175921
H392	H	0.069923	-0.374494	0.324079
H393	H	-0.370096	-0.910862	-0.139662
H394	H	0.129904	-0.410862	0.360338
H395	H	-0.370138	-0.868137	-0.096802
H396	H	0.129862	-0.368137	0.403198
H397	H	-0.409158	-0.907976	-0.099816
H398	H	0.090842	-0.407976	0.400184
C399	C	-0.156547	-0.825312	-0.444292
C400	C	0.343453	-0.325312	0.055708
C401	C	-0.131374	-0.854610	-0.479902
C402	C	0.368626	-0.354610	0.020098
C403	C	-0.102594	-0.888097	-0.452719
C404	C	0.397406	-0.388097	0.047281
H405	H	-0.173689	-0.848123	-0.422994
H406	H	0.326311	-0.348123	0.077006
H407	H	-0.136950	-0.805340	-0.422998
H408	H	0.363050	-0.305340	0.077002
H409	H	-0.150969	-0.874582	-0.501187
H410	H	0.349031	-0.374582	-0.001187
H411	H	-0.114223	-0.831814	-0.501201
H412	H	0.385777	-0.331814	-0.001201
H413	H	-0.082996	-0.868124	-0.431425
H414	H	0.417004	-0.368124	0.068575
H415	H	-0.119739	-0.910904	-0.431422
H416	H	0.380261	-0.410904	0.068578
H417	H	-0.085508	-0.907976	-0.476876
H418	H	0.414492	-0.407976	0.023124
C419	C	-1.051504	-0.685918	-0.321773
C420	C	-0.551504	-0.185918	0.178227
C421	C	-1.078412	-0.715506	-0.355312
C422	C	-0.578412	-0.215506	0.144688
C423	C	-1.101946	-0.682143	-0.388756
C424	C	-0.601946	-0.182143	0.111244
H425	H	-1.030870	-0.665975	-0.341711
H426	H	-0.530870	-0.165975	0.158289
H427	H	-1.069859	-0.663162	-0.301767
H428	H	-0.569859	-0.163162	0.198233
H429	H	-1.060060	-0.738253	-0.375316
H430	H	-0.560060	-0.238253	0.124684
H431	H	-1.099055	-0.735448	-0.335388
H432	H	-0.599055	-0.235448	0.164612
H433	H	-1.120300	-0.659387	-0.368750
H434	H	-0.620300	-0.159387	0.131250
H435	H	-1.081309	-0.662201	-0.408691
H436	H	-0.581309	-0.162201	0.091309
H437	H	-1.120209	-0.702213	-0.411514
H438	H	-0.620209	-0.202213	0.088486
H439	H	-0.297265	-0.661347	-0.801767
H440	H	0.202735	-0.161347	-0.301767
C441	C	-0.737777	-0.858831	-0.148963
C442	C	-0.237777	-0.358831	0.351037
C443	C	-0.768358	-0.888150	-0.119731
C444	C	-0.268358	-0.388150	0.380269
C445	C	-0.744980	-0.921676	-0.086300
C446	C	-0.244980	-0.421676	0.413700
H447	H	-0.719497	-0.838902	-0.126109
H448	H	-0.219497	-0.338902	0.373891
H449	H	-0.719459	-0.881623	-0.168973
H450	H	-0.219459	-0.381623	0.331027
H451	H	-0.786668	-0.865362	-0.099722
H452	H	-0.286668	-0.365362	0.400278
H453	H	-0.786639	-0.908090	-0.142571
H454	H	-0.286639	-0.408090	0.357429
H455	H	-0.726662	-0.944468	-0.106311
H456	H	-0.226662	-0.444468	0.393689
H457	H	-0.726701	-0.901743	-0.063450
H458	H	-0.226701	-0.401743	0.436550
H459	H	-0.765726	-0.941577	-0.066466
H460	H	-0.265726	-0.441577	0.433534
H461	H	-0.268608	-0.694794	-0.550626
H462	H	0.231392	-0.194794	-0.050626
H463	H	-0.135605	-0.849706	-0.702797
H464	H	0.364395	-0.349706	-0.202797
H465	H	-0.164304	-0.457379	-0.191437
H466	H	0.335696	0.042621	0.308563
C467	C	-0.479007	-0.825289	-0.182439
C468	C	0.020993	-0.325289	0.317561
C469	C	-0.505890	-0.858805	-0.212084
C470	C	-0.005890	-0.358805	0.287916
C471	C	-0.529348	-0.892364	-0.178779
C472	C	-0.029348	-0.392364	0.321221
H473	H	-0.497374	-0.805382	-0.159622
H474	H	0.002626	-0.305382	0.340378
H475	H	-0.458314	-0.845234	-0.162560
H476	H	0.041686	-0.345234	0.337440
H477	H	-0.526582	-0.838861	-0.231954
H478	H	-0.026582	-0.338861	0.268046
H479	H	-0.487535	-0.878723	-0.234900
H480	H	0.012465	-0.378723	0.265100
H481	H	-0.508654	-0.912310	-0.158900
H482	H	-0.008654	-0.412310	0.341100
H483	H	-0.547712	-0.872453	-0.155964
H484	H	-0.047712	-0.372453	0.344036
H485	H	-0.547587	-0.915112	-0.198889
H486	H	-0.047587	-0.415112	0.301111
H487	H	-0.959965	-0.694887	-0.312672
H488	H	-0.459965	-0.194887	0.187328
C489	C	-0.276504	-0.685769	-0.444168
C490	C	0.223496	-0.185769	0.055832
C491	C	-0.320953	-0.697126	-0.457434
C492	C	0.179047	-0.197126	0.042566
C493	C	-0.349772	-0.663739	-0.430132
C494	C	0.150228	-0.163739	0.069868
H495	H	-0.269987	-0.650624	-0.453076
H496	H	0.230013	-0.150624	0.046924
H497	H	-0.272423	-0.690570	-0.407737
H498	H	0.227577	-0.190570	0.092263
H499	H	-0.325032	-0.692319	-0.493857
H500	H	0.174968	-0.192319	0.006143
H501	H	-0.327484	-0.732264	-0.448525
H502	H	0.172516	-0.232264	0.051475
H503	H	-0.345692	-0.668541	-0.393701
H504	H	0.154308	-0.168541	0.106299
H505	H	-0.343251	-0.628597	-0.439042
H506	H	0.156749	-0.128597	0.060958
H507	H	-0.379935	-0.671444	-0.439126
H508	H	0.120065	-0.171444	0.060874
H509	H	-0.164326	-0.054083	-0.191485
H510	H	0.335674	0.445917	0.308515
H511	H	-0.164277	-0.816279	-0.953954
H512	H	0.335723	-0.316279	-0.453954
H513	H	-0.135538	-0.305257	-0.158083
H514	H	0.364462	0.194743	0.341917
C515	C	-0.156505	-0.563949	-0.182426
C516	C	0.343495	-0.063949	0.317574
C517	C	-0.162656	-0.617610	-0.189578
C518	C	0.337344	-0.117610	0.310422
C519	C	-0.133895	-0.645026	-0.156264
C520	C	0.366105	-0.145026	0.343736
H521	H	-0.163004	-0.555044	-0.147260
H522	H	0.336996	-0.055044	0.352740
H523	H	-0.126320	-0.555056	-0.190149
H524	H	0.373680	-0.055056	0.309851
H525	H	-0.192834	-0.626499	-0.181850
H526	H	0.307166	-0.126499	0.318150
H527	H	-0.156154	-0.626530	-0.224736
H528	H	0.343846	-0.126530	0.275264
H529	H	-0.103710	-0.636133	-0.163988
H530	H	0.396290	-0.136133	0.336012
H531	H	-0.140397	-0.636117	-0.121101
H532	H	0.359603	-0.136117	0.378899
H533	H	-0.138062	-0.681438	-0.161116
H534	H	0.361938	-0.181438	0.338884
H535	H	-0.829187	-0.849719	-0.158064
H536	H	-0.329187	-0.349719	0.341936
C537	C	-0.597031	-0.858780	-0.148947
C538	C	-0.097031	-0.358780	0.351053
C539	C	-0.627612	-0.888100	-0.119716
C540	C	-0.127612	-0.388100	0.380284
C541	C	-0.604234	-0.921631	-0.086291
C542	C	-0.104234	-0.421631	0.413709
H543	H	-0.578749	-0.838854	-0.126091
H544	H	-0.078749	-0.338854	0.373909
H545	H	-0.578715	-0.881570	-0.168960
H546	H	-0.078715	-0.381570	0.331040
H547	H	-0.645920	-0.865313	-0.099703
H548	H	-0.145920	-0.365313	0.400297
H549	H	-0.645894	-0.908036	-0.142558
H550	H	-0.145894	-0.408036	0.357442
H551	H	-0.585918	-0.944421	-0.106305
H552	H	-0.085918	-0.444421	0.393695
H553	H	-0.585953	-0.901702	-0.063439
H554	H	-0.085953	-0.401702	0.436561
H555	H	-0.624979	-0.941533	-0.066457
H556	H	-0.124979	-0.441533	0.433543
C557	C	-1.051475	-0.825434	-0.182507
C558	C	-0.551475	-0.325434	0.317493
C559	C	-1.097586	-0.818309	-0.189691
C560	C	-0.597586	-0.318309	0.310309
C561	C	-1.121128	-0.851811	-0.156411
C562	C	-0.621128	-0.351811	0.343589
H563	H	-1.043878	-0.817878	-0.147333
H564	H	-0.543878	-0.317878	0.352667
H565	H	-1.043767	-0.860555	-0.190241
H566	H	-0.543767	-0.360555	0.309759
H567	H	-1.105291	-0.783196	-0.181954
H568	H	-0.605291	-0.283196	0.318046
H569	H	-1.105196	-0.825868	-0.224859
H570	H	-0.605196	-0.325868	0.275141
H571	H	-1.113420	-0.886932	-0.164145
H572	H	-0.613420	-0.386932	0.335855
H573	H	-1.113528	-0.844253	-0.121238
H574	H	-0.613528	-0.344253	0.378762
H575	H	-1.152417	-0.846985	-0.161284
H576	H	-0.652417	-0.346985	0.338716
C577	C	-0.835551	-0.652293	-0.355185
C578	C	-0.335551	-0.152293	0.144815
C579	C	-0.804973	-0.622992	-0.384440
C580	C	-0.304973	-0.122992	0.115560
C581	C	-0.828352	-0.589519	-0.417920
C582	C	-0.328352	-0.089519	0.082080
H583	H	-0.853884	-0.629483	-0.335227
H584	H	-0.353884	-0.129483	0.164773
H585	H	-0.853816	-0.672275	-0.378020
H586	H	-0.353816	-0.172275	0.121980
H587	H	-0.786715	-0.603012	-0.361608
H588	H	-0.286715	-0.103012	0.138392
H589	H	-0.786639	-0.645788	-0.404409
H590	H	-0.286639	-0.145788	0.095591
H591	H	-0.846618	-0.609501	-0.440755
H592	H	-0.346618	-0.109501	0.059245
H593	H	-0.846684	-0.566713	-0.397957
H594	H	-0.346684	-0.066713	0.102043
H595	H	-0.807608	-0.569638	-0.437777
H596	H	-0.307608	-0.069638	0.062223
C597	C	-0.276311	-0.685725	-1.060280
C598	C	0.223689	-0.185725	-0.560280
C599	C	-0.301465	-0.656408	-1.024666
C600	C	0.198535	-0.156408	-0.524666
C601	C	-0.330208	-0.622876	-1.051847
C602	C	0.169792	-0.122876	-0.551847
H603	H	-0.295924	-0.705649	-1.081587
H604	H	0.204076	-0.205649	-0.581587
H605	H	-0.259128	-0.662932	-1.081563
H606	H	0.240872	-0.162932	-0.581563
H607	H	-0.318646	-0.679198	-1.003392
H608	H	0.181354	-0.179198	-0.503392
H609	H	-0.281863	-0.636473	-1.003358
H610	H	0.218137	-0.136473	-0.503358
H611	H	-0.313026	-0.600083	-1.073131
H612	H	0.186974	-0.100083	-0.573131
H613	H	-0.349819	-0.642804	-1.073153
H614	H	0.150181	-0.142804	-0.573153
H615	H	-0.347276	-0.602978	-1.027688
H616	H	0.152724	-0.102978	-0.527688
H617	H	-0.688503	-0.661337	-0.346051
H618	H	-0.188503	-0.161337	0.153949
C619	C	-0.597109	-0.652175	-0.355131
C620	C	-0.097109	-0.152175	0.144869
C621	C	-0.627711	-0.622879	-0.384377
C622	C	-0.127711	-0.122879	0.115623
C623	C	-0.604358	-0.589345	-0.417806
C624	C	-0.104358	-0.089345	0.082194
H625	H	-0.578781	-0.672097	-0.377977
H626	H	-0.078781	-0.172097	0.122023
H627	H	-0.578842	-0.629370	-0.335119
H628	H	-0.078842	-0.129370	0.164881
H629	H	-0.645971	-0.645681	-0.404388
H630	H	-0.145971	-0.145681	0.095612
H631	H	-0.646041	-0.602947	-0.361545
H632	H	-0.146041	-0.102947	0.138455
H633	H	-0.586090	-0.566539	-0.397794
H634	H	-0.086090	-0.066539	0.102206
H635	H	-0.586030	-0.609271	-0.440648
H636	H	-0.086030	-0.109271	0.059352
H637	H	-0.625117	-0.569460	-0.437650
H638	H	-0.125117	-0.069460	0.062350
C639	C	-0.479119	-0.685713	-0.321710
C640	C	0.020881	-0.185713	0.178290
C641	C	-0.506023	-0.715306	-0.355250
C642	C	-0.006023	-0.215306	0.144750
C643	C	-0.529563	-0.681946	-0.388692
C644	C	-0.029563	-0.181946	0.111308
H645	H	-0.458489	-0.665764	-0.341648
H646	H	0.041511	-0.165764	0.158352
H647	H	-0.497477	-0.662962	-0.301702
H648	H	0.002523	-0.162962	0.198298
H649	H	-0.487667	-0.738047	-0.375256
H650	H	0.012333	-0.238047	0.124744
H651	H	-0.526662	-0.735253	-0.335327
H652	H	-0.026662	-0.235253	0.164673
H653	H	-0.547920	-0.659196	-0.368685
H654	H	-0.047920	-0.159196	0.131315
H655	H	-0.508929	-0.661999	-0.408627
H656	H	-0.008929	-0.161999	0.091373
H657	H	-0.547822	-0.702020	-0.411450
H658	H	-0.047822	-0.202020	0.088550
C659	C	-0.156508	-0.825221	-0.558101
C660	C	0.343492	-0.325221	-0.058101
C661	C	-0.127689	-0.795654	-0.589433
C662	C	0.372311	-0.295654	-0.089433
C663	C	-0.098890	-0.829034	-0.616769
C664	C	0.401110	-0.329034	-0.116769
H665	H	-0.173639	-0.848000	-0.579449
H666	H	0.326361	-0.348000	-0.079449
H667	H	-0.139383	-0.845137	-0.534039
H668	H	0.360617	-0.345137	-0.034039
H669	H	-0.144813	-0.775746	-0.613492
H670	H	0.355187	-0.275746	-0.113492
H671	H	-0.110549	-0.772875	-0.568098
H672	H	0.389451	-0.272875	-0.068098
H673	H	-0.081765	-0.848950	-0.592707
H674	H	0.418235	-0.348950	-0.092707
H675	H	-0.116024	-0.851812	-0.638114
H676	H	0.383976	-0.351812	-0.138114
H677	H	-0.079330	-0.808978	-0.638027
H678	H	0.420670	-0.308978	-0.138027
H679	H	-0.744152	-0.661361	-0.346048
H680	H	-0.244152	-0.161361	0.153952
