data_functionalizedCrystal
_audit_creation_method	'MofGen! by Chris Wilmer'
_symmetry_space_group_name_H-M	'P1'
_symmetry_Int_Tables_number	1
_symmetry_cell_setting	triclinic
loop_
_symmetry_equiv_pos_as_xyz
  x,y,z
_cell_length_a	27.440280
_cell_length_b	17.052862
_cell_length_c	17.052862
_cell_angle_alpha	61.493325
_cell_angle_beta	90.004253
_cell_angle_gamma	70.263485
loop_
_atom_site_label
_atom_site_type_symbol
_atom_site_fract_x
_atom_site_fract_y
_atom_site_fract_z
Zr1	Zr	0.564821	0.816610	-0.200353
O2	O	0.511001	0.944511	-0.328491
O3	O	0.569470	0.665888	-0.146161
O4	O	0.595584	0.783687	-0.306969
O5	O	0.477766	0.860640	-0.057797
O6	O	0.675785	0.783677	-0.306953
O7	O	0.484886	0.826712	-0.167684
O8	O	0.629070	0.572955	-0.019297
O9	O	0.524480	1.071362	-0.345453
O10	O	0.645621	0.736326	-0.141052
O11	O	0.580455	0.761654	-0.059057
O12	O	0.611202	0.900348	-0.248387
O13	O	0.546035	0.925676	-0.166392
Zr14	Zr	0.681375	0.870704	-0.025072
Zr15	Zr	0.692731	0.816593	-0.200328
Zr16	Zr	0.553464	0.870721	-0.025097
Zr17	Zr	0.586319	1.018921	-0.227405
Zr18	Zr	0.659877	0.668393	0.001980
O19	O	0.676726	1.021426	-0.079264
O20	O	0.692873	0.944487	-0.328455
O21	O	0.494854	1.021450	-0.079300
O22	O	0.735195	0.742803	0.103066
O23	O	0.751342	0.665864	-0.146125
O24	O	0.553323	0.742827	0.103031
O25	O	0.768430	0.826674	-0.167628
O26	O	0.650611	0.903627	0.081544
O27	O	0.570411	0.903637	0.081528
O28	O	0.761309	0.860602	-0.057741
O29	O	0.626152	1.071348	-0.345433
O30	O	0.620044	0.615966	0.120008
O31	O	0.721715	0.615952	0.120028
O32	O	0.730742	0.572941	-0.019277
O33	O	0.515453	1.114373	-0.206147
O34	O	0.617125	1.114359	-0.206128
O35	O	0.634994	0.786966	0.022962
O36	O	0.700160	0.761638	-0.059033
O37	O	0.665740	0.925660	-0.166368
O38	O	0.600574	0.950988	-0.084373
C39	C	0.596207	0.590596	-0.078875
C40	C	0.587081	0.504710	-0.067391
C41	C	0.697419	0.209731	-0.206234
C42	C	0.705993	0.290429	-0.217030
C43	C	0.676266	0.344003	-0.179621
C44	C	0.637963	0.316872	-0.131414
C45	C	0.629386	0.236171	-0.120624
C46	C	0.608232	0.370442	-0.094010
C47	C	0.569929	0.343312	-0.045804
C48	C	0.561354	0.262618	-0.035015
C49	C	0.591081	0.209044	-0.072424
C50	C	0.616810	0.451143	-0.104801
C51	C	0.548776	0.477583	-0.019191
C52	C	0.540202	0.396885	-0.008395
C53	C	0.463101	0.843678	-0.112744
C54	C	0.408800	0.843685	-0.112755
C55	C	0.090059	0.758028	-0.056660
C56	C	0.039040	0.758025	-0.056652
O57	O	0.027930	0.685218	-0.008977
N58	N	-0.004444	0.843641	-0.112680
C59	C	0.003093	0.929269	-0.168714
O60	O	-0.038578	1.002092	-0.216369
C61	C	0.054112	0.929273	-0.168716
C62	C	0.097594	0.843649	-0.112691
C63	C	0.133540	0.672412	-0.000638
C64	C	0.184556	0.672415	-0.000648
C65	C	0.192091	0.758036	-0.056679
C66	C	0.148610	0.843653	-0.112700
C67	C	0.061648	1.014901	-0.224744
C68	C	0.112671	1.014898	-0.224741
C69	C	0.156154	0.929274	-0.168716
C70	C	0.207161	0.929277	-0.168741
N71	N	0.250645	0.843661	-0.112712
C72	C	0.243110	0.758040	-0.056681
C73	C	-0.104048	0.929253	-0.168703
C74	C	-0.155065	0.929249	-0.168705
C75	C	-0.119115	0.758005	-0.056642
C76	C	-0.068097	0.758009	-0.056645
C77	C	-0.060564	0.843637	-0.112674
C78	C	0.350246	0.758054	-0.056706
C79	C	0.401265	0.758065	-0.056723
C80	C	0.365311	0.929309	-0.168783
C81	C	0.314296	0.929298	-0.168770
C82	C	0.306766	0.843664	-0.112724
O83	O	0.218311	1.002047	-0.216388
O84	O	0.284784	0.685232	-0.009025
C85	C	0.783094	0.843636	-0.112681
C86	C	0.837395	0.843629	-0.112670
C87	C	0.637303	0.775973	-0.331931
C88	C	0.642124	0.753001	-0.406332
C89	C	0.649988	1.096718	-0.146550
C90	C	0.659115	1.182604	-0.158034
C91	C	0.583838	1.030727	-0.840172
C92	C	0.579305	1.052313	-0.770271
C93	C	0.595010	0.977487	-0.679284
C94	C	0.615247	0.881071	-0.658203
C95	C	0.619777	0.859483	-0.728111
C96	C	0.630948	0.806243	-0.567222
C97	C	0.651186	0.709827	-0.546141
C98	C	0.655714	0.688243	-0.616044
C99	C	0.640010	0.763069	-0.707031
C100	C	0.626419	0.827831	-0.497314
C101	C	0.662357	0.656587	-0.385253
C102	C	0.666890	0.635001	-0.455154
C103	C	0.608893	0.911342	0.106506
C104	C	0.604072	0.934313	0.180907
C105	C	0.756203	0.590575	-0.078844
C106	C	0.801378	0.504681	-0.067349
C107	C	0.582002	0.658281	0.140344
C108	C	0.568055	0.595366	0.226229
C109	C	0.741998	0.658260	0.140375
C110	C	0.782352	0.595338	0.226271
C111	C	0.504197	1.029054	-0.365800
C112	C	0.463843	1.091977	-0.451696
C113	C	0.489992	1.096739	-0.146581
C114	C	0.444817	1.182633	-0.158076
C115	C	0.664193	1.029033	-0.365769
C116	C	0.678141	1.091948	-0.451654
C117	C	0.794125	0.451130	-0.104771
C118	C	0.836568	0.370430	-0.093988
C119	C	0.886265	0.343279	-0.045778
C120	C	0.893518	0.396839	-0.008355
C121	C	0.851075	0.477541	-0.019144
C122	C	0.589973	0.579035	0.309381
C123	C	0.576866	0.519933	0.390085
C124	C	0.541844	0.477157	0.387634
C125	C	0.519924	0.493493	0.304472
C126	C	0.533027	0.552600	0.223770
C127	C	0.835324	0.552568	0.223808
C128	C	0.873248	0.493455	0.304507
C129	C	0.858197	0.477107	0.387670
C130	C	0.805220	0.519885	0.390131
C131	C	0.767298	0.579002	0.309431
C132	C	0.410872	1.134756	-0.449234
C133	C	0.372951	1.193894	-0.529937
C134	C	0.388003	1.210246	-0.613100
C135	C	0.440979	1.167463	-0.615560
C136	C	0.478899	1.108332	-0.534859
C137	C	0.452072	1.236190	-0.120662
C138	C	0.409632	1.316907	-0.131467
C139	C	0.359936	1.344060	-0.179681
C140	C	0.352682	1.290497	-0.217100
C141	C	0.395123	1.209786	-0.206300
C142	C	0.713164	1.134707	-0.449173
C143	C	0.726280	1.193813	-0.529863
C144	C	0.704368	1.210166	-0.613033
C145	C	0.669342	1.167400	-0.615511
C146	C	0.656230	1.108289	-0.534821
H147	H	0.683249	0.409709	-0.188414
H148	H	0.933986	0.374720	0.030898
H149	H	0.737178	0.312516	-0.256280
H150	H	0.754798	1.228630	-0.527828
F151	F	0.316573	1.239414	-0.527300
F152	F	0.347639	1.273181	-0.698984
H153	H	0.312215	1.312618	-0.256356
H154	H	0.830653	0.326830	-0.124464
H155	H	0.721617	0.166111	-0.236694
F156	F	0.718326	1.273082	-0.698904
F157	F	0.789209	0.502477	0.478647
F158	F	0.517134	0.534600	0.020621
F159	F	0.646022	1.184819	-0.704036
H160	H	0.530161	0.240537	0.004230
F161	F	0.688426	0.532391	-0.432730
F162	F	0.394842	1.117364	-0.360733
H163	H	0.627709	1.073480	-0.536854
F164	F	0.600203	0.502557	0.478582
F165	F	0.535275	1.062801	-0.537492
F166	F	0.931431	0.257384	-0.034302
F167	F	0.557753	1.154922	-0.792710
H168	H	0.618490	0.613859	0.311394
F169	F	0.657573	0.480008	-0.156105
H170	H	-0.190466	0.998969	-0.214337
F171	F	0.417362	1.373896	-0.091634
F172	F	0.456990	1.184873	-0.704077
H173	H	0.278891	0.999017	-0.214401
H174	H	0.492533	1.214091	-0.081397
F175	F	0.314771	1.429962	-0.191167
F176	F	0.858802	0.534524	0.020696
H177	H	0.389208	1.166181	-0.236765
H178	H	0.731010	1.121404	-0.381460
H179	H	0.584105	0.143328	-0.063631
H180	H	0.509015	0.374784	0.030854
H181	H	0.531179	0.429031	0.453353
F182	F	0.710920	0.624511	0.312067
F183	F	0.342240	0.666912	0.002943
F184	F	0.447542	0.666928	0.002907
F185	F	0.230828	0.581283	0.058988
H186	H	0.371456	0.999019	-0.214405
H187	H	0.127414	0.602686	0.044994
F188	F	-0.021823	0.666878	0.002986
F189	F	-0.127143	0.666879	0.002993
H190	H	-0.097921	0.998986	-0.214333
H191	H	0.026251	1.084626	-0.270365
H192	H	0.118798	1.084632	-0.270358
H193	H	0.609940	0.906334	-0.514487
H194	H	0.591318	0.995068	-0.622370
H195	H	0.515179	0.565886	0.156067
H196	H	0.491407	0.458657	0.302490
F197	F	0.851354	0.569958	0.135307
F198	F	0.567119	1.110350	-0.937005
F199	F	0.929626	0.447934	0.301870
H200	H	0.672188	0.609735	-0.598873
F201	F	0.679070	0.576946	-0.288418
F202	F	0.644834	0.740100	-0.781433
H203	H	0.889080	0.428968	0.453374
H204	H	0.753665	0.473231	-0.144039
