data_functionalizedCrystal
_audit_creation_method	'MofGen! by Chris Wilmer'
_symmetry_space_group_name_H-M	'P1'
_symmetry_Int_Tables_number	1
_symmetry_cell_setting	triclinic
loop_
_symmetry_equiv_pos_as_xyz
  x,y,z
_cell_length_a	17.639906
_cell_length_b	17.639762
_cell_length_c	12.759393
_cell_angle_alpha	101.176843
_cell_angle_beta	78.811799
_cell_angle_gamma	70.345407
loop_
_atom_site_label
_atom_site_type_symbol
_atom_site_fract_x
_atom_site_fract_y
_atom_site_fract_z
Zn1	Zn	0.072991	1.193658	-0.293430
Zn2	Zn	0.210817	1.165767	-0.162290
Zn3	Zn	0.100924	1.055845	-0.162246
Zn4	Zn	0.238634	1.028041	-0.382354
O5	O	0.155842	1.110827	-0.250080
O6	O	0.067942	1.305272	-0.238838
O7	O	0.196288	1.151149	-0.015286
O8	O	-0.018094	1.097434	-0.142415
O9	O	0.169202	1.284780	-0.142490
O10	O	-0.038616	1.198685	-0.238795
O11	O	0.115550	1.070389	-0.015254
O12	O	0.142524	0.936843	-0.228640
O13	O	0.216613	1.050047	-0.517556
O14	O	0.243699	0.916416	-0.390352
O15	O	0.094916	1.171725	-0.452225
O16	O	0.329819	1.124189	-0.228715
O17	O	0.350257	1.023002	-0.390395
C18	C	0.199162	0.896729	-0.319142
C19	C	0.217714	0.805133	-0.348718
C20	C	-0.059090	1.154272	-0.180681
C21	C	-0.150682	1.172785	-0.151107
C22	C	0.296611	0.665404	-0.474507
C23	C	0.279172	0.751473	-0.446705
C24	C	0.173667	0.772739	-0.278496
C25	C	0.191094	0.686670	-0.306286
C26	C	0.252567	0.633008	-0.404292
C27	C	0.147051	0.654274	-0.236071
C28	C	0.164480	0.568212	-0.263856
C29	C	0.225952	0.514545	-0.361856
C30	C	0.269996	0.546946	-0.432077
C31	C	0.085582	0.707936	-0.138061
C32	C	0.041538	0.675541	-0.067846
C33	C	0.058963	0.589478	-0.095635
C34	C	0.120435	0.535811	-0.193635
C35	C	0.014918	0.557077	-0.025414
C36	C	0.032347	0.471015	-0.053199
C37	C	0.137864	0.449749	-0.221420
C38	C	-0.398770	0.970343	-0.474688
C39	C	-0.484839	0.987768	-0.446872
C40	C	-0.506091	1.093120	-0.278535
C41	C	-0.420020	1.075701	-0.306334
C42	C	-0.366366	1.014312	-0.404413
C43	C	-0.387617	1.119671	-0.236059
C44	C	-0.301555	1.102256	-0.263860
C45	C	-0.247896	1.040872	-0.361935
C46	C	-0.280304	0.996898	-0.432213
C47	C	-0.441273	1.181064	-0.137985
C48	C	-0.408870	1.225034	-0.067710
C49	C	-0.322806	1.207615	-0.095506
C50	C	-0.269147	1.146231	-0.193582
C51	C	-0.290398	1.251589	-0.025228
C52	C	-0.204336	1.234174	-0.053029
C53	C	-0.183085	1.128816	-0.221382
C54	C	0.369933	1.067574	-0.319225
C55	C	0.461507	1.049146	-0.348816
C56	C	0.155752	1.110896	-0.524071
C57	C	0.155713	1.110925	-0.640830
C58	C	0.112353	1.325761	-0.180750
C59	C	0.093821	1.417354	-0.151205
C60	C	0.197689	1.153027	-0.805398
C61	C	0.197730	1.152989	-0.695696
C62	C	0.113660	1.068889	-0.695676
C63	C	0.113624	1.068922	-0.805380
C64	C	0.246223	1.201585	-0.805407
C65	C	0.246264	1.201547	-0.695704
C66	C	0.155862	1.110819	0.022879
C67	C	0.155636	1.110996	0.139764
H68	H	0.187914	0.406056	-0.301234
Br69	Br	-0.131020	1.016854	-0.399306
H70	H	0.240142	0.444468	-0.384476
Br71	Br	-0.558075	1.204707	-0.100263
H72	H	-0.008511	0.719242	0.011953
H73	H	0.216262	1.268814	-0.639817
H74	H	0.320046	0.503253	-0.511891
H75	H	0.211084	1.266839	-0.812492
H76	H	-0.452565	1.275019	0.012144
Br77	Br	-0.068496	0.629910	0.107599
Br78	Br	-0.027418	0.427043	0.042100
H79	H	0.311531	1.166441	-0.688627
Br80	Br	0.380028	0.592572	-0.607529
Br81	Br	0.358339	1.151617	-0.898571
Br82	Br	0.056641	1.011796	-0.621219
H83	H	0.315041	0.777845	-0.503891
H84	H	0.071395	0.778013	-0.115441
Br85	Br	0.090244	0.845570	-0.145489
Br86	Br	-0.207476	0.913564	-0.565304
H87	H	-0.139397	1.078831	-0.301251
H88	H	-0.511216	0.951958	-0.504108
H89	H	-0.355082	0.920358	-0.554557
Br90	Br	-0.363225	1.334912	0.107861
Br91	Br	-0.160355	1.293851	0.042341
H92	H	-0.549786	1.143106	-0.198681
Br93	Br	0.056601	1.011828	-0.879827
