data_functionalizedCrystal
_audit_creation_method	'MofGen! by Chris Wilmer'
_symmetry_space_group_name_H-M	'P1'
_symmetry_Int_Tables_number	1
_symmetry_cell_setting	triclinic
loop_
_symmetry_equiv_pos_as_xyz
  x,y,z
_cell_length_a	17.699077
_cell_length_b	17.699083
_cell_length_c	16.176319
_cell_angle_alpha	89.992304
_cell_angle_beta	89.993140
_cell_angle_gamma	83.281795
loop_
_atom_site_label
_atom_site_type_symbol
_atom_site_fract_x
_atom_site_fract_y
_atom_site_fract_z
O1	O	1.004082	0.095692	-0.068737
O2	O	0.783703	0.108149	-0.068741
O3	O	0.900118	-0.008269	-0.068732
O4	O	0.887666	0.212110	-0.068747
O5	O	0.900102	-0.008277	0.068761
O6	O	0.783687	0.108141	0.068752
O7	O	1.004066	0.095684	0.068756
Cu8	Cu	0.893875	0.101912	0.081308
Cu9	Cu	0.893894	0.101921	-0.081294
O10	O	0.887650	0.212102	0.068746
C11	C	0.755498	0.107700	0.000005
C12	C	0.671479	0.106363	0.000003
C13	C	0.632003	0.105729	0.074952
C14	C	0.553061	0.104461	0.074953
C15	C	0.513595	0.103832	0.000004
C16	C	0.553077	0.104464	-0.074950
C17	C	0.632019	0.105726	-0.074950
C18	C	0.234714	0.099370	-0.074951
C19	C	0.155766	0.098110	-0.074945
C20	C	0.155755	0.098105	0.074952
C21	C	0.234697	0.099367	0.074951
C22	C	0.274173	0.099995	-0.000002
C23	C	0.359772	0.101369	-0.000002
C24	C	0.427997	0.102464	0.000004
C25	C	0.899664	-0.036470	0.000015
C26	C	0.898326	-0.120488	0.000015
C27	C	0.966659	-0.169110	0.000018
C28	C	0.965397	-0.248054	0.000010
C29	C	0.895800	-0.278373	0.000006
C30	C	0.827461	-0.229744	0.000001
C31	C	0.828724	-0.150803	0.000003
C32	C	0.822366	-0.548107	-0.000005
C33	C	0.821108	-0.627055	-0.000004
C34	C	0.959039	-0.645358	0.000002
C35	C	0.960302	-0.566417	0.000003
C36	C	0.891963	-0.517795	-0.000006
C37	C	0.893333	-0.432196	0.000000
C38	C	0.894430	-0.363971	0.000006
C39	C	1.032271	0.096133	0.000008
C40	C	1.116289	0.097470	0.000004
C41	C	0.888104	0.240303	-0.000002
C42	C	0.889443	0.324321	-0.000008
N43	N	0.893867	0.101906	0.195673
N44	N	0.893907	0.101921	-0.195659
C45	C	0.945431	0.050377	0.238942
C46	C	0.945435	0.050376	0.325489
C47	C	0.893878	0.101908	0.368766
C48	C	0.842308	0.153439	0.325491
C49	C	0.842301	0.153436	0.238946
C50	C	0.842334	0.153454	0.674520
C51	C	0.842346	0.153455	0.761071
C52	C	0.945468	0.050393	0.761063
C53	C	0.945461	0.050390	0.674517
C54	C	0.893889	0.101918	0.631250
C55	C	0.893884	0.101918	0.537406
C56	C	0.893885	0.101913	0.462608
H57	H	0.664159	0.106244	-0.135981
C58	C	0.684885	-0.601037	-0.000034
C59	C	0.744602	-0.660383	-0.000019
H60	H	0.637657	-0.621614	-0.000048
H61	H	0.688231	-0.570633	0.047911
H62	H	0.688262	-0.570621	-0.047983
H63	H	0.741228	-0.690795	0.047934
H64	H	0.741254	-0.690800	-0.047969
C65	C	0.797605	0.284522	0.352113
C66	C	0.785629	0.210084	0.373055
H67	H	0.762609	0.319493	0.381472
H68	H	0.848093	0.292678	0.366290
H69	H	0.790223	0.291882	0.294375
H70	H	0.793017	0.202723	0.430792
H71	H	0.735129	0.201926	0.358883
H72	H	0.664130	0.106247	0.135984
C73	C	0.455628	0.168059	0.161905
C74	C	0.509661	0.103756	0.157333
H75	H	0.428832	0.167616	0.212763
H76	H	0.480564	0.212667	0.158799
H77	H	0.420836	0.167495	0.117261
H78	H	0.544457	0.104323	0.201975
H79	H	0.484724	0.059137	0.160448
C80	C	0.709517	-0.238444	-0.070691
C81	C	0.750960	-0.263072	-0.000007
H82	H	0.662290	-0.259023	-0.070696
H83	H	0.700489	-0.184477	-0.070685
H84	H	0.737663	-0.255142	-0.118630
H85	H	0.722816	-0.246369	0.047932
H86	H	0.759985	-0.317050	-0.000006
H87	H	0.773080	-0.111214	0.000001
C88	C	0.140082	0.032675	0.202736
C89	C	0.112365	0.097405	0.157347
H90	H	0.113298	0.032249	0.253604
H91	H	0.132998	-0.011643	0.171948
H92	H	0.192745	0.033528	0.213451
H93	H	0.059703	0.096549	0.146626
H94	H	0.119442	0.141734	0.188142
H95	H	0.766721	-0.508528	-0.000013
H96	H	0.123635	0.097597	-0.135981
C97	C	0.561022	0.104598	-0.223122
C98	C	0.509698	0.103776	-0.157336
H99	H	0.534242	0.104172	-0.273984
H100	H	0.585957	0.149204	-0.220004
H101	H	0.597667	0.060966	-0.219997
H102	H	0.473056	0.147412	-0.160457
H103	H	0.484750	0.059165	-0.160455
H104	H	1.023333	-0.144431	0.000026
H105	H	1.014683	-0.684956	0.000005
C106	C	1.023481	-0.453532	0.000009
C107	C	1.036804	-0.533090	0.000006
H108	H	1.070712	-0.432960	0.000013
H109	H	0.995360	-0.436834	-0.047934
H110	H	0.995346	-0.436847	0.047960
H111	H	1.064934	-0.549775	-0.047948
H112	H	1.064937	-0.549794	0.047955
C113	C	1.101865	-0.258217	0.000037
C114	C	1.040512	-0.301500	0.000022
H115	H	1.148239	-0.291214	0.000050
H116	H	1.099500	-0.227042	-0.047907
H117	H	1.099470	-0.227049	0.047987
H118	H	1.042903	-0.332664	-0.047931
H119	H	1.042878	-0.332687	0.047971
C120	C	1.047361	-0.051503	0.247635
C121	C	1.002105	-0.006272	0.191376
H122	H	1.082345	-0.086480	0.218270
H123	H	1.074527	-0.020031	0.281376
H124	H	1.015902	-0.078683	0.281406
H125	H	1.033563	0.020913	0.157609
H126	H	0.974936	-0.037748	0.157621
H127	H	0.800359	0.195420	0.796306
C128	C	0.962079	-0.052658	0.422819
C129	C	1.002122	-0.006266	0.373043
H130	H	0.997078	-0.087631	0.452171
H131	H	0.931382	-0.021973	0.460980
H132	H	0.930628	-0.079842	0.389060
H133	H	1.033569	0.020923	0.406804
H134	H	1.032831	-0.036955	0.334878
C135	C	0.226783	0.099250	-0.223120
C136	C	0.278098	0.100064	-0.157339
H137	H	0.253570	0.099682	-0.273984
H138	H	0.201847	0.054643	-0.219995
H139	H	0.190137	0.142882	-0.219998
H140	H	0.314740	0.056429	-0.160457
H141	H	0.303046	0.144675	-0.160466
C142	C	1.047391	-0.051491	0.683204
C143	C	1.002132	-0.006258	0.626948
H144	H	1.082372	-0.086468	0.653835
H145	H	1.074560	-0.020021	0.716943
H146	H	1.015933	-0.078672	0.716976
H147	H	1.033589	0.020926	0.593180
H148	H	0.974961	-0.037733	0.593194
H149	H	0.987459	0.008434	0.796300
H150	H	0.800343	0.195411	0.639299
H151	H	0.800311	0.195395	0.203718
H152	H	0.266826	0.099883	0.135982
