data_functionalizedCrystal
_audit_creation_method	'MofGen! by Chris Wilmer'
_symmetry_space_group_name_H-M	'P1'
_symmetry_Int_Tables_number	1
_symmetry_cell_setting	triclinic
loop_
_symmetry_equiv_pos_as_xyz
  x,y,z
_cell_length_a	10.654550
_cell_length_b	13.101039
_cell_length_c	10.654551
_cell_angle_alpha	86.602350
_cell_angle_beta	84.485132
_cell_angle_gamma	93.393769
loop_
_atom_site_label
_atom_site_type_symbol
_atom_site_fract_x
_atom_site_fract_y
_atom_site_fract_z
O1	O	1.674697	0.085293	0.169521
O2	O	1.309217	0.085275	0.186328
O3	O	1.500359	0.085285	-0.004815
O4	O	1.483555	0.085283	0.360664
O5	O	1.486645	-0.085146	0.008922
O6	O	1.295503	-0.085155	0.200065
O7	O	1.660983	-0.085138	0.183258
Zn8	Zn	1.476065	-0.112206	0.193843
Zn9	Zn	1.494134	0.112343	0.175743
O10	O	1.469840	-0.085147	0.374401
C11	C	1.255562	0.000058	0.191963
C12	C	1.116118	0.000052	0.188272
N13	N	1.463743	-0.265455	0.206194
C14	C	1.036634	0.000066	0.300812
C15	C	0.905615	0.000084	0.297334
C16	C	0.933577	0.000077	0.068765
C17	C	1.064593	0.000052	0.072245
C18	C	1.020490	0.000074	0.432774
C19	C	0.889470	0.000092	0.429296
C20	C	1.446978	-0.474499	0.223011
C21	C	1.523227	-0.525371	0.146570
C22	C	1.513899	-0.641689	0.155926
C23	C	1.456305	-0.358169	0.213655
C24	C	1.714638	0.000082	0.177623
C25	C	1.854082	0.000095	0.181314
C26	C	1.492268	0.000072	-0.044744
C27	C	1.488576	0.000079	-0.184188
N28	N	1.506467	0.265593	0.163382
C29	C	1.494320	0.092978	-0.257188
C30	C	1.490839	0.092974	-0.388208
C31	C	1.475877	-0.092839	-0.373216
C32	C	1.479348	-0.092833	-0.242198
C33	C	1.502963	0.200256	-0.265845
C34	C	1.499483	0.200251	-0.396865
C35	C	1.477932	0.000068	0.414330
C36	C	1.481624	0.000068	0.553773
H37	H	1.129304	0.000026	-0.019395
O38	O	1.360581	-0.526705	0.309337
C39	C	1.140335	-0.559782	0.383946
C40	C	1.238038	-0.500596	0.286088
H41	H	1.041239	-0.538679	0.365200
H42	H	1.147978	-0.645653	0.376180
H43	H	1.159476	-0.538776	0.482973
H44	H	1.218961	-0.521516	0.187018
H45	H	1.230372	-0.414740	0.293965
H46	H	1.419488	0.241446	-0.222884
H47	H	1.474665	-0.168481	-0.182765
O48	O	1.609180	-0.473113	0.059833
C49	C	1.643274	-0.352206	-0.121462
C50	C	1.545887	-0.411240	-0.023157
H51	H	1.592138	-0.302184	-0.188601
H52	H	1.710729	-0.301794	-0.071164
H53	H	1.699061	-0.409002	-0.177452
H54	H	1.490011	-0.354519	0.032863
H55	H	1.478518	-0.461668	-0.073530
O56	O	1.466749	-0.183025	-0.429691
C57	C	1.345479	-0.290899	-0.555552
C58	C	1.355676	-0.188715	-0.491688
H59	H	1.255669	-0.295542	-0.605670
H60	H	1.431148	-0.295566	-0.627328
H61	H	1.342034	-0.357277	-0.480850
H62	H	1.359083	-0.122278	-0.566299
H63	H	1.270007	-0.184137	-0.419887
H64	H	1.597241	0.233545	-0.238962
H65	H	0.837878	-0.073487	0.475108
O66	O	1.393363	0.240032	-0.435144
C67	C	1.197426	0.314647	-0.372840
C68	C	1.317562	0.269650	-0.329319
H69	H	1.136096	0.338585	-0.287301
H70	H	1.224929	0.384307	-0.441341
H71	H	1.142273	0.254285	-0.422103
H72	H	1.372771	0.329936	-0.280000
H73	H	1.289975	0.199968	-0.260878
H74	H	1.589588	0.241445	-0.446477
H75	H	0.891610	0.000093	-0.025701
H76	H	1.044081	-0.071255	0.490134
H77	H	1.062066	0.073656	0.468862
H78	H	0.853477	0.071422	0.473268
