data_functionalizedCrystal
_audit_creation_method	'MofGen! by Chris Wilmer'
_symmetry_space_group_name_H-M	'P1'
_symmetry_Int_Tables_number	1
_symmetry_cell_setting	triclinic
loop_
_symmetry_equiv_pos_as_xyz
  x,y,z
_cell_length_a	18.101398
_cell_length_b	18.101395
_cell_length_c	12.759393
_cell_angle_alpha	89.966555
_cell_angle_beta	89.972514
_cell_angle_gamma	90.028835
loop_
_atom_site_label
_atom_site_type_symbol
_atom_site_fract_x
_atom_site_fract_y
_atom_site_fract_z
Zn1	Zn	1.132141	-0.294831	-0.594220
Zn2	Zn	1.632141	0.205169	-0.094220
Zn3	Zn	1.132031	-0.418692	-0.418534
Zn4	Zn	1.632031	0.081308	0.081466
Zn5	Zn	1.008294	-0.294864	-0.418531
Zn6	Zn	1.508294	0.205136	0.081469
Zn7	Zn	1.008250	-0.418630	-0.594148
Zn8	Zn	1.508250	0.081370	-0.094148
O9	O	1.070179	-0.356754	-0.506358
O10	O	1.570179	0.143246	-0.006358
O11	O	1.235759	-0.311273	-0.570946
O12	O	1.735759	0.188727	-0.070946
O13	O	1.115589	-0.402306	-0.271512
O14	O	1.615589	0.097694	0.228488
O15	O	1.024787	-0.191227	-0.441866
O16	O	1.524787	0.308773	0.058134
O17	O	1.235678	-0.402274	-0.441870
O18	O	1.735678	0.097726	0.058130
O19	O	1.115776	-0.191202	-0.570943
O20	O	1.615776	0.308798	-0.070943
O21	O	1.024680	-0.311330	-0.271511
O22	O	1.524680	0.188670	0.228489
O23	O	0.904655	-0.311270	-0.441796
O24	O	1.404655	0.188730	0.058204
O25	O	1.024713	-0.402168	-0.741178
O26	O	1.524713	0.097832	-0.241178
O27	O	0.904623	-0.402200	-0.570821
O28	O	1.404623	0.097800	-0.070821
O29	O	1.115734	-0.311213	-0.741231
O30	O	1.615734	0.188787	-0.241231
O31	O	1.115547	-0.522317	-0.441800
O32	O	1.615547	-0.022317	0.058200
O33	O	1.024606	-0.522271	-0.570823
O34	O	1.524606	-0.022271	-0.070823
C35	C	0.877768	-0.356733	-0.506301
C36	C	1.377768	0.143267	-0.006301
C37	C	0.795454	-0.356741	-0.506302
C38	C	1.295454	0.143259	-0.006302
C39	C	0.644746	-0.356756	-0.506349
C40	C	1.144746	0.143244	-0.006349
C41	C	0.613387	-0.299463	-0.425305
C42	C	1.113387	0.200537	0.074695
C43	C	0.527769	-0.299248	-0.425571
C44	C	1.027769	0.200752	0.074429
C45	C	0.496363	-0.356771	-0.506394
C46	C	0.996363	0.143229	-0.006394
C47	C	0.527507	-0.335929	-0.617241
C48	C	1.027507	0.164071	-0.117241
C49	C	0.613152	-0.335505	-0.616746
C50	C	1.113152	0.164495	-0.116746
C51	C	0.613141	-0.435039	-0.477522
C52	C	1.113141	0.064961	0.022478
C53	C	0.527490	-0.434627	-0.475107
C54	C	1.027490	0.065373	0.024893
C55	C	0.412504	-0.356781	-0.506426
C56	C	0.912504	0.143219	-0.006426
C57	C	0.728605	-0.356745	-0.506324
C58	C	1.228605	0.143255	-0.006324
C59	C	1.070080	-0.549165	-0.506327
C60	C	1.570080	-0.049165	-0.006327
C61	C	1.070105	-0.631479	-0.506349
C62	C	1.570105	-0.131479	-0.006349
C63	C	1.070268	-0.930570	-0.506406
C64	C	1.570268	-0.430570	-0.006406
C65	C	1.013183	-0.899247	-0.587785
C66	C	1.513183	-0.399247	-0.087785
C67	C	1.012912	-0.813629	-0.587530
C68	C	1.512912	-0.313629	-0.087530
C69	C	1.070187	-0.782187	-0.506379
C70	C	1.570187	-0.282187	-0.006379
C71	C	1.049054	-0.813346	-0.395649
C72	C	1.549054	-0.313346	0.104351
C73	C	1.048686	-0.898991	-0.396136
C74	C	1.548686	-0.398991	0.103864
C75	C	1.148610	-0.898915	-0.534782
C76	C	1.648610	-0.398915	-0.034782
C77	C	1.148150	-0.813263	-0.537210
C78	C	1.648150	-0.313263	-0.037210
C79	C	1.070143	-0.698328	-0.506356
C80	C	1.570143	-0.198328	-0.006356
C81	C	1.070310	-1.014429	-0.506421
C82	C	1.570310	-0.514429	-0.006421
C83	C	1.263341	-0.356777	-0.506416
C84	C	1.763341	0.143223	-0.006416
C85	C	1.345655	-0.356786	-0.506441
C86	C	1.845655	0.143214	-0.006441
C87	C	1.070231	-0.356680	-0.780392
C88	C	1.570231	0.143320	-0.280392
C89	C	1.070253	-0.356648	-0.897168
C90	C	1.570253	0.143352	-0.397168
C91	C	1.070299	-0.163592	-0.506412
C92	C	1.570299	0.336408	-0.006412
C93	C	1.070350	-0.081278	-0.506435
C94	C	1.570350	0.418722	-0.006435
C95	C	1.117654	-0.309283	-0.952060
C96	C	1.617654	0.190717	-0.452060
C97	C	1.117672	-0.309256	-1.061784
C98	C	1.617672	0.190744	-0.561784
C99	C	1.022885	-0.403965	-1.061716
C100	C	1.522885	0.096035	-0.561716
C101	C	1.022864	-0.403988	-0.951994
C102	C	1.522864	0.096012	-0.451994
C103	C	1.165044	-0.261943	-0.897234
C104	C	1.665044	0.238057	-0.397234
C105	C	1.212450	-0.214575	-0.952126
C106	C	1.712450	0.285425	-0.452126
C107	C	1.212467	-0.214548	-1.061850
C108	C	1.712467	0.285452	-0.561850
C109	C	1.165079	-0.261889	-1.116683
C110	C	1.665079	0.238111	-0.616683
C111	C	1.070170	-0.356775	-0.233391
C112	C	1.570170	0.143225	0.266609
C113	C	1.070291	-0.356599	-0.116615
C114	C	1.570291	0.143401	0.383385
H115	H	0.634936	-0.241786	-0.444198
H116	H	1.134936	0.258214	0.055802
Cl117	Cl	0.923256	-0.782090	-0.558514
Cl118	Cl	1.423256	-0.282090	-0.058514
Cl119	Cl	0.644471	-0.500943	-0.568629
Cl120	Cl	1.144471	-0.000943	-0.068629
H121	H	0.633926	-0.312319	-0.342854
H122	H	1.133926	0.187681	0.157146
H123	H	1.251027	-0.176027	-0.907474
H124	H	1.751027	0.323973	-0.407474
Cl125	Cl	1.165027	-0.261976	-0.759296
Cl126	Cl	1.665027	0.238024	-0.259296
Cl127	Cl	0.961571	-0.780336	-0.357873
Cl128	Cl	1.461571	-0.280336	0.142127
Cl129	Cl	0.494513	-0.504023	-0.559579
Cl130	Cl	0.994513	-0.004023	-0.059579
Cl131	Cl	0.963271	-0.463532	-0.882982
Cl132	Cl	1.463271	0.036468	-0.382982
Cl133	Cl	1.272064	-0.155003	-1.130853
Cl134	Cl	1.772064	0.344997	-0.630853
Cl135	Cl	1.033322	-0.781095	-0.714295
Cl136	Cl	1.533322	-0.281095	-0.214295
H137	H	1.165088	-0.261855	-1.206027
H138	H	1.665088	0.238145	-0.706027
Cl139	Cl	1.033388	-0.930965	-0.714963
Cl140	Cl	1.533388	-0.430965	-0.214963
H141	H	1.167877	-0.920457	-0.614150
H142	H	1.667877	-0.420457	-0.114150
Cl143	Cl	0.495251	-0.319315	-0.298691
Cl144	Cl	0.995251	0.180685	0.201309
H145	H	0.991418	-0.919034	-0.372100
H146	H	1.491418	-0.419034	0.127900
Cl147	Cl	1.172758	-0.781817	-0.663026
Cl148	Cl	1.672758	-0.281817	-0.163026
Cl149	Cl	0.646421	-0.464420	-0.354808
Cl150	Cl	1.146421	0.035580	0.145192
H151	H	0.955466	-0.920832	-0.569225
H152	H	1.455466	-0.420832	-0.069225
H153	H	0.633900	-0.375437	-0.679221
H154	H	1.133900	0.124563	-0.179221
H155	H	0.507308	-0.241245	-0.444709
H156	H	1.007308	0.258755	0.055291
H157	H	1.088461	-0.919715	-0.333434
H158	H	1.588461	-0.419715	0.166566
Cl159	Cl	1.111225	-0.781908	-0.299477
Cl160	Cl	1.611225	-0.281908	0.200523
H161	H	0.507168	-0.376387	-0.679297
H162	H	1.007168	0.123613	-0.179297
Cl163	Cl	0.494439	-0.248574	-0.655528
Cl164	Cl	0.994439	0.251426	-0.155528
H165	H	1.192931	-0.791857	-0.482259
H166	H	1.692931	-0.291857	0.017741
Cl167	Cl	0.963318	-0.463478	-1.130649
Cl168	Cl	1.463318	0.036522	-0.630649
Cl169	Cl	1.214278	-0.930203	-0.443289
Cl170	Cl	1.714278	-0.430203	0.056711
Cl171	Cl	0.496055	-0.458904	-0.349157
Cl172	Cl	0.996055	0.041096	0.150843
H173	H	0.633157	-0.278292	-0.641112
H174	H	1.133157	0.221708	-0.141112
