data_functionalizedCrystal
_audit_creation_method	'MofGen! by Chris Wilmer'
_symmetry_space_group_name_H-M	'P1'
_symmetry_Int_Tables_number	1
_symmetry_cell_setting	triclinic
loop_
_symmetry_equiv_pos_as_xyz
  x,y,z
_cell_length_a	14.908779
_cell_length_b	13.032721
_cell_length_c	13.033109
_cell_angle_alpha	74.856674
_cell_angle_beta	93.504272
_cell_angle_gamma	93.510971
loop_
_atom_site_label
_atom_site_type_symbol
_atom_site_fract_x
_atom_site_fract_y
_atom_site_fract_z
Zn1	Zn	-1.378216	0.580799	-0.572348
Zn2	Zn	-0.878216	1.080799	-0.072348
Zn3	Zn	-1.344550	0.733884	-0.419292
Zn4	Zn	-0.844550	1.233884	0.080708
Zn5	Zn	-1.212513	0.548467	-0.404607
Zn6	Zn	-0.712513	1.048467	0.095393
Zn7	Zn	-1.212483	0.748533	-0.604684
Zn8	Zn	-0.712483	1.248533	-0.104684
O9	O	-1.286940	0.652920	-0.500233
O10	O	-0.786940	1.152920	-0.000233
O11	O	-1.498367	0.608506	-0.544658
O12	O	-0.998367	1.108506	-0.044658
O13	O	-1.312958	0.689626	-0.269556
O14	O	-0.812958	1.189626	0.230444
O15	O	-1.248596	0.404961	-0.407179
O16	O	-0.748596	0.904961	0.092821
O17	O	-1.473633	0.720977	-0.432208
O18	O	-0.973633	1.220977	0.067792
O19	O	-1.370337	0.428715	-0.530419
O20	O	-0.870337	0.928715	-0.030419
O21	O	-1.215952	0.553401	-0.258767
O22	O	-0.715952	1.053401	0.241233
O23	O	-1.087892	0.567605	-0.438534
O24	O	-0.587892	1.067605	0.061466
O25	O	-1.248544	0.745944	-0.748182
O26	O	-0.748544	1.245944	-0.248182
O27	O	-1.087869	0.714593	-0.585530
O28	O	-0.587869	1.214593	-0.085530
O29	O	-1.370308	0.622711	-0.724426
O30	O	-0.870308	1.122711	-0.224426
O31	O	-1.312928	0.883622	-0.463563
O32	O	-0.812928	1.383622	0.036437
O33	O	-1.215899	0.894384	-0.599770
O34	O	-0.715899	1.394384	-0.099770
C35	C	-1.055569	0.639181	-0.513948
C36	C	-0.555569	1.139181	-0.013948
C37	C	-0.956587	0.633332	-0.519844
C38	C	-0.456587	1.133332	-0.019844
C39	C	-1.260784	0.927329	-0.536790
C40	C	-0.760784	1.427329	-0.036790
C41	C	-1.249679	1.044732	-0.552460
C42	C	-0.749679	1.544732	-0.052460
C43	C	-0.744830	0.739244	-0.413598
C44	C	-0.244830	1.239244	0.086402
C45	C	-0.651827	0.733752	-0.419135
C46	C	-0.151827	1.233752	0.080865
C47	C	-0.677577	0.616861	-0.536460
C48	C	-0.177577	1.116861	-0.036460
C49	C	-0.770579	0.622353	-0.530923
C50	C	-0.270579	1.122353	-0.030923
C51	C	-0.804203	0.683546	-0.469489
C52	C	-0.304203	1.183546	0.030511
C53	C	-0.897207	0.689032	-0.463946
C54	C	-0.397207	1.189032	0.036054
C55	C	-0.922955	0.572148	-0.581277
C56	C	-0.422955	1.072148	-0.081277
C57	C	-0.829952	0.566655	-0.586814
C58	C	-0.329952	1.066655	-0.086814
C59	C	-1.313178	0.689568	-0.775695
C60	C	-0.813178	1.189568	-0.275695
C61	C	-1.324359	0.705185	-0.893081
C62	C	-0.824359	1.205185	-0.393081
C63	C	-0.519215	0.666706	-0.486456
C64	C	-0.019215	1.166706	0.013544
C65	C	-0.618197	0.672561	-0.480563
C66	C	-0.118197	1.172561	0.019437
C67	C	-1.313226	0.377445	-0.463554
C68	C	-0.813226	0.877445	0.036446
C69	C	-1.324427	0.260053	-0.447924
C70	C	-0.824427	0.760053	0.052076
C71	C	-1.292788	1.091723	-0.492099
C72	C	-0.792788	1.591723	0.007901
C73	C	-1.281311	1.213065	-0.508293
C74	C	-0.781311	1.713065	-0.008293
C75	C	-1.281347	0.644746	-0.940077
C76	C	-0.781347	1.144746	-0.440077
C77	C	-1.292902	0.660885	-1.061401
C78	C	-0.792902	1.160885	-0.561401
C79	C	-1.260863	0.616342	-0.225829
C80	C	-0.760863	1.116342	0.274171
C81	C	-1.249883	0.600438	-0.108394
C82	C	-0.749883	1.100438	0.391606
H83	H	-0.924581	0.738856	-0.413921
H84	H	-0.424581	1.238856	0.086079
Br85	Br	-1.205722	0.538570	-0.857441
Br86	Br	-0.705722	1.038570	-0.357441
Br87	Br	-1.174007	1.127395	-0.658588
Br88	Br	-0.674007	1.627395	-0.158588
H89	H	-1.204499	0.536743	-1.058814
H90	H	-0.704499	1.036743	-0.558814
H91	H	-1.369838	1.210457	-0.384256
H92	H	-0.869838	1.710457	0.115744
Br93	Br	-1.368534	0.767061	-1.144033
Br94	Br	-0.868534	1.267061	-0.644033
Br95	Br	-1.003537	0.496536	-0.657118
Br96	Br	-0.503537	0.996536	-0.157118
Br97	Br	-1.399988	0.811356	-0.975716
Br98	Br	-0.899988	1.311356	-0.475716
H99	H	-0.603489	0.779109	-0.373625
H100	H	-0.103489	1.279109	0.126375
Br101	Br	-0.790467	0.822282	-0.330220
Br102	Br	-0.290467	1.322282	0.169780
H103	H	-0.650184	0.567051	-0.586487
H104	H	-0.150184	1.067051	-0.086487
H105	H	-0.802563	0.516837	-0.636835
H106	H	-0.302563	1.016837	-0.136835
H107	H	-1.235908	1.262664	-0.571968
H108	H	-0.735908	1.762664	-0.071968
Br109	Br	-1.368477	1.009063	-0.385989
Br110	Br	-0.868477	1.509063	0.114011
