data_functionalizedCrystal
_audit_creation_method	'MofGen! by Chris Wilmer'
_symmetry_space_group_name_H-M	'P1'
_symmetry_Int_Tables_number	1
_symmetry_cell_setting	triclinic
loop_
_symmetry_equiv_pos_as_xyz
  x,y,z
_cell_length_a	17.640112
_cell_length_b	12.645330
_cell_length_c	17.639306
_cell_angle_alpha	101.188554
_cell_angle_beta	87.804122
_cell_angle_gamma	101.241872
loop_
_atom_site_label
_atom_site_type_symbol
_atom_site_fract_x
_atom_site_fract_y
_atom_site_fract_z
Zn1	Zn	1.247750	-0.136260	-0.195073
Zn2	Zn	1.222016	-0.286103	-0.068104
Zn3	Zn	1.095103	-0.150249	-0.093726
Zn4	Zn	1.120733	-0.354901	-0.220679
O5	O	1.171401	-0.231878	-0.144395
O6	O	1.350608	-0.121490	-0.156791
O7	O	1.183685	-0.245144	0.034764
O8	O	1.115396	-0.000036	-0.107176
O9	O	1.331701	-0.231579	-0.063508
O10	O	1.227545	0.010242	-0.181635
O11	O	1.090442	-0.145332	0.015940
O12	O	0.992232	-0.212043	-0.132005
O13	O	1.159078	-0.348835	-0.323549
O14	O	1.011062	-0.362400	-0.225277
O15	O	1.252397	-0.188201	-0.304736
O16	O	1.208537	-0.443587	-0.088337
O17	O	1.134124	-0.494132	-0.200433
C18	C	0.974092	-0.296206	-0.184201
C19	C	0.889686	-0.323755	-0.201248
C20	C	0.563038	-0.022573	-0.014898
C21	C	0.483728	-0.048484	-0.030926
C22	C	0.503356	-0.205201	-0.127883
C23	C	0.582670	-0.179300	-0.111865
C24	C	0.612504	-0.087986	-0.055371
C25	C	0.632136	-0.244713	-0.152339
C26	C	0.711442	-0.218818	-0.136319
C27	C	0.741282	-0.127510	-0.079826
C28	C	0.691810	-0.062091	-0.039352
C29	C	0.602299	-0.336032	-0.208829
C30	C	0.651765	-0.401445	-0.249302
C31	C	0.731074	-0.375545	-0.233287
C32	C	0.760914	-0.284237	-0.176794
C33	C	0.780546	-0.440964	-0.273761
C34	C	0.859852	-0.415069	-0.257742
C35	C	0.840220	-0.258342	-0.160774
C36	C	1.171343	-0.507324	-0.144396
C37	C	1.171393	-0.625143	-0.144408
C38	C	1.124859	-0.824510	-0.215059
C39	C	1.124521	-0.702007	-0.214930
C40	C	1.133561	-0.659489	-0.068746
C41	C	1.133276	-0.782281	-0.069175
C42	C	1.255986	-0.770435	-0.148697
C43	C	1.255847	-0.648368	-0.150546
C44	C	1.369480	-0.167300	-0.104435
C45	C	1.453889	-0.139781	-0.087406
C46	C	1.211467	-0.274632	-0.342467
C47	C	1.228541	-0.292851	-0.426874
C48	C	1.171482	0.044646	-0.144407
C49	C	1.171517	0.162484	-0.144412
C50	C	1.041987	-0.092978	-0.753498
C51	C	1.058048	-0.110114	-0.832807
C52	C	1.155131	-0.214037	-0.813188
C53	C	1.139081	-0.196905	-0.733875
C54	C	1.082508	-0.136376	-0.704036
C55	C	1.179602	-0.240303	-0.684413
C56	C	1.163550	-0.223176	-0.605108
C57	C	1.106978	-0.162653	-0.575264
C58	C	1.066456	-0.119249	-0.624731
C59	C	1.236171	-0.300838	-0.714254
C60	C	1.276692	-0.344236	-0.664792
C61	C	1.260644	-0.327103	-0.585484
C62	C	1.204072	-0.266580	-0.555640
C63	C	1.301166	-0.370507	-0.536017
C64	C	1.285114	-0.353380	-0.456712
C65	C	1.188020	-0.249453	-0.476335
C66	C	1.131534	-0.189200	0.052915
C67	C	1.114607	-0.170634	0.137350
H68	H	1.150064	-0.680271	-0.271540
C69	C	1.329683	-0.401119	-0.402302
H70	H	1.365679	-0.439613	-0.431429
H71	H	1.294355	-0.450100	-0.377225
H72	H	1.356524	-0.343089	-0.364689
H73	H	1.249240	-0.314777	-0.778830
C74	C	0.618956	-0.501830	-0.311488
H75	H	0.659779	-0.537065	-0.333309
H76	H	0.594750	-0.478528	-0.350849
H77	H	0.582109	-0.551825	-0.288679
H78	H	0.805859	-0.106430	-0.066783
C79	C	1.363389	-0.437088	-0.568846
H80	H	1.367147	-0.441069	-0.623162
H81	H	1.349626	-0.509134	-0.558082
H82	H	1.411792	-0.402119	-0.545555
H83	H	0.479053	-0.279551	-0.173878
H84	H	0.443455	0.004797	0.002031
C85	C	0.515063	-0.364530	-0.226446
H86	H	0.504377	-0.428292	-0.265877
H87	H	0.499792	-0.304866	-0.243285
H88	H	0.487199	-0.378038	-0.181037
C89	C	1.013474	-0.062368	-0.887212
H90	H	0.977487	-0.023861	-0.858080
H91	H	0.986637	-0.120390	-0.924825
H92	H	1.048803	-0.013377	-0.912288
C93	C	1.217360	-0.280610	-0.846014
H94	H	1.221121	-0.284589	-0.900329
H95	H	1.203601	-0.352657	-0.835251
H96	H	1.265760	-0.245634	-0.822719
H97	H	1.150316	-0.862422	-0.271888
H98	H	0.756241	-0.515318	-0.319753
C99	C	0.873048	-0.157893	-0.098637
H100	H	0.927365	-0.151840	-0.094899
H101	H	0.849715	-0.166519	-0.050221
H102	H	0.862327	-0.093347	-0.112469
C103	C	0.724635	0.038365	0.022781
H104	H	0.683818	0.073620	0.044593
H105	H	0.761470	0.088303	-0.000082
H106	H	0.748860	0.015138	0.062170
C107	C	1.050233	-0.638594	-0.060711
H108	H	1.038372	-0.608962	-0.103373
H109	H	1.045534	-0.588103	-0.014093
H110	H	1.015382	-0.705844	-0.059727
C111	C	1.307038	-0.575127	-0.084360
H112	H	1.357686	-0.590909	-0.089531
H113	H	1.285761	-0.589178	-0.036196
H114	H	1.309257	-0.500104	-0.086526
C115	C	1.041251	-0.888397	-0.213085
H116	H	1.034656	-0.922959	-0.169392
H117	H	1.031093	-0.942570	-0.258879
H118	H	1.006423	-0.839064	-0.209748
H119	H	1.322751	-0.393523	-0.689098
C120	C	1.004218	-0.052682	-0.591905
H121	H	0.982377	-0.029294	-0.632721
H122	H	1.027010	0.009661	-0.555103
H123	H	0.964858	-0.097369	-0.567651
C124	C	0.595863	0.077883	0.047235
H125	H	0.555045	0.113137	0.069047
H126	H	0.632697	0.127821	0.024372
H127	H	0.620087	0.054656	0.086624
C128	C	1.303189	-0.777743	-0.078873
H129	H	1.271617	-0.821462	-0.047259
H130	H	1.320586	-0.706094	-0.049720
H131	H	1.346469	-0.810175	-0.096551
C132	C	0.914268	-0.487017	-0.302263
H133	H	0.885143	-0.545102	-0.338208
H134	H	0.939310	-0.516763	-0.266912
H135	H	0.951918	-0.443573	-0.329149
H136	H	1.062227	-0.689257	-0.213370
H137	H	1.071048	-0.826368	-0.063663
C138	C	0.979749	-0.026411	-0.720672
H139	H	0.957908	-0.003023	-0.761488
H140	H	1.002541	0.035933	-0.683870
H141	H	0.940389	-0.071097	-0.696418
H142	H	1.093904	-0.148719	-0.510689
C143	C	1.175992	-0.791135	0.003187
H144	H	1.193437	-0.719741	0.032718
H145	H	1.219049	-0.825252	-0.012051
H146	H	1.141828	-0.833862	0.033547
H147	H	1.165752	-0.607122	-0.015381
H148	H	1.287338	-0.807244	-0.202077
C149	C	1.125796	-0.182864	-0.443503
H150	H	1.122046	-0.178876	-0.389187
H151	H	1.077396	-0.217813	-0.466795
H152	H	1.139572	-0.110809	-0.454260
C153	C	1.294001	-0.618986	-0.225653
H154	H	1.258618	-0.592668	-0.253157
H155	H	1.307999	-0.682490	-0.256724
H156	H	1.338921	-0.563645	-0.213407
