data_functionalizedCrystal
_audit_creation_method	'MofGen! by Chris Wilmer'
_symmetry_space_group_name_H-M	'P1'
_symmetry_Int_Tables_number	1
_symmetry_cell_setting	triclinic
loop_
_symmetry_equiv_pos_as_xyz
  x,y,z
_cell_length_a	14.853566
_cell_length_b	12.503572
_cell_length_c	14.853567
_cell_angle_alpha	93.532015
_cell_angle_beta	96.365328
_cell_angle_gamma	93.520393
loop_
_atom_site_label
_atom_site_type_symbol
_atom_site_fract_x
_atom_site_fract_y
_atom_site_fract_z
O1	O	1.201553	0.089240	-0.112494
O2	O	1.701553	0.589240	0.387506
O3	O	0.939094	0.089257	-0.126516
O4	O	1.439094	0.589257	0.373484
O5	O	1.077335	0.089252	0.011725
O6	O	1.577335	0.589252	0.511725
O7	O	1.063313	0.089246	-0.250735
O8	O	1.563313	0.589246	0.249265
O9	O	1.066938	-0.089390	0.001311
O10	O	1.566938	0.410610	0.501311
O11	O	0.928698	-0.089384	-0.136930
O12	O	1.428698	0.410616	0.363070
O13	O	1.191157	-0.089401	-0.122908
O14	O	1.691157	0.410599	0.377092
Cu15	Cu	1.058978	-0.105704	-0.130870
Cu16	Cu	1.558978	0.394296	0.369130
Cu17	Cu	1.071273	0.105560	-0.118554
Cu18	Cu	1.571273	0.605560	0.381446
O19	O	1.052916	-0.089396	-0.261149
O20	O	1.552916	0.410604	0.238851
C21	C	0.900308	-0.000061	-0.131088
C22	C	1.400308	0.499939	0.368912
C23	C	0.800224	-0.000055	-0.129184
C24	C	1.300224	0.499945	0.370816
N25	N	1.050337	-0.254296	-0.139531
N26	N	1.550337	0.245704	0.360469
C27	C	0.382705	0.097304	-0.115458
C28	C	0.882705	0.597304	0.384542
C29	C	0.371392	-0.097458	-0.126812
C30	C	0.871392	0.402542	0.373188
C31	C	0.465426	-0.097455	-0.128599
C32	C	0.965426	0.402545	0.371401
C33	C	0.518104	-0.000070	-0.123817
C34	C	1.018104	0.499930	0.376183
C35	C	0.476748	0.097310	-0.117248
C36	C	0.976748	0.597310	0.382752
C37	C	0.506788	-0.194834	-0.135177
C38	C	1.006788	0.305166	0.364823
C39	C	0.600828	-0.194834	-0.136966
C40	C	1.100828	0.305166	0.363034
C41	C	0.653509	-0.097449	-0.132177
C42	C	1.153509	0.402551	0.367823
C43	C	0.612147	-0.000064	-0.125607
C44	C	1.112147	0.499936	0.374393
C45	C	0.664825	0.097320	-0.120825
C46	C	1.164825	0.597320	0.379175
C47	C	0.623466	0.194706	-0.114248
C48	C	1.123466	0.694706	0.385752
C49	C	0.529429	0.194696	-0.112459
C50	C	1.029429	0.694696	0.387541
C51	C	0.747546	-0.097439	-0.133966
C52	C	1.247546	0.402561	0.366034
C53	C	0.758868	0.097326	-0.122615
C54	C	1.258868	0.597326	0.377385
C55	C	1.037625	-0.473411	-0.152280
C56	C	1.537625	0.026589	0.347720
C57	C	1.092630	-0.526740	-0.097140
C58	C	1.592630	-0.026740	0.402860
C59	C	1.085557	-0.648663	-0.104233
C60	C	1.585557	-0.148663	0.395767
C61	C	1.044697	-0.351477	-0.145188
C62	C	1.544697	0.148523	0.354812
C63	C	1.229944	-0.000080	-0.118336
C64	C	1.729944	0.499920	0.381664
C65	C	1.330027	-0.000080	-0.120240
C66	C	1.830027	0.499920	0.379760
C67	C	1.071501	-0.000066	0.040107
C68	C	1.571501	0.499934	0.540107
C69	C	1.069598	-0.000057	0.140191
C70	C	1.569598	0.499943	0.640191
N71	N	1.079921	0.254152	-0.109886
N72	N	1.579921	0.754152	0.390114
C73	C	1.058750	-0.000076	-0.289531
C74	C	1.558750	0.499924	0.210469
C75	C	1.060654	-0.000078	-0.389615
C76	C	1.560654	0.499922	0.110385
C77	C	0.979431	-0.000071	0.552724
C78	C	1.479431	0.499929	1.052724
C79	C	1.143664	-0.000082	0.574005
C80	C	1.643664	0.499918	1.074005
C81	C	1.145454	-0.000075	0.479971
C82	C	1.645454	0.499925	0.979971
C83	C	1.064232	-0.000069	0.422309
C84	C	1.564232	0.499931	0.922309
C85	C	0.981219	-0.000068	0.458681
C86	C	1.481219	0.499932	0.958681
C87	C	1.228465	-0.000087	0.443592
C88	C	1.728465	0.499913	0.943592
C89	C	1.230258	-0.000082	0.349553
C90	C	1.730258	0.499918	0.849553
C91	C	1.149036	-0.000067	0.291890
C92	C	1.649036	0.499933	0.791890
C93	C	1.066020	-0.000066	0.328267
C94	C	1.566020	0.499934	0.828267
C95	C	0.984797	-0.000059	0.270605
C96	C	1.484797	0.499941	0.770605
C97	C	0.901781	-0.000050	0.306981
C98	C	1.401781	0.499950	0.806981
C99	C	0.899996	-0.000054	0.401018
C100	C	1.399996	0.499946	0.901018
C101	C	1.150820	-0.000063	0.197853
C102	C	1.650820	0.499937	0.697853
C103	C	0.986585	-0.000056	0.176562
C104	C	1.486585	0.499944	0.676562
H105	H	0.801753	0.176629	-0.118717
H106	H	1.301753	0.676629	0.381283
H107	H	1.294591	-0.000102	0.490546
H108	H	1.794591	0.499898	0.990546
H109	H	0.985227	-0.519316	-0.204812
H110	H	1.485227	-0.019316	0.295188
H111	H	0.666368	0.273996	-0.110360
H112	H	1.166368	0.773996	0.389640
Br113	Br	0.656950	-0.326997	-0.145892
Br114	Br	1.156950	0.173003	0.354108
H115	H	1.145033	-0.480829	-0.044605
H116	H	1.645033	0.019171	0.455395
H117	H	1.297855	-0.000088	0.319945
H118	H	1.797855	0.499912	0.819945
Br119	Br	0.803672	-0.229593	-0.142902
Br120	Br	1.303672	0.270407	0.357098
Br121	Br	0.876349	-0.000034	0.098314
Br122	Br	1.376349	0.499966	0.598314
Br123	Br	0.791554	-0.000055	0.228714
Br124	Br	1.291554	0.499945	0.728714
H125	H	0.328495	-0.176743	-0.130711
H126	H	0.828495	0.323257	0.369289
H127	H	0.463891	-0.274118	-0.139077
H128	H	0.963891	0.225882	0.360923
Br129	Br	0.787342	-0.000034	0.450391
Br130	Br	1.287342	0.499966	0.950391
Br131	Br	1.263474	-0.000102	0.148487
Br132	Br	1.763474	0.499898	0.648487
H133	H	0.911841	-0.000060	0.582345
H134	H	1.411841	0.499940	1.082345
Br135	Br	0.473299	0.326850	-0.103492
Br136	Br	0.973299	0.826850	0.396508
H137	H	1.209790	-0.000096	0.620958
H138	H	1.709790	0.499904	1.120958
H139	H	0.349027	0.176593	-0.110099
H140	H	0.849027	0.676593	0.389901
