data_functionalizedCrystal
_audit_creation_method	'MofGen! by Chris Wilmer'
_symmetry_space_group_name_H-M	'P1'
_symmetry_Int_Tables_number	1
_symmetry_cell_setting	triclinic
loop_
_symmetry_equiv_pos_as_xyz
  x,y,z
_cell_length_a	20.919309
_cell_length_b	21.606444
_cell_length_c	21.606444
_cell_angle_alpha	60.003871
_cell_angle_beta	57.440098
_cell_angle_gamma	90.000234
loop_
_atom_site_label
_atom_site_type_symbol
_atom_site_fract_x
_atom_site_fract_y
_atom_site_fract_z
Zr1	Zr	0.641757	-0.057032	0.629088
O2	O	0.535385	-0.159855	0.766217
O3	O	0.674367	-0.025513	0.497514
O4	O	0.674366	-0.154626	0.626627
O5	O	0.535386	0.071107	0.637109
O6	O	0.783996	-0.150498	0.618366
O7	O	0.535386	-0.030743	0.637104
O8	O	0.783998	0.080461	0.387407
O9	O	0.535383	-0.159852	0.868068
O10	O	0.770089	-0.008987	0.543410
O11	O	0.688274	0.063942	0.549578
O12	O	0.688272	-0.088072	0.701592
O13	O	0.606456	-0.015144	0.707760
Zr14	Zr	0.816604	0.111991	0.615920
Zr15	Zr	0.816604	-0.050448	0.615913
Zr16	Zr	0.641757	0.105407	0.629095
Zr17	Zr	0.641755	-0.057026	0.791528
Zr18	Zr	0.816606	0.111986	0.453480
O19	O	0.783994	0.080473	0.747495
O20	O	0.783994	-0.150494	0.747485
O21	O	0.535384	0.071111	0.766227
O22	O	0.922976	0.214815	0.478791
O23	O	0.922977	-0.016152	0.478781
O24	O	0.674367	0.205453	0.497524
O25	O	0.922975	-0.016148	0.607900
O26	O	0.783995	0.209586	0.618382
O27	O	0.674365	0.205458	0.626642
O28	O	0.922975	0.085702	0.607904
O29	O	0.674363	-0.154619	0.857596
O30	O	0.783998	0.209578	0.387412
O31	O	0.922978	0.214812	0.376940
O32	O	0.922978	0.085695	0.376935
O33	O	0.535383	-0.030735	0.868074
O34	O	0.674363	-0.025502	0.857602
O35	O	0.770089	0.143032	0.543417
O36	O	0.851904	0.070103	0.537248
O37	O	0.770087	-0.008982	0.695430
O38	O	0.688272	0.063946	0.701598
C39	C	0.510474	0.019244	0.638984
C40	C	0.436247	0.016449	0.644577
C41	C	0.729183	0.027473	0.419316
C42	C	0.729184	0.027471	0.350356
C43	C	0.729180	0.230666	0.622513
C44	C	0.729180	0.299625	0.622516
C45	C	0.444080	0.056414	0.564637
C46	C	0.374333	0.053786	0.569898
C47	C	0.296754	0.011188	0.655099
C48	C	0.288922	-0.028778	0.735044
C49	C	0.358668	-0.026145	0.729783
C50	C	0.084028	0.001177	0.675116
C51	C	0.014281	-0.001454	0.680371
C52	C	0.099697	0.081111	0.515224
C53	C	0.169441	0.083736	0.509970
C54	C	0.161603	0.043773	0.589915
C55	C	0.225460	0.008499	0.660478
C56	C	0.232896	0.046468	0.584535
C57	C	0.947887	0.035715	0.606025
C58	C	1.022114	0.038510	0.600432
C59	C	0.729181	-0.175706	0.622495
C60	C	0.729181	-0.244666	0.622492
C61	C	0.686474	0.290743	0.705084
C62	C	0.686470	0.355540	0.705082
C63	C	0.729178	0.429219	0.622510
C64	C	0.771886	0.438100	0.539935
C65	C	0.771884	0.373303	0.539939
C66	C	0.771892	0.699418	0.539920
C67	C	0.771892	0.764216	0.539923
C68	C	0.686478	0.681655	0.705063
C69	C	0.686477	0.616858	0.705067
C70	C	0.729180	0.625744	0.622493
C71	C	0.729183	0.555483	0.622496
C72	C	0.729181	0.499479	0.622506
C73	C	0.771889	-0.010598	0.314739
C74	C	0.771891	-0.010593	0.249938
C75	C	0.729184	0.027477	0.220761
C76	C	0.686478	0.065551	0.256381
C77	C	0.686480	0.065550	0.321175
C78	C	0.686468	0.065557	-0.004927
C79	C	0.686467	0.065553	-0.069724
C80	C	0.771880	-0.010586	-0.076164
C81	C	0.771882	-0.010587	-0.011370
C82	C	0.729179	0.027490	0.024241
C83	C	0.729178	0.027485	0.094503
C84	C	0.729180	0.027478	0.150505
C85	C	0.729178	0.027486	0.825692
C86	C	0.729177	0.027488	0.894653
C87	C	0.947889	0.035709	0.402837
C88	C	1.022117	0.038502	0.328283
C89	C	0.729182	0.230659	0.419325
C90	C	0.729183	0.299616	0.350367
C91	C	0.947889	0.238895	0.402845
C92	C	1.022117	0.310647	0.328295
C93	C	0.510472	-0.183935	0.842163
C94	C	0.436244	-0.255687	0.916713
C95	C	0.510472	0.019251	0.842172
C96	C	0.436244	0.016458	0.916725
C97	C	0.729178	-0.175700	0.825684
C98	C	0.729178	-0.244657	0.894641
C99	C	1.014269	-0.001478	0.296489
C100	C	1.084007	0.001131	0.226447
C101	C	1.161593	0.043724	0.188198
C102	C	1.169440	0.083705	0.219999
C103	C	1.099702	0.081091	0.290043
C104	C	0.771890	0.373290	0.314768
C105	C	0.771888	0.438089	0.249985
C106	C	0.729183	0.429212	0.220797
C107	C	0.686470	0.355530	0.256403
C108	C	0.686468	0.290733	0.321190
C109	C	1.099689	0.306275	0.290065
C110	C	1.169441	0.373688	0.220026
C111	C	1.161618	0.445472	0.188213
C112	C	1.084038	0.449842	0.226450
C113	C	1.014288	0.382430	0.296493
C114	C	0.358672	-0.251315	0.954951
C115	C	0.288920	-0.318728	1.025010
C116	C	0.296743	-0.390513	1.056826
C117	C	0.374323	-0.394883	1.018585
C118	C	0.444073	-0.327471	0.948532
C119	C	0.444092	0.056431	0.948526
C120	C	0.374354	0.053804	1.018586
C121	C	0.296768	0.011209	1.056837
C122	C	0.288921	-0.028769	1.025033
C123	C	0.358658	-0.026146	0.954980
C124	C	0.771891	-0.235755	0.923807
C125	C	0.771907	-0.300541	0.988590
C126	C	0.729203	-0.374228	1.024210
C127	C	0.686488	-0.383128	0.995037
C128	C	0.686478	-0.318343	0.930251
H129	H	0.507246	0.091105	0.495257
H130	H	0.225758	-0.315155	1.056135
Br131	Br	0.729224	-0.462144	1.112137
Br132	Br	0.628502	0.117223	-0.109321
Br133	Br	0.829856	0.864213	0.427853
Br134	Br	0.110328	0.135345	0.406733
Br135	Br	0.628533	0.117234	0.216768
Br136	Br	1.274742	0.141509	0.168077
Br137	Br	0.384926	-0.492311	1.061773
H138	H	0.651696	0.348301	0.772318
H139	H	0.806667	0.706664	0.472683
Br140	Br	0.628496	-0.330438	0.890684
Br141	Br	-0.091010	-0.059280	0.796009
H142	H	0.380719	0.086330	0.504802
H143	H	0.077636	-0.031376	0.740213
H144	H	0.651703	0.556868	0.772305
H145	H	1.218371	0.045846	0.131163
H146	H	0.507234	-0.331039	0.917399
Br147	Br	0.829877	-0.288445	1.028171
Br148	Br	0.628526	0.117222	0.369509
H149	H	0.296064	0.081154	0.515165
H150	H	0.225741	-0.063449	1.056188
Br151	Br	0.348033	-0.153903	0.911785
Br152	Br	0.829845	-0.062274	0.354336
Br153	Br	0.829840	0.538093	0.427872
Br154	Br	0.183635	-0.086581	0.850676
H155	H	0.951128	0.386000	0.327611
H156	H	0.239941	-0.445398	1.113869
H157	H	1.218419	0.500357	0.131180
Br158	Br	0.120169	-0.049308	0.776105
Br159	Br	0.628521	0.117239	0.043387
H160	H	0.806666	-0.041591	0.220938
H161	H	0.651720	-0.443132	1.024049
H162	H	0.507260	0.091121	0.917387
Br163	Br	0.628520	0.669597	0.817131
Br164	Br	0.829860	0.538076	0.201675
Br165	Br	0.829839	0.385359	0.427878
H166	H	0.239990	0.009079	1.113879
Br167	Br	0.274725	0.141546	0.394336
H168	H	0.806655	-0.041590	0.012387
H169	H	0.380759	0.086362	1.044468
Br170	Br	0.908982	-0.059291	0.348386
H171	H	0.352257	-0.058695	0.929090
H172	H	0.729191	0.481981	0.168043
Br173	Br	0.829853	-0.135760	0.875480
H174	H	0.352285	-0.058679	0.794878
H175	H	0.806653	-0.041587	-0.105169
Br176	Br	0.628517	0.190753	0.817152
H177	H	1.077602	-0.031426	0.200564
H178	H	1.232604	0.370116	0.188900
H179	H	1.106104	0.113652	0.315922
Br180	Br	0.628517	0.343496	0.216781
Br181	Br	0.829859	0.385359	0.354360
H182	H	1.106074	0.247831	0.315956
Br183	Br	0.628506	0.190749	0.369492
H184	H	1.077680	0.508298	0.200538
