data_functionalizedCrystal
_audit_creation_method	'MofGen! by Chris Wilmer'
_symmetry_space_group_name_H-M	'P1'
_symmetry_Int_Tables_number	1
_symmetry_cell_setting	triclinic
loop_
_symmetry_equiv_pos_as_xyz
  x,y,z
_cell_length_a	15.995350
_cell_length_b	14.472310
_cell_length_c	10.654550
_cell_angle_alpha	90.000182
_cell_angle_beta	96.011361
_cell_angle_gamma	90.009379
loop_
_atom_site_label
_atom_site_type_symbol
_atom_site_fract_x
_atom_site_fract_y
_atom_site_fract_z
O1	O	1.111936	0.076760	-0.161864
O2	O	0.868277	0.076779	-0.181854
O3	O	0.995709	0.076766	0.010953
O4	O	0.984505	0.076773	-0.354671
O5	O	0.995676	-0.076916	0.010942
O6	O	0.868244	-0.076903	-0.181865
O7	O	1.111903	-0.076922	-0.161876
Cu8	Cu	0.990071	-0.090945	-0.171871
Cu9	Cu	0.990110	0.090802	-0.171858
O10	O	0.984472	-0.076909	-0.354683
C11	C	0.837061	-0.000060	-0.181033
C12	C	0.744096	-0.000052	-0.178555
C13	C	0.406297	-0.000072	-0.169658
C14	C	0.452934	-0.000418	-0.032344
C15	C	0.549639	-0.000065	-0.034822
C16	C	0.573883	-0.000063	-0.174071
C17	C	0.533208	0.087695	-0.241793
C18	C	0.436553	0.087762	-0.238343
C19	C	0.436193	-0.087003	-0.241193
C20	C	0.533138	-0.088157	-0.241160
C21	C	0.668595	-0.000055	-0.176573
C22	C	0.311585	-0.000074	-0.167161
N23	N	0.990049	-0.218776	-0.171880
C24	C	0.990109	-0.592867	-0.171853
C25	C	0.921690	-0.553694	-0.274674
C26	C	0.921851	-0.446606	-0.275049
C27	C	0.990079	-0.407276	-0.171866
C28	C	1.077609	-0.446119	-0.200486
C29	C	1.077226	-0.553241	-0.201217
C30	C	0.971775	-0.553397	-0.040107
C31	C	0.969776	-0.446270	-0.040986
C32	C	0.990067	-0.302388	-0.171871
C33	C	0.990126	-0.697755	-0.171851
C34	C	1.143119	-0.000081	-0.162696
C35	C	1.236084	-0.000082	-0.165174
C36	C	0.994870	-0.000074	0.057735
C37	C	0.992409	-0.000071	0.197146
N38	N	0.990138	0.218633	-0.171840
C39	C	0.985311	-0.000067	-0.401464
C40	C	0.987772	-0.000064	-0.540875
C41	C	1.067438	-0.000079	0.277612
C42	C	1.065121	-0.000073	0.408603
C43	C	0.912737	-0.000053	0.378648
C44	C	0.915055	-0.000053	0.247660
C45	C	1.155416	-0.000095	0.294907
C46	C	1.153098	-0.000088	0.425897
H47	H	0.434079	-0.063352	0.022539
H48	H	0.849758	-0.000037	0.419794
H49	H	0.909292	-0.580461	-0.012587
H50	H	1.183417	-0.066454	0.259641
H51	H	1.129770	-0.420641	-0.127588
H52	H	0.577745	-0.062973	0.018411
H53	H	0.433036	0.062168	0.022295
H54	H	1.179701	0.066266	0.471893
H55	H	0.856812	-0.420345	-0.257998
H56	H	0.404890	0.091746	-0.339156
H57	H	0.856442	-0.579477	-0.257903
H58	H	0.853959	-0.000033	0.182149
H59	H	0.577199	0.062951	0.018780
H60	H	1.186233	-0.064405	0.468086
H61	H	0.417972	0.153362	-0.188948
H62	H	0.905383	-0.420883	-0.019266
H63	H	0.560153	-0.153080	-0.191724
H64	H	1.189841	0.064214	0.266003
H65	H	0.547928	0.090960	-0.344095
H66	H	1.021660	-0.578729	0.036409
H67	H	0.933319	-0.580602	-0.371890
H68	H	0.561324	0.153005	-0.194747
H69	H	0.415382	-0.153522	-0.196307
H70	H	1.093266	-0.578216	-0.297298
H71	H	1.016314	-0.419501	0.039114
H72	H	0.549091	-0.093456	-0.342706
H73	H	1.094013	-0.419281	-0.295472
H74	H	0.405019	-0.087595	-0.342433
H75	H	0.933638	-0.420971	-0.372815
H76	H	1.129769	-0.579152	-0.129280
