data_functionalizedCrystal
_audit_creation_method	'MofGen! by Chris Wilmer'
_symmetry_space_group_name_H-M	'P1'
_symmetry_Int_Tables_number	1
_symmetry_cell_setting	triclinic
loop_
_symmetry_equiv_pos_as_xyz
  x,y,z
_cell_length_a	17.699077
_cell_length_b	17.019294
_cell_length_c	16.776229
_cell_angle_alpha	86.114377
_cell_angle_beta	89.993415
_cell_angle_gamma	83.337580
loop_
_atom_site_label
_atom_site_type_symbol
_atom_site_fract_x
_atom_site_fract_y
_atom_site_fract_z
O1	O	1.004150	0.099735	-0.073122
O2	O	1.504150	0.599735	0.426878
O3	O	0.783780	0.112718	-0.074017
O4	O	1.283780	0.612718	0.425983
O5	O	0.900112	-0.008619	-0.065683
O6	O	1.400112	0.491381	0.434317
O7	O	0.887818	0.221071	-0.081457
O8	O	1.387818	0.721071	0.418543
O9	O	0.900097	-0.008626	0.066894
O10	O	1.400097	0.491374	0.566894
O11	O	0.783764	0.112711	0.058560
O12	O	1.283764	0.612711	0.558560
O13	O	1.004135	0.099727	0.059455
O14	O	1.504135	0.599727	0.559455
Zn15	Zn	0.893947	0.106218	0.080057
Zn16	Zn	1.393947	0.606218	0.580057
Zn17	Zn	0.893967	0.106227	-0.094619
Zn18	Zn	1.393967	0.606227	0.405381
O19	O	0.887802	0.221064	0.051120
O20	O	1.387802	0.721064	0.551120
C21	C	0.755575	0.112250	-0.007697
C22	C	1.255575	0.612250	0.492303
C23	C	0.671556	0.110857	-0.007603
C24	C	1.171556	0.610857	0.492397
C25	C	0.632079	0.110196	0.064711
C26	C	1.132079	0.610196	0.564711
C27	C	0.553136	0.108874	0.064802
C28	C	1.053136	0.608874	0.564802
C29	C	0.513669	0.108219	-0.007421
C30	C	1.013669	0.608219	0.492579
C31	C	0.553151	0.108877	-0.079740
C32	C	1.053151	0.608877	0.420260
C33	C	0.632094	0.110193	-0.079831
C34	C	1.132094	0.610193	0.420169
C35	C	0.234784	0.103569	-0.079377
C36	C	0.734784	0.603569	0.420623
C37	C	0.155836	0.102255	-0.079281
C38	C	0.655836	0.602255	0.420719
C39	C	0.155826	0.102250	0.065256
C40	C	0.655826	0.602250	0.565256
C41	C	0.234769	0.103566	0.065165
C42	C	0.734769	0.603566	0.565165
C43	C	0.274245	0.104220	-0.007153
C44	C	0.774245	0.604220	0.492847
C45	C	0.359844	0.105651	-0.007251
C46	C	0.859844	0.605651	0.492749
C47	C	0.428070	0.106793	-0.007324
C48	C	0.928070	0.606793	0.492676
C49	C	0.899638	-0.038011	0.002622
C50	C	1.399638	0.461989	0.502622
C51	C	0.898239	-0.125579	0.008631
C52	C	1.398239	0.374421	0.508631
C53	C	0.897592	-0.166710	-0.060813
C54	C	1.397592	0.333290	0.439187
C55	C	0.896273	-0.248988	-0.055165
C56	C	1.396273	0.251012	0.444835
C57	C	0.895606	-0.290135	0.019928
C58	C	1.395606	0.209865	0.519928
C59	C	0.896251	-0.248998	0.089378
C60	C	1.396251	0.251002	0.589378
C61	C	0.897565	-0.166720	0.083729
C62	C	1.397565	0.333280	0.583729
C63	C	0.891634	-0.538561	0.040600
C64	C	1.391634	-0.038561	0.540600
C65	C	0.890322	-0.620845	0.046244
C66	C	1.390322	-0.120845	0.546244
C67	C	0.890343	-0.620830	-0.098300
C68	C	1.390343	-0.120830	0.401700
C69	C	0.891661	-0.538551	-0.103942
C70	C	1.391661	-0.038551	0.396058
C71	C	0.892302	-0.497420	-0.034493
C72	C	1.392302	0.002580	0.465507
C73	C	0.894260	-0.374238	0.025703
C74	C	1.394260	0.125762	0.525703
C75	C	0.893643	-0.413319	-0.040269
C76	C	1.393643	0.086681	0.459731
C77	C	1.032340	0.100195	-0.006867
C78	C	1.532340	0.600195	0.493133
C79	C	1.116359	0.101589	-0.006966
C80	C	1.616359	0.601589	0.493034
C81	C	0.888276	0.250456	-0.017187
C82	C	1.388276	0.750456	0.482813
C83	C	0.889675	0.338024	-0.023201
C84	C	1.389675	0.838024	0.476799
N85	N	0.893939	0.106211	0.199268
N86	N	1.393939	0.606211	0.699268
N87	N	0.893982	0.106228	-0.213831
N88	N	1.393982	0.606228	0.286169
C89	C	0.945466	0.052505	0.244674
C90	C	1.445466	0.552505	0.744674
C91	C	0.945471	0.052504	0.328127
C92	C	1.445471	0.552504	0.828127
C93	C	0.893950	0.106214	0.366171
C94	C	1.393950	0.606214	0.866171
C95	C	0.842417	0.159922	0.320759
C96	C	1.342417	0.659922	0.820759
C97	C	0.842410	0.159918	0.237309
C98	C	1.342410	0.659918	0.737309
C99	C	0.842444	0.159938	0.657305
C100	C	1.342444	0.659938	1.157305
C101	C	0.842457	0.159939	0.740762
C102	C	1.342457	0.659939	1.240762
C103	C	0.945505	0.052523	0.748123
C104	C	1.445505	0.552523	1.248123
C105	C	0.945498	0.052519	0.664673
C106	C	1.445498	0.552519	1.164673
C107	C	0.893963	0.106225	0.619268
C108	C	1.393963	0.606225	1.119268
C109	C	0.893958	0.106224	0.528780
C110	C	1.393958	0.606224	1.028780
C111	C	0.893958	0.106219	0.456658
C112	C	1.393958	0.606219	0.956658
H113	H	0.664206	0.110736	0.123523
H114	H	1.164206	0.610736	0.623523
H115	H	0.894180	-0.379813	-0.101409
H116	H	1.394180	0.120187	0.398591
C117	C	0.509652	0.108627	0.144311
C118	C	1.009652	0.608627	0.644311
H119	H	0.456967	0.107885	0.134013
H120	H	0.956967	0.607885	0.634013
H121	H	0.516911	0.154972	0.170510
H122	H	1.016911	0.654972	0.670510
H123	H	0.528227	0.062997	0.177448
H124	H	1.028227	0.562997	0.677448
C125	C	0.509740	0.108158	-0.159184
C126	C	1.009740	0.608158	0.340816
H127	H	0.457069	0.107288	-0.148776
H128	H	0.957069	0.607288	0.351224
H129	H	0.528503	0.062393	-0.185738
H130	H	1.028503	0.562393	0.314262
H131	H	0.516858	0.154365	-0.192049
H132	H	1.016858	0.654365	0.307951
C133	C	0.278179	0.104282	0.144611
C134	C	0.778179	0.604282	0.644611
H135	H	0.243362	0.103691	0.187693
H136	H	0.743362	0.603691	0.687693
H137	H	0.303153	0.150776	0.144425
H138	H	0.803153	0.650776	0.644425
H139	H	0.314796	0.058804	0.150733
H140	H	0.814796	0.558804	0.650733
C141	C	0.889647	-0.666072	-0.174689
C142	C	1.389647	-0.166072	0.325311
H143	H	0.890242	-0.629783	-0.220220
H144	H	1.390242	-0.129783	0.279780
H145	H	0.845025	-0.692076	-0.175921
H146	H	1.345025	-0.192076	0.324079
H147	H	0.933261	-0.704262	-0.175061
H148	H	1.433261	-0.204262	0.324939
H149	H	0.898139	-0.133214	-0.121962
H150	H	1.398139	0.366786	0.378038
C151	C	0.112394	0.101589	0.144802
C152	C	0.612394	0.601589	0.644802
H153	H	0.059724	0.100724	0.134515
H154	H	0.559724	0.600724	0.634515
H155	H	0.119525	0.147809	0.171275
H156	H	0.619525	0.647809	0.671275
H157	H	0.131129	0.055836	0.177682
H158	H	0.631129	0.555836	0.677682
H159	H	0.893720	-0.407749	0.086845
H160	H	1.393720	0.092251	0.586845
C161	C	0.112424	0.101530	-0.158730
C162	C	0.612424	0.601530	0.341270
H163	H	0.147241	0.102102	-0.201814
H164	H	0.647241	0.602102	0.298186
H165	H	0.075806	0.147002	-0.164859
H166	H	0.575806	0.647002	0.335141
H167	H	0.087453	0.055029	-0.158534
H168	H	0.587453	0.555029	0.341466
H169	H	0.987453	0.008787	0.633700
H170	H	1.487453	0.508787	1.133700
H171	H	0.898081	-0.133231	0.140278
H172	H	1.398081	0.366769	0.640278
C173	C	0.785765	0.219017	0.607370
C174	C	1.285765	0.719017	1.107370
H175	H	0.755090	0.251010	0.641982
H176	H	1.255090	0.751010	1.141982
H177	H	0.754286	0.190685	0.576772
H178	H	1.254286	0.690685	1.076772
H179	H	0.812954	0.251821	0.572554
H180	H	1.312954	0.751821	1.072554
C181	C	0.278197	0.104297	-0.158924
C182	C	0.778197	0.604297	0.341076
H183	H	0.243382	0.103727	-0.201923
H184	H	0.743382	0.603727	0.298077
H185	H	0.314817	0.058827	-0.158811
H186	H	0.814817	0.558827	0.341189
H187	H	0.303166	0.150800	-0.165122
H188	H	0.803166	0.650800	0.334878
H189	H	0.892205	-0.505055	-0.165091
H190	H	1.392205	-0.005055	0.334909
C191	C	0.785769	0.219008	0.782610
C192	C	1.285769	0.719008	1.282610
H193	H	0.755067	0.250984	0.743618
H194	H	1.255067	0.750984	1.243618
H195	H	0.812947	0.251817	0.812906
H196	H	1.312947	0.751817	1.312906
H197	H	0.754306	0.190653	0.817117
H198	H	1.254306	0.690653	1.317117
H199	H	0.800464	0.203651	0.351740
H200	H	1.300464	0.703651	0.851740
C201	C	0.889580	-0.666104	0.128850
C202	C	1.389580	-0.166104	0.628850
H203	H	0.890142	-0.629824	0.169403
H204	H	1.390142	-0.129824	0.669403
H205	H	0.933182	-0.704302	0.134482
H206	H	1.433182	-0.204302	0.634482
H207	H	0.844946	-0.692100	0.133628
H208	H	1.344946	-0.192100	0.633628
C209	C	0.892352	-0.493330	0.116992
C210	C	1.392352	0.006670	0.616992
H211	H	0.891777	-0.529623	0.162521
H212	H	1.391777	-0.029623	0.662521
H213	H	0.848751	-0.455131	0.117381
H214	H	1.348751	0.044869	0.617381
H215	H	0.936986	-0.467337	0.118209
H216	H	1.436986	0.032663	0.618209
H217	H	0.987423	0.008771	0.213704
H218	H	1.487423	0.508771	0.713704
C219	C	1.002188	-0.006562	0.798067
C220	C	1.502188	0.493438	1.298067
H221	H	1.032875	-0.038543	0.763456
H222	H	1.532875	0.461457	1.263456
H223	H	0.975006	-0.039365	0.832883
H224	H	1.475006	0.460635	1.332883
H225	H	1.033666	0.021779	0.828665
H226	H	1.533666	0.521779	1.328665
H227	H	0.800450	0.203650	0.200339
H228	H	1.300450	0.703650	0.700339
H229	H	0.664234	0.110733	-0.138716
H230	H	1.164234	0.610733	0.361284
H231	H	0.895749	-0.282474	-0.111714
H232	H	1.395749	0.217526	0.388286
H233	H	0.895703	-0.282506	0.150520
H234	H	1.395703	0.217494	0.650520
C235	C	1.002158	-0.006565	0.378070
C236	C	1.502158	0.493435	0.878070
H237	H	1.032848	-0.038544	0.343459
H238	H	1.532848	0.461456	0.843459
H239	H	0.974981	-0.039371	0.412889
H240	H	1.474981	0.460629	0.912889
H241	H	1.033632	0.021783	0.408664
H242	H	1.533632	0.521783	0.908664
