data_functionalizedCrystal
_audit_creation_method	'MofGen! by Chris Wilmer'
_symmetry_space_group_name_H-M	'P1'
_symmetry_Int_Tables_number	1
_symmetry_cell_setting	triclinic
loop_
_symmetry_equiv_pos_as_xyz
  x,y,z
_cell_length_a	14.395555
_cell_length_b	18.426585
_cell_length_c	18.426585
_cell_angle_alpha	90.001096
_cell_angle_beta	60.003001
_cell_angle_gamma	60.000928
loop_
_atom_site_label
_atom_site_type_symbol
_atom_site_fract_x
_atom_site_fract_y
_atom_site_fract_z
Zr1	Zr	1.016825	-0.095265	0.699134
O2	O	1.210608	-0.211141	0.583262
O3	O	0.823033	-0.059741	0.734652
O4	O	1.016820	-0.211142	0.734656
O5	O	1.016827	0.059686	0.583258
O6	O	1.016827	-0.211145	0.854082
O7	O	1.016820	-0.059740	0.583258
O8	O	0.670176	0.059683	0.854075
O9	O	1.363477	-0.211143	0.583266
O10	O	0.902750	-0.044595	0.838930
O11	O	0.902750	0.044533	0.749804
O12	O	1.130910	-0.133722	0.749809
O13	O	1.130910	-0.044593	0.660683
Zr14	Zr	1.016845	0.095201	0.889605
Zr15	Zr	1.016835	-0.095270	0.889605
Zr16	Zr	1.016835	0.095205	0.699135
Zr17	Zr	1.260634	-0.095268	0.699140
Zr18	Zr	0.773036	0.095204	0.889600
O19	O	1.210637	0.059677	0.854087
O20	O	1.210623	-0.211148	0.854087
O21	O	1.210623	0.059684	0.583263
O22	O	0.823062	0.211076	1.005477
O23	O	0.823047	-0.059748	1.005477
O24	O	0.823047	0.211083	0.734653
O25	O	1.016843	-0.059751	1.005481
O26	O	1.016850	0.211078	0.854083
O27	O	1.016843	0.211081	0.734657
O28	O	1.016850	0.059675	1.005482
O29	O	1.363486	-0.211146	0.734665
O30	O	0.670184	0.211082	0.854075
O31	O	0.670193	0.211078	1.005474
O32	O	0.670184	0.059679	1.005473
O33	O	1.363486	-0.059744	0.583266
O34	O	1.363494	-0.059748	0.734665
O35	O	0.902760	0.133657	0.838931
O36	O	0.902760	0.044529	0.928057
O37	O	1.130920	-0.044598	0.838935
O38	O	1.130920	0.044531	0.749809
C39	C	0.711867	-0.000029	0.794363
C40	C	0.608363	-0.000027	0.794360
C41	C	1.016822	-0.000026	0.556120
C42	C	1.016818	-0.000024	0.475261
C43	C	1.016848	0.238217	0.794370
C44	C	1.016852	0.319077	0.794371
C45	C	0.547771	0.048572	0.745768
C46	C	0.562021	-0.035234	0.710549
C47	C	0.409718	0.083754	0.829558
C48	C	0.624040	-0.083883	0.759093
C49	C	0.471673	0.035165	0.878148
C50	C	0.485970	-0.048691	0.842950
C51	C	1.321803	-0.000036	0.794377
C52	C	1.425307	-0.000037	0.794379
C53	C	1.016822	-0.238282	0.794369
C54	C	1.016818	-0.319141	0.794369
C55	C	1.016813	0.615192	0.794372
C56	C	1.016818	0.532806	0.794374
C57	C	1.016832	0.467137	0.794372
C58	C	1.016838	0.384746	0.794372
C59	C	1.016857	-0.000040	0.179146
C60	C	1.016852	-0.000038	0.261532
C61	C	1.016838	-0.000033	0.327200
C62	C	1.016832	-0.000029	0.409592
C63	C	1.016848	-0.000038	1.032619
C64	C	1.016852	-0.000040	1.113479
C65	C	0.711880	-0.000035	1.032612
C66	C	0.608381	-0.000035	1.113470
C67	C	0.711880	0.238221	0.794363
C68	C	0.608381	0.319082	0.794361
C69	C	0.711893	0.238215	1.032613
C70	C	0.608398	0.319074	1.113470
C71	C	1.321777	-0.238279	0.556127
C72	C	1.425272	-0.319138	0.475269
C73	C	1.321790	-0.000030	0.556127
C74	C	1.425289	-0.000029	0.475270
C75	C	1.321790	-0.238285	0.794376
C76	C	1.425289	-0.319146	0.794379
C77	C	0.559771	-0.046566	1.104918
C78	C	0.462537	-0.046584	1.180885
C79	C	0.413906	-0.000067	1.265402
C80	C	0.462525	0.046465	1.273952
C81	C	0.559765	0.046477	1.197986
C82	C	0.559782	0.403585	0.840883
C83	C	0.462547	0.479570	0.840877
C84	C	0.413906	0.471049	0.794355
C85	C	0.462515	0.386538	0.747827
C86	C	0.559755	0.310555	0.747828
C87	C	0.559796	0.310522	1.197973
C88	C	0.462565	0.386490	1.273954
C89	C	0.413932	0.471009	1.265431
C90	C	0.462544	0.479560	1.180920
C91	C	0.559779	0.403592	1.104940
C92	C	1.473886	-0.310586	0.390767
C93	C	1.571147	-0.386554	0.314786
C94	C	1.619785	-0.471074	0.323308
C95	C	1.571167	-0.479624	0.407820
C96	C	1.473915	-0.403657	0.483799
C97	C	1.473909	0.046493	0.483822
C98	C	1.571170	0.046491	0.407855
C99	C	1.619804	-0.000029	0.323338
C100	C	1.571181	-0.046557	0.314788
C101	C	1.473927	-0.046559	0.390754
C102	C	1.473899	-0.310598	0.840911
C103	C	1.571134	-0.386568	0.840930
C104	C	1.619765	-0.471086	0.794412
C105	C	1.571146	-0.479633	0.747879
C106	C	1.473905	-0.403663	0.747865
H107	H	0.574997	0.089610	0.704619
O108	O	0.309012	0.553013	0.794374
H109	H	0.346321	0.552986	0.725103
H110	H	0.599311	0.241752	0.709947
H111	H	0.599201	-0.065009	0.639698
H112	H	1.434338	-0.410636	0.709969
O113	O	0.745318	-0.177788	0.719552
H114	H	0.821768	-0.177043	0.719820
O115	O	0.612239	0.219370	1.207184
H116	H	0.688014	0.167971	1.140160
H117	H	1.698994	-0.000020	0.261488
H118	H	0.459027	-0.089852	0.884042
O119	O	0.309027	-0.000090	1.347330
H120	H	0.283377	0.040066	1.407543
O121	O	0.410190	0.377250	1.365096
H122	H	0.334433	0.444269	1.416505
H123	H	1.434319	-0.241786	0.878791
O124	O	1.421434	-0.219431	0.381561
H125	H	1.440081	-0.182586	0.413964
H126	H	0.334756	0.532860	1.327306
O127	O	1.623566	-0.377334	0.891116
H128	H	1.604880	-0.409701	0.942555
H129	H	0.422932	0.548385	1.173994
H130	H	0.422916	0.084337	1.342776
H131	H	1.610793	-0.084432	0.245963
O132	O	1.623544	-0.377315	0.223644
H133	H	1.667813	-0.340398	0.215928
O134	O	0.612171	0.412820	1.013798
H135	H	0.561994	0.484356	1.020646
H136	H	0.599365	-0.084456	1.036106
H137	H	1.698974	-0.532924	0.261434
H138	H	1.434344	-0.084441	0.383778
O139	O	1.623622	-0.570786	0.417008
H140	H	1.699401	-0.622166	0.349973
O141	O	0.612172	0.096681	1.207214
H142	H	0.561999	0.129031	1.278748
O143	O	0.612239	0.412785	0.891060
H144	H	0.562108	0.484316	0.923396
H145	H	1.434334	-0.410630	0.552603
O146	O	0.410112	-0.096774	1.171645
H147	H	0.334338	-0.088985	1.238663
O148	O	1.421483	0.096656	0.574976
H149	H	1.471660	0.128989	0.568145
H150	H	1.610743	0.084383	0.414834
H151	H	0.434512	0.064960	0.948983
O152	O	0.288371	0.177607	0.868984
H153	H	0.313319	0.217809	0.828520
H154	H	1.698945	-0.532938	0.794430
H155	H	0.422981	0.548375	0.878769
O156	O	1.623581	-0.570785	0.697704
H157	H	1.730855	-0.607624	0.646283
O158	O	0.410012	0.377352	0.697679
H159	H	0.334210	0.444390	0.705518
