data_functionalizedCrystal
_audit_creation_method	'MofGen! by Chris Wilmer'
_symmetry_space_group_name_H-M	'P1'
_symmetry_Int_Tables_number	1
_symmetry_cell_setting	triclinic
loop_
_symmetry_equiv_pos_as_xyz
  x,y,z
_cell_length_a	12.594517
_cell_length_b	18.050589
_cell_length_c	12.594509
_cell_angle_alpha	90.027696
_cell_angle_beta	90.014305
_cell_angle_gamma	90.028178
loop_
_atom_site_label
_atom_site_type_symbol
_atom_site_fract_x
_atom_site_fract_y
_atom_site_fract_z
Zn1	Zn	1.627177	-0.295638	0.601665
Zn2	Zn	1.627030	-0.419842	0.423688
Zn3	Zn	1.449181	-0.295670	0.423715
Zn4	Zn	1.449125	-0.419791	0.601640
O5	O	1.538128	-0.357735	0.512677
O6	O	1.776103	-0.312122	0.578055
O7	O	1.603400	-0.403405	0.274745
O8	O	1.472877	-0.191741	0.447343
O9	O	1.775995	-0.403374	0.447296
O10	O	1.603650	-0.191718	0.578081
O11	O	1.472735	-0.312177	0.274766
O12	O	1.300228	-0.312127	0.447318
O13	O	1.472782	-0.403287	0.750589
O14	O	1.300187	-0.403318	0.578039
O15	O	1.603596	-0.312072	0.750607
O16	O	1.603346	-0.523760	0.447271
O17	O	1.472640	-0.523722	0.578012
C18	C	1.261587	-0.357721	0.512679
C19	C	1.143282	-0.357732	0.512706
C20	C	1.003274	-0.407421	0.583673
C21	C	1.074039	-0.425498	0.486531
C22	C	1.074088	-0.339689	0.609836
C23	C	1.003261	-0.375868	0.415481
C24	C	1.003305	-0.290028	0.538852
C25	C	1.074038	-0.308079	0.441643
C26	C	1.538000	-0.550687	0.512659
C27	C	1.538042	-0.633233	0.512687
C28	C	1.467034	-0.832690	0.583759
C29	C	1.441086	-0.882135	0.486637
C30	C	1.538147	-0.784363	0.512701
C31	C	1.564147	-0.882000	0.609834
C32	C	1.538246	-0.930348	0.512723
C33	C	1.512147	-0.832721	0.415528
C34	C	1.635254	-0.832582	0.538790
C35	C	1.609342	-0.882004	0.441601
C36	C	1.538087	-0.700265	0.512690
C37	C	1.538306	-1.014445	0.512723
C38	C	1.815749	-0.357750	0.512675
C39	C	1.934054	-0.357756	0.512674
C40	C	1.538199	-0.357670	0.790298
C41	C	1.538230	-0.357642	0.908603
C42	C	1.538286	-0.164029	0.512718
C43	C	1.538354	-0.081484	0.512735
C44	C	1.538118	-0.357746	0.236136
C45	C	1.538294	-0.357565	0.117831
C46	C	1.467103	-0.407226	0.977847
C47	C	1.564218	-0.425371	1.048625
C48	C	1.441191	-0.339452	1.048624
C49	C	1.635396	-0.375823	0.977824
C50	C	1.512303	-0.289873	0.977816
C51	C	1.609485	-0.307993	1.048563
H52	H	0.972203	-0.449463	0.643625
C53	C	1.116026	-0.502857	0.456626
C54	C	1.088092	-0.570325	0.526015
C55	C	1.130075	-0.647685	0.496119
C56	C	1.199991	-0.657577	0.396833
C57	C	1.227928	-0.590107	0.327438
C58	C	1.185945	-0.512747	0.357334
H59	H	1.036333	-0.563004	0.599518
H60	H	1.109394	-0.697631	0.547491
H61	H	1.231069	-0.714844	0.374702
H62	H	1.279687	-0.597429	0.253935
H63	H	1.206626	-0.462802	0.305963
C64	C	1.746104	-0.803149	0.568631
C65	C	1.766569	-0.719090	0.573121
C66	C	1.877420	-0.689656	0.602975
C67	C	1.967806	-0.744281	0.628339
C68	C	1.947344	-0.828346	0.623850
C69	C	1.836493	-0.857779	0.593996
H70	H	1.699657	-0.678649	0.554344
H71	H	1.892567	-0.627426	0.606298
H72	H	2.049865	-0.722493	0.650439
H73	H	2.014256	-0.868787	0.642627
H74	H	1.821347	-0.920009	0.590673
C75	C	1.690642	-0.911081	0.360348
C76	C	1.783874	-0.959785	0.397471
C77	C	1.865167	-0.988863	0.316215
C78	C	1.853228	-0.969238	0.197837
C79	C	1.759992	-0.920531	0.160708
C80	C	1.678699	-0.891453	0.241964
H81	H	1.792715	-0.974315	0.485107
H82	H	1.934187	-1.024919	0.343701
H83	H	1.913406	-0.990763	0.137686
H84	H	1.751151	-0.906001	0.073072
H85	H	1.609679	-0.855397	0.214478
H86	H	1.359099	-0.324099	1.079724
C87	C	1.746332	-0.396658	0.936003
C88	C	1.843147	-0.348533	0.964801
C89	C	1.954080	-0.369370	0.922981
C90	C	1.968198	-0.438331	0.852362
C91	C	1.871379	-0.486460	0.823560
C92	C	1.760446	-0.465623	0.865380
H93	H	1.832699	-0.297480	1.017081
H94	H	2.025752	-0.333741	0.944302
H95	H	2.050317	-0.453755	0.821404
H96	H	1.881827	-0.537513	0.771280
H97	H	1.688775	-0.501252	0.844059
H98	H	1.490311	-0.232611	0.946690
H99	H	1.586099	-0.903646	0.691969
H100	H	0.972281	-0.391209	0.333303
C101	C	1.115762	-0.251327	0.360463
C102	C	1.087539	-0.259598	0.242073
C103	C	1.129266	-0.202851	0.160890
C104	C	1.199216	-0.137832	0.198098
C105	C	1.227443	-0.129558	0.316494
C106	C	1.185715	-0.186305	0.397677
H107	H	1.035754	-0.307732	0.214524
H108	H	1.108371	-0.208976	0.073245
H109	H	1.230105	-0.095824	0.138001
H110	H	1.279227	-0.081424	0.344042
H111	H	1.206611	-0.180180	0.485321
H112	H	1.359012	-0.903918	0.464591
H113	H	1.407000	-0.449222	0.946797
H114	H	1.586182	-0.482649	1.079728
H115	H	1.669732	-0.266028	1.079417
H116	H	1.490100	-0.811164	0.333370
C117	C	0.961285	-0.212689	0.568790
C118	C	0.989188	-0.178698	0.677446
C119	C	0.947166	-0.101359	0.707398
C120	C	0.877241	-0.058010	0.628695
C121	C	0.849334	-0.092000	0.520031
C122	C	0.891356	-0.169340	0.490079
H123	H	1.040954	-0.210788	0.735714
H124	H	0.967825	-0.076198	0.787838
H125	H	0.846134	-0.000759	0.650867
H126	H	0.797568	-0.059910	0.461764
H127	H	0.870698	-0.194501	0.409639
C128	C	1.116117	-0.319050	0.720819
C129	C	1.236563	-0.314599	0.740924
C130	C	1.278588	-0.293967	0.851909
C131	C	1.200167	-0.277786	0.942788
C132	C	1.079714	-0.282237	0.922686
C133	C	1.037689	-0.302869	0.811701
H134	H	1.294621	-0.326578	0.673648
H135	H	1.367755	-0.290673	0.866790
H136	H	1.231276	-0.262513	1.024946
H137	H	1.021656	-0.270258	0.989962
H138	H	0.948521	-0.306163	0.796821
H139	H	1.406808	-0.811036	0.643765
