data_functionalizedCrystal
_audit_creation_method	'MofGen! by Chris Wilmer'
_symmetry_space_group_name_H-M	'P1'
_symmetry_Int_Tables_number	1
_symmetry_cell_setting	triclinic
loop_
_symmetry_equiv_pos_as_xyz
  x,y,z
_cell_length_a	6.817900
_cell_length_b	11.102285
_cell_length_c	14.858340
_cell_angle_alpha	93.471959
_cell_angle_beta	104.519754
_cell_angle_gamma	108.605686
loop_
_atom_site_label
_atom_site_type_symbol
_atom_site_fract_x
_atom_site_fract_y
_atom_site_fract_z
V1	V	-4.064508	-0.176651	-0.289965
O2	O	-4.024433	0.007655	-0.284440
O3	O	-4.041610	-0.349466	-0.287986
O4	O	-4.020780	-0.174299	-0.416427
O5	O	-4.045407	-0.168725	-0.155111
V6	V	-4.544226	-0.154562	-0.273835
O7	O	-4.334113	-0.225103	-0.325348
O8	O	-4.724819	-0.106110	-0.238452
O9	O	-4.343918	0.018253	-0.275813
O10	O	-4.701699	-0.338868	-0.279359
O11	O	-4.680725	-0.162488	-0.408689
O12	O	-4.364748	-0.156914	-0.147373
C13	C	-3.892663	-0.391584	-0.283413
C14	C	-3.955259	-0.532865	-0.282639
C15	C	-3.866091	-0.168139	-0.447250
C16	C	-3.911791	-0.167360	-0.550633
C17	C	-4.031025	-0.617630	-0.367437
C18	C	-4.089815	-0.750377	-0.366700
C19	C	-3.997070	-0.713580	-0.196360
C20	C	-3.938268	-0.580835	-0.197097
C21	C	-4.108095	-0.949723	-0.465032
C22	C	-4.183900	-1.034495	-0.549835
C23	C	-4.323564	-1.011827	-0.628252
C24	C	-4.387474	-0.904392	-0.621871
C25	C	-4.311689	-0.819627	-0.537066
C26	C	-4.171979	-0.842292	-0.458651
C27	C	-3.920007	-0.381488	-0.098772
C28	C	-3.844235	-0.296721	-0.013967
C29	C	-3.704578	-0.319386	0.064458
C30	C	-3.640695	-0.426824	0.058085
C31	C	-3.716468	-0.511591	-0.026720
C32	C	-3.856117	-0.488918	-0.105145
C33	C	-3.948902	-0.166726	-0.634592
C34	C	-3.995473	-0.165925	-0.739921
C35	C	-4.032607	-0.165287	-0.823873
C36	C	-4.079183	-0.164489	-0.929209
C37	C	-4.156208	0.060364	-0.280384
C38	C	-4.072850	0.201644	-0.281165
C39	C	-4.182779	-0.163078	-0.116545
C40	C	-4.116317	-0.163850	-0.013161
H41	H	-4.044874	-0.578579	-0.437090
H42	H	-3.983250	-0.752654	-0.126715
Br43	Br	-4.398422	-0.673836	-0.528396
Br44	Br	-3.629771	-0.657405	-0.035371
Br45	Br	-4.097175	-1.180298	-0.558495
H46	H	-4.501227	-0.885955	-0.685726
H47	H	-4.385283	-1.080856	-0.697302
Br48	Br	-3.918506	-0.980482	-0.358612
H49	H	-3.642903	-0.250361	0.133512
Br50	Br	-3.451170	-0.457597	0.164522
Br51	Br	-3.931021	-0.150944	-0.005303
Br52	Br	-4.109566	-0.350729	-0.205207
