data_functionalizedCrystal
_audit_creation_method	'MofGen! by Chris Wilmer'
_symmetry_space_group_name_H-M	'P1'
_symmetry_Int_Tables_number	1
_symmetry_cell_setting	triclinic
loop_
_symmetry_equiv_pos_as_xyz
  x,y,z
_cell_length_a	10.967953
_cell_length_b	11.026607
_cell_length_c	9.482900
_cell_angle_alpha	101.363848
_cell_angle_beta	111.340513
_cell_angle_gamma	83.620047
loop_
_atom_site_label
_atom_site_type_symbol
_atom_site_fract_x
_atom_site_fract_y
_atom_site_fract_z
O1	O	0.524835	-1.612861	0.010595
O2	O	0.463271	-1.261457	-0.004832
O3	O	0.308349	-1.452554	-0.043638
O4	O	0.679757	-1.421764	0.049401
O5	O	0.339978	-1.413733	0.206078
O6	O	0.494900	-1.222636	0.244884
O7	O	0.556465	-1.574040	0.260310
Cu8	Cu	0.528571	-1.394793	0.275398
Cu9	Cu	0.491165	-1.440704	-0.019920
O10	O	0.711387	-1.382943	0.299116
C11	C	0.467728	-1.197187	0.117180
C12	C	0.433871	-1.063519	0.108697
C13	C	0.275876	-1.433837	0.069121
C14	C	0.131990	-1.435889	0.033068
C15	C	0.552007	-1.638311	0.138295
C16	C	0.585863	-1.771980	0.146768
C17	C	-0.064487	-1.418807	0.109112
C18	C	0.084226	-1.416690	0.146370
C19	C	0.743860	-1.401660	0.186354
C20	C	0.887744	-1.399610	0.222398
N21	N	0.554881	-1.362511	0.483109
C22	C	0.527356	-0.986825	0.132114
C23	C	0.492365	-0.848672	0.123347
N24	N	0.464846	-1.472996	-0.227632
C25	C	0.498917	-1.431174	0.541289
C26	C	0.520819	-1.404323	0.714193
H27	H	0.153423	-1.398692	0.270949
H28	H	0.062796	-1.453898	-0.091512
O29	O	-0.146936	-1.440099	-0.039562
C30	C	-0.227895	-1.371960	-0.284995
C31	C	-0.134432	-1.347743	-0.116671
H32	H	-0.217837	-1.297292	-0.347378
H33	H	-0.202019	-1.466602	-0.343696
H34	H	-0.333100	-1.369875	-0.288492
H35	H	-0.029196	-1.349764	-0.113035
H36	H	-0.160420	-1.253117	-0.058043
H37	H	-0.043055	-1.381613	0.346969
H38	H	0.434782	-1.509833	0.463096
H39	H	0.584947	-1.325651	0.792381
O40	O	0.653672	-1.030711	0.163700
C41	C	0.803738	-1.208393	0.201400
C42	C	0.660626	-1.158868	0.165577
H43	H	0.809412	-1.312008	0.202961
H44	H	0.840684	-1.191231	0.109443
H45	H	0.867089	-1.158571	0.318436
H46	H	0.597173	-1.208658	0.048583
H47	H	0.623785	-1.176010	0.257627
H48	H	0.400708	-1.551659	0.694177
O49	O	0.366025	-0.804812	0.091632
C50	C	0.215984	-0.627100	0.054131
C51	C	0.359106	-0.676614	0.090026
H52	H	0.210347	-0.523441	0.052853
H53	H	0.152565	-0.676765	-0.062970
H54	H	0.179094	-0.644433	0.146055
H55	H	0.396116	-0.659290	-0.001798
H56	H	0.422437	-0.626947	0.207173
O57	O	0.712183	-0.815863	0.178323
C58	C	0.862246	-0.993552	0.215949
C59	C	0.719139	-0.944022	0.180183
H60	H	0.867921	-1.097169	0.217497
H61	H	0.899160	-0.976381	0.123970
H62	H	0.925622	-0.943741	0.332978
H63	H	0.655661	-0.993801	0.063197
H64	H	0.682331	-0.961173	0.272256
H65	H	0.327926	-1.026906	0.082121
H66	H	0.619004	-1.283844	0.561301
