data_functionalizedCrystal
_audit_creation_method	'MofGen! by Chris Wilmer'
_symmetry_space_group_name_H-M	'P1'
_symmetry_Int_Tables_number	1
_symmetry_cell_setting	triclinic
loop_
_symmetry_equiv_pos_as_xyz
  x,y,z
_cell_length_a	10.540491
_cell_length_b	16.176319
_cell_length_c	17.699083
_cell_angle_alpha	90.004339
_cell_angle_beta	96.105659
_cell_angle_gamma	89.994447
loop_
_atom_site_label
_atom_site_type_symbol
_atom_site_fract_x
_atom_site_fract_y
_atom_site_fract_z
O1	O	-1.683978	0.068740	0.106484
O2	O	-1.183978	0.568740	0.606484
O3	O	-1.314373	0.068744	0.116571
O4	O	-0.814373	0.568744	0.616571
O5	O	-1.509618	0.068735	0.001405
O6	O	-1.009618	0.568735	0.501405
O7	O	-1.488734	0.068750	0.221650
O8	O	-0.988734	0.568750	0.721650
O9	O	-1.509595	-0.068758	0.001405
O10	O	-1.009595	0.431242	0.501405
O11	O	-1.314350	-0.068749	0.116571
O12	O	-0.814350	0.431251	0.616571
O13	O	-1.683956	-0.068753	0.106483
O14	O	-1.183956	0.431247	0.606483
Cu15	Cu	-1.499151	-0.081305	0.111527
Cu16	Cu	-0.999151	0.418695	0.611527
Cu17	Cu	-1.499178	0.081296	0.111528
Cu18	Cu	-0.999178	0.581296	0.611528
O19	O	-1.488711	-0.068744	0.221649
O20	O	-0.988711	0.431256	0.721649
C21	C	-1.267071	-0.000002	0.115822
C22	C	-0.767071	0.499998	0.615822
C23	C	-1.126161	-0.000001	0.113582
C24	C	-0.626161	0.499999	0.613582
C25	C	-0.907241	0.000322	0.193591
C26	C	-0.407241	0.500322	0.693591
C27	C	-1.053794	0.000006	0.195981
C28	C	-0.553794	0.500006	0.695981
C29	C	-1.082159	-0.078517	0.071405
C30	C	-0.582159	0.421483	0.571405
C31	C	-0.935430	-0.078577	0.069599
C32	C	-0.435430	0.421423	0.569599
C33	C	-0.935682	0.077779	0.067884
C34	C	-0.435682	0.577779	0.567884
C35	C	-1.081953	0.078811	0.071786
C36	C	-0.581953	0.578811	0.571786
N37	N	-1.499141	-0.195670	0.111526
N38	N	-0.999141	0.304330	0.611526
C39	C	-1.575979	-0.238928	0.157867
C40	C	-1.075979	0.261072	0.657867
C41	C	-1.575993	-0.325476	0.157864
C42	C	-1.075993	0.174524	0.657864
C43	C	-1.499161	-0.368763	0.111524
C44	C	-0.999161	0.131237	0.611524
C45	C	-1.422320	-0.325499	0.065179
C46	C	-0.922320	0.174501	0.565179
C47	C	-1.422314	-0.238953	0.065178
C48	C	-0.922314	0.261047	0.565178
C49	C	-1.422343	-0.674527	0.065180
C50	C	-0.922343	-0.174527	0.565180
C51	C	-1.422352	-0.761079	0.065186
C52	C	-0.922352	-0.261079	0.565186
C53	C	-1.576022	-0.761049	0.157865
C54	C	-1.076022	-0.261049	0.657865
C55	C	-1.576016	-0.674504	0.157865
C56	C	-1.076016	-0.174504	0.657865
C57	C	-1.499181	-0.631247	0.111517
C58	C	-0.999181	-0.131247	0.611517
C59	C	-1.499169	-0.537403	0.111519
C60	C	-0.999169	-0.037403	0.611519
C61	C	-1.499165	-0.462606	0.111525
C62	C	-0.999165	0.037394	0.611525
C63	C	-0.731255	-0.000003	0.107242
C64	C	-0.231255	0.499997	0.607242
C65	C	-0.872158	0.000007	0.109512
C66	C	-0.372158	0.500007	0.609512
C67	C	-1.508858	-0.000012	-0.026797
C68	C	-1.008858	0.499988	0.473203
C69	C	-1.506613	-0.000012	-0.110829
C70	C	-1.006613	0.499988	0.389171
N71	N	-1.499198	0.195662	0.111522
N72	N	-0.999198	0.695662	0.611522
C73	C	-1.621218	-0.000014	-0.158717
C74	C	-1.121218	0.499986	0.341283
C75	C	-1.619101	-0.000007	-0.237674
C76	C	-1.119101	0.499993	0.262326
C77	C	-1.502378	-0.000003	-0.268742
C78	C	-1.002378	0.499997	0.231258
C79	C	-1.387764	0.000001	-0.220848
C80	C	-0.887764	0.500001	0.279152
C81	C	-1.389883	-0.000000	-0.141892
C82	C	-0.889883	0.500000	0.358108
C83	C	-1.379219	0.000008	-0.539265
C84	C	-0.879219	0.500008	-0.039265
C85	C	-1.377109	0.000007	-0.618227
C86	C	-0.877109	0.500007	-0.118227
C87	C	-1.608437	0.000001	-0.635047
C88	C	-1.108437	0.500001	-0.135047
C89	C	-1.610555	-0.000000	-0.556092
C90	C	-1.110555	0.500000	-0.056092
C91	C	-1.495943	0.000009	-0.508205
C92	C	-0.995943	0.500009	-0.008205
C93	C	-1.498240	0.000002	-0.422591
C94	C	-0.998240	0.500002	0.077409
C95	C	-1.500080	-0.000003	-0.354354
C96	C	-1.000080	0.499997	0.145646
C97	C	-1.489470	0.000005	0.249851
C98	C	-0.989470	0.500005	0.749851
C99	C	-1.491715	0.000011	0.333884
C100	C	-0.991715	0.500011	0.833884
H101	H	-0.913561	-0.082147	0.007973
H102	H	-0.413561	0.417853	0.507973
H103	H	-1.285894	0.000015	-0.500285
H104	H	-0.785894	0.500015	-0.000285
H105	H	-1.359768	-0.360750	0.027444
H106	H	-0.859768	0.139250	0.527444
H107	H	-1.082546	0.056292	0.228977
H108	H	-0.582546	0.556292	0.728977
H109	H	-1.110019	0.136896	0.102474
H110	H	-0.610019	0.636896	0.602474
Cl111	Cl	-1.096706	-0.087036	0.247227
Cl112	Cl	-0.596706	0.412964	0.747227
H113	H	-1.130659	-0.081441	0.010745
H114	H	-0.630659	0.418559	0.510745
H115	H	-1.638537	-0.203690	0.195606
H116	H	-1.138537	0.296310	0.695606
Cl117	Cl	-0.841575	0.087259	0.243160
Cl118	Cl	-0.341575	0.587259	0.743160
Cl119	Cl	-1.230360	0.000014	-0.657282
Cl120	Cl	-0.730360	0.500014	-0.157282
Cl121	Cl	-1.752525	-0.000007	-0.695253
Cl122	Cl	-1.252525	0.499993	-0.195253
H123	H	-1.712424	-0.000011	-0.276661
H124	H	-1.212424	0.499989	0.223339
H125	H	-0.914659	0.078306	0.006022
H126	H	-0.414659	0.578306	0.506022
H127	H	-1.359744	-0.203734	0.027443
H128	H	-0.859744	0.296266	0.527443
H129	H	-1.716267	-0.000022	-0.133428
H130	H	-1.216267	0.499978	0.366572
Cl131	Cl	-1.757298	-0.000002	-0.517040
Cl132	Cl	-1.257298	0.499998	-0.017040
Cl133	Cl	-1.325699	-0.620159	0.006943
Cl134	Cl	-0.825699	-0.120159	0.506943
Cl135	Cl	-1.245802	0.000006	-0.081690
Cl136	Cl	-0.745802	0.500006	0.418310
H137	H	-1.638564	-0.360692	0.195597
H138	H	-1.138564	0.139308	0.695597
H139	H	-1.638576	-0.639263	0.195602
H140	H	-1.138576	-0.139263	0.695602
H141	H	-1.292726	0.000010	-0.246149
H142	H	-0.792726	0.500010	0.253851
H143	H	-0.863140	-0.055663	0.225508
H144	H	-0.363140	0.444337	0.725508
H145	H	-0.894677	-0.137264	0.098426
H146	H	-0.394677	0.362736	0.598426
H147	H	-1.112469	-0.136945	0.100696
H148	H	-0.612469	0.363055	0.600696
H149	H	-0.892668	0.137290	0.093869
H150	H	-0.392668	0.637290	0.593869
H151	H	-1.638588	-0.796279	0.195602
H152	H	-1.138588	-0.296279	0.695602
H153	H	-1.132122	0.083548	0.011629
H154	H	-0.632122	0.583548	0.511629
Cl155	Cl	-1.325757	-0.815496	0.006924
Cl156	Cl	-0.825757	-0.315496	0.506924
