data_functionalizedCrystal
_audit_creation_method	'MofGen! by Chris Wilmer'
_symmetry_space_group_name_H-M	'P1'
_symmetry_Int_Tables_number	1
_symmetry_cell_setting	triclinic
loop_
_symmetry_equiv_pos_as_xyz
  x,y,z
_cell_length_a	12.759387
_cell_length_b	19.077105
_cell_length_c	19.076808
_cell_angle_alpha	89.927608
_cell_angle_beta	87.665428
_cell_angle_gamma	87.679737
loop_
_atom_site_label
_atom_site_type_symbol
_atom_site_fract_x
_atom_site_fract_y
_atom_site_fract_z
Zn1	Zn	-0.638332	1.063030	-0.322955
Zn2	Zn	-0.455298	1.058212	-0.440483
Zn3	Zn	-0.455904	0.945514	-0.318262
Zn4	Zn	-0.624182	0.940768	-0.435704
O5	O	-0.543429	1.001881	-0.379351
O6	O	-0.619720	1.160722	-0.342510
O7	O	-0.308353	1.043233	-0.424306
O8	O	-0.486280	0.965104	-0.220549
O9	O	-0.485246	1.157183	-0.428857
O10	O	-0.620309	1.051443	-0.223997
O11	O	-0.308799	0.960433	-0.334511
O12	O	-0.472559	0.846552	-0.329877
O13	O	-0.773084	0.957016	-0.420712
O14	O	-0.596191	0.843066	-0.416161
O15	O	-0.783480	1.046841	-0.337876
O16	O	-0.471525	1.038631	-0.538185
O17	O	-0.595603	0.952345	-0.534674
C18	C	-0.532906	0.819313	-0.371992
C19	C	-0.528428	0.741208	-0.368860
C20	C	-0.590583	0.702715	-0.412380
C21	C	-0.586381	0.629328	-0.409428
C22	C	-0.520018	0.594436	-0.362960
C23	C	-0.457860	0.632934	-0.319435
C24	C	-0.462068	0.706320	-0.322383
C25	C	-0.500547	0.375150	-0.349313
C26	C	-0.496341	0.301759	-0.346369
C27	C	-0.624864	0.298158	-0.436362
C28	C	-0.629061	0.371545	-0.439310
C29	C	-0.566908	0.410037	-0.395782
N30	N	-0.515719	0.519423	-0.359943
N31	N	-0.571213	0.485049	-0.398796
C32	C	-0.817470	1.001937	-0.379285
C33	C	-0.934250	1.001960	-0.379256
C34	C	-0.945095	1.095501	-0.293005
C35	C	-1.005380	1.142282	-0.249869
C36	C	-1.115104	1.142300	-0.249844
C37	C	-1.164546	1.095531	-0.292958
C38	C	-1.104261	1.048750	-0.336094
C39	C	-0.994535	1.048739	-0.336116
C40	C	-1.093416	0.955207	-0.422340
C41	C	-0.983691	0.955191	-0.422370
C42	C	-1.142857	0.908438	-0.465454
C43	C	-1.082572	0.861660	-0.508595
C44	C	-0.972842	0.861644	-0.508618
C45	C	-0.923407	0.908411	-0.465506
C46	C	-0.270460	1.001868	-0.379369
C47	C	-0.153701	1.001988	-0.379205
C48	C	-0.531986	0.994469	-0.561928
C49	C	-0.527130	0.991363	-0.640038
C50	C	-0.553994	1.185162	-0.386740
C51	C	-0.558496	1.263266	-0.389889
C52	C	-0.594683	1.034822	-0.678467
C53	C	-0.590121	1.031900	-0.751859
C54	C	-0.518001	0.985523	-0.786821
C55	C	-0.450446	0.942059	-0.748386
C56	C	-0.455013	0.944978	-0.674995
C57	C	-0.496858	0.971974	-1.006130
C58	C	-0.492293	0.969060	-1.079526
C59	C	-0.631971	1.058901	-1.082995
C60	C	-0.636527	1.061818	-1.009602
C61	C	-0.568976	1.018352	-0.971174
N62	N	-0.513335	0.982537	-0.861839
N63	N	-0.573648	1.021335	-0.896156
C64	C	-0.554940	1.009340	-0.196063
C65	C	-0.559846	1.012519	-0.117956
H66	H	-0.442307	0.273352	-0.308520
C67	C	-0.422540	0.924167	-0.963870
C68	C	-0.302814	0.929546	-0.974254
C69	C	-0.228489	0.881737	-0.931992
C70	C	-0.273888	0.828549	-0.879347
C71	C	-0.393620	0.823167	-0.868960
C72	C	-0.467946	0.870977	-0.911222
H73	H	-0.269201	0.968922	-1.013227
H74	H	-0.139855	0.885721	-0.939681
H75	H	-0.218868	0.793158	-0.848062
H76	H	-0.427233	0.783792	-0.829987
H77	H	-0.556579	0.866992	-0.903533
H78	H	-0.923764	0.823542	-0.543737
H79	H	-0.683099	0.399949	-0.477151
H80	H	-1.122837	0.823581	-0.543691
H81	H	-0.400006	0.909588	-0.643706
H82	H	-1.164189	1.180389	-0.214715
H83	H	-1.253890	1.095544	-0.292928
H84	H	-0.644620	0.731119	-0.450223
C85	C	-0.706283	1.106706	-1.125266
C86	C	-0.826009	1.101331	-1.114884
C87	C	-0.900329	1.149136	-1.157154
C88	C	-0.854922	1.202317	-1.209805
C89	C	-0.735189	1.207694	-1.220189
C90	C	-0.660870	1.159889	-1.177919
H91	H	-0.859627	1.061962	-1.075907
H92	H	-0.988963	1.145156	-1.149467
H93	H	-0.909938	1.237705	-1.241096
H94	H	-0.701571	1.247063	-1.259167
H95	H	-0.572235	1.163869	-1.185606
H96	H	-0.965113	1.180359	-0.214766
C97	C	-0.693239	0.255816	-0.484234
C98	C	-0.688621	0.175094	-0.480993
C99	C	-0.757004	0.132753	-0.528864
C100	C	-0.830005	0.171133	-0.579977
C101	C	-0.834625	0.251859	-0.583220
C102	C	-0.766243	0.294200	-0.535348
H103	H	-0.634579	0.146679	-0.443155
H104	H	-0.753583	0.072994	-0.526463
H105	H	-0.880626	0.139790	-0.615414
H106	H	-0.888668	0.280274	-0.621058
H107	H	-0.769664	0.353959	-0.537749
C108	C	-0.432148	0.417476	-0.301447
C109	C	-0.445313	0.410622	-0.221161
C110	C	-0.376898	0.452948	-0.173297
C111	C	-0.295320	0.502128	-0.205718
C112	C	-0.282152	0.508984	-0.286008
C113	C	-0.350566	0.466658	-0.333872
H114	H	-0.505705	0.374214	-0.197157
H115	H	-0.386646	0.447873	-0.113861
H116	H	-0.244675	0.533460	-0.170286
H117	H	-0.221759	0.545392	-0.310012
H118	H	-0.340818	0.471734	-0.393308
H119	H	-1.232201	0.908454	-0.465428
C120	C	-0.654747	0.586989	-0.457308
C121	C	-0.602733	0.534286	-0.510413
C122	C	-0.671103	0.491948	-0.558296
C123	C	-0.791487	0.502313	-0.553074
C124	C	-0.843508	0.555018	-0.499967
C125	C	-0.775138	0.597355	-0.452084
H126	H	-0.513612	0.526612	-0.514280
H127	H	-0.632593	0.452933	-0.597609
H128	H	-0.842099	0.470972	-0.588520
H129	H	-0.932629	0.562692	-0.496100
H130	H	-0.813648	0.636371	-0.412771
H131	H	-0.403830	0.604519	-0.281596
H132	H	-0.834064	0.908405	-0.465524
H133	H	-0.411461	0.737660	-0.286941
C134	C	-0.664428	1.079711	-0.794128
C135	C	-0.661174	1.160000	-0.787184
C136	C	-0.735487	1.207814	-0.829450
C137	C	-0.813053	1.175340	-0.878660
C138	C	-0.816310	1.095048	-0.885606
C139	C	-0.741997	1.047233	-0.843340
H140	H	-0.603752	1.184043	-0.750753
H141	H	-0.733075	1.267252	-0.824307
H142	H	-0.868063	1.210735	-0.909948
H143	H	-0.873732	1.071005	-0.922036
H144	H	-0.744409	0.987795	-0.848482
H145	H	-0.855753	1.095498	-0.293028
C146	C	-0.412956	0.918046	-1.117990
C147	C	-0.294484	0.924220	-1.108185
C148	C	-0.215147	0.873212	-1.146651
C149	C	-0.254283	0.816031	-1.194922
C150	C	-0.372760	0.809855	-1.204729
C151	C	-0.452097	0.860862	-1.166263
H152	H	-0.265508	0.966551	-1.072450
H153	H	-0.127442	0.877785	-1.139391
H154	H	-0.195553	0.778272	-1.223397
H155	H	-0.401736	0.767523	-1.240464
H156	H	-0.539802	0.856289	-1.173523
H157	H	-0.653406	1.072590	-0.650007
H158	H	-0.695253	1.099582	-0.981138
H159	H	-0.391728	0.904295	-0.776857
