data_functionalizedCrystal
_audit_creation_method	'MofGen! by Chris Wilmer'
_symmetry_space_group_name_H-M	'P1'
_symmetry_Int_Tables_number	1
_symmetry_cell_setting	triclinic
loop_
_symmetry_equiv_pos_as_xyz
  x,y,z
_cell_length_a	19.805407
_cell_length_b	29.839131
_cell_length_c	19.805399
_cell_angle_alpha	90.037218
_cell_angle_beta	90.019573
_cell_angle_gamma	90.035228
loop_
_atom_site_label
_atom_site_type_symbol
_atom_site_fract_x
_atom_site_fract_y
_atom_site_fract_z
Zn1	Zn	1.034694	-0.178864	0.382674
Zn2	Zn	1.034592	-0.253991	0.269467
Zn3	Zn	0.921509	-0.178876	0.269499
Zn4	Zn	0.921455	-0.253967	0.382614
O5	O	0.978062	-0.216425	0.326063
O6	O	1.129397	-0.188834	0.367669
O7	O	1.019571	-0.244042	0.174755
O8	O	0.936589	-0.116007	0.284551
O9	O	1.129322	-0.244030	0.284496
O10	O	1.019745	-0.115998	0.367700
O11	O	0.936489	-0.188856	0.174778
O12	O	0.826785	-0.188832	0.284492
O13	O	0.936497	-0.243990	0.477338
O14	O	0.826746	-0.244002	0.367597
O15	O	1.019693	-0.188811	0.477383
O16	O	1.019518	-0.316855	0.284437
O17	O	0.936397	-0.316838	0.367566
C18	C	0.802206	-0.216416	0.326042
C19	C	0.726974	-0.216423	0.326048
C20	C	0.691627	-0.245193	0.369251
C21	C	0.620939	-0.245194	0.369261
C22	C	0.585599	-0.216427	0.326063
C23	C	0.620951	-0.187654	0.282859
C24	C	0.691638	-0.187651	0.282853
C25	C	0.335878	-0.187664	0.282881
C26	C	0.265185	-0.187669	0.282889
C27	C	0.265178	-0.245207	0.369289
C28	C	0.335866	-0.245204	0.369283
C29	C	0.371211	-0.216429	0.326081
C30	C	0.447860	-0.216428	0.326072
C31	C	0.508952	-0.216430	0.326068
C32	C	0.977959	-0.333147	0.326006
C33	C	0.977977	-0.383082	0.326005
C34	C	1.021353	-0.692685	0.369421
C35	C	1.021426	-0.880358	0.369462
O36	O	1.058205	-0.904590	0.406334
N37	N	0.978177	-0.903867	0.326139
C38	C	0.934904	-0.880454	0.282805
O39	O	0.898115	-0.904755	0.245962
C40	C	0.934828	-0.692782	0.282769
C41	C	0.978084	-0.669276	0.326090
C42	C	1.064605	-0.669180	0.412739
C43	C	1.064589	-0.622264	0.412726
C44	C	1.021320	-0.598855	0.369395
C45	C	0.978068	-0.622360	0.326077
C46	C	0.891551	-0.669370	0.239439
C47	C	0.891535	-0.622449	0.239435
C48	C	0.934791	-0.598943	0.282756
C49	C	0.934783	-0.552035	0.282732
N50	N	0.978032	-0.528527	0.326055
C51	C	1.021300	-0.551937	0.369387
C52	C	0.934948	-0.978984	0.282827
C53	C	0.934968	-1.025902	0.282835
C54	C	1.021489	-1.025804	0.369492
C55	C	1.021472	-0.978885	0.369480
C56	C	0.978197	-0.955476	0.326150
C57	C	1.021264	-0.453411	0.369355
C58	C	1.021246	-0.406491	0.369336
C59	C	0.934722	-0.406594	0.282681
C60	C	0.934742	-0.453509	0.282698
C61	C	0.978015	-0.476917	0.326040
O62	O	0.898018	-0.527775	0.245885
O63	O	1.058073	-0.527627	0.406235
C64	C	1.021369	-0.739601	0.369434
C65	C	0.978116	-0.763107	0.326116
C66	C	0.934848	-0.739697	0.282785
C67	C	0.978136	-0.810025	0.326124
C68	C	1.021405	-0.833434	0.369456
C69	C	1.064654	-0.809926	0.412779
C70	C	1.064638	-0.763010	0.412766
C71	C	0.891599	-0.763205	0.239462
C72	C	0.891619	-0.810121	0.239478
C73	C	0.934888	-0.833530	0.282809
C74	C	1.154605	-0.216434	0.326086
C75	C	1.229837	-0.216437	0.326095
C76	C	0.978100	-0.216396	0.502606
C77	C	0.978117	-0.216384	0.577838
C78	C	0.978184	-0.099246	0.326136
C79	C	0.978236	-0.049312	0.326166
C80	C	0.978064	-0.216420	0.150208
C81	C	0.978179	-0.216306	0.074976
C82	C	1.021438	-0.187652	0.613207
C83	C	1.021445	-0.187638	0.683895
C84	C	0.978133	-0.216361	0.719214
C85	C	0.934807	-0.245095	0.683841
C86	C	0.934797	-0.245105	0.613153
C87	C	0.934845	-0.245053	0.968914
C88	C	0.934860	-0.245041	1.039606
C89	C	1.021493	-0.187586	1.039656
C90	C	1.021483	-0.187597	0.968969
C91	C	0.978155	-0.216329	0.933601
C92	C	0.978147	-0.216342	0.856953
C93	C	0.978144	-0.216350	0.795861
H94	H	0.364648	-0.164237	0.247699
H95	H	0.856396	-0.829255	0.204194
H96	H	1.056754	-0.164209	0.940216
H97	H	0.592162	-0.268622	0.404440
H98	H	1.056496	-0.472464	0.404653
H99	H	1.056723	-0.164242	0.712689
H100	H	0.899575	-0.268455	0.940127
H101	H	1.056771	-0.164189	1.068460
O102	O	0.725984	-0.273186	0.411117
C103	C	0.805774	-0.333827	0.420045
C104	C	0.766898	-0.302162	0.372551
H105	H	0.838873	-0.357256	0.388884
H106	H	0.768395	-0.354422	0.450914
H107	H	0.838869	-0.313221	0.455508
H108	H	0.733802	-0.322733	0.337048
H109	H	0.804314	-0.281566	0.341730
H110	H	1.056473	-0.387354	0.404613
H111	H	1.099810	-0.603128	0.448004
H112	H	0.364636	-0.268631	0.404456
H113	H	0.899525	-0.472649	0.247417
O114	O	1.106705	-0.691846	0.454855
C115	C	1.192500	-0.686780	0.540825
C116	C	1.144858	-0.661060	0.493154
H117	H	1.223349	-0.661901	0.571812
H118	H	1.227968	-0.708726	0.509820
H119	H	1.161412	-0.708760	0.576169
H120	H	1.175892	-0.639056	0.457800
H121	H	1.109388	-0.639142	0.524200
H122	H	0.899707	-0.959928	0.247540
H123	H	0.899495	-0.387527	0.247399
H124	H	0.236413	-0.164241	0.247712
H125	H	0.899588	-0.268431	1.068361
O126	O	0.892856	-1.048712	0.240820
C127	C	0.777746	-1.063120	0.207834
C128	C	0.825366	-1.037271	0.255466
H129	H	0.723171	-1.053873	0.219649
H130	H	0.785126	-1.100681	0.215279
H131	H	0.789695	-1.053919	0.153271
H132	H	0.813446	-1.046435	0.310047
H133	H	0.817977	-0.999716	0.247963
O134	O	0.230915	-0.273132	0.411357
C135	C	0.209291	-0.295020	0.526432
C136	C	0.248146	-0.263376	0.478868
H137	H	0.223198	-0.287137	0.581025
H138	H	0.223164	-0.331242	0.514494
H139	H	0.152703	-0.290087	0.518985
H140	H	0.304744	-0.268269	0.486289
H141	H	0.234217	-0.227165	0.490818
H142	H	0.592171	-0.164229	0.247690
H143	H	0.720417	-0.164221	0.247677
O144	O	1.063508	-0.956123	0.411631
C145	C	1.149353	-0.960990	0.497557
C146	C	1.101772	-0.986820	0.449863
H147	H	1.180312	-0.985797	0.528470
H148	H	1.118279	-0.939039	0.532964
H149	H	1.184727	-0.939004	0.466507
H150	H	1.066388	-1.008830	0.480859
H151	H	1.132888	-1.008742	0.414454
H152	H	1.056709	-0.164264	0.584455
H153	H	1.056721	-1.044872	0.404774
O154	O	0.892796	-0.272981	0.718252
C155	C	0.854386	-0.298411	0.827125
C156	C	0.902008	-0.266813	0.788241
H157	H	0.861807	-0.293429	0.883717
H158	H	0.866231	-0.334649	0.813255
H159	H	0.799823	-0.290524	0.813180
H160	H	0.956588	-0.274659	0.802164
H161	H	0.890105	-0.230585	0.802114
H162	H	0.899514	-0.268498	0.584357
H163	H	0.856327	-0.688500	0.204162
O164	O	1.106586	-0.832692	0.454945
C165	C	1.115634	-0.885639	0.546312
C166	C	1.068078	-0.859873	0.498613
H167	H	1.084520	-0.907628	0.581620
H168	H	1.146537	-0.860805	0.577330
H169	H	1.151062	-0.907583	0.515260
H170	H	1.032609	-0.837928	0.529612
H171	H	1.037222	-0.884731	0.467593
O172	O	0.849547	-0.740539	0.197300
C173	C	0.763712	-0.745599	0.111370
C174	C	0.811311	-0.771322	0.159081
H175	H	0.732776	-0.770477	0.080468
H176	H	0.794770	-0.723650	0.075955
H177	H	0.728318	-0.723623	0.142408
H178	H	0.846715	-0.793323	0.128097
H179	H	0.780211	-0.793243	0.194498
O180	O	0.849473	-0.599780	0.197279
C181	C	0.763618	-0.604833	0.111368
C182	C	0.811228	-0.630560	0.159063
H183	H	0.732675	-0.629708	0.080468
H184	H	0.794667	-0.582881	0.075950
H185	H	0.728230	-0.582860	0.142419
H186	H	0.846626	-0.652558	0.128067
H187	H	0.780137	-0.652485	0.194482
H188	H	1.099861	-0.743875	0.448042
