data_functionalizedCrystal
_audit_creation_method	'MofGen! by Chris Wilmer'
_symmetry_space_group_name_H-M	'P1'
_symmetry_Int_Tables_number	1
_symmetry_cell_setting	triclinic
loop_
_symmetry_equiv_pos_as_xyz
  x,y,z
_cell_length_a	10.654550
_cell_length_b	17.038272
_cell_length_c	9.130313
_cell_angle_alpha	89.995195
_cell_angle_beta	89.999724
_cell_angle_gamma	87.798243
loop_
_atom_site_label
_atom_site_type_symbol
_atom_site_fract_x
_atom_site_fract_y
_atom_site_fract_z
O1	O	1.678042	0.109878	-0.121691
O2	O	2.178042	0.609878	0.378309
O3	O	1.313536	0.120346	-0.121718
O4	O	1.813536	0.620346	0.378282
O5	O	1.493623	0.001285	-0.121693
O6	O	1.993623	0.501285	0.378307
O7	O	1.497955	0.228940	-0.121716
O8	O	1.997955	0.728940	0.378284
O9	O	1.493609	0.001281	0.121906
O10	O	1.993609	0.501281	0.621906
O11	O	1.313522	0.120343	0.121881
O12	O	1.813522	0.620343	0.621881
O13	O	1.678029	0.109875	0.121908
O14	O	2.178029	0.609875	0.621908
Cu15	Cu	1.495774	0.115108	0.144137
Cu16	Cu	1.995774	0.615108	0.644137
Cu17	Cu	1.495790	0.115113	-0.143947
Cu18	Cu	1.995790	0.615113	0.356053
O19	O	1.497942	0.228936	0.121883
O20	O	1.997942	0.728936	0.621883
C21	C	1.266660	0.119576	0.000078
C22	C	1.766660	0.619576	0.500078
C23	C	1.127003	0.117276	0.000068
C24	C	1.627003	0.617276	0.500068
C25	C	1.054026	0.187378	0.000065
C26	C	1.554026	0.687378	0.500065
C27	C	0.922805	0.185213	0.000091
C28	C	1.422805	0.685213	0.500091
C29	C	0.937548	0.042838	0.000116
C30	C	1.437548	0.542838	0.500116
C31	C	1.068767	0.045004	0.000101
C32	C	1.568767	0.545004	0.500101
C33	C	1.489675	-0.027867	0.000106
C34	C	1.989675	0.472133	0.500106
C35	C	1.477918	-0.114726	0.000104
C36	C	1.977918	0.385274	0.500104
C37	C	1.585862	-0.164237	0.000114
C38	C	2.085862	0.335763	0.500114
C39	C	1.574808	-0.245849	0.000099
C40	C	2.074808	0.254151	0.500099
C41	C	1.455808	-0.277949	0.000085
C42	C	1.955808	0.222051	0.500085
C43	C	1.347855	-0.228431	0.000072
C44	C	1.847855	0.271569	0.500072
C45	C	1.358911	-0.146820	0.000076
C46	C	1.858911	0.353180	0.500076
C47	C	1.416750	-0.523925	0.000063
C48	C	1.916750	-0.023925	0.500063
C49	C	1.405702	-0.605542	0.000063
C50	C	1.905702	-0.105542	0.500063
C51	C	1.632655	-0.622955	0.000088
C52	C	2.132655	-0.122955	0.500088
C53	C	1.643701	-0.541341	0.000101
C54	C	2.143701	-0.041341	0.500101
C55	C	1.535748	-0.491831	0.000079
C56	C	2.035748	0.008169	0.500079
C57	C	1.444505	-0.361369	0.000075
C58	C	1.944505	0.138631	0.500075
C59	C	1.547052	-0.408412	0.000079
C60	C	2.047052	0.091588	0.500079
C61	C	1.724905	0.110645	0.000108
C62	C	2.224905	0.610645	0.500108
C63	C	1.864561	0.112945	0.000109
C64	C	2.364561	0.612945	0.500109
C65	C	1.501889	0.258088	0.000081
C66	C	2.001889	0.758088	0.500081
C67	C	1.513646	0.344947	0.000072
C68	C	2.013646	0.844947	0.500072
N69	N	1.495772	0.115105	0.346759
N70	N	1.995772	0.615105	0.846759
N71	N	1.495802	0.115110	-0.346570
N72	N	1.995802	0.615110	0.153430
C73	C	1.575545	0.062407	0.423422
C74	C	2.075545	0.562407	0.923422
C75	C	1.575557	0.062407	0.576759
C76	C	2.075557	0.562407	1.076759
C77	C	1.416019	0.167810	0.576757
C78	C	1.916019	0.667810	1.076757
C79	C	1.416002	0.167806	0.423423
C80	C	1.916002	0.667806	0.923423
H81	H	1.682764	-0.138109	0.000134
H82	H	2.182764	0.361891	0.500134
O83	O	1.772060	-0.506732	0.000102
O84	O	2.272060	-0.006732	0.500102
H85	H	1.782531	-0.469979	0.099398
H86	H	2.282531	0.030021	0.599398
H87	H	1.101438	0.246227	0.000049
H88	H	1.601438	0.746227	0.500049
O89	O	1.277350	-0.640173	0.000044
O90	O	1.777350	-0.140173	0.500044
H91	H	1.225070	-0.620342	-0.099259
H92	H	1.725070	-0.120342	0.400741
H93	H	1.662708	-0.286159	0.000110
H94	H	2.162708	0.213841	0.500110
H95	H	0.863392	0.242297	0.000091
H96	H	1.363392	0.742297	0.500091
H97	H	1.720544	-0.663274	0.000102
H98	H	2.220544	-0.163274	0.500102
O99	O	0.874738	-0.035112	0.000141
O100	O	1.374738	0.464888	0.500141
H101	H	0.771232	-0.024843	0.000137
H102	H	1.271232	0.475157	0.500137
H103	H	1.351074	0.210719	0.639191
H104	H	1.851074	0.710719	1.139191
H105	H	1.128187	-0.012085	0.000107
H106	H	1.628187	0.487915	0.500107
H107	H	1.328847	-0.483623	0.000045
H108	H	1.828847	0.016377	0.500045
O109	O	1.219501	-0.263046	0.000072
O110	O	1.719501	0.236954	0.500072
H111	H	1.229945	-0.328114	0.000092
H112	H	1.729945	0.171886	0.500092
O113	O	1.242488	-0.093413	0.000081
O114	O	1.742488	0.406587	0.500081
H115	H	1.157881	-0.129443	0.000088
H116	H	1.657881	0.370557	0.500088
H117	H	1.643941	-0.382273	0.000058
H118	H	2.143941	0.117727	0.500058
H119	H	1.347615	-0.387514	0.000067
H120	H	1.847615	0.112486	0.500067
O121	O	1.661563	0.005560	0.340728
O122	O	2.161563	0.505560	0.840728
H123	H	1.717025	-0.031090	0.419804
H124	H	2.217025	0.468910	0.919804
O125	O	1.329961	0.224649	0.340719
O126	O	1.829961	0.724649	0.840719
H127	H	1.274510	0.261305	0.419785
H128	H	1.774510	0.761305	0.919785
H129	H	1.640514	0.019495	0.639174
H130	H	2.140514	0.519495	1.139174
