data_functionalizedCrystal
_audit_creation_method	'MofGen! by Chris Wilmer'
_symmetry_space_group_name_H-M	'P1'
_symmetry_Int_Tables_number	1
_symmetry_cell_setting	triclinic
loop_
_symmetry_equiv_pos_as_xyz
  x,y,z
_cell_length_a	19.188930
_cell_length_b	14.519731
_cell_length_c	18.266242
_cell_angle_alpha	90.009125
_cell_angle_beta	90.011475
_cell_angle_gamma	83.416817
loop_
_atom_site_label
_atom_site_type_symbol
_atom_site_fract_x
_atom_site_fract_y
_atom_site_fract_z
O1	O	0.091595	1.223292	0.060891
O2	O	0.102358	0.954751	0.060893
O3	O	-0.004651	1.096771	0.060878
O4	O	0.198604	1.081272	0.060907
O5	O	-0.004657	1.096747	-0.060884
O6	O	0.102352	0.954727	-0.060869
O7	O	0.091590	1.223268	-0.060871
Zn8	Zn	0.096970	1.088994	-0.080202
Zn9	Zn	0.096977	1.089026	0.080224
O10	O	0.198598	1.081248	-0.060855
C11	C	0.101851	0.920383	0.000012
C12	C	0.100339	0.818012	0.000012
C13	C	0.099112	0.734876	0.000015
C14	C	0.097577	0.630576	0.000015
C15	C	0.096360	0.547445	0.000015
C16	C	0.094826	0.443139	0.000017
C17	C	-0.030667	1.096257	-0.000005
C18	C	-0.108177	1.094751	-0.000012
C19	C	-0.152799	1.178083	-0.000016
C20	C	-0.225628	1.176668	-0.000004
C21	C	-0.253831	1.091915	-0.000003
C22	C	-0.209199	1.008571	0.000005
C23	C	-0.136372	1.009989	0.000001
N24	N	-0.362073	1.027123	-0.041440
N25	N	-0.431256	1.025782	-0.041438
C26	C	-0.473255	1.087638	0.000012
N27	N	-0.443459	1.150900	0.041450
N28	N	-0.374270	1.152244	0.041444
C29	C	-0.332799	1.090368	0.000002
C30	C	-0.596848	1.169442	0.000022
C31	C	-0.669678	1.168023	0.000038
C32	C	-0.653247	0.999924	0.000040
C33	C	-0.580419	1.001345	0.000031
C34	C	-0.552224	1.086106	0.000018
C35	C	0.224614	1.081762	0.000029
C36	C	0.302124	1.083269	0.000040
C37	C	0.092097	1.257637	0.000012
C38	C	0.093608	1.360007	0.000016
N39	N	0.096965	1.088979	-0.189689
C40	C	0.049604	1.151886	-0.228005
C41	C	0.049601	1.151892	-0.304650
C42	C	0.096970	1.089000	-0.342976
C43	C	0.144334	1.026081	-0.304651
C44	C	0.144331	1.026071	-0.228008
N45	N	0.158734	1.077012	-0.463300
N46	N	0.158735	1.077028	-0.536108
C47	C	0.096980	1.089025	-0.573898
N48	N	0.035223	1.101026	-0.536131
N49	N	0.035224	1.101015	-0.463316
C50	C	0.096978	1.089003	-0.426083
C51	C	0.049613	1.151942	-0.695321
C52	C	0.049609	1.151942	-0.771968
C53	C	0.144347	1.026135	-0.771967
C54	C	0.144346	1.026131	-0.695323
C55	C	0.096979	1.089040	-0.657004
N56	N	0.096977	1.089048	0.189711
H57	H	-0.261967	1.244530	-0.000004
H58	H	-0.232167	0.939565	0.000008
N59	N	0.001172	1.216077	-0.656135
N60	N	-0.063352	1.214943	-0.664712
H61	H	-0.097582	1.260195	-0.637020
N62	N	-0.568044	1.256020	0.000034
N63	N	-0.529226	1.275572	0.051358
H64	H	-0.508886	1.336720	0.051368
N65	N	-0.090797	0.924854	0.000009
N66	N	-0.115983	0.849185	0.000018
H67	H	-0.083795	0.789056	0.000023
N68	N	0.192711	0.961826	-0.343797
N69	N	0.170455	0.904684	-0.386583
H70	H	0.204620	0.859297	-0.414230
H71	H	0.011038	1.203165	-0.803165
H72	H	0.011034	1.203108	-0.196808
H73	H	0.011033	1.203120	-0.335852
N74	N	0.192723	0.961888	-0.811118
N75	N	0.192717	0.961900	-0.879549
H76	H	0.226881	0.916520	-0.907204
H77	H	-0.706009	1.235885	0.000039
N78	N	0.192729	0.961866	-0.656191
N79	N	0.235017	0.905712	-0.690416
H80	H	0.269189	0.860319	-0.662780
N81	N	-0.682058	0.913357	0.000035
N82	N	-0.720878	0.893804	-0.051287
H83	H	-0.741229	0.832664	-0.051289
N84	N	-0.124011	1.264670	-0.000027
N85	N	-0.163867	1.339070	-0.000028
H86	H	-0.143535	1.400224	-0.000034
N87	N	-0.534844	0.916213	0.000033
N88	N	-0.560031	0.840545	0.000037
H89	H	-0.527844	0.780415	0.000040
H90	H	0.182898	0.974843	-0.196810
