data_functionalizedCrystal
_audit_creation_method	'MofGen! by Chris Wilmer'
_symmetry_space_group_name_H-M	'P1'
_symmetry_Int_Tables_number	1
_symmetry_cell_setting	triclinic
loop_
_symmetry_equiv_pos_as_xyz
  x,y,z
_cell_length_a	6.817900
_cell_length_b	17.513329
_cell_length_c	17.110486
_cell_angle_alpha	95.942660
_cell_angle_beta	99.060439
_cell_angle_gamma	106.556532
loop_
_atom_site_label
_atom_site_type_symbol
_atom_site_fract_x
_atom_site_fract_y
_atom_site_fract_z
V1	V	-3.992678	-0.110090	-0.247454
O2	O	-3.964580	0.005535	-0.241987
O3	O	-3.960067	-0.218525	-0.246489
O4	O	-3.922278	-0.108290	-0.355045
O5	O	-4.002631	-0.105464	-0.132679
V6	V	-4.477111	-0.096273	-0.233638
O7	O	-4.251941	-0.140400	-0.277761
O8	O	-4.668046	-0.065963	-0.203330
O9	O	-4.286516	0.012162	-0.234602
O10	O	-4.622606	-0.211898	-0.239105
O11	O	-4.584556	-0.100899	-0.348412
O12	O	-4.324305	-0.098073	-0.126046
C13	C	-3.809621	-0.244963	-0.242774
C14	C	-3.864097	-0.333610	-0.242702
C15	C	-4.181362	-0.835167	-0.242407
C16	C	-4.130164	-0.751876	-0.242485
C17	C	-3.922671	-0.706178	-0.238554
C18	C	-3.766363	-0.743775	-0.234536
C19	C	-3.817560	-0.827064	-0.234453
C20	C	-3.758987	-0.454495	-0.238601
C21	C	-3.707801	-0.371201	-0.238688
C22	C	-4.071606	-0.379308	-0.246635
C23	C	-4.122789	-0.462599	-0.246556
C24	C	-3.966477	-0.500187	-0.242534
C25	C	-3.870335	-0.621041	-0.238635
C26	C	-4.018812	-0.585322	-0.242447
C27	C	-3.761416	-0.104345	-0.381246
C28	C	-3.785244	-0.103590	-0.469207
C29	C	-3.978305	-0.107216	-0.514589
C30	C	-4.000682	-0.106506	-0.597238
C31	C	-3.829999	-0.102177	-0.634504
C32	C	-3.636921	-0.098549	-0.589115
C33	C	-3.614543	-0.099253	-0.506467
C34	C	-3.888464	-0.099847	-0.883843
C35	C	-3.910860	-0.099146	-0.966497
C36	C	-4.274618	-0.107102	-0.974614
C37	C	-4.252226	-0.107810	-0.891965
C38	C	-4.059149	-0.104178	-0.846583
C39	C	-3.852869	-0.101454	-0.718984
C40	C	-4.036278	-0.104895	-0.762103
C41	C	-4.100305	0.038596	-0.238316
C42	C	-4.025066	0.127241	-0.238393
C43	C	-4.148510	-0.102021	-0.099841
C44	C	-4.103920	-0.102771	-0.011879
H45	H	-3.701389	-0.583825	-0.235436
H46	H	-3.690287	-0.857670	-0.231191
O47	O	-4.382900	-0.879497	-0.246085
C48	C	-4.455168	-0.850826	-0.179608
H49	H	-4.316567	-0.818037	-0.129136
H50	H	-4.562660	-0.903822	-0.158219
H51	H	-4.544714	-0.807438	-0.197714
O52	O	-4.324234	-0.507042	-0.250242
C53	C	-4.338814	-0.544663	-0.181488
H54	H	-4.179924	-0.550046	-0.155067
H55	H	-4.457654	-0.607363	-0.198592
H56	H	-4.390653	-0.507006	-0.135212
O57	O	-3.687161	-0.097150	-0.755262
C58	C	-3.643235	-0.027122	-0.791612
H59	H	-3.789170	-0.007336	-0.803774
H60	H	-3.592363	-0.040548	-0.850536
H61	H	-3.512655	0.023142	-0.749921
O62	O	-3.506311	-0.326799	-0.235010
C63	C	-3.491707	-0.289135	-0.303736
H64	H	-3.628446	-0.324063	-0.354137
H65	H	-3.338935	-0.288221	-0.323357
H66	H	-3.495930	-0.224666	-0.289290
O67	O	-4.223302	-0.342731	-0.250389
C68	C	-4.178650	-0.284016	-0.181761
H69	H	-4.072760	-0.299294	-0.131312
H70	H	-4.330253	-0.283039	-0.162137
H71	H	-4.096834	-0.222239	-0.196340
O72	O	-3.607378	-0.491113	-0.234810
C73	C	-3.651963	-0.549804	-0.303453
H74	H	-3.826192	-0.569389	-0.329867
H75	H	-3.605156	-0.604236	-0.286209
H76	H	-3.560596	-0.523248	-0.349788
H77	H	-4.175243	-0.108417	-0.731758
H78	H	-4.117301	-0.110746	-0.484255
O79	O	-4.188196	-0.110133	-0.641418
C80	C	-4.258024	-0.179343	-0.700654
H81	H	-4.118793	-0.198911	-0.713254
H82	H	-4.340420	-0.164926	-0.757967
H83	H	-4.371321	-0.230156	-0.678644
O84	O	-4.417801	-0.111907	-0.855656
C85	C	-4.369803	-0.043175	-0.796906
H86	H	-4.193217	-0.016694	-0.777271
H87	H	-4.441361	-0.060961	-0.743022
H88	H	-4.436019	0.003709	-0.822915
H89	H	-4.257442	-0.721273	-0.245757
O90	O	-3.470962	-0.094197	-0.625254
C91	C	-3.308873	-0.022587	-0.591380
H92	H	-3.377018	0.023379	-0.563211
H93	H	-3.225670	0.002965	-0.640134
H94	H	-3.192864	-0.036198	-0.543407
H95	H	-3.771857	-0.095618	-0.996836
H96	H	-4.187751	-0.622531	-0.245641
H97	H	-3.597413	-0.706560	-0.231330
H98	H	-4.431815	-0.110057	-1.011573
O99	O	-3.700946	-0.096494	-0.839869
C100	C	-3.641870	-0.163283	-0.868869
H101	H	-3.786655	-0.213879	-0.901758
H102	H	-3.560002	-0.185255	-0.816473
H103	H	-3.531186	-0.144724	-0.911824
O104	O	-3.427055	-0.095876	-0.462441
C105	C	-3.367816	-0.162647	-0.491376
H106	H	-3.512511	-0.213267	-0.524295
H107	H	-3.286021	-0.184590	-0.438940
H108	H	-3.257017	-0.144075	-0.534289
