data_functionalizedCrystal
_audit_creation_method	'MofGen! by Chris Wilmer'
_symmetry_space_group_name_H-M	'P1'
_symmetry_Int_Tables_number	1
_symmetry_cell_setting	triclinic
loop_
_symmetry_equiv_pos_as_xyz
  x,y,z
_cell_length_a	12.811457
_cell_length_b	13.262508
_cell_length_c	11.295483
_cell_angle_alpha	109.979812
_cell_angle_beta	91.289320
_cell_angle_gamma	82.749985
loop_
_atom_site_label
_atom_site_type_symbol
_atom_site_fract_x
_atom_site_fract_y
_atom_site_fract_z
O1	O	1.386254	0.148377	0.098740
O2	O	1.082763	0.161730	0.070288
O3	O	1.245709	-0.001211	0.035117
O4	O	1.223309	0.311318	0.133911
O5	O	1.231397	0.013078	0.236250
O6	O	1.068452	0.176019	0.271420
O7	O	1.371943	0.162667	0.299873
Cu8	Cu	1.218891	0.170648	0.304011
Cu9	Cu	1.235815	0.153749	0.066149
O10	O	1.208997	0.325608	0.335043
C11	C	1.036825	0.167688	0.166281
C12	C	0.921266	0.164141	0.152652
C13	C	0.688516	0.173035	0.346335
C14	C	0.579938	0.169703	0.333535
C15	C	0.595530	0.154135	0.114251
C16	C	0.704109	0.157468	0.127051
C17	C	0.750597	0.166920	0.243097
C18	C	0.859176	0.170260	0.255898
C19	C	0.874768	0.154685	0.036614
C20	C	0.766190	0.151353	0.023814
C21	C	1.238614	-0.034094	0.122724
C22	C	1.238781	-0.153365	0.084109
C23	C	1.208042	-0.458423	0.413822
C24	C	1.207876	-0.346362	0.450103
C25	C	1.215603	-0.298107	0.358608
C26	C	1.223494	-0.361925	0.230825
C27	C	1.223652	-0.473996	0.194539
C28	C	1.231212	-0.313680	0.139325
C29	C	1.239104	-0.377497	0.011542
C30	C	1.239262	-0.489557	-0.024738
C31	C	1.231535	-0.537812	0.066758
C32	C	1.231055	-0.201608	0.175611
C33	C	1.246665	-0.217181	-0.043672
C34	C	1.246830	-0.329242	-0.079954
C35	C	1.417881	0.156708	0.203876
C36	C	1.533441	0.160254	0.217497
C37	C	1.216093	0.358491	0.247433
C38	C	1.215926	0.477760	0.286041
N39	N	1.206994	0.182533	0.471312
N40	N	1.247720	0.141855	-0.101154
C41	C	1.333359	0.056241	0.693349
C42	C	1.324376	0.065230	0.819954
C43	C	1.180041	0.209494	0.851126
C44	C	1.189024	0.200505	0.724521
C45	C	1.265686	0.123877	0.645637
C46	C	1.274674	0.114894	0.519032
C47	C	1.130334	0.259152	0.550205
C48	C	1.121351	0.268141	0.676809
H49	H	0.726365	0.180746	0.440828
Br50	Br	1.257124	-0.151699	-0.167856
Br51	Br	1.378719	0.010905	0.411979
H52	H	1.058931	0.330528	0.741050
Br53	Br	1.437412	-0.047737	0.586296
H54	H	0.529394	0.174688	0.417603
Br55	Br	1.197531	-0.523913	0.537977
Br56	Br	0.532438	0.141191	-0.043263
Br57	Br	1.231763	-0.689902	0.017522
Br58	Br	1.249951	-0.576163	-0.198159
H59	H	1.379481	0.010153	0.858795
Br60	Br	1.257546	-0.415864	-0.253369
H61	H	1.117617	0.271876	0.915366
Br62	Br	1.038498	0.350958	0.485447
Br63	Br	1.215372	-0.146021	0.407849
H64	H	0.897024	0.177963	0.350391
H65	H	0.728325	0.143652	-0.070669
Br66	Br	0.959024	0.146411	-0.103496
H67	H	1.201462	-0.294411	0.554145
H68	H	1.224620	-0.149658	0.279652
