data_functionalizedCrystal
_audit_creation_method	'MofGen! by Chris Wilmer'
_symmetry_space_group_name_H-M	'P1'
_symmetry_Int_Tables_number	1
_symmetry_cell_setting	triclinic
loop_
_symmetry_equiv_pos_as_xyz
  x,y,z
_cell_length_a	14.971506
_cell_length_b	15.995343
_cell_length_c	14.048226
_cell_angle_alpha	89.988845
_cell_angle_beta	89.993237
_cell_angle_gamma	83.555786
loop_
_atom_site_label
_atom_site_type_symbol
_atom_site_fract_x
_atom_site_fract_y
_atom_site_fract_z
O1	O	1.186808	0.109197	-0.079178
O2	O	1.686808	0.609197	0.420822
O3	O	0.926395	0.122247	-0.079179
O4	O	1.426395	0.622247	0.420821
O5	O	1.063724	-0.006159	-0.079161
O6	O	1.563724	0.493841	0.420839
O7	O	1.049479	0.237602	-0.079196
O8	O	1.549479	0.737602	0.420804
O9	O	1.063707	-0.006166	0.079161
O10	O	1.563707	0.493834	0.579161
O11	O	0.926378	0.122239	0.079142
O12	O	1.426378	0.622239	0.579142
O13	O	1.186791	0.109190	0.079144
O14	O	1.686791	0.609190	0.579144
Zn15	Zn	1.056582	0.115713	0.104280
Zn16	Zn	1.556582	0.615713	0.604280
Zn17	Zn	1.056604	0.115723	-0.104315
Zn18	Zn	1.556604	0.615723	0.395685
O19	O	1.049463	0.237595	0.079125
O20	O	1.549463	0.737595	0.579125
C21	C	0.893063	0.121656	-0.000019
C22	C	1.393063	0.621656	0.499981
C23	C	0.793769	0.119898	-0.000018
C24	C	1.293769	0.619898	0.499982
C25	C	0.355406	0.188625	-0.000038
C26	C	0.855406	0.688625	0.499962
C27	C	0.448704	0.190270	-0.000042
C28	C	0.948704	0.690270	0.499958
C29	C	0.506012	0.114828	-0.000027
C30	C	1.006012	0.614828	0.499973
C31	C	0.470018	0.037734	-0.000017
C32	C	0.970018	0.537734	0.499983
C33	C	0.376722	0.036090	-0.000020
C34	C	0.876722	0.536090	0.499980
C35	C	0.664477	0.041167	-0.000010
C36	C	1.164477	0.541167	0.499990
C37	C	0.757780	0.042811	-0.000006
C38	C	1.257780	0.542811	0.499994
C39	C	0.736460	0.195347	-0.000033
C40	C	1.236460	0.695347	0.499967
C41	C	0.643163	0.193703	-0.000035
C42	C	1.143163	0.693703	0.499965
C43	C	0.607175	0.116610	-0.000023
C44	C	1.107175	0.616610	0.499977
C45	C	1.063128	-0.037358	0.000002
C46	C	1.563128	0.462642	0.500002
C47	C	1.061366	-0.130310	0.000010
C48	C	1.561366	0.369690	0.500010
C49	C	1.058168	-0.300500	-0.000012
C50	C	1.558168	0.199500	0.499988
C51	C	0.959038	-0.323952	-0.000014
C52	C	1.459038	0.176048	0.499986
C53	C	0.957173	-0.420632	-0.000384
C54	C	1.457173	0.079368	0.499616
C55	C	1.055018	-0.468063	-0.000032
C56	C	1.555018	0.031937	0.499968
C57	C	1.104872	-0.438907	-0.090259
C58	C	1.604872	0.061093	0.409741
C59	C	1.106048	-0.342113	-0.090324
C60	C	1.606048	0.157887	0.409676
C61	C	1.107480	-0.342225	0.089723
C62	C	1.607480	0.157775	0.589723
C63	C	1.103821	-0.438724	0.090898
C64	C	1.603821	0.061276	0.590898
C65	C	1.053243	-0.562764	-0.000047
C66	C	1.553243	-0.062764	0.499953
C67	C	1.059946	-0.205800	-0.000004
C68	C	1.559946	0.294200	0.499996
C69	C	1.220123	0.109780	-0.000019
C70	C	1.720123	0.609780	0.499981
C71	C	1.319417	0.111538	-0.000025
C72	C	1.819417	0.611538	0.499975
C73	C	1.050059	0.268794	-0.000040
C74	C	1.550059	0.768794	0.499960
C75	C	1.051820	0.361747	-0.000054
C76	C	1.551820	0.861747	0.499946
N77	N	1.056574	0.115706	0.246641
N78	N	1.556574	0.615706	0.746641
N79	N	1.056619	0.115724	-0.246676
N80	N	1.556619	0.615724	0.253324
C81	C	1.117402	0.058872	0.296467
C82	C	1.617402	0.558872	0.796467
C83	C	1.117408	0.058871	0.396124
C84	C	1.617408	0.558871	0.896124
C85	C	1.056590	0.115710	0.445954
C86	C	1.556590	0.615710	0.945954
C87	C	0.995755	0.172546	0.396121
C88	C	1.495755	0.672546	0.896121
C89	C	0.995745	0.172542	0.296465
C90	C	1.495745	0.672542	0.796465
C91	C	0.995781	0.172553	0.603835
C92	C	1.495781	0.672553	1.103835
C93	C	0.995791	0.172558	0.703498
C94	C	1.495791	0.672558	1.203498
C95	C	1.117444	0.058881	0.703495
C96	C	1.617444	0.558881	1.203495
C97	C	1.117434	0.058877	0.603839
C98	C	1.617434	0.558877	1.103839
C99	C	1.056600	0.115715	0.554012
C100	C	1.556600	0.615715	1.054012
H101	H	0.596504	0.255135	-0.000041
H102	H	1.096504	0.755135	0.499959
H103	H	1.178743	-0.327461	-0.094169
H104	H	1.678743	0.172539	0.405831
F105	F	1.056368	-0.463041	0.178150
F106	F	1.556368	0.036959	0.678150
H107	H	0.946240	0.218834	0.563270
H108	H	1.446240	0.718834	1.063270
F109	F	0.531013	-0.042558	-0.000004
F110	F	1.031013	0.457442	0.499996
F111	F	0.909640	-0.286112	-0.084461
F112	F	1.409640	0.213888	0.415539
F113	F	0.626179	-0.040885	0.000006
F114	F	1.126179	0.459115	0.500006
F115	F	1.061466	-0.307136	-0.178817
F116	F	1.561466	0.192864	0.321183
F117	F	1.182168	-0.001611	0.550806
F118	F	1.682168	0.498389	1.050806
H119	H	0.946231	0.218823	0.436698
H120	H	1.446231	0.718823	0.936698
F121	F	1.198998	-0.480428	-0.094317
F122	F	1.698998	0.019572	0.405683
H123	H	0.347422	-0.026682	-0.000011
H124	H	0.847422	0.473318	0.499989
H125	H	0.918348	-0.439102	-0.065447
H126	H	1.418348	0.060898	0.434553
F127	F	1.066591	-0.305331	0.179145
F128	F	1.566591	0.194669	0.679145
F129	F	0.774761	0.277396	-0.000037
F130	F	1.274761	0.777396	0.499963
H131	H	1.175218	-0.471596	0.096618
H132	H	1.675218	0.028404	0.596618
F133	F	0.818771	-0.037484	0.000005
F134	F	1.318771	0.462516	0.500005
H135	H	1.166976	0.012602	0.744069
H136	H	1.666976	0.512602	1.244069
F137	F	1.182139	-0.001621	0.243444
F138	F	1.682139	0.498379	0.743444
H139	H	0.918140	-0.439700	0.064275
H140	H	1.418140	0.060300	0.564275
F141	F	0.908801	-0.287406	0.084544
F142	F	1.408801	0.212594	0.584544
F143	F	1.182147	-0.001619	0.449154
F144	F	1.682147	0.498381	0.949154
H145	H	1.070679	-0.459025	-0.157664
H146	H	1.570679	0.040975	0.342336
H147	H	0.478001	0.253042	-0.000062
H148	H	0.978001	0.753042	0.499938
H149	H	1.180444	-0.328126	0.090600
H150	H	1.680444	0.171874	0.590600
F151	F	0.931058	0.233053	0.756523
F152	F	1.431058	0.733053	1.256523
F153	F	0.931001	0.233031	0.243438
F154	F	1.431001	0.733031	0.743438
H155	H	0.308751	0.250060	-0.000043
H156	H	0.808751	0.750060	0.499957
