data_functionalizedCrystal
_audit_creation_method	'MofGen! by Chris Wilmer'
_symmetry_space_group_name_H-M	'P1'
_symmetry_Int_Tables_number	1
_symmetry_cell_setting	triclinic
loop_
_symmetry_equiv_pos_as_xyz
  x,y,z
_cell_length_a	21.295417
_cell_length_b	12.827893
_cell_length_c	12.827885
_cell_angle_alpha	89.978811
_cell_angle_beta	90.038100
_cell_angle_gamma	89.971474
loop_
_atom_site_label
_atom_site_type_symbol
_atom_site_fract_x
_atom_site_fract_y
_atom_site_fract_z
Zn1	Zn	-0.250612	-1.597560	0.590842
Zn2	Zn	0.249388	-1.097560	1.090842
Zn3	Zn	-0.355894	-1.597408	0.416077
Zn4	Zn	0.144106	-1.097408	0.916077
Zn5	Zn	-0.250639	-1.422801	0.416109
Zn6	Zn	0.249361	-0.922801	0.916109
Zn7	Zn	-0.355844	-1.422740	0.590771
Zn8	Zn	0.144156	-0.922740	1.090771
O9	O	-0.303247	-1.510127	0.503450
O10	O	0.196753	-1.010127	1.003450
O11	O	-0.264588	-1.743776	0.567675
O12	O	0.235412	-1.243776	1.067675
O13	O	-0.341964	-1.574208	0.269845
O14	O	0.158036	-1.074208	0.769845
O15	O	-0.162546	-1.446072	0.439332
O16	O	0.337454	-0.946072	0.939332
O17	O	-0.341938	-1.743664	0.439276
O18	O	0.158062	-1.243664	0.939276
O19	O	-0.162526	-1.574467	0.567707
O20	O	0.337474	-1.074467	1.067707
O21	O	-0.264634	-1.445925	0.269869
O22	O	0.235366	-0.945925	0.769869
O23	O	-0.264585	-1.276557	0.439263
O24	O	0.235415	-0.776557	0.939263
O25	O	-0.341852	-1.445969	0.737016
O26	O	0.158148	-0.945969	1.237016
O27	O	-0.341878	-1.276512	0.567586
O28	O	0.158122	-0.776512	1.067586
O29	O	-0.264539	-1.574408	0.737068
O30	O	0.235461	-1.074408	1.237068
O31	O	-0.443977	-1.574149	0.439207
O32	O	0.056023	-1.074149	0.939207
O33	O	-0.443940	-1.445821	0.567554
O34	O	0.056060	-0.945821	1.067554
C35	C	-0.303229	-1.238617	0.503421
C36	C	0.196771	-0.738617	1.003421
C37	C	-0.303237	-1.122464	0.503433
C38	C	0.196763	-0.622464	1.003433
C39	C	-0.341543	-1.070685	0.566832
C40	C	0.158457	-0.570685	1.066832
C41	C	-0.341552	-0.950635	0.566846
C42	C	0.158448	-0.450635	1.066846
C43	C	-0.466799	-1.509990	0.503392
C44	C	0.033201	-1.009990	1.003392
C45	C	-0.536767	-1.510027	0.503402
C46	C	-0.036767	-1.010027	1.003402
C47	C	-0.569632	-1.576907	0.436640
C48	C	-0.069632	-1.076907	0.936640
C49	C	-0.635374	-1.576956	0.436664
C50	C	-0.135374	-1.076956	0.936664
C51	C	-0.668249	-1.510107	0.503438
C52	C	-0.168249	-1.010107	1.003438
C53	C	-0.635376	-1.443222	0.570213
C54	C	-0.135376	-0.943222	1.070213
C55	C	-0.569635	-1.443183	0.570195
C56	C	-0.069635	-0.943183	1.070195
N57	N	-0.771513	-1.418690	0.511395
N58	N	-0.271513	-0.918690	1.011395
N59	N	-0.833964	-1.418731	0.511406
N60	N	-0.333964	-0.918731	1.011406
C61	C	-0.866324	-1.510224	0.503498
C62	C	-0.366324	-1.010224	1.003498
N63	N	-0.833873	-1.601676	0.495558
N64	N	-0.333873	-1.101676	0.995558
N65	N	-0.771416	-1.601635	0.495542
N66	N	-0.271416	-1.101635	0.995542
C67	C	-0.739535	-1.510143	0.503465
C68	C	-0.239535	-1.010143	1.003465
C69	C	-0.970475	-1.577162	0.436758
C70	C	-0.470475	-1.077162	0.936758
C71	C	-1.036218	-1.577213	0.436789
C72	C	-0.536218	-1.077213	0.936789
C73	C	-1.036219	-1.443470	0.570333
C74	C	-0.536219	-0.943470	1.070333
C75	C	-0.970477	-1.443429	0.570307
C76	C	-0.470477	-0.943429	1.070307
C77	C	-0.937608	-1.510273	0.503514
C78	C	-0.437608	-1.010273	1.003514
C79	C	-0.139057	-1.510293	0.503531
C80	C	0.360943	-1.010293	1.003531
C81	C	-0.069089	-1.510364	0.503565
C82	C	0.430911	-1.010364	1.003565
C83	C	-0.303187	-1.510198	0.776020
C84	C	0.196813	-1.010198	1.276020
C85	C	-0.303161	-1.510229	0.892173
C86	C	0.196839	-1.010229	1.392173
C87	C	-0.303260	-0.782697	0.503471
C88	C	0.196740	-0.282697	1.003471
C89	C	-0.303253	-0.898851	0.503459
C90	C	0.196747	-0.398851	1.003459
C91	C	-0.303262	-1.510117	0.231940
C92	C	0.196738	-1.010117	0.731940
C93	C	-0.303110	-1.510289	0.115787
C94	C	0.196890	-1.010289	0.615787
C95	C	-0.264896	-1.573791	0.943984
C96	C	0.235104	-1.073791	1.443984
C97	C	-0.264869	-1.573824	1.064034
C98	C	0.235131	-1.073824	1.564034
H99	H	-0.270446	-1.077918	0.449170
H100	H	0.229554	-0.577918	0.949170
O101	O	-0.342290	-1.445485	0.945320
O102	O	0.157710	-0.945485	1.445320
C103	C	-0.382891	-1.505016	1.008461
C104	C	0.117109	-1.005016	1.508461
H105	H	-0.386807	-1.587279	0.975510
H106	H	0.113193	-1.087279	1.475510
H107	H	-0.431334	-1.467178	1.009777
H108	H	0.068666	-0.967178	1.509777
H109	H	-0.363366	-1.508730	1.091151
H110	H	0.136634	-1.008730	1.591151
H111	H	-0.542876	-1.388721	0.624562
H112	H	-0.042876	-0.888721	1.124562
O113	O	-0.225851	-1.638897	1.117134
O114	O	0.274149	-1.138897	1.617134
C115	C	-0.239594	-1.743052	1.090524
C116	C	0.260406	-1.243052	1.590524
H117	H	-0.289873	-1.748300	1.060427
H118	H	0.210127	-1.248300	1.560427
H119	H	-0.234198	-1.794639	1.162360
H120	H	0.265802	-1.294639	1.662360
H121	H	-0.205825	-1.770441	1.027271
H122	H	0.294175	-1.270441	1.527271
H123	H	-0.232155	-1.628182	0.899464
H124	H	0.267845	-1.128182	1.399464
O125	O	-0.264213	-0.952073	0.438647
O126	O	0.235787	-0.452073	0.938647
C127	C	-0.300035	-1.015132	0.371074
C128	C	0.199965	-0.515132	0.871074
H129	H	-0.347775	-1.031362	0.407796
H130	H	0.152225	-0.531362	0.907796
H131	H	-0.274423	-1.091938	0.357207
H132	H	0.225577	-0.591938	0.857207
H133	H	-0.306876	-0.973088	0.293577
H134	H	0.193124	-0.473088	0.793577
O135	O	-0.342169	-1.445220	1.062767
O136	O	0.157831	-0.945220	1.562767
C137	C	-0.328407	-1.341061	1.089335
C138	C	0.171593	-0.841061	1.589335
H139	H	-0.304229	-1.338865	1.168616
H140	H	0.195771	-0.838865	1.668616
H141	H	-0.373838	-1.294160	1.092938
H142	H	0.126162	-0.794160	1.592938
H143	H	-0.296027	-1.305931	1.027934
H144	H	0.203973	-0.805931	1.527934
H145	H	-0.374329	-1.115232	0.621103
H146	H	0.125671	-0.615232	1.121103
H147	H	-0.943712	-1.631594	0.382374
H148	H	-0.443712	-1.131594	0.882374
H149	H	-0.662138	-1.631421	0.382298
H150	H	-0.162138	-1.131421	0.882298
O151	O	-0.380587	-0.897473	0.631715
O152	O	0.119413	-0.397473	1.131715
C153	C	-0.344766	-0.834371	0.699249
C154	C	0.155234	-0.334371	1.199249
H155	H	-0.295207	-0.867364	0.705881
H156	H	0.204793	-0.367364	1.205881
H157	H	-0.367588	-0.833048	0.779601
H158	H	0.132412	-0.333048	1.279601
H159	H	-0.342535	-0.751678	0.666878
H160	H	0.157465	-0.251678	1.166878
O161	O	-0.537802	-1.641946	0.371737
O162	O	-0.037802	-1.141946	0.871737
C163	C	-0.580913	-1.700971	0.312799
C164	C	-0.080913	-1.200971	0.812799
H165	H	-0.627753	-1.704586	0.355617
H166	H	-0.127753	-1.204586	0.855617
H167	H	-0.561884	-1.783304	0.301727
H168	H	-0.061884	-1.283304	0.801727
H169	H	-0.587961	-1.662753	0.233397
H170	H	-0.087961	-1.162753	0.733397
H171	H	-0.662147	-1.388795	0.624583
H172	H	-0.162147	-0.888795	1.124583
O173	O	-1.068048	-1.642218	0.371835
O174	O	-0.568048	-1.142218	0.871835
C175	C	-1.024937	-1.701220	0.312901
C176	C	-0.524937	-1.201220	0.812901
H177	H	-0.978099	-1.658387	0.309231
H178	H	-0.478099	-1.158387	0.809231
H179	H	-1.043969	-1.712419	0.230581
H180	H	-0.543969	-1.212419	0.730581
H181	H	-1.017882	-1.780565	0.351232
H182	H	-0.517882	-1.280565	0.851232
H183	H	-1.062985	-1.389045	0.624706
H184	H	-0.562985	-0.889045	1.124706
O185	O	-0.938645	-1.378352	0.635183
O186	O	-0.438645	-0.878352	1.135183
C187	C	-0.981756	-1.319376	0.694145
C188	C	-0.481756	-0.819376	1.194145
H189	H	-1.028643	-1.315812	0.651353
H190	H	-0.528643	-0.815812	1.151353
H191	H	-0.962799	-1.237021	0.705207
H192	H	-0.462799	-0.737021	1.205207
H193	H	-0.988686	-1.357601	0.773551
H194	H	-0.488686	-0.857601	1.273551
