data_functionalizedCrystal
_audit_creation_method	'MofGen! by Chris Wilmer'
_symmetry_space_group_name_H-M	'P1'
_symmetry_Int_Tables_number	1
_symmetry_cell_setting	triclinic
loop_
_symmetry_equiv_pos_as_xyz
  x,y,z
_cell_length_a	16.109295
_cell_length_b	10.723024
_cell_length_c	9.198806
_cell_angle_alpha	89.997723
_cell_angle_beta	90.001029
_cell_angle_gamma	96.036472
loop_
_atom_site_label
_atom_site_type_symbol
_atom_site_fract_x
_atom_site_fract_y
_atom_site_fract_z
O1	O	-1.104078	0.160357	-0.120790
O2	O	-0.862133	0.180324	-0.120814
O3	O	-0.988686	-0.011310	-0.120796
O4	O	-0.977524	0.351991	-0.120808
O5	O	-0.988676	-0.011311	0.120989
O6	O	-0.862123	0.180323	0.120971
O7	O	-1.104068	0.160355	0.120995
Cu8	Cu	-0.983094	0.170339	0.143060
Cu9	Cu	-0.983106	0.170341	-0.142879
O10	O	-0.977514	0.351989	0.120977
C11	C	-0.831148	0.179516	0.000076
C12	C	-0.738838	0.177095	0.000066
C13	C	-0.987869	-0.057799	0.000095
C14	C	-0.985439	-0.196321	0.000090
C15	C	-0.517201	0.285175	0.000078
C16	C	-0.430467	0.282890	0.000087
C17	C	-0.449004	0.055526	0.000089
C18	C	-0.535736	0.057812	0.000090
C19	C	-0.569832	0.172640	0.000078
C20	C	-0.396366	0.168069	0.000085
C21	C	-0.302325	0.165591	0.000094
C22	C	-0.663879	0.175119	0.000071
C23	C	-1.056251	-0.272245	0.000095
C24	C	-1.053741	-0.415415	0.000089
C25	C	-0.135052	0.161171	0.000101
C26	C	-0.227360	0.163615	0.000096
C27	C	-0.978332	0.398479	0.000083
C28	C	-0.980762	0.537001	0.000079
N29	N	-0.983115	0.170333	-0.343993
N30	N	-0.983092	0.170337	0.344174
C31	C	-1.031570	0.242054	0.416375
C32	C	-1.031583	0.242052	0.583787
H33	H	-0.544959	0.378675	0.000079
H34	H	-1.073083	0.303459	0.645878
O35	O	-0.910872	-0.245152	-0.000180
C36	C	-0.865371	-0.204328	-0.125386
H37	H	-0.910240	-0.177172	-0.212903
H38	H	-0.819454	-0.119565	-0.097075
C39	C	-0.761978	-0.344272	-0.074690
C40	C	-0.817087	-0.310928	-0.182184
H41	H	-0.732190	-0.410025	-0.109724
H42	H	-0.792630	-0.371773	0.009667
H43	H	-0.723721	-0.273627	-0.051107
H44	H	-0.855348	-0.381568	-0.205752
H45	H	-0.786440	-0.283442	-0.266547
H46	H	-0.920137	-0.397769	0.000085
O47	O	-1.126144	-0.493055	0.000156
C48	C	-1.194487	-0.421003	0.000126
H49	H	-1.174014	-0.323831	0.045902
H50	H	-1.218006	-0.411785	-0.115870
C51	C	-1.290172	-0.605363	0.038723
C52	C	-1.265028	-0.486017	0.094959
H53	H	-1.333687	-0.645467	0.097215
H54	H	-1.244129	-0.653907	0.038739
H55	H	-1.309765	-0.597664	-0.057938
H56	H	-1.245425	-0.493718	0.191611
H57	H	-1.311069	-0.437475	0.094962
H58	H	-0.941605	0.108936	0.593926
O59	O	-0.586903	-0.051477	0.000342
C60	C	-0.637639	-0.056944	0.125547
H61	H	-0.606238	0.006870	0.213072
H62	H	-0.700881	-0.024661	0.097239
C63	C	-0.688618	-0.271103	0.074827
C64	C	-0.650047	-0.192734	0.182330
H65	H	-0.696275	-0.354865	0.109850
H66	H	-0.654438	-0.267420	-0.009530
H67	H	-0.741315	-0.244186	0.051246
H68	H	-0.597347	-0.219642	0.205896
H69	H	-0.684218	-0.196425	0.266692
H70	H	-0.387618	0.374527	0.000091
O71	O	-0.415921	-0.056044	0.000341
C72	C	-0.442766	-0.124666	0.125543
H73	H	-0.461181	-0.057529	0.213074
H74	H	-0.498892	-0.194217	0.097232
C75	C	-0.348780	-0.278823	0.074802
C76	C	-0.371391	-0.196363	0.182314
H77	H	-0.304755	-0.323054	0.109818
H78	H	-0.330696	-0.232594	-0.009552
H79	H	-0.395558	-0.336770	0.051219
H80	H	-0.324617	-0.138407	0.205881
H81	H	-0.389466	-0.242584	0.266673
H82	H	-1.118735	-0.231253	0.000110
H83	H	-1.073069	0.303450	0.354248
H84	H	-0.941600	0.108933	0.406301
