data_functionalizedCrystal
_audit_creation_method	'MofGen! by Chris Wilmer'
_symmetry_space_group_name_H-M	'P1'
_symmetry_Int_Tables_number	1
_symmetry_cell_setting	triclinic
loop_
_symmetry_equiv_pos_as_xyz
  x,y,z
_cell_length_a	23.532407
_cell_length_b	23.532407
_cell_length_c	12.376897
_cell_angle_alpha	77.272789
_cell_angle_beta	77.276354
_cell_angle_gamma	82.848712
loop_
_atom_site_label
_atom_site_type_symbol
_atom_site_fract_x
_atom_site_fract_y
_atom_site_fract_z
O1	O	0.745582	0.059447	0.093938
O2	O	1.245582	0.559447	0.593938
O3	O	0.579717	0.069449	0.093957
O4	O	1.079717	0.569449	0.593957
O5	O	0.667653	-0.018481	0.093926
O6	O	1.167653	0.481519	0.593926
O7	O	0.657646	0.147377	0.093969
O8	O	1.157646	0.647377	0.593969
O9	O	0.687013	0.000904	-0.094069
O10	O	1.187013	0.500904	0.405931
O11	O	0.599076	0.088834	-0.094038
O12	O	1.099076	0.588834	0.405962
O13	O	0.764942	0.078833	-0.094058
O14	O	1.264942	0.578833	0.405942
Zn15	Zn	0.685083	0.086911	-0.123896
Zn16	Zn	1.185083	0.586911	0.376104
Zn17	Zn	0.659576	0.061370	0.123796
Zn18	Zn	1.159576	0.561370	0.623796
O19	O	0.677005	0.166763	-0.094027
O20	O	1.177005	0.666763	0.405973
C21	C	0.568180	0.078886	-0.000038
C22	C	1.068180	0.578886	0.499962
C23	C	0.504963	0.078120	-0.000032
C24	C	1.004963	0.578120	0.499968
C25	C	0.238800	0.022929	-0.000077
C26	C	0.738800	0.522929	0.499923
C27	C	0.298200	0.023640	-0.000076
C28	C	0.798200	0.523640	0.499924
O29	O	0.334950	-0.020140	-0.000127
O30	O	0.834950	0.479860	0.499873
N31	N	0.320824	0.075914	-0.000055
N32	N	0.820824	0.575914	0.499945
C33	C	0.284045	0.127482	-0.000046
C34	C	0.784045	0.627482	0.499954
O35	O	0.308743	0.172010	-0.000029
O36	O	0.808743	0.672010	0.499971
C37	C	0.224647	0.126771	-0.000055
C38	C	0.724647	0.626771	0.499945
C39	C	0.202026	0.074492	-0.000064
C40	C	0.702026	0.574492	0.499936
C41	C	0.216178	-0.029345	-0.000088
C42	C	0.716178	0.470655	0.499912
C43	C	0.156781	-0.030057	-0.000086
C44	C	0.656781	0.469943	0.499914
C45	C	0.120007	0.021506	-0.000073
C46	C	0.620007	0.521506	0.499927
C47	C	0.142629	0.073781	-0.000063
C48	C	0.642629	0.573781	0.499937
C49	C	0.187871	0.178338	-0.000054
C50	C	0.687871	0.678338	0.499946
C51	C	0.128469	0.177622	-0.000063
C52	C	0.628469	0.677622	0.499937
C53	C	0.105848	0.125344	-0.000073
C54	C	0.605848	0.625344	0.499927
C55	C	0.046459	0.124632	-0.000048
C56	C	0.546459	0.624632	0.499952
N57	N	0.023835	0.072358	-0.000070
N58	N	0.523835	0.572358	0.499930
C59	C	0.060609	0.020795	-0.000082
C60	C	0.560609	0.520795	0.499918
C61	C	0.408786	0.128971	-0.000030
C62	C	0.908786	0.628971	0.499970
C63	C	0.468183	0.129682	-0.000013
C64	C	0.968183	0.629682	0.499987
C65	C	0.482333	0.025841	-0.000046
C66	C	0.982333	0.525841	0.499954
C67	C	0.422935	0.025130	-0.000054
C68	C	0.922935	0.525130	0.499946
C69	C	0.386162	0.076697	-0.000051
C70	C	0.886162	0.576697	0.499949
C71	C	-0.064128	0.019305	-0.000078
C72	C	0.435872	0.519305	0.499922
C73	C	-0.123531	0.018598	-0.000071
C74	C	0.376469	0.518598	0.499929
C75	C	-0.137676	0.122439	-0.000045
C76	C	0.362324	0.622439	0.499955
C77	C	-0.078279	0.123146	-0.000045
C78	C	0.421721	0.623146	0.499955
C79	C	-0.041506	0.071575	-0.000065
C80	C	0.458494	0.571575	0.499935
O81	O	0.009675	0.168390	-0.000003
O82	O	0.509675	0.668390	0.499997
O83	O	0.035904	-0.023725	-0.000114
O84	O	0.535904	0.476275	0.499886
C85	C	0.677079	-0.030005	-0.000074
C86	C	1.177079	0.469995	0.499926
C87	C	0.676314	-0.093221	-0.000083
C88	C	1.176314	0.406779	0.499917
C89	C	0.723541	-0.492330	-0.000027
C90	C	1.223541	0.007670	0.499973
C91	C	0.722829	-0.551731	-0.000018
C92	C	1.222829	-0.051731	0.499982
O93	O	0.766611	-0.588479	0.000019
O94	O	1.266611	-0.088479	0.500019
N95	N	0.670552	-0.574357	-0.000013
N96	N	1.170552	-0.074357	0.499987
C97	C	0.618983	-0.537581	-0.000004
C98	C	1.118983	-0.037581	0.499996
O99	O	0.574452	-0.562281	0.000002
O100	O	1.074452	-0.062281	0.500002
C101	C	0.619695	-0.478182	-0.000005
C102	C	1.119695	0.021818	0.499995
C103	C	0.671976	-0.455557	-0.000022
C104	C	1.171976	0.044443	0.499978
C105	C	0.775818	-0.469705	-0.000042
C106	C	1.275818	0.030295	0.499958
C107	C	0.776531	-0.410307	-0.000053
C108	C	1.276531	0.089693	0.499947
C109	C	0.724966	-0.373535	-0.000048
C110	C	1.224966	0.126465	0.499952
C111	C	0.672689	-0.396160	-0.000033
C112	C	1.172689	0.103840	0.499967
C113	C	0.568126	-0.441407	0.000011
C114	C	1.068126	0.058593	0.500011
C115	C	0.568842	-0.382004	0.000011
C116	C	1.068842	0.117996	0.500011
C117	C	0.621124	-0.359380	-0.000005
C118	C	1.121124	0.140620	0.499995
C119	C	0.621836	-0.299990	-0.000039
C120	C	1.121836	0.200010	0.499961
N121	N	0.674113	-0.277364	-0.000044
N122	N	1.174113	0.222636	0.499956
C123	C	0.725678	-0.314136	-0.000049
C124	C	1.225678	0.185864	0.499951
C125	C	0.617491	-0.662324	-0.000001
C126	C	1.117491	-0.162324	0.499999
C127	C	0.616779	-0.721721	-0.000009
C128	C	1.116779	-0.221721	0.499991
C129	C	0.720625	-0.735867	-0.000020
C130	C	1.220625	-0.235867	0.499980
C131	C	0.721337	-0.676468	-0.000021
C132	C	1.221337	-0.176468	0.499979
C133	C	0.669768	-0.639697	-0.000007
C134	C	1.169768	-0.139697	0.499993
C135	C	0.727170	-0.189397	-0.000072
C136	C	1.227170	0.310603	0.499928
C137	C	0.727878	-0.129993	-0.000088
C138	C	1.227878	0.370007	0.499912
C139	C	0.624032	-0.115853	-0.000070
C140	C	1.124032	0.384147	0.499930
C141	C	0.623324	-0.175251	-0.000061
C142	C	1.123324	0.324749	0.499939
C143	C	0.674897	-0.212022	-0.000058
C144	C	1.174897	0.287978	0.499942
O145	O	0.578077	-0.263208	-0.000071
O146	O	1.078077	0.236792	0.499929
O147	O	0.770200	-0.289429	-0.000040
O148	O	1.270200	0.210571	0.499960
C149	C	0.776478	0.069395	-0.000060
C150	C	1.276478	0.569395	0.499940
C151	C	0.839695	0.070161	-0.000059
C152	C	1.339695	0.570161	0.499941
C153	C	0.667580	0.178286	-0.000024
C154	C	1.167580	0.678286	0.499976
C155	C	0.668344	0.241501	-0.000008
C156	C	1.168344	0.741501	0.499992
N157	N	0.702494	0.104342	-0.292940
N158	N	1.202494	0.604342	0.207060
C159	C	0.601729	0.003468	-0.648011
C160	C	1.101729	0.503468	-0.148011
C161	C	0.589534	-0.008733	-0.529681
C162	C	1.089534	0.491267	-0.029681
C163	C	0.617773	0.019535	-0.470490
C164	C	1.117773	0.519535	0.029510
C165	C	0.658210	0.060006	-0.529640
C166	C	1.158210	0.560006	-0.029640
C167	C	0.670410	0.072205	-0.647981
C168	C	1.170410	0.572205	-0.147981
C169	C	0.686453	0.088271	-0.470460
C170	C	1.186453	0.588271	0.029540
C171	C	0.726890	0.128742	-0.529610
C172	C	1.226890	0.628742	-0.029610
C173	C	0.739088	0.140939	-0.647940
C174	C	1.239088	0.640939	-0.147940
C175	C	0.710849	0.112671	-0.707131
C176	C	1.210849	0.612671	-0.207131
C177	C	0.674253	0.076072	-0.352119
C178	C	1.174253	0.576072	0.147881
C179	C	0.742934	0.144809	-0.352090
C180	C	1.242934	0.644809	0.147910
C181	C	0.755129	0.157010	-0.470419
C182	C	1.255129	0.657010	0.029581
N183	N	0.642169	0.043935	0.292839
N184	N	1.142169	0.543935	0.792839
H185	H	-0.034194	-0.022690	-0.000094
H186	H	0.465806	0.477310	0.499906
H187	H	0.788054	0.189962	-0.518596
H188	H	1.288054	0.689962	-0.018596
H189	H	0.762612	-0.765819	-0.000020
H190	H	1.262612	-0.265819	0.499980
H191	H	0.526847	-0.352068	0.000025
H192	H	1.026847	0.147932	0.500025
H193	H	0.607840	0.009599	-0.374141
H194	H	1.107840	0.509599	0.125859
H195	H	0.556611	-0.041685	-0.481530
H196	H	1.056611	0.458315	0.018470
C197	C	0.212745	0.235844	-0.000045
C198	C	0.712745	0.735844	0.499955
H199	H	0.253387	0.228891	-0.000035
H200	H	0.753387	0.728891	0.499965
H201	H	0.206852	0.263817	-0.065600
H202	H	0.706852	0.763817	0.434400
H203	H	0.193344	0.250299	0.065525
H204	H	0.693344	0.750299	0.565525
H205	H	-0.167628	0.164420	-0.000029
H206	H	0.332372	0.664420	0.499971
H207	H	0.578745	-0.019547	-0.696215
H208	H	1.078745	0.480453	-0.196215
C209	C	0.724269	0.126086	-0.837295
C210	C	1.224269	0.626086	-0.337295
H211	H	0.701661	0.103451	-0.864070
H212	H	1.201661	0.603451	-0.364070
H213	H	0.714801	0.166438	-0.864071
H214	H	1.214801	0.666438	-0.364071
H215	H	0.764629	0.116630	-0.864047
H216	H	1.264629	0.616630	-0.364047
C217	C	0.559271	-0.746600	0.000000
C218	C	1.059271	-0.246600	0.500000
H219	H	0.528665	-0.716189	0.000010
H220	H	1.028665	-0.216189	0.500010
H221	H	0.563580	-0.762726	-0.065551
H222	H	1.063580	-0.262726	0.434449
H223	H	0.550081	-0.776230	0.065573
H224	H	1.050081	-0.276230	0.565573
H225	H	0.138369	-0.072627	-0.000099
H226	H	0.638369	0.427373	0.499901
C227	C	0.256620	-0.086071	-0.000091
C228	C	0.756620	0.413929	0.499909
H229	H	0.234630	-0.117301	-0.000090
H230	H	0.734630	0.382699	0.499910
H231	H	0.286844	-0.081202	-0.065642
H232	H	0.786844	0.418798	0.434358
H233	H	0.273325	-0.094714	0.065483
H234	H	0.773325	0.405286	0.565483
C235	C	0.785389	-0.105110	-0.000100
C236	C	1.285389	0.394890	0.499900
H237	H	0.815995	-0.135523	-0.000089
H238	H	1.315995	0.364477	0.499911
H239	H	0.794580	-0.075479	-0.065660
H240	H	1.294580	0.424521	0.434340
H241	H	0.781074	-0.088988	0.065464
H242	H	1.281074	0.411012	0.565464
H243	H	0.772020	0.173888	-0.696097
H244	H	1.272020	0.673888	-0.196097
C245	C	0.088021	0.234347	-0.000048
C246	C	0.588021	0.734347	0.499952
H247	H	0.110004	0.265579	-0.000031
H248	H	0.610004	0.765579	0.499969
H249	H	0.071305	0.242991	-0.065603
H250	H	0.571305	0.742991	0.434397
H251	H	0.057804	0.229467	0.065522
H252	H	0.557804	0.729467	0.565522
H253	H	0.769166	-0.219330	-0.000066
H254	H	1.269166	0.280670	0.499934
C255	C	0.560763	-0.621878	-0.000007
C256	C	1.060763	-0.121878	0.499993
H257	H	0.529532	-0.643864	-0.000014
H258	H	1.029532	-0.143864	0.499986
H259	H	0.552125	-0.605165	0.065548
H260	H	1.052125	-0.105165	0.565548
H261	H	0.565635	-0.591658	-0.065577
H262	H	1.065635	-0.091658	0.434423
C263	C	-0.053395	0.180649	-0.000019
C264	C	0.446605	0.680649	0.499981
H265	H	-0.083806	0.211256	-0.000014
H266	H	0.416194	0.711256	0.499986
H267	H	-0.037267	0.176325	0.065535
H268	H	0.462733	0.676325	0.565535
H269	H	-0.023768	0.189849	-0.065589
H270	H	0.476232	0.689849	0.434411
H271	H	0.525552	-0.459817	0.000032
H272	H	1.025552	0.040183	0.500032
C273	C	0.398057	-0.032375	-0.000076
C274	C	0.898057	0.467625	0.499924
H275	H	0.428471	-0.062978	-0.000088
H276	H	0.928471	0.437022	0.499912
H277	H	0.368424	-0.041574	0.065475
H278	H	0.868424	0.458426	0.565475
H279	H	0.381940	-0.028051	-0.065650
H280	H	0.881940	0.471949	0.434350
C281	C	0.773997	0.175906	-0.286992
C282	C	1.273997	0.675906	0.213008
H283	H	0.760936	0.162850	-0.208046
H284	H	1.260936	0.662850	0.291954
H285	H	0.815021	0.167126	-0.306371
H286	H	1.315021	0.667126	0.193629
H287	H	0.765188	0.216929	-0.306382
H288	H	1.265188	0.716929	0.193618
C289	C	0.834038	-0.385430	-0.000050
C290	C	1.334038	0.114570	0.499950
H291	H	0.864640	-0.415846	-0.000038
H292	H	1.364640	0.084154	0.499962
H293	H	0.843235	-0.355797	-0.065605
H294	H	1.343235	0.144203	0.434395
H295	H	0.829721	-0.369313	0.065520
H296	H	1.329721	0.130687	0.565520
H297	H	0.512286	-0.016144	-0.000056
H298	H	1.012286	0.483856	0.499944
H299	H	-0.141946	-0.023976	-0.000076
H300	H	0.358054	0.476024	0.499924
H301	H	0.763909	-0.658052	-0.000033
H302	H	1.263909	-0.158052	0.499967
C303	C	0.832543	-0.510149	-0.000045
C304	C	1.332543	-0.010149	0.499955
H305	H	0.824640	-0.548769	-0.000034
H306	H	1.324640	-0.048769	0.499966
H307	H	0.860743	-0.496560	-0.065605
H308	H	1.360743	0.003440	0.434395
H309	H	0.847238	-0.510072	0.065519
H310	H	1.347238	-0.010072	0.565519
C311	C	0.493059	0.187187	0.000009
C312	C	0.993059	0.687187	0.500009
H313	H	0.462646	0.217792	0.000009
H314	H	0.962646	0.717792	0.500009
H315	H	0.509184	0.182867	0.065566
H316	H	1.009184	0.682867	0.565566
H317	H	0.522688	0.196387	-0.065559
H318	H	1.022688	0.696387	0.434441
C319	C	0.565816	-0.200139	-0.000040
C320	C	1.065816	0.299861	0.499960
H321	H	0.535208	-0.169730	-0.000031
H322	H	1.035208	0.330270	0.499969
H323	H	0.570124	-0.216270	-0.065585
H324	H	1.070124	0.283730	0.434415
H325	H	0.556632	-0.229766	0.065540
H326	H	1.056632	0.270234	0.565540
H327	H	0.378848	0.170966	-0.000019
H328	H	0.878848	0.670966	0.499981
H329	H	0.582050	-0.085902	-0.000071
H330	H	1.082050	0.414098	0.499929
H331	H	0.641328	0.043121	-0.303971
H332	H	1.141328	0.543121	0.196029
