data_functionalizedCrystal
_audit_creation_method	'MofGen! by Chris Wilmer'
_symmetry_space_group_name_H-M	'P1'
_symmetry_Int_Tables_number	1
_symmetry_cell_setting	triclinic
loop_
_symmetry_equiv_pos_as_xyz
  x,y,z
_cell_length_a	29.839134
_cell_length_b	29.839131
_cell_length_c	29.839125
_cell_angle_alpha	90.017709
_cell_angle_beta	90.021980
_cell_angle_gamma	90.036281
loop_
_atom_site_label
_atom_site_type_symbol
_atom_site_fract_x
_atom_site_fract_y
_atom_site_fract_z
Zn1	Zn	0.686720	-0.178978	0.254125
Zn2	Zn	0.936720	0.071022	0.504125
Zn3	Zn	1.186720	0.321022	0.754125
Zn4	Zn	1.436720	0.571022	1.004125
Zn5	Zn	0.686652	-0.254090	0.178995
Zn6	Zn	0.936652	-0.004090	0.428995
Zn7	Zn	1.186652	0.245910	0.678995
Zn8	Zn	1.436652	0.495910	0.928995
Zn9	Zn	0.611602	-0.178968	0.178995
Zn10	Zn	0.861602	0.071032	0.428995
Zn11	Zn	1.111602	0.321032	0.678995
Zn12	Zn	1.361602	0.571032	0.928995
Zn13	Zn	0.611550	-0.254075	0.254083
Zn14	Zn	0.861550	-0.004075	0.504083
Zn15	Zn	1.111550	0.245925	0.754083
Zn16	Zn	1.361550	0.495925	1.004083
O17	O	0.649131	-0.216528	0.216549
O18	O	0.899131	0.033472	0.466549
O19	O	1.149131	0.283472	0.716549
O20	O	1.399131	0.533472	0.966549
O21	O	0.749578	-0.188952	0.244176
O22	O	0.999578	0.061048	0.494176
O23	O	1.249578	0.311048	0.744176
O24	O	1.499578	0.561048	0.994176
O25	O	0.676690	-0.244127	0.116128
O26	O	0.926690	0.005873	0.366128
O27	O	1.176690	0.255873	0.616128
O28	O	1.426690	0.505873	0.866128
O29	O	0.621617	-0.116102	0.188978
O30	O	0.871617	0.133898	0.438978
O31	O	1.121617	0.383898	0.688978
O32	O	1.371617	0.633898	0.938978
O33	O	0.749528	-0.244137	0.188979
O34	O	0.999528	0.005863	0.438979
O35	O	1.249528	0.255863	0.688979
O36	O	1.499528	0.505863	0.938979
O37	O	0.676805	-0.116109	0.244176
O38	O	0.926805	0.133891	0.494176
O39	O	1.176805	0.383891	0.744176
O40	O	1.426805	0.633891	0.994176
O41	O	0.621551	-0.188935	0.116127
O42	O	0.871551	0.061065	0.366127
O43	O	1.121551	0.311065	0.616127
O44	O	1.371551	0.561065	0.866127
O45	O	0.548728	-0.188921	0.188938
O46	O	0.798728	0.061079	0.438938
O47	O	1.048728	0.311079	0.688938
O48	O	1.298728	0.561079	0.938938
O49	O	0.621528	-0.244111	0.316956
O50	O	0.871528	0.005889	0.566956
O51	O	1.121528	0.255889	0.816956
O52	O	1.371528	0.505889	1.066956
O53	O	0.548690	-0.244101	0.244105
O54	O	0.798690	0.005899	0.494105
O55	O	1.048690	0.255899	0.744105
O56	O	1.298690	0.505899	0.994105
O57	O	0.676755	-0.188937	0.316987
O58	O	0.926755	0.061063	0.566987
O59	O	1.176755	0.311063	0.816987
O60	O	1.426755	0.561063	1.066987
O61	O	0.676639	-0.316955	0.188938
O62	O	0.926639	-0.066955	0.438938
O63	O	1.176639	0.183045	0.688938
O64	O	1.426639	0.433045	0.938938
O65	O	0.621462	-0.316944	0.244105
O66	O	0.871462	-0.066944	0.494105
O67	O	1.121462	0.183056	0.744105
O68	O	1.371462	0.433056	0.994105
C69	C	0.532408	-0.216509	0.216517
C70	C	0.782408	0.033491	0.466517
C71	C	1.032408	0.283491	0.716517
C72	C	1.282408	0.533491	0.966517
C73	C	0.482474	-0.216511	0.216514
C74	C	0.732474	0.033489	0.466514
C75	C	0.982474	0.283489	0.716514
C76	C	1.232474	0.533489	0.966514
C77	C	0.172820	-0.245303	0.245240
C78	C	0.422820	0.004697	0.495240
C79	C	0.672820	0.254697	0.745240
C80	C	0.922820	0.504697	0.995240
C81	C	-0.014853	-0.245315	0.245260
C82	C	0.235147	0.004685	0.495260
C83	C	0.485147	0.254685	0.745260
C84	C	0.735147	0.504685	0.995260
O85	O	-0.039127	-0.269774	0.269665
O86	O	0.210873	-0.019774	0.519665
O87	O	0.460873	0.230226	0.769665
O88	O	0.710873	0.480226	1.019665
N89	N	-0.038311	-0.216544	0.216583
N90	N	0.211689	0.033456	0.466583
N91	N	0.461689	0.283456	0.716583
N92	N	0.711689	0.533456	0.966583
C93	C	-0.014848	-0.187766	0.187902
C94	C	0.235152	0.062234	0.437902
C95	C	0.485152	0.312234	0.687902
C96	C	0.735152	0.562234	0.937902
O97	O	-0.039107	-0.163291	0.163514
O98	O	0.210893	0.086709	0.413514
O99	O	0.460893	0.336709	0.663514
O100	O	0.710893	0.586709	0.913514
C101	C	0.172824	-0.187751	0.187884
C102	C	0.422824	0.062249	0.437884
C103	C	0.672824	0.312249	0.687884
C104	C	0.922824	0.562249	0.937884
C105	C	0.196280	-0.216527	0.216560
C106	C	0.446280	0.033473	0.466560
C107	C	0.696280	0.283473	0.716560
C108	C	0.946280	0.533473	0.966560
C109	C	0.196276	-0.274076	0.273913
C110	C	0.446276	-0.024076	0.523913
C111	C	0.696276	0.225924	0.773913
C112	C	0.946276	0.475924	1.023913
C113	C	0.243191	-0.274075	0.273906
C114	C	0.493191	-0.024075	0.523906
C115	C	0.743191	0.225925	0.773906
C116	C	0.993191	0.475925	1.023906
C117	C	0.266651	-0.245299	0.245226
C118	C	0.516651	0.004701	0.495226
C119	C	0.766651	0.254701	0.745226
C120	C	1.016651	0.504701	0.995226
C121	C	0.243195	-0.216526	0.216553
C122	C	0.493195	0.033474	0.466553
C123	C	0.743195	0.283474	0.716553
C124	C	0.993195	0.533474	0.966553
C125	C	0.196286	-0.158971	0.159205
C126	C	0.446286	0.091029	0.409205
C127	C	0.696286	0.341029	0.659205
C128	C	0.946286	0.591029	0.909205
C129	C	0.243207	-0.158969	0.159204
C130	C	0.493207	0.091031	0.409204
C131	C	0.743207	0.341031	0.659204
C132	C	0.993207	0.591031	0.909204
C133	C	0.266663	-0.187745	0.187880
C134	C	0.516663	0.062255	0.437880
C135	C	0.766663	0.312255	0.687880
C136	C	1.016663	0.562255	0.937880
C137	C	0.313570	-0.187749	0.187865
C138	C	0.563570	0.062251	0.437865
C139	C	0.813570	0.312251	0.687865
C140	C	1.063570	0.562251	0.937865
N141	N	0.337029	-0.216520	0.216542
N142	N	0.587029	0.033480	0.466542
N143	N	0.837029	0.283480	0.716542
N144	N	1.087029	0.533480	0.966542
C145	C	0.313569	-0.245295	0.245222
C146	C	0.563569	0.004705	0.495222
C147	C	0.813569	0.254705	0.745222
C148	C	1.063569	0.504705	0.995222
C149	C	-0.113379	-0.187776	0.187912
C150	C	0.136621	0.062224	0.437912
C151	C	0.386621	0.312224	0.687912
C152	C	0.636621	0.562224	0.937912
C153	C	-0.160297	-0.187780	0.187916
C154	C	0.089703	0.062220	0.437916
C155	C	0.339703	0.312220	0.687916
C156	C	0.589703	0.562220	0.937916
C157	C	-0.160298	-0.245329	0.245275
C158	C	0.089702	0.004671	0.495275
C159	C	0.339702	0.254671	0.745275
C160	C	0.589702	0.504671	0.995275
C161	C	-0.113380	-0.245327	0.245269
C162	C	0.136620	0.004673	0.495269
C163	C	0.386620	0.254673	0.745269
C164	C	0.636620	0.504673	0.995269
C165	C	-0.089921	-0.216547	0.216589
C166	C	0.160079	0.033453	0.466589
C167	C	0.410079	0.283453	0.716589
C168	C	0.660079	0.533453	0.966589
C169	C	0.412095	-0.245290	0.245205
C170	C	0.662095	0.004710	0.495205
C171	C	0.912095	0.254710	0.745205
C172	C	1.162095	0.504710	0.995205
C173	C	0.459014	-0.245287	0.245194
C174	C	0.709014	0.004713	0.495194
C175	C	0.959014	0.254713	0.745194
C176	C	1.209014	0.504713	0.995194
C177	C	0.459012	-0.187736	0.187837
C178	C	0.709012	0.062264	0.437837
C179	C	0.959012	0.312264	0.687837
C180	C	1.209012	0.562264	0.937837
C181	C	0.412096	-0.187740	0.187846
C182	C	0.662096	0.062260	0.437846
C183	C	0.912096	0.312260	0.687846
C184	C	1.162096	0.562260	0.937846
C185	C	0.388639	-0.216519	0.216534
C186	C	0.638639	0.033481	0.466534
C187	C	0.888639	0.283481	0.716534
C188	C	1.138639	0.533481	0.966534
O189	O	0.337873	-0.163299	0.163477
O190	O	0.587873	0.086701	0.413477
O191	O	0.837873	0.336701	0.663477
O192	O	1.087873	0.586701	0.913477
O193	O	0.337836	-0.269759	0.269613
O194	O	0.587836	-0.019759	0.519613
O195	O	0.837836	0.230241	0.769613
O196	O	1.087836	0.480241	1.019613
C197	C	0.125905	-0.245304	0.245247
C198	C	0.375905	0.004696	0.495247
C199	C	0.625905	0.254696	0.745247
C200	C	0.875905	0.504696	0.995247
C201	C	0.102449	-0.216531	0.216574
C202	C	0.352449	0.033469	0.466574
C203	C	0.602449	0.283469	0.716574
C204	C	0.852449	0.533469	0.966574
C205	C	0.125909	-0.187755	0.187893
C206	C	0.375909	0.062245	0.437893
C207	C	0.625909	0.312245	0.687893
C208	C	0.875909	0.562245	0.937893
C209	C	0.055531	-0.216535	0.216577
C210	C	0.305531	0.033465	0.466577
C211	C	0.555531	0.283465	0.716577
C212	C	0.805531	0.533465	0.966577
C213	C	0.032071	-0.245310	0.245258
C214	C	0.282071	0.004690	0.495258
C215	C	0.532071	0.254690	0.745258
C216	C	0.782071	0.504690	0.995258
C217	C	0.055529	-0.274082	0.273934
C218	C	0.305529	-0.024082	0.523934
C219	C	0.555529	0.225918	0.773934
C220	C	0.805529	0.475918	1.023934
C221	C	0.102445	-0.274080	0.273927
C222	C	0.352445	-0.024080	0.523927
C223	C	0.602445	0.225920	0.773927
C224	C	0.852445	0.475920	1.023927
C225	C	0.102451	-0.158984	0.159217
C226	C	0.352451	0.091016	0.409217
C227	C	0.602451	0.341016	0.659217
C228	C	0.852451	0.591016	0.909217
C229	C	0.055535	-0.158989	0.159226
C230	C	0.305535	0.091011	0.409226
C231	C	0.555535	0.341011	0.659226
C232	C	0.805535	0.591011	0.909226
C233	C	0.032075	-0.187764	0.187906
C234	C	0.282075	0.062236	0.437906
C235	C	0.532075	0.312236	0.687906
C236	C	0.782075	0.562236	0.937906
C237	C	0.649050	-0.333250	0.216527
C238	C	0.899050	-0.083250	0.466527
C239	C	1.149050	0.166750	0.716527
C240	C	1.399050	0.416750	0.966527
C241	C	0.649056	-0.383185	0.216533
C242	C	0.899056	-0.133185	0.466533
C243	C	1.149056	0.116815	0.716533
C244	C	1.399056	0.366815	0.966533
C245	C	0.677914	-0.692821	0.187866
C246	C	0.927914	-0.442821	0.437866
C247	C	1.177914	-0.192821	0.687866
C248	C	1.427914	0.057179	0.937866
C249	C	0.677969	-0.880494	0.187883
C250	C	0.927969	-0.630494	0.437883
C251	C	1.177969	-0.380494	0.687883
C252	C	1.427969	-0.130494	0.937883
O253	O	0.702441	-0.904753	0.163493
O254	O	0.952441	-0.654753	0.413493
O255	O	1.202441	-0.404753	0.663493
O256	O	1.452441	-0.154753	0.913493
N257	N	0.649224	-0.903970	0.216583
N258	N	0.899224	-0.653970	0.466583
N259	N	1.149224	-0.403970	0.716583
N260	N	1.399224	-0.153970	0.966583
C261	C	0.620465	-0.880524	0.245283
C262	C	0.870465	-0.630524	0.495283
C263	C	1.120465	-0.380524	0.745283
C264	C	1.370465	-0.130524	0.995283
O265	O	0.596020	-0.904798	0.269698
O266	O	0.846020	-0.654798	0.519698
O267	O	1.096020	-0.404798	0.769698
O268	O	1.346020	-0.154798	1.019698
C269	C	0.620412	-0.692852	0.245268
C270	C	0.870412	-0.442852	0.495268
C271	C	1.120412	-0.192852	0.745268
C272	C	1.370412	0.057148	0.995268
C273	C	0.649156	-0.669379	0.216563
C274	C	0.899156	-0.419379	0.466563
C275	C	1.149156	-0.169379	0.716563
C276	C	1.399156	0.080621	0.966563
C277	C	0.706656	-0.669348	0.159164
C278	C	0.956656	-0.419348	0.409164
C279	C	1.206656	-0.169348	0.659164
C280	C	1.456656	0.080652	0.909164
C281	C	0.706640	-0.622433	0.159158
C282	C	0.956640	-0.372433	0.409158
C283	C	1.206640	-0.122433	0.659158
C284	C	1.456640	0.127567	0.909158
C285	C	0.677882	-0.598990	0.187854
C286	C	0.927882	-0.348990	0.437854
C287	C	1.177882	-0.098990	0.687854
C288	C	1.427882	0.151010	0.937854
C289	C	0.649140	-0.622463	0.216557
C290	C	0.899140	-0.372463	0.466557
C291	C	1.149140	-0.122463	0.716557
C292	C	1.399140	0.127537	0.966557
C293	C	0.591656	-0.669407	0.273969
C294	C	0.841656	-0.419407	0.523969
C295	C	1.091656	-0.169407	0.773969
C296	C	1.341656	0.080593	1.023969
C297	C	0.591646	-0.622486	0.273964
C298	C	0.841646	-0.372486	0.523964
C299	C	1.091646	-0.122486	0.773964
C300	C	1.341646	0.127514	1.023964
C301	C	0.620390	-0.599013	0.245259
C302	C	0.870390	-0.349013	0.495259
C303	C	1.120390	-0.099013	0.745259
C304	C	1.370390	0.150987	0.995259
C305	C	0.620367	-0.552106	0.245248
C306	C	0.870367	-0.302106	0.495248
C307	C	1.120367	-0.052106	0.745248
C308	C	1.370367	0.197894	0.995248
N309	N	0.649112	-0.528630	0.216548
N310	N	0.899112	-0.278630	0.466548
N311	N	1.149112	-0.028630	0.716548
N312	N	1.399112	0.221370	0.966548
C313	C	0.677869	-0.552072	0.187851
C314	C	0.927869	-0.302072	0.437851
C315	C	1.177869	-0.052072	0.687851
C316	C	1.427869	0.197928	0.937851
C317	C	0.620494	-0.979055	0.245289
C318	C	0.870494	-0.729055	0.495289
C319	C	1.120494	-0.479055	0.745289
C320	C	1.370494	-0.229055	0.995289
C321	C	0.620507	-1.025973	0.245292
C322	C	0.870507	-0.775973	0.495292
C323	C	1.120507	-0.525973	0.745292
C324	C	1.370507	-0.275973	0.995292
C325	C	0.678012	-1.025939	0.187893
C326	C	0.928012	-0.775939	0.437893
C327	C	1.178012	-0.525939	0.687893
C328	C	1.428012	-0.275939	0.937893
C329	C	0.677996	-0.979021	0.187887
C330	C	0.927996	-0.729021	0.437887
C331	C	1.177996	-0.479021	0.687887
C332	C	1.427996	-0.229021	0.937887
C333	C	0.649239	-0.955579	0.216589
C334	C	0.899239	-0.705579	0.466589
C335	C	1.149239	-0.455579	0.716589
C336	C	1.399239	-0.205579	0.966589
C337	C	0.677834	-0.453547	0.187841
C338	C	0.927834	-0.203547	0.437841
C339	C	1.177834	0.046453	0.687841
C340	C	1.427834	0.296453	0.937841
C341	C	0.677814	-0.406627	0.187836
C342	C	0.927814	-0.156627	0.437836
C343	C	1.177814	0.093373	0.687836
C344	C	1.427814	0.343373	0.937836
C345	C	0.620311	-0.406664	0.245237
C346	C	0.870311	-0.156664	0.495237
C347	C	1.120311	0.093336	0.745237
C348	C	1.370311	0.343336	0.995237
C349	C	0.620329	-0.453580	0.245240
C350	C	0.870329	-0.203580	0.495240
C351	C	1.120329	0.046420	0.745240
C352	C	1.370329	0.296420	0.995240
C353	C	0.649094	-0.477020	0.216540
C354	C	0.899094	-0.227020	0.466540
C355	C	1.149094	0.022980	0.716540
C356	C	1.399094	0.272980	0.966540
O357	O	0.595912	-0.527818	0.269629
O358	O	0.845912	-0.277818	0.519629
O359	O	1.095912	-0.027818	0.769629
O360	O	1.345912	0.222182	1.019629
O361	O	0.702318	-0.527791	0.163447
O362	O	0.952318	-0.277791	0.413447
O363	O	1.202318	-0.027791	0.663447
O364	O	1.452318	0.222209	0.913447
C365	C	0.677930	-0.739737	0.187872
C366	C	0.927930	-0.489737	0.437872
C367	C	1.177930	-0.239737	0.687872
C368	C	1.427930	0.010263	0.937872
C369	C	0.649188	-0.763210	0.216574
C370	C	0.899188	-0.513210	0.466574
C371	C	1.149188	-0.263210	0.716574
C372	C	1.399188	-0.013210	0.966574
C373	C	0.620430	-0.739767	0.245271
C374	C	0.870430	-0.489767	0.495271
C375	C	1.120430	-0.239767	0.745271
C376	C	1.370430	0.010233	0.995271
C377	C	0.649200	-0.810128	0.216578
C378	C	0.899200	-0.560128	0.466578
C379	C	1.149200	-0.310128	0.716578
C380	C	1.399200	-0.060128	0.966578
C381	C	0.677958	-0.833570	0.187881
C382	C	0.927958	-0.583570	0.437881
C383	C	1.177958	-0.333570	0.687881
C384	C	1.427958	-0.083570	0.937881
C385	C	0.706703	-0.810094	0.159181
C386	C	0.956703	-0.560094	0.409181
C387	C	1.206703	-0.310094	0.659181
C388	C	1.456703	-0.060094	0.909181
C389	C	0.706687	-0.763179	0.159175
C390	C	0.956687	-0.513179	0.409175
C391	C	1.206687	-0.263179	0.659175
C392	C	1.456687	-0.013179	0.909175
C393	C	0.591685	-0.763243	0.273971
C394	C	0.841685	-0.513243	0.523971
C395	C	1.091685	-0.263243	0.773971
C396	C	1.341685	-0.013243	1.023971
C397	C	0.591703	-0.810158	0.273974
C398	C	0.841703	-0.560158	0.523974
C399	C	1.091703	-0.310158	0.773974
C400	C	1.341703	-0.060158	1.023974
C401	C	0.620461	-0.833601	0.245277
C402	C	0.870461	-0.583601	0.495277
C403	C	1.120461	-0.333601	0.745277
C404	C	1.370461	-0.083601	0.995277
C405	C	0.766309	-0.216547	0.216582
C406	C	1.016309	0.033453	0.466582
C407	C	1.266309	0.283453	0.716582
C408	C	1.516309	0.533453	0.966582
C409	C	0.816244	-0.216555	0.216596
C410	C	1.066244	0.033445	0.466596
C411	C	1.316244	0.283445	0.716596
C412	C	1.566244	0.533445	0.966596
C413	C	0.649143	-0.216524	0.333728
C414	C	0.899143	0.033476	0.583728
C415	C	1.149143	0.283476	0.833728
C416	C	1.399143	0.533476	1.083728
C417	C	0.649148	-0.216522	0.383662
C418	C	0.899148	0.033478	0.633662
C419	C	1.149148	0.283478	0.883662
C420	C	1.399148	0.533478	1.133662
C421	C	0.649225	-0.099349	0.216582
C422	C	0.899225	0.150651	0.466582
C423	C	1.149225	0.400651	0.716582
C424	C	1.399225	0.650651	0.966582
C425	C	0.649265	-0.049415	0.216595
C426	C	0.899265	0.200585	0.466595
C427	C	1.149265	0.450585	0.716595
C428	C	1.399265	0.700585	0.966595
C429	C	0.649145	-0.216499	0.099827
C430	C	0.899145	0.033501	0.349827
C431	C	1.149145	0.283501	0.599827
C432	C	1.399145	0.533501	0.849827
C433	C	0.649227	-0.216374	0.049893
C434	C	0.899227	0.033626	0.299893
C435	C	1.149227	0.283626	0.549893
C436	C	1.399227	0.533626	0.799893
C437	C	0.677935	-0.187718	0.693325
C438	C	0.927935	0.062282	0.943325
C439	C	1.177935	0.312282	1.193325
C440	C	1.427935	0.562282	1.443325
C441	C	0.677957	-0.187680	0.880998
C442	C	0.927957	0.062320	1.130998
C443	C	1.177957	0.312320	1.380998
C444	C	1.427957	0.562320	1.630998
O445	O	0.702399	-0.163232	0.905279
O446	O	0.952399	0.086768	1.155279
O447	O	1.202399	0.336768	1.405279
O448	O	1.452399	0.586768	1.655279
N449	N	0.649208	-0.216402	0.904448
N450	N	0.899208	0.033598	1.154448
N451	N	1.149208	0.283598	1.404448
N452	N	1.399208	0.533598	1.654448
C453	C	0.620449	-0.245133	0.880976
C454	C	0.870449	0.004867	1.130976
C455	C	1.120449	0.254867	1.380976
C456	C	1.370449	0.504867	1.630976
O457	O	0.595993	-0.269559	0.905228
O458	O	0.845993	-0.019559	1.155228
O459	O	1.095993	0.230441	1.405228
O460	O	1.345993	0.480441	1.655228
C461	C	0.620424	-0.245169	0.693304
C462	C	0.870424	0.004831	0.943304
C463	C	1.120424	0.254831	1.193304
C464	C	1.370424	0.504831	1.443304
C465	C	0.649179	-0.216448	0.669857
C466	C	0.899179	0.033552	0.919857
C467	C	1.149179	0.283552	1.169857
C468	C	1.399179	0.533552	1.419857
C469	C	0.706687	-0.158999	0.669877
C470	C	0.956687	0.091001	0.919877
C471	C	1.206687	0.341001	1.169877
C472	C	1.456687	0.591001	1.419877
C473	C	0.706683	-0.159011	0.622962
C474	C	0.956683	0.090989	0.872962
C475	C	1.206683	0.340989	1.122962
C476	C	1.456683	0.590989	1.372962
C477	C	0.677927	-0.187741	0.599494
C478	C	0.927927	0.062259	0.849494
C479	C	1.177927	0.312259	1.099494
C480	C	1.427927	0.562259	1.349494
C481	C	0.649175	-0.216460	0.622941
C482	C	0.899175	0.033540	0.872941
C483	C	1.149175	0.283540	1.122941
C484	C	1.399175	0.533540	1.372941
C485	C	0.591663	-0.273898	0.669833
C486	C	0.841663	-0.023898	0.919833
C487	C	1.091663	0.226102	1.169833
C488	C	1.341663	0.476102	1.419833
C489	C	0.591659	-0.273903	0.622912
C490	C	0.841659	-0.023903	0.872912
C491	C	1.091659	0.226097	1.122912
C492	C	1.341659	0.476097	1.372912
C493	C	0.620414	-0.245183	0.599465
C494	C	0.870414	0.004817	0.849465
C495	C	1.120414	0.254817	1.099465
C496	C	1.370414	0.504817	1.349465
C497	C	0.620415	-0.245202	0.552558
C498	C	0.870415	0.004798	0.802558
C499	C	1.120415	0.254798	1.052558
C500	C	1.370415	0.504798	1.302558
N501	N	0.649164	-0.216480	0.529108
N502	N	0.899164	0.033520	0.779108
N503	N	1.149164	0.283520	1.029108
N504	N	1.399164	0.533520	1.279108
C505	C	0.677920	-0.187749	0.552576
C506	C	0.927920	0.062251	0.802576
C507	C	1.177920	0.312251	1.052576
C508	C	1.427920	0.562251	1.302576
C509	C	0.620464	-0.245113	0.979507
C510	C	0.870464	0.004887	1.229507
C511	C	1.120464	0.254887	1.479507
C512	C	1.370464	0.504887	1.729507
C513	C	0.620471	-0.245105	1.026425
C514	C	0.870471	0.004895	1.276425
C515	C	1.120471	0.254895	1.526425
C516	C	1.370471	0.504895	1.776425
C517	C	0.677979	-0.187650	1.026443
C518	C	0.927979	0.062350	1.276443
C519	C	1.177979	0.312350	1.526443
C520	C	1.427979	0.562350	1.776443
C521	C	0.677974	-0.187661	0.979524
C522	C	0.927974	0.062339	1.229524
C523	C	1.177974	0.312339	1.479524
C524	C	1.427974	0.562339	1.729524
C525	C	0.649214	-0.216391	0.956057
C526	C	0.899214	0.033609	1.206057
C527	C	1.149214	0.283609	1.456057
C528	C	1.399214	0.533609	1.706057
C529	C	0.677910	-0.187776	0.454050
C530	C	0.927910	0.062224	0.704050
C531	C	1.177910	0.312224	0.954050
C532	C	1.427910	0.562224	1.204050
C533	C	0.677904	-0.187792	0.407130
C534	C	0.927904	0.062208	0.657130
C535	C	1.177904	0.312208	0.907130
C536	C	1.427904	0.562208	1.157130
C537	C	0.620395	-0.245244	0.407116
C538	C	0.870395	0.004756	0.657116
C539	C	1.120395	0.254756	0.907116
C540	C	1.370395	0.504756	1.157116
C541	C	0.620401	-0.245230	0.454032
C542	C	0.870401	0.004770	0.704032
C543	C	1.120401	0.254770	0.954032
C544	C	1.370401	0.504770	1.204032
C545	C	0.649161	-0.216493	0.477497
C546	C	0.899161	0.033507	0.727497
C547	C	1.149161	0.283507	0.977497
C548	C	1.399161	0.533507	1.227497
O549	O	0.595982	-0.269633	0.528248
O550	O	0.845982	-0.019633	0.778248
O551	O	1.095982	0.230367	1.028248
O552	O	1.345982	0.480367	1.278248
O553	O	0.702366	-0.163320	0.528316
O554	O	0.952366	0.086680	0.778316
O555	O	1.202366	0.336680	1.028316
O556	O	1.452366	0.586680	1.278316
C557	C	0.677939	-0.187706	0.740240
C558	C	0.927939	0.062294	0.990240
C559	C	1.177939	0.312294	1.240240
C560	C	1.427939	0.562294	1.490240
C561	C	0.649187	-0.216425	0.763688
C562	C	0.899187	0.033575	1.013688
C563	C	1.149187	0.283575	1.263688
C564	C	1.399187	0.533575	1.513688
C565	C	0.620431	-0.245155	0.740219
C566	C	0.870431	0.004845	0.990219
C567	C	1.120431	0.254845	1.240219
C568	C	1.370431	0.504845	1.490219
C569	C	0.649194	-0.216417	0.810605
C570	C	0.899194	0.033583	1.060605
C571	C	1.149194	0.283583	1.310605
C572	C	1.399194	0.533583	1.560605
C573	C	0.677950	-0.187686	0.834074
C574	C	0.927950	0.062314	1.084074
C575	C	1.177950	0.312314	1.334074
C576	C	1.427950	0.562314	1.584074
C577	C	0.706699	-0.158964	0.810624
C578	C	0.956699	0.091036	1.060624
C579	C	1.206699	0.341036	1.310624
C580	C	1.456699	0.591036	1.560624
C581	C	0.706695	-0.158976	0.763708
C582	C	0.956695	0.091024	1.013708
C583	C	1.206695	0.341024	1.263708
C584	C	1.456695	0.591024	1.513708
C585	C	0.591682	-0.273877	0.763669
C586	C	0.841682	-0.023877	1.013669
C587	C	1.091682	0.226123	1.263669
C588	C	1.341682	0.476123	1.513669
C589	C	0.591689	-0.273864	0.810585
C590	C	0.841689	-0.023864	1.060585
C591	C	1.091689	0.226136	1.310585
C592	C	1.341689	0.476136	1.560585
C593	C	0.620445	-0.245133	0.834053
C594	C	0.870445	0.004867	1.084053
C595	C	1.120445	0.254867	1.334053
C596	C	1.370445	0.504867	1.584053
H597	H	0.393001	-0.268723	0.268566
H598	H	0.643001	-0.018723	0.518566
H599	H	0.893001	0.231277	0.768566
H600	H	1.143001	0.481277	1.018566
O601	O	0.709007	-0.953709	0.156932
O602	O	0.959007	-0.703709	0.406932
O603	O	1.209007	-0.453709	0.656932
O604	O	1.459007	-0.203709	0.906932
H605	H	0.731843	-0.932307	0.177066
H606	H	0.981843	-0.682307	0.427066
H607	H	1.231843	-0.432307	0.677066
H608	H	1.481843	-0.182307	0.927066
H609	H	0.392998	-0.164309	0.164496
H610	H	0.642998	0.085691	0.414496
H611	H	0.892998	0.335691	0.664496
H612	H	1.142998	0.585691	0.914496
H613	H	0.730115	-0.135573	0.829740
H614	H	0.980115	0.114427	1.079740
H615	H	1.230115	0.364427	1.329740
H616	H	1.480115	0.614427	1.579740
H617	H	0.262285	-0.297506	0.297258
H618	H	0.512285	-0.047506	0.547258
H619	H	0.762285	0.202494	0.797258
H620	H	1.012285	0.452494	1.047258
H621	H	0.730076	-0.688430	0.135795
H622	H	0.980076	-0.438430	0.385795
H623	H	1.230076	-0.188430	0.635795
H624	H	1.480076	0.061570	0.885795
O625	O	0.030237	-0.127955	0.128291
O626	O	0.280237	0.122045	0.378291
O627	O	0.530237	0.372045	0.628291
O628	O	0.780237	0.622045	0.878291
H629	H	0.008882	-0.105131	0.148441
H630	H	0.258882	0.144869	0.398441
H631	H	0.508882	0.394869	0.648441
H632	H	0.758882	0.644869	0.898441
O633	O	0.589296	-0.381376	0.276190
O634	O	0.839296	-0.131376	0.526190
O635	O	1.089296	0.118624	0.776190
O636	O	1.339296	0.368624	1.026190
H637	H	0.594122	-0.344809	0.271365
H638	H	0.844122	-0.094809	0.521365
H639	H	1.094122	0.155191	0.771365
H640	H	1.344122	0.405191	1.021365
H641	H	0.568292	-0.829266	0.297349
H642	H	0.818292	-0.579266	0.547349
H643	H	1.068292	-0.329266	0.797349
H644	H	1.318292	-0.079266	1.047349
O645	O	0.709032	-1.051234	0.156947
O646	O	0.959032	-0.801234	0.406947
O647	O	1.209032	-0.551234	0.656947
O648	O	1.459032	-0.301234	0.906947
H649	H	0.701355	-1.042259	0.121675
H650	H	0.951355	-0.792259	0.371675
H651	H	1.201355	-0.542259	0.621675
H652	H	1.451355	-0.292259	0.871675
H653	H	0.596984	-0.268637	0.388000
H654	H	0.846984	-0.018637	0.638000
H655	H	1.096984	0.231363	0.888000
H656	H	1.346984	0.481363	1.138000
H657	H	0.701388	-0.164274	0.960437
H658	H	0.951388	0.085726	1.210437
H659	H	1.201388	0.335726	1.460437
H660	H	1.451388	0.585726	1.710437
H661	H	0.597097	-1.045080	0.268662
H662	H	0.847097	-0.795080	0.518662
H663	H	1.097097	-0.545080	0.768662
H664	H	1.347097	-0.295080	1.018662
O665	O	0.589457	-0.276083	1.051711
O666	O	0.839457	-0.026083	1.301711
O667	O	1.089457	0.223917	1.551711
O668	O	1.339457	0.473917	1.801711
H669	H	0.597128	-0.311345	1.042700
H670	H	0.847128	-0.061345	1.292700
H671	H	1.097128	0.188655	1.542700
H672	H	1.347128	0.438655	1.792700
O673	O	0.708864	-0.478817	0.156887
O674	O	0.958864	-0.228817	0.406887
O675	O	1.208864	0.021183	0.656887
O676	O	1.458864	0.271183	0.906887
H677	H	0.731720	-0.500156	0.177021
H678	H	0.981720	-0.250156	0.427021
H679	H	1.231720	-0.000156	0.677021
H680	H	1.481720	0.249844	0.927021
H681	H	0.730110	-0.135588	0.744622
H682	H	0.980110	0.114412	0.994622
H683	H	1.230110	0.364412	1.244622
H684	H	1.480110	0.614412	1.494622
H685	H	0.177180	-0.297509	0.297271
H686	H	0.427180	-0.047509	0.547271
H687	H	0.677180	0.202491	0.797271
H688	H	0.927180	0.452491	1.047271
H689	H	0.478121	-0.164309	0.164485
H690	H	0.728121	0.085691	0.414485
H691	H	0.978121	0.335691	0.664485
H692	H	1.228121	0.585691	0.914485
H693	H	0.701393	-0.164257	1.045559
H694	H	0.951393	0.085743	1.295559
H695	H	1.201393	0.335743	1.545559
H696	H	1.451393	0.585743	1.795559
H697	H	0.597044	-0.268511	0.960404
H698	H	0.847044	-0.018511	1.210404
H699	H	1.097044	0.231489	1.460404
H700	H	1.347044	0.481489	1.710404
H701	H	0.036420	-0.297513	0.297286
H702	H	0.286420	-0.047513	0.547286
H703	H	0.536420	0.202487	0.797286
H704	H	0.786420	0.452487	1.047286
O705	O	0.708928	-0.156776	0.479349
O706	O	0.958928	0.093224	0.729349
O707	O	1.208928	0.343224	0.979349
O708	O	1.458928	0.593224	1.229349
H709	H	0.688842	-0.133904	0.500714
H710	H	0.938842	0.116096	0.750714
H711	H	1.188842	0.366096	1.000714
H712	H	1.438842	0.616096	1.250714
O713	O	0.560670	-0.304840	0.835873
O714	O	0.810670	-0.054840	1.085873
O715	O	1.060670	0.195160	1.335873
O716	O	1.310670	0.445160	1.585873
H717	H	0.540672	-0.324814	0.811667
H718	H	0.790672	-0.074814	1.061667
H719	H	1.040672	0.175186	1.311667
H720	H	1.290672	0.425186	1.561667
H721	H	0.596991	-0.268621	0.473123
H722	H	0.846991	-0.018621	0.723123
H723	H	1.096991	0.231379	0.973123
H724	H	1.346991	0.481379	1.223123
H725	H	0.568265	-0.297274	0.744566
H726	H	0.818265	-0.047274	0.994566
H727	H	1.068265	0.202726	1.244566
H728	H	1.318265	0.452726	1.494566
O729	O	0.127744	-0.127948	0.128274
O730	O	0.377744	0.122052	0.378274
O731	O	0.627744	0.372052	0.628274
O732	O	0.877744	0.622052	0.878274
H733	H	0.149142	-0.105112	0.148411
H734	H	0.399142	0.144888	0.398411
H735	H	0.649142	0.394888	0.648411
H736	H	0.899142	0.644888	0.898411
H737	H	0.568233	-0.297294	0.603808
H738	H	0.818233	-0.047294	0.853808
H739	H	1.068233	0.202706	1.103808
H740	H	1.318233	0.452706	1.353808
H741	H	0.478110	-0.268721	0.268545
H742	H	0.728110	-0.018721	0.518545
H743	H	0.978110	0.231279	0.768545
H744	H	1.228110	0.481279	1.018545
H745	H	-0.179407	-0.268759	0.268628
H746	H	0.070593	-0.018759	0.518628
H747	H	0.320593	0.231241	0.768628
H748	H	0.570593	0.481241	1.018628
H749	H	0.597076	-0.959972	0.268661
H750	H	0.847076	-0.709972	0.518661
H751	H	1.097076	-0.459972	0.768661
H752	H	1.347076	-0.209972	1.018661
O753	O	0.127741	-0.305113	0.304860
O754	O	0.377741	-0.055113	0.554860
O755	O	0.627741	0.194887	0.804860
O756	O	0.877741	0.444887	1.054860
H757	H	0.103540	-0.325116	0.324805
H758	H	0.353540	-0.075116	0.574805
H759	H	0.603540	0.174884	0.824805
H760	H	0.853540	0.424884	1.074805
H761	H	0.568229	-0.603402	0.297337
H762	H	0.818229	-0.353402	0.547337
H763	H	1.068229	-0.103402	0.797337
H764	H	1.318229	0.146598	1.047337
H765	H	-0.094285	-0.268759	0.268619
H766	H	0.155715	-0.018759	0.518619
H767	H	0.405715	0.231241	0.768619
H768	H	0.655715	0.481241	1.018619
O769	O	-0.185594	-0.156746	0.156986
O770	O	0.064406	0.093254	0.406986
O771	O	0.314406	0.343254	0.656986
O772	O	0.564406	0.593254	0.906986
H773	H	-0.161394	-0.136734	0.137047
H774	H	0.088606	0.113266	0.387047
H775	H	0.338606	0.363266	0.637047
H776	H	0.588606	0.613266	0.887047
O777	O	0.560643	-0.304870	0.695117
O778	O	0.810643	-0.054870	0.945117
O779	O	1.060643	0.195130	1.195117
O780	O	1.310643	0.445130	1.445117
H781	H	0.540644	-0.324840	0.670908
H782	H	0.790644	-0.074840	0.920908
H783	H	1.040644	0.175160	1.170908
H784	H	1.290644	0.425160	1.420908
H785	H	0.701220	-0.387517	0.164459
H786	H	0.951220	-0.137517	0.414459
H787	H	1.201220	0.112483	0.664459
H788	H	1.451220	0.362483	0.914459
H789	H	0.730047	-0.603324	0.135785
H790	H	0.980047	-0.353324	0.385785
H791	H	1.230047	-0.103324	0.635785
H792	H	1.480047	0.146676	0.885785
O793	O	0.737727	-0.835388	0.128239
O794	O	0.987727	-0.585388	0.378239
O795	O	1.237727	-0.335388	0.628239
O796	O	1.487727	-0.085388	0.878239
H797	H	0.717647	-0.856801	0.105366
H798	H	0.967647	-0.606801	0.355366
H799	H	1.217647	-0.356801	0.605366
H800	H	1.467647	-0.106801	0.855366
H801	H	0.568248	-0.688511	0.297342
H802	H	0.818248	-0.438511	0.547342
H803	H	1.068248	-0.188511	0.797342
H804	H	1.318248	0.061489	1.047342
H805	H	-0.094283	-0.164339	0.164556
H806	H	0.155717	0.085661	0.414556
H807	H	0.405717	0.335661	0.664556
H808	H	0.655717	0.585661	0.914556
H809	H	0.177197	-0.135539	0.135854
H810	H	0.427197	0.114461	0.385854
H811	H	0.677197	0.364461	0.635854
H812	H	0.927197	0.614461	0.885854
H813	H	0.262305	-0.135529	0.135852
H814	H	0.512305	0.114471	0.385852
H815	H	0.762305	0.364471	0.635852
H816	H	1.012305	0.614471	0.885852
H817	H	0.730093	-0.744071	0.135801
H818	H	0.980093	-0.494071	0.385801
H819	H	1.230093	-0.244071	0.635801
H820	H	1.480093	0.005929	0.885801
O821	O	0.589327	-0.478902	0.276198
O822	O	0.839327	-0.228902	0.526198
O823	O	1.089327	0.021098	0.776198
O824	O	1.339327	0.271098	1.026198
H825	H	0.569329	-0.454716	0.296153
H826	H	0.819329	-0.204716	0.546153
H827	H	1.069329	0.045284	0.796153
H828	H	1.319329	0.295284	1.046153
H829	H	0.568268	-0.744160	0.297340
H830	H	0.818268	-0.494160	0.547340
H831	H	1.068268	-0.244160	0.797340
H832	H	1.318268	0.005840	1.047340
H833	H	0.701321	-0.164403	0.388042
H834	H	0.951321	0.085597	0.638042
H835	H	1.201321	0.335597	0.888042
H836	H	1.451321	0.585597	1.138042
O837	O	0.737694	-0.128031	0.597674
O838	O	0.987694	0.121969	0.847674
O839	O	1.237694	0.371969	1.097674
O840	O	1.487694	0.621969	1.347674
H841	H	0.757685	-0.108052	0.621882
H842	H	1.007685	0.141948	0.871882
H843	H	1.257685	0.391948	1.121882
H844	H	1.507685	0.641948	1.371882
H845	H	0.730104	-0.135601	0.688980
H846	H	0.980104	0.114399	0.938980
H847	H	1.230104	0.364399	1.188980
H848	H	1.480104	0.614399	1.438980
