data_functionalizedCrystal
_audit_creation_method	'MofGen! by Chris Wilmer'
_symmetry_space_group_name_H-M	'P1'
_symmetry_Int_Tables_number	1
_symmetry_cell_setting	triclinic
loop_
_symmetry_equiv_pos_as_xyz
  x,y,z
_cell_length_a	17.038272
_cell_length_b	27.732048
_cell_length_c	16.098538
_cell_angle_alpha	92.695138
_cell_angle_beta	87.069734
_cell_angle_gamma	86.877106
loop_
_atom_site_label
_atom_site_type_symbol
_atom_site_fract_x
_atom_site_fract_y
_atom_site_fract_z
O1	O	1.039664	0.102899	-0.069167
O2	O	1.539664	0.602899	0.430833
O3	O	0.812054	0.101233	-0.069192
O4	O	1.312054	0.601233	0.430808
O5	O	0.932928	0.031993	-0.069163
O6	O	1.432928	0.531993	0.430837
O7	O	0.918791	0.172139	-0.069196
O8	O	1.418791	0.672139	0.430804
O9	O	0.925867	0.036021	0.069348
O10	O	1.425867	0.536021	0.569348
O11	O	0.804994	0.105261	0.069320
O12	O	1.304994	0.605261	0.569320
O13	O	1.032604	0.106927	0.069344
O14	O	1.532604	0.606927	0.569344
Zn15	Zn	0.917678	0.106733	0.091323
Zn16	Zn	1.417678	0.606733	0.591323
Zn17	Zn	0.926980	0.101427	-0.091171
Zn18	Zn	1.426980	0.601427	0.408829
O19	O	0.911730	0.176167	0.069315
O20	O	1.411730	0.676167	0.569315
C21	C	0.779414	0.101731	0.000061
C22	C	1.279414	0.601731	0.500061
C23	C	0.692674	0.097211	0.000053
C24	C	1.192674	0.597211	0.500053
C25	C	0.642076	0.138713	0.000043
C26	C	1.142076	0.638713	0.500043
C27	C	0.560575	0.134463	0.000056
C28	C	1.060575	0.634463	0.500056
C29	C	0.529672	0.088710	0.000072
C30	C	1.029672	0.588710	0.500072
C31	C	0.580276	0.047205	0.000083
C32	C	1.080276	0.547205	0.500083
C33	C	0.661776	0.051455	0.000077
C34	C	1.161776	0.551455	0.500077
C35	C	0.284088	0.073694	0.000098
C36	C	0.784088	0.573694	0.500098
C37	C	0.202582	0.069446	0.000102
C38	C	0.702582	0.569446	0.500102
C39	C	0.182886	0.156706	0.000076
C40	C	0.682886	0.656706	0.500076
C41	C	0.264389	0.160952	0.000064
C42	C	0.764389	0.660952	0.500064
C43	C	0.314985	0.119446	0.000080
C44	C	0.814985	0.619446	0.500080
C45	C	0.446365	0.084365	0.000082
C46	C	0.946365	0.584365	0.500082
C47	C	0.398290	0.123792	0.000076
C48	C	0.898290	0.623792	0.500076
C49	C	0.929100	0.015987	0.000095
C50	C	1.429100	0.515987	0.500095
C51	C	0.928206	-0.037709	0.000102
C52	C	1.428206	0.462291	0.500102
C53	C	0.994011	-0.373515	0.000066
C54	C	1.494011	0.126485	0.500066
C55	C	0.990696	-0.575327	0.000054
C56	C	1.490696	-0.075327	0.500054
O57	O	1.050870	-0.603831	0.000024
O58	O	1.550870	-0.103831	0.500024
N59	N	0.919023	-0.597729	0.000047
N60	N	1.419023	-0.097729	0.500047
C61	C	0.848173	-0.569676	0.000038
C62	C	1.348173	-0.069676	0.500038
O63	O	0.787135	-0.593361	0.000023
O64	O	1.287135	-0.093361	0.500023
C65	C	0.851490	-0.367865	0.000044
C66	C	1.351490	0.132135	0.500044
C67	C	0.923167	-0.345465	0.000059
C68	C	1.423167	0.154535	0.500059
C69	C	1.065683	-0.351115	0.000080
C70	C	1.565683	0.148885	0.500080
C71	C	1.066511	-0.300665	0.000088
C72	C	1.566511	0.199335	0.500088
C73	C	0.995667	-0.272615	0.000081
C74	C	1.495667	0.227385	0.500081
C75	C	0.923995	-0.295015	0.000067
C76	C	1.423995	0.204985	0.500067
C77	C	0.780641	-0.339813	0.000029
C78	C	1.280641	0.160187	0.500029
C79	C	0.781477	-0.289357	0.000028
C80	C	1.281477	0.210643	0.500028
C81	C	0.853155	-0.266957	0.000043
C82	C	1.353155	0.233043	0.500043
C83	C	0.853979	-0.216515	0.000067
C84	C	1.353979	0.283485	0.500067
N85	N	0.925652	-0.194113	0.000074
N86	N	1.425652	0.305887	0.500074
C87	C	0.996496	-0.222163	0.000081
C88	C	1.496496	0.277837	0.500081
C89	C	0.846437	-0.675629	0.000036
C90	C	1.346437	-0.175629	0.500036
C91	C	0.845608	-0.726081	0.000036
C92	C	1.345608	-0.226081	0.500036
C93	C	0.988131	-0.731729	0.000051
C94	C	1.488131	-0.231729	0.500051
C95	C	0.988959	-0.681276	0.000057
C96	C	1.488959	-0.181276	0.500057
C97	C	0.918111	-0.653227	0.000043
C98	C	1.418111	-0.153227	0.500043
C99	C	0.998229	-0.116214	0.000098
C100	C	1.498229	0.383786	0.500098
C101	C	0.999051	-0.065759	0.000109
C102	C	1.499051	0.434241	0.500109
C103	C	0.856528	-0.060116	0.000090
C104	C	1.356528	0.439884	0.500090
C105	C	0.855706	-0.110566	0.000083
C106	C	1.355706	0.389434	0.500083
C107	C	0.926563	-0.138614	0.000084
C108	C	1.426563	0.361386	0.500084
O109	O	0.793838	-0.187981	0.000088
O110	O	1.293838	0.312019	0.500088
O111	O	1.057527	-0.198469	0.000077
O112	O	1.557527	0.301531	0.500077
C113	C	0.993184	-0.423965	0.000059
C114	C	1.493184	0.076035	0.500059
C115	C	0.921512	-0.446365	0.000044
C116	C	1.421512	0.053635	0.500044
C117	C	0.850668	-0.418315	0.000037
C118	C	1.350668	0.081685	0.500037
C119	C	0.920682	-0.496818	0.000044
C120	C	1.420682	0.003182	0.500044
C121	C	0.991526	-0.524868	0.000051
C122	C	1.491526	-0.024868	0.500051
C123	C	1.063200	-0.502465	0.000058
C124	C	1.563200	-0.002465	0.500058
C125	C	1.064028	-0.452015	0.000065
C126	C	1.564028	0.047985	0.500065
C127	C	0.778994	-0.440718	0.000030
C128	C	1.278994	0.059282	0.500030
C129	C	0.778172	-0.491168	0.000024
C130	C	1.278172	0.008832	0.500024
C131	C	0.849016	-0.519218	0.000031
C132	C	1.349016	-0.019218	0.500031
C133	C	1.065245	0.106428	0.000089
C134	C	1.565245	0.606428	0.500089
C135	C	1.151985	0.110949	0.000092
C136	C	1.651985	0.610949	0.500092
C137	C	0.915558	0.192173	0.000055
C138	C	1.415558	0.692173	0.500055
C139	C	0.916452	0.245869	0.000043
C140	C	1.416452	0.745869	0.500043
N141	N	0.911335	0.110355	0.215871
N142	N	1.411335	0.610355	0.715871
N143	N	0.933330	0.097802	-0.215719
N144	N	1.433330	0.597802	0.284281
C145	C	0.962657	0.080979	0.259468
C146	C	1.462657	0.580979	0.759468
C147	C	0.958226	0.083517	0.346656
C148	C	1.458226	0.583517	0.846656
C149	C	0.902478	0.115434	0.390245
C150	C	1.402478	0.615434	0.890245
C151	C	0.851150	0.144812	0.346642
C152	C	1.351150	0.644812	0.846642
C153	C	0.855577	0.142270	0.259456
C154	C	1.355577	0.642270	0.759456
C155	C	0.886429	0.124638	0.653492
C156	C	1.386429	0.624638	1.153492
C157	C	0.882008	0.127178	0.740684
C158	C	1.382008	0.627178	1.240684
C159	C	0.989084	0.065882	0.740692
C160	C	1.489084	0.565882	1.240692
C161	C	0.993509	0.063346	0.653504
C162	C	1.493509	0.563346	1.153504
C163	C	0.942179	0.092721	0.609908
C164	C	1.442179	0.592721	1.109908
C165	C	0.897950	0.118031	0.479365
C166	C	1.397950	0.618031	0.979365
C167	C	0.946704	0.090122	0.520790
C168	C	1.446704	0.590122	1.020790
H169	H	0.421194	0.047113	0.000118
H170	H	0.921194	0.547113	0.500118
H171	H	1.057421	-0.047523	0.000123
H172	H	1.557421	0.452477	0.500123
H173	H	0.289543	0.198208	0.000042
H174	H	0.789543	0.698208	0.500042
Cl175	Cl	0.347685	0.021515	0.000117
Cl176	Cl	0.847685	0.521515	0.500117
Cl177	Cl	1.077192	-0.767001	0.000056
Cl178	Cl	1.577192	-0.267001	0.500056
Cl179	Cl	0.791052	0.179201	0.204648
Cl180	Cl	1.291052	0.679201	0.704648
Cl181	Cl	0.765595	-0.138726	0.000079
Cl182	Cl	1.265595	0.361274	0.500079
Cl183	Cl	1.156626	-0.272513	0.000083
Cl184	Cl	1.656626	0.227487	0.500083
Cl185	Cl	0.437140	0.181309	0.000059
Cl186	Cl	0.937140	0.681309	0.500059
H187	H	1.030873	0.041965	0.776196
H188	H	1.530873	0.541965	1.276196
Cl189	Cl	1.154757	-0.386369	0.000090
Cl190	Cl	1.654757	0.113631	0.500090
H191	H	0.555109	0.009952	0.000108
H192	H	1.055109	0.509952	0.500108
Cl193	Cl	0.821905	0.161568	0.598691
Cl194	Cl	1.321905	0.661568	1.098691
Cl195	Cl	1.079071	-0.653121	0.000075
Cl196	Cl	1.579071	-0.153121	0.500075
H197	H	0.798849	-0.037268	0.000087
H198	H	1.298849	0.462732	0.500087
Cl199	Cl	1.016783	0.049997	0.465992
Cl200	Cl	1.516783	0.549997	0.965992
H201	H	0.836608	0.153170	0.776170
H202	H	1.336608	0.653170	1.276170
H203	H	1.055928	-0.139045	0.000095
H204	H	1.555928	0.360955	0.500095
Cl205	Cl	0.725385	-0.000722	0.000092
Cl206	Cl	1.225385	0.499278	0.500092
H207	H	0.852559	0.144019	0.514863
H208	H	1.352559	0.644019	1.014863
Cl209	Cl	0.757361	-0.640374	0.000020
Cl210	Cl	1.257361	-0.140374	0.500020
Cl211	Cl	0.680916	0.196234	0.000018
Cl212	Cl	1.180916	0.696234	0.500018
H213	H	0.722274	-0.358042	0.000011
H214	H	1.222274	0.141958	0.500011
Cl215	Cl	0.781061	0.184934	0.401438
Cl216	Cl	1.281061	0.684934	0.901438
H217	H	0.141682	0.190497	0.000064
H218	H	0.641682	0.690497	0.500064
H219	H	0.723782	-0.266522	0.000016
H220	H	1.223782	0.233478	0.500016
H221	H	0.519381	0.168259	0.000048
H222	H	1.019381	0.668259	0.500048
H223	H	0.787240	-0.744314	0.000038
H224	H	1.287240	-0.244314	0.500038
Cl225	Cl	1.154142	-0.423863	0.000077
Cl226	Cl	1.654142	0.076137	0.500077
H227	H	0.177426	0.032187	0.000113
H228	H	0.677426	0.532187	0.500113
Cl229	Cl	1.152260	-0.537737	0.000070
Cl230	Cl	1.652260	-0.037737	0.500070
H231	H	0.721303	-0.417884	0.000023
H232	H	1.221303	0.082116	0.500023
Cl233	Cl	0.688053	-0.519321	0.000009
Cl234	Cl	1.188053	-0.019321	0.500009
Cl235	Cl	1.032748	0.040854	0.204680
Cl236	Cl	1.532748	0.540854	0.704680
Cl237	Cl	1.022746	0.046586	0.401466
Cl238	Cl	1.522746	0.546586	0.901466
H239	H	1.038904	0.037356	0.618016
H240	H	1.538904	0.537356	1.118016
