data_functionalizedCrystal
_audit_creation_method	'MofGen! by Chris Wilmer'
_symmetry_space_group_name_H-M	'P1'
_symmetry_Int_Tables_number	1
_symmetry_cell_setting	triclinic
loop_
_symmetry_equiv_pos_as_xyz
  x,y,z
_cell_length_a	9.065218
_cell_length_b	9.730217
_cell_length_c	9.065218
_cell_angle_alpha	90.001436
_cell_angle_beta	94.984081
_cell_angle_gamma	89.996412
loop_
_atom_site_label
_atom_site_type_symbol
_atom_site_fract_x
_atom_site_fract_y
_atom_site_fract_z
O1	O	-1.960395	0.114354	0.216355
O2	O	-1.531110	0.114341	0.234102
O3	O	-1.754626	0.114345	0.010586
O4	O	-1.736879	0.114350	0.439871
O5	O	-1.754619	-0.114235	0.010584
O6	O	-1.531103	-0.114239	0.234100
O7	O	-1.960388	-0.114226	0.216353
Zn8	Zn	-1.745745	-0.150524	0.225226
Zn9	Zn	-1.745754	0.150640	0.225229
O10	O	-1.736872	-0.114230	0.439869
C11	C	-1.476120	0.000049	0.232395
C12	C	-1.312277	0.000044	0.227295
N13	N	-1.745749	-0.356061	0.225223
C14	C	-1.943754	-0.356048	0.027359
C15	C	-2.042767	-0.427981	-0.071569
C16	C	-2.042782	-0.571861	-0.071569
C17	C	-1.943771	-0.643811	0.027365
C18	C	-1.844758	-0.571877	0.126293
C19	C	-1.844757	-0.427994	0.126286
C20	C	-1.646748	-0.571890	0.324148
C21	C	-1.646738	-0.428011	0.324158
C22	C	-1.547737	-0.643840	0.423082
C23	C	-1.448729	-0.571907	0.522020
C24	C	-1.448719	-0.428018	0.522017
C25	C	-1.547725	-0.356077	0.423086
C26	C	-1.015378	0.000060	0.218060
C27	C	-1.179221	0.000049	0.223159
C28	C	-1.752917	0.000057	-0.044402
C29	C	-1.747817	0.000064	-0.208244
N30	N	-1.745761	0.356176	0.225220
C31	C	-1.738581	0.000061	0.494856
C32	C	-1.743681	0.000064	0.658699
H33	H	-2.123379	-0.369387	-0.152123
C34	C	-1.408303	-0.149987	0.391362
C35	C	-1.547714	-0.197922	0.423086
H36	H	-1.408298	-0.052348	0.391368
H37	H	-1.386886	-0.182540	0.296774
H38	H	-1.335180	-0.182548	0.464447
H39	H	-1.620835	-0.165370	0.349995
H40	H	-1.569148	-0.165355	0.517687
H41	H	-1.547747	-0.760995	0.423071
C42	C	-2.072145	-0.733682	-0.271928
C43	C	-2.151610	-0.650943	-0.180313
H44	H	-2.139331	-0.782497	-0.339066
H45	H	-2.013197	-0.797107	-0.213000
H46	H	-2.010031	-0.677547	-0.325869
H47	H	-2.213716	-0.707079	-0.126363
H48	H	-2.210583	-0.587510	-0.239248
H49	H	-1.368086	-0.369458	0.602571
C50	C	-1.835962	-0.849927	0.135075
C51	C	-1.943770	-0.801966	0.027352
H52	H	-1.835955	-0.947566	0.135058
H53	H	-1.857413	-0.817387	0.229657
H54	H	-1.741398	-0.817371	0.113549
H55	H	-2.038336	-0.834514	0.048885
H56	H	-1.922328	-0.834520	-0.067251
C57	C	-2.083159	-0.149932	0.059093
C58	C	-1.943751	-0.197893	0.027366
H59	H	-2.083158	-0.052293	0.059087
H60	H	-2.104576	-0.182477	0.153680
H61	H	-2.156284	-0.182484	-0.013992
H62	H	-1.870627	-0.165349	0.100457
H63	H	-1.922316	-0.165335	-0.067234
H64	H	-1.368115	-0.630497	0.602559
