data_functionalizedCrystal
_audit_creation_method	'MofGen! by Chris Wilmer'
_symmetry_space_group_name_H-M	'P1'
_symmetry_Int_Tables_number	1
_symmetry_cell_setting	triclinic
loop_
_symmetry_equiv_pos_as_xyz
  x,y,z
_cell_length_a	10.654545
_cell_length_b	17.699092
_cell_length_c	9.730223
_cell_angle_alpha	89.997288
_cell_angle_beta	89.997167
_cell_angle_gamma	83.884723
loop_
_atom_site_label
_atom_site_type_symbol
_atom_site_fract_x
_atom_site_fract_y
_atom_site_fract_z
O1	O	1.665987	0.106286	-0.114271
O2	O	1.300331	0.116417	-0.114276
O3	O	1.493484	0.001228	-0.114270
O4	O	1.472834	0.221475	-0.114276
O5	O	1.493472	0.001225	0.114310
O6	O	1.300319	0.116414	0.114304
O7	O	1.665975	0.106283	0.114309
Zn8	Zn	1.483145	0.111348	0.150599
Zn9	Zn	1.483161	0.111352	-0.150565
O10	O	1.472821	0.221472	0.114303
C11	C	1.253540	0.115672	0.000013
C12	C	1.114135	0.113449	0.000011
C13	C	1.048642	0.112400	0.124611
C14	C	0.917659	0.110299	0.124611
C15	C	0.917673	0.110297	-0.124599
C16	C	1.048655	0.112393	-0.124598
C17	C	1.492736	-0.026975	0.000018
C18	C	1.490511	-0.111007	0.000012
C19	C	1.489476	-0.150479	-0.124589
C20	C	1.487377	-0.229435	-0.124591
C21	C	1.486323	-0.268919	0.000010
C22	C	1.487355	-0.229440	0.124620
C23	C	1.489445	-0.150485	0.124620
C24	C	1.478925	-0.547859	0.124622
C25	C	1.476839	-0.626820	0.124612
C26	C	1.476858	-0.626809	-0.124589
C27	C	1.478947	-0.547854	-0.124589
C28	C	1.479973	-0.508382	0.000020
C29	C	1.482246	-0.422769	0.000021
C30	C	1.484058	-0.354531	0.000011
C31	C	1.712766	0.107027	0.000017
C32	C	1.852171	0.109251	0.000010
C33	C	1.473569	0.249675	0.000013
C34	C	1.475794	0.333707	0.000010
N35	N	1.483143	0.111345	0.356135
N36	N	1.483173	0.111349	-0.356102
C37	C	1.568700	0.060361	0.428064
C38	C	1.568712	0.060361	0.571947
C39	C	1.397607	0.162336	0.571960
C40	C	1.397589	0.162331	0.428080
H41	H	0.864343	0.109439	-0.226052
C42	C	1.323434	0.292946	0.383753
C43	C	1.303542	0.218380	0.349004
H44	H	1.265378	0.327544	0.334928
H45	H	1.311195	0.300243	0.479727
H46	H	1.407217	0.301625	0.360148
H47	H	1.219761	0.209699	0.372619
H48	H	1.315770	0.211080	0.253009
H49	H	1.475978	-0.658965	0.226083
H50	H	1.490341	-0.118338	-0.226053
C51	C	1.642802	-0.070259	0.383854
C52	C	1.662726	0.004293	0.349015
H53	H	1.700845	-0.104879	0.335059
H54	H	1.655038	-0.077528	0.479834
H55	H	1.559013	-0.078931	0.360274
H56	H	1.746512	0.012967	0.372605
H57	H	1.650500	0.011566	0.253014
H58	H	1.479812	-0.515711	-0.226051
C59	C	1.035470	0.112179	0.370943
C60	C	1.120622	0.113548	0.261579
H61	H	1.079909	0.112880	0.455502
H62	H	0.974673	0.155417	0.365762
H63	H	0.994094	0.067302	0.365743
H64	H	1.161992	0.158428	0.266773
H65	H	1.181441	0.070306	0.266762
H66	H	0.864341	0.109445	0.226073
H67	H	1.476016	-0.658956	-0.226052
C68	C	1.377098	-0.310306	0.269190
C69	C	1.486203	-0.272842	0.261582
H70	H	1.376398	-0.337103	0.353743
H71	H	1.304720	-0.274120	0.264022
H72	H	1.376195	-0.345111	0.194972
H73	H	1.487101	-0.238032	0.335794
H74	H	1.558599	-0.309032	0.266762
C75	C	1.226687	0.177806	0.733813
C76	C	1.303581	0.218382	0.651053
H77	H	1.168646	0.212410	0.782646
H78	H	1.181607	0.146055	0.677701
H79	H	1.277661	0.147444	0.797236
H80	H	1.252607	0.248740	0.587623
H81	H	1.348664	0.250146	0.707170
C82	C	1.487716	-0.221502	-0.370920
C83	C	1.486308	-0.272828	-0.261556
H84	H	1.487082	-0.248295	-0.455479
H85	H	1.415315	-0.185333	-0.365787
H86	H	1.561722	-0.196080	-0.365673
H87	H	1.412297	-0.298247	-0.266797
H88	H	1.558717	-0.309011	-0.266691
C89	C	1.478766	-0.555817	0.370950
C90	C	1.480104	-0.504482	0.261590
H91	H	1.479514	-0.529035	0.455511
H92	H	1.404742	-0.581215	0.365790
H93	H	1.551149	-0.592008	0.365724
H94	H	1.407716	-0.468294	0.266810
H95	H	1.554136	-0.479072	0.266753
C96	C	1.596312	-0.042492	0.733751
C97	C	1.662761	0.004318	0.651009
H98	H	1.654378	-0.077095	0.782552
H99	H	1.545381	-0.012127	0.797188
H100	H	1.544126	-0.070008	0.677619
H101	H	1.714941	0.031839	0.707142
H102	H	1.713714	-0.026050	0.587564
H103	H	1.101981	0.113245	-0.226068
H104	H	1.490270	-0.118346	0.226083
