data_functionalizedCrystal
_audit_creation_method	'MofGen! by Chris Wilmer'
_symmetry_space_group_name_H-M	'P1'
_symmetry_Int_Tables_number	1
_symmetry_cell_setting	triclinic
loop_
_symmetry_equiv_pos_as_xyz
  x,y,z
_cell_length_a	6.817900
_cell_length_b	15.520702
_cell_length_c	9.582880
_cell_angle_alpha	95.965623
_cell_angle_beta	68.792966
_cell_angle_gamma	88.056881
loop_
_atom_site_label
_atom_site_type_symbol
_atom_site_fract_x
_atom_site_fract_y
_atom_site_fract_z
V1	V	-4.058000	0.118495	0.461323
O2	O	-4.105388	-0.006067	0.457989
O3	O	-3.951145	0.235315	0.452927
O4	O	-4.049756	0.116509	0.664912
O5	O	-4.006095	0.113561	0.244537
V6	V	-4.543999	0.103615	0.436030
O7	O	-4.313827	0.151135	0.516804
O8	O	-4.738369	0.070975	0.380548
O9	O	-4.427647	-0.013204	0.444425
O10	O	-4.614006	0.228178	0.439363
O11	O	-4.713300	0.108549	0.652815
O12	O	-4.329035	0.105602	0.232440
C13	C	-3.780626	0.263798	0.444298
C14	C	-3.774814	0.359298	0.438790
C15	C	-3.764290	0.532354	0.428809
C16	C	-3.770102	0.436854	0.434320
C17	C	-4.261519	-0.041683	0.453052
C18	C	-4.246302	-0.138976	0.458694
V19	V	-4.025459	0.690628	0.433403
O20	O	-4.068641	0.817372	0.440371
O21	O	-3.930859	0.568956	0.433711
O22	O	-3.831572	0.687745	0.221698
O23	O	-4.168616	0.697761	0.653852
V24	V	-4.550322	0.729857	0.499279
O25	O	-4.242045	0.669367	0.396888
O26	O	-4.799602	0.773183	0.572572
O27	O	-4.413946	0.840589	0.480736
O28	O	-4.628623	0.608867	0.501901
O29	O	-4.528648	0.728478	0.288420
O30	O	-4.513234	0.721800	0.692749
C31	C	-3.906414	0.112248	0.714703
C32	C	-3.980571	0.111397	0.881104
C33	C	-4.135717	0.109865	0.182641
C34	C	-4.040801	0.110712	0.016239
C35	C	-4.358797	0.709157	0.728586
C36	C	-4.412024	0.707297	0.893313
C37	C	-3.637638	0.683881	0.158366
C38	C	-3.562932	0.684716	-0.008058
