data_functionalizedCrystal
_audit_creation_method	'MofGen! by Chris Wilmer'
_symmetry_space_group_name_H-M	'P1'
_symmetry_Int_Tables_number	1
_symmetry_cell_setting	triclinic
loop_
_symmetry_equiv_pos_as_xyz
  x,y,z
_cell_length_a	19.805407
_cell_length_b	18.050589
_cell_length_c	19.805399
_cell_angle_alpha	89.976299
_cell_angle_beta	89.983114
_cell_angle_gamma	90.028221
loop_
_atom_site_label
_atom_site_type_symbol
_atom_site_fract_x
_atom_site_fract_y
_atom_site_fract_z
Zn1	Zn	1.034709	-0.295666	-0.382745
Zn2	Zn	1.534709	0.204334	0.117255
Zn3	Zn	1.034626	-0.419862	-0.269567
Zn4	Zn	1.534626	0.080138	0.230433
Zn5	Zn	0.921529	-0.295690	-0.269569
Zn6	Zn	1.421529	0.204310	0.230431
Zn7	Zn	0.921484	-0.419819	-0.382713
Zn8	Zn	1.421484	0.080181	0.117287
O9	O	0.978087	-0.357759	-0.326148
O10	O	1.478087	0.142241	0.173852
O11	O	1.129415	-0.312149	-0.367743
O12	O	1.629415	0.187851	0.132257
O13	O	1.019607	-0.403418	-0.174850
O14	O	1.519607	0.096582	0.325150
O15	O	0.936597	-0.191762	-0.284596
O16	O	1.436597	0.308238	0.215404
O17	O	1.129353	-0.403395	-0.284592
O18	O	1.629353	0.096605	0.215408
O19	O	1.019750	-0.191745	-0.367746
O20	O	1.519750	0.308255	0.132254
O21	O	0.936516	-0.312189	-0.174852
O22	O	1.436516	0.187811	0.325148
O23	O	0.826807	-0.312148	-0.284566
O24	O	1.326807	0.187852	0.215434
O25	O	0.936519	-0.403322	-0.477434
O26	O	1.436519	0.096678	0.022566
O27	O	0.826773	-0.403345	-0.367693
O28	O	1.326773	0.096655	0.132307
O29	O	1.019706	-0.312108	-0.477457
O30	O	1.519706	0.187892	0.022543
O31	O	1.019563	-0.523781	-0.284562
O32	O	1.519563	-0.023781	0.215438
O33	O	0.936438	-0.523749	-0.367690
O34	O	1.436438	-0.023749	0.132310
C35	C	0.802231	-0.357745	-0.326127
C36	C	1.302231	0.142255	0.173873
C37	C	0.726999	-0.357757	-0.326133
C38	C	1.226999	0.142243	0.173867
C39	C	0.691655	-0.405315	-0.369347
C40	C	1.191655	0.094685	0.130653
C41	C	0.620967	-0.405316	-0.369357
C42	C	1.120967	0.094684	0.130643
C43	C	0.585623	-0.357763	-0.326148
C44	C	1.085623	0.142237	0.173852
C45	C	0.620972	-0.310200	-0.282933
C46	C	1.120972	0.189800	0.217067
C47	C	0.691659	-0.310195	-0.282927
C48	C	1.191659	0.189805	0.217073
C49	C	0.335899	-0.310216	-0.282955
C50	C	0.835899	0.189784	0.217045
C51	C	0.265207	-0.310226	-0.282962
C52	C	0.765207	0.189774	0.217038
C53	C	0.265206	-0.405337	-0.369385
C54	C	0.765206	0.094663	0.130615
C55	C	0.335893	-0.405332	-0.369379
C56	C	0.835893	0.094668	0.130621
C57	C	0.371236	-0.357767	-0.326166
C58	C	0.871236	0.142233	0.173834
C59	C	0.447884	-0.357765	-0.326157
C60	C	0.947884	0.142235	0.173843
C61	C	0.508976	-0.357768	-0.326153
C62	C	1.008976	0.142232	0.173847
C63	C	0.978005	-0.550711	-0.326137
C64	C	1.478005	-0.050711	0.173863
C65	C	0.978032	-0.633257	-0.326155
C66	C	1.478032	-0.133257	0.173845
C67	C	0.932873	-0.832718	-0.371344
C68	C	1.432873	-0.332718	0.128656
C69	C	0.916378	-0.882158	-0.309581
C70	C	1.416378	-0.382158	0.190419
C71	C	0.978099	-0.784387	-0.326164
C72	C	1.478099	-0.284387	0.173836
C73	C	0.994627	-0.882029	-0.387934
C74	C	1.494627	-0.382029	0.112066
C75	C	0.978162	-0.930373	-0.326178
C76	C	1.478162	-0.430373	0.173822
C77	C	0.961571	-0.832741	-0.264368
C78	C	1.461571	-0.332741	0.235632
C79	C	1.039849	-0.832607	-0.342762
C80	C	1.539849	-0.332607	0.157238
C81	C	1.023377	-0.882025	-0.280957
C82	C	1.523377	-0.382025	0.219043
C83	C	0.978061	-0.700289	-0.326157
C84	C	1.478061	-0.200289	0.173843
C85	C	0.978200	-1.014469	-0.326178
C86	C	1.478200	-0.514469	0.173822
C87	C	1.154630	-0.357774	-0.326171
C88	C	1.654630	0.142226	0.173829
C89	C	1.229862	-0.357780	-0.326180
C90	C	1.729862	0.142220	0.173820
C91	C	0.978117	-0.357708	-0.502691
C92	C	1.478117	0.142292	-0.002691
C93	C	0.978129	-0.357686	-0.577923
C94	C	1.478129	0.142314	-0.077923
C95	C	0.978187	-0.164054	-0.326175
C96	C	1.478187	0.335946	0.173825
C97	C	0.978230	-0.081508	-0.326186
C98	C	1.478230	0.418492	0.173814
C99	C	0.934876	-0.310179	-0.613268
C100	C	1.434876	0.189821	-0.113268
C101	C	0.934885	-0.310164	-0.683956
C102	C	1.434885	0.189836	-0.183956
C103	C	0.978152	-0.357654	-0.719299
C104	C	1.478152	0.142346	-0.219299
C105	C	1.021407	-0.405166	-0.683949
C106	C	1.521407	0.094834	-0.183949
C107	C	1.021394	-0.405184	-0.613262
C108	C	1.521394	0.094816	-0.113262
C109	C	1.021461	-0.405096	-0.969023
C110	C	1.521461	0.094904	-0.469023
C111	C	1.021472	-0.405074	-1.039715
C112	C	1.521472	0.094926	-0.539715
C113	C	0.934952	-0.310077	-1.039717
C114	C	1.434952	0.189923	-0.539717
C115	C	0.934939	-0.310095	-0.969030
C116	C	1.434939	0.189905	-0.469030
C117	C	0.978191	-0.357609	-0.933686
C118	C	1.478191	0.142391	-0.433686
C119	C	0.978180	-0.357626	-0.857038
C120	C	1.478180	0.142374	-0.357038
C121	C	0.978167	-0.357634	-0.795946
C122	C	1.478167	0.142366	-0.295946
C123	C	0.978096	-0.357757	-0.150292
C124	C	1.478096	0.142243	0.349708
C125	C	0.978215	-0.357570	-0.075061
C126	C	1.478215	0.142430	0.424939
H127	H	0.236432	-0.271497	-0.247777
H128	H	0.736432	0.228503	0.252223
H129	H	0.894571	-0.811067	-0.409498
H130	H	1.394571	-0.311067	0.090502
H131	H	0.864187	-0.903940	-0.295555
H132	H	1.364187	-0.403940	0.204445
H133	H	0.947556	-0.811180	-0.212121
H134	H	1.447556	-0.311180	0.287879
H135	H	1.061650	-0.903539	-0.242711
H136	H	1.561650	-0.403539	0.257289
O137	O	0.729780	-0.258898	-0.236316
O138	O	1.229780	0.241102	0.263684
H139	H	0.784871	-0.266878	-0.243576
H140	H	1.284871	0.233122	0.256424
O141	O	1.013119	-0.910705	-0.457121
O142	O	1.513119	-0.410705	0.042879
H143	H	0.975470	-0.890957	-0.494516
H144	H	1.475470	-0.390957	0.005484
H145	H	1.092028	-0.810827	-0.356819
H146	H	1.592028	-0.310827	0.143181
H147	H	0.899647	-0.271503	-0.584497
H148	H	1.399647	0.228497	-0.084497
O149	O	0.888279	-0.258866	-0.930912
O150	O	1.388279	0.241134	-0.430912
H151	H	0.835151	-0.271594	-0.944464
H152	H	1.335151	0.228406	-0.444464
H153	H	0.899661	-0.271482	-0.712731
H154	H	1.399661	0.228518	-0.212731
O155	O	0.582849	-0.456613	-0.415968
O156	O	1.082849	0.043387	0.084032
H157	H	0.527758	-0.448622	-0.408721
H158	H	1.027758	0.051378	0.091279
O159	O	0.888303	-0.258820	-1.077836
O160	O	1.388303	0.241180	-0.577836
H161	H	0.895576	-0.266784	-1.132927
H162	H	1.395576	0.233216	-0.632927
O163	O	1.068114	-0.456341	-0.930911
O164	O	1.568114	0.043659	-0.430911
H165	H	1.060834	-0.448387	-0.875820
H166	H	1.560834	0.051613	-0.375820
H167	H	1.056707	-0.443748	-1.068489
H168	H	1.556707	0.056252	-0.568489
O169	O	1.068077	-0.456388	-0.722064
O170	O	1.568077	0.043612	-0.222064
H171	H	1.060826	-0.448389	-0.777155
H172	H	1.560826	0.051611	-0.277155
H173	H	1.056621	-0.443863	-0.584486
H174	H	1.556621	0.056137	-0.084486
H175	H	0.720427	-0.444041	-0.404530
H176	H	1.220427	0.055959	0.095470
O177	O	0.374015	-0.258939	-0.236328
O178	O	0.874015	0.241061	0.263672
H179	H	0.337561	-0.225888	-0.206273
H180	H	0.837561	0.274112	0.293727
O181	O	0.582845	-0.258928	-0.236317
O182	O	1.082845	0.241072	0.263683
H183	H	0.550652	-0.221194	-0.266662
H184	H	1.050652	0.278806	0.233338
O185	O	0.374016	-0.456614	-0.415988
O186	O	0.874016	0.043386	0.084012
H187	H	0.360422	-0.514888	-0.404301
H188	H	0.860422	-0.014888	0.095699
O189	O	0.227088	-0.456634	-0.416004
O190	O	0.727088	0.043366	0.083996
H191	H	0.171997	-0.448645	-0.408759
H192	H	0.671997	0.051355	0.091241
