data_functionalizedCrystal
_audit_creation_method	'MofGen! by Chris Wilmer'
_symmetry_space_group_name_H-M	'P1'
_symmetry_Int_Tables_number	1
_symmetry_cell_setting	triclinic
loop_
_symmetry_equiv_pos_as_xyz
  x,y,z
_cell_length_a	17.077404
_cell_length_b	17.077402
_cell_length_c	17.077396
_cell_angle_alpha	90.028267
_cell_angle_beta	89.982756
_cell_angle_gamma	89.975442
loop_
_atom_site_label
_atom_site_type_symbol
_atom_site_fract_x
_atom_site_fract_y
_atom_site_fract_z
Zn1	Zn	1.200029	0.312497	-0.443848
Zn2	Zn	1.199938	0.443774	-0.312585
Zn3	Zn	1.068766	0.312526	-0.312596
Zn4	Zn	1.068726	0.443725	-0.443808
O5	O	1.134365	0.378131	-0.378210
O6	O	1.309864	0.329919	-0.426448
O7	O	1.182517	0.426396	-0.202739
O8	O	1.086234	0.202676	-0.330029
O9	O	1.309797	0.426368	-0.330009
O10	O	1.182672	0.202654	-0.426459
O11	O	1.086145	0.329969	-0.202748
O12	O	0.958914	0.329922	-0.329990
O13	O	1.086165	0.426285	-0.553661
O14	O	0.958884	0.426313	-0.426391
O15	O	1.182633	0.329872	-0.553690
O16	O	1.182478	0.553614	-0.329970
O17	O	1.086076	0.553579	-0.426380
C18	C	0.930417	0.378116	-0.378188
C19	C	0.843167	0.378129	-0.378197
C20	C	0.802182	0.428396	-0.428313
C21	C	0.720202	0.428398	-0.428325
C22	C	0.679208	0.378136	-0.378218
C23	C	0.720199	0.327864	-0.328100
C24	C	0.802178	0.327859	-0.328092
C25	C	0.549329	0.327879	-0.328119
C26	C	0.467344	0.327885	-0.328126
C27	C	0.467353	0.428418	-0.428352
C28	C	0.549332	0.428413	-0.428344
C29	C	0.590317	0.378142	-0.378225
C30	C	1.134284	0.582078	-0.378187
C31	C	1.134321	0.669328	-0.378203
C32	C	1.184567	0.710311	-0.328058
C33	C	1.184604	0.792291	-0.328082
C34	C	1.134389	0.833288	-0.378246
C35	C	1.084141	0.792299	-0.428397
C36	C	1.084109	0.710320	-0.428377
C37	C	1.084209	0.963169	-0.428434
C38	C	1.084240	1.045154	-0.428453
C39	C	1.184704	1.045140	-0.328138
C40	C	1.184672	0.963161	-0.328118
C41	C	1.134422	0.922179	-0.378268
C42	C	1.339109	0.378145	-0.378232
C43	C	1.426359	0.378152	-0.378241
C44	C	1.134404	0.378070	-0.582954
C45	C	1.134421	0.378044	-0.670204
C46	C	1.134461	1.173386	-0.378260
C47	C	1.134486	1.086136	-0.378308
C48	C	1.084256	0.327828	-0.711198
C49	C	1.084269	0.327811	-0.793178
C50	C	1.134451	0.378005	-0.834163
C51	C	1.184619	0.428226	-0.793164
C52	C	1.184601	0.428247	-0.711185
C53	C	1.184653	0.428177	-0.964034
C54	C	1.184671	0.428155	-1.046018
C55	C	1.084320	0.327740	-1.046027
C56	C	1.084303	0.327762	-0.964048
C57	C	1.134471	0.377982	-0.923054
C58	C	1.134371	0.378135	-0.174262
C59	C	1.134506	0.377939	-0.087012
H60	H	0.582707	0.469345	-0.469142
H61	H	1.225519	0.825656	-0.287248
H62	H	0.433979	0.469349	-0.469163
C63	C	0.341670	0.283220	-0.283684
C64	C	0.422280	0.272605	-0.273081
H65	H	0.313852	0.249085	-0.249706
H66	H	0.328282	0.271832	-0.336453
H67	H	0.328208	0.335940	-0.272070
H68	H	0.435744	0.219885	-0.284701
H69	H	0.435674	0.283986	-0.220301
C70	C	1.283987	0.971378	-0.228969
C71	C	1.239870	0.918096	-0.272979
H72	H	1.318068	0.943554	-0.194934
H73	H	1.249820	1.003399	-0.198917
H74	H	1.314002	1.003306	-0.263212
H75	H	1.209850	0.886171	-0.238736
H76	H	1.274042	0.886061	-0.303034
H77	H	1.225622	1.078512	-0.287307
H78	H	0.835547	0.286922	-0.287287
H79	H	1.043365	1.078531	-0.469316
H80	H	1.043443	0.286885	-0.930681
H81	H	1.043472	0.286848	-1.079409
C82	C	1.045785	0.685017	-0.561255
C83	C	1.028878	0.665268	-0.483499
H84	H	1.011686	0.657206	-0.595287
H85	H	1.098510	0.671530	-0.572778
H86	H	1.038612	0.739708	-0.568435
H87	H	1.036057	0.610577	-0.476317
H88	H	0.976141	0.678750	-0.471971
H89	H	1.225474	0.469099	-0.826540
C90	C	1.290217	0.439120	-0.871849
C91	C	1.239799	0.483379	-0.918972
H92	H	1.324258	0.473200	-0.844027
H93	H	1.320264	0.404920	-0.903841
H94	H	1.260318	0.409235	-0.835710
H95	H	1.269698	0.513261	-0.955114
H96	H	1.209749	0.517593	-0.886977
H97	H	0.582696	0.286936	-0.287314
C98	C	1.073379	0.222255	-0.619034
C99	C	1.029092	0.272651	-0.666153
H100	H	1.039319	0.188189	-0.591232
H101	H	1.103245	0.252162	-0.582887
H102	H	1.107599	0.192226	-0.651034
H103	H	0.994876	0.302685	-0.634152
H104	H	0.999212	0.242741	-0.702304
C105	C	0.978685	0.316884	-0.885336
C106	C	1.029112	0.272618	-0.838230
H107	H	0.944625	0.282809	-0.913142
H108	H	1.008571	0.346761	-0.921481
H109	H	0.948651	0.351093	-0.853329
H110	H	1.059150	0.238412	-0.870238
H111	H	0.999223	0.242727	-0.802080
H112	H	1.043293	0.929804	-0.469273
H113	H	1.043258	0.825685	-0.469245
C114	C	0.627967	0.533997	-0.439041
C115	C	0.675143	0.483653	-0.483407
H116	H	0.600146	0.568107	-0.473049
H117	H	0.659923	0.563976	-0.404791
H118	H	0.591828	0.504050	-0.409205
H119	H	0.711286	0.513601	-0.513239
H120	H	0.643185	0.453672	-0.517671
H121	H	1.225535	0.469027	-1.079386
C122	C	0.627969	0.316826	-0.222540
C123	C	0.675139	0.272613	-0.273023
H124	H	0.600156	0.282714	-0.188534
H125	H	0.591830	0.346757	-0.252388
H126	H	0.659934	0.350981	-0.192451
H127	H	0.643173	0.238461	-0.303116
H128	H	0.711282	0.242668	-0.243171
C129	C	1.283878	0.718540	-0.228908
C130	C	1.239766	0.665252	-0.272914
H131	H	1.317959	0.690723	-0.194869
H132	H	1.249708	0.750564	-0.198861
H133	H	1.313893	0.750466	-0.263154
H134	H	1.209746	0.633329	-0.238668
H135	H	1.273940	0.633215	-0.302964
C136	C	1.283797	0.527498	-0.719405
C137	C	1.239744	0.483446	-0.666121
H138	H	1.317841	0.561575	-0.691583
H139	H	1.249587	0.557508	-0.751370
H140	H	1.313850	0.493284	-0.751389
H141	H	1.209687	0.517660	-0.634140
H142	H	1.273959	0.453434	-0.634142
H143	H	0.835553	0.469327	-0.469113
