data_functionalizedCrystal
_audit_creation_method	'MofGen! by Chris Wilmer'
_symmetry_space_group_name_H-M	'P1'
_symmetry_Int_Tables_number	1
_symmetry_cell_setting	triclinic
loop_
_symmetry_equiv_pos_as_xyz
  x,y,z
_cell_length_a	9.130313
_cell_length_b	10.654549
_cell_length_c	10.654543
_cell_angle_alpha	95.516525
_cell_angle_beta	89.998265
_cell_angle_gamma	89.999516
loop_
_atom_site_label
_atom_site_type_symbol
_atom_site_fract_x
_atom_site_fract_y
_atom_site_fract_z
O1	O	0.121755	1.667830	-0.176399
O2	O	0.121764	1.302351	-0.193206
O3	O	0.121762	1.493498	-0.002062
O4	O	0.121756	1.476683	-0.367542
O5	O	-0.121837	1.493496	-0.002053
O6	O	-0.121835	1.302349	-0.193196
O7	O	-0.121844	1.667828	-0.176390
Cu8	Cu	-0.144082	1.485088	-0.184792
Cu9	Cu	0.144002	1.485090	-0.184803
O10	O	-0.121843	1.476681	-0.367533
C11	C	-0.000035	1.255552	-0.191967
C12	C	-0.000031	1.116109	-0.188275
N13	N	-0.346705	1.485096	-0.184784
C14	C	-0.000033	1.492264	0.044740
C15	C	-0.000021	1.488575	0.184184
N16	N	0.346624	1.485093	-0.184802
C17	C	0.423276	1.569893	-0.100331
C18	C	0.576612	1.569898	-0.100325
C19	C	0.576633	1.400292	-0.269263
C20	C	0.423299	1.400293	-0.269274
C21	C	-0.000043	1.714627	-0.177628
C22	C	-0.000037	1.854070	-0.181320
C23	C	-0.000031	2.064587	-0.072256
C24	C	-0.000029	1.933567	-0.068778
C25	C	-0.000032	1.905600	-0.297348
C26	C	-0.000023	2.036618	-0.300825
C27	C	-0.000018	1.601119	0.263670
C28	C	0.000009	1.597646	0.394691
C29	C	0.000023	1.369075	0.366728
C30	C	0.000007	1.372550	0.235709
C31	C	-0.000027	1.477921	0.585665
C32	C	0.000022	1.481628	0.446224
H33	H	0.639018	1.638952	-0.031543
O34	O	0.651281	1.318086	-0.351360
C35	C	0.739966	1.385849	-0.429623
H36	H	0.762931	1.483763	-0.380689
H37	H	0.847792	1.333571	-0.448896
H38	H	0.680889	1.395005	-0.522566
H39	H	-0.000038	1.695594	0.221723
H40	H	0.360885	1.331238	-0.338066
H41	H	-0.000031	2.129306	0.019389
H42	H	-0.000027	1.891625	0.025696
H43	H	-0.000028	1.840863	-0.388982
H44	H	-0.000020	2.078566	-0.395307
O45	O	-0.000058	1.707088	0.471723
C46	C	-0.000047	1.810233	0.398144
H47	H	-0.046179	1.779201	0.300658
H48	H	-0.070771	1.889154	0.445787
H49	H	0.116814	1.845749	0.388491
O50	O	-0.000028	1.256482	0.416990
C51	C	0.000019	1.277545	0.549675
H52	H	-0.046100	1.375287	0.579590
H53	H	-0.070698	1.203237	0.590546
H54	H	0.116889	1.271143	0.586183
O55	O	-0.000190	1.263303	0.158358
C56	C	-0.126376	1.258456	0.081766
H57	H	-0.168450	1.358199	0.074289
H58	H	-0.098004	1.212540	-0.016289
H59	H	-0.214709	1.200710	0.125363
O60	O	0.348635	1.652324	-0.018456
C61	C	0.259977	1.730265	-0.086599
H62	H	0.237010	1.680921	-0.184338
H63	H	0.152149	1.749779	-0.034390
H64	H	0.319077	1.823118	-0.096169
