data_functionalizedCrystal
_audit_creation_method	'MofGen! by Chris Wilmer'
_symmetry_space_group_name_H-M	'P1'
_symmetry_Int_Tables_number	1
_symmetry_cell_setting	triclinic
loop_
_symmetry_equiv_pos_as_xyz
  x,y,z
_cell_length_a	17.077404
_cell_length_b	16.959453
_cell_length_c	17.077396
_cell_angle_alpha	89.970936
_cell_angle_beta	89.981638
_cell_angle_gamma	90.017958
loop_
_atom_site_label
_atom_site_type_symbol
_atom_site_fract_x
_atom_site_fract_y
_atom_site_fract_z
Zn1	Zn	1.200070	-0.314724	-0.443816
Zn2	Zn	1.700070	0.185276	0.056184
Zn3	Zn	1.199984	-0.446912	-0.312548
Zn4	Zn	1.699984	0.053088	0.187452
Zn5	Zn	1.068802	-0.314747	-0.312566
Zn6	Zn	1.568802	0.185253	0.187434
Zn7	Zn	1.068777	-0.446860	-0.443775
Zn8	Zn	1.568777	0.053140	0.056225
O9	O	1.134408	-0.380811	-0.378176
O10	O	1.634408	0.119189	0.121824
O11	O	1.309906	-0.332272	-0.426413
O12	O	1.809906	0.167728	0.073587
O13	O	1.182557	-0.429411	-0.202704
O14	O	1.682557	0.070589	0.297296
O15	O	1.086262	-0.204133	-0.330001
O16	O	1.586262	0.295867	0.169999
O17	O	1.309842	-0.429390	-0.329971
O18	O	1.809842	0.070610	0.170029
O19	O	1.182704	-0.204116	-0.426430
O20	O	1.682704	0.295884	0.073570
O21	O	1.086178	-0.332310	-0.202717
O22	O	1.586178	0.167690	0.297283
O23	O	0.958952	-0.332260	-0.329962
O24	O	1.458952	0.167740	0.170038
O25	O	1.086219	-0.429301	-0.553627
O26	O	1.586219	0.070699	-0.053627
O27	O	0.958933	-0.429323	-0.426360
O28	O	1.458933	0.070677	0.073640
O29	O	1.182680	-0.332221	-0.553657
O30	O	1.682680	0.167779	-0.053657
O31	O	1.182532	-0.557516	-0.329931
O32	O	1.682532	-0.057516	0.170069
O33	O	1.086135	-0.557478	-0.426342
O34	O	1.586135	-0.057478	0.073658
C35	C	0.930461	-0.380788	-0.378159
C36	C	1.430461	0.119212	0.121841
C37	C	0.843211	-0.380798	-0.378170
C38	C	1.343211	0.119202	0.121830
C39	C	1.134343	-0.586177	-0.378147
C40	C	1.634343	-0.086177	0.121853
C41	C	1.134387	-0.674034	-0.378161
C42	C	1.634387	-0.174034	0.121839
C43	C	0.802254	-0.330319	-0.428463
C44	C	1.302254	0.169681	0.071537
C45	C	0.720274	-0.330324	-0.428467
C46	C	1.220274	0.169676	0.071533
C47	C	0.679251	-0.380813	-0.378180
C48	C	1.179251	0.119187	0.121820
C49	C	0.720213	-0.431294	-0.327881
C50	C	1.220213	0.068706	0.172119
C51	C	0.802192	-0.431285	-0.327874
C52	C	1.302192	0.068715	0.172126
C53	C	0.549343	-0.431312	-0.327900
C54	C	1.049343	0.068688	0.172100
C55	C	0.467359	-0.431323	-0.327908
C56	C	0.967359	0.068677	0.172092
C57	C	0.467425	-0.330351	-0.428494
C58	C	0.967425	0.169649	0.071506
C59	C	0.549404	-0.330342	-0.428487
C60	C	1.049404	0.169658	0.071513
C61	C	0.590360	-0.380824	-0.378188
C62	C	1.090360	0.119176	0.121812
C63	C	1.184690	-1.045442	-0.428481
C64	C	1.684690	-0.545442	0.071519
C65	C	1.084346	-1.045576	-0.327988
C66	C	1.584346	-0.545576	0.172012
C67	C	1.084317	-0.963031	-0.327970
C68	C	1.584317	-0.463031	0.172030
C69	C	1.134474	-0.921687	-0.378209
C70	C	1.634474	-0.421687	0.121791
C71	C	1.184661	-0.962889	-0.428466
C72	C	1.684661	-0.462889	0.071534
C73	C	1.034126	-0.921822	-0.277719
C74	C	1.534126	-0.421822	0.222281
C75	C	1.034094	-0.839271	-0.277699
C76	C	1.534094	-0.339271	0.222301
C77	C	1.084256	-0.797926	-0.327935
C78	C	1.584256	-0.297926	0.172065
C79	C	1.134445	-0.839133	-0.378194
C80	C	1.634445	-0.339133	0.121806
C81	C	1.184603	-0.797789	-0.428434
C82	C	1.684603	-0.297789	0.071566
C83	C	1.234796	-0.838995	-0.478689
C84	C	1.734796	-0.338995	0.021311
C85	C	1.234823	-0.921543	-0.478702
C86	C	1.734823	-0.421543	0.021298
C87	C	1.084229	-0.715378	-0.327922
C88	C	1.584229	-0.215378	0.172078
C89	C	1.184573	-0.715236	-0.428419
C90	C	1.684573	-0.215236	0.071581
C91	C	1.339153	-0.380834	-0.378194
C92	C	1.839153	0.119166	0.121806
C93	C	1.426402	-0.380844	-0.378202
C94	C	1.926402	0.119156	0.121798
C95	C	1.134456	-0.380753	-0.582921
C96	C	1.634456	0.119247	-0.082921
C97	C	1.134476	-0.380728	-0.670170
C98	C	1.634476	0.119272	-0.170170
C99	C	1.134496	-0.174643	-0.378222
C100	C	1.634496	0.325357	0.121778
C101	C	1.134533	-0.086786	-0.378242
C102	C	1.634533	0.413214	0.121758
C103	C	1.184705	-0.330174	-0.711178
C104	C	1.684705	0.169826	-0.211178
C105	C	1.184715	-0.330148	-0.793158
C106	C	1.684715	0.169852	-0.293158
C107	C	1.134498	-0.380680	-0.834130
C108	C	1.634498	0.119320	-0.334130
C109	C	1.084264	-0.431236	-0.793117
C110	C	1.584264	0.068764	-0.293117
C111	C	1.084251	-0.431257	-0.711138
C112	C	1.584251	0.068743	-0.211138
C113	C	1.084296	-0.431188	-0.963987
C114	C	1.584296	0.068812	-0.463987
C115	C	1.084309	-0.431168	-1.045972
C116	C	1.584309	0.068832	-0.545972
C117	C	1.184759	-0.330079	-1.046007
C118	C	1.684759	0.169921	-0.546007
C119	C	1.184746	-0.330100	-0.964028
C120	C	1.684746	0.169900	-0.464028
C121	C	1.134512	-0.380657	-0.923021
C122	C	1.634512	0.119343	-0.423021
C123	C	1.134406	-0.380812	-0.174228
C124	C	1.634406	0.119188	0.325772
C125	C	1.134538	-0.380614	-0.086979
C126	C	1.634538	0.119386	0.413021
H127	H	0.835649	-0.289207	-0.469415
H128	H	1.335649	0.210793	0.030585
Br129	Br	0.411843	-0.261839	-0.496756
Br130	Br	0.911843	0.238161	0.003244
Br131	Br	1.302855	-0.782876	-0.546878
Br132	Br	1.802855	-0.282876	-0.046878
H133	H	1.043359	-0.681832	-0.287009
H134	H	1.543359	-0.181832	0.212991
H135	H	0.582802	-0.289234	-0.469439
H136	H	1.082802	0.210766	0.030561
Br137	Br	1.016076	-0.499863	-0.655484
Br138	Br	1.516076	0.000137	-0.155484
Br139	Br	0.664693	-0.261814	-0.496727
Br140	Br	1.164693	0.238186	0.003273
H141	H	0.433960	-0.472436	-0.286961
H142	H	0.933960	0.027564	0.213039
H143	H	0.582688	-0.472419	-0.286940
H144	H	1.082688	0.027581	0.213060
H145	H	0.686806	-0.472399	-0.286933
H146	H	1.186806	0.027601	0.213067
H147	H	0.835538	-0.472390	-0.286919
H148	H	1.335538	0.027610	0.213081
Br149	Br	1.252866	-0.261598	-0.655581
Br150	Br	1.752866	0.238402	-0.155581
H151	H	1.043374	-0.472377	-0.826483
H152	H	1.543374	0.027623	-0.326483
Br153	Br	1.252655	-0.659132	-0.496598
Br154	Br	1.752655	-0.159132	0.003402
Br155	Br	1.252937	-0.261469	-1.101658
Br156	Br	1.752937	0.238531	-0.601658
Br157	Br	1.016118	-0.499799	-0.908335
Br158	Br	1.516118	0.000201	-0.408335
H159	H	1.043417	-0.472313	-1.079329
H160	H	1.543417	0.027687	-0.579329
Br161	Br	1.016264	-1.101686	-0.259823
Br162	Br	1.516264	-0.601686	0.240177
Br163	Br	0.965972	-0.783357	-0.209501
Br164	Br	1.465972	-0.283357	0.290499
H165	H	1.275687	-0.955100	-0.519618
H166	H	1.775687	-0.455100	-0.019618
H167	H	1.225641	-0.288957	-0.930671
H168	H	1.725641	0.211043	-0.430671
Br169	Br	1.252812	-1.101360	-0.496677
Br170	Br	1.752812	-0.601360	0.003323
H171	H	0.993288	-0.955491	-0.236819
H172	H	1.493288	-0.455491	0.263181
Br173	Br	1.252922	-0.261573	-0.848808
Br174	Br	1.752922	0.238427	-0.348808
