data_functionalizedCrystal
_audit_creation_method	'MofGen! by Chris Wilmer'
_symmetry_space_group_name_H-M	'P1'
_symmetry_Int_Tables_number	1
_symmetry_cell_setting	triclinic
loop_
_symmetry_equiv_pos_as_xyz
  x,y,z
_cell_length_a	27.732048
_cell_length_b	11.804365
_cell_length_c	13.339070
_cell_angle_alpha	105.112168
_cell_angle_beta	99.135975
_cell_angle_gamma	78.257132
loop_
_atom_site_label
_atom_site_type_symbol
_atom_site_fract_x
_atom_site_fract_y
_atom_site_fract_z
O1	O	0.664466	-0.098865	0.099616
O2	O	0.526190	-0.098900	0.117872
O3	O	0.579458	-0.098883	-0.038271
O4	O	0.611198	-0.098882	0.255760
O5	O	0.565429	0.099169	0.002794
O6	O	0.512161	0.099152	0.158938
O7	O	0.650437	0.099186	0.140681
Cu8	Cu	0.580018	0.117253	0.153559
Cu9	Cu	0.596609	-0.116966	0.104994
O10	O	0.597169	0.099169	0.296825
C11	C	0.501116	0.000121	0.138021
C12	C	0.447303	0.000108	0.136864
N13	N	0.568352	0.281990	0.187717
N14	N	0.608277	-0.281703	0.070829
C15	C	0.120189	0.000160	0.221880
C16	C	-0.082062	0.000170	0.217598
O17	O	-0.102618	0.000222	0.295340
N18	N	-0.113934	0.000168	0.125009
C19	C	-0.095241	0.000170	0.033485
O20	O	-0.126992	0.000181	-0.045364
C21	C	0.107007	0.000168	0.037769
C22	C	0.138878	0.000159	0.130362
C23	C	0.152059	0.000151	0.314465
C24	C	0.202619	0.000142	0.315533
C25	C	0.221308	0.000141	0.224015
C26	C	0.189438	0.000150	0.131430
C27	C	0.125698	0.000180	-0.053752
C28	C	0.176264	0.000182	-0.052673
C29	C	0.208135	0.000172	0.039920
C30	C	0.258688	0.000140	0.040980
N31	N	0.290560	0.000142	0.133569
C32	C	0.271870	0.000143	0.225087
C33	C	-0.201424	0.000169	0.031242
C34	C	-0.251986	0.000168	0.030170
C35	C	-0.238803	0.000170	0.214285
C36	C	-0.188240	0.000163	0.215353
C37	C	-0.169552	0.000172	0.123831
C38	C	0.378049	0.000123	0.227323
C39	C	0.428613	0.000108	0.228381
C40	C	0.415425	0.000113	0.044269
C41	C	0.364866	0.000121	0.043208
C42	C	0.346179	0.000130	0.134744
O43	O	0.279277	0.000101	-0.036718
O44	O	0.303627	0.000159	0.303930
C45	C	0.069629	0.000169	0.220812
C46	C	0.037758	0.000177	0.128226
C47	C	0.056448	0.000176	0.036708
C48	C	-0.012803	0.000175	0.127154
C49	C	-0.031493	0.000176	0.218672
C50	C	0.000379	0.000179	0.311261
C51	C	0.050939	0.000169	0.312329
C52	C	0.024576	0.000174	-0.055881
C53	C	-0.025984	0.000182	-0.056942
C54	C	-0.044673	0.000182	0.034576
C55	C	0.675511	0.000163	0.120532
C56	C	0.729324	0.000168	0.121688
C57	C	0.567082	0.000140	-0.055345
C58	C	0.551101	0.000131	-0.167398
C59	C	0.636288	0.655960	-0.011214
C60	C	0.645112	0.531301	-0.037058
C61	C	0.625923	0.468967	0.019133
C62	C	0.597908	0.531304	0.101173
C63	C	0.589087	0.655975	0.127025
C64	C	0.578721	0.468982	0.157372
C65	C	0.550706	0.531320	0.239413
C66	C	0.541886	0.655978	0.265260
C67	C	0.561075	0.718312	0.209069
C68	C	0.587543	0.344311	0.131520
C69	C	0.540341	0.344327	0.269760
C70	C	0.531517	0.468986	0.295604
C71	C	0.675361	0.000163	-0.534127
C72	C	0.690377	0.000178	-0.428846
C73	C	0.655559	0.000166	-0.363479
C74	C	0.605723	0.000139	-0.403403
C75	C	0.590706	0.000134	-0.508693
C76	C	0.570904	0.000137	-0.338045
C77	C	0.521068	0.000110	-0.377969
C78	C	0.506053	0.000104	-0.483249
C79	C	0.540870	0.000116	-0.548615
C80	C	0.585922	0.000142	-0.232755
C81	C	0.501266	0.000113	-0.207321
C82	C	0.486250	0.000098	-0.312602
C83	C	0.609545	0.000144	0.313898
C84	C	0.625526	0.000145	0.425950
H85	H	0.454561	0.000100	0.303785
F86	F	0.635314	0.336293	-0.008376
F87	F	0.132177	0.000152	0.411880
F88	F	0.671542	0.000178	-0.251431
H89	H	0.730953	0.000201	-0.396347
H90	H	0.703704	0.000183	-0.587355
F91	F	0.674926	0.464962	-0.124366
H92	H	0.472914	0.000109	-0.154098
H93	H	0.362841	0.000134	0.301861
F94	F	0.617357	0.277982	0.044210
F95	F	0.656713	0.722304	-0.071002
F96	F	-0.154325	0.000155	0.313903
H97	H	0.553889	0.819820	0.230108
F98	F	0.501702	0.535342	0.382917
F99	F	0.512077	0.722323	0.352584
F100	F	-0.258702	0.000172	0.311685
H101	H	0.626498	0.000164	-0.200260
H102	H	0.528647	0.000099	-0.634346
H103	H	0.191476	0.000190	-0.127203
H104	H	0.465472	0.000091	-0.515749
H105	H	0.228564	0.000134	0.390932
F106	F	0.519919	0.277992	0.329570
H107	H	0.445673	0.000077	-0.345123
H108	H	-0.277930	0.000157	-0.045232
F109	F	0.091790	0.000173	-0.152308
F110	F	-0.181543	0.000178	-0.066176
F111	F	0.330945	0.000132	-0.055339
H112	H	0.430652	0.000108	-0.030243
H113	H	-0.014846	0.000174	0.385777
F114	F	0.084853	0.000159	0.410880
H115	H	0.039787	0.000176	-0.130407
F116	F	-0.059897	0.000177	-0.155503
