data_functionalizedCrystal
_audit_creation_method	'MofGen! by Chris Wilmer'
_symmetry_space_group_name_H-M	'P1'
_symmetry_Int_Tables_number	1
_symmetry_cell_setting	triclinic
loop_
_symmetry_equiv_pos_as_xyz
  x,y,z
_cell_length_a	17.640112
_cell_length_b	21.295417
_cell_length_c	17.640968
_cell_angle_alpha	101.233941
_cell_angle_beta	87.860920
_cell_angle_gamma	101.255243
loop_
_atom_site_label
_atom_site_type_symbol
_atom_site_fract_x
_atom_site_fract_y
_atom_site_fract_z
Zn1	Zn	1.247775	-0.018088	0.195079
Zn2	Zn	1.747775	0.481912	0.695079
Zn3	Zn	1.221984	-0.147965	0.068090
Zn4	Zn	1.721984	0.352035	0.568090
Zn5	Zn	1.095101	-0.059037	0.093723
Zn6	Zn	1.595101	0.440963	0.593723
Zn7	Zn	1.120726	-0.139679	0.220672
Zn8	Zn	1.620726	0.360321	0.720672
O9	O	1.171397	-0.091192	0.144391
O10	O	1.671397	0.408808	0.644391
O11	O	1.350626	-0.021647	0.156795
O12	O	1.850626	0.478353	0.656795
O13	O	1.183635	-0.156774	-0.034784
O14	O	1.683635	0.343226	0.465216
O15	O	1.115422	0.034498	0.107185
O16	O	1.615422	0.534498	0.607185
O17	O	1.331677	-0.117067	0.063497
O18	O	1.831677	0.382933	0.563497
O19	O	1.227592	0.064584	0.181651
O20	O	1.727592	0.564584	0.681651
O21	O	1.090414	-0.091439	-0.015952
O22	O	1.590414	0.408561	0.484048
O23	O	0.992228	-0.083404	0.132001
O24	O	1.492228	0.416596	0.632001
O25	O	1.159098	-0.102944	0.323551
O26	O	1.659098	0.397056	0.823551
O27	O	1.011055	-0.142651	0.225270
O28	O	1.511055	0.357349	0.725270
O29	O	1.252440	-0.013611	0.304748
O30	O	1.752440	0.486389	0.804748
O31	O	1.208483	-0.234969	0.088313
O32	O	1.708483	0.265031	0.588313
O33	O	1.134089	-0.228881	0.200415
O34	O	1.634089	0.271119	0.700415
C35	C	0.974087	-0.116572	0.184195
C36	C	1.474087	0.383428	0.684195
C37	C	0.889681	-0.127442	0.201241
C38	C	1.389681	0.372558	0.701241
C39	C	0.563038	-0.008607	0.014898
C40	C	1.063038	0.491393	0.514898
C41	C	0.483727	-0.018831	0.030926
C42	C	0.983727	0.481169	0.530926
C43	C	0.503352	-0.080668	0.127879
C44	C	1.003352	0.419332	0.627879
C45	C	0.582667	-0.070447	0.111862
C46	C	1.082667	0.429553	0.611862
C47	C	0.612502	-0.034416	0.055370
C48	C	1.112502	0.465584	0.555370
C49	C	0.632131	-0.096256	0.152334
C50	C	1.132131	0.403744	0.652334
C51	C	0.711438	-0.086038	0.136315
C52	C	1.211438	0.413962	0.636315
C53	C	0.741280	-0.050010	0.079824
C54	C	1.241280	0.449990	0.579824
C55	C	0.691809	-0.024198	0.039351
C56	C	1.191809	0.475802	0.539351
C57	C	0.602293	-0.132290	0.208822
C58	C	1.102293	0.367710	0.708822
C59	C	0.651758	-0.158100	0.249294
C60	C	1.151758	0.341900	0.749294
C61	C	0.731067	-0.147878	0.233279
C62	C	1.231067	0.352122	0.733279
C63	C	0.760909	-0.111850	0.176788
C64	C	1.260909	0.388150	0.676788
C65	C	0.780538	-0.173690	0.273752
C66	C	1.280538	0.326310	0.773752
C67	C	0.859845	-0.163472	0.257733
C68	C	1.359845	0.336528	0.757733
C69	C	0.840216	-0.101632	0.160769
C70	C	1.340216	0.398368	0.660769
C71	C	1.171292	-0.254764	0.144372
C72	C	1.671292	0.245236	0.644372
C73	C	1.171322	-0.324726	0.144375
C74	C	1.671322	0.175274	0.644375
C75	C	1.229708	-0.341867	0.183190
C76	C	1.729708	0.158133	0.683190
C77	C	1.229738	-0.407603	0.183203
C78	C	1.729738	0.092397	0.683203
C79	C	1.171388	-0.456196	0.144387
C80	C	1.671388	0.043804	0.644387
C81	C	1.112992	-0.439049	0.105570
C82	C	1.612992	0.060951	0.605570
C83	C	1.112959	-0.373314	0.105565
C84	C	1.612959	0.126686	0.605565
N85	N	1.152210	-0.573067	0.079078
N86	N	1.652210	-0.073067	0.579078
N87	N	1.152247	-0.635511	0.079084
N88	N	1.652247	-0.135511	0.579084
C89	C	1.171484	-0.654253	0.144403
C90	C	1.671484	-0.154253	0.644403
N91	N	1.190699	-0.608189	0.209713
N92	N	1.690699	-0.108189	0.709713
N93	N	1.190666	-0.545738	0.209705
N94	N	1.690666	-0.045738	0.709705
C95	C	1.171418	-0.527477	0.144389
C96	C	1.671418	-0.027477	0.644389
C97	C	1.229906	-0.742671	0.183236
C98	C	1.729906	-0.242671	0.683236
C99	C	1.229932	-0.808408	0.183252
C100	C	1.729932	-0.308408	0.683252
C101	C	1.113189	-0.839854	0.105611
C102	C	1.613189	-0.339854	0.605611
C103	C	1.113160	-0.774117	0.105603
C104	C	1.613160	-0.274117	0.605603
C105	C	1.171523	-0.725529	0.144414
C106	C	1.671523	-0.225529	0.644414
C107	C	1.369477	-0.065713	0.104432
C108	C	1.869477	0.434287	0.604432
C109	C	1.453887	-0.054856	0.087404
C110	C	1.953887	0.445144	0.587404
C111	C	1.211504	-0.052786	0.342476
C112	C	1.711504	0.447214	0.842476
C113	C	1.228596	-0.036419	0.426888
C114	C	1.728596	0.463581	0.926888
C115	C	1.171526	0.073024	0.144422
C116	C	1.671526	0.573024	0.644422
C117	C	1.171581	0.143003	0.144436
C118	C	1.671581	0.643003	0.644436
C119	C	1.131488	-0.129398	-0.052932
C120	C	1.631488	0.370602	0.447068
C121	C	1.114544	-0.145568	-0.137374
C122	C	1.614544	0.354432	0.362626
C123	C	1.041845	-0.215147	0.753451
C124	C	1.541845	0.284853	1.253451
C125	C	1.057921	-0.199758	0.832766
C126	C	1.557921	0.300242	1.332766
C127	C	1.155110	-0.106744	0.813178
C128	C	1.655110	0.393256	1.313178
C129	C	1.139040	-0.122123	0.733860
C130	C	1.639040	0.377877	1.233860
C131	C	1.082407	-0.176326	0.704003
C132	C	1.582407	0.323674	1.204003
C133	C	1.179602	-0.083302	0.684412
C134	C	1.679602	0.416698	1.184412
C135	C	1.163535	-0.098682	0.605101
C136	C	1.663535	0.401318	1.105101
C137	C	1.106906	-0.152884	0.575238
C138	C	1.606906	0.347116	1.075238
C139	C	1.066340	-0.191706	0.624692
C140	C	1.566340	0.308294	1.124692
C141	C	1.236238	-0.029102	0.714270
C142	C	1.736238	0.470898	1.214270
C143	C	1.276800	0.009719	0.664822
C144	C	1.776800	0.509719	1.164822
C145	C	1.260729	-0.005659	0.585510
C146	C	1.760729	0.494341	1.085510
C147	C	1.204101	-0.059860	0.555647
C148	C	1.704101	0.440140	1.055647
C149	C	1.301296	0.033164	0.536056
C150	C	1.801296	0.533164	1.036056
C151	C	1.285229	0.017784	0.456745
C152	C	1.785229	0.517784	0.956745
C153	C	1.188034	-0.075240	0.476336
C154	C	1.688034	0.424760	0.976336
H155	H	0.805857	-0.041693	0.066781
H156	H	1.305857	0.458307	0.566781
F157	F	1.292071	-0.826648	0.224575
F158	F	1.792071	-0.326648	0.724575
H159	H	1.065482	-0.478619	0.073968
H160	H	1.565482	0.021381	0.573968
F161	F	1.291886	-0.425851	0.224513
F162	F	1.791886	0.074149	0.724513
F163	F	1.006059	-0.249391	0.592914
F164	F	1.506059	0.250609	1.092914
H165	H	1.318257	0.049396	0.416483
H166	H	1.818257	0.549396	0.916483
F167	F	0.594796	0.029747	-0.045223
F168	F	1.094796	0.529747	0.454777
F169	F	0.871974	-0.063279	0.100648
F170	F	1.371974	0.436721	0.600648
H171	H	1.277427	-0.703108	0.214841
H172	H	1.777427	-0.203108	0.714841
H173	H	0.627454	-0.187438	0.295288
H174	H	1.127454	0.312562	0.795288
F175	F	1.215383	-0.049061	0.844962
F176	F	1.715383	0.450939	1.344962
H177	H	0.479048	-0.110007	0.173873
H178	H	0.979048	0.389993	0.673873
F179	F	0.431083	0.008637	-0.012160
F180	F	0.931083	0.508637	0.487840
F181	F	1.089810	-0.169256	0.490826
F182	F	1.589810	0.330744	0.990826
H183	H	0.756232	-0.203032	0.319743
H184	H	1.256232	0.296968	0.819743
F185	F	0.981564	-0.272832	0.721673
F186	F	1.481564	0.227168	1.221673
F187	F	1.253339	-0.012736	0.798680
F188	F	1.753339	0.487264	1.298680
H189	H	0.900121	-0.184488	0.290691
H190	H	1.400121	0.315512	0.790691
H191	H	1.347411	0.077292	0.560376
H192	H	1.847411	0.577292	1.060376
H193	H	1.065413	-0.359360	0.073957
H194	H	1.565413	0.140640	0.573957
F195	F	1.051018	-0.755875	0.064290
F196	F	1.551018	-0.255875	0.564290
H197	H	1.322912	0.053849	0.689142
H198	H	1.822912	0.553849	1.189142
H199	H	1.065675	-0.879418	0.074012
H200	H	1.565675	-0.379418	0.574012
H201	H	0.716105	0.005154	-0.006639
H202	H	1.216105	0.505154	0.493361
H203	H	1.141900	-0.119365	0.452029
H204	H	1.641900	0.380635	0.952029
H205	H	1.277229	-0.302308	0.214794
H206	H	1.777229	0.197692	0.714794
F207	F	0.517885	-0.143173	0.225862
F208	F	1.017885	0.356827	0.725862
H209	H	1.024887	-0.231375	0.873025
H210	H	1.524887	0.268625	1.373025
