data_functionalizedCrystal
_audit_creation_method	'MofGen! by Chris Wilmer'
_symmetry_space_group_name_H-M	'P1'
_symmetry_Int_Tables_number	1
_symmetry_cell_setting	triclinic
loop_
_symmetry_equiv_pos_as_xyz
  x,y,z
_cell_length_a	17.699083
_cell_length_b	16.176319
_cell_length_c	17.699092
_cell_angle_alpha	89.994879
_cell_angle_beta	83.284691
_cell_angle_gamma	89.998611
loop_
_atom_site_label
_atom_site_type_symbol
_atom_site_fract_x
_atom_site_fract_y
_atom_site_fract_z
O1	O	1.004082	-0.068628	0.095713
O2	O	1.504082	0.431372	0.595713
O3	O	0.783704	-0.068654	0.108165
O4	O	1.283704	0.431346	0.608165
O5	O	0.900116	-0.068638	-0.008250
O6	O	1.400116	0.431362	0.491750
O7	O	0.887670	-0.068644	0.212128
O8	O	1.387670	0.431356	0.712128
O9	O	0.900100	0.068855	-0.008257
O10	O	1.400100	0.568855	0.491743
O11	O	0.783688	0.068839	0.108158
O12	O	1.283688	0.568839	0.608158
O13	O	1.004066	0.068866	0.095705
O14	O	1.504066	0.568866	0.595705
Cu15	Cu	0.893875	0.081406	0.101931
Cu16	Cu	1.393875	0.581406	0.601931
Cu17	Cu	0.893894	-0.081195	0.101940
Cu18	Cu	1.393894	0.418805	0.601940
O19	O	0.887654	0.068850	0.212120
O20	O	1.387654	0.568850	0.712120
C21	C	0.755499	0.000089	0.107715
C22	C	1.255499	0.500089	0.607715
C23	C	0.671480	0.000079	0.106377
C24	C	1.171480	0.500079	0.606377
C25	C	0.622862	0.000077	0.174710
C26	C	1.122862	0.500077	0.674710
C27	C	0.543918	0.000088	0.173448
C28	C	1.043918	0.500088	0.673448
C29	C	0.513595	0.000094	0.103851
C30	C	1.013595	0.500094	0.603851
C31	C	0.562220	0.000098	0.035513
C32	C	1.062220	0.500098	0.535513
C33	C	0.641162	0.000093	0.036776
C34	C	1.141162	0.500093	0.536776
C35	C	0.243857	0.000119	0.030418
C36	C	0.743857	0.500119	0.530418
C37	C	0.164909	0.000121	0.029160
C38	C	0.664909	0.500121	0.529160
C39	C	0.146613	0.000113	0.167089
C40	C	0.646613	0.500113	0.667089
C41	C	0.225555	0.000109	0.168352
C42	C	0.725555	0.500109	0.668352
C43	C	0.274173	0.000117	0.100014
C44	C	0.774173	0.500117	0.600014
C45	C	0.359772	0.000107	0.101384
C46	C	0.859772	0.500107	0.601384
C47	C	0.427998	0.000098	0.102481
C48	C	0.927998	0.500098	0.602481
C49	C	0.899661	0.000107	-0.036450
C50	C	1.399661	0.500107	0.463550
C51	C	0.898319	0.000103	-0.120468
C52	C	1.398319	0.500103	0.379532
C53	C	1.032271	0.000121	0.096155
C54	C	1.532271	0.500121	0.596155
C55	C	1.116289	0.000125	0.097494
C56	C	1.616289	0.500125	0.597494
N57	N	0.893867	0.195772	0.101924
N58	N	1.393867	0.695772	0.601924
N59	N	0.893908	-0.195560	0.101940
N60	N	1.393908	0.304440	0.601940
C61	C	0.945430	0.239043	0.050397
C62	C	1.445430	0.739043	0.550397
C63	C	0.945434	0.325590	0.050396
C64	C	1.445434	0.825590	0.550396
C65	C	0.893878	0.368864	0.101927
C66	C	1.393878	0.868864	0.601927
C67	C	0.842310	0.325587	0.153457
C68	C	1.342310	0.825587	0.653457
C69	C	0.842303	0.239041	0.153453
C70	C	1.342303	0.739041	0.653453
C71	C	0.842336	0.674615	0.153471
C72	C	1.342336	1.174615	0.653471
C73	C	0.842348	0.761167	0.153472
C74	C	1.342348	1.261167	0.653472
C75	C	0.945467	0.761164	0.050414
C76	C	1.445467	1.261164	0.550414
C77	C	0.945460	0.674618	0.050410
C78	C	1.445460	1.174618	0.550410
C79	C	0.893889	0.631349	0.101937
C80	C	1.393889	1.131349	0.601937
C81	C	0.893885	0.537504	0.101936
C82	C	1.393885	1.037504	0.601936
C83	C	0.893886	0.462707	0.101932
C84	C	1.393886	0.962707	0.601932
C85	C	0.897700	-0.074846	-0.159932
C86	C	1.397700	0.425154	0.340068
C87	C	0.896435	-0.074847	-0.238875
C88	C	1.396435	0.425153	0.261125
C89	C	0.895795	0.000102	-0.278353
C90	C	1.395795	0.500102	0.221647
C91	C	0.896412	0.075056	-0.238884
C92	C	1.396412	0.575056	0.261116
C93	C	0.897672	0.075056	-0.159942
C94	C	1.397672	0.575056	0.340058
C95	C	0.891332	0.075057	-0.557249
C96	C	1.391332	0.575057	-0.057249
C97	C	0.890075	0.075050	-0.636197
C98	C	1.390075	0.575050	-0.136197
C99	C	0.890095	-0.074846	-0.636182
C100	C	1.390095	0.425154	-0.136182
C101	C	0.891355	-0.074846	-0.557240
C102	C	1.391355	0.425154	-0.057240
C103	C	0.891968	0.000108	-0.517777
C104	C	1.391968	0.500108	-0.017777
C105	C	0.893338	0.000108	-0.432178
C106	C	1.393338	0.500108	0.067822
C107	C	0.894430	0.000102	-0.363952
C108	C	1.394430	0.500102	0.136048
C109	C	0.888109	0.000103	0.240321
C110	C	1.388109	0.500103	0.740321
C111	C	0.889450	0.000101	0.324339
C112	C	1.389450	0.500101	0.824339
H113	H	0.680748	0.000094	-0.018868
H114	H	1.180748	0.500094	0.481132
C115	C	0.890161	0.223231	-0.628285
C116	C	1.390161	0.723231	-0.128285
C117	C	0.889362	0.157440	-0.679593
C118	C	1.389362	0.657440	-0.179593
H119	H	0.889717	0.274090	-0.655077
H120	H	1.389717	0.774090	-0.155077
H121	H	0.934769	0.220128	-0.603347
H122	H	1.434769	0.720128	-0.103347
H123	H	0.846531	0.220098	-0.591641
H124	H	1.346531	0.720098	-0.091641
H125	H	0.932996	0.160570	-0.716234
H126	H	1.432996	0.660570	-0.216234
H127	H	0.844750	0.160544	-0.704544
H128	H	1.344750	0.660544	-0.204544
C129	C	0.086738	0.070812	-0.052274
C130	C	0.586738	0.570812	0.447726
C131	C	0.131574	0.000133	-0.047345
C132	C	0.631574	0.500133	0.452655
H133	H	0.066155	0.070813	-0.099500
H134	H	0.566155	0.570813	0.400500
H135	H	0.117155	0.118749	-0.048921
H136	H	0.617155	0.618749	0.451079
H137	H	0.046490	0.070797	-0.011751
H138	H	0.546490	0.570797	0.488249
H139	H	0.171827	0.000150	-0.087865
H140	H	0.671827	0.500150	0.412135
H141	H	0.101156	-0.047817	-0.050706
H142	H	0.601156	0.452183	0.449294
C143	C	0.735747	0.000054	0.237895
C144	C	1.235747	0.500054	0.737895
C145	C	0.656189	0.000064	0.251213
C146	C	1.156189	0.500064	0.751213
H147	H	0.756318	0.000042	0.285127
H148	H	1.256318	0.500042	0.785127
H149	H	0.752443	0.047999	0.209771
H150	H	1.252443	0.547999	0.709771
H151	H	0.752434	-0.047895	0.209765
H152	H	1.252434	0.452105	0.709765
H153	H	0.639502	0.048017	0.279338
H154	H	1.139502	0.548017	0.779338
H155	H	0.639487	-0.047886	0.279349
H156	H	1.139487	0.452114	0.779349
H157	H	0.283433	0.000126	-0.025227
H158	H	0.783433	0.500126	0.474773
H159	H	0.891847	0.136089	-0.525130
H160	H	1.391847	0.636089	-0.025130
H161	H	0.537525	0.000115	-0.021154
H162	H	1.037525	0.500115	0.478846
H163	H	0.889592	-0.135877	-0.668321
H164	H	1.389592	0.364123	-0.168321
H165	H	0.987416	0.203815	0.008437
H166	H	1.487416	0.703815	0.508437
C167	C	1.047385	0.316894	-0.051454
C168	C	1.547385	0.816894	0.448546
C169	C	1.002125	0.373154	-0.006233
C170	C	1.502125	0.873154	0.493767
H171	H	1.082389	0.346260	-0.086411
H172	H	1.582389	0.846260	0.413589
H173	H	1.015936	0.283152	-0.078651
H174	H	1.515936	0.783152	0.421349
H175	H	1.074533	0.283125	-0.019968
H176	H	1.574533	0.783125	0.480032
H177	H	0.974972	0.406919	-0.037719
H178	H	1.474972	0.906919	0.462281
H179	H	1.033578	0.406910	0.020965
H180	H	1.533578	0.906910	0.520965
C181	C	0.834033	0.162000	-0.062545
C182	C	1.334033	0.662000	0.437455
C183	C	0.898351	0.157440	-0.116557
C184	C	1.398351	0.657440	0.383443
H185	H	0.834448	0.212864	-0.035764
H186	H	1.334448	0.712864	0.464236
H187	H	0.834601	0.117366	-0.027744
H188	H	1.334601	0.617366	0.472256
H189	H	0.789430	0.158877	-0.087501
H190	H	1.289430	0.658877	0.412499
H191	H	0.942953	0.160557	-0.091600
H192	H	1.442953	0.660557	0.408400
H193	H	0.897790	0.202086	-0.151362
H194	H	1.397790	0.702086	0.348638
H195	H	0.895887	0.136080	-0.271033
H196	H	1.395887	0.636080	0.228967
C197	C	1.047386	0.683311	-0.051469
C198	C	1.547386	1.183311	0.448531
C199	C	1.002129	0.627052	-0.006237
C200	C	1.502129	1.127052	0.493763
H201	H	1.082367	0.653944	-0.086445
H202	H	1.582367	1.153944	0.413555
H203	H	1.074556	0.717055	-0.019998
H204	H	1.574556	1.217055	0.480002
H205	H	1.015928	0.717078	-0.078650
H206	H	1.515928	1.217078	0.421350
H207	H	1.033587	0.593289	0.020949
H208	H	1.533587	1.093289	0.520949
H209	H	0.974958	0.593294	-0.037712
H210	H	1.474958	1.093294	0.462288
H211	H	0.987456	0.796403	0.008455
H212	H	1.487456	1.296403	0.508455
C213	C	0.797654	0.647975	0.284553
C214	C	1.297654	1.147975	0.784553
C215	C	0.785657	0.627064	0.210118
C216	C	1.285657	1.127064	0.710118
H217	H	0.762664	0.618613	0.319527
H218	H	1.262664	1.118613	0.819527
H219	H	0.790285	0.705706	0.291919
H220	H	1.290285	1.205706	0.791919
H221	H	0.848150	0.633774	0.292698
H222	H	1.348150	1.133774	0.792698
H223	H	0.735163	0.641271	0.201972
H224	H	1.235163	1.141271	0.701972
H225	H	0.793020	0.569321	0.202749
H226	H	1.293020	1.069321	0.702749
C227	C	0.894508	-0.141409	-0.359880
C228	C	1.394508	0.358591	0.140120
C229	C	0.895756	-0.157232	-0.282254
C230	C	1.395756	0.342768	0.217746
H231	H	0.894083	-0.192274	-0.386658
H232	H	1.394083	0.307726	0.113342
H233	H	0.938412	-0.110612	-0.378669
H234	H	1.438412	0.389388	0.121331
H235	H	0.850174	-0.110621	-0.366957
H236	H	1.350174	0.389379	0.133043
H237	H	0.940093	-0.188015	-0.275176
H238	H	1.440093	0.311985	0.224824
H239	H	0.851847	-0.188043	-0.263459
H240	H	1.351847	0.311957	0.236541
H241	H	0.800362	0.796399	0.195436
H242	H	1.300362	1.296399	0.695436
H243	H	0.250239	0.000100	0.225025
H244	H	0.750239	0.500100	0.725025
H245	H	0.800315	0.203811	0.195411
H246	H	1.300315	0.703811	0.695411
H247	H	0.800328	0.360826	0.195412
H248	H	1.300328	0.860826	0.695412
C249	C	0.897585	-0.223017	-0.167853
C250	C	1.397585	0.276983	0.332147
C251	C	0.898401	-0.157233	-0.116540
C252	C	1.398401	0.342767	0.383460
H253	H	0.898011	-0.273879	-0.141064
H254	H	1.398011	0.226121	0.358936
H255	H	0.941210	-0.219895	-0.204493
H256	H	1.441210	0.280105	0.295507
H257	H	0.852972	-0.219895	-0.192793
H258	H	1.352972	0.280105	0.307207
H259	H	0.943017	-0.160350	-0.091604
H260	H	1.443017	0.339650	0.408396
H261	H	0.854772	-0.160356	-0.079887
H262	H	1.354772	0.339644	0.420113
C263	C	0.891239	-0.223019	-0.565154
C264	C	1.391239	0.276981	-0.065154
C265	C	0.892054	-0.157231	-0.513845
C266	C	1.392054	0.342769	-0.013845
H267	H	0.891663	-0.273880	-0.538362
H268	H	1.391663	0.226120	-0.038362
H269	H	0.934864	-0.219900	-0.601793
H270	H	1.434864	0.280100	-0.101793
H271	H	0.846626	-0.219898	-0.590096
H272	H	1.346626	0.280102	-0.090096
H273	H	0.936670	-0.160348	-0.488907
H274	H	1.436670	0.339652	0.011093
H275	H	0.848424	-0.160352	-0.477192
H276	H	1.348424	0.339648	0.022808
H277	H	0.107018	0.000111	0.222733
H278	H	0.607018	0.500111	0.722733
C279	C	0.533762	0.000068	0.309915
C280	C	1.033762	0.500068	0.809915
C281	C	0.490476	0.000083	0.248562
C282	C	0.990476	0.500083	0.748562
H283	H	0.500767	0.000060	0.356288
H284	H	1.000767	0.500060	0.856288
H285	H	0.564934	0.048009	0.307538
H286	H	1.064934	0.548009	0.807538
H287	H	0.564932	-0.047886	0.307531
H288	H	1.064932	0.452114	0.807531
H289	H	0.459310	0.048039	0.250942
H290	H	0.959310	0.548039	0.750942
H291	H	0.459291	-0.047863	0.250939
H292	H	0.959291	0.452137	0.750939
