data_functionalizedCrystal
_audit_creation_method	'MofGen! by Chris Wilmer'
_symmetry_space_group_name_H-M	'P1'
_symmetry_Int_Tables_number	1
_symmetry_cell_setting	triclinic
loop_
_symmetry_equiv_pos_as_xyz
  x,y,z
_cell_length_a	11.792241
_cell_length_b	12.784905
_cell_length_c	11.295483
_cell_angle_alpha	86.327249
_cell_angle_beta	85.871827
_cell_angle_gamma	101.349633
loop_
_atom_site_label
_atom_site_type_symbol
_atom_site_fract_x
_atom_site_fract_y
_atom_site_fract_z
O1	O	0.001239	1.417468	-0.099032
O2	O	-0.047340	1.108292	-0.099028
O3	O	0.142911	1.270383	-0.099037
O4	O	-0.189011	1.255377	-0.099023
O5	O	0.126224	1.256146	0.099014
O6	O	-0.064026	1.094056	0.099023
O7	O	-0.015448	1.403231	0.099020
Cu8	Cu	-0.041260	1.247343	0.117105
Cu9	Cu	-0.021527	1.264180	-0.117114
O10	O	-0.205698	1.241140	0.099029
C11	C	-0.058842	1.061593	-0.000002
C12	C	-0.068243	0.943653	-0.000002
C13	C	0.123283	0.746168	-0.000031
C14	C	0.114456	0.635353	-0.000031
C15	C	-0.094723	0.611209	-0.000009
C16	C	-0.085895	0.722024	-0.000009
C17	C	0.023111	0.789499	-0.000019
C18	C	0.031936	0.900315	-0.000011
C19	C	-0.177240	0.876169	0.000003
C20	C	-0.186067	0.765355	0.000004
C21	C	-0.239546	1.249201	0.000005
C22	C	-0.365264	1.252022	0.000010
C23	C	-0.595427	1.257212	-0.000020
C24	C	-0.467347	1.254328	-0.000004
C25	C	0.176759	1.262323	-0.000016
C26	C	0.302477	1.259502	-0.000029
C27	C	-0.003945	1.449931	-0.000009
C28	C	0.005456	1.567871	-0.000018
N29	N	-0.055139	1.235509	0.281842
N30	N	-0.007639	1.276023	-0.281851
C31	C	0.092328	1.361213	0.531125
C32	C	0.081832	1.352277	0.655789
C33	C	-0.086618	1.208697	0.655837
C34	C	-0.076123	1.217633	0.531173
C35	C	0.013352	1.293894	0.468821
C36	C	0.023841	1.302834	0.344154
C37	C	-0.144604	1.159250	0.344205
C38	C	-0.155099	1.150314	0.468869
H39	H	0.120695	0.955252	-0.000017
Br40	Br	0.271212	0.837744	-0.000023
H41	H	0.196026	0.600078	-0.000043
H42	H	-0.183468	0.556254	-0.000016
Br43	Br	-0.333996	0.673774	0.000005
Br44	Br	-0.276520	1.046816	0.553496
Br45	Br	-0.313199	0.934979	0.000046
Br46	Br	0.145265	1.406335	0.259535
H47	H	0.165175	1.423315	0.480357
H48	H	-0.159460	1.146600	0.706620
H49	H	0.146144	1.407093	0.706513
Br50	Br	-0.251800	1.067895	0.259639
