data_functionalizedCrystal
_audit_creation_method	'MofGen! by Chris Wilmer'
_symmetry_space_group_name_H-M	'P1'
_symmetry_Int_Tables_number	1
_symmetry_cell_setting	triclinic
loop_
_symmetry_equiv_pos_as_xyz
  x,y,z
_cell_length_a	14.908783
_cell_length_b	18.101397
_cell_length_c	14.908308
_cell_angle_alpha	86.737270
_cell_angle_beta	90.211273
_cell_angle_gamma	93.311144
loop_
_atom_site_label
_atom_site_type_symbol
_atom_site_fract_x
_atom_site_fract_y
_atom_site_fract_z
Zn1	Zn	1.345316	-0.259021	0.587809
Zn2	Zn	1.353897	-0.375344	0.437440
Zn3	Zn	1.203629	-0.258219	0.428781
Zn4	Zn	1.194922	-0.389525	0.579061
O5	O	1.274441	-0.320527	0.508273
O6	O	1.472282	-0.268852	0.575148
O7	O	1.341198	-0.353537	0.310469
O8	O	1.222476	-0.154692	0.449913
O9	O	1.478586	-0.354314	0.464672
O10	O	1.326573	-0.155281	0.566751
O11	O	1.230797	-0.267486	0.304107
O12	O	1.076646	-0.281237	0.441430
O13	O	1.207637	-0.378483	0.706044
O14	O	1.070249	-0.377706	0.551841
O15	O	1.318131	-0.282603	0.712472
O16	O	1.332756	-0.480859	0.456189
O17	O	1.215958	-0.491277	0.560237
C18	C	1.040822	-0.330924	0.494747
C19	C	0.940878	-0.335390	0.488982
C20	C	0.746495	-0.254930	0.593363
C21	C	0.652588	-0.259125	0.587949
C22	C	0.659156	-0.347969	0.472736
C23	C	0.753062	-0.343775	0.478150
C24	C	0.796728	-0.297255	0.538466
C25	C	0.890637	-0.293065	0.543884
C26	C	0.897203	-0.381905	0.428668
C27	C	0.803296	-0.386099	0.423254
C28	C	1.274366	-0.512939	0.508225
C29	C	1.274415	-0.595252	0.508239
C30	C	1.274525	-0.894341	0.508328
C31	C	1.347828	-0.856430	0.442666
C32	C	1.348058	-0.770809	0.442861
C33	C	1.274471	-0.745959	0.508283
C34	C	1.294687	-0.780566	0.604541
C35	C	1.295245	-0.866168	0.604193
C36	C	1.180774	-0.865875	0.478541
C37	C	1.181366	-0.780099	0.476452
C38	C	1.274438	-0.662101	0.508263
C39	C	1.274560	-0.978200	0.508354
C40	C	1.508972	-0.310091	0.521852
C41	C	1.608915	-0.305643	0.527639
C42	C	1.260955	-0.332214	0.742795
C43	C	1.255209	-0.337194	0.842734
C44	C	1.274539	-0.127364	0.508342
C45	C	1.274581	-0.045049	0.508372
C46	C	1.287925	-0.308830	0.274667
C47	C	1.293846	-0.303633	0.174738
C48	C	1.359465	-0.246695	1.037224
C49	C	1.354068	-0.251372	1.131126
C50	C	1.239015	-0.351221	1.124441
C51	C	1.244412	-0.346544	1.030539
C52	C	1.304639	-0.294280	0.986934
C53	C	1.310040	-0.289607	0.893031
C54	C	1.194983	-0.389452	0.886347
C55	C	1.189586	-0.394129	0.980249
H56	H	0.782048	-0.217055	0.642478
H57	H	1.398710	-0.212621	1.172069
H58	H	0.611691	-0.224658	0.632649
C59	C	1.387600	-0.890288	0.637403
H60	H	1.388754	-0.942713	0.637486
H61	H	1.433207	-0.868164	0.598604
H62	H	1.397809	-0.874875	0.696619
H63	H	0.767731	-0.423972	0.374144
H64	H	1.336020	-0.874252	0.371265
H65	H	1.150343	-0.428201	0.845390
H66	H	1.417614	-0.747929	0.463004
H67	H	1.189980	-0.393771	1.159960
C68	C	1.107077	-0.899792	0.543046
H69	H	1.050585	-0.882381	0.524707
H70	H	1.105062	-0.952280	0.541936
H71	H	1.120119	-0.885627	0.602294
H72	H	1.140549	-0.436679	1.015765
H73	H	0.926188	-0.255186	0.592997
H74	H	0.623587	-0.385835	0.423620
H75	H	0.938113	-0.416375	0.383974
H76	H	1.166023	-0.757212	0.405587
H77	H	1.336044	-0.747046	0.371659
C78	C	1.441290	-0.882273	0.469600
H79	H	1.435833	-0.916065	0.520690
H80	H	1.466282	-0.906065	0.421132
H81	H	1.479412	-0.840629	0.483616
C82	C	1.376280	-0.232116	0.845066
H83	H	1.408151	-0.204440	0.888469
H84	H	1.417555	-0.256868	0.810690
H85	H	1.343992	-0.199556	0.806458
H86	H	1.243894	-0.891733	0.655099
H87	H	1.124254	-0.763492	0.520334
C88	C	1.224455	-0.759610	0.672734
H89	H	1.182081	-0.729494	0.643036
H90	H	1.194328	-0.803376	0.698494
H91	H	1.253631	-0.733016	0.718738
C92	C	1.385997	-0.748841	0.638150
H93	H	1.397639	-0.770134	0.696448
H94	H	1.432043	-0.760240	0.598175
H95	H	1.384645	-0.696586	0.640563
C96	C	1.154502	-0.891941	0.384972
H97	H	1.200471	-0.920431	0.363196
H98	H	1.099711	-0.921435	0.389119
H99	H	1.147141	-0.850033	0.344867
H100	H	1.408509	-0.204143	1.001721
