data_functionalizedCrystal
_audit_creation_method	'MofGen! by Chris Wilmer'
_symmetry_space_group_name_H-M	'P1'
_symmetry_Int_Tables_number	1
_symmetry_cell_setting	triclinic
loop_
_symmetry_equiv_pos_as_xyz
  x,y,z
_cell_length_a	19.805407
_cell_length_b	12.827892
_cell_length_c	19.805398
_cell_angle_alpha	89.976448
_cell_angle_beta	89.986879
_cell_angle_gamma	90.015392
loop_
_atom_site_label
_atom_site_type_symbol
_atom_site_fract_x
_atom_site_fract_y
_atom_site_fract_z
Zn1	Zn	1.034744	-0.416047	-0.382743
Zn2	Zn	1.534744	0.083953	0.117257
Zn3	Zn	1.034694	-0.590805	-0.269565
Zn4	Zn	1.534694	-0.090805	0.230435
Zn5	Zn	0.921572	-0.416079	-0.269568
Zn6	Zn	1.421572	0.083921	0.230432
Zn7	Zn	0.921544	-0.590746	-0.382712
Zn8	Zn	1.421544	-0.090746	0.117288
O9	O	0.978139	-0.503419	-0.326147
O10	O	1.478139	-0.003419	0.173853
O11	O	1.129454	-0.439240	-0.367742
O12	O	1.629454	0.060760	0.132258
O13	O	1.019678	-0.567665	-0.174849
O14	O	1.519678	-0.067665	0.325151
O15	O	0.936617	-0.269838	-0.284595
O16	O	1.436617	0.230162	0.215405
O17	O	1.129417	-0.567634	-0.284590
O18	O	1.629417	-0.067634	0.215410
O19	O	1.019765	-0.269815	-0.367745
O20	O	1.519765	0.230185	0.132255
O21	O	0.936568	-0.439294	-0.174851
O22	O	1.436568	0.060706	0.325149
O23	O	0.826852	-0.439238	-0.284565
O24	O	1.326852	0.060762	0.215435
O25	O	0.936570	-0.567534	-0.477433
O26	O	1.436570	-0.067534	0.022567
O27	O	0.826831	-0.567565	-0.367691
O28	O	1.326831	-0.067565	0.132309
O29	O	1.019738	-0.439183	-0.477456
O30	O	1.519738	0.060817	0.022544
O31	O	1.019652	-0.737033	-0.284560
O32	O	1.519652	-0.237033	0.215440
O33	O	0.936521	-0.736990	-0.367688
O34	O	1.436521	-0.236990	0.132312
C35	C	0.802283	-0.503399	-0.326125
C36	C	1.302283	-0.003399	0.173875
C37	C	0.727051	-0.503416	-0.326132
C38	C	1.227051	-0.003416	0.173868
C39	C	0.691714	-0.570337	-0.369346
C40	C	1.191714	-0.070337	0.130654
C41	C	0.621025	-0.570338	-0.369355
C42	C	1.121025	-0.070338	0.130645
C43	C	0.585675	-0.503424	-0.326147
C44	C	1.085675	-0.003424	0.173853
C45	C	0.621017	-0.436496	-0.282931
C46	C	1.121017	0.063504	0.217069
C47	C	0.691704	-0.436489	-0.282926
C48	C	1.191704	0.063511	0.217074
C49	C	0.335944	-0.436519	-0.282954
C50	C	0.835944	0.063481	0.217046
C51	C	0.265251	-0.436533	-0.282961
C52	C	0.765251	0.063467	0.217039
C53	C	0.265265	-0.570368	-0.369383
C54	C	0.765265	-0.070368	0.130617
C55	C	0.335952	-0.570362	-0.369378
C56	C	0.835952	-0.070362	0.130622
C57	C	0.371288	-0.503430	-0.326165
C58	C	0.871288	-0.003430	0.173835
C59	C	0.447936	-0.503427	-0.326156
C60	C	0.947936	-0.003427	0.173844
C61	C	0.509028	-0.503431	-0.326152
C62	C	1.009028	-0.003431	0.173848
C63	C	0.978096	-0.774929	-0.326135
C64	C	1.478096	-0.274929	0.173865
C65	C	0.978140	-0.891082	-0.326153
C66	C	1.478140	-0.391082	0.173847
C67	C	1.019324	-0.942854	-0.285064
C68	C	1.519324	-0.442854	0.214936
C69	C	1.019371	-1.062904	-0.285081
C70	C	1.519371	-0.562904	0.214919
C71	C	1.154681	-0.503440	-0.326169
C72	C	1.654681	-0.003440	0.173831
C73	C	1.229913	-0.503449	-0.326179
C74	C	1.729913	-0.003449	0.173821
C75	C	0.978157	-0.503349	-0.502690
C76	C	1.478157	-0.003349	-0.002690
C77	C	0.978164	-0.503318	-0.577922
C78	C	1.478164	-0.003318	-0.077922
C79	C	0.978200	-0.230849	-0.326174
C80	C	1.478200	0.269151	0.173826
C81	C	0.978225	-0.114696	-0.326185
C82	C	1.478225	0.385304	0.173815
C83	C	1.021547	-0.569995	-1.039710
C84	C	1.521547	-0.069995	-0.539710
C85	C	1.021528	-0.570023	-0.969021
C86	C	1.521528	-0.070023	-0.469021
C87	C	0.978248	-0.503201	-0.933684
C88	C	1.478248	-0.003201	-0.433684
C89	C	0.934980	-0.436353	-0.969039
C90	C	1.434980	0.063647	-0.469039
C91	C	0.934996	-0.436330	-1.039726
C92	C	1.434996	0.063670	-0.539726
C93	C	0.934915	-0.436442	-0.683965
C94	C	1.434915	0.063558	-0.183965
C95	C	0.934904	-0.436467	-0.613273
C96	C	1.434904	0.063533	-0.113273
C97	C	1.021447	-0.570135	-0.613261
C98	C	1.521447	-0.070135	-0.113261
C99	C	1.021463	-0.570113	-0.683948
C100	C	1.521463	-0.070113	-0.183948
C101	C	0.978192	-0.503269	-0.719296
C102	C	1.478192	-0.003269	-0.219296
C103	C	0.978212	-0.503241	-0.795945
C104	C	1.478212	-0.003241	-0.295945
C105	C	0.978231	-0.503223	-0.857037
C106	C	1.478231	-0.003223	-0.357037
C107	C	0.978160	-0.503414	-0.150291
C108	C	1.478160	-0.003414	0.349709
C109	C	0.978283	-0.503150	-0.075060
C110	C	1.478283	-0.003150	0.424940
H111	H	0.592257	-0.624833	-0.404544
H112	H	1.092257	-0.124833	0.095456
H113	H	1.054553	-0.898303	-0.249875
H114	H	1.554553	-0.398303	0.250125
H115	H	0.899738	-0.381949	-0.940261
H116	H	1.399738	0.118051	-0.440261
H117	H	1.054628	-1.107426	-0.249901
H118	H	1.554628	-0.607426	0.250099
H119	H	1.056678	-0.624566	-0.584471
H120	H	1.556678	-0.124566	-0.084471
F121	F	0.888951	-0.365181	-1.077347
F122	F	1.388951	0.134819	-0.577347
H123	H	0.899658	-0.382049	-0.584503
H124	H	1.399658	0.117951	-0.084503
F125	F	0.932100	-0.949311	-0.372154
F126	F	1.432100	-0.449311	0.127846
H127	H	0.720474	-0.381990	-0.247740
H128	H	1.220474	0.118010	0.252260
F129	F	0.227631	-0.365308	-0.236972
F130	F	0.727631	0.134692	0.263028
H131	H	0.236486	-0.624863	-0.404572
H132	H	0.736486	-0.124863	0.095428
F133	F	0.373570	-0.641585	-0.415363
F134	F	0.873570	-0.141585	0.084637
F135	F	0.729330	-0.641563	-0.415331
F136	F	1.229330	-0.141563	0.084669
F137	F	0.373541	-0.365282	-0.236964
F138	F	0.873541	0.134718	0.263036
H139	H	0.592229	-0.382008	-0.247753
H140	H	1.092229	0.117992	0.252247
H141	H	0.942961	-1.070181	-0.361363
H142	H	1.442961	-0.570181	0.138637
H143	H	1.056793	-0.624405	-1.068476
H144	H	1.556793	-0.124405	-0.568476
H145	H	1.056749	-0.624468	-0.940242
H146	H	1.556749	-0.124468	-0.440242
H147	H	1.056707	-0.624523	-0.712716
H148	H	1.556707	-0.124523	-0.212716
F149	F	0.888838	-0.365338	-0.721577
F150	F	1.388838	0.134662	-0.221577
