data_functionalizedCrystal
_audit_creation_method	'MofGen! by Chris Wilmer'
_symmetry_space_group_name_H-M	'P1'
_symmetry_Int_Tables_number	1
_symmetry_cell_setting	triclinic
loop_
_symmetry_equiv_pos_as_xyz
  x,y,z
_cell_length_a	18.101395
_cell_length_b	18.101398
_cell_length_c	16.120256
_cell_angle_alpha	92.887765
_cell_angle_beta	92.874436
_cell_angle_gamma	90.026661
loop_
_atom_site_label
_atom_site_type_symbol
_atom_site_fract_x
_atom_site_fract_y
_atom_site_fract_z
Zn1	Zn	-0.316171	1.110900	-0.471191
Zn2	Zn	-0.066171	1.360900	-0.221191
Zn3	Zn	0.183829	1.610900	0.028809
Zn4	Zn	0.433829	1.860900	0.278809
Zn5	Zn	-0.433731	1.117074	-0.331781
Zn6	Zn	-0.183731	1.367074	-0.081781
Zn7	Zn	0.066269	1.617074	0.168219
Zn8	Zn	0.316269	1.867074	0.418219
Zn9	Zn	-0.309900	0.993336	-0.331815
Zn10	Zn	-0.059900	1.243336	-0.081815
Zn11	Zn	0.190100	1.493336	0.168185
Zn12	Zn	0.440100	1.743336	0.418185
Zn13	Zn	-0.439965	0.987010	-0.471171
Zn14	Zn	-0.189965	1.237010	-0.221171
Zn15	Zn	0.060035	1.487010	0.028829
Zn16	Zn	0.310035	1.737010	0.278829
O17	O	-0.374942	1.052080	-0.401489
O18	O	-0.124942	1.302080	-0.151489
O19	O	0.125058	1.552080	0.098511
O20	O	0.375058	1.802080	0.348511
O21	O	-0.331781	1.215352	-0.452692
O22	O	-0.081781	1.465352	-0.202692
O23	O	0.168219	1.715352	0.047308
O24	O	0.418219	1.965352	0.297308
O25	O	-0.412072	1.105891	-0.215121
O26	O	-0.162072	1.355891	0.034879
O27	O	0.087928	1.605891	0.284879
O28	O	0.337928	1.855891	0.534879
O29	O	-0.207100	1.008994	-0.350327
O30	O	0.042900	1.258994	-0.100327
O31	O	0.292900	1.508994	0.149673
O32	O	0.542900	1.758994	0.399673
O33	O	-0.418152	1.219888	-0.350268
O34	O	-0.168152	1.469888	-0.100268
O35	O	0.081848	1.719888	0.149732
O36	O	0.331848	1.969888	0.399732
O37	O	-0.211707	1.095368	-0.452725
O38	O	0.038293	1.345368	-0.202725
O39	O	0.288293	1.595368	0.047275
O40	O	0.538293	1.845368	0.297275
O41	O	-0.321094	1.014981	-0.215146
O42	O	-0.071094	1.264981	0.034854
O43	O	0.178906	1.514981	0.284854
O44	O	0.428906	1.764981	0.534854
O45	O	-0.327138	0.888863	-0.350307
O46	O	-0.077138	1.138863	-0.100307
O47	O	0.172862	1.388863	0.149693
O48	O	0.422862	1.638863	0.399693
O49	O	-0.428776	0.998213	-0.587838
O50	O	-0.178776	1.248213	-0.337838
O51	O	0.071224	1.498213	-0.087838
O52	O	0.321224	1.748213	0.162162
O53	O	-0.422696	0.884216	-0.452691
O54	O	-0.172696	1.134216	-0.202691
O55	O	0.077304	1.384216	0.047309
O56	O	0.327304	1.634216	0.297309
O57	O	-0.337825	1.089234	-0.587853
O58	O	-0.087825	1.339234	-0.337853
O59	O	0.162175	1.589234	-0.087853
O60	O	0.412175	1.839234	0.162147
O61	O	-0.538190	1.099758	-0.350248
O62	O	-0.288190	1.349758	-0.100248
O63	O	-0.038190	1.599758	0.149752
O64	O	0.211810	1.849758	0.399752
O65	O	-0.542770	1.004200	-0.452657
O66	O	-0.292770	1.254200	-0.202657
O67	O	-0.042770	1.504200	0.047343
O68	O	0.207230	1.754200	0.297343
C69	C	-0.374913	0.859669	-0.401501
C70	C	-0.124913	1.109669	-0.151501
C71	C	0.125087	1.359669	0.098499
C72	C	0.375087	1.609669	0.348499
C73	C	-0.374920	0.777354	-0.401526
C74	C	-0.124920	1.027354	-0.151526
C75	C	0.125080	1.277354	0.098474
C76	C	0.375080	1.527354	0.348474
C77	C	-0.374962	0.478264	-0.401491
C78	C	-0.124962	0.728264	-0.151491
C79	C	0.125038	0.978264	0.098509
C80	C	0.375038	1.228264	0.348509
C81	C	-0.435346	0.506704	-0.465590
C82	C	-0.185346	0.756704	-0.215590
C83	C	0.064654	1.006704	0.034410
C84	C	0.314654	1.256704	0.284410
C85	C	-0.435178	0.592311	-0.465853
C86	C	-0.185178	0.842311	-0.215853
C87	C	0.064822	1.092311	0.034147
C88	C	0.314822	1.342311	0.284147
C89	C	-0.374941	0.626646	-0.401508
C90	C	-0.124941	0.876646	-0.151508
C91	C	0.125059	1.126646	0.098492
C92	C	0.375059	1.376646	0.348492
C93	C	-0.298022	0.594510	-0.425515
C94	C	-0.048022	0.844510	-0.175515
C95	C	0.201978	1.094510	0.074485
C96	C	0.451978	1.344510	0.324485
C97	C	-0.298388	0.508845	-0.425971
C98	C	-0.048388	0.758845	-0.175971
C99	C	0.201612	1.008845	0.074029
C100	C	0.451612	1.258845	0.324029
C101	C	-0.390802	0.513787	-0.313230
C102	C	-0.140802	0.763787	-0.063230
C103	C	0.109198	1.013787	0.186770
C104	C	0.359198	1.263787	0.436770
C105	C	-0.392535	0.599415	-0.313702
C106	C	-0.142535	0.849415	-0.063702
C107	C	0.107465	1.099415	0.186298
C108	C	0.357465	1.349415	0.436298
C109	C	-0.374925	0.710505	-0.401517
C110	C	-0.124925	0.960505	-0.151517
C111	C	0.125075	1.210505	0.098483
C112	C	0.375075	1.460505	0.348483
C113	C	-0.374973	0.394405	-0.401485
C114	C	-0.124973	0.644405	-0.151485
C115	C	0.125027	0.894405	0.098515
C116	C	0.375027	1.144405	0.348515
C117	C	-0.567351	1.051982	-0.401465
C118	C	-0.317351	1.301982	-0.151465
C119	C	-0.067351	1.551982	0.098535
C120	C	0.182649	1.801982	0.348535
C121	C	-0.649666	1.052006	-0.401482
C122	C	-0.399666	1.302006	-0.151482
C123	C	-0.149666	1.552006	0.098518
C124	C	0.100334	1.802006	0.348518
C125	C	-0.948759	1.052167	-0.401527
C126	C	-0.698759	1.302167	-0.151527
C127	C	-0.448759	1.552167	0.098473
C128	C	-0.198759	1.802167	0.348473
C129	C	-0.920353	0.992170	-0.466120
C130	C	-0.670353	1.242170	-0.216120
C131	C	-0.420353	1.492170	0.033880
C132	C	-0.170353	1.742170	0.283880
C133	C	-0.834726	0.991908	-0.465918
C134	C	-0.584726	1.241908	-0.215918
C135	C	-0.334726	1.491908	0.034082
C136	C	-0.084726	1.741908	0.284082
C137	C	-0.800376	1.052087	-0.401505
C138	C	-0.550376	1.302087	-0.151505
C139	C	-0.300376	1.552087	0.098495
C140	C	-0.050376	1.802087	0.348495
C141	C	-0.827562	1.034915	-0.313645
C142	C	-0.577562	1.284915	-0.063645
C143	C	-0.327562	1.534915	0.186355
C144	C	-0.077562	1.784915	0.436355
C145	C	-0.913225	1.034530	-0.314032
C146	C	-0.663225	1.284530	-0.064032
C147	C	-0.413225	1.534530	0.185968
C148	C	-0.163225	1.784530	0.435968
C149	C	-0.918123	1.129496	-0.424021
C150	C	-0.668123	1.379496	-0.174021
C151	C	-0.418123	1.629496	0.075979
C152	C	-0.168123	1.879496	0.325979
C153	C	-0.832559	1.128948	-0.425948
C154	C	-0.582559	1.378948	-0.175948
C155	C	-0.332559	1.628948	0.074052
C156	C	-0.082559	1.878948	0.324052
C157	C	-0.716515	1.052044	-0.401488
C158	C	-0.466515	1.302044	-0.151488
C159	C	-0.216515	1.552044	0.098512
C160	C	0.033485	1.802044	0.348512
C161	C	-1.032619	1.052209	-0.401539
C162	C	-0.782619	1.302209	-0.151539
C163	C	-0.532619	1.552209	0.098461
C164	C	-0.282619	1.802209	0.348461
C165	C	-0.181782	1.052198	-0.401532
C166	C	0.068218	1.302198	-0.151532
C167	C	0.318218	1.552198	0.098468
C168	C	0.568218	1.802198	0.348468
C169	C	-0.099468	1.052248	-0.401550
C170	C	0.150532	1.302248	-0.151550
C171	C	0.400532	1.552248	0.098450
C172	C	0.650532	1.802248	0.348450
C173	C	-0.384695	1.042329	-0.618941
C174	C	-0.134695	1.292329	-0.368941
C175	C	0.115305	1.542329	-0.118941
C176	C	0.365305	1.792329	0.131059
C177	C	-0.388852	1.038174	-0.711605
C178	C	-0.138852	1.288174	-0.461605
C179	C	0.111148	1.538174	-0.211605
C180	C	0.361148	1.788174	0.038395
C181	C	-0.374971	1.245242	-0.401478
C182	C	-0.124971	1.495242	-0.151478
C183	C	0.125029	1.745242	0.098522
C184	C	0.375029	1.995242	0.348522
C185	C	-0.374983	1.327556	-0.401473
C186	C	-0.124983	1.577556	-0.151473
C187	C	0.125017	1.827556	0.098527
C188	C	0.375017	2.077556	0.348527
C189	C	-0.353247	1.073747	-0.922560
C190	C	-0.103247	1.323747	-0.672560
C191	C	0.146753	1.573747	-0.422560
C192	C	0.396753	1.823747	-0.172560
C193	C	-0.396410	1.030563	-0.881260
C194	C	-0.146410	1.280563	-0.631260
C195	C	0.103590	1.530563	-0.381260
C196	C	0.353590	1.780563	-0.131260
C197	C	-0.392203	1.034799	-0.786855
C198	C	-0.142203	1.284799	-0.536855
C199	C	0.107797	1.534799	-0.286855
C200	C	0.357797	1.784799	-0.036855
C201	C	-0.357453	1.069512	-1.016973
C202	C	-0.107453	1.319512	-0.766973
C203	C	0.142547	1.569512	-0.516973
C204	C	0.392547	1.819512	-0.266973
C205	C	-0.365173	1.061835	-0.184884
C206	C	-0.115173	1.311835	0.065116
C207	C	0.134827	1.561835	0.315116
C208	C	0.384827	1.811835	0.565116
C209	C	-0.360807	1.066134	-0.092220
C210	C	-0.110807	1.316134	0.157780
C211	C	0.139193	1.566134	0.407780
C212	C	0.389193	1.816134	0.657780
H213	H	-0.492343	0.613984	-0.450807
H214	H	-0.242343	0.863984	-0.200807
H215	H	0.007657	1.113984	0.049193
H216	H	0.257657	1.363984	0.299193
H217	H	-0.449116	0.620535	-0.295595
H218	H	-0.199116	0.870535	-0.045595
H219	H	0.050884	1.120535	0.204405
H220	H	0.300884	1.370535	0.454405
H221	H	-0.351430	0.623082	-0.263378
H222	H	-0.101430	0.873082	-0.013378
H223	H	0.148570	1.123082	0.236622
H224	H	0.398570	1.373082	0.486622
Cl225	Cl	-0.291312	1.135727	-0.867689
Cl226	Cl	-0.041312	1.385727	-0.617689
Cl227	Cl	0.208688	1.635727	-0.367689
Cl228	Cl	0.458688	1.885727	-0.117689
H229	H	-0.436517	0.990406	-0.916802
H230	H	-0.186517	1.240406	-0.666802
H231	H	0.063483	1.490406	-0.416802
H232	H	0.313483	1.740406	-0.166802
Cl233	Cl	-0.942839	0.947439	-0.284612
Cl234	Cl	-0.692839	1.197439	-0.034612
Cl235	Cl	-0.442839	1.447439	0.215388
Cl236	Cl	-0.192839	1.697439	0.465388
Cl237	Cl	-0.322823	0.485828	-0.239491
Cl238	Cl	-0.072823	0.735828	0.010509
Cl239	Cl	0.177177	0.985828	0.260509
Cl240	Cl	0.427177	1.235828	0.510509
H241	H	-0.492707	0.486759	-0.450712
H242	H	-0.242707	0.736759	-0.200712
H243	H	0.007293	0.986759	0.049288
H244	H	0.257293	1.236759	0.299288
Cl245	Cl	-0.419899	0.468958	-0.565970
Cl246	Cl	-0.169899	0.718958	-0.315970
Cl247	Cl	0.080101	0.968958	-0.065970
Cl248	Cl	0.330101	1.218958	0.184030
H249	H	-0.251984	0.616912	-0.380285
H250	H	-0.001984	0.866912	-0.130285
H251	H	0.248016	1.116912	0.119715
H252	H	0.498016	1.366912	0.369715
Cl253	Cl	-0.955777	1.154858	-0.521250
Cl254	Cl	-0.705777	1.404858	-0.271250
Cl255	Cl	-0.455777	1.654858	-0.021250
Cl256	Cl	-0.205777	1.904858	0.228750
Cl257	Cl	-0.806740	1.007784	-0.566502
Cl258	Cl	-0.556740	1.257784	-0.316502
Cl259	Cl	-0.306740	1.507784	-0.066502
Cl260	Cl	-0.056740	1.757784	0.183498
Cl261	Cl	-0.793195	0.948782	-0.283695
Cl262	Cl	-0.543195	1.198782	-0.033695
Cl263	Cl	-0.293195	1.448782	0.216305
Cl264	Cl	-0.043195	1.698782	0.466305
H265	H	-0.284486	0.485978	-0.490494
H266	H	-0.034486	0.735978	-0.240494
H267	H	0.215514	0.985978	0.009506
H268	H	0.465514	1.235978	0.259506
Cl269	Cl	-0.419483	0.619423	-0.566819
Cl270	Cl	-0.169483	0.869423	-0.316819
Cl271	Cl	0.080517	1.119423	-0.066819
Cl272	Cl	0.330517	1.369423	0.183181
H273	H	-0.804965	1.077414	-0.264207
H274	H	-0.554965	1.327414	-0.014207
H275	H	-0.304965	1.577414	0.235793
H276	H	-0.054965	1.827414	0.485793
H277	H	-0.252006	0.490129	-0.381425
H278	H	-0.002006	0.740129	-0.131425
H279	H	0.247994	0.990129	0.118575
H280	H	0.497994	1.240129	0.368575
Cl281	Cl	-0.276039	0.623208	-0.524052
Cl282	Cl	-0.026039	0.873208	-0.274052
Cl283	Cl	0.223961	1.123208	-0.024052
Cl284	Cl	0.473961	1.373208	0.225948
Cl285	Cl	-0.941754	1.099392	-0.237189
Cl286	Cl	-0.691754	1.349392	0.012811
Cl287	Cl	-0.441754	1.599392	0.262811
Cl288	Cl	-0.191754	1.849392	0.512811
H289	H	-0.445724	0.493156	-0.291412
H290	H	-0.195724	0.743156	-0.041412
H291	H	0.054276	0.993156	0.208588
H292	H	0.304276	1.243156	0.458588
H293	H	-0.943850	1.002315	-0.531479
H294	H	-0.693850	1.252315	-0.281479
H295	H	-0.443850	1.502315	-0.031479
H296	H	-0.193850	1.752315	0.218521
H297	H	-0.815114	1.141970	-0.490608
H298	H	-0.565114	1.391970	-0.240608
H299	H	-0.315114	1.641970	0.009392
H300	H	-0.065114	1.891970	0.259392
H301	H	-0.809183	1.175696	-0.382329
H302	H	-0.559183	1.425696	-0.132329
H303	H	-0.309183	1.675696	0.117671
H304	H	-0.059183	1.925696	0.367671
H305	H	-0.941272	0.935117	-0.451409
H306	H	-0.691272	1.185117	-0.201409
H307	H	-0.441272	1.435117	0.048591
H308	H	-0.191272	1.685117	0.298591
H309	H	-0.813626	0.934510	-0.451019
H310	H	-0.563626	1.184510	-0.201019
H311	H	-0.313626	1.434510	0.048981
H312	H	-0.063626	1.684510	0.298981
Cl313	Cl	-0.946132	1.198437	-0.351400
Cl314	Cl	-0.696132	1.448437	-0.101400
Cl315	Cl	-0.446132	1.698437	0.148600
Cl316	Cl	-0.196132	1.948437	0.398600
