data_functionalizedCrystal
_audit_creation_method	'MofGen! by Chris Wilmer'
_symmetry_space_group_name_H-M	'P1'
_symmetry_Int_Tables_number	1
_symmetry_cell_setting	triclinic
loop_
_symmetry_equiv_pos_as_xyz
  x,y,z
_cell_length_a	31.640172
_cell_length_b	20.875641
_cell_length_c	31.640172
_cell_angle_alpha	57.596942
_cell_angle_beta	90.008445
_cell_angle_gamma	62.438275
loop_
_atom_site_label
_atom_site_type_symbol
_atom_site_fract_x
_atom_site_fract_y
_atom_site_fract_z
Zr1	Zr	0.424159	0.702015	-0.072373
O2	O	0.359904	0.835832	-0.143098
O3	O	0.441612	0.568197	-0.048450
O4	O	0.444847	0.701998	-0.139851
O5	O	0.356671	0.702045	0.017852
O6	O	0.514403	0.701984	-0.139842
O7	O	0.356670	0.702031	-0.051696
O8	O	0.508617	0.462639	0.023659
O9	O	0.362457	0.941390	-0.145649
O10	O	0.503676	0.623228	-0.040949
O11	O	0.451768	0.623248	0.010946
O12	O	0.455576	0.780781	-0.096667
O13	O	0.403668	0.780801	-0.044771
Zr14	Zr	0.535096	0.702015	0.038563
Zr15	Zr	0.535094	0.701993	-0.072358
Zr16	Zr	0.424161	0.702036	0.038548
Zr17	Zr	0.428230	0.870367	-0.076442
Zr18	Zr	0.531024	0.533662	0.042632
O19	O	0.517643	0.835832	0.014639
O20	O	0.517640	0.835802	-0.143076
O21	O	0.359907	0.835862	0.014617
O22	O	0.599350	0.568197	0.109287
O23	O	0.599347	0.568167	-0.048428
O24	O	0.441615	0.568227	0.109265
O25	O	0.602584	0.701984	-0.051662
O26	O	0.514408	0.702031	0.106041
O27	O	0.444851	0.702045	0.106031
O28	O	0.602585	0.701998	0.017886
O29	O	0.450636	0.941373	-0.145637
O30	O	0.508619	0.462656	0.111826
O31	O	0.596797	0.462639	0.111838
O32	O	0.596796	0.462622	0.023671
O33	O	0.362459	0.941407	-0.057482
O34	O	0.450637	0.941390	-0.057470
O35	O	0.503678	0.623248	0.062856
O36	O	0.555587	0.623228	0.010961
O37	O	0.507487	0.780781	-0.044757
O38	O	0.455578	0.780801	0.007139
C39	C	0.474535	0.491432	-0.011816
C40	C	0.472806	0.419962	-0.010088
C41	C	0.499088	0.386375	-0.036366
C42	C	0.497466	0.319216	-0.034738
C43	C	0.469557	0.285651	-0.006835
C44	C	0.443274	0.319241	0.019446
C45	C	0.444900	0.386393	0.017821
C46	C	0.461792	0.084810	0.000933
C47	C	0.460166	0.017654	0.002555
C48	C	0.514359	0.017634	-0.051628
C49	C	0.515980	0.084791	-0.053253
C50	C	0.489699	0.118372	-0.026970
N51	N	0.467897	0.217006	-0.005172
N52	N	0.491363	0.187011	-0.028631
C53	C	0.340865	0.702041	-0.016924
C54	C	0.293770	0.702050	-0.016931
C55	C	0.026871	0.619765	0.012190
C56	C	-0.150115	0.619749	0.012200
O57	O	-0.151648	0.549806	0.036954
N58	N	-0.197352	0.701990	-0.016885
C59	C	-0.200343	0.784240	-0.045972
O60	O	-0.244582	0.854190	-0.070705
C61	C	-0.023358	0.784255	-0.045979
C62	C	0.023879	0.702009	-0.016896
C63	C	0.074105	0.537526	0.041270
C64	C	0.118349	0.537531	0.041265
C65	C	0.115357	0.619775	0.012179
C66	C	0.068123	0.702014	-0.016902
C67	C	-0.026348	0.866504	-0.075062
C68	C	0.017903	0.866500	-0.075060
C69	C	0.065140	0.784254	-0.045978
C70	C	0.109375	0.784262	-0.045993
N71	N	0.156612	0.702022	-0.016908
C72	C	0.159604	0.619778	0.012178
C73	C	-0.293260	0.784226	-0.045966
C74	C	-0.337507	0.784223	-0.045966
C75	C	-0.287276	0.619732	0.012207
C76	C	-0.243029	0.619736	0.012203
C77	C	-0.246023	0.701986	-0.016882
C78	C	0.252516	0.619794	0.012164
C79	C	0.296761	0.619806	0.012155
C80	C	0.246527	0.784297	-0.046015
C81	C	0.202285	0.784285	-0.046008
C82	C	0.205283	0.702027	-0.016914
O83	O	0.110946	0.854169	-0.070729
O84	O	0.203847	0.549838	0.036918
C85	C	-0.017373	0.619760	0.012195
C86	C	-0.064608	0.701999	-0.016886
C87	C	-0.067599	0.784243	-0.045972
C88	C	-0.108854	0.701996	-0.016885
C89	C	-0.105862	0.619752	0.012201
C90	C	-0.058625	0.537512	0.041286
C91	C	-0.014382	0.537516	0.041281
C92	C	-0.114837	0.866484	-0.075056
C93	C	-0.159078	0.866472	-0.075049
C94	C	-0.156087	0.784228	-0.045963
C95	C	0.618390	0.701988	-0.016886
C96	C	0.665485	0.701979	-0.016880
C97	C	0.479625	0.701988	-0.155651
C98	C	0.479624	0.701979	-0.202739
C99	C	0.484720	0.912598	-0.021995
C100	C	0.486449	0.984067	-0.023722
C101	C	0.454525	0.784264	-0.523860
C102	C	0.454526	0.784280	-0.700855
O103	O	0.433191	0.854223	-0.748477
N104	N	0.479632	0.702039	-0.693901
C105	C	0.504743	0.619789	-0.642694
O106	O	0.526103	0.549839	-0.640840
C107	C	0.504745	0.619774	-0.465699
C108	C	0.479632	0.702020	-0.472657
C109	C	0.429414	0.866503	-0.530815
C110	C	0.429412	0.866498	-0.486569
C111	C	0.454520	0.784255	-0.435366
C112	C	0.479630	0.702015	-0.428411
C113	C	0.529859	0.537525	-0.414492
C114	C	0.529858	0.537529	-0.370244
C115	C	0.504746	0.619775	-0.377202
C116	C	0.504736	0.619767	-0.332962
N117	N	0.479629	0.702007	-0.339916
C118	C	0.454521	0.784251	-0.391118
C119	C	0.504740	0.619803	-0.735620
C120	C	0.504739	0.619806	-0.779869
C121	C	0.454522	0.784297	-0.838028
C122	C	0.454520	0.784293	-0.793778
C123	C	0.479633	0.702043	-0.742575
C124	C	0.454518	0.784235	-0.298195
C125	C	0.454516	0.784223	-0.253942
C126	C	0.504735	0.619732	-0.195787
C127	C	0.504735	0.619744	-0.240036
C128	C	0.479625	0.702003	-0.291241
O129	O	0.526064	0.549860	-0.285326
O130	O	0.433174	0.854191	-0.392960
C131	C	0.454527	0.784269	-0.568106
C132	C	0.479637	0.702030	-0.561150
C133	C	0.504745	0.619786	-0.509948
C134	C	0.479636	0.702033	-0.605399
C135	C	0.454528	0.784277	-0.656601
C136	C	0.429421	0.866517	-0.663555
C137	C	0.429419	0.866513	-0.619309
C138	C	0.529852	0.537546	-0.502994
C139	C	0.529851	0.537557	-0.547243
C140	C	0.504744	0.619801	-0.598445
C141	C	0.479630	0.702041	0.121840
C142	C	0.479631	0.702050	0.168929
C143	C	0.613297	0.491405	-0.011797
C144	C	0.658664	0.419926	-0.010063
C145	C	0.474537	0.491458	0.126929
C146	C	0.472810	0.419997	0.175746
C147	C	0.613300	0.491432	0.126949
C148	C	0.658667	0.419962	0.175771
C149	C	0.345955	0.912598	-0.160759
C150	C	0.300588	0.984067	-0.209582
C151	C	0.345957	0.912624	-0.022014
C152	C	0.300591	0.984103	-0.023748
C153	C	0.484718	0.912571	-0.160740
C154	C	0.486445	0.984032	-0.209556
C155	C	0.652871	0.386359	-0.036350
C156	C	0.695494	0.319206	-0.034731
C157	C	0.743908	0.285617	-0.006822
C158	C	0.749699	0.319191	0.019465
C159	C	0.707077	0.386347	0.017843
C160	C	0.499095	0.386438	0.225771
C161	C	0.497470	0.319303	0.271643
C162	C	0.469562	0.285722	0.267489
C163	C	0.443274	0.319288	0.217458
C164	C	0.444896	0.386427	0.171587
C165	C	0.707072	0.386388	0.171610
C166	C	0.749704	0.319244	0.217480
C167	C	0.743929	0.285670	0.267510
C168	C	0.695519	0.319250	0.271670
C169	C	0.652889	0.386397	0.225801
C170	C	0.252183	1.017649	-0.205421
C171	C	0.209551	1.084814	-0.251291
C172	C	0.215326	1.118392	-0.301322
C173	C	0.263736	1.084807	-0.305482
C174	C	0.306366	1.017648	-0.259612
C175	C	0.306383	1.017677	0.002534
C176	C	0.263761	1.084849	0.000903
C177	C	0.215347	1.118440	-0.027007
C178	C	0.209556	1.084863	-0.053293
C179	C	0.252178	1.017697	-0.051664
C180	C	0.514358	1.017591	-0.205384
C181	C	0.515991	1.084727	-0.251248
C182	C	0.489708	1.118308	-0.301283
C183	C	0.461795	1.084742	-0.305454
C184	C	0.460165	1.017602	-0.259591
H185	H	0.538705	0.112119	-0.075974
C186	C	0.156297	1.121814	-0.083988
C187	C	0.141124	1.167983	-0.143959
C188	C	0.087864	1.204932	-0.174650
C189	C	0.049777	1.195711	-0.145370
C190	C	0.064949	1.149540	-0.085395
C191	C	0.118210	1.112591	-0.054705
H192	H	0.169319	1.174811	-0.165637
H193	H	0.076632	1.239111	-0.219047
H194	H	0.010350	1.223063	-0.168089
H195	H	0.036755	1.142713	-0.063717
H196	H	0.129441	1.078412	-0.010307
H197	H	0.491039	1.172977	-0.338623
H198	H	0.163822	0.851256	-0.069696
H199	H	0.468245	0.231053	0.304844
C200	C	0.802958	0.282226	0.050170
C201	C	0.841057	0.291430	0.020906
C202	C	0.894317	0.254455	0.051615
C203	C	0.909477	0.208276	0.111588
C204	C	0.871376	0.199070	0.140855
C205	C	0.818117	0.236045	0.110146
H206	H	0.829835	0.325616	-0.023492
H207	H	0.922521	0.261269	0.029949
H208	H	0.948903	0.180905	0.134320
H209	H	0.882598	0.164884	0.185253
H210	H	0.789913	0.229230	0.131811
H211	H	0.711800	0.413669	0.039253
C212	C	0.359636	0.980742	0.033235
C213	C	0.365997	1.017693	0.062136
C214	C	0.419247	0.980768	0.092835
C215	C	0.466137	0.906890	0.094633
C216	C	0.459778	0.869934	0.065730
C217	C	0.406527	0.906860	0.035031
H218	H	0.331285	1.072386	0.060806
H219	H	0.423955	1.008126	0.114231
H220	H	0.505557	0.879556	0.117358
H221	H	0.494490	0.815242	0.067060
H222	H	0.401820	0.879502	0.013636
C223	C	0.245822	0.980723	-0.150391
C224	C	0.292706	0.906849	-0.099928
C225	C	0.286340	0.869931	-0.044900
C226	C	0.233090	0.906887	-0.040335
C227	C	0.186202	0.980765	-0.090799
C228	C	0.192568	1.017684	-0.145827
H229	H	0.332128	0.879488	-0.103307
H230	H	0.321049	0.815241	-0.007544
H231	H	0.228377	0.879558	0.000401
H232	H	0.146780	1.008126	-0.087420
H233	H	0.157858	1.072374	-0.183183
C234	C	0.543276	0.980655	-0.150349
C235	C	0.573983	1.017572	-0.145772
C236	C	0.602907	0.980635	-0.090738
C237	C	0.601124	0.906781	-0.040283
C238	C	0.570416	0.869859	-0.044859
C239	C	0.541492	0.906796	-0.099892
H240	H	0.575304	1.072247	-0.183123
H241	H	0.625639	1.007967	-0.087351
H242	H	0.622535	0.879438	0.000456
H243	H	0.569095	0.815184	-0.007508
H244	H	0.518759	0.879464	-0.103280
H245	H	0.440396	1.112094	-0.346198
C246	C	0.168429	1.192263	-0.351776
C247	C	0.115185	1.229150	-0.347191
C248	C	0.068286	1.303017	-0.397643
C249	C	0.074631	1.339998	-0.452680
C250	C	0.127878	1.303111	-0.457266
C251	C	0.174777	1.229243	-0.406814
H252	H	0.110485	1.201774	-0.306448
H253	H	0.028869	1.330323	-0.394248
H254	H	0.039914	1.394679	-0.490027
H255	H	0.132578	1.330486	-0.498009
H256	H	0.214194	1.201937	-0.410210
H257	H	0.268487	1.112176	0.022310
H258	H	0.423493	0.413742	0.130855
C259	C	-0.055339	0.447041	0.073281
C260	C	-0.028536	0.379199	0.133776
C261	C	-0.025253	0.288734	0.165772
C262	C	-0.048775	0.266111	0.137274
C263	C	-0.075580	0.333956	0.076776
C264	C	-0.078862	0.424421	0.044779
H265	H	-0.011122	0.395944	0.154876
H266	H	-0.005410	0.238511	0.210557
H267	H	-0.046345	0.199144	0.160959
H268	H	-0.092994	0.317211	0.055676
H269	H	-0.098705	0.474643	-0.000005
H270	H	0.690769	0.291878	-0.056138
H271	H	0.521821	0.413772	0.229164
H272	H	0.518879	0.291982	0.312376
H273	H	0.437433	0.990286	-0.262995
H274	H	0.778609	0.230934	-0.005505
C275	C	0.426894	0.874718	-0.354517
C276	C	0.442678	0.942568	-0.372411
C277	C	0.415051	1.033049	-0.428733
C278	C	0.371640	1.055680	-0.467160
C279	C	0.355854	0.987828	-0.449265
C280	C	0.383481	0.897347	-0.392944
H281	H	0.474815	0.925816	-0.343965
H282	H	0.426737	1.083277	-0.441979
H283	H	0.351189	1.122660	-0.508852
H284	H	0.323717	1.004580	-0.477712
H285	H	0.371795	0.847119	-0.379698
C286	C	0.802951	0.282311	0.212895
C287	C	0.809298	0.319235	0.157861
C288	C	0.862543	0.282304	0.153276
C289	C	0.909441	0.208449	0.203724
C290	C	0.903096	0.171520	0.258762
C291	C	0.849851	0.208451	0.263347
H292	H	0.774580	0.373911	0.120513
H293	H	0.867240	0.309642	0.112533
H294	H	0.948856	0.181111	0.200329
H295	H	0.937814	0.116845	0.296110
H296	H	0.845154	0.181114	0.304090
H297	H	0.538720	1.112049	-0.247842
C298	C	0.412578	0.282342	0.212893
C299	C	0.410800	0.208487	0.263354
C300	C	0.380107	0.171536	0.258790
C301	C	0.351190	0.208440	0.203766
C302	C	0.352966	0.282299	0.153301
C303	C	0.383660	0.319250	0.157865
H304	H	0.432207	0.181165	0.304089
H305	H	0.378792	0.116860	0.296148
H306	H	0.328468	0.181086	0.200388
H307	H	0.331559	0.309621	0.112566
H308	H	0.384974	0.373925	0.120507
C309	C	0.790826	0.211801	0.317964
C310	C	0.827832	0.119472	0.329623
C311	C	0.874731	0.045601	0.380075
C312	C	0.884624	0.064058	0.418868
C313	C	0.847617	0.156391	0.407211
C314	C	0.800719	0.230262	0.356759
H315	H	0.820509	0.105806	0.300905
H316	H	0.902125	-0.022750	0.388704
H317	H	0.919341	0.009374	0.456216
H318	H	0.854940	0.170058	0.435929
H319	H	0.773324	0.298613	0.348129
H320	H	0.408975	0.933483	-0.705253
H321	H	0.711784	0.413714	0.130877
H322	H	0.170138	1.112147	-0.247893
H323	H	0.535756	-0.009715	-0.073026
H324	H	0.521812	0.413703	-0.059090
H325	H	0.518867	0.291869	-0.056135
H326	H	0.437438	-0.009671	0.025277
H327	H	0.247454	0.990363	-0.073065
H328	H	0.690825	0.291904	0.312411
C329	C	0.037576	0.447043	0.073276
C330	C	0.052200	0.379184	0.060774
C331	C	0.104155	0.288705	0.092772
C332	C	0.141486	0.266085	0.137273
C333	C	0.126862	0.333946	0.149777
C334	C	0.074907	0.424425	0.117779
H335	H	0.024565	0.395927	0.027830
H336	H	0.114981	0.238470	0.083515
H337	H	0.179946	0.199107	0.160960
H338	H	0.154498	0.317203	0.182721
H339	H	0.064082	0.474660	0.127036
H340	H	-0.197539	0.933452	-0.098737
C341	C	0.599643	0.423313	0.230384
C342	C	0.593297	0.386369	0.285419
C343	C	0.540052	0.423280	0.290007
C344	C	0.493153	0.497135	0.239559
C345	C	0.499497	0.534083	0.184521
C346	C	0.552742	0.497172	0.179933
H347	H	0.628016	0.331694	0.322767
H348	H	0.535356	0.395928	0.330750
H349	H	0.453738	0.524459	0.242955
H350	H	0.464779	0.588759	0.147173
H351	H	0.557439	0.524524	0.139189
C352	C	0.270082	1.121746	-0.360519
C353	C	0.246876	1.112515	-0.398161
C354	C	0.253219	1.149452	-0.453199
C355	C	0.282769	1.195618	-0.470595
C356	C	0.305977	1.204851	-0.432952
C357	C	0.299633	1.167914	-0.377913
H358	H	0.225000	1.078338	-0.385284
H359	H	0.236039	1.142617	-0.481065
H360	H	0.287464	1.222961	-0.511338
H361	H	0.327853	1.239028	-0.445828
H362	H	0.316814	1.174749	-0.350047
H363	H	0.345779	0.990307	-0.263006
H364	H	0.335223	0.552829	0.035839
C365	C	0.432879	0.121740	0.029843
C366	C	0.445467	0.057106	0.090258
C367	C	0.416552	0.094036	0.119171
C368	C	0.375049	0.195600	0.087669
C369	C	0.362459	0.260240	0.027250
C370	C	0.391374	0.223310	-0.001662
H371	H	0.476192	-0.018084	0.113581
H372	H	0.425872	0.046184	0.163897
H373	H	0.353644	0.222937	0.109072
H374	H	0.331734	0.335430	0.003928
H375	H	0.382054	0.271162	-0.046388
H376	H	0.408965	0.933471	-0.492241
C377	C	0.255817	0.529311	0.044162
C378	C	0.282616	0.461467	0.031648
C379	C	0.285916	0.370986	0.063642
C380	C	0.262418	0.348349	0.108149
C381	C	0.235617	0.416195	0.120665
C382	C	0.232317	0.506676	0.088672
H383	H	0.300012	0.478223	-0.001300
H384	H	0.305755	0.320762	0.054376
H385	H	0.264861	0.281369	0.131832
H386	H	0.218220	0.399439	0.153613
H387	H	0.212477	0.556900	0.097937
H388	H	0.180646	1.173130	-0.028329
H389	H	0.420554	0.291902	0.042168
C390	C	0.426892	0.874698	-0.261598
C391	C	0.399277	0.965163	-0.317923
C392	C	0.371654	1.055635	-0.325580
C393	C	0.371646	1.055643	-0.276912
C394	C	0.399263	0.965175	-0.220584
C395	C	0.426885	0.874702	-0.212927
H396	H	0.399281	0.965161	-0.353953
H397	H	0.351211	1.122606	-0.367278
H398	H	0.351198	1.122616	-0.282581
H399	H	0.399258	0.965177	-0.184554
H400	H	0.447328	0.807732	-0.171228
C401	C	-0.296561	0.874710	-0.077967
C402	C	-0.323370	0.942543	-0.138461
C403	C	-0.326674	1.033027	-0.170464
C404	C	-0.303168	1.055678	-0.141973
C405	C	-0.276358	0.987843	-0.081476
C406	C	-0.273054	0.897359	-0.049473
H407	H	-0.340772	0.925777	-0.159554
H408	H	-0.346521	1.083243	-0.215248
H409	H	-0.305614	1.122660	-0.165664
H410	H	-0.258956	1.004609	-0.060382
H411	H	-0.253206	0.847143	-0.004689
H412	H	0.423497	0.413741	0.039217
C413	C	-0.078299	0.956983	-0.107043
C414	C	-0.092942	1.024854	-0.167536
C415	C	-0.144892	1.115342	-0.199515
C416	C	-0.182201	1.137959	-0.171001
C417	C	-0.167559	1.070086	-0.110505
C418	C	-0.115609	0.979598	-0.078526
H419	H	-0.065323	1.008113	-0.188647
H420	H	-0.155731	1.165585	-0.244299
H421	H	-0.220658	1.204943	-0.194674
H422	H	-0.195178	1.086827	-0.089394
H423	H	-0.104771	0.929355	-0.033743
H424	H	0.613454	0.413706	-0.059083
H425	H	0.076550	0.470549	0.064958
C426	C	0.014608	0.956978	-0.107056
C427	C	-0.012202	1.024823	-0.167550
C428	C	-0.015497	1.115300	-0.199547
C429	C	0.008018	1.137931	-0.171049
C430	C	0.034830	1.070085	-0.110552
C431	C	0.038125	0.979608	-0.078556
H432	H	-0.029610	1.008071	-0.188648
H433	H	-0.035345	1.165524	-0.244331
H434	H	0.005579	1.204908	-0.194735
H435	H	0.052238	1.086837	-0.089454
H436	H	0.057973	0.929384	-0.033772
H437	H	0.156808	0.470558	0.064945
H438	H	-0.204570	0.552764	0.035889
H439	H	-0.375966	0.851196	-0.069654
C440	C	0.532361	0.529319	-0.679298
C441	C	0.589578	0.461455	-0.661386
C442	C	0.617197	0.370971	-0.605066
C443	C	0.587598	0.348351	-0.566658
C444	C	0.530378	0.416217	-0.584569
C445	C	0.502760	0.506701	-0.640889
H446	H	0.611491	0.478198	-0.689819
H447	H	0.659555	0.320732	-0.591808
H448	H	0.608043	0.281369	-0.524966
H449	H	0.508465	0.399473	-0.556136
H450	H	0.460401	0.556940	-0.654147
C451	C	0.557492	0.447046	-0.406823
C452	C	0.614711	0.379212	-0.376733
C453	C	0.642349	0.288724	-0.369058
C454	C	0.612770	0.266070	-0.391472
C455	C	0.555548	0.333906	-0.421564
C456	C	0.527909	0.424394	-0.429240
H457	H	0.636610	0.395980	-0.360139
H458	H	0.684709	0.238508	-0.346782
H459	H	0.633229	0.199086	-0.385790
H460	H	0.533648	0.317138	-0.438159
H461	H	0.485550	0.474610	-0.451516
C462	C	0.426900	0.874763	-0.801434
C463	C	0.456498	0.897380	-0.779009
C464	C	0.428878	0.987855	-0.786669
C465	C	0.371659	1.055713	-0.816755
C466	C	0.342058	1.033098	-0.839182
C467	C	0.369678	0.942623	-0.831521
H468	H	0.498857	0.847146	-0.756737
H469	H	0.450791	1.004596	-0.770067
H470	H	0.351213	1.122688	-0.822425
H471	H	0.299699	1.083332	-0.861454
H472	H	0.347765	0.925882	-0.848124
H473	H	-0.284847	0.552766	0.035887
H474	H	0.244100	0.851257	-0.069698
H475	H	0.408969	0.933480	-0.572505
C476	C	0.557482	0.447051	-0.313919
C477	C	0.614701	0.379198	-0.296005
C478	C	0.642324	0.288721	-0.239682
C479	C	0.612728	0.266098	-0.201271
C480	C	0.555506	0.333952	-0.219184
C481	C	0.527883	0.424429	-0.275507
H482	H	0.636613	0.395944	-0.324440
H483	H	0.684684	0.238491	-0.226422
H484	H	0.633176	0.199122	-0.159577
H485	H	0.533594	0.317206	-0.190749
H486	H	0.485523	0.474659	-0.288767
H487	H	-0.117280	0.933458	-0.098743
H488	H	0.434075	0.851263	-0.879725
H489	H	0.525177	0.552773	-0.234369
C490	C	0.532354	0.529267	-0.139460
C491	C	0.532352	0.529273	-0.090792
C492	C	0.559975	0.438807	-0.034463
C493	C	0.587599	0.348336	-0.026803
C494	C	0.587602	0.348327	-0.075473
C495	C	0.559980	0.438793	-0.131801
H496	H	0.511902	0.596248	-0.096461
H497	H	0.559973	0.438814	0.001565
H498	H	0.608047	0.281368	0.014895
H499	H	0.608052	0.281352	-0.069804
H500	H	0.559982	0.438786	-0.167830
H501	H	0.408970	0.933486	-0.624981
H502	H	0.525181	0.552833	-0.774197
H503	H	0.550299	0.470577	-0.541569
H504	H	0.550299	0.470571	-0.461305
