data_functionalizedCrystal
_audit_creation_method	'MofGen! by Chris Wilmer'
_symmetry_space_group_name_H-M	'P1'
_symmetry_Int_Tables_number	1
_symmetry_cell_setting	triclinic
loop_
_symmetry_equiv_pos_as_xyz
  x,y,z
_cell_length_a	12.759401
_cell_length_b	29.839126
_cell_length_c	12.759399
_cell_angle_alpha	89.981759
_cell_angle_beta	90.016641
_cell_angle_gamma	89.981895
loop_
_atom_site_label
_atom_site_type_symbol
_atom_site_fract_x
_atom_site_fract_y
_atom_site_fract_z
Zn1	Zn	1.606234	-0.254005	-0.418304
Zn2	Zn	1.606132	-0.178883	-0.593981
Zn3	Zn	1.430541	-0.178890	-0.418321
Zn4	Zn	1.430523	-0.253987	-0.593946
O5	O	1.518358	-0.216441	-0.506138
O6	O	1.753241	-0.244045	-0.441615
O7	O	1.582805	-0.116017	-0.570701
O8	O	1.453897	-0.188865	-0.271298
O9	O	1.753167	-0.188853	-0.570684
O10	O	1.582978	-0.244052	-0.271285
O11	O	1.453799	-0.116022	-0.441644
O12	O	1.283518	-0.188847	-0.441611
O13	O	1.453867	-0.316856	-0.570625
O14	O	1.283505	-0.244020	-0.570642
O15	O	1.582960	-0.316870	-0.441582
O16	O	1.582787	-0.188835	-0.740997
O17	O	1.453768	-0.244013	-0.740972
C18	C	1.245390	-0.216432	-0.506125
C19	C	1.128614	-0.216439	-0.506145
C20	C	1.073772	-0.245123	-0.573434
C21	C	0.964048	-0.245131	-0.573438
C22	C	0.964017	-0.187770	-0.438861
C23	C	1.073739	-0.187763	-0.438853
C24	C	1.518423	-0.333620	-0.506098
C25	C	1.518451	-0.383554	-0.506081
C26	C	1.451298	-0.693203	-0.438776
C27	C	1.451328	-0.880876	-0.438703
O28	O	1.394180	-0.905146	-0.381583
N29	N	1.518500	-0.904339	-0.505883
C30	C	1.585665	-0.880881	-0.573092
O31	O	1.642793	-0.905144	-0.630239
C32	C	1.585629	-0.693209	-0.573169
C33	C	1.518460	-0.669748	-0.505977
C34	C	1.384133	-0.669742	-0.371590
C35	C	1.384131	-0.622827	-0.371605
C36	C	1.451293	-0.599372	-0.438806
C37	C	1.518457	-0.622833	-0.505992
C38	C	1.652788	-0.669752	-0.640382
C39	C	1.652772	-0.622831	-0.640398
C40	C	1.585602	-0.599370	-0.573205
C41	C	1.585617	-0.552463	-0.573208
N42	N	1.518444	-0.529000	-0.506027
C43	C	1.451282	-0.552454	-0.438826
C44	C	1.585681	-0.979412	-0.573045
C45	C	1.585691	-1.026330	-0.573025
C46	C	1.451352	-1.026321	-0.438637
C47	C	1.451348	-0.979403	-0.438653
C48	C	1.518508	-0.955949	-0.505865
C49	C	1.451282	-0.453928	-0.438862
C50	C	1.451288	-0.407009	-0.438880
C51	C	1.585623	-0.407021	-0.573271
C52	C	1.585621	-0.453937	-0.573250
C53	C	1.518442	-0.477389	-0.506042
O54	O	1.642726	-0.528164	-0.630306
O55	O	1.394147	-0.528183	-0.381704
C56	C	1.451301	-0.740119	-0.438761
C57	C	1.518465	-0.763579	-0.505947
C58	C	1.585628	-0.740125	-0.573148
C59	C	1.518476	-0.810497	-0.505927
C60	C	1.451314	-0.833952	-0.438726
C61	C	1.384141	-0.810489	-0.371545
C62	C	1.384139	-0.763573	-0.371560
C63	C	1.652800	-0.763588	-0.640329
C64	C	1.652798	-0.810503	-0.640308
C65	C	1.585636	-0.833958	-0.573107
C66	C	1.792391	-0.216450	-0.506152
C67	C	1.909168	-0.216454	-0.506158
C68	C	1.518293	-0.216431	-0.779105
C69	C	1.518362	-0.216442	-0.895882
C70	C	1.518353	-0.099719	-0.506102
C71	C	1.518529	-0.049785	-0.505824
C72	C	1.585619	-0.187743	-0.950722
C73	C	1.585686	-0.187758	-1.060446
C74	C	1.451231	-0.245172	-1.060480
C75	C	1.451169	-0.245159	-0.950758
C76	C	1.518451	-0.216461	-0.232105
C77	C	1.518491	-0.216470	-0.115328
H78	H	1.118448	-0.268473	-0.628225
C79	C	0.904494	-0.156689	-0.365635
C80	C	0.931196	-0.166556	-0.261715
C81	C	0.876379	-0.137936	-0.194230
H82	H	0.922399	-0.126476	-0.380770
H83	H	0.831282	-0.160803	-0.375204
H84	H	1.004392	-0.162439	-0.252150
H85	H	0.913288	-0.196764	-0.246548
H86	H	0.803167	-0.142050	-0.203799
H87	H	0.894288	-0.107725	-0.209374
H88	H	0.894481	-0.144630	-0.123713
H89	H	0.919401	-0.268489	-0.628229
H90	H	1.707470	-0.603737	-0.695124
C91	C	1.133479	-0.156667	-0.365834
C92	C	1.241313	-0.162810	-0.380209
C93	C	1.296378	-0.134179	-0.312954
H94	H	1.115592	-0.126453	-0.381042
H95	H	1.115581	-0.163301	-0.295243
H96	H	1.259203	-0.156174	-0.450784
H97	H	1.259231	-0.193018	-0.364994
H98	H	1.278480	-0.140812	-0.242363
H99	H	1.278483	-0.103967	-0.328167
H100	H	1.369549	-0.138346	-0.322691
C101	C	1.378311	-0.479305	-0.365774
C102	C	1.319518	-0.448710	-0.306926
C103	C	1.252303	-0.472070	-0.239572
H104	H	1.332421	-0.497602	-0.405828
H105	H	1.418494	-0.497606	-0.319933
H106	H	1.279338	-0.430417	-0.352761
H107	H	1.365380	-0.430412	-0.266850
H108	H	1.292486	-0.490370	-0.193732
H109	H	1.206420	-0.490366	-0.279635
H110	H	1.212411	-0.451315	-0.199629
H111	H	1.396591	-0.387909	-0.384158
H112	H	1.396523	-0.268551	-1.105174
H113	H	1.640455	-0.164389	-1.105092
C114	C	1.725554	-0.738104	-0.713421
C115	C	1.666057	-0.711163	-0.780796
C116	C	1.733051	-0.687689	-0.848153
H117	H	1.771368	-0.719774	-0.673363
H118	H	1.765536	-0.758787	-0.753485
H119	H	1.626093	-0.690483	-0.740737
H120	H	1.620246	-0.729482	-0.820878
H121	H	1.773033	-0.708372	-0.888216
H122	H	1.778862	-0.669362	-0.808086
H123	H	1.692692	-0.669410	-0.893881
H124	H	1.329430	-0.603729	-0.316894
H125	H	1.396400	-0.268531	-0.906104
C126	C	1.311171	-0.695121	-0.298502
C127	C	1.252377	-0.664524	-0.239659
C128	C	1.185165	-0.687883	-0.172299
H129	H	1.265282	-0.713420	-0.338550
H130	H	1.351357	-0.713419	-0.252658
H131	H	1.212194	-0.646235	-0.285497
H132	H	1.298238	-0.646224	-0.199589
H133	H	1.225352	-0.706181	-0.126455
H134	H	1.139284	-0.706181	-0.212356
H135	H	1.145273	-0.667127	-0.132359
H136	H	1.396653	-0.960304	-0.383938
H137	H	1.396668	-1.045426	-0.383916
C138	C	1.658594	-0.479330	-0.646308
C139	C	1.717397	-0.448745	-0.705175
C140	C	1.784614	-0.472117	-0.772505
H141	H	1.704478	-0.497645	-0.606236
H142	H	1.618411	-0.497612	-0.692137
H143	H	1.757576	-0.430470	-0.659352
H144	H	1.671541	-0.430428	-0.745269
H145	H	1.744431	-0.490399	-0.818334
H146	H	1.830490	-0.490431	-0.732424
H147	H	1.824512	-0.451368	-0.812461
C148	C	1.658637	-0.156641	-0.891008
C149	C	1.725889	-0.182095	-0.827902
C150	C	1.793162	-0.153460	-0.772873
H151	H	1.698802	-0.139542	-0.939268
H152	H	1.618479	-0.137053	-0.848207
H153	H	1.766043	-0.201676	-0.870700
H154	H	1.685753	-0.199193	-0.779623
H155	H	1.753004	-0.133871	-0.730072
H156	H	1.833321	-0.136362	-0.821140
H157	H	1.838794	-0.170726	-0.730042
H158	H	1.640399	-1.045428	-0.627728
H159	H	1.640372	-0.960320	-0.627783
H160	H	1.707484	-0.688845	-0.695099
H161	H	1.640308	-0.387916	-0.627981
C162	C	1.725871	-0.835993	-0.713086
C163	C	1.793260	-0.862932	-0.653602
C164	C	1.860592	-0.886412	-0.720610
H165	H	1.685795	-0.854324	-0.758882
H166	H	1.765925	-0.815313	-0.753085
H167	H	1.753209	-0.883610	-0.613620
H168	H	1.833358	-0.844613	-0.607808
H169	H	1.900646	-0.865732	-0.760610
H170	H	1.820507	-0.904740	-0.766403
H171	H	1.906329	-0.904690	-0.680260
H172	H	1.329442	-0.744476	-0.316845
C173	C	1.311256	-0.836041	-0.298702
C174	C	1.325626	-0.882149	-0.313101
C175	C	1.258491	-0.905704	-0.246037
H176	H	1.326578	-0.828417	-0.228068
H177	H	1.240637	-0.828369	-0.314094
H178	H	1.396229	-0.889817	-0.297702
H179	H	1.310297	-0.889786	-0.383722
H180	H	1.187872	-0.898033	-0.261429
H181	H	1.273819	-0.898077	-0.175407
H182	H	1.268225	-0.936991	-0.255804
