data_functionalizedCrystal
_audit_creation_method	'MofGen! by Chris Wilmer'
_symmetry_space_group_name_H-M	'P1'
_symmetry_Int_Tables_number	1
_symmetry_cell_setting	triclinic
loop_
_symmetry_equiv_pos_as_xyz
  x,y,z
_cell_length_a	11.792254
_cell_length_b	11.792254
_cell_length_c	7.088929
_cell_angle_alpha	83.733108
_cell_angle_beta	96.246827
_cell_angle_gamma	84.198598
loop_
_atom_site_label
_atom_site_type_symbol
_atom_site_fract_x
_atom_site_fract_y
_atom_site_fract_z
O1	O	1.495328	0.167231	-0.158988
O2	O	1.828661	0.500564	0.174345
O3	O	2.161995	0.833897	0.507679
O4	O	1.164989	0.183249	-0.158992
O5	O	1.498323	0.516582	0.174341
O6	O	1.831656	0.849916	0.507675
O7	O	1.338169	0.010070	-0.158976
O8	O	1.671502	0.343403	0.174357
O9	O	2.004835	0.676736	0.507690
O10	O	1.322149	0.340410	-0.159004
O11	O	1.655482	0.673743	0.174330
O12	O	1.988815	1.007077	0.507663
O13	O	1.361312	-0.013127	0.159001
O14	O	1.694645	0.320207	0.492334
O15	O	2.027979	0.653540	0.825668
O16	O	1.188133	0.160053	0.158985
O17	O	1.521466	0.493386	0.492318
O18	O	1.854799	0.826719	0.825652
O19	O	1.518471	0.144034	0.158989
O20	O	1.851805	0.477368	0.492323
O21	O	2.185138	0.810701	0.825656
Cu22	Cu	1.355415	0.149926	0.188021
Cu23	Cu	1.688749	0.483259	0.521354
Cu24	Cu	2.022082	0.816592	0.854688
Cu25	Cu	1.328046	0.177358	-0.188024
Cu26	Cu	1.661379	0.510691	0.145309
Cu27	Cu	1.994712	0.844025	0.478643
O28	O	1.345292	0.317214	0.158974
O29	O	1.678626	0.650547	0.492307
O30	O	2.011959	0.983880	0.825640
C31	C	1.134270	0.170642	-0.000004
C32	C	1.467604	0.503975	0.333329
C33	C	1.800937	0.837308	0.666663
C34	C	1.008257	0.167622	-0.000005
C35	C	1.341590	0.500955	0.333328
C36	C	1.674924	0.834288	0.666661
C37	C	0.905920	0.165168	-0.000013
C38	C	1.239253	0.498502	0.333320
C39	C	1.572586	0.831835	0.666653
C40	C	0.777533	0.162100	-0.000014
C41	C	1.110866	0.495433	0.333319
C42	C	1.444200	0.828767	0.666652
C43	C	1.348731	-0.043819	0.000012
C44	C	1.682065	0.289514	0.333345
C45	C	2.015398	0.622847	0.666678
C46	C	1.345711	-0.169832	0.000010
C47	C	1.679044	0.163501	0.333343
C48	C	2.012378	0.496834	0.666677
C49	C	1.343257	-0.272168	0.000003
C50	C	1.676590	0.061165	0.333336
C51	C	2.009923	0.394498	0.666670
C52	C	1.340187	-0.400554	-0.000015
C53	C	1.673520	-0.067221	0.333319
C54	C	2.006854	0.266113	0.666652
C55	C	1.549190	0.156642	-0.000003
C56	C	1.882524	0.489975	0.333330
C57	C	2.215857	0.823309	0.666664
C58	C	1.675203	0.159663	-0.000014
C59	C	2.008536	0.492996	0.333319
C60	C	2.341869	0.826330	0.666652
C61	C	1.334729	0.371103	-0.000019
C62	C	1.668063	0.704436	0.333315
C63	C	2.001396	1.037770	0.666648
C64	C	1.337749	0.497117	-0.000029
C65	C	1.671082	0.830450	0.333304
C66	C	2.004415	1.163784	0.666637
N67	N	1.374674	0.130630	0.452511
N68	N	1.708007	0.463964	0.785844
N69	N	2.041341	0.797297	1.119178
N70	N	1.308796	0.196644	-0.452514
N71	N	1.642129	0.529977	-0.119180
N72	N	1.975463	0.863311	0.214153
H73	H	1.240521	0.265053	0.465834
H74	H	1.573854	0.598386	0.799167
H75	H	1.907188	0.931720	1.132501
H76	H	1.442962	0.062225	0.534173
H77	H	1.776295	0.395558	0.867506
H78	H	2.109628	0.728892	1.200840
