data_functionalizedCrystal
_audit_creation_method	'MofGen! by Chris Wilmer'
_symmetry_space_group_name_H-M	'P1'
_symmetry_Int_Tables_number	1
_symmetry_cell_setting	triclinic
loop_
_symmetry_equiv_pos_as_xyz
  x,y,z
_cell_length_a	21.395362
_cell_length_b	19.077142
_cell_length_c	21.395355
_cell_angle_alpha	92.323124
_cell_angle_beta	89.979451
_cell_angle_gamma	92.274848
loop_
_atom_site_label
_atom_site_type_symbol
_atom_site_fract_x
_atom_site_fract_y
_atom_site_fract_z
Zn1	Zn	-0.288077	-1.075993	-0.392718
Zn2	Zn	0.211923	-0.575993	0.107282
Zn3	Zn	-0.392833	-1.075885	-0.287933
Zn4	Zn	0.107167	-0.575885	0.212067
Zn5	Zn	-0.283858	-0.958285	-0.283747
Zn6	Zn	0.216142	-0.458285	0.216253
Zn7	Zn	-0.388601	-0.958253	-0.388468
Zn8	Zn	0.111399	-0.458253	0.111532
O9	O	-0.338342	-1.017104	-0.338216
O10	O	0.161658	-0.517104	0.161784
O11	O	-0.305510	-1.174470	-0.382349
O12	O	0.194490	-0.674470	0.117651
O13	O	-0.378383	-1.060254	-0.199699
O14	O	0.121617	-0.560254	0.300301
O15	O	-0.196742	-0.973958	-0.298229
O16	O	0.303258	-0.473958	0.201771
O17	O	-0.382474	-1.174391	-0.305363
O18	O	0.117526	-0.674391	0.194637
O19	O	-0.199842	-1.060438	-0.378289
O20	O	0.300158	-0.560438	0.121711
O21	O	-0.298320	-0.973854	-0.196623
O22	O	0.201680	-0.473854	0.303377
O23	O	-0.294216	-0.859790	-0.294108
O24	O	0.205784	-0.359790	0.205892
O25	O	-0.375260	-0.973902	-0.476711
O26	O	0.124740	-0.473902	0.023289
O27	O	-0.371170	-0.859766	-0.371046
O28	O	0.128830	-0.359766	0.128954
O29	O	-0.301406	-1.060406	-0.479833
O30	O	0.198594	-0.560406	0.020167
O31	O	-0.479948	-1.060222	-0.301242
O32	O	0.020052	-0.560222	0.198758
O33	O	-0.476838	-0.973798	-0.375105
O34	O	0.023162	-0.473798	0.124895
C35	C	-0.331776	-0.834240	-0.331662
C36	C	0.168224	-0.334240	0.168338
C37	C	-0.328982	-0.756011	-0.328872
C38	C	0.171018	-0.256011	0.171128
C39	C	-0.367796	-0.719264	-0.367556
C40	C	0.132204	-0.219264	0.132444
C41	C	-0.365162	-0.645759	-0.364939
C42	C	0.134838	-0.145759	0.135061
C43	C	-0.323718	-0.609001	-0.323633
C44	C	0.176282	-0.109001	0.176367
C45	C	-0.284900	-0.645753	-0.284947
C46	C	0.215100	-0.145753	0.215053
C47	C	-0.287531	-0.719257	-0.287569
C48	C	0.212469	-0.219257	0.212431
C49	C	-0.311544	-0.389167	-0.311507
C50	C	0.188456	0.110833	0.188493
C51	C	-0.308917	-0.315658	-0.308888
C52	C	0.191083	0.184342	0.191112
C53	C	-0.389179	-0.315669	-0.388880
C54	C	0.110821	0.184331	0.111120
C55	C	-0.391809	-0.389174	-0.391495
C56	C	0.108191	0.110826	0.108505
C57	C	-0.352989	-0.425920	-0.352812
C58	C	0.147011	0.074080	0.147188
N59	N	-0.321026	-0.533867	-0.320955
N60	N	0.178974	-0.033867	0.179045
N61	N	-0.355677	-0.501052	-0.355494
N62	N	0.144323	-0.001052	0.144506
C63	C	-0.501127	-1.017014	-0.338181
C64	C	-0.001127	-0.517014	0.161819
C65	C	-0.570769	-1.017040	-0.338189
C66	C	-0.070769	-0.517040	0.161811
C67	C	-0.605038	-1.062044	-0.379904
C68	C	-0.105038	-0.562044	0.120096
C69	C	-0.670475	-1.062069	-0.379921
C70	C	-0.170475	-0.562069	0.120079
C71	C	-0.701639	-1.017097	-0.338211
C72	C	-0.201639	-0.517097	0.161789
C73	C	-0.667362	-0.972084	-0.296492
C74	C	-0.167362	-0.472084	0.203508
C75	C	-0.601927	-0.972056	-0.296482
C76	C	-0.101927	-0.472056	0.203518
C77	C	-0.805143	-1.011618	-0.281576
C78	C	-0.305143	-0.511618	0.218424
C79	C	-0.870577	-1.011652	-0.281586
C80	C	-0.370577	-0.511652	0.218414
C81	C	-0.903463	-1.017180	-0.338244
C82	C	-0.403463	-0.517180	0.161756
C83	C	-0.870907	-1.022691	-0.394894
C84	C	-0.370907	-0.522691	0.105106
C85	C	-0.805472	-1.022662	-0.394884
C86	C	-0.305472	-0.522662	0.105116
C87	C	-0.772593	-1.017122	-0.338218
C88	C	-0.272593	-0.517122	0.161782
C89	C	-1.008686	-1.062214	-0.379980
C90	C	-0.508686	-0.562214	0.120020
C91	C	-1.074123	-1.062233	-0.379997
C92	C	-0.574123	-0.562233	0.120003
C93	C	-1.071009	-0.972252	-0.296563
C94	C	-0.571009	-0.472252	0.203437
C95	C	-1.005573	-0.972229	-0.296552
C96	C	-0.505573	-0.472229	0.203448
C97	C	-0.974416	-1.017213	-0.338259
C98	C	-0.474416	-0.517213	0.161741
C99	C	-0.174923	-1.017214	-0.338266
C100	C	0.325077	-0.517214	0.161734
C101	C	-0.105283	-1.017260	-0.338287
C102	C	0.394717	-0.517260	0.161713
C103	C	-0.338332	-1.017163	-0.501642
C104	C	0.161668	-0.517163	-0.001642
C105	C	-0.338327	-1.017187	-0.571284
C106	C	0.161673	-0.517187	-0.071284
C107	C	-0.344932	-0.200682	-0.344790
C108	C	0.155068	0.299318	0.155210
C109	C	-0.347731	-0.278912	-0.347572
C110	C	0.152269	0.221088	0.152428
C111	C	-0.299870	-1.062228	-0.605624
C112	C	0.200130	-0.562228	-0.105624
C113	C	-0.299843	-1.062227	-0.671059
C114	C	0.200157	-0.562227	-0.171059
C115	C	-0.338285	-1.017193	-0.702153
C116	C	0.161715	-0.517193	-0.202153
C117	C	-0.376745	-0.972144	-0.667804
C118	C	0.123255	-0.472144	-0.167804
C119	C	-0.376766	-0.972141	-0.602370
C120	C	0.123234	-0.472141	-0.102370
C121	C	-0.394500	-1.011604	-0.805616
C122	C	0.105500	-0.511604	-0.305616
C123	C	-0.394480	-1.011612	-0.871050
C124	C	0.105520	-0.511612	-0.371050
C125	C	-0.338219	-1.017197	-0.903974
C126	C	0.161781	-0.517197	-0.403974
C127	C	-0.281977	-1.022790	-0.871457
C128	C	0.218023	-0.522790	-0.371457
C129	C	-0.281998	-1.022787	-0.806022
C130	C	0.218002	-0.522787	-0.306022
C131	C	-0.338266	-1.017191	-0.773105
C132	C	0.161734	-0.517191	-0.273105
C133	C	-0.299729	-1.062239	-1.009266
C134	C	0.200271	-0.562239	-0.509266
C135	C	-0.299700	-1.062233	-1.074703
C136	C	0.200300	-0.562233	-0.574703
C137	C	-0.376608	-0.972154	-1.071446
C138	C	0.123392	-0.472154	-0.571446
C139	C	-0.376631	-0.972156	-1.006011
C140	C	0.123369	-0.472156	-0.506011
C141	C	-0.338192	-1.017202	-0.974925
C142	C	0.161808	-0.517202	-0.474925
C143	C	-0.338309	-1.017086	-0.175428
C144	C	0.161691	-0.517086	0.324572
C145	C	-0.338142	-1.017198	-0.105791
C146	C	0.161858	-0.517198	0.394209
H147	H	-0.279939	-0.419077	-0.280004
H148	H	0.220061	0.080923	0.219996
N149	N	-0.707445	-1.110619	-0.424909
N150	N	-0.207445	-0.610619	0.075091
H151	H	-0.753626	-1.103812	-0.418585
H152	H	-0.253626	-0.603812	0.081415
H153	H	-0.695604	-1.099643	-0.469256
H154	H	-0.195604	-0.599643	0.030744
H155	H	-0.425558	-0.419097	-0.425129
H156	H	0.074442	0.080903	0.074871
N157	N	-0.264225	-0.276023	-0.264317
N158	N	0.235775	0.223977	0.235683
H159	H	-0.288566	-0.245511	-0.234146
H160	H	0.211434	0.254489	0.265854
H161	H	-0.240053	-0.310509	-0.240253
H162	H	0.259947	0.189491	0.259747
N163	N	-0.770356	-1.028600	-0.455979
N164	N	-0.270356	-0.528600	0.044021
H165	H	-0.801114	-1.032106	-0.491876
H166	H	-0.301114	-0.532106	0.008124
H167	H	-0.741703	-0.985699	-0.460220
H168	H	-0.241703	-0.485699	0.039780
H169	H	-0.396769	-0.615843	-0.396439
H170	H	0.103231	-0.115843	0.103561
H171	H	-0.407951	-0.935483	-0.978051
H172	H	0.092049	-0.435483	-0.478051
H173	H	-0.251153	-0.615820	-0.251318
H174	H	0.248847	-0.115820	0.248682
N175	N	-0.431047	-0.276037	-0.430601
N176	N	0.068953	0.223963	0.069399
H177	H	-0.423094	-0.223895	-0.422675
H178	H	0.076906	0.276105	0.077325
H179	H	-0.421822	-0.288918	-0.475825
H180	H	0.078178	0.211082	0.024175
N181	N	-0.258369	-1.110813	-0.708110
N182	N	0.241631	-0.610813	-0.208110
H183	H	-0.228297	-1.082235	-0.734230
H184	H	0.271703	-0.582235	-0.234230
H185	H	-0.234063	-1.139340	-0.678450
H186	H	0.265937	-0.639340	-0.178450
N187	N	-0.412502	-0.758903	-0.412105
N188	N	0.087498	-0.258903	0.087895
H189	H	-0.402380	-0.746144	-0.456435
H190	H	0.097620	-0.246144	0.043565
H191	H	-0.408262	-0.811031	-0.407843
H192	H	0.091738	-0.311031	0.092157
H193	H	-1.102024	-1.098881	-0.413970
H194	H	-0.602024	-0.598881	0.086030
H195	H	-0.255922	-0.749175	-0.256071
H196	H	0.244078	-0.249175	0.243929
N197	N	-0.906366	-1.028659	-0.456010
N198	N	-0.406366	-0.528659	0.043990
H199	H	-0.952758	-1.027838	-0.447424
H200	H	-0.452758	-0.527838	0.052576
H201	H	-0.893484	-0.987939	-0.482531
H202	H	-0.393484	-0.487939	0.017469
N203	N	-0.571434	-1.110552	-0.424896
N204	N	-0.071434	-0.610552	0.075104
H205	H	-0.524781	-1.103706	-0.418562
H206	H	-0.024781	-0.603706	0.081438
H207	H	-0.584638	-1.160829	-0.416984
H208	H	-0.084638	-0.660829	0.083016
H209	H	-0.983316	-1.098841	-0.413943
H210	H	-0.483316	-0.598841	0.086057
N211	N	-1.104613	-0.923740	-0.251580
N212	N	-0.604613	-0.423740	0.248420
H213	H	-1.151267	-0.930585	-0.257917
H214	H	-0.651267	-0.430585	0.242083
H215	H	-1.093584	-0.934713	-0.207231
H216	H	-0.593584	-0.434713	0.292769
N217	N	-0.968607	-0.923694	-0.251554
N218	N	-0.468607	-0.423694	0.248446
H219	H	-0.998277	-0.895209	-0.225131
H220	H	-0.498277	-0.395209	0.274869
H221	H	-0.942478	-0.952352	-0.223604
H222	H	-0.442478	-0.452352	0.276396
N223	N	-0.455138	-1.005579	-0.906116
N224	N	0.044862	-0.505579	-0.406116
H225	H	-0.446589	-1.006433	-0.952564
H226	H	0.053411	-0.506433	-0.452564
H227	H	-0.484616	-1.046258	-0.896144
H228	H	0.015384	-0.546258	-0.396144
H229	H	-0.897080	-1.007169	-0.235458
H230	H	-0.397080	-0.507169	0.264542
N231	N	-0.221343	-1.028820	-0.770950
N232	N	0.278657	-0.528820	-0.270950
H233	H	-0.185696	-1.032361	-0.801731
H234	H	0.314304	-0.532361	-0.301731
H235	H	-0.213994	-0.985941	-0.742252
H236	H	0.286006	-0.485941	-0.242252
N237	N	-0.769676	-1.005647	-0.220463
N238	N	-0.269676	-0.505647	0.279537
H239	H	-0.800228	-1.002166	-0.184578
H240	H	-0.300228	-0.502166	0.315422
H241	H	-0.744031	-1.048521	-0.216208
H242	H	-0.244031	-0.548521	0.283792
H243	H	-0.408082	-0.935460	-0.574410
H244	H	0.091918	-0.435460	-0.074410
N245	N	-0.700971	-0.923579	-0.251504
N246	N	-0.200971	-0.423579	0.248496
H247	H	-0.747624	-0.930428	-0.257838
H248	H	-0.247624	-0.430428	0.242162
H249	H	-0.689937	-0.934555	-0.207157
H250	H	-0.189937	-0.434555	0.292843
H251	H	-0.574024	-0.935407	-0.262511
H252	H	-0.074024	-0.435407	0.237489
N253	N	-0.258411	-1.110810	-0.572095
N254	N	0.241589	-0.610810	-0.072095
H255	H	-0.234044	-1.139343	-0.603783
H256	H	0.265956	-0.639343	-0.103783
H257	H	-0.228395	-1.082180	-0.543914
H258	H	0.271605	-0.582180	-0.043914
H259	H	-0.236164	-1.027339	-0.898262
H260	H	0.263836	-0.527339	-0.398262
N261	N	-0.258270	-1.110819	-0.975731
N262	N	0.241730	-0.610819	-0.475731
H263	H	-0.233899	-1.139349	-1.007418
H264	H	0.266101	-0.639349	-0.507418
H265	H	-0.228258	-1.082189	-0.947547
H266	H	0.271742	-0.582189	-0.447547
N267	N	-0.258207	-1.110802	-1.111744
N268	N	0.241793	-0.610802	-0.611744
H269	H	-0.233860	-1.139334	-1.082119
H270	H	0.266140	-0.639334	-0.582119
H271	H	-0.284865	-1.143356	-1.140074
H272	H	0.215135	-0.643356	-0.640074
N273	N	-0.418067	-0.923574	-1.104973
N274	N	0.081933	-0.423574	-0.604973
H275	H	-0.412217	-0.930408	-1.151636
H276	H	0.087783	-0.430408	-0.651636
H277	H	-0.463211	-0.934496	-1.093930
H278	H	0.036789	-0.434496	-0.593930
H279	H	-0.440296	-1.006868	-0.778808
H280	H	0.059704	-0.506868	-0.278808
N281	N	-0.418198	-0.923559	-0.701335
N282	N	0.081802	-0.423559	-0.201335
H283	H	-0.412348	-0.930394	-0.747999
H284	H	0.087652	-0.430394	-0.247999
H285	H	-0.463344	-0.934472	-0.690293
H286	H	0.036656	-0.434472	-0.190293
