data_functionalizedCrystal
_audit_creation_method	'MofGen! by Chris Wilmer'
_symmetry_space_group_name_H-M	'P1'
_symmetry_Int_Tables_number	1
_symmetry_cell_setting	triclinic
loop_
_symmetry_equiv_pos_as_xyz
  x,y,z
_cell_length_a	13.262390
_cell_length_b	10.540539
_cell_length_c	12.377034
_cell_angle_alpha	101.390517
_cell_angle_beta	94.186183
_cell_angle_gamma	84.478113
loop_
_atom_site_label
_atom_site_type_symbol
_atom_site_fract_x
_atom_site_fract_y
_atom_site_fract_z
O1	O	1.289864	0.297325	0.490545
O2	O	1.003124	0.293211	0.402392
O3	O	1.153036	0.111040	0.448478
O4	O	1.139952	0.479496	0.444458
O5	O	1.190481	0.065580	0.271994
O6	O	1.040569	0.247752	0.225907
O7	O	1.327309	0.251865	0.314060
Zn8	Zn	1.189885	0.242591	0.241963
Zn9	Zn	1.140549	0.302486	0.474489
O10	O	1.177397	0.434037	0.267974
C11	C	0.985130	0.266532	0.302862
C12	C	0.875725	0.254750	0.269228
C13	C	0.485691	0.320643	0.559241
C14	C	0.588482	0.331708	0.590844
C15	C	0.660298	0.312470	0.510443
C16	C	0.629313	0.282164	0.398433
C17	C	0.526512	0.271088	0.366827
C18	C	0.701119	0.262915	0.318029
C19	C	0.670134	0.232609	0.206019
C20	C	0.567343	0.221536	0.174419
C21	C	0.495527	0.240774	0.254820
C22	C	0.803919	0.273991	0.349634
C23	C	0.844740	0.224436	0.157220
C24	C	0.741949	0.213371	0.125618
C25	C	1.170777	0.040936	0.359936
C26	C	1.167840	-0.100226	0.359039
C27	C	1.055271	-0.291777	0.324854
C28	C	1.058331	-0.145043	0.325372
C29	C	1.241924	-0.183989	0.274460
C30	C	1.238205	-0.330829	0.273226
C31	C	1.197850	-0.279488	0.474607
C32	C	1.198576	-0.132089	0.476249
C33	C	1.345303	0.278545	0.413593
C34	C	1.454706	0.290329	0.447234
C35	C	1.159656	0.504142	0.356518
C36	C	1.162591	0.645305	0.357422
N37	N	1.223562	0.201714	0.083273
C38	C	1.301745	0.106764	0.048158
C39	C	1.325314	0.078117	-0.062926
C40	C	1.270708	0.144424	-0.138904
C41	C	1.192528	0.239382	-0.103788
C42	C	1.168951	0.268025	0.007305
C43	C	1.137913	0.305685	-0.179757
C44	C	1.059733	0.400644	-0.144641
C45	C	1.036161	0.429282	-0.033559
C46	C	1.090768	0.362975	0.042420
C47	C	1.161490	0.277042	-0.290850
C48	C	1.028696	0.438303	-0.331704
C49	C	1.005127	0.466951	-0.220620
N50	N	1.106879	0.343353	0.633182
H51	H	1.001535	-0.086864	0.384867
O52	O	0.920799	0.569364	-0.182750
H53	H	0.848405	0.541105	-0.227729
O54	O	1.296141	0.113538	-0.258713
H55	H	1.228616	0.079365	-0.310684
H56	H	0.427213	0.336291	0.624692
O57	O	0.708722	0.180831	0.004746
H58	H	0.730199	0.256976	-0.037601
O59	O	0.384666	0.228808	0.220690
H60	H	0.374587	0.129416	0.173329
O61	O	0.771165	0.324432	0.544519
H62	H	0.780645	0.348756	0.635912
O63	O	1.065350	0.393860	0.162238
H64	H	1.075565	0.497638	0.196566
O65	O	0.621905	0.364400	0.711644
H66	H	0.554699	0.375929	0.762243
O67	O	0.969794	0.509839	-0.413635
H68	H	0.999330	0.473981	-0.496777
H69	H	1.221228	-0.163385	0.188207
H70	H	1.276804	-0.320755	0.499602
O71	O	1.023379	-0.118467	0.212504
H72	H	0.944682	-0.146500	0.192041
H73	H	0.829136	0.298668	0.440833
H74	H	1.144196	-0.074847	0.538949
O75	O	1.409648	-0.024276	-0.100785
H76	H	1.391890	-0.118864	-0.083509
O77	O	0.533916	0.188847	0.053611
H78	H	0.601118	0.177342	0.003010
O79	O	1.360604	0.035206	0.130089
H80	H	1.331065	0.071066	0.213229
H81	H	0.903214	0.208769	0.091751
O82	O	1.245818	0.174639	-0.328707
H83	H	1.214656	0.096297	-0.392185
O84	O	1.302625	-0.090201	0.516830
H85	H	1.353269	-0.176056	0.531346
O86	O	0.951837	0.531695	0.004323
H87	H	0.917831	0.573001	-0.067166
H88	H	0.996678	-0.304924	0.383827
O89	O	1.018405	-0.360473	0.212108
H90	H	0.946087	-0.402601	0.218795
H91	H	1.317933	-0.374215	0.292867
O92	O	1.207775	-0.397673	0.157582
H93	H	1.195845	-0.325020	0.103065
H94	H	1.323140	-0.156719	0.295437
H95	H	1.146200	-0.293957	0.540096
