data_functionalizedCrystal
_audit_creation_method	'MofGen! by Chris Wilmer'
_symmetry_space_group_name_H-M	'P1'
_symmetry_Int_Tables_number	1
_symmetry_cell_setting	triclinic
loop_
_symmetry_equiv_pos_as_xyz
  x,y,z
_cell_length_a	34.571875
_cell_length_b	34.571051
_cell_length_c	34.567439
_cell_angle_alpha	60.004367
_cell_angle_beta	60.008842
_cell_angle_gamma	59.994195
loop_
_atom_site_label
_atom_site_type_symbol
_atom_site_fract_x
_atom_site_fract_y
_atom_site_fract_z
O1	O	0.053721	-0.565181	0.472559
O2	O	0.553721	-0.065181	0.972559
O3	O	0.020283	-0.440038	0.380761
O4	O	0.520283	0.059962	0.880761
O5	O	0.099534	-0.519209	0.380676
O6	O	0.599534	-0.019209	0.880676
O7	O	-0.025530	-0.486010	0.472643
O8	O	0.474470	0.013990	0.972643
O9	O	0.125831	-0.492917	0.406885
O10	O	0.625831	0.007083	0.906885
O11	O	0.046580	-0.413746	0.406969
O12	O	0.546580	0.086254	0.906969
O13	O	0.080018	-0.538889	0.498767
O14	O	0.580018	-0.038889	0.998767
Zn15	Zn	0.067475	-0.472143	0.457030
Zn16	Zn	0.567475	0.027857	0.957030
Zn17	Zn	0.032827	-0.506784	0.422498
Zn18	Zn	0.532827	-0.006784	0.922498
O19	O	0.000767	-0.459718	0.498852
O20	O	0.500767	0.040282	0.998852
N21	N	0.091122	-0.448505	0.480598
N22	N	0.591122	0.051495	0.980598
N23	N	0.009184	-0.530426	0.398930
N24	N	0.509184	-0.030426	0.898930
C25	C	0.124402	-0.415465	0.717633
C26	C	0.624402	0.084535	1.217633
C27	C	0.328327	-0.415388	0.513477
C28	C	0.828327	0.084612	1.013477
C29	C	0.124221	-0.415437	0.513630
C30	C	0.624221	0.084563	1.013630
C31	C	0.124201	-0.211364	0.513624
C32	C	0.624201	0.288636	1.013624
C33	C	0.157075	-0.309853	0.546423
C34	C	0.657075	0.190147	1.046423
C35	C	0.157084	-0.382601	0.546423
C36	C	0.657084	0.117399	1.046423
C37	C	0.175289	-0.364414	0.564591
C38	C	0.675289	0.135586	1.064591
C39	C	0.254624	-0.350722	0.522790
C40	C	0.754624	0.149278	1.022790
C41	C	0.304220	-0.367243	0.506229
C42	C	0.804220	0.132757	1.006229
C43	C	0.304249	-0.447494	0.536832
C44	C	0.804249	0.052506	1.036832
C45	C	0.254655	-0.430972	0.553394
C46	C	0.754655	0.069028	1.053394
C47	C	0.169014	-0.285043	0.497667
C48	C	0.669014	0.214957	0.997667
C49	C	0.152454	-0.235444	0.481153
C50	C	0.652454	0.264556	0.981153
C51	C	0.112020	-0.235469	0.562154
C52	C	0.612020	0.264531	1.062154
C53	C	0.128580	-0.285068	0.578668
C54	C	0.628580	0.214932	1.078668
C55	C	0.108321	-0.370634	0.558439
C56	C	0.608321	0.129366	1.058439
C57	C	0.091776	-0.387168	0.541918
C58	C	0.591776	0.112832	1.041918
C59	C	0.172754	-0.427637	0.501375
C60	C	0.672754	0.072363	1.001375
C61	C	0.189301	-0.411103	0.517891
C62	C	0.689301	0.088897	1.017891
C63	C	0.108399	-0.370649	0.643978
C64	C	0.608399	0.129351	1.143978
C65	C	0.091911	-0.387197	0.693575
C66	C	0.591911	0.112803	1.193575
C67	C	0.172928	-0.427676	0.693511
C68	C	0.672928	0.072324	1.193511
C69	C	0.189415	-0.411128	0.643912
C70	C	0.689415	0.088872	1.143912
C71	C	0.157149	-0.382613	0.619147
C72	C	0.657149	0.117387	1.119147
C73	C	0.229844	-0.382585	0.546371
C74	C	0.729844	0.117415	1.046371
C75	C	0.105624	-0.433333	0.772186
C76	C	0.605624	0.066667	1.272186
C77	C	0.382878	-0.432925	0.495007
C78	C	0.882878	0.067075	0.995007
C79	C	0.105380	-0.433313	0.495792
C80	C	0.605380	0.066687	0.995792
C81	C	0.105683	-0.156808	0.496094
C82	C	0.605683	0.343192	0.996094
C83	C	-0.023527	-0.563458	0.161535
C84	C	0.476473	-0.063458	0.661535
C85	C	-0.023851	-0.767445	0.365663
C86	C	0.476149	-0.267445	0.865663
C87	C	-0.023821	-0.563448	0.365756
C88	C	0.476179	-0.063448	0.865756
C89	C	-0.227785	-0.563229	0.365355
C90	C	0.272215	-0.063229	0.865355
C91	C	-0.129302	-0.596153	0.332678
C92	C	0.370698	-0.096153	0.832678
C93	C	-0.056593	-0.596234	0.332823
C94	C	0.443407	-0.096234	0.832823
C95	C	-0.074746	-0.614396	0.314578
C96	C	0.425254	-0.114396	0.814578
C97	C	-0.088477	-0.693710	0.356299
C98	C	0.411523	-0.193710	0.856299
C99	C	-0.071982	-0.743310	0.372851
C100	C	0.428018	-0.243310	0.872851
C101	C	0.008266	-0.743392	0.342376
C102	C	0.508266	-0.243392	0.842376
C103	C	-0.008230	-0.693794	0.325823
C104	C	0.491770	-0.193794	0.825823
C105	C	-0.154162	-0.608103	0.381422
C106	C	0.345838	-0.108103	0.881422
C107	C	-0.203757	-0.591517	0.397874
C108	C	0.296243	-0.091517	0.897874
C109	C	-0.203630	-0.551037	0.316836
C110	C	0.296370	-0.051037	0.816836
C111	C	-0.154034	-0.567623	0.300384
C112	C	0.345966	-0.067623	0.800384
C113	C	-0.068543	-0.547475	0.320829
C114	C	0.431457	-0.047475	0.820829
C115	C	-0.052041	-0.530969	0.337421
C116	C	0.447959	-0.030969	0.837421
C117	C	-0.011639	-0.611977	0.377990
C118	C	0.488361	-0.111977	0.877990
C119	C	-0.028141	-0.628485	0.361404
C120	C	0.471859	-0.128485	0.861404
C121	C	-0.068417	-0.547482	0.235199
C122	C	0.431583	-0.047482	0.735199
C123	C	-0.051814	-0.530977	0.185602
C124	C	0.448186	-0.030977	0.685602
C125	C	-0.011349	-0.611990	0.185649
C126	C	0.488651	-0.111990	0.685649
C127	C	-0.027951	-0.628493	0.235248
C128	C	0.472049	-0.128493	0.735248
C129	C	-0.056486	-0.596238	0.260022
C130	C	0.443514	-0.096238	0.760022
C131	C	-0.056602	-0.668955	0.332787
C132	C	0.443398	-0.168955	0.832787
C133	C	-0.005599	-0.544662	0.106983
C134	C	0.494401	-0.044662	0.606983
C135	C	-0.006342	-0.821999	0.384121
C136	C	0.493658	-0.321999	0.884121
C137	C	-0.005979	-0.544649	0.383673
C138	C	0.494021	-0.044649	0.883673
C139	C	-0.282336	-0.544682	0.382817
C140	C	0.217664	-0.044682	0.882817
N141	N	0.427518	-0.448428	0.480350
N142	N	0.927518	0.051572	0.980350
O143	O	0.589573	-0.456297	0.363634
O144	O	1.089573	0.043703	0.863634
O145	O	0.589761	-0.548399	0.488643
O146	O	1.089761	-0.048399	0.988643
O147	O	0.589681	-0.548188	0.409364
O148	O	1.089681	-0.048188	0.909364
O149	O	0.589654	-0.456508	0.442913
O150	O	1.089654	0.043492	0.942913
O151	O	0.510890	-0.521988	0.435708
O152	O	1.010890	-0.021988	0.935708
O153	O	0.510970	-0.522199	0.514987
O154	O	1.010970	-0.022199	1.014987
O155	O	0.510782	-0.430098	0.389978
O156	O	1.010782	0.069902	0.889978
Zn157	Zn	0.498366	-0.471989	0.456665
Zn158	Zn	0.998366	0.028011	0.956665
Zn159	Zn	0.602177	-0.506508	0.421956
Zn160	Zn	1.102177	-0.006508	0.921956
O161	O	0.510862	-0.430308	0.469257
O162	O	1.010862	0.069692	0.969257
N163	N	0.673025	-0.530068	0.398267
N164	N	1.173025	-0.030068	0.898267
N165	N	0.091092	-0.112167	0.480590
N166	N	0.591092	0.387833	0.980590
O167	O	-0.025539	0.049976	0.472612
O168	O	0.474461	0.549976	0.972612
O169	O	0.099472	0.050011	0.380491
O170	O	0.599472	0.550011	0.880491
O171	O	0.020155	0.049979	0.380751
O172	O	0.520155	0.549979	0.880751
O173	O	0.053778	0.050009	0.472352
O174	O	0.553778	0.550009	0.972352
O175	O	0.046458	-0.028818	0.407008
O176	O	0.546458	0.471182	0.907008
O177	O	0.125775	-0.028785	0.406748
O178	O	0.625775	0.471215	0.906748
O179	O	0.000764	-0.028821	0.498869
O180	O	0.500764	0.471179	0.998869
Zn181	Zn	0.067445	-0.041314	0.456977
Zn182	Zn	0.567445	0.458686	0.956977
Zn183	Zn	0.032791	0.062504	0.422382
Zn184	Zn	0.532791	0.562504	0.922382
O185	O	0.080081	-0.028788	0.498609
O186	O	0.580081	0.471212	0.998609
N187	N	0.009138	0.133358	0.398771
N188	N	0.509138	0.633358	0.898771
N189	N	0.091421	-0.448552	0.816827
N190	N	0.591421	0.051448	1.316827
O191	O	0.083469	-0.565164	0.978960
O192	O	0.583469	-0.065164	1.478960
O193	O	-0.008614	-0.440110	0.979002
O194	O	0.491386	0.059890	1.479002
O195	O	-0.008399	-0.519410	0.978978
O196	O	0.491601	-0.019410	1.478978
O197	O	0.083253	-0.485863	0.978984
O198	O	0.583253	0.014137	1.478984
O199	O	0.017837	-0.493128	0.900185
O200	O	0.517837	0.006872	1.400185
O201	O	0.017621	-0.413827	0.900208
O202	O	0.517621	0.086173	1.400208
O203	O	0.109704	-0.538881	0.900167
O204	O	0.609704	-0.038881	1.400167
Zn205	Zn	0.067828	-0.472181	0.887677
Zn206	Zn	0.567828	0.027819	1.387677
Zn207	Zn	0.033262	-0.506810	0.991491
Zn208	Zn	0.533262	-0.006810	1.491491
O209	O	0.109489	-0.459581	0.900191
O210	O	0.609489	0.040419	1.400191
N211	N	0.009668	-0.530444	1.062341
N212	N	0.509668	-0.030444	1.562341
C213	C	0.030297	-0.411123	0.381218
C214	C	0.530297	0.088877	0.881218
C215	C	0.128439	-0.509167	0.381113
C216	C	0.628439	-0.009167	0.881113
C217	C	0.070004	-0.567805	0.498310
C218	C	0.570004	-0.067805	0.998310
C219	C	-0.028138	-0.469761	0.498415
C220	C	0.471862	0.030239	0.998415
C221	C	0.550388	-0.547982	0.517564
C222	C	1.050388	-0.047982	1.017564
C223	C	0.550290	-0.547721	0.419387
C224	C	1.050290	-0.047721	0.919387
C225	C	0.550153	-0.430514	0.361058
C226	C	1.050153	0.069486	0.861058
C227	C	0.550253	-0.430775	0.459234
C228	C	1.050253	0.069225	0.959234
C229	C	0.128339	0.010714	0.380902
C230	C	0.628339	0.510714	0.880902
C231	C	0.030148	0.010577	0.381256
C232	C	0.530148	0.510577	0.881256
C233	C	-0.028136	0.010574	0.498426
C234	C	0.471864	0.510574	0.998426
C235	C	0.070089	0.010613	0.498104
C236	C	0.570089	0.510613	0.998104
C237	C	-0.008178	-0.411214	0.939610
C238	C	0.491822	0.088786	1.439610
C239	C	-0.007906	-0.509413	0.939566
C240	C	0.492094	-0.009413	1.439566
C241	C	0.109268	-0.567777	0.939558
C242	C	0.609268	-0.067777	1.439558
C243	C	0.109002	-0.469572	0.939586
C244	C	0.609002	0.030428	1.439586
H245	H	0.052212	-0.377448	0.713786
H246	H	0.552212	0.122552	1.213786
H247	H	0.550303	-0.576522	0.412207
H248	H	1.050303	-0.076522	0.912207
O249	O	-0.075692	0.010571	0.536733
O250	O	0.424308	0.510571	1.036733
H251	H	-0.098945	0.010566	0.523356
H252	H	0.401055	0.510566	1.023356
H253	H	0.077290	0.010621	0.526881
H254	H	0.577290	0.510621	1.026881
O255	O	0.550455	-0.586283	0.565121
O256	O	1.050455	-0.086283	1.065121
H257	H	0.518357	-0.596343	0.581679
H258	H	1.018357	-0.096343	1.081679
O259	O	-0.046477	-0.363643	0.939629
O260	O	0.453523	0.136357	1.439629
H261	H	-0.033085	-0.340408	0.939640
H262	H	0.466915	0.159592	1.439640
H263	H	0.550093	-0.401597	0.325157
H264	H	1.050093	0.098403	0.825157
O265	O	0.020610	0.010573	0.343132
O266	O	0.520610	0.510573	0.843132
H267	H	0.046163	-0.021538	0.333063
H268	H	0.546163	0.478462	0.833063
H269	H	0.550247	-0.401977	0.466412
H270	H	1.050247	0.098023	0.966412
O271	O	0.147563	-0.615352	0.939552
O272	O	0.647563	-0.115352	1.439552
H273	H	0.134167	-0.638590	0.939552
H274	H	0.634167	-0.138590	1.439552
O275	O	0.175792	0.011023	0.342492
O276	O	0.675792	0.511023	0.842492
H277	H	0.199018	0.011110	0.355843
H278	H	0.699018	0.511110	0.855843
H279	H	-0.036687	-0.516580	0.939532
H280	H	0.463313	-0.016580	1.439532
O281	O	0.147147	-0.460069	0.939580
O282	O	0.647147	0.039931	1.439580
H283	H	0.133592	-0.423410	0.939587
H284	H	0.633592	0.076590	1.439587
H285	H	0.082121	-0.347425	0.623816
H286	H	0.582121	0.152575	1.123816
O287	O	0.079465	-0.615422	0.536504
O288	O	0.579465	-0.115422	1.036504
H289	H	0.075331	-0.610589	0.567945
H290	H	0.575331	-0.110589	1.067945
O291	O	0.207746	-0.458454	0.720200
O292	O	0.707746	0.041546	1.220200
H293	H	0.230352	-0.438780	0.710664
H294	H	0.730352	0.061220	1.210664
O295	O	0.241998	-0.424032	0.617129
O296	O	0.741998	0.075968	1.117129
H297	H	0.261662	-0.446633	0.642684
H298	H	0.761662	0.053367	1.142684
H299	H	0.082085	-0.347427	0.581670
H300	H	0.582085	0.152573	1.081670
H301	H	0.164358	-0.516243	0.352233
H302	H	0.664358	-0.016243	0.852233
O303	O	0.039181	-0.374267	0.554878
O304	O	0.539181	0.125733	1.054878
H305	H	0.019557	-0.351676	0.577498
H306	H	0.519557	0.148324	1.077498
O307	O	0.020840	-0.363506	0.343022
O308	O	0.520840	0.136494	0.843022
H309	H	-0.009357	-0.356824	0.334422
H310	H	0.490643	0.143176	0.834422
O311	O	0.207494	-0.458371	0.470595
O312	O	0.707494	0.041629	0.970595
H313	H	0.230119	-0.491133	0.490249
H314	H	0.730119	0.008867	0.990249
O315	O	0.241896	-0.424009	0.504937
O316	O	0.741896	0.075991	1.004937
H317	H	0.261520	-0.446610	0.482325
H318	H	0.761520	0.053390	0.982325
O319	O	0.227923	-0.465339	0.578823
O320	O	0.727923	0.034661	1.078823
H321	H	0.253510	-0.501759	0.580915
H322	H	0.753510	-0.001759	1.080915
H323	H	-0.064060	-0.462687	0.527292
H324	H	0.435940	0.037313	1.027292
O325	O	0.081296	-0.208740	0.596936
O326	O	0.581296	0.291260	1.096936
H327	H	0.099020	-0.186140	0.591326
H328	H	0.599020	0.313860	1.091326
O329	O	0.331016	-0.499684	0.544404
O330	O	0.831016	0.000316	1.044404
H331	H	0.305452	-0.519067	0.563589
H332	H	0.805452	-0.019067	1.063589
O333	O	0.330950	-0.332877	0.480797
O334	O	0.830950	0.167123	0.980797
H335	H	0.321405	-0.306356	0.448609
H336	H	0.821405	0.193644	0.948609
O337	O	0.227864	-0.298534	0.515221
O338	O	0.727864	0.201466	1.015221
H339	H	0.253430	-0.279155	0.496044
H340	H	0.753430	0.220845	0.996044
H341	H	0.192214	-0.305222	0.471410
H342	H	0.692214	0.194778	0.971410
H343	H	0.162174	-0.215242	0.441450
H344	H	0.662174	0.284758	0.941450
H345	H	-0.061536	-0.491273	0.165398
H346	H	0.438464	0.008727	0.665398
O347	O	0.115682	-0.311834	0.631258
O348	O	0.615682	0.188166	1.131258
H349	H	0.093079	-0.286267	0.650905
H350	H	0.593079	0.213733	1.150905
H351	H	-0.091654	-0.521212	0.255368
H352	H	0.408346	-0.021212	0.755368
H353	H	0.011877	-0.638258	0.165483
H354	H	0.511877	-0.138258	0.665483
H355	H	-0.018232	-0.668197	0.255455
H356	H	0.481768	-0.168197	0.755455
H357	H	-0.061773	-0.491265	0.327657
H358	H	0.438227	0.008735	0.827657
O359	O	-0.099232	-0.512692	0.290006
O360	O	0.400768	-0.012692	0.790006
H361	H	-0.132003	-0.490075	0.309656
H362	H	0.367997	0.009925	0.809656
O363	O	0.019046	-0.646765	0.408816
O364	O	0.519046	-0.146765	0.908816
H365	H	0.051812	-0.669389	0.389171
H366	H	0.551812	-0.169389	0.889171
O367	O	-0.015251	-0.681075	0.374331
O368	O	0.484749	-0.181075	0.874331
H369	H	0.007310	-0.700730	0.396988
H370	H	0.507310	-0.200730	0.896988
H371	H	0.047655	-0.763617	0.336709
H372	H	0.547655	-0.263617	0.836709
O373	O	0.026149	-0.667089	0.300467
O374	O	0.526149	-0.167089	0.800467
H375	H	0.062556	-0.692696	0.298414
H376	H	0.562556	-0.192696	0.798414
H377	H	-0.127865	-0.673490	0.361973
H378	H	0.372135	-0.173490	0.861973
O379	O	-0.106360	-0.770014	0.398215
O380	O	0.393640	-0.270014	0.898215
H381	H	-0.142768	-0.744409	0.400281
H382	H	0.357232	-0.244409	0.900281
H383	H	-0.134026	-0.631339	0.407719
H384	H	0.365974	-0.131339	0.907719
H385	H	-0.223999	-0.601245	0.437568
H386	H	0.276001	-0.101245	0.937568
H387	H	-0.223768	-0.527810	0.290539
H388	H	0.276232	-0.027810	0.790539
H389	H	-0.133793	-0.557888	0.260690
H390	H	0.366207	-0.057888	0.760690
