data_functionalizedCrystal
_audit_creation_method	'MofGen! by Chris Wilmer'
_symmetry_space_group_name_H-M	'P1'
_symmetry_Int_Tables_number	1
_symmetry_cell_setting	triclinic
loop_
_symmetry_equiv_pos_as_xyz
  x,y,z
_cell_length_a	23.532407
_cell_length_b	23.532407
_cell_length_c	16.098538
_cell_angle_alpha	92.700973
_cell_angle_beta	87.281199
_cell_angle_gamma	82.848712
loop_
_atom_site_label
_atom_site_type_symbol
_atom_site_fract_x
_atom_site_fract_y
_atom_site_fract_z
O1	O	0.757822	0.066577	-0.069212
O2	O	1.257822	0.566577	0.430788
O3	O	0.591959	0.076580	-0.069226
O4	O	1.091959	0.576580	0.430774
O5	O	0.679892	-0.011353	-0.069203
O6	O	1.179892	0.488647	0.430797
O7	O	0.669890	0.154510	-0.069234
O8	O	1.169890	0.654510	0.430766
O9	O	0.674755	-0.006236	0.069309
O10	O	1.174755	0.493764	0.569309
O11	O	0.586823	0.081696	0.069286
O12	O	1.086823	0.581696	0.569286
O13	O	0.752686	0.071694	0.069300
O14	O	1.252686	0.571694	0.569300
Zn15	Zn	0.668939	0.077507	0.091285
Zn16	Zn	1.168939	0.577507	0.591285
Zn17	Zn	0.675706	0.070766	-0.091210
Zn18	Zn	1.175706	0.570766	0.408790
O19	O	0.664753	0.159626	0.069277
O20	O	1.164753	0.659626	0.569277
C21	C	0.568175	0.078883	0.000028
C22	C	1.068175	0.578883	0.500028
C23	C	0.504958	0.078117	0.000023
C24	C	1.004958	0.578117	0.500023
C25	C	0.677069	-0.030010	0.000055
C26	C	1.177069	0.469990	0.500055
C27	C	0.676303	-0.093227	0.000061
C28	C	1.176303	0.406773	0.500061
C29	C	0.238790	0.022923	0.000057
C30	C	0.738790	0.522923	0.500057
C31	C	0.298190	0.023635	0.000056
C32	C	0.798190	0.523635	0.500056
O33	O	0.334933	-0.020150	0.000093
O34	O	0.834933	0.479850	0.500093
N35	N	0.320817	0.075910	0.000041
N36	N	0.820817	0.575910	0.500041
C37	C	0.284039	0.127478	0.000034
C38	C	0.784039	0.627478	0.500034
O39	O	0.308740	0.172008	0.000021
O40	O	0.808740	0.672008	0.500021
C41	C	0.224640	0.126766	0.000040
C42	C	0.724640	0.626766	0.500040
C43	C	0.202017	0.074487	0.000047
C44	C	0.702017	0.574487	0.500047
C45	C	0.216166	-0.029352	0.000065
C46	C	0.716166	0.470648	0.500065
C47	C	0.156770	-0.030063	0.000063
C48	C	0.656770	0.469937	0.500063
C49	C	0.119997	0.021501	0.000054
C50	C	0.619997	0.521501	0.500054
C51	C	0.142621	0.073776	0.000046
C52	C	0.642621	0.573776	0.500046
C53	C	0.187864	0.178334	0.000039
C54	C	0.687864	0.678334	0.500039
C55	C	0.128461	0.177618	0.000046
C56	C	0.628461	0.677618	0.500046
C57	C	0.105838	0.125338	0.000053
C58	C	0.605838	0.625338	0.500053
C59	C	0.046452	0.124628	0.000036
C60	C	0.546452	0.624628	0.500036
N61	N	0.023826	0.072353	0.000051
N62	N	0.523826	0.572353	0.500051
C63	C	0.060598	0.020789	0.000060
C64	C	0.560598	0.520789	0.500060
C65	C	0.408782	0.128969	0.000022
C66	C	0.908782	0.628969	0.500022
C67	C	0.468181	0.129681	0.000010
C68	C	0.968181	0.629681	0.500010
C69	C	0.482327	0.025837	0.000034
C70	C	0.982327	0.525837	0.500034
C71	C	0.422928	0.025126	0.000040
C72	C	0.922928	0.525126	0.500040
C73	C	0.386156	0.076693	0.000038
C74	C	0.886156	0.576693	0.500038
C75	C	-0.064138	0.019299	0.000057
C76	C	0.435862	0.519299	0.500057
C77	C	-0.123540	0.018592	0.000053
C78	C	0.376460	0.518592	0.500053
C79	C	-0.137682	0.122436	0.000033
C80	C	0.362318	0.622436	0.500033
C81	C	-0.078285	0.123143	0.000033
C82	C	0.421715	0.623143	0.500033
C83	C	-0.041514	0.071570	0.000048
C84	C	0.458486	0.571570	0.500048
O85	O	0.009675	0.168390	0.000002
O86	O	0.509675	0.668390	0.500002
O87	O	0.035889	-0.023733	0.000084
O88	O	0.535889	0.476267	0.500084
C89	C	0.723538	-0.492332	0.000020
C90	C	1.223538	0.007668	0.500020
C91	C	0.722826	-0.551732	0.000013
C92	C	1.222826	-0.051732	0.500013
O93	O	0.766613	-0.588478	-0.000014
O94	O	1.266613	-0.088478	0.499986
N95	N	0.670550	-0.574358	0.000009
N96	N	1.170550	-0.074358	0.500009
C97	C	0.618982	-0.537581	0.000003
C98	C	1.118982	-0.037581	0.500003
O99	O	0.574452	-0.562281	-0.000001
O100	O	1.074452	-0.062281	0.499999
C101	C	0.619694	-0.478182	0.000004
C102	C	1.119694	0.021818	0.500004
C103	C	0.671974	-0.455559	0.000016
C104	C	1.171974	0.044441	0.500016
C105	C	0.775813	-0.469708	0.000031
C106	C	1.275813	0.030292	0.500031
C107	C	0.776524	-0.410311	0.000039
C108	C	1.276524	0.089689	0.500039
C109	C	0.724960	-0.373539	0.000035
C110	C	1.224960	0.126461	0.500035
C111	C	0.672685	-0.396162	0.000024
C112	C	1.172685	0.103838	0.500024
C113	C	0.568127	-0.441406	-0.000008
C114	C	1.068127	0.058594	0.499992
C115	C	0.568844	-0.382004	-0.000008
C116	C	1.068844	0.117996	0.499992
C117	C	0.621123	-0.359380	0.000004
C118	C	1.121123	0.140620	0.500004
C119	C	0.621831	-0.299993	0.000028
C120	C	1.121831	0.200007	0.500028
N121	N	0.674108	-0.277367	0.000032
N122	N	1.174108	0.222633	0.500032
C123	C	0.725672	-0.314140	0.000036
C124	C	1.225672	0.185860	0.500036
C125	C	0.617491	-0.662324	0.000001
C126	C	1.117491	-0.162324	0.500001
C127	C	0.616778	-0.721721	0.000006
C128	C	1.116778	-0.221721	0.500006
C129	C	0.720623	-0.735868	0.000015
C130	C	1.220623	-0.235868	0.500015
C131	C	0.721335	-0.676469	0.000015
C132	C	1.221335	-0.176469	0.500015
C133	C	0.669767	-0.639697	0.000005
C134	C	1.169767	-0.139697	0.500005
C135	C	0.727161	-0.189402	0.000053
C136	C	1.227161	0.310598	0.500053
C137	C	0.727867	-0.130000	0.000065
C138	C	1.227867	0.370000	0.500065
C139	C	0.624023	-0.115858	0.000052
C140	C	1.124023	0.384142	0.500052
C141	C	0.623316	-0.175255	0.000045
C142	C	1.123316	0.324745	0.500045
C143	C	0.674890	-0.212027	0.000043
C144	C	1.174890	0.287973	0.500043
O145	O	0.578068	-0.263213	0.000052
O146	O	1.078068	0.236787	0.500052
O147	O	0.770195	-0.289432	0.000030
O148	O	1.270195	0.210568	0.500030
C149	C	0.776470	0.069390	0.000044
C150	C	1.276470	0.569390	0.500044
C151	C	0.839687	0.070156	0.000043
C152	C	1.339687	0.570156	0.500043
C153	C	0.667576	0.178284	0.000017
C154	C	1.167576	0.678284	0.500017
C155	C	0.668343	0.241500	0.000006
C156	C	1.168343	0.741500	0.500006
N157	N	0.664324	0.082108	0.215833
N158	N	1.164324	0.582108	0.715833
N159	N	0.680325	0.066161	-0.215758
N160	N	1.180325	0.566161	0.284242
C161	C	0.701660	0.044799	0.259427
C162	C	1.201660	0.544799	0.759427
C163	C	0.698437	0.048022	0.346615
C164	C	1.198437	0.548022	0.846615
C165	C	0.657881	0.088558	0.390207
C166	C	1.157881	0.588558	0.890207
C167	C	0.620542	0.125869	0.346606
C168	C	1.120542	0.625869	0.846606
C169	C	0.623762	0.122642	0.259420
C170	C	1.123762	0.622642	0.759420
C171	C	0.646206	0.100245	0.653454
C172	C	1.146206	0.600245	1.153454
C173	C	0.642990	0.103470	0.740647
C174	C	1.142990	0.603470	1.240647
C175	C	0.720885	0.025623	0.740650
C176	C	1.220885	0.525623	1.240650
C177	C	0.724104	0.022402	0.653462
C178	C	1.224104	0.522402	1.153462
C179	C	0.686763	0.059711	0.609868
C180	C	1.186763	0.559711	1.109868
C181	C	0.654587	0.091855	0.479327
C182	C	1.154587	0.591855	0.979327
C183	C	0.690054	0.056410	0.520750
C184	C	1.190054	0.556410	1.020750
H185	H	-0.141956	-0.023982	0.000056
H186	H	0.358044	0.476018	0.500056
H187	H	0.621566	0.124861	0.514827
H188	H	1.121566	0.624861	1.014827
N189	N	-0.026592	-0.033386	0.000078
N190	N	0.473408	0.466614	0.500078
N191	N	-0.046810	-0.080052	0.000087
N192	N	0.453190	0.419948	0.500087
H193	H	-0.020293	-0.117262	0.000099
H194	H	0.479707	0.382738	0.500099
N195	N	0.516168	-0.344442	-0.000036
N196	N	1.016168	0.155558	0.499964
N197	N	0.483495	-0.348491	-0.058434
N198	N	0.983495	0.151509	0.441566
H199	H	0.446294	-0.321963	-0.058455
H200	H	0.946294	0.178037	0.441545
H201	H	0.580745	-0.193675	0.000058
H202	H	1.080745	0.306325	0.500058
N203	N	0.133677	-0.083472	0.000090
N204	N	0.633677	0.416528	0.500090
N205	N	0.142898	-0.115993	0.058489
N206	N	0.642898	0.384007	0.558489
H207	H	0.126594	-0.153716	0.058512
H208	H	0.626594	0.346284	0.558512
N209	N	0.253715	-0.082033	0.000079
N210	N	0.753715	0.417967	0.500079
N211	N	0.233495	-0.128699	0.000089
N212	N	0.733495	0.371301	0.500089
H213	H	0.260010	-0.165909	0.000095
H214	H	0.760010	0.334091	0.500095
N215	N	0.601563	0.144877	0.785184
N216	N	1.101563	0.644877	1.285184
N217	N	0.617631	0.181940	0.833816
N218	N	1.117631	0.681940	1.333816
H219	H	0.588375	0.211183	0.865271
H220	H	1.088375	0.711183	1.365271
N221	N	0.399831	-0.028281	0.000063
N222	N	0.899831	0.471719	0.500063
N223	N	0.409050	-0.060807	0.058457
N224	N	0.909050	0.439193	0.558457
H225	H	0.392742	-0.098528	0.058476
H226	H	0.892742	0.401472	0.558476
N227	N	0.608058	0.138356	0.608945
N228	N	1.108058	0.638356	1.108945
N229	N	0.571851	0.174544	0.647879
N230	N	1.071851	0.674544	1.147879
H231	H	0.544906	0.201462	0.616443
H232	H	1.044906	0.701462	1.116443
N233	N	0.563370	-0.744816	0.000013
N234	N	1.063370	-0.244816	0.500013
N235	N	0.517338	-0.711970	0.000015
N236	N	1.017338	-0.211970	0.500015
H237	H	0.479616	-0.728278	0.000017
H238	H	0.979616	-0.228278	0.500017
H239	H	0.512279	-0.016149	0.000041
H240	H	1.012279	0.483851	0.500041
N241	N	0.579113	0.167268	0.391144
N242	N	1.079113	0.667268	0.891144
N243	N	0.576243	0.170144	0.468988
N244	N	1.076243	0.670144	0.968988
H245	H	0.546984	0.199384	0.500444
H246	H	1.046984	0.699384	1.000444
H247	H	0.575496	-0.632386	-0.000000
H248	H	1.075496	-0.132386	0.500000
H249	H	-0.059865	0.165713	0.000027
H250	H	0.440135	0.665713	0.500027
H251	H	0.206273	0.220905	0.000030
H252	H	0.706273	0.720905	0.500030
N253	N	0.731452	0.014971	0.476239
N254	N	1.231452	0.514971	0.976239
N255	N	0.764766	-0.018362	0.515168
N256	N	1.264766	0.481638	1.015168
H257	H	0.793992	-0.047641	0.483726
H258	H	1.293992	0.452359	0.983726
H259	H	0.728838	0.017642	0.382110
H260	H	1.228838	0.517642	0.882110
N261	N	0.765620	-0.018963	0.609028
N262	N	1.265620	0.481037	1.109028
N263	N	0.764890	-0.071255	0.618787
N264	N	1.264890	0.428745	1.118787
H265	H	0.794247	-0.100450	0.587436
H266	H	1.294247	0.399550	1.087436
N267	N	0.371222	0.181647	-0.000007
N268	N	0.871222	0.681647	0.499993
N269	N	0.338661	0.190680	-0.058394
N270	N	0.838661	0.690680	0.441606
H271	H	0.312136	0.227884	-0.058414
H272	H	0.812136	0.727884	0.441586
N273	N	0.090901	0.230294	0.000024
N274	N	0.590901	0.730294	0.500024
N275	N	0.058342	0.239329	-0.058366
N276	N	0.558342	0.739329	0.441634
H277	H	0.031816	0.276532	-0.058385
H278	H	0.531816	0.776532	0.441615
H279	H	0.763905	-0.658054	0.000025
H280	H	1.263905	-0.158054	0.500025
N281	N	0.491275	0.183089	0.000002
N282	N	0.991275	0.683089	0.500002
N283	N	0.477734	0.219930	0.058381
N284	N	0.977734	0.719930	0.558381
H285	H	0.494041	0.257652	0.058381
H286	H	0.994041	0.757652	0.558381
H287	H	-0.167632	0.164418	0.000021
H288	H	0.332368	0.664418	0.500021
N289	N	0.781276	-0.106901	0.000084
N290	N	1.281276	0.393099	0.500084
N291	N	0.827310	-0.139745	0.000087
N292	N	1.327310	0.360255	0.500087
H293	H	0.865030	-0.123434	0.000100
H294	H	1.365030	0.376566	0.500100
H295	H	0.582041	-0.085907	0.000052
H296	H	1.082041	0.414093	0.500052
N297	N	0.779846	-0.226949	0.000049
N298	N	1.279846	0.273051	0.500049
N299	N	0.826513	-0.206732	0.000059
N300	N	1.326513	0.293268	0.500059
H301	H	0.863722	-0.233249	0.000060
H302	H	1.363722	0.266751	0.500060
N303	N	0.514730	-0.464515	-0.000035
N304	N	1.014730	0.035485	0.499965
N305	N	0.514090	-0.517549	-0.000045
N306	N	1.014090	-0.017549	0.499955
H307	H	0.476375	-0.533870	-0.000066
H308	H	0.976375	-0.033870	0.499934
N309	N	0.829931	-0.387217	0.000048
N310	N	1.329931	0.112783	0.500048
N311	N	0.875963	-0.420066	0.000048
N312	N	1.375963	0.079934	0.500048
H313	H	0.913685	-0.403759	0.000052
H314	H	1.413685	0.096241	0.500052
H315	H	0.734687	0.011793	0.223941
H316	H	1.234687	0.511793	0.723941
N317	N	0.828495	-0.507257	0.000029
N318	N	1.328495	-0.007257	0.500029
N319	N	0.875160	-0.487038	0.000036
N320	N	1.375160	0.012962	0.500036
H321	H	0.912371	-0.513553	0.000040
H322	H	1.412371	-0.013553	0.500040
H323	H	0.593359	0.153022	0.223926
H324	H	1.093359	0.653022	0.723926
H325	H	0.751286	-0.004753	0.776151
H326	H	1.251286	0.495247	1.276151
N327	N	0.773302	-0.773428	0.000019
N328	N	1.273302	-0.273428	0.500019
N329	N	0.805984	-0.769385	0.058407
N330	N	1.305984	-0.269385	0.558407
H331	H	0.843187	-0.795911	0.058411
H332	H	1.343187	-0.295911	0.558411
