data_functionalizedCrystal
_audit_creation_method	'MofGen! by Chris Wilmer'
_symmetry_space_group_name_H-M	'P1'
_symmetry_Int_Tables_number	1
_symmetry_cell_setting	triclinic
loop_
_symmetry_equiv_pos_as_xyz
  x,y,z
_cell_length_a	15.625020
_cell_length_b	14.044190
_cell_length_c	14.185569
_cell_angle_alpha	75.616153
_cell_angle_beta	85.694396
_cell_angle_gamma	88.488021
loop_
_atom_site_label
_atom_site_type_symbol
_atom_site_fract_x
_atom_site_fract_y
_atom_site_fract_z
O1	O	1.097849	0.248004	-0.482851
O2	O	0.856272	0.240135	-0.394965
O3	O	0.973436	0.105735	-0.437570
O4	O	0.980686	0.382404	-0.440247
O5	O	1.008047	0.066037	-0.283321
O6	O	0.890884	0.200437	-0.240716
O7	O	1.132460	0.208306	-0.328603
Cu8	Cu	1.014832	0.200747	-0.270575
Cu9	Cu	0.973900	0.247694	-0.452992
O10	O	1.015297	0.342706	-0.285998
C11	C	0.842475	0.216707	-0.306524
C12	C	0.749796	0.206029	-0.272807
C13	C	0.638033	0.169341	-0.141208
C14	C	0.725117	0.179377	-0.172901
C15	C	0.687394	0.222651	-0.341059
C16	C	0.600305	0.212615	-0.309380
C17	C	0.575633	0.185960	-0.209454
C18	C	0.537905	0.229234	-0.377626
C19	C	0.450824	0.219203	-0.345950
C20	C	0.426144	0.192552	-0.246027
C21	C	0.488552	0.175929	-0.177777
C22	C	0.562579	0.255895	-0.477553
C23	C	0.500178	0.272514	-0.545799
C24	C	0.413096	0.262476	-0.514123
C25	C	0.388416	0.235826	-0.414200
C26	C	0.350688	0.279099	-0.582373
C27	C	0.263607	0.269068	-0.550696
C28	C	0.301335	0.225794	-0.382523
C29	C	0.987566	0.050269	-0.359287
C30	C	0.978097	-0.055859	-0.355834
C31	C	1.027946	-0.301398	-0.374008
C32	C	0.960788	-0.250153	-0.349569
C33	C	0.970421	-0.142038	-0.353055
C34	C	1.018314	-0.409523	-0.370522
C35	C	1.146257	0.231735	-0.417045
C36	C	1.238934	0.242414	-0.450769
C37	C	1.001165	0.398172	-0.364282
C38	C	1.010634	0.504302	-0.367742
N39	N	1.043627	0.167726	-0.142275
N40	N	0.945111	0.280708	-0.581294
C41	C	0.860507	0.377681	0.291964
C42	C	0.882325	0.352675	0.389052
C43	C	0.986100	0.233714	0.351276
C44	C	0.964287	0.258707	0.254185
C45	C	0.901491	0.330691	0.224537
C46	C	1.005271	0.211717	0.186757
C47	C	0.983463	0.236712	0.089673
C48	C	0.920671	0.308695	0.060016
C49	C	0.879683	0.355686	0.127452
C50	C	1.068071	0.139738	0.216406
C51	C	1.109055	0.092748	0.148978
C52	C	1.087243	0.117738	0.051893
C53	C	1.024451	0.189721	0.022236
C54	C	1.128232	0.070747	-0.015543
C55	C	1.106424	0.095741	-0.112627
C56	C	1.002643	0.214716	-0.074848
H57	H	0.775923	0.165848	-0.117318
H58	H	0.617944	0.147649	-0.059837
H59	H	0.896058	-0.287478	-0.326025
H60	H	0.828542	0.414295	0.103315
H61	H	1.092672	-0.264076	-0.397546
H62	H	0.951502	0.273325	-0.098985
H63	H	1.037232	0.175106	0.375427
H64	H	0.281246	0.204102	-0.301153
H65	H	1.085828	0.119394	0.295458
H66	H	1.160187	0.034140	0.173128
H67	H	1.139798	0.057478	-0.167529
H68	H	0.902919	0.329048	-0.019038
H69	H	0.633487	0.264068	-0.503341
H70	H	1.179367	0.012143	0.008608
H71	H	0.848946	0.390947	0.443949
H72	H	0.468463	0.154237	-0.096406
H73	H	0.707495	0.244357	-0.422420
H74	H	0.520280	0.294219	-0.627160
H75	H	0.355236	0.184390	-0.220237
H76	H	0.370790	0.300810	-0.663733
H77	H	0.809366	0.436291	0.267827
H78	H	0.212798	0.282603	-0.606269
