data_functionalizedCrystal
_audit_creation_method	'MofGen! by Chris Wilmer'
_symmetry_space_group_name_H-M	'P1'
_symmetry_Int_Tables_number	1
_symmetry_cell_setting	triclinic
loop_
_symmetry_equiv_pos_as_xyz
  x,y,z
_cell_length_a	14.044220
_cell_length_b	10.723024
_cell_length_c	9.798715
_cell_angle_alpha	90.003154
_cell_angle_beta	89.995620
_cell_angle_gamma	91.171627
loop_
_atom_site_label
_atom_site_type_symbol
_atom_site_fract_x
_atom_site_fract_y
_atom_site_fract_z
O1	O	0.133040	-1.670497	-0.113486
O2	O	0.145775	-1.308619	-0.113491
O3	O	0.001388	-1.484126	-0.113476
O4	O	0.277427	-1.494990	-0.113502
O5	O	0.001386	-1.484113	0.113507
O6	O	0.145774	-1.308605	0.113491
O7	O	0.133039	-1.670484	0.113496
Zn8	Zn	0.139406	-1.489542	0.149532
Zn9	Zn	0.139408	-1.489560	-0.149527
O10	O	0.277426	-1.494976	0.113480
C11	C	0.144847	-1.262020	-0.000001
C12	C	0.142075	-1.123188	-0.000002
C13	C	-0.033958	-1.479364	0.000016
C14	C	-0.139276	-1.465180	0.000018
N15	N	0.139405	-1.489539	0.353631
C16	C	-0.332106	-1.439248	-0.000002
C17	C	-0.389085	-1.539849	-0.000005
C18	C	-0.496383	-1.525420	-0.000016
C19	C	-0.224799	-1.453675	0.000009
C20	C	0.312772	-1.499738	-0.000015
C21	C	0.418090	-1.513923	-0.000025
C22	C	0.133966	-1.717083	0.000002
C23	C	0.136739	-1.855914	-0.000005
C24	C	0.222866	-1.056288	-0.000011
C25	C	0.220002	-0.912798	-0.000013
N26	N	0.139402	-1.489572	-0.353627
C27	C	0.078649	-1.563415	0.578570
C28	C	0.078650	-1.563398	0.421407
H29	H	-0.357284	-1.636814	-0.000095
C30	C	-0.375061	-1.308266	0.000007
H31	H	-0.442588	-1.315631	0.000014
H32	H	-0.354552	-1.264175	-0.079138
H33	H	-0.354563	-1.264192	0.079179
C34	C	0.008393	-1.648820	0.342647
H35	H	0.017620	-1.637615	0.247349
H36	H	-0.055024	-1.628230	0.366000
H37	H	0.019258	-1.733331	0.365987
H38	H	0.026638	-1.626652	0.636870
C39	C	0.319177	-1.122403	-0.000024
H40	H	0.369494	-1.061824	-0.000022
H41	H	0.323730	-1.173086	-0.079176
H42	H	0.323732	-1.173072	0.079141
C43	C	0.209674	-1.404148	0.567630
H44	H	0.247794	-1.357829	0.630550
H45	H	0.175169	-1.348398	0.511897
H46	H	0.249428	-1.453527	0.511881
C47	C	0.313441	-0.835113	-0.000022
H48	H	0.299258	-0.748864	-0.000013
H49	H	0.349356	-0.854273	-0.079176
H50	H	0.349349	-0.854262	0.079141
C51	C	0.043294	-0.933586	-0.000002
H52	H	-0.009315	-0.879283	-0.000009
H53	H	0.040767	-0.984695	0.079148
H54	H	0.040775	-0.984693	-0.079170
H55	H	0.070786	-1.074234	-0.000030
H56	H	0.191417	-1.426312	0.411930
