data_functionalizedCrystal
_audit_creation_method	'MofGen! by Chris Wilmer'
_symmetry_space_group_name_H-M	'P1'
_symmetry_Int_Tables_number	1
_symmetry_cell_setting	triclinic
loop_
_symmetry_equiv_pos_as_xyz
  x,y,z
_cell_length_a	14.044220
_cell_length_b	14.044190
_cell_length_c	9.730223
_cell_angle_alpha	89.993542
_cell_angle_beta	90.004504
_cell_angle_gamma	93.190328
loop_
_atom_site_label
_atom_site_type_symbol
_atom_site_fract_x
_atom_site_fract_y
_atom_site_fract_z
O1	O	1.277168	0.230164	-0.114172
O2	O	1.777168	0.730164	0.385828
O3	O	1.000496	0.221858	-0.114205
O4	O	1.500496	0.721858	0.385795
O5	O	1.134676	0.087675	-0.114162
O6	O	1.634676	0.587675	0.385838
O7	O	1.142988	0.364347	-0.114215
O8	O	1.642988	0.864347	0.385785
O9	O	1.134674	0.087678	0.114418
O10	O	1.634674	0.587678	0.614418
O11	O	1.000495	0.221862	0.114375
O12	O	1.500495	0.721862	0.614375
O13	O	1.277167	0.230167	0.114408
O14	O	1.777167	0.730167	0.614408
Zn15	Zn	1.138831	0.226015	0.150683
Zn16	Zn	1.638831	0.726015	0.650683
Zn17	Zn	1.138832	0.226010	-0.150480
Zn18	Zn	1.638832	0.726010	0.349520
O19	O	1.142987	0.364351	0.114365
O20	O	1.642987	0.864351	0.614365
C21	C	0.964874	0.218224	0.000081
C22	C	1.464874	0.718224	0.500081
C23	C	0.858731	0.207380	0.000069
C24	C	1.358731	0.707380	0.500069
C25	C	1.131039	0.052054	0.000132
C26	C	1.631039	0.552054	0.500132
C27	C	1.120191	-0.054089	0.000142
C28	C	1.620191	0.445911	0.500142
C29	C	1.177292	-0.299547	0.000095
C30	C	1.677292	0.200453	0.500095
C31	C	1.100375	-0.248422	0.000096
C32	C	1.600375	0.251578	0.500096
C33	C	1.111404	-0.140285	0.000122
C34	C	1.611404	0.359715	0.500122
C35	C	1.166265	-0.407694	0.000069
C36	C	1.666265	0.092306	0.500069
C37	C	0.664392	0.187553	0.000100
C38	C	1.164392	0.687553	0.500100
C39	C	0.613264	0.264468	0.000091
C40	C	1.113264	0.764468	0.500091
C41	C	0.505128	0.253436	0.000108
C42	C	1.005128	0.753436	0.500108
C43	C	0.772539	0.198583	0.000083
C44	C	1.272539	0.698583	0.500083
C45	C	1.312789	0.233801	0.000119
C46	C	1.812789	0.733801	0.500119
C47	C	1.418932	0.244646	0.000122
C48	C	1.918932	0.744646	0.500122
C49	C	1.146624	0.399971	0.000068
C50	C	1.646624	0.899971	0.500068
C51	C	1.157472	0.506114	0.000049
C52	C	1.657472	1.006114	0.500049
N53	N	1.138836	0.226018	0.356220
N54	N	1.638836	0.726018	0.856220
N55	N	1.138834	0.226000	-0.356017
N56	N	1.638834	0.726000	0.143983
C57	C	1.198269	0.166625	0.428165
C58	C	1.698269	0.666625	0.928165
C59	C	1.198266	0.166613	0.572048
C60	C	1.698266	0.666613	1.072048
C61	C	1.079394	0.285396	0.572028
C62	C	1.579394	0.785396	1.072028
C63	C	1.079393	0.285402	0.428147
C64	C	1.579393	0.785402	0.928147
C65	C	1.257712	0.107241	0.356237
C66	C	1.757712	0.607241	0.856237
C67	C	1.317151	0.047844	0.428183
C68	C	1.817151	0.547844	0.928183
C69	C	1.317148	0.047832	0.572066
C70	C	1.817148	0.547832	1.072066
C71	C	1.257705	0.107218	0.644003
C72	C	1.757705	0.607218	1.144003
H73	H	1.026243	-0.285865	0.000079
H74	H	1.526243	0.214135	0.500079
H75	H	0.650706	0.338602	0.000070
H76	H	1.150706	0.838602	0.500070
C77	C	0.556739	0.076469	-0.117391
C78	C	1.056739	0.576469	0.382609
C79	C	0.613857	0.087479	0.000110
C80	C	1.113857	0.587479	0.500110
H81	H	0.525537	0.014686	-0.117391
H82	H	1.025537	0.514686	0.382609
H83	H	0.510458	0.123276	-0.117377
H84	H	1.010458	0.623276	0.382623
H85	H	0.595490	0.083963	-0.197095
H86	H	1.095490	0.583963	0.302905
H87	H	0.575104	0.079992	0.079815
H88	H	1.075104	0.579992	0.579815
H89	H	0.660143	0.040659	0.000109
H90	H	1.160143	0.540659	0.500109
H91	H	1.365538	-0.000538	0.630642
H92	H	1.865538	0.499462	1.130642
H93	H	1.257723	0.107247	0.239081
H94	H	1.757723	0.607247	0.739081
H95	H	1.365541	-0.000512	0.369604
H96	H	1.865541	0.499488	0.869604
C97	C	1.230832	0.015603	0.850107
C98	C	1.730832	0.515603	1.350107
C99	C	1.257695	0.107200	0.802163
C100	C	1.757695	0.607200	1.302163
H101	H	1.230833	0.015594	0.947746
H102	H	1.730833	0.515594	1.447746
H103	H	1.168717	-0.002645	0.817548
H104	H	1.668717	0.497355	1.317548
H105	H	1.274742	-0.028258	0.817558
H106	H	1.774742	0.471742	1.317558
H107	H	1.213781	0.151060	0.834704
H108	H	1.713781	0.651060	1.334704
H109	H	1.319820	0.125459	0.834736
H110	H	1.819820	0.625459	1.334736
C111	C	0.951224	0.295042	0.733837
C112	C	1.451224	0.795042	1.233837
C113	C	1.014067	0.350674	0.651104
C114	C	1.514067	0.850674	1.151104
H115	H	0.910899	0.335347	0.782660
H116	H	1.410899	0.835347	1.282660
H117	H	0.913523	0.252391	0.677708
H118	H	1.413523	0.752391	1.177708
H119	H	0.986633	0.259670	0.797269
H120	H	1.486633	0.759670	1.297269
H121	H	0.978658	0.386041	0.587665
H122	H	1.478658	0.886041	1.087665
H123	H	1.051772	0.393342	0.707238
H124	H	1.551772	0.893342	1.207238
H125	H	1.030996	0.333765	0.369569
H126	H	1.530996	0.833765	0.869569
H127	H	1.251418	-0.262106	0.000119
H128	H	1.751418	0.237894	0.500119
