data_functionalizedCrystal
_audit_creation_method	'MofGen! by Chris Wilmer'
_symmetry_space_group_name_H-M	'P1'
_symmetry_Int_Tables_number	1
_symmetry_cell_setting	triclinic
loop_
_symmetry_equiv_pos_as_xyz
  x,y,z
_cell_length_a	21.295419
_cell_length_b	21.295419
_cell_length_c	21.295411
_cell_angle_alpha	89.995824
_cell_angle_beta	90.025287
_cell_angle_gamma	89.981383
loop_
_atom_site_label
_atom_site_type_symbol
_atom_site_fract_x
_atom_site_fract_y
_atom_site_fract_z
Zn1	Zn	-0.962480	-0.250403	-0.356000
Zn2	Zn	-0.462480	0.249597	0.144000
Zn3	Zn	-0.962435	-0.355655	-0.250758
Zn4	Zn	-0.462435	0.144345	0.249242
Zn5	Zn	-0.857203	-0.250434	-0.250744
Zn6	Zn	-0.357203	0.249566	0.249256
Zn7	Zn	-0.857225	-0.355668	-0.355988
Zn8	Zn	-0.357225	0.144332	0.144012
O9	O	-0.909836	-0.303040	-0.303372
O10	O	-0.409836	0.196960	0.196628
O11	O	-1.050563	-0.264346	-0.342050
O12	O	-0.550563	0.235654	0.157950
O13	O	-0.948447	-0.341704	-0.162666
O14	O	-0.448447	0.158296	0.337334
O15	O	-0.871178	-0.162340	-0.264706
O16	O	-0.371178	0.337660	0.235294
O17	O	-1.050530	-0.341674	-0.264729
O18	O	-0.550530	0.158326	0.235271
O19	O	-0.948525	-0.162317	-0.342037
O20	O	-0.448525	0.337683	0.157963
O21	O	-0.871134	-0.264398	-0.162656
O22	O	-0.371134	0.235602	0.337344
O23	O	-0.769117	-0.264412	-0.264694
O24	O	-0.269117	0.235588	0.235306
O25	O	-0.871215	-0.341697	-0.444079
O26	O	-0.371215	0.158303	0.055921
O27	O	-0.769133	-0.341727	-0.342016
O28	O	-0.269133	0.158273	0.157984
O29	O	-0.948546	-0.264359	-0.444088
O30	O	-0.448546	0.235641	0.055912
O31	O	-0.948468	-0.443746	-0.264717
O32	O	-0.448468	0.056254	0.235283
O33	O	-0.871171	-0.443756	-0.342030
O34	O	-0.371171	0.056244	0.157970
C35	C	-0.746284	-0.303075	-0.303353
C36	C	-0.246284	0.196925	0.196647
C37	C	-0.676316	-0.303105	-0.303359
C38	C	-0.176316	0.196895	0.196641
C39	C	-0.643489	-0.262907	-0.343682
C40	C	-0.143489	0.237093	0.156318
C41	C	-0.577747	-0.262892	-0.343684
C42	C	-0.077747	0.237108	0.156316
C43	C	-0.544833	-0.303087	-0.303369
C44	C	-0.044833	0.196913	0.196631
C45	C	-0.577668	-0.343287	-0.263038
C46	C	-0.077668	0.156713	0.236962
C47	C	-0.643409	-0.343297	-0.263033
C48	C	-0.143409	0.156703	0.236967
N49	N	-0.441585	-0.358167	-0.298465
N50	N	0.058415	0.141833	0.201535
N51	N	-0.379134	-0.358157	-0.298473
N52	N	0.120866	0.141843	0.201527
C53	C	-0.346759	-0.303060	-0.303380
C54	C	0.153241	0.196940	0.196620
N55	N	-0.379194	-0.247974	-0.308291
N56	N	0.120806	0.252026	0.191709
N57	N	-0.441651	-0.247985	-0.308286
N58	N	0.058349	0.252015	0.191714
C59	C	-0.473548	-0.303081	-0.303369
C60	C	0.026452	0.196919	0.196631
C61	C	-0.242646	-0.262843	-0.343707
C62	C	0.257354	0.237157	0.156293
C63	C	-0.176903	-0.262827	-0.343704
C64	C	0.323097	0.237173	0.156296
C65	C	-0.176825	-0.343227	-0.263062
C66	C	0.323175	0.156773	0.236938
C67	C	-0.242568	-0.343238	-0.263061
C68	C	0.257432	0.156762	0.236939
C69	C	-0.275474	-0.303046	-0.303387
C70	C	0.224526	0.196954	0.196613
C71	C	-0.909834	-0.466591	-0.303387
C72	C	-0.409834	0.033409	0.196613
C73	C	-0.909891	-0.536559	-0.303415
C74	C	-0.409891	-0.036559	0.196585
C75	C	-0.909888	-0.303026	-0.467563
C76	C	-0.409888	0.196974	0.032437
C77	C	-0.909910	-0.303021	-0.537531
C78	C	-0.409910	0.196979	-0.037531
C79	C	-0.074026	-0.303013	-0.303389
C80	C	0.425974	0.196987	0.196611
C81	C	-0.143994	-0.303021	-0.303388
C82	C	0.356006	0.196979	0.196612
C83	C	-0.909854	-0.138850	-0.303371
C84	C	-0.409854	0.361150	0.196629
C85	C	-0.909862	-0.068881	-0.303371
C86	C	-0.409862	0.431119	0.196629
C87	C	-0.869599	-0.036026	-0.263109
C88	C	-0.369599	0.463974	0.236891
C89	C	-0.869598	0.029717	-0.263117
C90	C	-0.369598	0.529717	0.236883
C91	C	-0.909872	0.062601	-0.303379
C92	C	-0.409872	0.562601	0.196621
C93	C	-0.950137	0.029737	-0.343648
C94	C	-0.450137	0.529737	0.156352
C95	C	-0.950132	-0.036004	-0.343644
C96	C	-0.450132	0.463996	0.156356
N97	N	-0.964983	0.165835	-0.308219
N98	N	-0.464983	0.665835	0.191781
N99	N	-0.964985	0.228286	-0.308220
N100	N	-0.464985	0.728286	0.191780
C101	C	-0.909887	0.260676	-0.303395
C102	C	-0.409887	0.760676	0.196605
N103	N	-0.854785	0.228255	-0.298558
N104	N	-0.354785	0.728255	0.201442
N105	N	-0.854783	0.165797	-0.298554
N106	N	-0.354783	0.665797	0.201446
C107	C	-0.909881	0.133886	-0.303388
C108	C	-0.409881	0.633886	0.196612
C109	C	-0.869620	0.364817	-0.263140
C110	C	-0.369620	0.864817	0.236860
C111	C	-0.869618	0.430561	-0.263151
C112	C	-0.369618	0.930561	0.236849
C113	C	-0.950163	0.430580	-0.343680
C114	C	-0.450163	0.930580	0.156320
C115	C	-0.950159	0.364838	-0.343671
C116	C	-0.450159	0.864838	0.156329
C117	C	-0.909889	0.331960	-0.303398
C118	C	-0.409889	0.831960	0.196602
C119	C	-0.950174	-0.262749	-0.570403
C120	C	-0.450174	0.237251	-0.070403
C121	C	-0.950173	-0.262722	-0.636146
C122	C	-0.450173	0.237278	-0.136146
C123	C	-0.909915	-0.302977	-0.669013
C124	C	-0.409915	0.197023	-0.169013
C125	C	-0.869643	-0.343252	-0.636133
C126	C	-0.369643	0.156748	-0.136133
C127	C	-0.869640	-0.343274	-0.570392
C128	C	-0.369640	0.156726	-0.070392
N129	N	-0.905086	-0.358047	-0.772246
N130	N	-0.405086	0.141953	-0.272246
N131	N	-0.905092	-0.358024	-0.834697
N132	N	-0.405092	0.141976	-0.334697
C133	C	-0.909919	-0.302914	-0.867088
C134	C	-0.409919	0.197086	-0.367088
N135	N	-0.914752	-0.247825	-0.834669
N136	N	-0.414752	0.252175	-0.334669
N137	N	-0.914750	-0.247848	-0.772211
N138	N	-0.414750	0.252152	-0.272211
C139	C	-0.909913	-0.302958	-0.740299
C140	C	-0.409913	0.197042	-0.240299
C141	C	-0.950184	-0.262609	-0.971246
C142	C	-0.450184	0.237391	-0.471246
C143	C	-0.950179	-0.262580	-1.036990
C144	C	-0.450179	0.237420	-0.536990
C145	C	-0.869652	-0.343117	-1.036976
C146	C	-0.369652	0.156883	-0.536976
C147	C	-0.869654	-0.343139	-0.971234
C148	C	-0.369654	0.156861	-0.471234
C149	C	-0.909923	-0.302886	-0.938373
C150	C	-0.409923	0.197114	-0.438373
C151	C	-0.909820	-0.303008	-0.139821
C152	C	-0.409820	0.196992	0.360179
C153	C	-0.909919	-0.302836	-0.069853
C154	C	-0.409919	0.197164	0.430147
H155	H	-0.150176	-0.230089	-0.376539
H156	H	0.349824	0.269911	0.123461
H157	H	-0.836862	-0.376027	-0.662898
H158	H	-0.336862	0.123973	-0.162898
H159	H	-0.836827	0.338047	-0.230350
H160	H	-0.336827	0.838047	0.269650
C161	C	-0.833851	0.130489	-0.227366
C162	C	-0.333851	0.630489	0.272634
C163	C	-0.825341	0.065843	-0.218856
C164	C	-0.325341	0.565843	0.281144
H165	H	-0.806526	0.152789	-0.200043
H166	H	-0.306526	0.652789	0.299957
H167	H	-0.876141	0.141267	-0.218163
H168	H	-0.376141	0.641267	0.281837
H169	H	-0.824647	0.141255	-0.269661
H170	H	-0.324647	0.641255	0.230339
H171	H	-0.834550	0.055077	-0.176561
H172	H	-0.334550	0.555077	0.323439
H173	H	-0.783041	0.055061	-0.228054
H174	H	-0.283041	0.555061	0.271946
C175	C	-0.985886	-0.136771	-0.379392
C176	C	-0.485886	0.363229	0.120608
C177	C	-0.994394	-0.072124	-0.387900
C178	C	-0.494394	0.427876	0.112100
H179	H	-1.013210	-0.159069	-0.406717
H180	H	-0.513210	0.340931	0.093283
H181	H	-0.995088	-0.147536	-0.337102
H182	H	-0.495088	0.352464	0.162898
H183	H	-0.943591	-0.147550	-0.388598
H184	H	-0.443591	0.352450	0.111402
H185	H	-1.036689	-0.061344	-0.378689
H186	H	-0.536689	0.438656	0.121311
H187	H	-0.985197	-0.061354	-0.430200
H188	H	-0.485197	0.438646	0.069800
C189	C	-0.860899	-0.427840	-0.897319
C190	C	-0.360899	0.072160	-0.397319
C191	C	-0.825399	-0.387413	-0.935096
C192	C	-0.325399	0.112587	-0.435096
H193	H	-0.833573	-0.455170	-0.875008
H194	H	-0.333573	0.044830	-0.375008
H195	H	-0.888317	-0.451903	-0.922984
H196	H	-0.388317	0.048097	-0.422984
H197	H	-0.884873	-0.403862	-0.868340
H198	H	-0.384873	0.096138	-0.368340
H199	H	-0.801428	-0.411391	-0.964079
H200	H	-0.301428	0.088609	-0.464079
H201	H	-0.797969	-0.363348	-0.909429
H202	H	-0.297969	0.136652	-0.409429
C203	C	-0.663585	-0.449847	-0.232206
C204	C	-0.163585	0.050153	0.267794
C205	C	-0.679498	-0.387490	-0.218712
C206	C	-0.179498	0.112510	0.281288
H207	H	-0.685869	-0.477131	-0.204847
H208	H	-0.185869	0.022869	0.295153
H209	H	-0.619727	-0.455589	-0.226433
H210	H	-0.119727	0.044411	0.273567
H211	H	-0.674376	-0.459115	-0.274489
H212	H	-0.174376	0.040885	0.225511
H213	H	-0.668702	-0.378221	-0.176431
H214	H	-0.168702	0.121779	0.323569
H215	H	-0.723365	-0.381746	-0.224480
H216	H	-0.223365	0.118254	0.275520
H217	H	-0.982960	-0.229924	-0.662916
H218	H	-0.482960	0.270076	-0.162916
H219	H	-0.150028	-0.375954	-0.230237
H220	H	0.349972	0.124046	0.269763
C221	C	-0.316622	-0.254234	-0.428395
C222	C	0.183378	0.245766	0.071605
C223	C	-0.278824	-0.218662	-0.388027
C224	C	0.221176	0.281338	0.111973
H225	H	-0.338952	-0.226958	-0.455757
H226	H	0.161048	0.273042	0.044243
H227	H	-0.345580	-0.278175	-0.404381
H228	H	0.154420	0.221825	0.095619
H229	H	-0.290966	-0.281688	-0.452431
H230	H	0.209034	0.218312	0.047569
H231	H	-0.304481	-0.191211	-0.363987
H232	H	0.195519	0.308789	0.136013
H233	H	-0.249863	-0.194711	-0.412043
H234	H	0.250137	0.305289	0.087957
H235	H	-0.836850	-0.376067	-0.543628
H236	H	-0.336850	0.123933	-0.043628
H237	H	-0.982949	0.338086	-0.376453
H238	H	-0.482949	0.838086	0.123547
H239	H	-0.836828	0.457313	-0.230368
H240	H	-0.336828	0.957313	0.269632
H241	H	-0.269296	-0.375974	-0.230229
H242	H	0.230704	0.124026	0.269771
H243	H	-0.670277	-0.230180	-0.376518
H244	H	-0.170277	0.269820	0.123482
H245	H	-0.836807	-0.062790	-0.230316
H246	H	-0.336807	0.437210	0.269684
H247	H	-0.551014	-0.230155	-0.376518
H248	H	-0.051014	0.269845	0.123482
H249	H	-0.982971	-0.229829	-0.944489
H250	H	-0.482971	0.270171	-0.444489
H251	H	-0.982952	0.457354	-0.376464
H252	H	-0.482952	0.957354	0.123536
C253	C	-1.029743	0.023154	-0.423250
C254	C	-0.529743	0.523154	0.076750
C255	C	-0.994404	0.065880	-0.387908
C256	C	-0.494404	0.565880	0.112092
H257	H	-1.057067	0.045468	-0.450580
H258	H	-0.557067	0.545468	0.049420
H259	H	-1.053813	-0.002479	-0.395828
H260	H	-0.553813	0.497521	0.104172
H261	H	-1.002313	-0.002495	-0.447320
H262	H	-0.502313	0.497505	0.052680
H263	H	-1.021834	0.091527	-0.363835
H264	H	-0.521834	0.591527	0.136165
H265	H	-0.970332	0.091525	-0.415335
H266	H	-0.470332	0.591525	0.084665
H267	H	-0.550866	-0.376013	-0.230213
H268	H	-0.050866	0.123987	0.269787
C269	C	-1.029787	-0.182990	-1.030396
C270	C	-0.529787	0.317010	-0.530396
C271	C	-0.994442	-0.218311	-1.073126
C272	C	-0.494442	0.281689	-0.573126
H273	H	-1.057116	-0.155663	-1.052707
H274	H	-0.557116	0.344337	-0.552707
H275	H	-1.002366	-0.158923	-1.004737
H276	H	-0.502366	0.341077	-0.504737
H277	H	-1.053858	-0.210430	-1.004771
H278	H	-0.553858	0.289570	-0.504771
H279	H	-0.970368	-0.190870	-1.098747
H280	H	-0.470368	0.309130	-0.598747
H281	H	-1.021867	-0.242379	-1.098795
H282	H	-0.521867	0.257621	-0.598795
C283	C	-1.029771	-0.183140	-0.577025
C284	C	-0.529771	0.316860	-0.077025
C285	C	-0.994431	-0.218497	-0.534283
C286	C	-0.494431	0.281503	-0.034283
H287	H	-1.057089	-0.155818	-0.554724
H288	H	-0.557089	0.344182	-0.054724
H289	H	-1.053847	-0.210554	-0.602680
H290	H	-0.553847	0.289446	-0.102680
H291	H	-1.002341	-0.159062	-0.602653
H292	H	-0.502341	0.340938	-0.102653
H293	H	-1.021861	-0.242578	-0.508659
H294	H	-0.521861	0.257422	-0.008659
H295	H	-0.970353	-0.191079	-0.508618
H296	H	-0.470353	0.308921	-0.008618
H297	H	-0.836866	-0.375887	-1.063736
H298	H	-0.336866	0.124113	-0.563736
