data_functionalizedCrystal
_audit_creation_method	'MofGen! by Chris Wilmer'
_symmetry_space_group_name_H-M	'P1'
_symmetry_Int_Tables_number	1
_symmetry_cell_setting	triclinic
loop_
_symmetry_equiv_pos_as_xyz
  x,y,z
_cell_length_a	19.077105
_cell_length_b	19.077068
_cell_length_c	19.076919
_cell_angle_alpha	94.470751
_cell_angle_beta	90.076224
_cell_angle_gamma	90.115316
loop_
_atom_site_label
_atom_site_type_symbol
_atom_site_fract_x
_atom_site_fract_y
_atom_site_fract_z
Zn1	Zn	1.044048	-0.340450	-0.453500
Zn2	Zn	1.544048	0.159550	0.046500
Zn3	Zn	1.043962	-0.453600	-0.340340
Zn4	Zn	1.543962	0.046400	0.159660
Zn5	Zn	0.931660	-0.331023	-0.330931
Zn6	Zn	1.431660	0.168977	0.169069
Zn7	Zn	0.921801	-0.453176	-0.453077
Zn8	Zn	1.421801	0.046824	0.046923
O9	O	0.985368	-0.394562	-0.394462
O10	O	1.485368	0.105438	0.105538
O11	O	1.142196	-0.359583	-0.442604
O12	O	1.642196	0.140417	0.057396
O13	O	1.033154	-0.433572	-0.240616
O14	O	1.533154	0.066428	0.259384
O15	O	0.950731	-0.233799	-0.343429
O16	O	1.450731	0.266201	0.156571
O17	O	1.142133	-0.442714	-0.359466
O18	O	1.642133	0.057286	0.140534
O19	O	1.033302	-0.240725	-0.433479
O20	O	1.533302	0.259275	0.066521
O21	O	0.950647	-0.343516	-0.233703
O22	O	1.450647	0.156484	0.266297
O23	O	0.832193	-0.343104	-0.343019
O24	O	1.332193	0.156896	0.156981
O25	O	0.933928	-0.441990	-0.551609
O26	O	1.433928	0.058010	-0.051609
O27	O	0.824949	-0.432849	-0.432759
O28	O	1.324949	0.067151	0.067241
O29	O	1.023742	-0.359171	-0.551919
O30	O	1.523742	0.140829	-0.051919
O31	O	1.023594	-0.552019	-0.359056
O32	O	1.523594	-0.052019	0.140944
O33	O	0.933844	-0.551707	-0.441883
O34	O	1.433844	-0.051707	0.058117
C35	C	0.803119	-0.386908	-0.386822
C36	C	1.303119	0.113092	0.113178
C37	C	0.725151	-0.383651	-0.383571
C38	C	1.225151	0.116349	0.116429
C39	C	0.977658	-0.577398	-0.401461
C40	C	1.477658	-0.077398	0.098539
C41	C	0.974423	-0.655619	-0.404482
C42	C	1.474423	-0.155619	0.095518
C43	C	0.684769	-0.428912	-0.428699
C44	C	1.184769	0.071088	0.071301
C45	C	0.611510	-0.425842	-0.425647
C46	C	1.111510	0.074158	0.074353
C47	C	0.578634	-0.377515	-0.377464
C48	C	1.078634	0.122485	0.122536
C49	C	0.619022	-0.332250	-0.332335
C50	C	1.119022	0.167750	0.167665
C51	C	0.692280	-0.335317	-0.335390
C52	C	1.192280	0.164683	0.164610
C53	C	0.359940	-0.363323	-0.363326
C54	C	0.859940	0.136677	0.136674
C55	C	0.286677	-0.360262	-0.360273
C56	C	0.786677	0.139738	0.139727
C57	C	0.279170	-0.453853	-0.453586
C58	C	0.779170	0.046147	0.046414
C59	C	0.352429	-0.456918	-0.456635
C60	C	0.852429	0.043082	0.043365
C61	C	0.392810	-0.411651	-0.411508
C62	C	0.892810	0.088349	0.088492
N63	N	0.503752	-0.374378	-0.374342
N64	N	1.003752	0.125622	0.125658
N65	N	0.467691	-0.414785	-0.414634
N66	N	0.967691	0.085215	0.085366
C67	C	1.019665	-0.692509	-0.362816
C68	C	1.519665	-0.192509	0.137184
C69	C	1.016626	-0.766007	-0.365661
C70	C	1.516626	-0.266007	0.134339
C71	C	0.968342	-0.802612	-0.410169
C72	C	1.468342	-0.302612	0.089831
C73	C	0.923098	-0.765717	-0.451839
C74	C	1.423098	-0.265717	0.048161
C75	C	0.926141	-0.692221	-0.448997
C76	C	1.426141	-0.192221	0.051003
C77	C	0.954231	-1.022406	-0.423292
C78	C	1.454231	-0.522406	0.076708
C79	C	0.951190	-1.095907	-0.426130
C80	C	1.451190	-0.595907	0.073870
C81	C	1.044720	-1.096192	-0.339952
C82	C	1.544720	-0.596192	0.160048
C83	C	1.047755	-1.022695	-0.337111
C84	C	1.547755	-0.522695	0.162889
C85	C	1.002514	-0.985806	-0.378784
C86	C	1.502514	-0.485806	0.121216
N87	N	0.965233	-0.877738	-0.413077
N88	N	1.465233	-0.377738	0.086923
N89	N	1.005627	-0.910681	-0.375880
N90	N	1.505627	-0.410681	0.124120
C91	C	1.168328	-0.402247	-0.402132
C92	C	1.668328	0.097753	0.097868
C93	C	1.246295	-0.405522	-0.405400
C94	C	1.746295	0.094478	0.094600
C95	C	0.977745	-0.401585	-0.578012
C96	C	1.477745	0.098415	-0.078012
C97	C	0.974497	-0.404578	-0.656230
C98	C	1.474497	0.095422	-0.156230
C99	C	0.993126	-0.211015	-0.387451
C100	C	1.493126	0.288985	0.112549
C101	C	0.996432	-0.132798	-0.384464
C102	C	1.496432	0.367202	0.115536
C103	C	1.019730	-0.362866	-0.693140
C104	C	1.519730	0.137134	-0.193140
C105	C	1.016669	-0.365675	-0.766634
C106	C	1.516669	0.134325	-0.266634
C107	C	0.968378	-0.410200	-0.803216
C108	C	1.468378	0.089800	-0.303216
C109	C	0.923140	-0.451913	-0.766301
C110	C	1.423140	0.048087	-0.266301
C111	C	0.926198	-0.449100	-0.692809
C112	C	1.426198	0.050900	-0.192809
C113	C	0.954216	-0.423233	-1.022998
C114	C	1.454216	0.076767	-0.522998
C115	C	0.951163	-0.426044	-1.096496
C116	C	1.451163	0.073956	-0.596496
C117	C	1.044691	-0.339805	-1.096823
C118	C	1.544691	0.160195	-0.596823
C119	C	1.047748	-0.337000	-1.023329
C120	C	1.547748	0.163000	-0.523329
C121	C	1.002507	-0.378710	-0.986421
C122	C	1.502507	0.121290	-0.486421
N123	N	0.965250	-0.413073	-0.878339
N124	N	1.465250	0.086927	-0.378339
N125	N	1.005632	-0.375832	-0.911299
N126	N	1.505632	0.124168	-0.411299
C127	C	0.993003	-0.387518	-0.211626
C128	C	1.493003	0.112482	0.288374
C129	C	0.996396	-0.384333	-0.133406
C130	C	1.496396	0.115667	0.366594
H131	H	0.711530	-0.468267	-0.467932
H132	H	1.211530	0.031733	0.032068
H133	H	1.087072	-0.992892	-0.300869
H134	H	1.587072	-0.492892	0.199131
O135	O	1.094583	-0.293631	-0.987833
O136	O	1.594583	0.206369	-0.487833
C137	C	1.081465	-0.223548	-1.002502
C138	C	1.581465	0.276452	-0.502502
H139	H	1.024733	-0.218430	-1.020208
H140	H	1.524733	0.281570	-0.520208
H141	H	1.118064	-0.208373	-1.046051
H142	H	1.618064	0.291627	-0.546051
C143	C	1.164013	-0.180695	-0.914035
C144	C	1.664013	0.319305	-0.414035
C145	C	1.094331	-0.174406	-0.935776
C146	C	1.594331	0.325594	-0.435776
H147	H	1.171952	-0.150380	-0.872876
H148	H	1.671952	0.349620	-0.372876
H149	H	1.172852	-0.227911	-0.904153
H150	H	1.672852	0.272089	-0.404153
H151	H	1.194504	-0.168050	-0.950331
H152	H	1.694504	0.331950	-0.450331
H153	H	1.063842	-0.187059	-0.899484
H154	H	1.563842	0.312941	-0.399484
H155	H	1.085487	-0.127191	-0.945650
H156	H	1.585487	0.372809	-0.445650
O157	O	0.876325	-0.495243	-0.801875
O158	O	1.376325	0.004757	-0.301875
C159	C	0.912570	-0.543989	-0.847810
C160	C	1.412570	-0.043989	-0.347810
H161	H	0.968554	-0.549810	-0.828147
H162	H	1.468554	-0.049810	-0.328147
H163	H	0.913591	-0.524464	-0.902780
H164	H	1.413591	-0.024464	-0.402780
C165	C	0.806400	-0.608596	-0.874443
C166	C	1.306400	-0.108596	-0.374443
C167	C	0.875158	-0.615751	-0.850290
C168	C	1.375158	-0.115751	-0.350290
H169	H	0.783322	-0.652862	-0.875976
H170	H	1.283322	-0.152862	-0.375976
H171	H	0.781980	-0.575754	-0.843498
H172	H	1.281980	-0.075754	-0.343498
H173	H	0.807260	-0.592324	-0.920249
H174	H	1.307260	-0.092324	-0.420249
H175	H	0.874297	-0.632014	-0.804482
H176	H	1.374297	-0.132014	-0.304482
H177	H	0.899577	-0.648597	-0.881227
H178	H	1.399577	-0.148597	-0.381227
H179	H	0.392810	-0.326468	-0.326576
H180	H	0.892810	0.173532	0.173424
O181	O	0.731538	-0.291283	-0.291650
O182	O	1.231538	0.208717	0.208350
C183	C	0.774179	-0.249214	-0.331818
C184	C	1.274179	0.250786	0.168182
H185	H	0.749992	-0.246151	-0.386167
H186	H	1.249992	0.253849	0.113833
H187	H	0.828685	-0.273390	-0.337355
H188	H	1.328685	0.226610	0.162645
C189	C	0.809510	-0.178503	-0.228050
C190	C	1.309510	0.321497	0.271950
C191	C	0.779799	-0.174736	-0.294800
C192	C	1.279799	0.325264	0.205200
H193	H	0.812980	-0.132562	-0.205215
H194	H	1.312980	0.367438	0.294785
H195	H	0.780784	-0.206847	-0.200987
H196	H	1.280784	0.293153	0.299013
H197	H	0.854928	-0.198652	-0.232673
H198	H	1.354928	0.301348	0.267327
H199	H	0.734379	-0.154596	-0.290176
H200	H	1.234379	0.345404	0.209824
H201	H	0.808518	-0.146387	-0.321862
H202	H	1.308518	0.353613	0.178138
O203	O	0.876215	-0.801380	-0.495013
O204	O	1.376215	-0.301380	0.004987
C205	C	0.883239	-0.874162	-0.488600
C206	C	1.383239	-0.374162	0.011400
H207	H	0.908096	-0.883092	-0.435664
H208	H	1.408096	-0.383092	0.064336
H209	H	0.917963	-0.898134	-0.532740
H210	H	1.417963	-0.398134	-0.032740
C211	C	0.779901	-0.898248	-0.558492
C212	C	1.279901	-0.398248	-0.058492
C213	C	0.810424	-0.909217	-0.493472
C214	C	1.310424	-0.409217	0.006528
H215	H	0.734986	-0.919873	-0.561501
H216	H	1.234986	-0.419873	-0.061501
H217	H	0.775169	-0.849214	-0.562816
H218	H	1.275169	-0.349214	-0.062816
H219	H	0.808844	-0.918226	-0.595269
H220	H	1.308844	-0.418226	-0.095269
H221	H	0.781486	-0.889232	-0.456698
H222	H	1.281486	-0.389232	0.043302
H223	H	0.815150	-0.958248	-0.489143
H224	H	1.315150	-0.458248	0.010857
O225	O	1.088643	-1.132137	-0.299553
O226	O	1.588643	-0.632137	0.200447
C227	C	1.075598	-1.204855	-0.311592
C228	C	1.575598	-0.704855	0.188408
H229	H	1.049903	-1.216000	-0.365300
H230	H	1.549903	-0.716000	0.134700
H231	H	1.039155	-1.222603	-0.269059
H232	H	1.539155	-0.722603	0.230941
C233	C	1.176845	-1.231572	-0.243680
C234	C	1.676845	-0.731572	0.256320
C235	C	1.145291	-1.245261	-0.309648
C236	C	1.645291	-0.745261	0.190352
H237	H	1.219834	-1.256497	-0.242478
H238	H	1.719834	-0.756497	0.257522
H239	H	1.185633	-1.182580	-0.235566
H240	H	1.685633	-0.682580	0.264434
H241	H	1.146469	-1.246361	-0.208243
H242	H	1.646469	-0.746361	0.291757
H243	H	1.175663	-1.230463	-0.345083
H244	H	1.675663	-0.730463	0.154917
H245	H	1.136510	-1.294251	-0.317768
H246	H	1.636510	-0.794251	0.182232
H247	H	0.592249	-0.292898	-0.293106
H248	H	1.092249	0.207102	0.206894
O249	O	1.066630	-0.657064	-0.319563
O250	O	1.566630	-0.157064	0.180437
C251	C	1.105898	-0.705388	-0.283386
C252	C	1.605898	-0.205388	0.216614
H253	H	1.104938	-0.758967	-0.314340
H254	H	1.604938	-0.258967	0.185660
H255	H	1.082147	-0.710130	-0.229149
H256	H	1.582147	-0.210130	0.270851
C257	C	1.183348	-0.613586	-0.237301
C258	C	1.683348	-0.113586	0.262699
C259	C	1.182175	-0.679391	-0.275323
C260	C	1.682175	-0.179391	0.224677
H261	H	1.230399	-0.597550	-0.232324
H262	H	1.730399	-0.097550	0.267676
H263	H	1.156892	-0.581029	-0.261672
H264	H	1.656892	-0.081029	0.238328
H265	H	1.163553	-0.617547	-0.192108
H266	H	1.663553	-0.117547	0.307892
H267	H	1.201962	-0.675428	-0.320518
H268	H	1.701962	-0.175428	0.179482
H269	H	1.208637	-0.711948	-0.250959
H270	H	1.708637	-0.211948	0.249041
H271	H	0.246283	-0.490707	-0.490327
H272	H	0.746283	0.009293	0.009673
H273	H	1.053504	-0.331711	-0.796682
H274	H	1.553504	0.168289	-0.296682
H275	H	0.911879	-1.125710	-0.462386
H276	H	1.411879	-0.625710	0.037614
O277	O	1.060737	-0.801833	-0.325345
O278	O	1.560737	-0.301833	0.174655
C279	C	1.102574	-0.847662	-0.369065
C280	C	1.602574	-0.347662	0.130935
H281	H	1.105331	-0.827779	-0.423820
H282	H	1.605331	-0.327779	0.076180
H283	H	1.078574	-0.902604	-0.372673
H284	H	1.578574	-0.402604	0.127327
C285	C	1.173585	-0.874782	-0.270732
C286	C	1.673585	-0.374782	0.229268
C287	C	1.176976	-0.850359	-0.337981
C288	C	1.676976	-0.350359	0.162019
H289	H	1.219479	-0.876450	-0.251558
H290	H	1.719479	-0.376450	0.248442
H291	H	1.145397	-0.843909	-0.241276
H292	H	1.645397	-0.343909	0.258724
H293	H	1.153582	-0.920566	-0.273748
H294	H	1.653582	-0.420566	0.226252
H295	H	1.196970	-0.804574	-0.334963
H296	H	1.696970	-0.304574	0.165037
H297	H	1.205169	-0.881225	-0.367436
H298	H	1.705169	-0.381225	0.132564
H299	H	0.578633	-0.462699	-0.462394
H300	H	1.078633	0.037301	0.037606
H301	H	0.889357	-0.483058	-0.662757
H302	H	1.389357	0.016942	-0.162757
H303	H	0.917392	-0.992377	-0.457223
H304	H	1.417392	-0.492377	0.042777
H305	H	0.889301	-0.662185	-0.482927
H306	H	1.389301	-0.162185	0.017073
O307	O	0.910207	-0.463643	-0.987106
O308	O	1.410207	0.036357	-0.487106
C309	C	0.868379	-0.420043	-0.941153
C310	C	1.368379	0.079957	-0.441153
H311	H	0.865468	-0.365287	-0.961009
H312	H	1.365468	0.134713	-0.461009
H313	H	0.892489	-0.416392	-0.886273
H314	H	1.392489	0.083608	-0.386273
C315	C	0.797627	-0.518564	-0.913880
C316	C	1.297627	-0.018564	-0.413880
C317	C	0.794047	-0.451314	-0.938271
C318	C	1.294047	0.048686	-0.438271
H319	H	0.751776	-0.537855	-0.912099
H320	H	1.251776	-0.037855	-0.412099
H321	H	0.825808	-0.547939	-0.944837
H322	H	1.325808	-0.047939	-0.444837
H323	H	0.817721	-0.515513	-0.868149
H324	H	1.317721	-0.015513	-0.368149
H325	H	0.773961	-0.454367	-0.984004
H326	H	1.273961	0.045633	-0.484004
H327	H	0.765860	-0.421940	-0.907321
H328	H	1.265860	0.078060	-0.407321
O329	O	1.066661	-0.319554	-0.657714
O330	O	1.566661	0.180446	-0.157714
C331	C	1.105939	-0.283353	-0.706056
C332	C	1.605939	0.216647	-0.206056
H333	H	1.075130	-0.281716	-0.757144
H334	H	1.575130	0.218284	-0.257144
H335	H	1.157799	-0.311659	-0.717093
H336	H	1.657799	0.188341	-0.217093
C337	C	1.158248	-0.209794	-0.612193
C338	C	1.658248	0.290206	-0.112193
C339	C	1.120405	-0.207779	-0.674938
C340	C	1.620405	0.292221	-0.174938
H341	H	1.167174	-0.163178	-0.592998
H342	H	1.667174	0.336822	-0.092998
H343	H	1.131788	-0.234185	-0.579623
H344	H	1.631788	0.265815	-0.079623
H345	H	1.201460	-0.233386	-0.621400
H346	H	1.701460	0.266614	-0.121400
H347	H	1.077190	-0.184195	-0.665729
H348	H	1.577190	0.315805	-0.165729
H349	H	1.146858	-0.183382	-0.707505
H350	H	1.646858	0.316618	-0.207505
H351	H	1.081523	-0.305846	-1.126882
H352	H	1.581523	0.194154	-0.626882
O353	O	0.904186	-0.469312	-1.131923
O354	O	1.404186	0.030688	-0.631923
C355	C	0.864923	-0.505537	-1.083589
C356	C	1.364923	-0.005537	-0.583589
H357	H	0.865887	-0.474606	-1.029998
H358	H	1.365887	0.025394	-0.529998
H359	H	0.888673	-0.559763	-1.078890
H360	H	1.388673	-0.059763	-0.578890
C361	C	0.787463	-0.551627	-1.175353
C362	C	1.287463	-0.051627	-0.675353
C363	C	0.788643	-0.513635	-1.109533
C364	C	1.288643	-0.013635	-0.609533
H365	H	0.740411	-0.556626	-1.191358
H366	H	1.240411	-0.056626	-0.691358
H367	H	0.813917	-0.527224	-1.207918
H368	H	1.313917	-0.027224	-0.707918
H369	H	0.807258	-0.596812	-1.171428
H370	H	1.307258	-0.096812	-0.671428
H371	H	0.768856	-0.468449	-1.113461
H372	H	1.268856	0.031551	-0.613461
H373	H	0.762184	-0.538031	-1.076970
H374	H	1.262184	-0.038031	-0.576970
H375	H	0.379191	-0.496273	-0.495869
H376	H	0.879191	0.003727	0.004131
H377	H	0.259912	-0.320900	-0.321040
H378	H	0.759912	0.179100	0.178960
