data_functionalizedCrystal
_audit_creation_method	'MofGen! by Chris Wilmer'
_symmetry_space_group_name_H-M	'P1'
_symmetry_Int_Tables_number	1
_symmetry_cell_setting	triclinic
loop_
_symmetry_equiv_pos_as_xyz
  x,y,z
_cell_length_a	17.000383
_cell_length_b	17.019294
_cell_length_c	15.186229
_cell_angle_alpha	86.117288
_cell_angle_beta	89.993486
_cell_angle_gamma	79.506204
loop_
_atom_site_label
_atom_site_type_symbol
_atom_site_fract_x
_atom_site_fract_y
_atom_site_fract_z
O1	O	1.056067	0.028436	-0.075445
O2	O	0.824302	0.057066	-0.077604
O3	O	0.946650	-0.072530	-0.067779
O4	O	0.933719	0.158032	-0.085270
O5	O	0.946642	-0.072531	0.078678
O6	O	0.824294	0.057065	0.068853
O7	O	1.056058	0.028435	0.071013
Zn8	Zn	0.940175	0.042750	0.093186
Zn9	Zn	0.940186	0.042751	-0.099778
O10	O	0.933711	0.158031	0.061188
C11	C	0.794642	0.058603	-0.004490
C12	C	0.706279	0.063175	-0.004832
C13	C	0.946155	-0.101886	0.007675
C14	C	0.944684	-0.189354	0.014305
C15	C	0.206028	0.092699	-0.007105
C16	C	0.289056	0.088397	-0.006778
C17	C	0.340136	0.013720	-0.001106
C18	C	0.308184	-0.056658	0.004230
C19	C	0.225157	-0.052355	0.003897
C20	C	0.591300	-0.002900	0.000170
C21	C	0.674332	-0.007198	0.000506
C22	C	0.655199	0.137857	-0.010504
C23	C	0.572171	0.142154	-0.010831
C24	C	0.540227	0.071775	-0.005500
C25	C	0.425004	0.009321	-0.000769
C26	C	0.455360	0.076175	-0.005843
C27	C	0.944000	-0.230442	-0.062413
C28	C	0.942613	-0.312627	-0.056181
C29	C	0.941916	-0.353723	0.026771
C30	C	0.942598	-0.312629	0.103495
C31	C	0.943980	-0.230445	0.097262
C32	C	0.937740	-0.601866	0.049586
C33	C	0.936361	-0.684057	0.055814
C34	C	0.936373	-0.684049	-0.103863
C35	C	0.937760	-0.601864	-0.110089
C36	C	0.938438	-0.560776	-0.033365
C37	C	0.940501	-0.437730	0.033144
C38	C	0.939847	-0.476770	-0.039738
C39	C	1.085718	0.026898	-0.002103
C40	C	1.174082	0.022326	-0.001767
C41	C	0.934205	0.187387	-0.014268
C42	C	0.935676	0.274855	-0.020904
N43	N	0.940173	0.042748	0.224879
N44	N	0.940193	0.042746	-0.231470
C45	C	0.994367	-0.014621	0.454951
C46	C	0.994370	-0.014623	0.547141
C47	C	0.885994	0.100118	0.538451
C48	C	0.885988	0.100116	0.446263
C49	C	0.940179	0.042747	0.404516
C50	C	0.940187	0.042747	0.588893
C51	C	0.940190	0.042745	0.688850
C52	C	0.940176	0.042748	0.304553
H53	H	0.164444	0.153508	-0.011717
O54	O	1.052804	-0.076501	0.409919
H55	H	1.090478	-0.116398	0.460482
O56	O	0.944727	-0.186124	0.180007
H57	H	0.944020	-0.228508	0.238737
H58	H	0.841858	0.146832	0.405196
H59	H	1.038494	-0.061337	0.588203
O60	O	0.941861	-0.356960	0.192964
H61	H	0.887012	-0.383626	0.198810
H62	H	0.315063	0.145702	-0.011133
H63	H	0.413768	0.136976	-0.010465
H64	H	0.841873	0.146827	0.572452
H65	H	0.939936	-0.471201	0.100684
O66	O	0.517078	0.222697	-0.016947
H67	H	0.553242	0.270911	-0.020609
H68	H	0.942058	-0.346078	-0.118653
O69	O	0.689650	0.213764	-0.016258
H70	H	0.727023	0.215277	-0.076067
O71	O	0.729431	-0.087745	0.006613
H72	H	0.693270	-0.135961	0.010255
O73	O	0.940592	-0.432446	-0.129206
H74	H	0.994554	-0.459009	-0.165481
O75	O	0.556849	-0.078804	0.005942
H76	H	0.606319	-0.131451	0.009957
H77	H	0.935820	-0.717511	-0.166327
H78	H	0.349780	-0.117461	0.008843
O79	O	0.938495	-0.557534	-0.199558
H80	H	0.937774	-0.599911	-0.251860
H81	H	0.199148	-0.109661	0.008242
H82	H	0.466602	-0.051481	0.003852
O83	O	0.944743	-0.186119	-0.151885
H84	H	0.998701	-0.212686	-0.188164
O85	O	0.935601	-0.728386	0.145287
H86	H	0.936295	-0.686007	0.197592
H87	H	0.938308	-0.568426	0.112061
