data_functionalizedCrystal
_audit_creation_method	'MofGen! by Chris Wilmer'
_symmetry_space_group_name_H-M	'P1'
_symmetry_Int_Tables_number	1
_symmetry_cell_setting	triclinic
loop_
_symmetry_equiv_pos_as_xyz
  x,y,z
_cell_length_a	10.723024
_cell_length_b	16.109301
_cell_length_c	15.186229
_cell_angle_alpha	90.000638
_cell_angle_beta	89.997422
_cell_angle_gamma	96.035325
loop_
_atom_site_label
_atom_site_type_symbol
_atom_site_fract_x
_atom_site_fract_y
_atom_site_fract_z
O1	O	0.160391	-1.104074	-0.073171
O2	O	0.180351	-0.862130	-0.073184
O3	O	-0.011279	-0.988683	-0.073174
O4	O	0.352021	-0.977521	-0.073181
O5	O	-0.011282	-0.988674	0.073283
O6	O	0.180348	-0.862121	0.073273
O7	O	0.160388	-1.104066	0.073287
Zn8	Zn	0.170368	-0.983092	0.096533
Zn9	Zn	0.170371	-0.983103	-0.096431
O10	O	0.352018	-0.977513	0.073276
C11	C	-0.057770	-0.987866	0.000054
C12	C	-0.196292	-0.985436	0.000050
C13	C	0.179541	-0.831146	0.000043
C14	C	0.177117	-0.738836	0.000037
C15	C	0.161198	-1.135050	0.000058
C16	C	0.163622	-1.227359	0.000057
C17	C	-0.272213	-1.056249	0.000053
C18	C	-0.415383	-1.053739	0.000050
C19	C	0.398508	-0.978329	0.000047
C20	C	0.537031	-0.980760	0.000044
N21	N	0.170364	-0.983091	0.228226
C22	C	0.285190	-0.517200	0.000045
C23	C	0.282903	-0.430466	0.000051
C24	C	0.055540	-0.449003	0.000052
C25	C	0.057829	-0.535735	0.000052
C26	C	0.172657	-0.569831	0.000045
C27	C	0.168081	-0.396365	0.000050
C28	C	0.165600	-0.302324	0.000056
C29	C	0.175139	-0.663877	0.000040
N30	N	0.170365	-0.983112	-0.228123
C31	C	0.085539	-1.039148	0.453953
C32	C	0.085536	-1.039150	0.546143
C33	C	0.255194	-0.927049	0.546143
C34	C	0.255190	-0.927043	0.453955
C35	C	0.170364	-0.983097	0.407862
C36	C	0.170365	-0.983105	0.592240
C37	C	0.170362	-0.983108	0.692196
C38	C	0.170365	-0.983094	0.307900
H39	H	-0.231219	-1.118732	0.000062
O40	O	0.003205	-1.093527	0.409042
C41	C	0.021339	-1.081473	0.317790
H42	H	0.120558	-1.051015	0.305181
H43	H	0.007384	-1.144339	0.282730
H44	H	-0.049261	-1.039321	0.291670
O45	O	-0.493377	-1.125985	0.000013
C46	C	-0.618961	-1.107396	0.000032
H47	H	-0.623800	-1.042052	-0.027697
H48	H	-0.678024	-1.154803	-0.042488
H49	H	-0.656609	-1.110300	0.070295
H50	H	0.374539	-0.387617	0.000053
H51	H	-0.397741	-0.920135	0.000048
O52	O	-0.055890	-0.415742	0.000013
C53	C	-0.033783	-0.327904	0.000032
H54	H	0.063605	-0.308093	-0.027694
H55	H	-0.107251	-0.300861	-0.042490
H56	H	-0.039827	-0.303728	0.070295
H57	H	0.324265	-0.881395	0.416425
O58	O	0.396621	-0.550460	0.000004
C59	C	0.374517	-0.638298	0.000024
H60	H	0.277134	-0.658110	-0.027704
H61	H	0.447992	-0.665340	-0.042497
H62	H	0.380551	-0.662472	0.070287
O63	O	-0.245124	-0.910869	-0.000112
C64	C	-0.204301	-0.865368	-0.075954
H65	H	-0.177143	-0.910236	-0.128966
H66	H	-0.283212	-0.829625	-0.101420
H67	H	-0.119540	-0.819452	-0.058805
O68	O	-0.051608	-0.586747	0.000012
C69	C	-0.153450	-0.538057	0.000033
H70	H	-0.121760	-0.473514	-0.027697
H71	H	-0.232291	-0.569603	-0.042486
H72	H	-0.188651	-0.531682	0.070296
H73	H	0.016463	-1.084791	0.583668
O74	O	0.337551	-0.872686	0.591055
C75	C	0.319349	-0.884696	0.682307
H76	H	0.272737	-0.950528	0.694894
H77	H	0.413847	-0.875989	0.717337
H78	H	0.256748	-0.837285	0.708478
