data_functionalizedCrystal
_audit_creation_method	'MofGen! by Chris Wilmer'
_symmetry_space_group_name_H-M	'P1'
_symmetry_Int_Tables_number	1
_symmetry_cell_setting	triclinic
loop_
_symmetry_equiv_pos_as_xyz
  x,y,z
_cell_length_a	9.065215
_cell_length_b	9.065218
_cell_length_c	7.540329
_cell_angle_alpha	89.996257
_cell_angle_beta	90.000101
_cell_angle_gamma	85.015291
loop_
_atom_site_label
_atom_site_type_symbol
_atom_site_fract_x
_atom_site_fract_y
_atom_site_fract_z
O1	O	-1.960395	-0.216339	0.147454
O2	O	-1.460395	0.283661	0.647454
O3	O	-1.531110	-0.234090	0.147461
O4	O	-1.031110	0.265910	0.647461
O5	O	-1.754626	-0.010572	0.147454
O6	O	-1.254626	0.489428	0.647454
O7	O	-1.736879	-0.439857	0.147461
O8	O	-1.236879	0.060143	0.647461
O9	O	-1.754624	-0.010560	-0.147511
O10	O	-1.254624	0.489440	0.352489
O11	O	-1.531108	-0.234078	-0.147504
O12	O	-1.031108	0.265922	0.352496
O13	O	-1.960393	-0.216327	-0.147511
O14	O	-1.460393	0.283673	0.352489
Cu15	Cu	-1.745750	-0.225201	-0.174440
Cu16	Cu	-1.245750	0.274799	0.325560
Cu17	Cu	-1.745753	-0.225216	0.174390
Cu18	Cu	-1.245753	0.274784	0.674390
O19	O	-1.736877	-0.439845	-0.147504
O20	O	-1.236877	0.060155	0.352496
C21	C	-1.476122	-0.232379	-0.000020
C22	C	-0.976122	0.267621	0.499980
C23	C	-1.312279	-0.227281	-0.000017
C24	C	-0.812279	0.272719	0.499983
C25	C	-1.752919	0.044421	-0.000026
C26	C	-1.252919	0.544421	0.499974
C27	C	-1.747819	0.208264	-0.000017
C28	C	-1.247819	0.708264	0.499983
C29	C	-2.015381	-0.218038	-0.000026
C30	C	-1.515381	0.281962	0.499974
C31	C	-2.179224	-0.223136	-0.000017
C32	C	-1.679224	0.276864	0.499983
N33	N	-1.745755	-0.225215	0.419739
N34	N	-1.245755	0.274785	0.919739
C35	C	-1.738584	-0.494837	-0.000020
C36	C	-1.238584	0.005163	0.499980
C37	C	-1.743683	-0.658680	-0.000017
C38	C	-1.243683	-0.158680	0.499983
N39	N	-1.745760	-0.225190	-0.419789
N40	N	-1.245760	0.274810	0.080211
