data_functionalizedCrystal
_audit_creation_method	'MofGen! by Chris Wilmer'
_symmetry_space_group_name_H-M	'P1'
_symmetry_Int_Tables_number	1
_symmetry_cell_setting	triclinic
loop_
_symmetry_equiv_pos_as_xyz
  x,y,z
_cell_length_a	21.295420
_cell_length_b	21.295416
_cell_length_c	19.120904
_cell_angle_alpha	87.589183
_cell_angle_beta	92.422698
_cell_angle_gamma	89.971418
loop_
_atom_site_label
_atom_site_type_symbol
_atom_site_fract_x
_atom_site_fract_y
_atom_site_fract_z
Zn1	Zn	0.947123	0.265835	-0.397109
Zn2	Zn	0.951531	0.366614	-0.279658
Zn3	Zn	0.846351	0.261360	-0.279674
Zn4	Zn	0.841817	0.371066	-0.397066
O5	O	0.896706	0.316219	-0.338377
O6	O	1.035797	0.279214	-0.381540
O7	O	0.941321	0.348915	-0.181378
O8	O	0.859771	0.173865	-0.295277
O9	O	1.039035	0.353255	-0.295249
O10	O	0.933808	0.177153	-0.381556
O11	O	0.864045	0.271586	-0.181390
O12	O	0.757661	0.275903	-0.295235
O13	O	0.852044	0.360843	-0.495354
O14	O	0.754330	0.356503	-0.381482
O15	O	0.929412	0.283531	-0.495385
O16	O	0.936925	0.455293	-0.295207
O17	O	0.856319	0.458564	-0.381466
C18	C	0.733155	0.316201	-0.338356
C19	C	0.663186	0.316209	-0.338364
C20	C	0.162012	0.358260	-0.383242
C21	C	0.227755	0.358260	-0.383234
C22	C	0.262346	0.316234	-0.338399
C23	C	0.231189	0.274216	-0.293554
C24	C	0.165448	0.274221	-0.293558
N25	N	0.365789	0.260915	-0.333116
N26	N	0.428240	0.260912	-0.333116
C27	C	0.460421	0.316216	-0.338384
N28	N	0.427790	0.371524	-0.343664
N29	N	0.365333	0.371527	-0.343667
C30	C	0.333631	0.316223	-0.338389
C31	C	0.562856	0.358234	-0.383214
C32	C	0.628600	0.358235	-0.383201
C33	C	0.632033	0.274185	-0.293525
C34	C	0.566290	0.274190	-0.293534
C35	C	0.531705	0.316213	-0.338382
C36	C	0.896625	0.479769	-0.338346
C37	C	0.896647	0.549738	-0.338356
C38	C	0.938653	0.580882	-0.293488
C39	C	0.938681	0.646625	-0.293507
C40	C	0.896694	0.681221	-0.338386
C41	C	0.854685	0.650069	-0.383263
C42	C	0.854662	0.584327	-0.383247
N43	N	0.841422	0.784690	-0.343739
N44	N	0.841446	0.847142	-0.343749
C45	C	0.896763	0.879298	-0.338436
N46	N	0.952057	0.846642	-0.333099
N47	N	0.952032	0.784184	-0.333085
C48	C	0.896715	0.752507	-0.338408
C49	C	0.938804	0.981729	-0.293587
C50	C	0.938833	1.047473	-0.293611
C51	C	0.854832	1.050916	-0.383362
C52	C	0.854807	0.985173	-0.383342
C53	C	0.896793	0.950583	-0.338451
C54	C	1.060895	0.316237	-0.338397
C55	C	1.130863	0.316245	-0.338406
C56	C	0.896804	1.152031	-0.338435
C57	C	0.896846	1.082065	-0.338491
C58	C	0.889731	0.323183	-0.521565
C59	C	0.886758	0.326150	-0.599630
C60	C	0.925641	0.287294	-0.636322
C61	C	0.922840	0.290080	-0.709672
C62	C	0.881160	0.331726	-0.746327
C63	C	0.842273	0.370584	-0.709630
C64	C	0.845071	0.367794	-0.636282
C65	C	0.870695	0.342160	-0.967791
C66	C	0.867901	0.344948	-1.041144
C67	C	0.948468	0.264443	-1.041181
C68	C	0.951265	0.261659	-0.967831
C69	C	0.912376	0.300515	-0.931140
C70	C	0.878298	0.334576	-0.821303
C71	C	0.915235	0.297661	-0.856166
C72	C	0.903690	0.309236	-0.155900
C73	C	0.906784	0.306091	-0.077837
H74	H	0.653960	0.392453	-0.419710
H75	H	0.820455	0.558969	-0.419785
H76	H	0.540928	0.239975	-0.257026
H77	H	0.972841	0.552721	-0.256937
O78	O	0.955739	0.257153	-0.820671
C79	C	1.035388	0.177629	-0.828439
C80	C	0.989534	0.223462	-0.868732
H81	H	1.062733	0.150387	-0.867279
H82	H	1.007846	0.143363	-0.794122
H83	H	1.069563	0.205242	-0.794077
H84	H	0.955348	0.195901	-0.903132
H85	H	1.017116	0.257729	-0.903005
H86	H	0.820600	0.959813	-0.419874
O87	O	0.979648	0.948220	-0.249962
C88	C	1.062939	0.951741	-0.160910
C89	C	1.016727	0.989764	-0.210292
H90	H	1.092920	0.985313	-0.128814
H91	H	1.094633	0.922159	-0.193144
H92	H	1.035438	0.919594	-0.124179
H93	H	1.044177	1.021946	-0.247034
H94	H	0.985033	1.019305	-0.178015
O95	O	0.979508	0.676788	-0.249852
C96	C	1.062837	0.666441	-0.160848
C97	C	1.016627	0.632205	-0.210240
H98	H	1.092870	0.630411	-0.128820
H99	H	1.035399	0.695842	-0.124059
H100	H	1.094485	0.698425	-0.193141
H101	H	0.984969	0.600189	-0.178004
H102	H	1.044105	0.602843	-0.247031
H103	H	0.813402	0.399429	-0.606408
O104	O	0.979754	1.077733	-0.250157
C105	C	1.065194	1.151471	-0.240913
C106	C	1.018865	1.117249	-0.290185
H107	H	1.096819	1.183437	-0.273255
H108	H	1.095237	1.115450	-0.208881
H109	H	1.037790	1.180893	-0.204116
H110	H	1.046220	1.087827	-0.327024
H111	H	0.988823	1.153302	-0.322168
H112	H	0.820647	1.079083	-0.419907
H113	H	0.820500	0.678242	-0.419805
H114	H	0.660196	0.239969	-0.257016
H115	H	0.259357	0.239999	-0.257048
O116	O	0.966146	0.246783	-0.600826
C117	C	1.045785	0.167252	-0.608612
C118	C	0.999932	0.213094	-0.648896
H119	H	1.073122	0.140011	-0.647459
H120	H	1.018243	0.132986	-0.574296
H121	H	1.079967	0.194859	-0.574252
H122	H	0.965739	0.185539	-0.683294
H123	H	1.027514	0.247359	-0.683168
H124	H	0.954504	0.258441	-0.739543
O125	O	0.991767	0.221147	-0.932334
C126	C	1.071409	0.141618	-0.940114
C127	C	1.025556	0.187456	-0.980401
H128	H	1.098749	0.114376	-0.978958
H129	H	1.043868	0.107352	-0.905796
H130	H	1.105589	0.169227	-0.905753
H131	H	0.991366	0.159899	-1.014799
H132	H	1.053138	0.221722	-1.014674
O133	O	0.827354	0.385420	-1.076645
C134	C	0.747762	0.465001	-1.068873
C135	C	0.793637	0.419186	-1.028581
H136	H	0.720499	0.492322	-1.030031
H137	H	0.713518	0.437430	-1.103199
H138	H	0.775345	0.499199	-1.103224
H139	H	0.766106	0.384977	-0.994192
H140	H	0.827882	0.446797	-0.994299
O141	O	0.833009	0.379935	-0.932085
C142	C	0.827627	0.461810	-0.849294
C143	C	0.870384	0.419054	-0.889673
H144	H	0.857828	0.493457	-0.815005
H145	H	0.796045	0.431636	-0.814912
H146	H	0.797349	0.492022	-0.888116
H147	H	0.900701	0.388834	-0.850901
H148	H	0.901924	0.449265	-0.924065
O149	O	0.801873	0.411106	-0.745268
C150	C	0.790192	0.499219	-0.828084
C151	C	0.836015	0.453376	-0.787758
H152	H	0.817777	0.533396	-0.862459
H153	H	0.762890	0.526558	-0.789290
H154	H	0.755975	0.471605	-0.862396
H155	H	0.870270	0.480941	-0.753446
H156	H	0.863272	0.426036	-0.826590
H157	H	0.133857	0.392481	-0.419758
H158	H	0.253121	0.392473	-0.419747
H159	H	0.140087	0.240006	-0.257047
H160	H	0.980129	0.232808	-1.071063
H161	H	0.534695	0.392453	-0.419731
H162	H	0.844365	0.368487	-0.851156
