data_functionalizedCrystal
_audit_creation_method	'MofGen! by Chris Wilmer'
_symmetry_space_group_name_H-M	'P1'
_symmetry_Int_Tables_number	1
_symmetry_cell_setting	triclinic
loop_
_symmetry_equiv_pos_as_xyz
  x,y,z
_cell_length_a	10.654556
_cell_length_b	9.130313
_cell_length_c	10.654550
_cell_angle_alpha	89.995693
_cell_angle_beta	95.513844
_cell_angle_gamma	90.001151
loop_
_atom_site_label
_atom_site_type_symbol
_atom_site_fract_x
_atom_site_fract_y
_atom_site_fract_z
O1	O	1.667830	0.121810	-0.176437
O2	O	1.302352	0.121809	-0.193235
O3	O	1.493494	0.121804	-0.002097
O4	O	1.476688	0.121815	-0.367575
O5	O	1.493491	-0.121794	-0.002087
O6	O	1.302350	-0.121789	-0.193225
O7	O	1.667827	-0.121789	-0.176427
Cu8	Cu	1.485088	-0.144032	-0.184825
Cu9	Cu	1.485091	0.144052	-0.184837
O10	O	1.476685	-0.121784	-0.367565
C11	C	1.492259	0.000007	0.044706
C12	C	1.488567	0.000012	0.184149
C13	C	1.255553	0.000010	-0.191995
C14	C	1.116110	0.000010	-0.188300
C15	C	0.919581	0.132807	-0.183106
C16	C	1.050604	0.132801	-0.186571
C17	C	1.050589	-0.132784	-0.186552
C18	C	0.919570	-0.132776	-0.183079
C19	C	0.919590	0.286141	-0.183122
C20	C	1.050613	0.286134	-0.186587
C21	C	1.714626	0.000014	-0.177667
C22	C	1.854069	0.000024	-0.181362
N23	N	1.485094	0.346675	-0.184837
N24	N	1.485095	-0.346654	-0.184816
C25	C	1.569891	0.423325	-0.100367
C26	C	1.569895	0.576662	-0.100360
C27	C	1.400294	0.576685	-0.269295
C28	C	1.400297	0.423351	-0.269307
C29	C	1.667805	0.423312	-0.002830
C30	C	1.667809	0.576649	-0.002822
C31	C	1.477921	0.000017	-0.414368
C32	C	1.481612	0.000022	-0.553812
C33	C	1.601108	0.000008	0.263632
C34	C	1.597631	0.000018	0.394653
C35	C	1.369063	0.000030	0.366695
C36	C	1.372540	0.000031	0.235676
C37	C	1.733071	-0.000006	0.279775
C38	C	1.729594	0.000004	0.410796
H39	H	0.866238	-0.240901	-0.181633
H40	H	0.867885	0.333721	-0.272568
O41	O	1.112109	0.342997	-0.079828
C42	C	1.093463	0.449652	0.124413
C43	C	1.023656	0.385332	0.003567
H44	H	1.021981	0.483869	0.191881
H45	H	1.150605	0.549218	0.099331
H46	H	1.159504	0.363379	0.171528
H47	H	0.957553	0.471498	-0.043607
H48	H	0.966596	0.285735	0.028729
O49	O	1.642664	0.626350	0.112457
C50	C	1.715785	0.768419	0.295631
C51	C	1.744428	0.712210	0.165114
H52	H	1.798031	0.837873	0.338231
H53	H	1.701665	0.671349	0.360100
H54	H	1.626394	0.837733	0.285143
H55	H	1.833829	0.642920	0.175483
H56	H	1.758469	0.809345	0.100694
H57	H	1.775091	-0.105187	0.244152
O58	O	1.794650	0.121500	0.244521
C59	C	1.867732	0.259132	0.072794
C60	C	1.798002	0.121452	0.112549
H61	H	1.870442	0.259154	-0.033910
H62	H	1.968143	0.259168	0.120650
H63	H	1.816151	0.361066	0.102215
H64	H	1.849478	0.019445	0.083135
H65	H	1.697588	0.121546	0.064704
H66	H	1.103936	-0.240905	-0.187950
O67	O	1.318049	0.651106	-0.351516
C68	C	1.245910	0.697986	-0.569116
C69	C	1.339146	0.613645	-0.476140
H70	H	1.262917	0.667706	-0.669895
H71	H	1.260474	0.820762	-0.554713
H72	H	1.145242	0.667850	-0.551560
H73	H	1.439851	0.643657	-0.493640
H74	H	1.324473	0.490888	-0.490566
H75	H	1.769476	0.105184	0.456434
O76	O	1.263101	-0.000019	0.158646
C77	C	1.036025	0.000103	0.144747
C78	C	1.159875	0.000123	0.232128
H79	H	0.952535	0.000249	0.204122
H80	H	1.031838	-0.101866	0.082737
H81	H	1.032021	0.102026	0.082678
H82	H	1.163962	-0.101731	0.294276
H83	H	1.164010	0.102159	0.294052
H84	H	1.764262	0.381711	-0.024528
O85	O	1.317761	0.348962	-0.351245
C86	C	1.099944	0.302122	-0.422500
C87	C	1.193278	0.386430	-0.329607
H88	H	0.999280	0.332407	-0.405056
H89	H	1.114398	0.179340	-0.408009
H90	H	1.117069	0.332281	-0.523278
H91	H	1.176210	0.356394	-0.228793
H92	H	1.178802	0.509191	-0.344209
O93	O	1.631658	0.366778	0.106174
C94	C	1.563559	0.417620	0.310950
C95	C	1.604491	0.481840	0.187576
H96	H	1.541558	0.510616	0.376786
H97	H	1.642922	0.347402	0.358429
H98	H	1.475800	0.347278	0.288926
H99	H	1.692221	0.552248	0.209491
H100	H	1.525053	0.551974	0.140132
H101	H	1.758928	0.624216	-0.033573
O102	O	1.789064	-0.121468	0.460718
C103	C	1.958648	-0.217015	0.603322
C104	C	1.891451	-0.079330	0.546861
H105	H	2.041425	-0.182996	0.672999
H106	H	1.994716	-0.285023	0.524551
H107	H	1.889481	-0.284968	0.654282
H108	H	1.960544	-0.011264	0.495913
H109	H	1.855361	-0.011431	0.625685
H110	H	1.075446	0.344995	-0.275273
H111	H	0.894767	0.345017	-0.094450
H112	H	1.274598	0.000047	0.408665
