data_functionalizedCrystal
_audit_creation_method	'MofGen! by Chris Wilmer'
_symmetry_space_group_name_H-M	'P1'
_symmetry_Int_Tables_number	1
_symmetry_cell_setting	triclinic
loop_
_symmetry_equiv_pos_as_xyz
  x,y,z
_cell_length_a	27.732048
_cell_length_b	16.992695
_cell_length_c	26.809956
_cell_angle_alpha	90.010996
_cell_angle_beta	89.996742
_cell_angle_gamma	86.655438
loop_
_atom_site_label
_atom_site_type_symbol
_atom_site_fract_x
_atom_site_fract_y
_atom_site_fract_z
O1	O	0.644962	0.093243	-0.041409
O2	O	0.504782	0.107422	-0.041423
O3	O	0.574310	-0.013804	-0.041420
O4	O	0.575434	0.214468	-0.041411
O5	O	0.574297	-0.013785	0.041539
O6	O	0.504769	0.107440	0.041536
O7	O	0.644949	0.093261	0.041550
Zn8	Zn	0.574857	0.100354	0.054715
Zn9	Zn	0.574874	0.100329	-0.054587
O10	O	0.575421	0.214487	0.041548
C11	C	0.486755	0.107133	0.000055
C12	C	0.433062	0.106237	0.000049
N13	N	0.574848	0.100370	0.129311
C14	C	0.572858	-0.042989	0.000057
C15	C	0.568544	-0.129981	0.000050
C16	C	0.097100	0.172231	0.000073
C17	C	-0.104703	0.168906	0.000078
O18	O	-0.133350	0.229253	0.000101
N19	N	-0.126935	0.097024	0.000074
C20	C	-0.098712	0.025969	0.000072
O21	O	-0.122252	-0.035247	0.000074
C22	C	0.103090	0.029295	0.000072
C23	C	0.125319	0.101181	0.000070
C24	C	0.119329	0.244112	0.000072
C25	C	0.169777	0.244942	0.000069
C26	C	0.197996	0.173892	0.000066
C27	C	0.175767	0.102012	0.000066
C28	C	0.131312	-0.041760	0.000074
C29	C	0.181765	-0.040922	0.000075
C30	C	0.203994	0.030965	0.000073
C31	C	0.254433	0.031792	0.000060
N32	N	0.276665	0.103674	0.000063
C33	C	0.248446	0.174724	0.000066
C34	C	-0.204662	0.024227	0.000072
C35	C	-0.255112	0.023396	0.000071
C36	C	-0.261100	0.166333	0.000077
C37	C	-0.210648	0.167164	0.000074
C38	C	-0.182430	0.096109	0.000075
C39	C	0.354391	0.176463	0.000058
C40	C	0.404843	0.177287	0.000052
C41	C	0.410826	0.034350	0.000049
C42	C	0.360378	0.033525	0.000052
C43	C	0.332161	0.104588	0.000058
O44	O	0.283110	-0.028522	0.000041
O45	O	0.271995	0.235931	0.000075
C46	C	0.046652	0.171401	0.000077
C47	C	0.024423	0.099520	0.000078
C48	C	0.052642	0.028470	0.000075
C49	C	-0.026027	0.098688	0.000077
C50	C	-0.054246	0.169738	0.000080
C51	C	-0.032014	0.241620	0.000084
C52	C	0.018433	0.242451	0.000080
C53	C	0.030410	-0.043412	0.000071
C54	C	-0.020038	-0.044236	0.000074
C55	C	-0.048257	0.026814	0.000077
C56	C	0.662975	0.093549	0.000072
C57	C	0.716669	0.094446	0.000074
C58	C	0.576873	0.243672	0.000069
C59	C	0.581187	0.330664	0.000073
C60	C	0.539564	0.381409	0.000069
C61	C	0.543620	0.463146	0.000063
C62	C	0.589300	0.494138	0.000065
C63	C	0.630926	0.443386	0.000068
C64	C	0.626870	0.361650	0.000070
C65	C	0.606113	0.737532	0.000055
C66	C	0.610167	0.819274	0.000054
C67	C	0.522860	0.839029	0.000048
C68	C	0.518808	0.757290	0.000054
C69	C	0.560434	0.706546	0.000054
N70	N	0.593447	0.577686	0.000061
N71	N	0.556286	0.622999	0.000055
N72	N	0.574886	0.100307	-0.129183
C73	C	0.605658	0.046664	0.473938
C74	C	0.605669	0.046652	0.682816
O75	O	0.631844	0.000994	0.709821
N76	N	0.574876	0.100312	0.708938
C77	C	0.544077	0.153976	0.682838
O78	O	0.517882	0.199611	0.709849
C79	C	0.544063	0.153983	0.473961
C80	C	0.574861	0.100325	0.447841
C81	C	0.636453	-0.006991	0.447819
C82	C	0.636452	-0.006984	0.395602
C83	C	0.605655	0.046677	0.369506
C84	C	0.574860	0.100331	0.395625
C85	C	0.513262	0.207643	0.447861
C86	C	0.513260	0.207638	0.395639
C87	C	0.544058	0.153980	0.369519
C88	C	0.544063	0.153999	0.317312
N89	N	0.574855	0.100338	0.291190
C90	C	0.605652	0.046677	0.317287
C91	C	0.544086	0.153969	0.792501
C92	C	0.544090	0.153968	0.844720
C93	C	0.605682	0.046643	0.844694
C94	C	0.605680	0.046648	0.792475
C95	C	0.574879	0.100309	0.766379
C96	C	0.605647	0.046695	0.207629
C97	C	0.605645	0.046709	0.155408
C98	C	0.544051	0.154031	0.155438
C99	C	0.544055	0.154020	0.207654
C100	C	0.574855	0.100346	0.233748
O101	O	0.517897	0.199627	0.290275
O102	O	0.631834	0.001037	0.290266
C103	C	0.605659	0.046657	0.526154
C104	C	0.574864	0.100312	0.552274
C105	C	0.544068	0.153973	0.526177
C106	C	0.574868	0.100311	0.604493
C107	C	0.605664	0.046650	0.630590
C108	C	0.636456	-0.007010	0.604467
C109	C	0.636455	-0.007004	0.552251
C110	C	0.513275	0.207633	0.552299
C111	C	0.513279	0.207623	0.604516
C112	C	0.544075	0.153962	0.630612
H113	H	0.331422	0.234329	0.000065
C114	C	0.679291	0.695533	-0.042580
C115	C	0.651871	0.681766	0.000062
H116	H	0.707543	0.661107	-0.042573
H117	H	0.660697	0.686177	-0.071507
H118	H	0.688235	0.748653	-0.042575
H119	H	0.642924	0.628648	0.000054
H120	H	0.670468	0.691116	0.028996
C121	C	0.090617	-0.125409	0.042707
C122	C	0.061424	-0.121516	0.000064
H123	H	0.109759	-0.173634	0.042701
H124	H	0.111079	-0.082491	0.042705
H125	H	0.070807	-0.122756	0.071636
H126	H	0.081234	-0.124164	-0.028865
H127	H	0.040960	-0.164446	0.000062
H128	H	-0.273206	-0.035141	0.000064
H129	H	0.630726	0.002988	0.228869
C130	C	-0.092233	0.323590	-0.042555
C131	C	-0.063040	0.319719	0.000088
H132	H	-0.111390	0.371800	-0.042548
H133	H	-0.072427	0.320949	-0.071481
H134	H	-0.112685	0.280650	-0.042551
H135	H	-0.042585	0.362656	0.000082
H136	H	-0.082848	0.322368	0.029021
C137	C	0.675911	0.559908	0.000073
C138	C	0.681139	0.477450	0.000072
H139	H	0.706912	0.580934	0.000080
H140	H	0.658649	0.577348	-0.028857
H141	H	0.658634	0.577364	0.029002
H142	H	0.698413	0.459993	-0.028860
H143	H	0.698409	0.460003	0.029005
C144	C	0.612006	-0.060181	0.733778
C145	C	0.639513	-0.012387	0.763783
H146	H	0.632890	-0.096640	0.716070
H147	H	0.590798	-0.088093	0.754162
H148	H	0.593683	-0.028221	0.710746
H149	H	0.657833	-0.044347	0.786817
H150	H	0.660729	0.015527	0.743397
C151	C	0.642724	-0.113898	0.493611
C152	C	0.670263	-0.066113	0.523588
H153	H	0.663584	-0.150425	0.475930
H154	H	0.621490	-0.141733	0.514012
H155	H	0.624426	-0.081942	0.470557
H156	H	0.688557	-0.098069	0.546645
H157	H	0.691505	-0.038277	0.503186
H158	H	0.509726	0.504460	0.000058
C159	C	0.672950	0.258279	0.042721
C160	C	0.672622	0.305866	0.000076
H161	H	0.701196	0.223838	0.042720
H162	H	0.672717	0.290585	0.071645
H163	H	0.645162	0.228130	0.042714
H164	H	0.700409	0.336020	0.000084
H165	H	0.672860	0.273556	-0.028856
C166	C	0.485900	0.255305	0.315603
C167	C	0.479403	0.266626	0.366954
H168	H	0.464997	0.291719	0.297897
H169	H	0.518468	0.263463	0.307046
H170	H	0.478635	0.203055	0.307042
H171	H	0.486672	0.318875	0.375517
H172	H	0.446828	0.258474	0.375516
H173	H	0.096358	0.301972	0.000077
C174	C	-0.073291	-0.128129	-0.042570
C175	C	-0.044467	-0.123263	0.000074
H176	H	-0.088368	-0.176918	-0.042568
H177	H	-0.097320	-0.085944	-0.042564
H178	H	-0.053731	-0.124838	-0.071498
H179	H	-0.064028	-0.126548	0.029002
H180	H	-0.020435	-0.165459	0.000072
C181	C	0.666525	-0.059384	0.160636
C182	C	0.639498	-0.012281	0.126698
H183	H	0.687420	-0.095803	0.142912
H184	H	0.685162	-0.026955	0.181005
H185	H	0.645320	-0.087348	0.181001
H186	H	0.660702	0.015688	0.106335
H187	H	0.620859	-0.044713	0.106320
C188	C	0.071694	0.326329	0.042719
C189	C	0.042867	0.321467	0.000077
H190	H	0.086778	0.375111	0.042713
H191	H	0.052137	0.323046	0.071645
H192	H	0.095721	0.284132	0.042713
H193	H	0.018837	0.363661	0.000085
H194	H	0.062425	0.324757	-0.028857
C195	C	0.432916	0.785030	0.000045
C196	C	0.468595	0.723228	0.000050
H197	H	0.401917	0.763999	0.000042
H198	H	0.436310	0.816510	0.028971
H199	H	0.436320	0.816488	-0.028889
H200	H	0.465193	0.691773	0.028986
H201	H	0.465199	0.691735	-0.028879
C202	C	0.484342	0.300976	0.042714
C203	C	0.489350	0.347349	0.000067
H204	H	0.453340	0.279957	0.042712
H205	H	0.508546	0.259058	0.042715
H206	H	0.487736	0.332472	0.071640
H207	H	0.485960	0.315853	-0.028859
H208	H	0.465139	0.389274	0.000062
H209	H	0.488971	0.880353	0.000048
H210	H	0.647367	0.844503	0.000057
H211	H	0.113222	-0.100297	0.000075
C212	C	0.537713	0.260764	0.733800
C213	C	0.510232	0.212967	0.763821
H214	H	0.516813	0.297186	0.716095
H215	H	0.558913	0.288718	0.754174
H216	H	0.556044	0.228801	0.710766
H217	H	0.491903	0.244929	0.786857
H218	H	0.489023	0.185011	0.743445
C219	C	0.697325	-0.113076	0.400839
C220	C	0.670300	-0.065977	0.366896
H221	H	0.718219	-0.149502	0.383118
H222	H	0.715963	-0.080645	0.421205
H223	H	0.676118	-0.141032	0.421207
H224	H	0.691507	-0.038016	0.346530
H225	H	0.651660	-0.098412	0.346521
H226	H	0.661531	-0.050692	0.469062
H227	H	0.488196	0.251330	0.531055
C228	C	0.462230	0.200921	0.860808
C229	C	0.510239	0.212954	0.873428
H230	H	0.441331	0.237334	0.878533
H231	H	0.457827	0.208601	0.825977
H232	H	0.454972	0.148670	0.869364
H233	H	0.517498	0.265204	0.864868
H234	H	0.514645	0.205281	0.908267
C235	C	0.612041	-0.060136	0.903404
C236	C	0.639531	-0.012349	0.873385
H237	H	0.632936	-0.096558	0.921116
H238	H	0.593708	-0.028171	0.926428
H239	H	0.590842	-0.088096	0.883025
H240	H	0.660727	0.015616	0.893765
H241	H	0.657872	-0.044318	0.850359
H242	H	0.488183	0.251336	0.469121
C243	C	0.483169	0.260098	0.202431
C244	C	0.510200	0.212998	0.236368
H245	H	0.462263	0.296499	0.220156
H246	H	0.504367	0.288075	0.182073
H247	H	0.464538	0.227659	0.182054
H248	H	0.528834	0.245437	0.256743
H249	H	0.489000	0.185019	0.256734
C250	C	0.659587	-0.143008	0.620529
C251	C	0.670306	-0.066000	0.633160
H252	H	0.680484	-0.179425	0.638242
H253	H	0.627017	-0.151148	0.629086
H254	H	0.664000	-0.150681	0.585691
H255	H	0.665890	-0.058325	0.667997
H256	H	0.702884	-0.057857	0.624606
C257	C	0.431415	0.254570	0.620598
C258	C	0.479422	0.266608	0.633224
H259	H	0.410512	0.290978	0.638323
H260	H	0.427014	0.262253	0.585767
H261	H	0.424159	0.202317	0.629151
H262	H	0.486679	0.318860	0.624667
H263	H	0.483825	0.258932	0.668062
C264	C	0.415259	0.299374	-0.042592
C265	C	0.429273	0.256313	0.000051
H266	H	0.430337	0.348161	-0.042589
H267	H	0.424762	0.270141	-0.071517
H268	H	0.381172	0.309032	-0.042583
H269	H	0.463359	0.246649	0.000041
H270	H	0.419772	0.285552	0.028985
H271	H	0.518979	0.197723	0.134181
H272	H	-0.192553	0.225700	0.000076
C273	C	0.158776	0.386141	0.000083
C274	C	0.194206	0.323963	0.000076
H275	H	0.173856	0.434927	0.000093
H276	H	0.139227	0.382838	-0.028846
H277	H	0.139220	0.382833	0.029014
H278	H	0.213760	0.327268	-0.028857
H279	H	0.213763	0.327268	0.029008
H280	H	-0.181691	-0.033637	0.000073
C281	C	-0.281747	0.287910	-0.042559
C282	C	-0.292124	0.244434	0.000083
H283	H	-0.300905	0.336120	-0.042554
H284	H	-0.248525	0.298699	-0.042555
H285	H	-0.288784	0.258398	-0.071489
H286	H	-0.285085	0.273943	0.029012
H287	H	-0.325354	0.233647	0.000083
H288	H	0.204738	-0.098785	0.000076
C289	C	0.371367	-0.107678	0.000042
C290	C	0.335941	-0.045492	0.000048
H291	H	0.356282	-0.156460	0.000046
H292	H	0.390916	-0.104386	-0.028889
H293	H	0.390922	-0.104369	0.028971
H294	H	0.316388	-0.048798	-0.028883
H295	H	0.316384	-0.048786	0.028982
H296	H	0.433811	-0.023497	0.000044
