data_functionalizedCrystal
_audit_creation_method	'MofGen! by Chris Wilmer'
_symmetry_space_group_name_H-M	'P1'
_symmetry_Int_Tables_number	1
_symmetry_cell_setting	triclinic
loop_
_symmetry_equiv_pos_as_xyz
  x,y,z
_cell_length_a	29.999520
_cell_length_b	29.998686
_cell_length_c	29.995014
_cell_angle_alpha	60.005185
_cell_angle_beta	60.010401
_cell_angle_gamma	59.993433
loop_
_atom_site_label
_atom_site_type_symbol
_atom_site_fract_x
_atom_site_fract_y
_atom_site_fract_z
O1	O	0.061772	-0.651300	0.544623
O2	O	0.023267	-0.507084	0.438819
O3	O	0.114589	-0.598332	0.438743
O4	O	-0.029550	-0.560051	0.544699
O5	O	0.144886	-0.568039	0.468961
O6	O	0.053564	-0.476791	0.469038
O7	O	0.092069	-0.621007	0.574841
Zn8	Zn	0.077627	-0.544089	0.526737
Zn9	Zn	0.037709	-0.584002	0.486923
O10	O	0.000748	-0.529758	0.574918
N11	N	0.104871	-0.516854	0.553912
N12	N	0.010470	-0.611242	0.459748
C13	C	0.143162	-0.478782	0.827124
C14	C	0.378203	-0.478734	0.591892
C15	C	0.143005	-0.478752	0.591997
C16	C	0.142986	-0.243586	0.592008
C17	C	0.180857	-0.357087	0.629814
C18	C	0.180866	-0.440920	0.629807
C19	C	0.201840	-0.419964	0.650755
C20	C	0.293272	-0.404201	0.602606
C21	C	0.350426	-0.423248	0.583534
C22	C	0.350451	-0.515727	0.618798
C23	C	0.293297	-0.496678	0.637872
C24	C	0.194628	-0.328499	0.573626
C25	C	0.175551	-0.271340	0.554591
C26	C	0.128936	-0.271362	0.647935
C27	C	0.148014	-0.328521	0.666970
C28	C	0.124672	-0.427119	0.643641
C29	C	0.105611	-0.446170	0.624592
C30	C	0.198934	-0.492820	0.577889
C31	C	0.217998	-0.473770	0.596931
C32	C	0.124740	-0.427136	0.742229
C33	C	0.105728	-0.446202	0.799386
C34	C	0.199085	-0.492863	0.799337
C35	C	0.218096	-0.473798	0.742178
C36	C	0.180923	-0.440933	0.713626
C37	C	0.264710	-0.440915	0.629773
C38	C	0.121509	-0.499370	0.889991
C39	C	0.441068	-0.498953	0.570621
C40	C	0.121297	-0.499349	0.571429
C41	C	0.121653	-0.180715	0.571802
C42	C	-0.111071	-0.648912	0.421584
C43	C	-0.027286	-0.649018	0.421777
C44	C	-0.048200	-0.669944	0.400740
C45	C	-0.064036	-0.761340	0.448814
C46	C	-0.045033	-0.818500	0.467893
C47	C	0.047447	-0.818609	0.432797
C48	C	0.028444	-0.761451	0.413717
C49	C	-0.139731	-0.662677	0.477755
C50	C	-0.196885	-0.643554	0.496701
C51	C	-0.196717	-0.596907	0.403303
C52	C	-0.139562	-0.616030	0.384357
C53	C	-0.041053	-0.592827	0.407952
C54	C	-0.022041	-0.573809	0.427083
C55	C	0.024504	-0.667167	0.473848
C56	C	0.005492	-0.686188	0.454725
C57	C	-0.040886	-0.592836	0.309259
C58	C	-0.021740	-0.573821	0.252102
C59	C	0.024886	-0.667185	0.252163
C60	C	0.005743	-0.686199	0.309322
C61	C	-0.027145	-0.649023	0.337868
C62	C	-0.027299	-0.732818	0.421728
N63	N	0.492511	-0.516826	0.553742
O64	O	0.679283	-0.525926	0.419277
O65	O	0.679465	-0.632059	0.563349
O66	O	0.679393	-0.631817	0.471975
O67	O	0.679355	-0.526168	0.510650
O68	O	0.588593	-0.601610	0.502313
O69	O	0.588665	-0.601852	0.593686
O70	O	0.588483	-0.495720	0.449614
Zn71	Zn	0.574158	-0.543990	0.526467
Zn72	Zn	0.693790	-0.583788	0.486496
O73	O	0.588555	-0.495962	0.540987
N74	N	0.775436	-0.610952	0.459215
N75	N	0.104844	-0.129269	0.553931
O76	O	-0.029548	0.057600	0.544709
O77	O	0.114530	0.057617	0.438578
O78	O	0.023130	0.057594	0.438850
O79	O	0.061852	0.057623	0.544437
O80	O	0.053431	-0.033213	0.469115
O81	O	0.144831	-0.033190	0.468843
O82	O	0.000753	-0.033207	0.574974
Zn83	Zn	0.077603	-0.047616	0.526714
Zn84	Zn	0.037680	0.072026	0.486838
O85	O	0.092153	-0.033184	0.574702
N86	N	0.010432	0.153679	0.459622
N87	N	0.105130	-0.516904	0.941437
O88	O	0.095923	-0.651280	1.128292
O89	O	-0.010184	-0.507155	1.128318
O90	O	-0.009938	-0.598539	1.128284
O91	O	0.095677	-0.559897	1.128326
O92	O	0.020315	-0.568257	1.037481
O93	O	0.020068	-0.476874	1.037515
O94	O	0.126176	-0.620999	1.037489
Zn95	Zn	0.077925	-0.544128	1.023085
Zn96	Zn	0.038066	-0.584026	1.142722
O97	O	0.125929	-0.529616	1.037523
N98	N	0.010860	-0.611256	1.224371
C99	C	0.034807	-0.473765	0.439352
C100	C	0.147897	-0.586765	0.439257
C101	C	0.080529	-0.654326	0.574308
C102	C	-0.032561	-0.541326	0.574403
C103	C	0.634087	-0.631571	0.596668
C104	C	0.633999	-0.631272	0.483513
C105	C	0.633858	-0.496206	0.416295
C106	C	0.633949	-0.496507	0.529449
C107	C	0.147793	0.012327	0.439058
C108	C	0.034644	0.012187	0.439432
C109	C	-0.032548	0.012195	0.574457
C110	C	0.080639	0.012222	0.574120
C111	C	-0.009670	-0.473857	1.082920
C112	C	-0.009359	-0.587018	1.082860
C113	C	0.125662	-0.654297	1.082887
C114	C	0.125358	-0.541129	1.082927
H115	H	0.094465	-0.400370	0.718985
C116	C	0.108765	-0.850112	0.423992
C117	C	0.138204	-0.842292	0.448077
C118	C	0.199519	-0.873794	0.439272
C119	C	0.231396	-0.913116	0.406382
C120	C	0.201957	-0.920938	0.382295
C121	C	0.140641	-0.889435	0.391100
H122	H	0.114606	-0.813182	0.472426
H123	H	0.221312	-0.868004	0.457103
H124	H	0.276786	-0.936436	0.399864
H125	H	0.225554	-0.950048	0.357946
H126	H	0.118849	-0.895226	0.373268
C127	C	0.634018	-0.676111	0.472337
C128	C	0.681147	-0.697418	0.425798
C129	C	0.681166	-0.742257	0.414622
C130	C	0.634056	-0.765789	0.449985
C131	C	0.586924	-0.744483	0.496528
C132	C	0.586905	-0.699643	0.507704
H133	H	0.716023	-0.679997	0.399616
H134	H	0.716056	-0.758029	0.380167
H135	H	0.634070	-0.798982	0.441712
H136	H	0.552047	-0.761903	0.522709
H137	H	0.552014	-0.683871	0.542158
C138	C	0.170186	-0.529965	1.082935
C139	C	0.159009	-0.473969	1.082949
C140	C	0.203837	-0.462804	1.082957
C141	C	0.259842	-0.507636	1.082951
C142	C	0.271020	-0.563635	1.082937
C143	C	0.226192	-0.574800	1.082929
H144	H	0.117550	-0.440779	1.082954
H145	H	0.195562	-0.421350	1.082968
H146	H	0.293026	-0.499371	1.082957
H147	H	0.312480	-0.596825	1.082933
H148	H	0.234468	-0.616255	1.082919
C149	C	-0.088488	-0.530309	0.619355
C150	C	-0.109213	-0.483853	0.640784
C151	C	-0.165139	-0.472837	0.685736
C152	C	-0.200341	-0.508276	0.709259
C153	C	-0.179617	-0.554735	0.687830
C154	C	-0.123690	-0.565752	0.642878
H155	H	-0.083154	-0.457616	0.623371
H156	H	-0.180480	-0.438444	0.701599
H157	H	-0.241741	-0.500121	0.742535
H158	H	-0.205676	-0.580973	0.705243
H159	H	-0.108349	-0.600144	0.627015
H160	H	-0.042525	-0.595273	1.082811
C161	C	-0.088445	0.012191	0.619472
C162	C	-0.123596	0.059348	0.642961
C163	C	-0.179493	0.059343	0.687976
C164	C	-0.200238	0.012182	0.709501
C165	C	-0.165086	-0.034978	0.686011
C166	C	-0.109189	-0.034974	0.640996
H167	H	-0.108240	0.094262	0.627027
H168	H	-0.205515	0.094255	0.705364
H169	H	-0.241616	0.012179	0.742823
H170	H	-0.180442	-0.069892	0.701945
H171	H	-0.083167	-0.069885	0.623608
H172	H	0.088930	0.012231	0.607291
C173	C	0.023699	-0.417802	0.394456
C174	C	0.059085	-0.382546	0.370933
C175	C	0.047977	-0.326582	0.326037
C176	C	0.001483	-0.305875	0.304664
C177	C	-0.033906	-0.341131	0.328187
C178	C	-0.022798	-0.397095	0.373083
H179	H	0.093505	-0.397874	0.386754
H180	H	0.074174	-0.300483	0.308624
H181	H	-0.006739	-0.264447	0.271429
H182	H	-0.068326	-0.325803	0.312366
H183	H	-0.048995	-0.423194	0.390496
H184	H	0.229173	-0.519573	0.551126
H185	H	0.634133	-0.664888	0.638048
H186	H	0.158977	-0.695688	1.082873
H187	H	0.088756	-0.695753	0.607538
H188	H	0.059977	-0.434960	0.822668
H189	H	0.026351	0.012184	0.406260
C190	C	0.633782	-0.451188	0.360401
C191	C	0.633752	-0.462098	0.315410
C192	C	0.633676	-0.417080	0.259515
C193	C	0.633630	-0.361152	0.248611
C194	C	0.633660	-0.350239	0.293604
C195	C	0.633736	-0.395257	0.349498
H196	H	0.633787	-0.503502	0.323480
H197	H	0.633654	-0.425159	0.226209
H198	H	0.633574	-0.327826	0.207235
H199	H	0.633625	-0.308835	0.285533
H200	H	0.633758	-0.387179	0.382805
C201	C	-0.054677	-0.417940	1.082930
C202	C	-0.043772	-0.372947	1.082950
C203	C	-0.088779	-0.317030	1.082960
C204	C	-0.144690	-0.306105	1.082950
C205	C	-0.155598	-0.351099	1.082930
C206	C	-0.110591	-0.407016	1.082920
H207	H	-0.002381	-0.381033	1.082957
H208	H	-0.080704	-0.283723	1.082974
H209	H	-0.178007	-0.264712	1.082957
H210	H	-0.196989	-0.343013	1.082922
H211	H	-0.118666	-0.440324	1.082905
C212	C	-0.228057	-0.560743	0.362352
C213	C	-0.267314	-0.502695	0.362543
C214	C	-0.298651	-0.466531	0.321589
C215	C	-0.290731	-0.488414	0.280445
C216	C	-0.251472	-0.546466	0.280253
C217	C	-0.220135	-0.582630	0.321206
H218	H	-0.273179	-0.486493	0.393002
H219	H	-0.327713	-0.423557	0.321732
H220	H	-0.313929	-0.461643	0.250129
H221	H	-0.245608	-0.562668	0.249794
H222	H	-0.191073	-0.625604	0.321063
C223	C	0.633932	-0.451668	0.540625
C224	C	0.633985	-0.462847	0.596609
C225	C	0.633968	-0.418008	0.607784
C226	C	0.633897	-0.361991	0.562976
C227	C	0.633844	-0.350810	0.506988
C228	C	0.633862	-0.395648	0.495813
H229	H	0.634037	-0.504316	0.629782
H230	H	0.634007	-0.426285	0.649230
H231	H	0.633885	-0.328799	0.571248
H232	H	0.633793	-0.309340	0.473815
H233	H	0.633823	-0.387371	0.454367
H234	H	0.189295	-0.594927	0.405983
H235	H	0.189085	0.012584	0.405656
H236	H	0.263847	-0.485039	0.718893
C237	C	0.239978	-0.529007	0.830741
C238	C	0.301778	-0.544178	0.799275
C239	C	0.342672	-0.580323	0.830678
C240	C	0.321767	-0.601296	0.893548
C241	C	0.259964	-0.586125	0.925017
C242	C	0.219070	-0.549980	0.893613
H243	H	0.317256	-0.528652	0.752732
H244	H	0.388423	-0.591554	0.807382
H245	H	0.352040	-0.628053	0.916794
H246	H	0.244486	-0.601651	0.971560
H247	H	0.173319	-0.538749	0.916910
H248	H	0.059853	-0.434921	0.635844
C249	C	0.083826	-0.390981	0.679800
C250	C	0.042734	-0.412862	0.734935
C251	C	0.001886	-0.376724	0.771097
C252	C	0.002130	-0.318705	0.752123
C253	C	0.043223	-0.296822	0.696985
C254	C	0.084071	-0.332960	0.660824
H255	H	0.042552	-0.455813	0.748983
H256	H	-0.028534	-0.392924	0.811913
H257	H	-0.028109	-0.291954	0.778891
H258	H	0.043405	-0.253871	0.682937
H259	H	0.114491	-0.316760	0.620007
H260	H	0.270043	-0.526578	0.659994
C261	C	0.279819	-0.488916	0.581647
C262	C	0.305687	-0.443692	0.549786
C263	C	0.367511	-0.458825	0.534468
C264	C	0.403467	-0.519181	0.551012
C265	C	0.377599	-0.564409	0.582874
C266	C	0.315775	-0.549277	0.598192
H267	H	0.279071	-0.399009	0.537538
H268	H	0.386660	-0.425343	0.510882
H269	H	0.449233	-0.530383	0.539673
H270	H	0.404216	-0.609092	0.595122
H271	H	0.296626	-0.582758	0.621779
C272	C	0.381902	-0.577068	0.627703
C273	C	0.350485	-0.617456	0.657588
C274	C	0.381935	-0.678796	0.666494
C275	C	0.444803	-0.699749	0.645515
C276	C	0.476223	-0.659361	0.615627
C277	C	0.444773	-0.598020	0.606721
H278	H	0.303944	-0.601946	0.673120
H279	H	0.358675	-0.708694	0.688619
H280	H	0.468084	-0.745157	0.652107
H281	H	0.522765	-0.674871	0.600095
H282	H	0.468033	-0.568123	0.584597
H283	H	0.270000	-0.358795	0.596010
C284	C	0.381847	-0.382863	0.553644
C285	C	0.350402	-0.321524	0.544731
C286	C	0.381824	-0.281137	0.514839
C287	C	0.444692	-0.302089	0.493859
C288	C	0.476140	-0.363432	0.502771
C289	C	0.444718	-0.403818	0.532664
H290	H	0.303860	-0.306011	0.560262
H291	H	0.358543	-0.235727	0.508241
H292	H	0.467952	-0.272193	0.471731
H293	H	0.522682	-0.378945	0.487240
H294	H	0.467999	-0.449228	0.539261
H295	H	0.221368	-0.351757	0.543370
H296	H	0.102202	-0.248101	0.678192
C297	C	0.190697	-0.239888	0.492780
C298	C	0.251052	-0.247732	0.456878
C299	C	0.266200	-0.216280	0.395069
C300	C	0.220993	-0.176984	0.369161
C301	C	0.160634	-0.169138	0.405063
C302	C	0.145486	-0.200590	0.466873
H303	H	0.284520	-0.276823	0.476057
H304	H	0.310882	-0.222089	0.368492
H305	H	0.232206	-0.153702	0.323405
H306	H	0.127165	-0.140047	0.385885
H307	H	0.100804	-0.194782	0.493450
C308	C	-0.036867	-0.512010	0.220639
C309	C	-0.020262	-0.476155	0.228563
C310	C	-0.035388	-0.414345	0.197099
C311	C	-0.067119	-0.388390	0.157711
C312	C	-0.083725	-0.424246	0.149785
C313	C	-0.068599	-0.486055	0.181249
H314	H	0.003228	-0.495368	0.257722
H315	H	-0.023095	-0.387803	0.202966
H316	H	-0.078316	-0.342635	0.134419
H317	H	-0.107216	-0.405032	0.120626
H318	H	-0.080893	-0.512598	0.175382
H319	H	-0.067667	-0.562559	0.332499
C320	C	0.061052	-0.708080	0.220768
C321	C	0.116128	-0.749260	0.228742
C322	C	0.152294	-0.790158	0.197347
C323	C	0.133383	-0.789876	0.157977
C324	C	0.078304	-0.748695	0.150001
C325	C	0.042138	-0.707797	0.181396
H326	H	0.130129	-0.749470	0.257887
H327	H	0.193067	-0.820643	0.203251
H328	H	0.160155	-0.820152	0.134736
H329	H	0.064302	-0.748486	0.120856
H330	H	0.001365	-0.677312	0.175492
H331	H	0.136793	-0.351798	0.712725
H332	H	-0.067739	-0.562558	0.381123
C333	C	0.060576	-0.708064	0.510072
C334	C	0.118595	-0.707876	0.491188
C335	C	0.154673	-0.748778	0.527406
C336	C	0.132733	-0.789868	0.582509
C337	C	0.074711	-0.790058	0.601396
C338	C	0.038633	-0.749156	0.565178
H339	H	0.134839	-0.677457	0.450395
H340	H	0.197625	-0.748637	0.513425
H341	H	0.159440	-0.820147	0.609321
H342	H	0.058467	-0.820477	0.642189
H343	H	-0.004319	-0.749297	0.579159
C344	C	0.068856	-0.730075	0.383923
C345	C	0.103518	-0.737969	0.413255
C346	C	0.143931	-0.706593	0.383460
C347	C	0.149682	-0.667323	0.324332
C348	C	0.115020	-0.659428	0.294997
C349	C	0.074607	-0.690804	0.324792
H350	H	0.099261	-0.767040	0.457028
H351	H	0.169590	-0.712438	0.405177
H352	H	0.179598	-0.644097	0.302276
H353	H	0.119277	-0.630357	0.251224
H354	H	0.048948	-0.684959	0.303075
C355	C	-0.085452	-0.849867	0.497695
C356	C	-0.132302	-0.841945	0.550733
C357	C	-0.172725	-0.873311	0.580538
C358	C	-0.166299	-0.912599	0.557306
C359	C	-0.119447	-0.920523	0.504266
C360	C	-0.079023	-0.889157	0.474461
H361	H	-0.137061	-0.812860	0.567933
H362	H	-0.207408	-0.867445	0.619802
H363	H	-0.196223	-0.935817	0.579370
H364	H	-0.114687	-0.949608	0.487066
H365	H	-0.044340	-0.895023	0.435197
H366	H	0.016937	-0.731954	0.332612
H367	H	-0.033252	-0.528055	0.415829
H368	H	-0.109425	-0.738032	0.455342
C369	C	-0.108387	-0.698844	0.518701
C370	C	-0.116304	-0.676967	0.559848
C371	C	-0.084960	-0.713135	0.600796
C372	C	-0.045701	-0.771180	0.600597
C373	C	-0.037783	-0.793061	0.559448
C374	C	-0.069126	-0.756893	0.518500
H375	H	-0.145368	-0.633995	0.559997
H376	H	-0.090822	-0.696937	0.631257
H377	H	-0.022499	-0.797954	0.630909
H378	H	-0.008719	-0.836032	0.559299
H379	H	-0.063264	-0.773090	0.488039
C380	C	-0.228417	-0.658689	0.558493
C381	C	-0.220623	-0.642070	0.594435
C382	C	-0.252155	-0.657203	0.656225
C383	C	-0.291482	-0.688955	0.682074
C384	C	-0.299278	-0.705575	0.646131
C385	C	-0.267745	-0.690442	0.584341
H386	H	-0.191510	-0.618565	0.575301
H387	H	-0.246384	-0.644900	0.682832
H388	H	-0.314824	-0.700157	0.727815
H389	H	-0.328391	-0.729080	0.665266
H390	H	-0.273516	-0.702745	0.557734
H391	H	0.016700	-0.731943	0.465981
H392	H	-0.116227	-0.604815	0.338615
