data_functionalizedCrystal
_audit_creation_method	'MofGen! by Chris Wilmer'
_symmetry_space_group_name_H-M	'P1'
_symmetry_Int_Tables_number	1
_symmetry_cell_setting	triclinic
loop_
_symmetry_equiv_pos_as_xyz
  x,y,z
_cell_length_a	13.897449
_cell_length_b	19.121063
_cell_length_c	13.897441
_cell_angle_alpha	92.405670
_cell_angle_beta	89.979267
_cell_angle_gamma	92.470221
loop_
_atom_site_label
_atom_site_type_symbol
_atom_site_fract_x
_atom_site_fract_y
_atom_site_fract_z
Zn1	Zn	1.458257	-0.279567	-0.561726
Zn2	Zn	1.958257	0.220433	-0.061726
Zn3	Zn	1.451242	-0.397031	-0.407294
Zn4	Zn	1.951242	0.102969	0.092706
Zn5	Zn	1.296944	-0.279601	-0.400446
Zn6	Zn	1.796944	0.220399	0.099554
Zn7	Zn	1.290021	-0.396984	-0.568544
Zn8	Zn	1.790021	0.103016	-0.068544
O9	O	1.374116	-0.338296	-0.484503
O10	O	1.874116	0.161704	0.015497
O11	O	1.592308	-0.295154	-0.541253
O12	O	2.092308	0.204846	-0.041253
O13	O	1.430735	-0.381487	-0.271406
O14	O	1.930735	0.118513	0.228594
O15	O	1.324176	-0.181312	-0.416120
O16	O	1.824176	0.318688	0.083880
O17	O	1.587154	-0.381454	-0.427793
O18	O	2.087154	0.118546	0.072207
O19	O	1.442692	-0.181287	-0.534612
O20	O	1.942692	0.318713	-0.034612
O21	O	1.317374	-0.295211	-0.266375
O22	O	1.817374	0.204789	0.233625
O23	O	1.161045	-0.295166	-0.422732
O24	O	1.661045	0.204834	0.077268
O25	O	1.312377	-0.381375	-0.702620
O26	O	1.812377	0.118625	-0.202620
O27	O	1.155958	-0.381408	-0.546233
O28	O	1.655958	0.118592	-0.046233
O29	O	1.435979	-0.295109	-0.697610
O30	O	1.935979	0.204891	-0.197610
O31	O	1.424022	-0.495309	-0.434404
O32	O	1.924022	0.004691	0.065596
O33	O	1.305574	-0.495275	-0.552874
O34	O	1.805574	0.004725	-0.052874
C35	C	1.123502	-0.338286	-0.484480
C36	C	1.623502	0.161714	0.015520
C37	C	1.016288	-0.338299	-0.484494
C38	C	1.516288	0.161701	0.015506
C39	C	1.363311	-0.520776	-0.495143
C40	C	1.863311	-0.020776	0.004857
C41	C	1.358777	-0.598842	-0.499727
C42	C	1.858777	-0.098842	0.000273
C43	C	0.819992	-0.338302	-0.484520
C44	C	1.319992	0.161698	0.015480
C45	C	0.929225	-0.338298	-0.484503
C46	C	1.429225	0.161702	0.015497
C47	C	1.418365	-0.635512	-0.440252
C48	C	1.918365	-0.135512	0.059748
C49	C	1.414106	-0.708863	-0.444569
C50	C	1.914106	-0.208863	0.055431
C51	C	1.350255	-0.745543	-0.508358
C52	C	1.850255	-0.245543	-0.008358
C53	C	1.290665	-0.708868	-0.567840
C54	C	1.790665	-0.208868	-0.067840
C55	C	1.294929	-0.635518	-0.563527
C56	C	1.794929	-0.135518	-0.063527
C57	C	1.334297	-0.967012	-0.524468
C58	C	1.834297	-0.467012	-0.024468
C59	C	1.330035	-1.040367	-0.528775
C60	C	1.830035	-0.540367	-0.028775
C61	C	1.453478	-1.040357	-0.405504
C62	C	1.953478	-0.540357	0.094496
C63	C	1.457733	-0.967006	-0.401192
C64	C	1.957733	-0.467006	0.098808
C65	C	1.398147	-0.930337	-0.460678
C66	C	1.898147	-0.430337	0.039322
C67	C	1.345898	-0.820519	-0.512770
C68	C	1.845898	-0.320519	-0.012770
C69	C	1.402509	-0.855362	-0.456270
C70	C	1.902509	-0.355362	0.043730
C71	C	1.625708	-0.338306	-0.484526
C72	C	2.125708	0.161694	0.015474
C73	C	1.732922	-0.338310	-0.484536
C74	C	2.232922	0.161690	0.015464
C75	C	1.374188	-0.338234	-0.736092
C76	C	1.874188	0.161766	-0.236092
C77	C	1.374219	-0.338207	-0.843305
C78	C	1.874219	0.161793	-0.343305
C79	C	1.384989	-0.155103	-0.473842
C80	C	1.884989	0.344897	0.026158
C81	C	1.389623	-0.077037	-0.469299
C82	C	1.889623	0.422963	0.030701
C83	C	1.374248	-0.338160	-1.039597
C84	C	1.874248	0.161840	-0.539597
C85	C	1.374229	-0.338188	-0.930366
C86	C	1.874229	0.161812	-0.430366
C87	C	1.374103	-0.338307	-0.233889
C88	C	1.874103	0.161693	0.266111
C89	C	1.374271	-0.338135	-0.126665
C90	C	1.874271	0.161865	0.373335
H91	H	1.462628	-0.738716	-0.396136
H92	H	1.962628	-0.238716	0.103864
N93	N	1.522936	-0.929525	-0.336028
N94	N	2.022936	-0.429525	0.163972
N95	N	1.586759	-0.888519	-0.367582
N96	N	2.086759	-0.388519	0.132418
H97	H	1.632794	-0.862042	-0.321550
H98	H	2.132794	-0.362042	0.178450
N99	N	1.234059	-0.598047	-0.624264
N100	N	1.734059	-0.098047	-0.124264
N101	N	1.237874	-0.532557	-0.620406
N102	N	1.737874	-0.032557	-0.120406
H103	H	1.194886	-0.506093	-0.663305
H104	H	1.694886	-0.006093	-0.163305
N105	N	1.514332	-1.077824	-0.344750
N106	N	2.014332	-0.577824	0.155250
N107	N	1.510519	-1.143315	-0.348604
N108	N	2.010519	-0.643315	0.151396
H109	H	1.553501	-1.169777	-0.305696
H110	H	2.053501	-0.669777	0.194304
N111	N	1.264798	-1.077839	-0.593923
N112	N	1.764798	-0.577839	-0.093923
N113	N	1.176267	-1.069708	-0.586968
N114	N	1.676267	-0.569708	-0.086968
H115	H	1.130192	-1.096174	-0.632973
H116	H	1.630192	-0.596174	-0.132973
H117	H	1.238680	-0.738738	-0.619783
H118	H	1.738680	-0.238738	-0.119783
N119	N	1.273426	-0.929573	-0.585236
N120	N	1.773426	-0.429573	-0.085236
N121	N	1.216420	-0.962334	-0.642182
N122	N	1.716420	-0.462334	-0.142182
H123	H	1.173426	-0.935891	-0.685102
H124	H	1.673426	-0.435891	-0.185102
H125	H	1.454500	-0.825495	-0.404337
H126	H	1.954500	-0.325495	0.095663
N127	N	1.280656	-0.857991	-0.577904
N128	N	1.780656	-0.357991	-0.077904
N129	N	1.192125	-0.849865	-0.570936
N130	N	1.692125	-0.349865	-0.070936
H131	H	1.146046	-0.876332	-0.616936
H132	H	1.646046	-0.376332	-0.116936
N133	N	1.483586	-0.598058	-0.375078
N134	N	1.983586	-0.098058	0.124922
N135	N	1.536783	-0.630812	-0.321980
N136	N	2.036783	-0.130812	0.178020
H137	H	1.582849	-0.604362	-0.275950
H138	H	2.082849	-0.104362	0.224050
