data_functionalizedCrystal
_audit_creation_method	'MofGen! by Chris Wilmer'
_symmetry_space_group_name_H-M	'P1'
_symmetry_Int_Tables_number	1
_symmetry_cell_setting	triclinic
loop_
_symmetry_equiv_pos_as_xyz
  x,y,z
_cell_length_a	17.077404
_cell_length_b	15.299816
_cell_length_c	17.077396
_cell_angle_alpha	80.343631
_cell_angle_beta	90.019777
_cell_angle_gamma	80.346343
loop_
_atom_site_label
_atom_site_type_symbol
_atom_site_fract_x
_atom_site_fract_y
_atom_site_fract_z
Zn1	Zn	1.254135	-0.359177	0.497999
Zn2	Zn	1.276752	-0.510010	0.389473
Zn3	Zn	1.122869	-0.359196	0.366749
Zn4	Zn	1.145535	-0.509943	0.520686
O5	O	1.199823	-0.434582	0.443727
O6	O	1.366985	-0.379205	0.483618
O7	O	1.256319	-0.490039	0.276617
O8	O	1.121331	-0.232981	0.365155
O9	O	1.383602	-0.490021	0.403885
O10	O	1.217771	-0.232968	0.461584
O11	O	1.143262	-0.379237	0.259922
O12	O	1.016026	-0.379173	0.387154
O13	O	1.159961	-0.489908	0.627518
O14	O	1.032678	-0.489927	0.500251
O15	O	1.239749	-0.379141	0.610850
O16	O	1.278297	-0.636213	0.425884
O17	O	1.181892	-0.636164	0.522285
C18	C	0.995869	-0.434545	0.443699
C19	C	0.908621	-0.434552	0.443709
C20	C	1.235030	-0.668914	0.479029
C21	C	1.250163	-0.769162	0.494158
C22	C	0.541521	-0.492380	0.502580
C23	C	0.623500	-0.492368	0.502566
C24	C	0.655780	-0.434605	0.443743
C25	C	0.606077	-0.376857	0.384926
C26	C	0.524100	-0.376874	0.384937
C27	C	0.776942	-0.376824	0.384908
C28	C	0.858924	-0.376806	0.384897
C29	C	0.876342	-0.492318	0.502537
C30	C	0.794365	-0.492335	0.502548
C31	C	0.744668	-0.434586	0.443731
C32	C	1.092176	-1.052073	0.335867
C33	C	1.077954	-0.957885	0.321655
C34	C	1.121005	-0.910700	0.364779
C35	C	1.178281	-0.957712	0.422118
C36	C	1.192501	-1.051910	0.436336
C37	C	1.221329	-0.910536	0.465248
C38	C	1.278605	-0.957548	0.522588
C39	C	1.292823	-1.051736	0.536803
C40	C	1.249772	-1.098922	0.493679
C41	C	1.207110	-0.816338	0.451030
C42	C	1.307434	-0.816175	0.551500
C43	C	1.321657	-0.910363	0.565712
C44	C	1.404573	-0.434618	0.443756
C45	C	1.491825	-0.434634	0.443768
C46	C	1.199860	-0.434515	0.648461
C47	C	1.199876	-0.434487	0.735707
C48	C	1.164500	-0.199334	0.408304
C49	C	1.149447	-0.099086	0.393209
C50	C	1.199821	-0.434583	0.239779
C51	C	1.199919	-0.434357	0.152496
C52	C	1.241423	-0.376805	0.768019
C53	C	1.241428	-0.376775	0.849995
C54	C	1.199890	-0.434432	0.899658
C55	C	1.158338	-0.492116	0.867341
C56	C	1.158329	-0.492141	0.785366
C57	C	1.158362	-0.492062	1.038203
C58	C	1.158372	-0.492038	1.120184
C59	C	1.241460	-0.376696	1.102832
C60	C	1.241451	-0.376721	1.020857
C61	C	1.199900	-0.434406	0.988545
H62	H	0.515246	-0.539412	0.550483
C63	C	0.678163	-0.555883	0.567262
H64	H	0.647196	-0.590277	0.602303
H65	H	0.716034	-0.595133	0.543092
H66	H	0.704972	-0.521417	0.596320
C67	C	0.931009	-0.555869	0.567214
H68	H	0.984457	-0.547603	0.558774
H69	H	0.915640	-0.542772	0.618010
H70	H	0.926669	-0.616449	0.564743
H71	H	1.368291	-0.948654	0.612399
H72	H	1.031319	-0.919611	0.274971
H73	H	0.768086	-0.539366	0.550449
C74	C	1.354795	-0.764281	0.598937
H75	H	1.338130	-0.701450	0.582251
H76	H	1.345605	-0.779683	0.653994
H77	H	1.409871	-0.779681	0.589815
H78	H	1.275280	-0.329777	0.980423
H79	H	1.339457	-1.090011	0.583496
H80	H	1.275250	-0.329858	0.727588
C81	C	0.894430	-0.313264	0.320198
H82	H	0.853093	-0.278878	0.285166
H83	H	0.920512	-0.274006	0.344372
H84	H	0.931581	-0.347708	0.291131
C85	C	1.144114	-0.764631	0.387961
H86	H	1.141804	-0.701776	0.385672
H87	H	1.157964	-0.780101	0.337565
H88	H	1.093700	-0.780108	0.401746
H89	H	1.275261	-0.329808	0.876299
C90	C	0.469433	-0.313350	0.320247
H91	H	0.500396	-0.278940	0.285217
H92	H	0.442621	-0.347805	0.291189
H93	H	0.431563	-0.274102	0.344428
H94	H	0.736480	-0.329797	0.337014
H95	H	1.275291	-0.329725	1.129143
H96	H	0.632366	-0.329830	0.337028
C97	C	1.044828	-1.103977	0.288438
H98	H	1.061505	-1.166807	0.305116
H99	H	0.989755	-1.088580	0.297551
H100	H	1.054027	-1.088576	0.233378
C101	C	1.112677	-0.555453	1.174812
H102	H	1.087920	-0.589803	1.143828
H103	H	1.148607	-0.594749	1.212714
H104	H	1.073298	-0.520924	1.201587
C105	C	1.112630	-0.555589	0.749819
H106	H	1.118566	-0.547340	0.693884
H107	H	1.133215	-0.616187	0.772378
H108	H	1.057903	-0.542366	0.761255
C109	C	1.265368	-1.202530	0.509364
H110	H	1.305630	-1.223773	0.549703
H111	H	1.217903	-1.223816	0.526116
H112	H	1.282192	-1.223921	0.461960
C113	C	1.112647	-0.555538	0.921965
H114	H	1.087896	-0.589889	0.890978
H115	H	1.148579	-0.594832	0.959867
H116	H	1.073263	-0.521016	0.948741
H117	H	1.109422	-0.834007	0.353203
H118	H	1.124512	-0.539021	1.011897
