data_functionalizedCrystal
_audit_creation_method	'MofGen! by Chris Wilmer'
_symmetry_space_group_name_H-M	'P1'
_symmetry_Int_Tables_number	1
_symmetry_cell_setting	triclinic
loop_
_symmetry_equiv_pos_as_xyz
  x,y,z
_cell_length_a	19.288864
_cell_length_b	15.944545
_cell_length_c	17.766277
_cell_angle_alpha	89.991536
_cell_angle_beta	89.976791
_cell_angle_gamma	83.316209
loop_
_atom_site_label
_atom_site_type_symbol
_atom_site_fract_x
_atom_site_fract_y
_atom_site_fract_z
O1	O	0.921627	0.104784	-0.062839
O2	O	1.421627	0.604784	0.437161
O3	O	0.719403	0.118919	-0.062788
O4	O	1.219403	0.618919	0.437212
O5	O	0.826040	-0.010445	-0.062806
O6	O	1.326040	0.489555	0.437194
O7	O	0.814991	0.234148	-0.062821
O8	O	1.314991	0.734148	0.437179
O9	O	0.826021	-0.010451	0.062382
O10	O	1.326021	0.489549	0.562382
O11	O	0.719385	0.118913	0.062400
O12	O	1.219385	0.618913	0.562400
O13	O	0.921608	0.104777	0.062349
O14	O	1.421608	0.604777	0.562349
Cu15	Cu	0.820495	0.111844	0.073806
Cu16	Cu	1.320495	0.611844	0.573806
Cu17	Cu	0.820517	0.111852	-0.074244
Cu18	Cu	1.320517	0.611852	0.425756
O19	O	0.814972	0.234141	0.062367
O20	O	1.314972	0.734141	0.562367
C21	C	0.693516	0.118461	-0.000187
C22	C	1.193516	0.618461	0.499813
C23	C	0.616409	0.117096	-0.000167
C24	C	1.116409	0.617096	0.499833
C25	C	0.825573	-0.041740	-0.000211
C26	C	1.325573	0.458260	0.499789
C27	C	0.824200	-0.134982	-0.000209
C28	C	1.324200	0.365018	0.499791
C29	C	0.571911	0.193001	-0.000184
C30	C	1.071911	0.693001	0.499816
C31	C	0.499461	0.191718	-0.000192
C32	C	0.999461	0.691718	0.499808
C33	C	0.471512	0.114526	-0.000199
C34	C	0.971512	0.614526	0.499801
C35	C	0.516019	0.038611	-0.000178
C36	C	1.016019	0.538611	0.499822
C37	C	0.588468	0.039896	-0.000162
C38	C	1.088468	0.539896	0.499838
C39	C	0.363098	0.053847	-0.044080
C40	C	0.863098	0.553847	0.455920
C41	C	0.290650	0.052565	-0.044100
C42	C	0.790650	0.552565	0.455900
C43	C	0.248056	0.110560	-0.000244
C44	C	0.748056	0.610560	0.499756
C45	C	0.277917	0.169851	0.043622
C46	C	0.777917	0.669851	0.543622
C47	C	0.350366	0.171136	0.043638
C48	C	0.850366	0.671136	0.543638
C49	C	0.392954	0.113124	-0.000216
C50	C	0.892954	0.613124	0.499784
C51	C	0.124998	0.185079	-0.000269
C52	C	0.624998	0.685079	0.499731
C53	C	0.052547	0.183793	-0.000272
C54	C	0.552547	0.683793	0.499728
C55	C	0.069107	0.030684	-0.000266
C56	C	0.569107	0.530684	0.499734
C57	C	0.141556	0.031972	-0.000255
C58	C	0.641556	0.531972	0.499745
C59	C	0.169498	0.109172	-0.000260
C60	C	0.669498	0.609172	0.499740
C61	C	0.753999	-0.405344	-0.000206
C62	C	1.253999	0.094656	0.499794
C63	C	0.787854	-0.354885	-0.061939
C64	C	1.287854	0.145115	0.438061
C65	C	0.819304	-0.470606	-0.000229
C66	C	1.319304	0.029394	0.499771
C67	C	0.787852	-0.354919	0.061487
C68	C	1.287852	0.145081	0.561487
C69	C	0.821706	-0.305702	-0.000218
C70	C	1.321706	0.194298	0.499782
C71	C	0.853141	-0.421376	-0.062013
C72	C	1.353141	0.078624	0.437987
C73	C	0.853130	-0.421413	0.061469
C74	C	1.353130	0.078587	0.561469
C75	C	0.887032	-0.370988	-0.000280
C76	C	1.387032	0.129012	0.499720
C77	C	0.817918	-0.565603	-0.000236
C78	C	1.317918	-0.065603	0.499764
C79	C	0.823096	-0.210708	-0.000216
C80	C	1.323096	0.289292	0.499784
C81	C	0.947495	0.105236	-0.000253
C82	C	1.447495	0.605236	0.499747
C83	C	1.024603	0.106601	-0.000278
C84	C	1.524603	0.606601	0.499722
C85	C	0.815439	0.265437	-0.000229
C86	C	1.315439	0.765437	0.499771
C87	C	0.816812	0.358678	-0.000237
C88	C	1.316812	0.858678	0.499763
N89	N	0.820484	0.111838	0.177936
N90	N	1.320484	0.611838	0.677936
N91	N	0.820533	0.111851	-0.178375
N92	N	1.320533	0.611851	0.321625
C93	C	0.867718	0.054584	0.217315
C94	C	1.367718	0.554584	0.717315
C95	C	0.867722	0.054580	0.296117
C96	C	1.367722	0.554580	0.796117
C97	C	0.820499	0.111845	0.335537
C98	C	1.320499	0.611845	0.835537
C99	C	0.773256	0.169104	0.296148
C100	C	1.273256	0.669104	0.796148
C101	C	0.773249	0.169101	0.217348
C102	C	1.273249	0.669101	0.717348
C103	C	0.811400	0.188379	0.460371
C104	C	1.311400	0.688379	0.960371
C105	C	0.811412	0.188383	0.539170
C106	C	1.311412	0.688383	1.039170
C107	C	0.820517	0.111855	0.578583
C108	C	1.320517	0.611855	1.078583
C109	C	0.829625	0.035320	0.539187
C110	C	1.329625	0.535320	1.039187
C111	C	0.829618	0.035316	0.460387
C112	C	1.329618	0.535316	0.960387
C113	C	0.820501	0.111855	0.420982
C114	C	1.320501	0.611855	0.920982
C115	C	0.867758	0.054592	0.703408
C116	C	1.367758	0.554592	1.203408
C117	C	0.867758	0.054587	0.782211
C118	C	1.367758	0.554587	1.282211
C119	C	0.773295	0.169118	0.782241
C120	C	1.273295	0.669118	1.282241
C121	C	0.773292	0.169116	0.703439
C122	C	1.273292	0.669116	1.203439
C123	C	0.820528	0.111853	0.664027
C124	C	1.320528	0.611853	1.164027
H125	H	0.594656	0.255863	-0.000189
H126	H	1.094656	0.755863	0.499811
H127	H	0.880678	-0.450472	0.113648
H128	H	1.380678	0.049528	0.613648
H129	H	0.463224	0.253531	-0.000204
H130	H	0.963224	0.753531	0.499796
H131	H	0.804001	0.250703	0.571240
H132	H	1.304001	0.750703	1.071240
Br133	Br	0.709198	0.246826	0.835732
Br134	Br	1.209198	0.746826	1.335732
Br135	Br	0.390891	0.251595	0.103170
Br136	Br	0.890891	0.751595	0.603170
Br137	Br	0.741903	-0.306482	-0.148908
Br138	Br	1.241903	0.193518	0.351092
H139	H	0.243238	0.217075	0.079334
H140	H	0.743238	0.717075	0.579334
H141	H	0.943317	-0.355714	-0.000329
H142	H	1.443317	0.144286	0.499671
H143	H	0.624699	-0.021917	-0.000149
H144	H	1.124699	0.478083	0.499851
Br145	Br	0.931860	-0.023129	0.835658
Br146	Br	1.431860	0.476871	1.335658
Br147	Br	0.660263	-0.431076	-0.000278
Br148	Br	1.160263	0.068924	0.499722
H149	H	0.734833	0.215741	0.671375
H150	H	1.234833	0.715741	1.171375
Br151	Br	0.899089	-0.469554	-0.149097
Br152	Br	1.399089	0.030446	0.350903
Br153	Br	0.741854	-0.306550	0.148470
Br154	Br	1.241854	0.193450	0.648470
Br155	Br	0.931819	-0.023129	0.163827
Br156	Br	1.431819	0.476871	0.663827
Br157	Br	0.931830	-0.023130	0.349569
Br158	Br	1.431830	0.476870	0.849569
H159	H	0.147749	0.247940	-0.000262
H160	H	0.647749	0.747940	0.499738
Br161	Br	0.799112	0.292250	0.406890
Br162	Br	1.299112	0.792250	0.906890
Br163	Br	0.841971	-0.068547	0.406923
Br164	Br	1.341971	0.431453	0.906923
Br165	Br	0.931860	-0.023123	0.649918
Br166	Br	1.431860	0.476877	1.149918
Br167	Br	0.841991	-0.068547	0.592665
Br168	Br	1.341991	0.431453	1.092665
H169	H	0.734805	0.215729	0.328248
H170	H	1.234805	0.715729	0.828248
Br171	Br	0.709140	0.246808	0.163900
Br172	Br	1.209140	0.746808	0.663900
H173	H	0.046351	-0.032167	-0.000318
H174	H	0.546351	0.467833	0.499682
Br175	Br	-0.007846	0.286817	-0.000288
Br176	Br	0.492154	0.786817	0.499712
H177	H	0.266342	0.004291	-0.079822
H178	H	0.766342	0.504291	0.420178
Br179	Br	0.201951	-0.071047	-0.000234
Br180	Br	0.701951	0.428953	0.499766
Br181	Br	0.420897	-0.024870	-0.103601
Br182	Br	0.920897	0.475130	0.396399
Br183	Br	0.478090	-0.066150	-0.000180
Br184	Br	0.978090	0.433850	0.499820
