data_functionalizedCrystal
_audit_creation_method	'MofGen! by Chris Wilmer'
_symmetry_space_group_name_H-M	'P1'
_symmetry_Int_Tables_number	1
_symmetry_cell_setting	triclinic
loop_
_symmetry_equiv_pos_as_xyz
  x,y,z
_cell_length_a	10.654554
_cell_length_b	15.995292
_cell_length_c	9.730223
_cell_angle_alpha	90.001861
_cell_angle_beta	90.001137
_cell_angle_gamma	83.977680
loop_
_atom_site_label
_atom_site_type_symbol
_atom_site_fract_x
_atom_site_fract_y
_atom_site_fract_z
O1	O	1.666257	0.117620	-0.114237
O2	O	1.300630	0.128820	-0.114248
O3	O	1.493476	0.001387	-0.114244
O4	O	1.473411	0.245053	-0.114240
O5	O	1.493474	0.001391	0.114336
O6	O	1.300628	0.128824	0.114332
O7	O	1.666255	0.117623	0.114343
Zn8	Zn	1.483441	0.123224	0.150630
Zn9	Zn	1.483444	0.123220	-0.150534
O10	O	1.473409	0.245056	0.114340
C11	C	1.253842	0.127999	0.000041
C12	C	1.114432	0.125536	0.000036
C13	C	0.902951	0.198255	0.000050
C14	C	1.033941	0.200570	0.000039
C15	C	1.063926	0.048182	0.000030
C16	C	0.932938	0.045868	0.000031
C17	C	0.822466	0.273294	0.000067
C18	C	0.872962	0.350648	0.000070
C19	C	1.003952	0.352963	0.000060
C20	C	1.084446	0.277924	0.000045
C21	C	1.492659	-0.029811	0.000043
C22	C	1.490210	-0.122778	0.000032
C23	C	1.481209	-0.460569	0.000044
C24	C	1.620401	-0.436447	0.000559
C25	C	1.623046	-0.339756	0.000039
C26	C	1.485676	-0.292987	0.000039
C27	C	1.416088	-0.322495	-0.130489
C28	C	1.414412	-0.419295	-0.130593
C29	C	1.411567	-0.419165	0.129345
C30	C	1.416725	-0.322643	0.131065
C31	C	1.488192	-0.198277	0.000032
C32	C	1.478688	-0.555280	0.000043
C33	C	1.713043	0.118445	0.000052
C34	C	1.852453	0.120907	0.000048
C35	C	1.474226	0.276255	0.000050
C36	C	1.476675	0.369222	0.000051
N37	N	1.483448	0.123226	0.356166
N38	N	1.483447	0.123211	-0.356070
C39	C	1.568862	0.066818	0.428094
C40	C	1.568859	0.066808	0.571977
C41	C	1.398023	0.179621	0.571992
C42	C	1.398022	0.179627	0.428111
C43	C	1.654289	0.010418	0.356149
C44	C	1.739711	-0.045994	0.428077
C45	C	1.739708	-0.046005	0.571960
C46	C	1.654282	0.010397	0.643915
H47	H	0.807416	0.411742	0.000072
N48	N	1.282190	-0.281061	-0.136949
H49	H	1.221644	-0.325593	-0.135664
H50	H	1.265420	-0.242667	-0.055118
N51	N	1.691088	-0.474473	-0.122725
H52	H	1.633339	-0.507257	-0.178909
H53	H	1.721053	-0.428198	-0.180915
H54	H	0.891823	-0.017115	0.000027
N55	N	1.695200	-0.314122	0.123996
H56	H	1.725575	-0.365676	0.179466
H57	H	1.770083	-0.285227	0.092746
H58	H	1.328468	0.225559	0.369547
N59	N	1.691476	-0.473107	0.124555
H60	H	1.634144	-0.505712	0.181600
H61	H	1.766961	-0.511927	0.093312
H62	H	1.464413	-0.302155	-0.227627
N63	N	1.831845	-0.106837	0.649543
H64	H	1.885964	-0.142559	0.582129
H65	H	1.887334	-0.074422	0.709237
H66	H	1.677869	-0.321034	-0.093689
H67	H	1.191107	0.279815	0.000008
N68	N	0.681185	0.270797	0.000099
H69	H	0.637859	0.330068	0.000115
H70	H	0.655609	0.240290	-0.084636
N71	N	1.150731	-0.032751	0.000029
H72	H	1.205749	-0.035191	-0.084703
H73	H	1.205662	-0.035136	0.084823
N74	N	1.058421	0.436389	0.000037
H75	H	0.987555	0.483571	0.000044
H76	H	1.112125	0.440672	0.084768
H77	H	1.462608	-0.445833	-0.228165
H78	H	1.328475	0.225542	0.630587
H79	H	1.809254	-0.091920	0.369483
N80	N	1.279235	-0.439362	-0.138460
H81	H	1.239181	-0.414883	-0.225649
H82	H	1.277200	-0.502346	-0.138535
H83	H	1.455401	-0.446997	0.228284
H84	H	1.654301	0.010422	0.238992
H85	H	1.467396	-0.303781	0.227629
N86	N	1.283890	-0.279774	0.141490
H87	H	1.266447	-0.240345	0.061067
H88	H	1.222103	-0.323530	0.140361
H89	H	1.309112	-0.433752	0.130224
H90	H	1.654278	0.010379	0.761074
