data_functionalizedCrystal
_audit_creation_method	'MofGen! by Chris Wilmer'
_symmetry_space_group_name_H-M	'P1'
_symmetry_Int_Tables_number	1
_symmetry_cell_setting	triclinic
loop_
_symmetry_equiv_pos_as_xyz
  x,y,z
_cell_length_a	14.628931
_cell_length_b	14.628931
_cell_length_c	23.196401
_cell_angle_alpha	60.007078
_cell_angle_beta	90.013263
_cell_angle_gamma	59.999836
loop_
_atom_site_label
_atom_site_type_symbol
_atom_site_fract_x
_atom_site_fract_y
_atom_site_fract_z
Zr1	Zr	0.880588	1.000580	-0.075655
O2	O	0.734592	1.191289	-0.167707
O3	O	0.925344	0.809873	-0.047436
O4	O	0.925298	1.000582	-0.167707
O5	O	0.734674	1.000577	0.047435
O6	O	1.075730	1.000582	-0.167706
O7	O	0.734638	1.000580	-0.047436
O8	O	1.075813	0.659438	0.047436
O9	O	0.734592	1.341721	-0.167707
O10	O	1.056698	0.888312	-0.035401
O11	O	0.944459	0.888311	0.035400
O12	O	0.944404	1.112846	-0.106203
O13	O	0.832166	1.112845	-0.035401
Zr14	Zr	1.120568	1.000575	0.075654
Zr15	Zr	1.120510	1.000579	-0.075655
Zr16	Zr	0.880646	1.000576	0.075654
Zr17	Zr	0.880588	1.240502	-0.075655
Zr18	Zr	1.120568	0.760653	0.075655
O19	O	1.075812	1.191282	0.047435
O20	O	1.075730	1.191288	-0.167707
O21	O	0.734674	1.191283	0.047435
O22	O	1.266564	0.809867	0.167706
O23	O	1.266482	0.809872	-0.047436
O24	O	0.925426	0.809868	0.167706
O25	O	1.266482	1.000578	-0.047436
O26	O	1.075858	1.000573	0.167706
O27	O	0.925425	1.000574	0.167706
O28	O	1.266518	1.000576	0.047436
O29	O	0.925298	1.341720	-0.167707
O30	O	1.075858	0.659435	0.167706
O31	O	1.266564	0.659435	0.167706
O32	O	1.266519	0.659437	0.047436
O33	O	0.734637	1.341718	-0.047437
O34	O	0.925343	1.341717	-0.047437
O35	O	1.056751	0.888309	0.106202
O36	O	1.168990	0.888310	0.035401
O37	O	1.056697	1.112844	-0.035401
O38	O	0.944458	1.112843	0.035400
C39	C	1.000578	0.700472	0.000000
C40	C	1.000579	0.598619	0.000000
C41	C	1.079356	0.369185	0.049670
C42	C	1.079357	0.474454	0.049671
C43	C	0.700472	1.000578	-0.000001
C44	C	0.598619	1.000579	-0.000001
C45	C	0.608915	0.889195	0.035122
C46	C	0.503646	0.889193	0.035122
C47	C	1.300684	1.000577	-0.000000
C48	C	1.402537	1.000576	-0.000000
C49	C	1.000506	1.000582	-0.189265
C50	C	1.000482	1.000584	-0.253499
C51	C	1.000577	1.300683	-0.000001
C52	C	1.000577	1.402537	-0.000001
C53	C	0.941871	1.117785	-0.320630
C54	C	0.941900	1.117786	-0.380986
C55	C	1.000523	1.000581	-0.374206
C56	C	1.059147	0.883364	-0.307063
C57	C	1.059126	0.883366	-0.246710
C58	C	0.992199	0.910785	-0.441523
C59	C	0.992212	0.910788	-0.501876
C60	C	1.000594	1.000571	-0.560353
C61	C	1.008941	1.090372	-0.558476
C62	C	1.008920	1.090373	-0.498123
C63	C	1.000553	1.000566	-0.439644
C64	C	0.942012	1.117781	-0.692931
C65	C	0.942048	1.117778	-0.753286
C66	C	1.059288	0.883353	-0.679361
C67	C	1.059259	0.883360	-0.619008
C68	C	1.000615	1.000577	-0.625798
C69	C	1.000650	1.000573	0.189264
C70	C	1.000674	1.000571	0.253499
C71	C	1.300684	0.700471	0.000000
C72	C	1.402537	0.598617	0.000001
C73	C	1.000650	0.700467	0.189264
C74	C	1.000675	0.598612	0.253499
C75	C	1.300756	0.700466	0.189265
C76	C	1.402634	0.598611	0.253500
C77	C	0.700400	1.300689	-0.189265
C78	C	0.598522	1.402544	-0.253500
C79	C	0.700472	1.300684	-0.000001
C80	C	0.598618	1.402538	-0.000001
C81	C	1.000505	1.300688	-0.189265
C82	C	1.000481	1.402543	-0.253500
C83	C	1.059302	0.550779	0.320628
C84	C	1.059321	0.455089	0.380990
C85	C	1.000718	0.407228	0.374220
C86	C	0.942084	0.455070	0.307083
C87	C	0.942059	0.550765	0.246724
C88	C	1.509074	0.550780	0.246707
C89	C	1.604808	0.455089	0.307057
C90	C	1.594099	0.407226	0.374198
C91	C	1.487648	0.455067	0.380989
C92	C	1.391916	0.550762	0.320640
C93	C	0.492082	1.450387	-0.246708
C94	C	0.396348	1.546107	-0.307058
C95	C	0.407056	1.593976	-0.374199
C96	C	0.513508	1.546129	-0.380990
C97	C	0.609240	1.450417	-0.320641
C98	C	1.059095	1.450374	-0.246708
C99	C	1.059094	1.546065	-0.307057
C100	C	1.000471	1.593929	-0.374198
C101	C	0.941856	1.546088	-0.380989
C102	C	0.941864	1.450393	-0.320640
C103	C	1.392242	0.553209	-0.035122
C104	C	1.497512	0.447938	-0.035122
H105	H	0.695663	0.793837	0.065194
F106	F	0.912411	0.635729	-0.055584
H107	H	1.107072	0.416147	0.435649
H108	H	0.511871	1.095937	-0.030068
H109	H	0.933137	0.509024	-0.042527
F110	F	1.278858	0.604263	-0.074429
F111	F	1.476268	0.404113	0.452451
F112	F	1.515921	0.547576	0.039300
F113	F	0.879438	1.242539	-0.327861
F114	F	1.486213	0.396893	-0.074423
H115	H	0.512286	0.793833	0.065187
H116	H	1.000473	1.671851	-0.423333
H117	H	0.894129	1.411459	-0.326181
H118	H	1.607269	0.441569	0.030076
H119	H	0.894169	1.213228	-0.435654
F120	F	0.391229	1.125228	-0.039311
F121	F	0.879461	1.597050	-0.452452
H122	H	0.894325	1.213221	-0.807948
H123	H	1.672059	0.329305	0.423332
F124	F	1.167516	0.230000	0.105252
H125	H	1.000748	0.329307	0.423374
F126	F	0.879662	0.601657	0.175281
H127	H	1.015719	1.163490	-0.496598
H128	H	1.106854	0.787924	-0.192047
H129	H	1.015761	1.163485	-0.606091
F130	F	0.879620	1.242533	-0.700155
F131	F	0.305159	1.695841	-0.438422
H132	H	1.106824	1.585007	-0.301514
H133	H	1.107023	0.589738	0.326154
F134	F	1.121692	0.758613	-0.672141
H135	H	0.309679	1.585048	-0.301515
H136	H	1.106832	1.411418	-0.192043
F137	F	1.121621	0.758617	-0.547558
H138	H	1.305251	0.589694	0.326180
F139	F	1.167512	0.437353	0.105259
H140	H	0.985409	0.837672	-0.503400
F141	F	0.983350	0.815165	-0.379272
F142	F	0.879720	0.404118	0.299890
F143	F	1.121541	0.758626	-0.299848
H144	H	0.483341	1.411418	-0.192044
F145	F	0.524888	1.597085	-0.452452
H146	H	1.517815	0.589736	0.192043
H147	H	1.691477	0.416147	0.301515
H148	H	0.695906	1.411464	-0.326180
