data_functionalizedCrystal
_audit_creation_method	'MofGen! by Chris Wilmer'
_symmetry_space_group_name_H-M	'P1'
_symmetry_Int_Tables_number	1
_symmetry_cell_setting	triclinic
loop_
_symmetry_equiv_pos_as_xyz
  x,y,z
_cell_length_a	21.395362
_cell_length_b	18.050589
_cell_length_c	21.395355
_cell_angle_alpha	90.012902
_cell_angle_beta	90.043940
_cell_angle_gamma	90.044101
loop_
_atom_site_label
_atom_site_type_symbol
_atom_site_fract_x
_atom_site_fract_y
_atom_site_fract_z
Zn1	Zn	0.957870	-0.295431	0.354610
Zn2	Zn	1.207870	-0.045431	0.604610
Zn3	Zn	1.457870	0.204569	0.854610
Zn4	Zn	1.707870	0.454569	1.104610
Zn5	Zn	0.957777	-0.419603	0.249843
Zn6	Zn	1.207777	-0.169603	0.499843
Zn7	Zn	1.457777	0.080397	0.749843
Zn8	Zn	1.707777	0.330397	0.999843
Zn9	Zn	0.853085	-0.295465	0.249811
Zn10	Zn	1.103085	-0.045465	0.499811
Zn11	Zn	1.353085	0.204535	0.749811
Zn12	Zn	1.603085	0.454535	0.999811
Zn13	Zn	0.853059	-0.419618	0.354548
Zn14	Zn	1.103059	-0.169618	0.604548
Zn15	Zn	1.353059	0.080382	0.854548
Zn16	Zn	1.603059	0.330382	1.104548
O17	O	0.905448	-0.357529	0.302203
O18	O	1.155448	-0.107529	0.552203
O19	O	1.405448	0.142471	0.802203
O20	O	1.655448	0.392471	1.052203
O21	O	1.045536	-0.311882	0.340752
O22	O	1.295536	-0.061882	0.590752
O23	O	1.545536	0.188118	0.840752
O24	O	1.795536	0.438118	1.090752
O25	O	0.943862	-0.403144	0.162161
O26	O	1.193862	-0.153144	0.412161
O27	O	1.443862	0.096856	0.662161
O28	O	1.693862	0.346856	0.912161
O29	O	0.867035	-0.191536	0.263726
O30	O	1.117035	0.058464	0.513726
O31	O	1.367035	0.308464	0.763726
O32	O	1.617035	0.558464	1.013726
O33	O	1.045468	-0.403110	0.263780
O34	O	1.295468	-0.153110	0.513780
O35	O	1.545468	0.096890	0.763780
O36	O	1.795468	0.346890	1.013780
O37	O	0.944020	-0.191511	0.340721
O38	O	1.194020	0.058489	0.590721
O39	O	1.444020	0.308489	0.840721
O40	O	1.694020	0.558489	1.090721
O41	O	0.866945	-0.311940	0.162138
O42	O	1.116945	-0.061940	0.412138
O43	O	1.366945	0.188060	0.662138
O44	O	1.616945	0.438060	0.912138
O45	O	0.765404	-0.311955	0.263665
O46	O	1.015404	-0.061955	0.513665
O47	O	1.265404	0.188045	0.763665
O48	O	1.515404	0.438045	1.013665
O49	O	0.866990	-0.403136	0.442234
O50	O	1.116990	-0.153136	0.692234
O51	O	1.366990	0.096864	0.942234
O52	O	1.616990	0.346864	1.192234
O53	O	0.765385	-0.403170	0.340615
O54	O	1.015385	-0.153170	0.590615
O55	O	1.265385	0.096830	0.840615
O56	O	1.515385	0.346830	1.090615
O57	O	0.943995	-0.311896	0.442280
O58	O	1.193995	-0.061896	0.692280
O59	O	1.443995	0.188104	0.942280
O60	O	1.693995	0.438104	1.192280
O61	O	0.943836	-0.523529	0.263719
O62	O	1.193836	-0.273529	0.513719
O63	O	1.443836	-0.023529	0.763719
O64	O	1.693836	0.226471	1.013719
O65	O	0.866900	-0.523540	0.340645
O66	O	1.116900	-0.273540	0.590645
O67	O	1.366900	-0.023540	0.840645
O68	O	1.616900	0.226460	1.090645
C69	C	0.742660	-0.357568	0.302130
C70	C	0.992660	-0.107568	0.552130
C71	C	1.242660	0.142432	0.802130
C72	C	1.492660	0.392432	1.052130
C73	C	0.673019	-0.357603	0.302114
C74	C	0.923019	-0.107603	0.552114
C75	C	1.173019	0.142397	0.802114
C76	C	1.423019	0.392397	1.052114
C77	C	0.640312	-0.405161	0.342121
C78	C	0.890312	-0.155161	0.592121
C79	C	1.140312	0.094839	0.842121
C80	C	1.390312	0.344839	1.092121
C81	C	0.574877	-0.405143	0.342149
C82	C	0.824877	-0.155143	0.592149
C83	C	1.074877	0.094857	0.842149
C84	C	1.324877	0.344857	1.092149
C85	C	0.542151	-0.357574	0.302159
C86	C	0.792151	-0.107574	0.552159
C87	C	1.042151	0.142426	0.802159
C88	C	1.292151	0.392426	1.052159
C89	C	0.574865	-0.310007	0.262148
C90	C	0.824865	-0.060007	0.512148
C91	C	1.074865	0.189993	0.762148
C92	C	1.324865	0.439993	1.012148
C93	C	0.640300	-0.310021	0.262126
C94	C	0.890300	-0.060021	0.512126
C95	C	1.140300	0.189979	0.762126
C96	C	1.390300	0.439979	1.012126
C97	C	0.438426	-0.351592	0.245753
C98	C	0.688426	-0.101592	0.495753
C99	C	0.938426	0.148408	0.745753
C100	C	1.188426	0.398408	0.995753
C101	C	0.372993	-0.351583	0.245774
C102	C	0.622993	-0.101583	0.495774
C103	C	0.872993	0.148417	0.745774
C104	C	1.122993	0.398417	0.995774
C105	C	0.340330	-0.357526	0.302228
C106	C	0.590330	-0.107526	0.552228
C107	C	0.840330	0.142474	0.802228
C108	C	1.090330	0.392474	1.052228
C109	C	0.373108	-0.363494	0.358662
C110	C	0.623108	-0.113494	0.608662
C111	C	0.873108	0.136506	0.858662
C112	C	1.123108	0.386506	1.108662
C113	C	0.438542	-0.363508	0.358640
C114	C	0.688542	-0.113508	0.608640
C115	C	0.938542	0.136492	0.858640
C116	C	1.188542	0.386492	1.108640
C117	C	0.471198	-0.357553	0.302179
C118	C	0.721198	-0.107553	0.552179
C119	C	0.971198	0.142447	0.802179
C120	C	1.221198	0.392447	1.052179
C121	C	0.236671	-0.405067	0.342269
C122	C	0.486671	-0.155067	0.592269
C123	C	0.736671	0.094933	0.842269
C124	C	0.986671	0.344933	1.092269
C125	C	0.171234	-0.405044	0.342298
C126	C	0.421234	-0.155044	0.592298
C127	C	0.671234	0.094956	0.842298
C128	C	0.921234	0.344956	1.092298
C129	C	0.171224	-0.309911	0.262291
C130	C	0.421224	-0.059911	0.512291
C131	C	0.671224	0.190089	0.762291
C132	C	0.921224	0.440089	1.012291
C133	C	0.236659	-0.309931	0.262268
C134	C	0.486659	-0.059931	0.512268
C135	C	0.736659	0.190069	0.762268
C136	C	0.986659	0.440069	1.012268
C137	C	0.269379	-0.357513	0.302256
C138	C	0.519379	-0.107513	0.552256
C139	C	0.769379	0.142487	0.802256
C140	C	1.019379	0.392487	1.052256
C141	C	0.905372	-0.550481	0.302192
C142	C	1.155372	-0.300481	0.552192
C143	C	1.405372	-0.050481	0.802192
C144	C	1.655372	0.199519	1.052192
C145	C	0.905397	-0.633027	0.302209
C146	C	1.155397	-0.383027	0.552209
C147	C	1.405397	-0.133027	0.802209
C148	C	1.655397	0.116973	1.052209
C149	C	0.863601	-0.832511	0.344027
C150	C	1.113601	-0.582511	0.594027
C151	C	1.363601	-0.332511	0.844027
C152	C	1.613601	-0.082511	1.094027
C153	C	0.848322	-0.881943	0.286848
C154	C	1.098322	-0.631943	0.536848
C155	C	1.348322	-0.381943	0.786848
C156	C	1.598322	-0.131943	1.036848
C157	C	0.905459	-0.784157	0.302217
C158	C	1.155459	-0.534157	0.552217
C159	C	1.405459	-0.284157	0.802217
C160	C	1.655459	-0.034157	1.052217
C161	C	0.920768	-0.881806	0.359402
C162	C	1.170768	-0.631806	0.609402
C163	C	1.420768	-0.381806	0.859402
C164	C	1.670768	-0.131806	1.109402
C165	C	0.905517	-0.930142	0.302230
C166	C	1.155517	-0.680142	0.552230
C167	C	1.405517	-0.430142	0.802230
C168	C	1.655517	-0.180142	1.052230
C169	C	0.890151	-0.832503	0.245009
C170	C	1.140151	-0.582503	0.495009
C171	C	1.390151	-0.332503	0.745009
C172	C	1.640151	-0.082503	0.995009
C173	C	0.962623	-0.832361	0.317601
C174	C	1.212623	-0.582361	0.567601
C175	C	1.462623	-0.332361	0.817601
C176	C	1.712623	-0.082361	1.067601
C177	C	0.947366	-0.881772	0.260383
C178	C	1.197366	-0.631772	0.510383
C179	C	1.447366	-0.381772	0.760383
C180	C	1.697366	-0.131772	1.010383
C181	C	0.905424	-0.700059	0.302211
C182	C	1.155424	-0.450059	0.552211
C183	C	1.405424	-0.200059	0.802211
C184	C	1.655424	0.049941	1.052211
C185	C	0.905552	-1.014239	0.302230
C186	C	1.155552	-0.764239	0.552230
C187	C	1.405552	-0.514239	0.802230
C188	C	1.655552	-0.264239	1.052230
C189	C	1.068871	-0.357490	0.302276
C190	C	1.318871	-0.107490	0.552276
C191	C	1.568871	0.142510	0.802276
C192	C	1.818871	0.392510	1.052276
C193	C	1.138513	-0.357474	0.302307
C194	C	1.388513	-0.107474	0.552307
C195	C	1.638513	0.142526	0.802307
C196	C	1.888513	0.392526	1.052307
C197	C	0.905500	-0.357514	0.465626
C198	C	1.155500	-0.107514	0.715626
C199	C	1.405500	0.142486	0.965626
C200	C	1.655500	0.392486	1.215626
C201	C	0.905522	-0.357508	0.535268
C202	C	1.155522	-0.107508	0.785268
C203	C	1.405522	0.142492	1.035268
C204	C	1.655522	0.392492	1.285268
C205	C	0.905541	-0.163823	0.302227
C206	C	1.155541	0.086177	0.552227
C207	C	1.405541	0.336177	0.802227
C208	C	1.655541	0.586177	1.052227
C209	C	0.905581	-0.081278	0.302237
C210	C	1.155581	0.168722	0.552237
C211	C	1.405581	0.418722	0.802237
C212	C	1.655581	0.668722	1.052237
C213	C	0.905432	-0.357490	0.139415
C214	C	1.155432	-0.107490	0.389415
C215	C	1.405432	0.142510	0.639415
C216	C	1.655432	0.392510	0.889415
C217	C	0.905531	-0.357288	0.069774
C218	C	1.155531	-0.107288	0.319774
C219	C	1.405531	0.142712	0.569774
C220	C	1.655531	0.392712	0.819774
C221	C	0.945617	-0.309997	0.568006
C222	C	1.195617	-0.059997	0.818006
C223	C	1.445617	0.190003	1.068006
C224	C	1.695617	0.440003	1.318006
C225	C	0.945616	-0.309965	0.633441
C226	C	1.195616	-0.059965	0.883441
C227	C	1.445616	0.190035	1.133441
C228	C	1.695616	0.440035	1.383441
C229	C	0.905527	-0.357457	0.666136
C230	C	1.155527	-0.107457	0.916136
C231	C	1.405527	0.142543	1.166136
C232	C	1.655527	0.392543	1.416136
C233	C	0.865425	-0.404971	0.633390
C234	C	1.115425	-0.154971	0.883390
C235	C	1.365425	0.095029	1.133390
C236	C	1.615425	0.345029	1.383390
C237	C	0.865422	-0.404996	0.567956
C238	C	1.115422	-0.154996	0.817956
C239	C	1.365422	0.095004	1.067956
C240	C	1.615422	0.345004	1.317956
C241	C	0.900554	-0.424328	0.769805
C242	C	1.150554	-0.174328	1.019805
C243	C	1.400554	0.075672	1.269805
C244	C	1.650554	0.325672	1.519805
C245	C	0.900560	-0.424304	0.835238
C246	C	1.150560	-0.174304	1.085238
C247	C	1.400560	0.075696	1.335238
C248	C	1.650560	0.325696	1.585238
C249	C	0.905531	-0.357379	0.867957
C250	C	1.155531	-0.107379	1.117957
C251	C	1.405531	0.142621	1.367957
C252	C	1.655531	0.392621	1.617957
C253	C	0.910508	-0.290475	0.835234
C254	C	1.160508	-0.040475	1.085234
C255	C	1.410508	0.209525	1.335234
C256	C	1.660508	0.459525	1.585234
C257	C	0.910505	-0.290501	0.769800
C258	C	1.160505	-0.040501	1.019800
C259	C	1.410505	0.209499	1.269800
C260	C	1.660505	0.459499	1.519800
C261	C	0.905525	-0.357435	0.737088
C262	C	1.155525	-0.107435	0.987088
C263	C	1.405525	0.142565	1.237088
C264	C	1.655525	0.392565	1.487088
C265	C	0.945627	-0.309829	0.971647
C266	C	1.195627	-0.059829	1.221647
C267	C	1.445627	0.190171	1.471647
C268	C	1.695627	0.440171	1.721647
C269	C	0.945621	-0.309796	1.037084
C270	C	1.195621	-0.059796	1.287084
C271	C	1.445621	0.190204	1.537084
C272	C	1.695621	0.440204	1.787084
C273	C	0.865434	-0.404809	1.037032
C274	C	1.115434	-0.154809	1.287032
C275	C	1.365434	0.095191	1.537032
C276	C	1.615434	0.345191	1.787032
C277	C	0.865436	-0.404835	0.971596
C278	C	1.115436	-0.154835	1.221596
C279	C	1.365436	0.095165	1.471596
C280	C	1.615436	0.345165	1.721596
C281	C	0.905535	-0.357347	0.938908
C282	C	1.155535	-0.107347	1.188908
C283	C	1.405535	0.142653	1.438908
C284	C	1.655535	0.392653	1.688908
H285	H	0.548242	-0.443870	0.374731
H286	H	0.798242	-0.193870	0.624731
H287	H	1.048242	0.056130	0.874731
H288	H	1.298242	0.306130	1.124731
H289	H	0.832790	-0.443528	0.944941
H290	H	1.082790	-0.193528	1.194941
H291	H	1.332790	0.056472	1.444941
H292	H	1.582790	0.306472	1.694941
H293	H	0.832782	-0.443637	0.660014
H294	H	1.082782	-0.193637	0.910014
H295	H	1.332782	0.056363	1.160014
H296	H	1.582782	0.306363	1.410014
F297	F	0.473425	-0.369857	0.418699
F298	F	0.723425	-0.119857	0.668699
F299	F	0.973425	0.130143	0.918699
F300	F	1.223425	0.380143	1.168699
H301	H	0.144579	-0.271177	0.229733
H302	H	0.394579	-0.021177	0.479733
H303	H	0.644579	0.228823	0.729733
H304	H	0.894579	0.478823	0.979733
H305	H	0.263312	-0.443807	0.374833
H306	H	0.513312	-0.193807	0.624833
H307	H	0.763312	0.056193	0.874833
H308	H	1.013312	0.306193	1.124833
F309	F	0.988305	-0.259235	1.071926
F310	F	1.238305	-0.009235	1.321926
F311	F	1.488305	0.240765	1.571926
F312	F	1.738305	0.490765	1.821926
F313	F	0.785169	-0.910407	0.269842
F314	F	1.035169	-0.660407	0.519842
F315	F	1.285169	-0.410407	0.769842
F316	F	1.535169	-0.160407	1.019842
H317	H	0.832770	-0.443684	0.541301
H318	H	1.082770	-0.193684	0.791301
H319	H	1.332770	0.056316	1.041301
H320	H	1.582770	0.306316	1.291301
F321	F	0.136425	-0.455661	0.384885
F322	F	0.386425	-0.205661	0.634885
F323	F	0.636425	0.044339	0.884885
F324	F	0.886425	0.294339	1.134885
H325	H	0.933693	-0.903463	0.407758
H326	H	1.183693	-0.653463	0.657758
H327	H	1.433693	-0.403463	0.907758
H328	H	1.683693	-0.153463	1.157758
H329	H	0.263290	-0.271208	0.229686
H330	H	0.513290	-0.021208	0.479686
H331	H	0.763290	0.228792	0.729686
H332	H	1.013290	0.478792	0.979686
F333	F	0.675131	-0.455800	0.384682
F334	F	0.925131	-0.205800	0.634682
F335	F	1.175131	0.044200	0.884682
F336	F	1.425131	0.294200	1.134682
H337	H	0.877170	-0.810935	0.196640
H338	H	1.127170	-0.560935	0.446640
H339	H	1.377170	-0.310935	0.696640
H340	H	1.627170	-0.060935	0.946640
F341	F	0.988281	-0.259384	0.668290
F342	F	1.238281	-0.009384	0.918290
F343	F	1.488281	0.240616	1.168290
F344	F	1.738281	0.490616	1.418290
F345	F	0.993668	-0.909867	0.214125
F346	F	1.243668	-0.659867	0.464125
F347	F	1.493668	-0.409867	0.714125
F348	F	1.743668	-0.159867	0.964125
F349	F	0.915799	-0.219300	0.734977
F350	F	1.165799	0.030700	0.984977
F351	F	1.415799	0.280700	1.234977
F352	F	1.665799	0.530700	1.484977
H353	H	0.346516	-0.368333	0.404632
H354	H	0.596516	-0.118333	0.654632
H355	H	0.846516	0.131667	0.904632
H356	H	1.096516	0.381667	1.154632
F357	F	0.338114	-0.345231	0.185713
F358	F	0.588114	-0.095231	0.435713
F359	F	0.838114	0.154769	0.685713
F360	F	1.088114	0.404769	0.935713
H361	H	0.465014	-0.346749	0.199778
H362	H	0.715014	-0.096749	0.449778
H363	H	0.965014	0.153251	0.699778
H364	H	1.215014	0.403251	0.949778
F365	F	0.540035	-0.259378	0.219590
F366	F	0.790035	-0.009378	0.469590
F367	F	1.040035	0.240622	0.719590
F368	F	1.290035	0.490622	0.969590
H369	H	0.896512	-0.478780	0.861876
H370	H	1.146512	-0.228780	1.111876
H371	H	1.396512	0.021220	1.361876
H372	H	1.646512	0.271220	1.611876
H373	H	0.666929	-0.271291	0.229547
H374	H	0.916929	-0.021291	0.479547
H375	H	1.166929	0.228709	0.729547
H376	H	1.416929	0.478709	0.979547
H377	H	0.896338	-0.478812	0.743171
H378	H	1.146338	-0.228812	0.993171
H379	H	1.396338	0.021188	1.243171
H380	H	1.646338	0.271188	1.493171
F381	F	0.817267	-0.804235	0.390176
F382	F	1.067267	-0.554235	0.640176
F383	F	1.317267	-0.304235	0.890176
F384	F	1.567267	-0.054235	1.140176
F385	F	0.988292	-0.259452	0.533220
F386	F	1.238292	-0.009452	0.783220
F387	F	1.488292	0.240548	1.033220
F388	F	1.738292	0.490548	1.283220
F389	F	1.025759	-0.803875	0.334628
F390	F	1.275759	-0.553875	0.584628
F391	F	1.525759	-0.303875	0.834628
F392	F	1.775759	-0.053875	1.084628
H393	H	0.914556	-0.235979	0.861872
H394	H	1.164556	0.014021	1.111872
H395	H	1.414556	0.264021	1.361872
H396	H	1.664556	0.514021	1.611872
F397	F	0.988301	-0.259286	0.936856
F398	F	1.238301	-0.009286	1.186856
F399	F	1.488301	0.240714	1.436856
F400	F	1.738301	0.490714	1.686856
H401	H	0.832786	-0.443470	1.063651
H402	H	1.082786	-0.193470	1.313651
H403	H	1.332786	0.056530	1.563651
H404	H	1.582786	0.306530	1.813651
