data_functionalizedCrystal
_audit_creation_method	'MofGen! by Chris Wilmer'
_symmetry_space_group_name_H-M	'P1'
_symmetry_Int_Tables_number	1
_symmetry_cell_setting	triclinic
loop_
_symmetry_equiv_pos_as_xyz
  x,y,z
_cell_length_a	14.853567
_cell_length_b	14.044220
_cell_length_c	13.330367
_cell_angle_alpha	89.994700
_cell_angle_beta	89.995418
_cell_angle_gamma	88.411904
loop_
_atom_site_label
_atom_site_type_symbol
_atom_site_fract_x
_atom_site_fract_y
_atom_site_fract_z
O1	O	1.206175	0.123767	-0.083357
O2	O	0.944883	0.138510	-0.083374
O3	O	1.071607	-0.006851	-0.083356
O4	O	1.079451	0.269128	-0.083375
O5	O	1.071587	-0.006854	0.083491
O6	O	0.944863	0.138507	0.083473
O7	O	1.206154	0.123764	0.083490
Cu8	Cu	1.075507	0.131135	0.098716
Cu9	Cu	1.075531	0.131139	-0.098600
O10	O	1.079431	0.269125	0.083472
C11	C	0.911231	0.137841	0.000047
C12	C	0.810989	0.135839	0.000041
C13	C	0.390944	0.041029	0.000070
C14	C	0.383345	0.213721	0.000057
C15	C	0.477528	0.215604	0.000054
C16	C	0.528423	0.130197	0.000057
C17	C	0.485135	0.042908	0.000064
C18	C	0.520822	0.302891	0.000037
C19	C	0.615011	0.304777	0.000032
C20	C	0.665908	0.219369	0.000043
C21	C	0.622615	0.132077	0.000051
C22	C	0.673510	0.046670	0.000054
C23	C	0.630218	-0.040623	0.000069
C24	C	0.536032	-0.042499	0.000074
C25	C	0.760094	0.221246	0.000038
C26	C	0.767702	0.048550	0.000048
C27	C	1.068163	-0.042172	0.000068
C28	C	1.057921	-0.147411	0.000069
C29	C	1.039197	-0.340097	0.000053
C30	C	1.111836	-0.397635	0.000055
C31	C	1.101418	-0.504852	0.000046
C32	C	1.049614	-0.232870	0.000062
C33	C	1.239806	0.124433	0.000067
C34	C	1.340048	0.126435	0.000067
C35	C	1.082874	0.304446	0.000046
C36	C	1.093116	0.409685	0.000039
N37	N	1.075496	0.131132	0.237498
N38	N	1.075548	0.131135	-0.237381
C39	C	1.019413	0.195480	0.710112
C40	C	1.131672	0.066791	0.710097
C41	C	1.131662	0.066788	0.605078
C42	C	1.075527	0.131133	0.552572
C43	C	1.019403	0.195481	0.605084
C44	C	1.187792	0.002448	0.552558
C45	C	1.187785	0.002443	0.447534
C46	C	1.131644	0.066784	0.395025
C47	C	1.075517	0.131134	0.447544
C48	C	1.019382	0.195479	0.395038
C49	C	0.963249	0.259825	0.447555
C50	C	0.963262	0.259822	0.552576
C51	C	1.131631	0.066787	0.290004
C52	C	1.019372	0.195480	0.290010
H53	H	0.795338	0.292318	0.000027
O54	O	1.195297	-0.360189	0.000115
C55	C	1.281909	-0.217627	0.000084
C56	C	1.187342	-0.259912	0.000035
H57	H	1.275510	-0.136548	-0.000002
H58	H	1.320113	-0.242468	0.069930
H59	H	1.320118	-0.242571	-0.069720
H60	H	1.149058	-0.234988	0.069792
H61	H	1.149207	-0.235076	-0.069858
H62	H	1.233490	-0.049952	0.404781
H63	H	1.177338	0.014402	0.247250
O64	O	0.955629	-0.377272	0.000183
C65	C	0.813869	-0.388700	0.086654
C66	C	0.908473	-0.346505	0.086616
H67	H	0.775722	-0.363858	0.156539
H68	H	0.775610	-0.363767	0.016879
H69	H	0.820263	-0.469779	0.086602
H70	H	0.902161	-0.265424	0.086704
H71	H	0.946696	-0.371512	0.156386
H72	H	1.177381	0.014407	0.752851
H73	H	0.917548	0.312219	0.404792
O74	O	0.679624	-0.123610	-0.000109
C75	C	0.714914	-0.270656	-0.086511
C76	C	0.658919	-0.176705	-0.086444
H77	H	0.698181	-0.313619	-0.156294
H78	H	0.789679	-0.254365	-0.086589
H79	H	0.698290	-0.313570	-0.016647
H80	H	0.675466	-0.133745	-0.156296
H81	H	0.584170	-0.193062	-0.086313
O82	O	0.334045	0.296768	0.000004
C83	C	0.336441	0.468257	0.000050
C84	C	0.392386	0.374274	0.000086
H85	H	0.383585	0.530944	0.000137
H86	H	0.292183	0.471760	-0.069793
H87	H	0.292126	0.471640	0.069858
H88	H	0.436752	0.370828	-0.069674
H89	H	0.436585	0.370810	0.069975
H90	H	1.233500	-0.049936	0.595312
H91	H	0.973656	0.247874	0.247266
O92	O	0.908830	0.322293	0.603746
C93	C	0.859069	0.379292	0.765548
C94	C	0.920769	0.308506	0.707720
H95	H	0.868686	0.368157	0.849621
H96	H	0.876922	0.455264	0.744961
H97	H	0.785866	0.366813	0.744863
H98	H	0.993991	0.320898	0.728374
H99	H	0.902839	0.232558	0.728312
H100	H	0.973708	0.247867	0.752874
H101	H	0.809134	-0.021000	0.000054
H102	H	0.500776	-0.113569	0.000110
H103	H	0.479377	0.372424	0.000024
O104	O	0.656917	0.389651	0.000070
C105	C	0.639431	0.560743	0.000004
C106	C	0.591857	0.464690	-0.000021
H107	H	0.586852	0.621437	-0.000091
H108	H	0.683303	0.566002	0.069846
H109	H	0.683370	0.565893	-0.069804
H110	H	0.547872	0.459475	0.069740
H111	H	0.548040	0.459472	-0.069909
O112	O	0.348753	-0.043682	0.000039
C113	C	0.207028	-0.123124	0.000126
C114	C	0.254693	-0.027123	0.000138
H115	H	0.130972	-0.109769	0.000227
H116	H	0.227354	-0.165348	-0.069714
H117	H	0.227480	-0.165332	0.069937
H118	H	0.234265	0.015162	-0.069626
H119	H	0.234365	0.015028	0.070024
