data_functionalizedCrystal
_audit_creation_method	'MofGen! by Chris Wilmer'
_symmetry_space_group_name_H-M	'P1'
_symmetry_Int_Tables_number	1
_symmetry_cell_setting	triclinic
loop_
_symmetry_equiv_pos_as_xyz
  x,y,z
_cell_length_a	14.971486
_cell_length_b	14.519709
_cell_length_c	14.048226
_cell_angle_alpha	89.992623
_cell_angle_beta	89.998499
_cell_angle_gamma	83.647137
loop_
_atom_site_label
_atom_site_type_symbol
_atom_site_fract_x
_atom_site_fract_y
_atom_site_fract_z
O1	O	1.187015	0.120184	-0.079053
O2	O	0.926623	0.134576	-0.079079
O3	O	1.063722	-0.006863	-0.079057
O4	O	1.049915	0.261622	-0.079076
O5	O	1.063706	-0.006871	0.079264
O6	O	0.926606	0.134568	0.079242
O7	O	1.186998	0.120175	0.079268
Zn8	Zn	1.056799	0.127370	0.104392
Zn9	Zn	1.056821	0.127381	-0.104203
O10	O	1.049898	0.261614	0.079246
C11	C	0.893289	0.133928	0.000078
C12	C	0.793991	0.131999	0.000068
C13	C	0.736812	0.215091	0.000064
C14	C	0.643512	0.213273	0.000078
C15	C	0.607392	0.128363	0.000090
C16	C	0.664578	0.045265	0.000097
C17	C	0.757876	0.047084	0.000090
C18	C	0.470113	0.041480	0.000111
C19	C	0.376808	0.039661	0.000116
C20	C	0.355749	0.207669	0.000099
C21	C	0.449047	0.209488	0.000092
C22	C	0.506227	0.126390	0.000097
C23	C	1.063071	-0.041226	0.000104
C24	C	1.061142	-0.143606	0.000104
C25	C	1.054043	-0.518498	0.000079
C26	C	1.056015	-0.414191	0.000086
C27	C	1.057593	-0.331055	0.000092
C28	C	1.059564	-0.226742	0.000098
C29	C	1.220331	0.120823	0.000109
C30	C	1.319630	0.122752	0.000112
C31	C	1.050550	0.295978	0.000083
C32	C	1.052478	0.398358	0.000076
N33	N	1.056791	0.127362	0.246753
N34	N	1.056837	0.127382	-0.246564
C35	C	1.117518	0.064759	0.296581
C36	C	1.117524	0.064758	0.396238
C37	C	1.056807	0.127366	0.446066
C38	C	0.996073	0.189972	0.396231
C39	C	0.996064	0.189968	0.296575
C40	C	0.996099	0.189979	0.603945
C41	C	0.996110	0.189985	0.703608
C42	C	1.117560	0.064770	0.703608
C43	C	1.117550	0.064765	0.603952
C44	C	1.056817	0.127373	0.554124
H45	H	0.596960	0.280934	0.000074
C46	C	0.309082	0.350320	0.081472
C47	C	0.292900	0.299014	0.000098
H48	H	0.270282	0.406712	0.081462
H49	H	0.298119	0.315509	0.136679
H50	H	0.369818	0.363549	0.081452
H51	H	0.232165	0.285779	0.000121
H52	H	0.303856	0.333832	-0.055123
C53	C	0.541730	0.308994	-0.081343
C54	C	0.488743	0.302827	0.000058
H55	H	0.566229	0.366623	-0.081368
H56	H	0.589136	0.259777	-0.081329
H57	H	0.505755	0.304781	-0.136537
H58	H	0.524720	0.307034	0.055253
H59	H	0.441331	0.352057	0.000053
C60	C	1.272319	0.010892	0.734282
C61	C	1.184318	-0.004048	0.758380
H62	H	1.313532	-0.031585	0.768105
H63	H	1.281000	0.001925	0.667809
H64	H	1.282109	0.072465	0.750605
H65	H	1.174526	-0.065619	0.742050
H66	H	1.175634	0.004912	0.824868
C67	C	0.876030	0.313725	0.693604
C68	C	0.929352	0.258786	0.758381
H69	H	0.834810	0.356193	0.727421
H70	H	0.913295	0.346978	0.654730
H71	H	0.843810	0.275261	0.654739
H72	H	0.961577	0.297250	0.797242
H73	H	0.892082	0.225531	0.797272
H74	H	0.347403	-0.029481	0.000127
H75	H	0.516667	-0.026188	0.000117
C76	C	0.571878	-0.054244	-0.081278
C77	C	0.624878	-0.048072	0.000108
H78	H	0.547375	-0.111870	-0.081274
H79	H	0.524475	-0.005024	-0.081272
H80	H	0.607846	-0.050038	-0.136483
H81	H	0.588908	-0.052270	0.055313
H82	H	0.672287	-0.097305	0.000111
H83	H	0.946632	0.240946	0.436807
C84	C	0.976872	0.315449	0.491849
C85	C	0.929344	0.258797	0.549168
H86	H	0.935661	0.357930	0.458027
H87	H	1.014148	0.348686	0.530715
H88	H	1.013028	0.278148	0.447918
H89	H	0.893192	0.296098	0.593103
H90	H	0.892052	0.225557	0.510298
C91	C	0.876026	0.313746	0.306579
C92	C	0.929315	0.258787	0.241801
H93	H	0.834820	0.356235	0.272762
H94	H	0.843799	0.275304	0.345458
H95	H	0.913321	0.346983	0.345438
H96	H	0.892020	0.225545	0.202946
H97	H	0.961544	0.297234	0.202905
C98	C	0.804561	-0.095549	-0.081296
C99	C	0.820734	-0.044251	0.000087
H100	H	0.843371	-0.151934	-0.081296
H101	H	0.743835	-0.108785	-0.081283
H102	H	0.815524	-0.060722	-0.136503
H103	H	0.809765	-0.079076	0.055294
H104	H	0.881474	-0.031018	0.000083
C105	C	0.706615	0.380975	0.000058
C106	C	0.776511	0.308428	0.000053
H107	H	0.731123	0.438598	0.000060
H108	H	0.670663	0.376776	-0.055146
H109	H	0.670665	0.376759	0.055275
H110	H	0.812457	0.312641	-0.055168
H111	H	0.812478	0.312630	0.055263
H112	H	1.166965	0.013780	0.256017
C113	C	1.237593	-0.058985	0.386228
C114	C	1.184291	-0.004043	0.451009
H115	H	1.278819	-0.101455	0.420044
H116	H	1.200315	-0.092235	0.347378
H117	H	1.269805	-0.020523	0.347341
H118	H	1.152074	-0.042504	0.489892
H119	H	1.221574	0.029210	0.489876
H120	H	1.166995	0.013790	0.563383
