data_functionalizedCrystal
_audit_creation_method	'MofGen! by Chris Wilmer'
_symmetry_space_group_name_H-M	'P1'
_symmetry_Int_Tables_number	1
_symmetry_cell_setting	triclinic
loop_
_symmetry_equiv_pos_as_xyz
  x,y,z
_cell_length_a	12.759401
_cell_length_b	19.805405
_cell_length_c	12.759393
_cell_angle_alpha	90.037109
_cell_angle_beta	90.020473
_cell_angle_gamma	90.027935
loop_
_atom_site_label
_atom_site_type_symbol
_atom_site_fract_x
_atom_site_fract_y
_atom_site_fract_z
Zn1	Zn	1.606176	-0.269399	0.593976
Zn2	Zn	2.106176	0.230601	1.093976
Zn3	Zn	1.606033	-0.382603	0.418277
Zn4	Zn	2.106033	0.117397	0.918277
Zn5	Zn	1.430476	-0.269436	0.418311
Zn6	Zn	1.930476	0.230564	0.918311
Zn7	Zn	1.430431	-0.382555	0.593915
Zn8	Zn	1.930431	0.117445	1.093915
O9	O	1.518279	-0.325998	0.506120
O10	O	2.018279	0.174002	1.006120
O11	O	1.753178	-0.284421	0.570681
O12	O	2.253178	0.215579	1.070681
O13	O	1.582704	-0.367627	0.271261
O14	O	2.082704	0.132373	0.771261
O15	O	1.453862	-0.174715	0.441653
O16	O	1.953862	0.325285	0.941653
O17	O	1.753073	-0.367591	0.441596
O18	O	2.253073	0.132409	0.941596
O19	O	1.582948	-0.174688	0.570713
O20	O	2.082948	0.325312	1.070713
O21	O	1.453723	-0.284484	0.271285
O22	O	1.953723	0.215516	0.771285
O23	O	1.283449	-0.284437	0.441594
O24	O	1.783449	0.215563	0.941594
O25	O	1.453785	-0.367509	0.740944
O26	O	1.953785	0.132491	1.240944
O27	O	1.283416	-0.367545	0.570609
O28	O	1.783416	0.132455	1.070609
O29	O	1.582904	-0.284374	0.740989
O30	O	2.082904	0.215626	1.240989
O31	O	1.582660	-0.477313	0.441536
O32	O	2.082660	0.022687	0.941536
O33	O	1.453646	-0.477278	0.570576
O34	O	1.953646	0.022722	1.070576
C35	C	1.245312	-0.325990	0.506099
C36	C	1.745312	0.174010	1.006099
C37	C	1.128535	-0.326003	0.506115
C38	C	1.628535	0.173997	1.006115
C39	C	1.073683	-0.369343	0.573187
C40	C	1.573683	0.130657	1.073187
C41	C	0.963959	-0.369345	0.573208
C42	C	1.463959	0.130655	1.073208
C43	C	0.963948	-0.282666	0.439075
C44	C	1.463948	0.217334	0.939075
C45	C	1.073670	-0.282661	0.439060
C46	C	1.573670	0.217339	0.939060
C47	C	1.518161	-0.501854	0.506069
C48	C	2.018161	-0.001854	1.006069
C49	C	1.518206	-0.577086	0.506082
C50	C	2.018206	-0.077086	1.006082
C51	C	1.585449	-0.612426	0.438962
C52	C	2.085449	-0.112426	0.938962
C53	C	1.585494	-0.683115	0.438985
C54	C	2.085494	-0.183115	0.938985
C55	C	1.518289	-0.718462	0.506124
C56	C	2.018289	-0.218462	1.006124
C57	C	1.451044	-0.683117	0.573252
C58	C	1.951044	-0.183117	1.073252
C59	C	1.451005	-0.612430	0.573234
C60	C	1.951005	-0.112430	1.073234
C61	C	1.451199	-0.968190	0.573330
C62	C	1.951199	-0.468190	1.073330
C63	C	1.451240	-1.038882	0.573342
C64	C	1.951240	-0.538882	1.073342
C65	C	1.585687	-1.038875	0.439081
C66	C	2.085687	-0.538875	0.939081
C67	C	1.585649	-0.968188	0.439063
C68	C	2.085649	-0.468188	0.939063
C69	C	1.518407	-0.932849	0.506194
C70	C	2.018407	-0.432849	1.006194
C71	C	1.518361	-0.856201	0.506170
C72	C	2.018361	-0.356201	1.006170
C73	C	1.518330	-0.795109	0.506144
C74	C	2.018330	-0.295109	1.006144
C75	C	1.792312	-0.326007	0.506141
C76	C	2.292312	0.173993	1.006141
C77	C	1.909089	-0.326011	0.506150
C78	C	2.409089	0.173989	1.006150
C79	C	1.518355	-0.325932	0.780153
C80	C	2.018355	0.174068	1.280153
C81	C	1.518388	-0.325903	0.896930
C82	C	2.018388	0.174097	1.396930
C83	C	1.518426	-0.149456	0.506194
C84	C	2.018426	0.350544	1.006194
C85	C	1.518489	-0.074223	0.506225
C86	C	2.018489	0.425777	1.006225
C87	C	1.518263	-0.326016	0.233152
C88	C	2.018263	0.173984	0.733152
C89	C	1.518434	-0.325854	0.116376
C90	C	2.018434	0.174146	0.616376
C91	C	1.585647	-0.282582	1.061548
C92	C	2.085647	0.217418	1.561548
C93	C	1.585627	-0.282609	0.951824
C94	C	2.085627	0.217391	1.451824
C95	C	1.451172	-0.369179	0.951766
C96	C	1.951172	0.130821	1.451766
C97	C	1.451198	-0.369156	1.061488
C98	C	1.951198	0.130844	1.561488
H99	H	1.118332	-0.247364	0.384442
H100	H	1.618332	0.252636	0.884442
H101	H	1.396329	-0.711902	0.627923
H102	H	1.896329	-0.211902	1.127923
N103	N	1.132863	-0.416081	0.645515
N104	N	1.632863	0.083919	1.145515
H105	H	1.178343	-0.447414	0.602723
H106	H	1.678343	0.052586	1.102723
H107	H	1.081396	-0.443491	0.687995
H108	H	1.581396	0.056509	1.187995
H109	H	0.919264	-0.247380	0.384480
H110	H	1.419264	0.252620	0.884480
N111	N	0.904802	-0.416097	0.645545
N112	N	1.404802	0.083903	1.145545
H113	H	0.859235	-0.447429	0.602761
H114	H	1.359235	0.052571	1.102761
H115	H	0.859382	-0.388585	0.694310
H116	H	1.359382	0.111415	1.194310
N117	N	1.378688	-0.415823	1.120629
N118	N	1.878688	0.084177	1.620629
H119	H	1.388910	-0.409237	1.198466
H120	H	1.888910	0.090763	1.698466
H121	H	1.394989	-0.464169	1.101433
H122	H	1.894989	0.035831	1.601433
H123	H	1.640249	-0.711886	0.384328
H124	H	2.140249	-0.211886	0.884328
N125	N	1.657931	-0.574305	0.366543
N126	N	2.157931	-0.074305	0.866543
H127	H	1.700537	-0.607422	0.324028
H128	H	2.200537	-0.107422	0.824028
H129	H	1.706512	-0.544928	0.409346
H130	H	2.206512	-0.044928	0.909346
H131	H	1.640369	-0.939411	0.384388
H132	H	2.140369	-0.439411	0.884388
H133	H	1.640442	-1.067657	0.384424
H134	H	2.140442	-0.567657	0.884424
N135	N	1.378750	-1.077009	0.645757
N136	N	1.878750	-0.577009	1.145757
H137	H	1.336147	-1.043896	0.688283
H138	H	1.836147	-0.543896	1.188283
H139	H	1.421509	-1.106292	0.694416
H140	H	1.921509	-0.606292	1.194416
H141	H	1.640394	-0.247323	1.106235
H142	H	2.140394	0.252677	1.606235
H143	H	1.396446	-0.939422	0.627989
H144	H	1.896446	-0.439422	1.127989
N145	N	1.378483	-0.574309	0.645631
N146	N	1.878483	-0.074309	1.145631
H147	H	1.335913	-0.607426	0.688166
H148	H	1.835913	-0.107426	1.188166
H149	H	1.329869	-0.545028	0.602817
H150	H	1.829869	-0.045028	1.102817
N151	N	1.658124	-0.235940	0.892687
N152	N	2.158124	0.264060	1.392687
H153	H	1.700719	-0.208508	0.944111
H154	H	2.200719	0.291492	1.444111
H155	H	1.615376	-0.204626	0.847169
H156	H	2.115376	0.295374	1.347169
N157	N	1.378655	-0.415880	0.892564
N158	N	1.878655	0.084120	1.392564
H159	H	1.388833	-0.409329	0.814736
H160	H	1.888833	0.090671	1.314736
H161	H	1.303634	-0.405339	0.911742
H162	H	1.803634	0.094661	1.411742
