data_functionalizedCrystal
_audit_creation_method	'MofGen! by Chris Wilmer'
_symmetry_space_group_name_H-M	'P1'
_symmetry_Int_Tables_number	1
_symmetry_cell_setting	triclinic
loop_
_symmetry_equiv_pos_as_xyz
  x,y,z
_cell_length_a	19.188930
_cell_length_b	19.188930
_cell_length_c	17.666332
_cell_angle_alpha	90.009680
_cell_angle_beta	90.019704
_cell_angle_gamma	83.144779
loop_
_atom_site_label
_atom_site_type_symbol
_atom_site_fract_x
_atom_site_fract_y
_atom_site_fract_z
O1	O	0.926146	0.087167	0.063200
O2	O	1.426146	0.587167	0.563200
O3	O	0.722835	0.098902	0.063149
O4	O	1.222835	0.598902	0.563149
O5	O	0.830358	-0.008621	0.063161
O6	O	1.330358	0.491379	0.563161
O7	O	0.818623	0.194690	0.063188
O8	O	1.318623	0.694690	0.563188
O9	O	0.830346	-0.008624	-0.062735
O10	O	1.330346	0.491376	0.437265
O11	O	0.722823	0.098899	-0.062747
O12	O	1.222823	0.598899	0.437253
O13	O	0.926134	0.087165	-0.062697
O14	O	1.426134	0.587165	0.437303
Cu15	Cu	0.824477	0.093032	-0.074217
Cu16	Cu	1.324477	0.593032	0.425783
Cu17	Cu	0.824492	0.093035	0.074670
Cu18	Cu	1.324492	0.593035	0.574670
O19	O	0.818611	0.194687	-0.062709
O20	O	1.318611	0.694687	0.437291
C21	C	0.696818	0.098520	0.000194
C22	C	1.196818	0.598520	0.500194
C23	C	0.619313	0.097380	0.000174
C24	C	1.119313	0.597380	0.500174
C25	C	0.574389	0.160470	0.000194
C26	C	1.074389	0.660470	0.500194
C27	C	0.501566	0.159399	0.000203
C28	C	1.001566	0.659399	0.500203
C29	C	0.473669	0.095233	0.000206
C30	C	0.973669	0.595233	0.500206
C31	C	0.518603	0.032133	0.000181
C32	C	1.018603	0.532133	0.500181
C33	C	0.591425	0.033207	0.000166
C34	C	1.091425	0.533207	0.500166
N35	N	0.365693	0.046187	0.043078
N36	N	0.865693	0.546187	0.543078
N37	N	0.296514	0.045171	0.043095
N38	N	0.796514	0.545171	0.543095
C39	C	0.254260	0.091994	0.000252
C40	C	0.754260	0.591994	0.500252
N41	N	0.283797	0.139882	-0.042599
N42	N	0.783797	0.639882	0.457401
N43	N	0.352982	0.140900	-0.042612
N44	N	0.852982	0.640900	0.457388
C45	C	0.394707	0.094062	0.000222
C46	C	0.894707	0.594062	0.500222
C47	C	0.130372	0.153928	0.000280
C48	C	0.630372	0.653928	0.500280
C49	C	0.057547	0.152853	0.000283
C50	C	0.557547	0.652853	0.500283
C51	C	0.074586	0.025586	0.000270
C52	C	0.574586	0.525586	0.500270
C53	C	0.147409	0.026662	0.000258
C54	C	0.647409	0.526662	0.500258
C55	C	0.175298	0.090835	0.000267
C56	C	0.675298	0.590835	0.500267
C57	C	0.829972	-0.034634	0.000211
C58	C	1.329972	0.465366	0.500211
C59	C	0.828831	-0.112138	0.000204
C60	C	1.328831	0.387862	0.500204
C61	C	0.891922	-0.157062	0.000216
C62	C	1.391922	0.342938	0.500216
C63	C	0.890850	-0.229886	0.000228
C64	C	1.390850	0.270114	0.500228
C65	C	0.826684	-0.257782	0.000212
C66	C	1.326684	0.242218	0.500212
C67	C	0.763585	-0.212849	0.000205
C68	C	1.263585	0.287151	0.500205
C69	C	0.764658	-0.140026	0.000200
C70	C	1.264658	0.359974	0.500200
N71	N	0.777633	-0.365788	-0.042645
N72	N	1.277633	0.134212	0.457355
N73	N	0.776617	-0.434967	-0.042642
N74	N	1.276617	0.065033	0.457358
C75	C	0.823446	-0.477191	0.000227
C76	C	1.323446	0.022809	0.500227
N77	N	0.871339	-0.447625	0.043084
N78	N	1.371339	0.052375	0.543084
N79	N	0.872357	-0.378440	0.043079
N80	N	1.372357	0.121560	0.543079
C81	C	0.825513	-0.336745	0.000218
C82	C	1.325513	0.163255	0.500218
C83	C	0.885379	-0.601079	0.000253
C84	C	1.385379	-0.101079	0.500253
C85	C	0.884305	-0.673904	0.000270
C86	C	1.384305	-0.173904	0.500270
C87	C	0.757038	-0.656865	0.000239
C88	C	1.257038	-0.156865	0.500239
C89	C	0.758114	-0.584042	0.000230
C90	C	1.258114	-0.084042	0.500230
C91	C	0.822286	-0.556154	0.000233
C92	C	1.322286	-0.056154	0.500233
C93	C	0.952151	0.087546	0.000260
C94	C	1.452151	0.587546	0.500260
C95	C	1.029656	0.088687	0.000285
C96	C	1.529656	0.588687	0.500285
C97	C	0.818997	0.220700	0.000244
C98	C	1.318997	0.720700	0.500244
C99	C	0.820138	0.298204	0.000255
C100	C	1.320138	0.798204	0.500255
N101	N	0.824473	0.093029	-0.178937
N102	N	1.324473	0.593029	0.321063
C103	C	0.872114	0.045434	-0.780982
C104	C	1.372114	0.545434	-0.280982
C105	C	0.872116	0.045435	-0.701734
C106	C	1.372116	0.545435	-0.201734
C107	C	0.824492	0.093028	-0.662118
C108	C	1.324492	0.593028	-0.162118
C109	C	0.776876	0.140635	-0.701757
C110	C	1.276876	0.640635	-0.201757
C111	C	0.776881	0.140637	-0.781003
C112	C	1.276881	0.640637	-0.281003
N113	N	0.762680	0.102077	-0.537720
N114	N	1.262680	0.602077	-0.037720
N115	N	0.762678	0.102071	-0.462440
N116	N	1.262678	0.602071	0.037560
C117	C	0.824476	0.093027	-0.423354
C118	C	1.324476	0.593027	0.076646
N119	N	0.886278	0.083976	-0.462393
N120	N	1.386278	0.583976	0.037607
N121	N	0.886280	0.083978	-0.537680
N122	N	1.386280	0.583978	-0.037680
C123	C	0.824482	0.093032	-0.576189
C124	C	1.324482	0.593032	-0.076189
C125	C	0.872093	0.045428	-0.297796
C126	C	1.372093	0.545428	0.202204
C127	C	0.872095	0.045435	-0.218547
C128	C	1.372095	0.545435	0.281453
C129	C	0.776850	0.140631	-0.218571
C130	C	1.276850	0.640631	0.281429
C131	C	0.776854	0.140628	-0.297819
C132	C	1.276854	0.640628	0.202181
C133	C	0.824475	0.093023	-0.337427
C134	C	1.324475	0.593023	0.162573
N135	N	0.824502	0.093032	0.179390
N136	N	1.324502	0.593032	0.679390
H137	H	0.153080	0.206181	0.000276
H138	H	0.653080	0.706181	0.500276
H139	H	0.711340	-0.235567	0.000194
H140	H	1.211340	0.264433	0.500194
H141	H	0.713281	-0.103449	0.000190
H142	H	1.213281	0.396551	0.500190
H143	H	0.706738	-0.547464	0.000216
H144	H	1.206738	-0.047464	0.500216
H145	H	0.628003	-0.018171	0.000150
H146	H	1.128003	0.481829	0.500150
H147	H	0.183988	-0.024713	0.000246
H148	H	0.683988	0.475287	0.500246
F149	F	0.009735	0.220007	0.000301
F150	F	0.509735	0.720007	0.500301
F151	F	0.726176	0.191286	-0.339998
F152	F	1.226176	0.691286	0.160002
F153	F	0.922798	-0.005229	-0.823133
F154	F	1.422798	0.494771	-0.323133
F155	F	0.953676	-0.571396	0.000253
F156	F	1.453676	-0.071396	0.500253
H157	H	0.910889	0.006674	-0.669462
H158	H	1.410889	0.506674	-0.169462
H159	H	0.597091	0.212725	0.000203
H160	H	1.097091	0.712725	0.500203
F161	F	0.951459	-0.721716	0.000287
F162	F	1.451459	-0.221716	0.500287
F163	F	0.726195	0.191290	-0.659595
F164	F	1.226195	0.691290	-0.159595
F165	F	0.922778	-0.005235	-0.339950
F166	F	1.422778	0.494765	0.160050
H167	H	0.738109	0.179398	-0.813269
H168	H	1.238109	0.679398	-0.313269
F169	F	0.688747	-0.686550	0.000226
F170	F	1.188747	-0.186550	0.500226
F171	F	0.922777	-0.005224	-0.176369
F172	F	1.422777	0.494776	0.323631
F173	F	0.044901	-0.042705	0.000266
F174	F	0.544901	0.457295	0.500266
F175	F	0.726171	0.191288	-0.176413
F176	F	1.226171	0.691288	0.323587
H177	H	0.464982	0.210776	0.000217
H178	H	0.964982	0.710776	0.500217
F179	F	0.488912	-0.036157	0.000181
F180	F	0.988912	0.463843	0.500181
F181	F	0.960220	-0.127385	0.000236
F182	F	1.460220	0.372615	0.500236
H183	H	0.942228	-0.266470	0.000241
H184	H	1.442228	0.233530	0.500241
