data_functionalizedCrystal
_audit_creation_method	'MofGen! by Chris Wilmer'
_symmetry_space_group_name_H-M	'P1'
_symmetry_Int_Tables_number	1
_symmetry_cell_setting	triclinic
loop_
_symmetry_equiv_pos_as_xyz
  x,y,z
_cell_length_a	14.971487
_cell_length_b	9.130313
_cell_length_c	10.654548
_cell_angle_alpha	89.999434
_cell_angle_beta	95.950649
_cell_angle_gamma	90.005934
loop_
_atom_site_label
_atom_site_type_symbol
_atom_site_fract_x
_atom_site_fract_y
_atom_site_fract_z
O1	O	-1.187829	0.121583	0.163655
O2	O	-0.927536	0.121632	0.183252
O3	O	-1.063668	0.121603	-0.009350
O4	O	-1.051697	0.121612	0.356257
O5	O	-1.063666	-0.121995	-0.009345
O6	O	-0.927534	-0.121967	0.183258
O7	O	-1.187827	-0.122015	0.163660
Cu8	Cu	-1.057681	-0.144234	0.173459
Cu9	Cu	-1.057683	0.143850	0.173453
O10	O	-1.051695	-0.121987	0.356262
C11	C	-0.894205	-0.000162	0.182378
C12	C	-0.794894	-0.000143	0.179752
C13	C	-0.738284	-0.000141	0.292900
C14	C	-0.644971	-0.000159	0.290425
C15	C	-0.608270	-0.000170	0.174799
C16	C	-0.664887	-0.000176	0.061641
C17	C	-0.758198	-0.000168	0.064118
C18	C	-0.470397	-0.000190	0.056486
C19	C	-0.377079	-0.000195	0.054009
C20	C	-0.357170	-0.000181	0.282793
C21	C	-0.450481	-0.000173	0.285270
C22	C	-0.507092	-0.000177	0.172112
N23	N	-1.057686	-0.346856	0.173463
C24	C	-1.117981	-0.423521	0.088207
C25	C	-1.117978	-0.576858	0.088192
C26	C	-0.997383	-0.576852	0.258699
C27	C	-0.997382	-0.423518	0.258707
C28	C	-1.178284	-0.346859	0.002963
C29	C	-1.238585	-0.423524	-0.082299
C30	C	-1.238582	-0.576861	-0.082314
C31	C	-1.178280	-0.653533	0.002933
C32	C	-0.221158	-0.000210	0.164533
C33	C	-0.320469	-0.000193	0.167157
C34	C	-1.062788	-0.000193	-0.056136
C35	C	-1.060159	-0.000186	-0.195551
N36	N	-1.057684	0.346473	0.173440
C37	C	-1.056441	0.132602	-0.392046
C38	C	-1.058922	0.132602	-0.261052
C39	C	-1.058925	-0.132983	-0.261052
C40	C	-1.056450	-0.132982	-0.392044
C41	C	-1.055194	0.265398	-0.457538
C42	C	-1.056430	0.398196	-0.392047
C43	C	-1.058911	0.398196	-0.261054
C44	C	-1.060156	0.265399	-0.195552
C45	C	-1.052575	-0.000187	0.403048
C46	C	-1.055204	-0.000185	0.542463
H47	H	-0.311072	-0.000184	0.374930
H48	H	-0.516488	-0.000195	-0.035659
Br49	Br	-1.320406	-0.680905	-0.198035
H50	H	-0.634998	-0.000206	-0.032503
Br51	Br	-1.063539	0.265403	-0.017776
Br52	Br	-0.500289	-0.000137	0.442192
H53	H	-1.053171	0.265413	-0.564199
H54	H	-0.347201	-0.000206	-0.040144
H55	H	-1.059937	-0.241100	-0.207709
Br56	Br	-0.835028	-0.000184	-0.089447
H57	H	-1.178294	-0.222005	0.002970
H58	H	-0.948288	-0.639289	0.328105
Br59	Br	-1.054759	0.578411	-0.480941
Br60	Br	-1.060603	0.578416	-0.172177
H61	H	-1.055440	-0.241108	-0.445367
Br62	Br	-1.320410	-0.319475	-0.197999
H63	H	-0.598882	-0.000156	0.382562
Br64	Br	-0.788083	-0.000112	0.449830
Br65	Br	-1.178270	-0.861635	0.002893
Br66	Br	-0.915545	-0.319469	0.374407
