data_functionalizedCrystal
_audit_creation_method	'MofGen! by Chris Wilmer'
_symmetry_space_group_name_H-M	'P1'
_symmetry_Int_Tables_number	1
_symmetry_cell_setting	triclinic
loop_
_symmetry_equiv_pos_as_xyz
  x,y,z
_cell_length_a	19.188929
_cell_length_b	10.654545
_cell_length_c	18.266242
_cell_angle_alpha	89.991516
_cell_angle_beta	90.026921
_cell_angle_gamma	96.186069
loop_
_atom_site_label
_atom_site_type_symbol
_atom_site_fract_x
_atom_site_fract_y
_atom_site_fract_z
O1	O	-0.098047	1.665778	-0.060913
O2	O	0.401953	2.165778	0.439087
O3	O	-0.107393	1.300101	-0.060920
O4	O	0.392607	1.800101	0.439080
O5	O	-0.001133	1.493492	-0.060871
O6	O	0.498867	1.993492	0.439129
O7	O	-0.204307	1.472387	-0.060962
O8	O	0.295693	1.972387	0.439038
O9	O	-0.001130	1.493459	0.060891
O10	O	0.498870	1.993459	0.560891
O11	O	-0.107390	1.300068	0.060842
O12	O	0.392610	1.800068	0.560842
O13	O	-0.098044	1.665745	0.060849
O14	O	0.401956	2.165745	0.560849
Zn15	Zn	-0.102716	1.482901	0.080178
Zn16	Zn	0.397284	1.982901	0.580178
Zn17	Zn	-0.102720	1.482945	-0.080249
Zn18	Zn	0.397280	1.982945	0.419751
O19	O	-0.204303	1.472354	0.060800
O20	O	0.295697	1.972354	0.560800
C21	C	-0.106706	1.253301	-0.000039
C22	C	0.393294	1.753301	0.499961
C23	C	-0.104655	1.113901	-0.000039
C24	C	0.395345	1.613901	0.499961
C25	C	-0.103687	1.048399	0.066334
C26	C	0.396313	1.548399	0.566334
C27	C	-0.101749	0.917420	0.066335
C28	C	0.398251	1.417420	0.566335
C29	C	-0.101747	0.917457	-0.066416
C30	C	0.398253	1.417457	0.433584
C31	C	-0.103681	1.048434	-0.066416
C32	C	0.396319	1.548434	0.433584
C33	C	-0.230321	1.473054	-0.000092
C34	C	0.269679	1.973054	0.499908
C35	C	-0.307838	1.475106	-0.000127
C36	C	0.192162	1.975106	0.499873
C37	C	-0.352021	1.361630	-0.000114
C38	C	0.147979	1.861630	0.499886
C39	C	-0.424858	1.363557	-0.000098
C40	C	0.075142	1.863557	0.499902
C41	C	-0.453508	1.478967	-0.000079
C42	C	0.046492	1.978967	0.499921
C43	C	-0.409315	1.592457	-0.000096
C44	C	0.090685	2.092457	0.499904
C45	C	-0.336481	1.590527	-0.000120
C46	C	0.163519	2.090527	0.499880
N47	N	-0.562051	1.567172	0.041407
N48	N	-0.062051	2.067172	0.541407
N49	N	-0.631242	1.568998	0.041431
N50	N	-0.131242	2.068998	0.541431
C51	C	-0.672955	1.484791	-0.000009
C52	C	-0.172955	1.984791	0.499991
N53	N	-0.642864	1.398670	-0.041465
N54	N	-0.142864	1.898670	0.458535
N55	N	-0.573668	1.396839	-0.041486
N56	N	-0.073668	1.896839	0.458514
C57	C	-0.532484	1.481073	-0.000054
C58	C	-0.032484	1.981073	0.499946
C59	C	-0.796115	1.373398	0.000021
C60	C	-0.296115	1.873398	0.500021
C61	C	-0.868953	1.375330	0.000033
C62	C	-0.368953	1.875330	0.500033
C63	C	-0.853409	1.604233	0.000042
C64	C	-0.353409	2.104233	0.500042
C65	C	-0.780573	1.602298	0.000023
C66	C	-0.280573	2.102298	0.500023
C67	C	-0.751931	1.486876	0.000015
C68	C	-0.251931	1.986876	0.500015
C69	C	0.024884	1.492792	0.000020
C70	C	0.524884	1.992792	0.500020
C71	C	0.102402	1.490741	0.000050
C72	C	0.602402	1.990741	0.500050
C73	C	-0.098731	1.712545	-0.000033
C74	C	0.401269	2.212545	0.499967
C75	C	-0.100782	1.851945	-0.000038
C76	C	0.399218	2.351945	0.499962
N77	N	-0.102713	1.482881	0.189665
N78	N	0.397287	1.982881	0.689665
N79	N	-0.102718	1.482975	-0.189736
N80	N	0.397282	1.982975	0.310264
C81	C	-0.145454	1.558799	0.227949
C82	C	0.354546	2.058799	0.727949
C83	C	-0.145452	1.558819	0.304594
C84	C	0.354548	2.058819	0.804594
C85	C	-0.102717	1.482899	0.342952
C86	C	0.397283	1.982899	0.842952
C87	C	-0.059967	1.406977	0.304658
C88	C	0.440033	1.906977	0.804658
C89	C	-0.059965	1.406968	0.228015
C90	C	0.440035	1.906968	0.728015
N91	N	-0.100279	1.372919	0.463305
N92	N	0.399721	1.872919	0.963305
N93	N	-0.100285	1.372930	0.536113
N94	N	0.399715	1.872930	1.036113
C95	C	-0.102720	1.482924	0.573874
C96	C	0.397280	1.982924	1.073874
N97	N	-0.105162	1.592907	0.536077
N98	N	0.394838	2.092907	1.036077
N99	N	-0.105160	1.592893	0.463263
N100	N	0.394840	2.092893	0.963263
C101	C	-0.102714	1.482901	0.426059
C102	C	0.397286	1.982901	0.926059
C103	C	-0.145462	1.558871	0.695266
C104	C	0.354538	2.058871	1.195266
C105	C	-0.145455	1.558894	0.771912
C106	C	0.354545	2.058894	1.271912
C107	C	-0.059974	1.407040	0.771975
C108	C	0.440026	1.907040	1.271975
C109	C	-0.059976	1.407028	0.695330
C110	C	0.440024	1.907028	1.195330
C111	C	-0.102724	1.482942	0.656980
C112	C	0.397276	1.982942	1.156980
H113	H	-0.328706	1.267645	-0.000127
H114	H	0.171294	1.767645	0.499873
H115	H	-0.180260	1.620618	0.196729
H116	H	0.319740	2.120618	0.696729
H117	H	-0.876735	1.698202	0.000004
H118	H	-0.376735	2.198202	0.500004
H119	H	-0.025159	1.345144	0.196844
H120	H	0.474841	1.845144	0.696844
F121	F	-0.190945	1.639626	0.345347
F122	F	0.309055	2.139626	0.845347
F123	F	-0.104720	1.118070	0.136979
F124	F	0.395280	1.618070	0.636979
H125	H	-0.100961	0.864094	0.120383
H126	H	0.399039	1.364094	0.620383
F127	F	-0.439808	1.715284	-0.000080
F128	F	0.060192	2.215284	0.499920
H129	H	-0.025177	1.345226	0.803205
H130	H	0.474823	1.845226	1.303205
H131	H	-0.460838	1.271149	-0.000086
H132	H	0.039162	1.771149	0.499914
H133	H	-0.025171	1.345163	0.335894
H134	H	0.474829	1.845163	0.835894
H135	H	-0.300506	1.682935	-0.000131
H136	H	0.199494	2.182935	0.499869
H137	H	-0.772794	1.279415	0.000019
H138	H	-0.272794	1.779415	0.500019
H139	H	-0.180258	1.620725	0.803082
H140	H	0.319742	2.120725	1.303082
H141	H	-0.100955	0.864138	-0.120459
H142	H	0.399045	1.364138	0.379541
F143	F	-0.104706	1.118151	-0.137064
F144	F	0.395294	1.618151	0.362936
F145	F	-0.915976	1.254547	0.000038
F146	F	-0.415976	1.754547	0.500038
F147	F	-0.733549	1.723076	0.000015
F148	F	-0.233549	2.223076	0.500015
H149	H	-0.180269	1.620685	0.664039
H150	H	0.319731	2.120685	1.164039
F151	F	-0.014496	1.326205	0.654584
F152	F	0.485504	1.826205	1.154584
