data_functionalizedCrystal
_audit_creation_method	'MofGen! by Chris Wilmer'
_symmetry_space_group_name_H-M	'P1'
_symmetry_Int_Tables_number	1
_symmetry_cell_setting	triclinic
loop_
_symmetry_equiv_pos_as_xyz
  x,y,z
_cell_length_a	16.992694
_cell_length_b	15.995350
_cell_length_c	15.455313
_cell_angle_alpha	92.667328
_cell_angle_beta	87.142206
_cell_angle_gamma	87.080299
loop_
_atom_site_label
_atom_site_type_symbol
_atom_site_fract_x
_atom_site_fract_y
_atom_site_fract_z
O1	O	1.043823	0.174116	-0.072015
O2	O	0.815539	0.172167	-0.072041
O3	O	0.935921	0.051671	-0.072026
O4	O	0.923440	0.294611	-0.072029
O5	O	0.929037	0.058531	0.072235
O6	O	0.808655	0.179027	0.072221
O7	O	1.036939	0.180976	0.072246
Cu8	Cu	0.922168	0.180628	0.085406
Cu9	Cu	0.930309	0.172515	-0.085200
O10	O	0.916556	0.301471	0.072232
C11	C	0.782884	0.173091	0.000087
C12	C	0.695840	0.165614	0.000077
C13	C	0.645600	0.237750	0.000077
C14	C	0.563813	0.230720	0.000089
C15	C	0.532268	0.151555	0.000095
C16	C	0.582515	0.079414	0.000098
C17	C	0.664300	0.086445	0.000092
C18	C	0.288669	0.122418	0.000118
C19	C	0.206878	0.115393	0.000122
C20	C	0.188181	0.266700	0.000114
C21	C	0.269969	0.273723	0.000103
C22	C	0.320208	0.201582	0.000111
N23	N	0.448669	0.144368	0.000104
N24	N	0.403806	0.208770	0.000107
C25	C	0.931963	0.023872	0.000103
C26	C	0.930416	-0.069182	0.000098
C27	C	0.924861	-0.407301	0.000100
C28	C	0.839142	-0.365620	-0.000233
C29	C	0.840674	-0.268811	0.000092
C30	C	0.927617	-0.239556	0.000098
C31	C	0.965973	-0.273887	0.082482
C32	C	0.963816	-0.370663	0.082550
C33	C	0.973415	-0.378704	-0.081501
C34	C	0.973447	-0.281812	-0.082590
C35	C	0.929178	-0.144754	0.000100
C36	C	0.923301	-0.502103	0.000104
C37	C	1.069593	0.180052	0.000117
C38	C	1.156637	0.187528	0.000121
C39	C	0.920514	0.329271	0.000101
C40	C	0.922061	0.422324	0.000101
N41	N	0.916448	0.186334	0.205401
N42	N	0.936036	0.166802	-0.205195
C43	C	0.967608	0.135164	0.250801
C44	C	0.963289	0.139488	0.341608
C45	C	0.907813	0.194986	0.387014
C46	C	0.856647	0.246157	0.341607
C47	C	0.860963	0.241829	0.250801
C48	C	0.889185	0.213646	0.658593
C49	C	0.884875	0.217972	0.749405
C50	C	0.991517	0.111301	0.749400
C51	C	0.995831	0.106981	0.658592
C52	C	0.944662	0.158150	0.613194
N53	N	0.903399	0.199408	0.479833
N54	N	0.949073	0.153722	0.520376
H55	H	0.810251	-0.245421	-0.058964
N56	N	0.940233	-0.412324	-0.164214
H57	H	0.972254	-0.393226	-0.215747
H58	H	0.942639	-0.475585	-0.165287
N59	N	0.718487	0.008639	0.000097
H60	H	0.710889	-0.028205	-0.053378
H61	H	0.775060	0.025172	0.000129
H62	H	0.807694	-0.389254	-0.059312
N63	N	1.018489	0.084307	0.390562
H64	H	0.986758	0.046991	0.428248
H65	H	1.054275	0.048561	0.347951
H66	H	0.671277	0.302214	0.000071
N67	N	0.342840	0.044606	0.000127
H68	H	0.335237	0.007766	-0.053349
H69	H	0.399417	0.061128	0.000160
N70	N	0.923200	-0.235052	0.163695
H71	H	0.961310	-0.203332	0.199152
H72	H	0.878974	-0.195254	0.147246
N73	N	0.790233	-0.390890	0.077575
H74	H	0.823361	-0.429220	0.113039
H75	H	0.771384	-0.339178	0.114294
N76	N	0.303987	0.359110	0.000112
H77	H	0.363422	0.352617	0.000109
H78	H	0.288154	0.388378	-0.053365
H79	H	1.033175	0.069641	0.786372
H80	H	0.522910	0.289461	0.000087
N81	N	0.936399	-0.252241	-0.163326
H82	H	0.890122	-0.211639	-0.146419
H83	H	0.976748	-0.223397	-0.199881
N84	N	1.046954	-0.407560	0.087531
H85	H	1.050719	-0.440444	0.141532
H86	H	1.060959	-0.445969	0.034692
N87	N	0.792618	-0.231128	0.078444
H88	H	0.736390	-0.248371	0.075906
H89	H	0.815918	-0.251771	0.132904
H90	H	1.041003	0.061791	0.621625
N91	N	0.172842	0.030008	0.000131
H92	H	0.193705	-0.004394	-0.053343
H93	H	0.188617	0.000771	0.053648
N94	N	1.027430	0.075288	0.201834
H95	H	1.022401	0.080306	0.137419
H96	H	1.082302	0.089460	0.217691
H97	H	1.036653	-0.406261	-0.082051
N98	N	0.805782	0.297023	0.201837
H99	H	0.837529	0.334324	0.164150
H100	H	0.772868	0.260828	0.164224
N101	N	0.919079	-0.393769	0.164115
H102	H	0.900942	-0.341117	0.199686
H103	H	0.871719	-0.425705	0.148078
H104	H	0.811474	0.291342	0.378581
H105	H	0.839698	0.263168	0.786370
H106	H	0.147268	0.325432	0.000110
N107	N	0.548496	-0.005972	0.000118
H108	H	0.489061	0.000518	0.000121
H109	H	0.569418	-0.040329	-0.053358
N110	N	1.050398	-0.249355	0.086537
H111	H	1.064626	-0.215666	0.034888
H112	H	1.056492	-0.214497	0.141743
N113	N	1.057747	-0.256165	-0.089180
H114	H	1.067468	-0.216616	-0.038428
H115	H	1.094698	-0.307594	-0.088469
H116	H	0.847523	0.255311	0.621636
