data_functionalizedCrystal
_audit_creation_method	'MofGen! by Chris Wilmer'
_symmetry_space_group_name_H-M	'P1'
_symmetry_Int_Tables_number	1
_symmetry_cell_setting	triclinic
loop_
_symmetry_equiv_pos_as_xyz
  x,y,z
_cell_length_a	16.625545
_cell_length_b	21.395364
_cell_length_c	21.395356
_cell_angle_alpha	89.980845
_cell_angle_beta	89.974643
_cell_angle_gamma	90.030606
loop_
_atom_site_label
_atom_site_type_symbol
_atom_site_fract_x
_atom_site_fract_y
_atom_site_fract_z
Zn1	Zn	-0.320913	0.957876	-0.354197
Zn2	Zn	0.012420	1.291209	-0.020864
Zn3	Zn	0.345753	1.624542	0.312469
Zn4	Zn	-0.455750	0.957789	-0.249424
Zn5	Zn	-0.122417	1.291123	0.083909
Zn6	Zn	0.210917	1.624456	0.417242
Zn7	Zn	-0.320947	0.853092	-0.249442
Zn8	Zn	0.012386	1.186426	0.083891
Zn9	Zn	0.345720	1.519759	0.417224
Zn10	Zn	-0.455720	0.853069	-0.354172
Zn11	Zn	-0.122386	1.186402	-0.020839
Zn12	Zn	0.210947	1.519736	0.312494
O13	O	-0.388333	0.905457	-0.301809
O14	O	-0.054999	1.238790	0.031524
O15	O	0.278334	1.572123	0.364858
O16	O	-0.338799	1.045542	-0.340302
O17	O	-0.005465	1.378875	-0.006969
O18	O	0.327868	1.712209	0.326365
O19	O	-0.437895	0.943875	-0.161749
O20	O	-0.104562	1.277208	0.171585
O21	O	0.228772	1.610541	0.504918
O22	O	-0.208110	0.867038	-0.263356
O23	O	0.125223	1.200371	0.069977
O24	O	0.458556	1.533705	0.403310
O25	O	-0.437862	1.045479	-0.263325
O26	O	-0.104529	1.378812	0.070008
O27	O	0.228804	1.712145	0.403341
O28	O	-0.208086	0.944022	-0.340319
O29	O	0.125248	1.277355	-0.006986
O30	O	0.458581	1.610688	0.326347
O31	O	-0.338856	0.866954	-0.161762
O32	O	-0.005523	1.200287	0.171571
O33	O	0.327811	1.533621	0.504905
O34	O	-0.338826	0.765411	-0.263332
O35	O	-0.005493	1.098745	0.070001
O36	O	0.327840	1.432078	0.403335
O37	O	-0.437811	0.866998	-0.441854
O38	O	-0.104477	1.200332	-0.108520
O39	O	0.228856	1.533665	0.224813
O40	O	-0.437843	0.765394	-0.340277
O41	O	-0.104510	1.098728	-0.006944
O42	O	0.228824	1.432061	0.326390
O43	O	-0.338769	0.943999	-0.441872
O44	O	-0.005436	1.277333	-0.108539
O45	O	0.327898	1.610666	0.224795
O46	O	-0.568579	0.943852	-0.263301
O47	O	-0.235245	1.277185	0.070032
O48	O	0.098088	1.610519	0.403365
O49	O	-0.568556	0.866915	-0.340259
O50	O	-0.235223	1.200248	-0.006926
O51	O	0.098111	1.533581	0.326407
C52	C	-0.388336	0.742669	-0.301804
C53	C	-0.055002	1.076002	0.031529
C54	C	0.278331	1.409336	0.364863
C55	C	-0.388356	0.673028	-0.301817
C56	C	-0.055023	1.006361	0.031516
C57	C	0.278310	1.339694	0.364850
C58	C	-0.597824	0.905388	-0.301789
C59	C	-0.264490	1.238722	0.031544
C60	C	0.068843	1.572055	0.364877
C61	C	-0.687445	0.905417	-0.301802
C62	C	-0.354111	1.238750	0.031531
C63	C	-0.020778	1.572083	0.364865
C64	C	-0.760227	0.905441	-0.301814
C65	C	-0.426894	1.238774	0.031519
C66	C	-0.093560	1.572108	0.364852
C67	C	-0.851535	0.905477	-0.301828
C68	C	-0.518202	1.238811	0.031505
C69	C	-0.184869	1.572144	0.364838
C70	C	-0.924312	0.905510	-0.301836
C71	C	-0.590979	1.238843	0.031497
C72	C	-0.257645	1.572177	0.364831
C73	C	-1.015626	0.905546	-0.301849
C74	C	-0.682293	1.238879	0.031484
C75	C	-0.348959	1.572213	0.364818
C76	C	-0.388283	0.905506	-0.465232
C77	C	-0.054949	1.238839	-0.131899
C78	C	0.278384	1.572173	0.201434
C79	C	-0.388261	0.905527	-0.534874
C80	C	-0.054928	1.238860	-0.201540
C81	C	0.278405	1.572194	0.131793
C82	C	-0.178024	0.905542	-0.301843
C83	C	0.155310	1.238875	0.031491
C84	C	0.488643	1.572209	0.364824
C85	C	-0.088403	0.905578	-0.301857
C86	C	0.244931	1.238912	0.031476
C87	C	0.578264	1.572245	0.364810
C88	C	-0.388330	1.068880	-0.301814
C89	C	-0.054997	1.402213	0.031519
C90	C	0.278336	1.735546	0.364852
C91	C	-0.388329	1.138521	-0.301817
C92	C	-0.054996	1.471854	0.031517
C93	C	0.278338	1.805188	0.364850
C94	C	-0.336787	1.640351	-0.341898
C95	C	-0.003453	1.973685	-0.008564
C96	C	0.329880	2.307018	0.324769
C97	C	-0.336778	1.574916	-0.341896
C98	C	-0.003445	1.908249	-0.008562
C99	C	0.329889	2.241582	0.324771
C100	C	-0.388353	1.542159	-0.301819
C101	C	-0.055020	1.875493	0.031514
C102	C	0.278313	2.208826	0.364847
C103	C	-0.439927	1.574844	-0.261731
C104	C	-0.106593	1.908177	0.071603
C105	C	0.226740	2.241510	0.404936
C106	C	-0.439928	1.640278	-0.261729
C107	C	-0.106595	1.973611	0.071604
C108	C	0.226739	2.306945	0.404937
C109	C	-0.460997	1.438459	-0.296862
C110	C	-0.127663	1.771792	0.036471
C111	C	0.205670	2.105126	0.369804
C112	C	-0.460996	1.373026	-0.296868
C113	C	-0.127663	1.706360	0.036465
C114	C	0.205670	2.039693	0.369799
C115	C	-0.388348	1.340339	-0.301820
C116	C	-0.055015	1.673672	0.031514
C117	C	0.278319	2.007005	0.364847
C118	C	-0.315697	1.373092	-0.306779
C119	C	0.017636	1.706425	0.026554
C120	C	0.350969	2.039759	0.359888
C121	C	-0.315699	1.438526	-0.306778
C122	C	0.017634	1.771860	0.026556
C123	C	0.350968	2.105193	0.359889
C124	C	-0.388357	1.471207	-0.301816
C125	C	-0.055024	1.804540	0.031517
C126	C	0.278310	2.137874	0.364851
C127	C	-0.336764	1.236710	-0.341901
C128	C	-0.003431	1.570043	-0.008567
C129	C	0.329902	1.903376	0.324766
C130	C	-0.336754	1.171273	-0.341894
C131	C	-0.003421	1.504606	-0.008561
C132	C	0.329912	1.837940	0.324772
C133	C	-0.439910	1.171202	-0.261732
C134	C	-0.106577	1.504536	0.071601
C135	C	0.226757	1.837869	0.404934
C136	C	-0.439913	1.236638	-0.261736
C137	C	-0.106580	1.569971	0.071598
C138	C	0.226754	1.903304	0.404931
C139	C	-0.388341	1.269387	-0.301823
C140	C	-0.055008	1.602721	0.031510
C141	C	0.278325	1.936054	0.364844
C142	C	-0.336686	0.865485	-0.567584
C143	C	-0.003352	1.198818	-0.234251
C144	C	0.329981	1.532152	0.099083
C145	C	-0.336671	0.865483	-0.633019
C146	C	-0.003338	1.198816	-0.299686
C147	C	0.329996	1.532150	0.033647
C148	C	-0.388223	0.905534	-0.665742
C149	C	-0.054890	1.238867	-0.332409
C150	C	0.278444	1.572200	0.000925
C151	C	-0.439809	0.945578	-0.633024
C152	C	-0.106475	1.278912	-0.299691
C153	C	0.226858	1.612245	0.033643
C154	C	-0.439828	0.945575	-0.567590
C155	C	-0.106494	1.278908	-0.234257
C156	C	0.226839	1.612242	0.099077
C157	C	-0.394556	0.961986	-0.769424
C158	C	-0.061222	1.295320	-0.436091
C159	C	0.272111	1.628653	-0.102758
C160	C	-0.394531	0.961991	-0.834857
C161	C	-0.061198	1.295324	-0.501524
C162	C	0.272136	1.628657	-0.168191
C163	C	-0.388169	0.905544	-0.867563
C164	C	-0.054835	1.238877	-0.534230
C165	C	0.278498	1.572211	-0.200896
C166	C	-0.381814	0.849091	-0.834828
C167	C	-0.048481	1.182425	-0.501494
C168	C	0.284853	1.515758	-0.168161
C169	C	-0.381833	0.849088	-0.769393
C170	C	-0.048500	1.182421	-0.436060
C171	C	0.284833	1.515754	-0.102727
C172	C	-0.388208	0.905542	-0.736695
C173	C	-0.054875	1.238875	-0.403361
C174	C	0.278458	1.572208	-0.070028
C175	C	-0.336574	0.865497	-0.971226
C176	C	-0.003241	1.198830	-0.637892
C177	C	0.330093	1.532163	-0.304559
C178	C	-0.336565	0.865493	-1.036662
C179	C	-0.003231	1.198827	-0.703329
C180	C	0.330102	1.532160	-0.369996
C181	C	-0.439698	0.945594	-1.036666
C182	C	-0.106365	1.278928	-0.703332
C183	C	0.226968	1.612261	-0.369999
C184	C	-0.439712	0.945592	-0.971230
C185	C	-0.106378	1.278925	-0.637897
C186	C	0.226955	1.612259	-0.304564
C187	C	-0.388145	0.905544	-0.938514
C188	C	-0.054812	1.238877	-0.605181
C189	C	0.278521	1.572211	-0.271848
C190	C	-0.388324	0.905444	-0.139022
C191	C	-0.054991	1.238777	0.194312
C192	C	0.278342	1.572110	0.527645
C193	C	-0.388118	0.905544	-0.069381
C194	C	-0.054785	1.238877	0.263953
C195	C	0.278548	1.572211	0.597286
H196	H	-0.294792	1.667012	-0.374540
H197	H	0.038541	2.000345	-0.041206
H198	H	0.371875	2.333679	0.292127
H199	H	-0.294699	0.832873	-0.540950
H200	H	0.038634	1.166206	-0.207617
H201	H	0.371967	1.499539	0.125716
H202	H	-0.294568	0.832882	-1.063294
H203	H	0.038765	1.166215	-0.729961
H204	H	0.372098	1.499549	-0.396627
H205	H	-0.294755	1.144669	-0.374532
H206	H	0.038578	1.478002	-0.041199
H207	H	0.371912	1.811336	0.292135
H208	H	-0.481919	1.548169	-0.229100
H209	H	-0.148586	1.881503	0.104234
H210	H	0.184748	2.214836	0.437567
H211	H	-0.294766	1.263376	-0.374538
H212	H	0.038567	1.596709	-0.041205
H213	H	0.371900	1.930043	0.292128
H214	H	-0.376628	0.803127	-0.861455
H215	H	-0.043294	1.136461	-0.528122
H216	H	0.290039	1.469794	-0.194789
H217	H	-0.481910	1.263243	-0.229100
H218	H	-0.148577	1.596576	0.104233
H219	H	0.184757	1.929910	0.437567
H220	H	-0.481904	1.144533	-0.229101
H221	H	-0.148570	1.477866	0.104232
H222	H	0.184763	1.811199	0.437565
H223	H	-0.520160	1.465068	-0.292830
H224	H	-0.186827	1.798401	0.040504
H225	H	0.146507	2.131735	0.373837
H226	H	-0.294668	0.832877	-0.659657
H227	H	0.038665	1.166211	-0.326324
H228	H	0.371999	1.499544	0.007010
H229	H	-0.481826	0.978184	-0.540958
H230	H	-0.148493	1.311518	-0.207624
H231	H	0.184841	1.644851	0.125709
H232	H	-0.520153	1.346363	-0.292833
H233	H	-0.186820	1.679697	0.040500
H234	H	0.146514	2.013030	0.373834
H235	H	-0.376661	0.803122	-0.742743
H236	H	-0.043327	1.136455	-0.409410
H237	H	0.290006	1.469789	-0.076076
H238	H	-0.294586	0.832887	-0.944587
H239	H	0.038747	1.166220	-0.611253
H240	H	0.372080	1.499553	-0.277920
H241	H	-0.481671	0.978206	-1.063308
H242	H	-0.148338	1.311539	-0.729975
H243	H	0.184995	1.644872	-0.396641
H244	H	-0.481708	0.978200	-0.944597
H245	H	-0.148375	1.311533	-0.611264
H246	H	0.184958	1.644867	-0.277931
H247	H	-0.256540	1.346479	-0.310811
H248	H	0.076794	1.679813	0.022522
H249	H	0.410127	2.013146	0.355856
H250	H	-0.399701	1.007958	-0.861505
H251	H	-0.066368	1.341291	-0.528172
H252	H	0.266965	1.674625	-0.194839
H253	H	-0.481924	1.666883	-0.229090
H254	H	-0.148590	2.000216	0.104244
H255	H	0.184743	2.333549	0.437577
H256	H	-0.399730	1.007956	-0.742801
H257	H	-0.066397	1.341289	-0.409467
H258	H	0.266937	1.674622	-0.076134
H259	H	-0.294780	1.548305	-0.374533
H260	H	0.038554	1.881639	-0.041200
H261	H	0.371887	2.214972	0.292133
H262	H	-0.256544	1.465191	-0.310813
H263	H	0.076789	1.798525	0.022520
H264	H	0.410122	2.131858	0.355853
H265	H	-0.481783	0.978188	-0.659671
H266	H	-0.148449	1.311521	-0.326338
H267	H	0.184884	1.644854	0.006996
