data_functionalizedCrystal
_audit_creation_method	'MofGen! by Chris Wilmer'
_symmetry_space_group_name_H-M	'P1'
_symmetry_Int_Tables_number	1
_symmetry_cell_setting	triclinic
loop_
_symmetry_equiv_pos_as_xyz
  x,y,z
_cell_length_a	19.188930
_cell_length_b	14.519709
_cell_length_c	18.266242
_cell_angle_alpha	89.992715
_cell_angle_beta	89.977082
_cell_angle_gamma	83.412462
loop_
_atom_site_label
_atom_site_type_symbol
_atom_site_fract_x
_atom_site_fract_y
_atom_site_fract_z
O1	O	-0.926559	-0.115137	0.061118
O2	O	-0.426559	0.384863	0.561118
O3	O	-0.723303	-0.130636	0.061068
O4	O	-0.223303	0.369364	0.561068
O5	O	-0.830320	0.011385	0.061088
O6	O	-0.330320	0.511385	0.561088
O7	O	-0.819542	-0.257158	0.061098
O8	O	-0.319542	0.242842	0.561098
O9	O	-0.830302	0.011393	-0.060674
O10	O	-0.330302	0.511393	0.439326
O11	O	-0.723285	-0.130629	-0.060694
O12	O	-0.223285	0.369371	0.439306
O13	O	-0.926541	-0.115130	-0.060644
O14	O	-0.426541	0.384870	0.439356
Zn15	Zn	-0.824910	-0.122878	-0.080001
Zn16	Zn	-0.324910	0.377122	0.419999
Zn17	Zn	-0.824934	-0.122888	0.080425
Zn18	Zn	-0.324934	0.377112	0.580425
O19	O	-0.819524	-0.257151	-0.060664
O20	O	-0.319524	0.242849	0.439336
C21	C	-0.697281	-0.130131	0.000181
C22	C	-0.197281	0.369869	0.500181
C23	C	-0.619771	-0.128624	0.000161
C24	C	-0.119771	0.371376	0.500161
C25	C	-0.829809	0.045746	0.000206
C26	C	-0.329809	0.545746	0.500206
C27	C	-0.828304	0.148118	0.000206
C28	C	-0.328304	0.648118	0.500206
C29	C	-0.952563	-0.115635	0.000245
C30	C	-0.452563	0.384365	0.500245
C31	C	-1.030073	-0.117142	0.000269
C32	C	-0.530073	0.382858	0.500269
C33	C	-0.575144	-0.211957	0.000176
C34	C	-0.075144	0.288043	0.500176
C35	C	-0.502315	-0.210542	0.000184
C36	C	-0.002315	0.289458	0.500184
C37	C	-0.474117	-0.125788	0.000192
C38	C	0.025883	0.374212	0.500192
C39	C	-0.518754	-0.042444	0.000173
C40	C	-0.018754	0.457556	0.500173
C41	C	-0.591581	-0.043861	0.000158
C42	C	-0.091581	0.456139	0.500158
N43	N	-0.365912	-0.061007	0.041660
N44	N	0.134088	0.438993	0.541660
N45	N	-0.296729	-0.059666	0.041676
N46	N	0.203271	0.440334	0.541676
C47	C	-0.254693	-0.121511	0.000237
C48	C	0.245307	0.378489	0.500237
N49	N	-0.284453	-0.184762	-0.041210
N50	N	0.215547	0.315238	0.458790
N51	N	-0.353642	-0.186106	-0.041223
N52	N	0.146358	0.313894	0.458777
C53	C	-0.395149	-0.124241	0.000208
C54	C	0.104851	0.375759	0.500208
C55	C	-0.131096	-0.203315	0.000259
C56	C	0.368904	0.296685	0.500259
C57	C	-0.058266	-0.201896	0.000262
C58	C	0.441734	0.298104	0.500262
C59	C	-0.074706	-0.033796	0.000259
C60	C	0.425294	0.466204	0.500259
C61	C	-0.147535	-0.035217	0.000248
C62	C	0.352465	0.464783	0.500248
C63	C	-0.175725	-0.119980	0.000252
C64	C	0.324275	0.380020	0.500252
N65	N	-0.824899	-0.122871	-0.189488
N66	N	-0.324899	0.377129	0.310512
C67	C	-0.820035	-0.291511	0.000219
C68	C	-0.320035	0.208489	0.500219
C69	C	-0.821541	-0.393883	0.000225
C70	C	-0.321541	0.106117	0.500225
C71	C	-0.822762	0.522979	0.000223
C72	C	-0.322762	1.022979	0.500223
C73	C	-0.824301	0.418681	0.000218
C74	C	-0.324301	0.918681	0.500218
C75	C	-0.825533	0.335552	0.000214
C76	C	-0.325533	0.835552	0.500214
C77	C	-0.827072	0.231247	0.000210
C78	C	-0.327072	0.731247	0.500210
C79	C	-0.872302	-0.060015	-0.227788
C80	C	-0.372302	0.439985	0.272212
C81	C	-0.872306	-0.060010	-0.304433
C82	C	-0.372306	0.439990	0.195567
C83	C	-0.824914	-0.122878	-0.342775
C84	C	-0.324914	0.377122	0.157225
C85	C	-0.777503	-0.185739	-0.304466
C86	C	-0.277503	0.314261	0.195534
C87	C	-0.777495	-0.185736	-0.227822
C88	C	-0.277495	0.314264	0.272178
N89	N	-0.816129	-0.204517	-0.463106
N90	N	-0.316129	0.295483	0.036894
N91	N	-0.816141	-0.204517	-0.535914
N92	N	-0.316141	0.295483	-0.035914
C93	C	-0.824934	-0.122892	-0.573698
C94	C	-0.324934	0.377108	-0.073698
N95	N	-0.833729	-0.041263	-0.535923
N96	N	-0.333729	0.458737	-0.035923
N97	N	-0.833721	-0.041263	-0.463108
N98	N	-0.333721	0.458737	0.036892
C99	C	-0.824917	-0.122889	-0.425882
C100	C	-0.324917	0.377111	0.074118
C101	C	-0.872344	-0.060025	-0.695105
C102	C	-0.372344	0.439975	-0.195105
C103	C	-0.872344	-0.060020	-0.771751
C104	C	-0.372344	0.439980	-0.271751
C105	C	-0.777544	-0.185757	-0.771782
C106	C	-0.277544	0.314243	-0.271782
C107	C	-0.777541	-0.185755	-0.695137
C108	C	-0.277541	0.314245	-0.195137
C109	C	-0.824945	-0.122890	-0.656803
C110	C	-0.324945	0.377110	-0.156803
N111	N	-0.824951	-0.122887	0.189912
N112	N	-0.324951	0.377113	0.689912
H113	H	-0.598091	-0.280978	0.000180
H114	H	-0.098091	0.219022	0.500180
O115	O	-0.731439	-0.246863	-0.808905
O116	O	-0.231439	0.253137	-0.308905
C117	C	-0.637440	-0.371612	-0.800847
C118	C	-0.137440	0.128388	-0.300847
C119	C	-0.689608	-0.302446	-0.758710
C120	C	-0.189608	0.197554	-0.258710
H121	H	-0.603616	-0.416582	-0.760283
H122	H	-0.103616	0.083418	-0.260283
H123	H	-0.602469	-0.331958	-0.836732
H124	H	-0.102469	0.168042	-0.336732
H125	H	-0.667655	-0.417544	-0.836728
H126	H	-0.167655	0.082456	-0.336728
H127	H	-0.659451	-0.256496	-0.722789
H128	H	-0.159451	0.243504	-0.222789
H129	H	-0.724579	-0.342158	-0.722871
H130	H	-0.224579	0.157842	-0.222871
H131	H	-0.910899	-0.008824	-0.196579
H132	H	-0.410899	0.491176	0.303421
H133	H	-0.627917	0.024001	0.000146
H134	H	-0.127917	0.524001	0.500146
O135	O	-0.459054	-0.291581	0.000237
O136	O	0.040946	0.208419	0.500237
C137	C	-0.450428	-0.458461	0.000219
C138	C	0.049572	0.041539	0.500219
C139	C	-0.499498	-0.366755	0.000172
C140	C	0.000502	0.133245	0.500172
H141	H	-0.483107	-0.519263	0.000150
H142	H	0.016893	-0.019263	0.500150
H143	H	-0.415967	-0.462052	0.051198
H144	H	0.084033	0.037948	0.551198
H145	H	-0.415874	-0.461953	-0.050716
H146	H	0.084126	0.038047	0.449284
H147	H	-0.534096	-0.363201	0.051073
H148	H	-0.034096	0.136799	0.551073
H149	H	-0.533911	-0.363201	-0.050841
H150	H	-0.033911	0.136799	0.449159
H151	H	-0.910908	-0.008823	-0.335623
H152	H	-0.410908	0.491177	0.164377
H153	H	-0.738915	-0.236926	-0.335688
H154	H	-0.238915	0.263074	0.164312
O155	O	-0.491332	0.039863	0.000313
O156	O	0.008668	0.539863	0.500313
C157	C	-0.418651	0.138992	0.063389
C158	C	0.081349	0.638992	0.563389
C159	C	-0.449672	0.045754	0.063335
C160	C	0.050328	0.545754	0.563335
H161	H	-0.384950	0.143777	0.114330
H162	H	0.115050	0.643777	0.614330
H163	H	-0.463033	0.198350	0.063424
H164	H	0.036967	0.698350	0.563424
H165	H	-0.384965	0.143847	0.012418
H166	H	0.115035	0.643847	0.512418
H167	H	-0.483350	0.040809	0.114298
H168	H	0.016650	0.540809	0.614298
H169	H	-0.405256	-0.013559	0.063263
H170	H	0.094744	0.486441	0.563263
H171	H	-0.183871	0.032642	0.000240
H172	H	0.316129	0.532642	0.500240
H173	H	-0.738893	-0.236922	-0.196638
H174	H	-0.238893	0.263078	0.303362
O175	O	-0.918410	0.001134	-0.657975
O176	O	-0.418410	0.501134	-0.157975
C177	C	-1.012464	0.125812	-0.666032
C178	C	-0.512464	0.625812	-0.166032
C179	C	-0.960321	0.056614	-0.708169
C180	C	-0.460321	0.556614	-0.208169
H181	H	-1.046372	0.170672	-0.706595
H182	H	-0.546372	0.670672	-0.206595
H183	H	-0.982298	0.171848	-0.630189
H184	H	-0.482298	0.671848	-0.130189
H185	H	-1.047356	0.086092	-0.630108
H186	H	-0.547356	0.586092	-0.130108
H187	H	-0.925416	0.096258	-0.744133
H188	H	-0.425416	0.596258	-0.244133
H189	H	-0.990530	0.010579	-0.743965
H190	H	-0.490530	0.510579	-0.243965
H191	H	-0.910943	-0.008830	-0.802936
H192	H	-0.410943	0.491170	-0.302936
H193	H	-0.021931	-0.269760	0.000270
H194	H	0.478069	0.230240	0.500270
O195	O	-0.158369	-0.285730	0.000222
O196	O	0.341631	0.214270	0.500222
C197	C	-0.134379	-0.452310	0.000269
C198	C	0.365621	0.047690	0.500269
C199	C	-0.103401	-0.359042	0.000293
C200	C	0.396599	0.140958	0.500293
H201	H	-0.089952	-0.511607	0.000341
H202	H	0.410048	-0.011607	0.500341
H203	H	-0.168013	-0.457235	-0.050705
H204	H	0.331987	0.042765	0.449295
H205	H	-0.168113	-0.457130	0.051209
H206	H	0.331887	0.042870	0.551209
H207	H	-0.069635	-0.354159	-0.050613
H208	H	0.430365	0.145841	0.449387
H209	H	-0.069807	-0.354157	0.051301
H210	H	0.430193	0.145843	0.551301
O211	O	-0.047208	0.048455	0.000300
O212	O	0.452792	0.548455	0.500300
C213	C	0.057701	0.125140	0.000279
C214	C	0.557701	0.625140	0.500279
C215	C	0.026648	0.031925	0.000251
C216	C	0.526648	0.531925	0.500251
H217	H	0.117417	0.111808	0.000223
H218	H	0.617417	0.611808	0.500223
H219	H	0.039351	0.166316	0.051245
H220	H	0.539351	0.666316	0.551245
H221	H	0.039314	0.166312	-0.050670
H222	H	0.539314	0.666312	0.449330
H223	H	0.045020	-0.009322	0.051165
H224	H	0.545020	0.490678	0.551165
H225	H	0.044994	-0.009181	-0.050749
H226	H	0.544994	0.490819	0.449251
O227	O	-0.731596	-0.246864	-0.657850
O228	O	-0.231596	0.253136	-0.157850
C229	C	-0.716886	-0.372904	-0.571348
C230	C	-0.216886	0.127096	-0.071348
C231	C	-0.768998	-0.303732	-0.613515
C232	C	-0.268998	0.196268	-0.113515
H233	H	-0.747106	-0.418913	-0.535505
H234	H	-0.247106	0.081087	-0.035505
H235	H	-0.681964	-0.333256	-0.535437
H236	H	-0.181964	0.166744	-0.035437
H237	H	-0.683002	-0.417797	-0.611931
H238	H	-0.183002	0.082203	-0.111931
H239	H	-0.802928	-0.258822	-0.572985
H240	H	-0.302928	0.241178	-0.072985
H241	H	-0.803872	-0.343437	-0.649437
H242	H	-0.303872	0.156563	-0.149437
