data_functionalizedCrystal
_audit_creation_method	'MofGen! by Chris Wilmer'
_symmetry_space_group_name_H-M	'P1'
_symmetry_Int_Tables_number	1
_symmetry_cell_setting	triclinic
loop_
_symmetry_equiv_pos_as_xyz
  x,y,z
_cell_length_a	8.597213
_cell_length_b	17.038272
_cell_length_c	7.088899
_cell_angle_alpha	96.544894
_cell_angle_beta	89.200214
_cell_angle_gamma	88.192763
loop_
_atom_site_label
_atom_site_type_symbol
_atom_site_fract_x
_atom_site_fract_y
_atom_site_fract_z
O1	O	2.050163	0.094007	-0.496690
O2	O	1.601545	0.106362	-0.422798
O3	O	1.823189	-0.013631	-0.459290
O4	O	1.828519	0.214000	-0.460198
O5	O	1.853358	0.000740	-0.146285
O6	O	1.631714	0.120733	-0.109794
O7	O	2.080332	0.108378	-0.183685
Cu8	Cu	1.858777	0.115867	-0.118160
Cu9	Cu	1.823100	0.098873	-0.488324
O10	O	1.858687	0.228371	-0.147194
C11	C	1.558945	0.113021	-0.256794
C12	C	1.387062	0.111444	-0.228483
C13	C	1.833424	-0.035575	-0.301989
C14	C	1.818953	-0.122373	-0.299606
C15	C	1.951806	-0.172443	-0.321486
C16	C	1.938199	-0.253999	-0.319263
C17	C	1.791739	-0.285483	-0.295146
C18	C	1.658876	-0.235407	-0.273270
C19	C	1.672483	-0.153853	-0.275507
C20	C	1.743666	-0.531258	-0.287254
C21	C	1.730069	-0.612818	-0.285014
C22	C	2.009394	-0.631404	-0.331011
C23	C	2.022989	-0.549848	-0.333234
C24	C	1.890125	-0.499779	-0.311368
C25	C	1.777827	-0.368846	-0.292867
C26	C	1.904037	-0.416419	-0.313660
C27	C	2.122932	0.101719	-0.349693
C28	C	2.294814	0.103295	-0.378017
C29	C	1.848453	0.250315	-0.304499
C30	C	1.862922	0.337112	-0.306894
N31	N	1.798006	0.086913	-0.748677
N32	N	1.883882	0.127820	0.142192
H33	H	1.347332	0.097532	-0.527691
O34	O	1.600364	-0.477265	-0.263624
H35	H	1.518474	-0.494321	-0.379720
O36	O	1.317494	0.119089	-0.030206
H37	H	1.412100	0.125313	0.074871
O38	O	2.180962	-0.515901	-0.359289
H39	H	2.257629	-0.530164	-0.242332
H40	H	2.071071	-0.146815	-0.341113
H41	H	1.709013	0.044516	-0.815672
H42	H	1.972854	0.170223	-0.790819
H43	H	1.610801	-0.638447	-0.265343
O44	O	2.081491	-0.308004	-0.342831
H45	H	2.185623	-0.272409	-0.359943
O46	O	1.500902	-0.269360	-0.247264
H47	H	1.448838	-0.243387	-0.109096
H48	H	2.117563	-0.672178	-0.348816
H49	H	1.564299	-0.113087	-0.257690
O50	O	2.062000	-0.382466	-0.339689
H51	H	2.138659	-0.396723	-0.222720
O52	O	1.619868	-0.402807	-0.266816
H53	H	1.594695	-0.445378	-0.392261
