data_functionalizedCrystal
_audit_creation_method	'MofGen! by Chris Wilmer'
_symmetry_space_group_name_H-M	'P1'
_symmetry_Int_Tables_number	1
_symmetry_cell_setting	triclinic
loop_
_symmetry_equiv_pos_as_xyz
  x,y,z
_cell_length_a	19.188905
_cell_length_b	19.188924
_cell_length_c	17.666332
_cell_angle_alpha	90.003714
_cell_angle_beta	90.013693
_cell_angle_gamma	83.138260
loop_
_atom_site_label
_atom_site_type_symbol
_atom_site_fract_x
_atom_site_fract_y
_atom_site_fract_z
O1	O	0.926156	0.087081	0.063076
O2	O	1.426156	0.587081	0.563076
O3	O	0.722842	0.098834	0.063051
O4	O	1.222842	0.598834	0.563051
O5	O	0.830369	-0.008699	0.063056
O6	O	1.330369	0.491301	0.563056
O7	O	0.818630	0.194614	0.063072
O8	O	1.318630	0.694614	0.563072
O9	O	0.830355	-0.008695	-0.062841
O10	O	1.330355	0.491305	0.437159
O11	O	0.722828	0.098837	-0.062846
O12	O	1.222828	0.598837	0.437154
O13	O	0.926142	0.087085	-0.062820
O14	O	1.426142	0.587085	0.437180
Cu15	Cu	0.824484	0.092961	-0.074328
Cu16	Cu	1.324484	0.592961	0.425672
Cu17	Cu	0.824501	0.092957	0.074559
Cu18	Cu	1.324501	0.592957	0.574559
O19	O	0.818615	0.194618	-0.062825
O20	O	1.318615	0.694618	0.437175
C21	C	0.696824	0.098458	0.000099
C22	C	1.196824	0.598458	0.500099
C23	C	0.619318	0.097324	0.000089
C24	C	1.119318	0.597324	0.500089
C25	C	0.582934	0.096778	0.068718
C26	C	1.082934	0.596778	0.568718
C27	C	0.510111	0.095705	0.068727
C28	C	1.010111	0.595705	0.568727
C29	C	0.473676	0.095164	0.000104
C30	C	0.973676	0.595164	0.500104
C31	C	0.510068	0.095715	-0.068533
C32	C	1.010068	0.595715	0.431467
C33	C	0.582889	0.096795	-0.068541
C34	C	1.082889	0.596795	0.431459
N35	N	0.364651	0.053737	-0.050969
N36	N	0.864651	0.553737	0.449031
N37	N	0.295474	0.052709	-0.050957
N38	N	0.795474	0.552709	0.449043
C39	C	0.254269	0.091911	0.000122
C40	C	0.754269	0.591911	0.500122
N41	N	0.284856	0.132171	0.051201
N42	N	0.784856	0.632171	0.551201
N43	N	0.354040	0.133196	0.051191
N44	N	0.854040	0.633196	0.551191
C45	C	0.394713	0.093993	0.000104
C46	C	0.894713	0.593993	0.500104
C47	C	0.138921	0.090202	0.068765
C48	C	0.638921	0.590202	0.568765
C49	C	0.066096	0.089134	0.068772
C50	C	0.566096	0.589134	0.568772
C51	C	0.066056	0.089137	-0.068491
C52	C	0.566056	0.589137	0.431509
C53	C	0.138879	0.090212	-0.068495
C54	C	0.638879	0.590212	0.431505
C55	C	0.175308	0.090742	0.000135
C56	C	0.675308	0.590742	0.500135
C57	C	0.829982	-0.034708	0.000106
C58	C	1.329982	0.465292	0.500106
C59	C	0.828844	-0.112213	0.000104
C60	C	1.328844	0.387787	0.500104
C61	C	0.828320	-0.148614	0.068731
C62	C	1.328320	0.351386	0.568731
C63	C	0.827240	-0.221436	0.068736
C64	C	1.327240	0.278564	0.568736
C65	C	0.826698	-0.257857	0.000112
C66	C	1.326698	0.242143	0.500112
C67	C	0.827218	-0.221447	-0.068524
C68	C	1.327218	0.278553	0.431476
C69	C	0.828291	-0.148625	-0.068528
C70	C	1.328291	0.351375	0.431472
N71	N	0.864740	-0.377522	-0.050959
N72	N	1.364740	0.122478	0.449041
N73	N	0.863723	-0.446701	-0.050951
N74	N	1.363723	0.053299	0.449049
C75	C	0.823464	-0.477266	0.000119
C76	C	1.323464	0.022734	0.500119
N77	N	0.784270	-0.436041	0.051191
N78	N	1.284270	0.063959	0.551191
N79	N	0.785291	-0.366857	0.051185
N80	N	1.285291	0.133143	0.551185
C81	C	0.825534	-0.336821	0.000108
C82	C	1.325534	0.163179	0.500108
C83	C	0.821768	-0.592629	0.068756
C84	C	1.321768	-0.092629	0.568756
C85	C	0.820684	-0.665453	0.068759
C86	C	1.320684	-0.165453	0.568759
C87	C	0.820669	-0.665463	-0.068504
C88	C	1.320669	-0.165463	0.431496
C89	C	0.821746	-0.592640	-0.068504
C90	C	1.321746	-0.092640	0.431496
C91	C	0.822299	-0.556228	0.000127
C92	C	1.322299	-0.056228	0.500127
C93	C	0.952160	0.087461	0.000133
C94	C	1.452160	0.587461	0.500133
C95	C	1.029666	0.088594	0.000148
C96	C	1.529666	0.588594	0.500148
C97	C	0.819002	0.220627	0.000126
C98	C	1.319002	0.720627	0.500126
C99	C	0.820141	0.298132	0.000133
C100	C	1.320141	0.798132	0.500133
N101	N	0.824477	0.092964	-0.179048
N102	N	1.324477	0.592964	0.320952
C103	C	0.866727	0.135181	-0.781088
C104	C	1.366727	0.635181	-0.281088
C105	C	0.866720	0.135188	-0.701840
C106	C	1.366720	0.635188	-0.201840
C107	C	0.824507	0.092950	-0.662229
C108	C	1.324507	0.592950	-0.162229
C109	C	0.782285	0.050715	-0.701872
C110	C	1.282285	0.550715	-0.201872
C111	C	0.782288	0.050715	-0.781118
C112	C	1.282288	0.550715	-0.281118
N113	N	0.822818	0.031789	-0.537810
N114	N	1.322818	0.531789	-0.037810
N115	N	0.822819	0.031792	-0.462530
N116	N	1.322819	0.531792	0.037470
C117	C	0.824495	0.092950	-0.423465
C118	C	1.324495	0.592950	0.076535
N119	N	0.826182	0.154106	-0.462525
N120	N	1.326182	0.654106	0.037475
N121	N	0.826185	0.154103	-0.537812
N122	N	1.326185	0.654103	-0.037812
C123	C	0.824499	0.092946	-0.576300
C124	C	1.324499	0.592946	-0.076300
C125	C	0.866703	0.135193	-0.297902
C126	C	1.366703	0.635193	0.202098
C127	C	0.866691	0.135201	-0.218653
C128	C	1.366691	0.635201	0.281347
C129	C	0.782260	0.050722	-0.218687
C130	C	1.282260	0.550722	0.281313
C131	C	0.782268	0.050721	-0.297935
C132	C	1.282268	0.550721	0.202065
C133	C	0.824493	0.092955	-0.337537
C134	C	1.324493	0.592955	0.162463
N135	N	0.824513	0.092949	0.179279
N136	N	1.324513	0.592949	0.679279
H137	H	0.168504	0.090653	-0.124380
H138	H	0.668504	0.590653	0.375620
H139	H	0.036390	0.088701	-0.124365
H140	H	0.536390	0.588701	0.375635
O141	O	0.741382	0.009646	-0.819706
O142	O	1.241382	0.509646	-0.319706
C143	C	0.784105	-0.038121	-0.865517
C144	C	1.284105	0.461879	-0.365517
H145	H	0.835843	-0.016528	-0.877369
H146	H	1.335843	0.483472	-0.377369
H147	H	0.756068	-0.045827	-0.921254
H148	H	1.256068	0.454173	-0.421254
H149	H	0.794952	-0.090633	-0.834975
H150	H	1.294952	0.409367	-0.334975
H151	H	0.480481	0.095261	0.124614
H152	H	0.980481	0.595261	0.624614
H153	H	0.822178	-0.563003	-0.124388
H154	H	1.322178	-0.063003	0.375612
H155	H	0.901082	0.169586	-0.330149
H156	H	1.401082	0.669586	0.169851
H157	H	0.168583	0.090641	0.124648
H158	H	0.668583	0.590641	0.624648
H159	H	0.820222	-0.695116	-0.124379
H160	H	1.320222	-0.195116	0.375621
O161	O	0.826740	-0.256699	0.135471
O162	O	1.326740	0.243301	0.635471
C163	C	0.827423	-0.208941	0.196045
C164	C	1.327423	0.291059	0.696045
H165	H	0.850306	-0.160000	0.175939
H166	H	1.350306	0.340000	0.675939
H167	H	0.860985	-0.234526	0.244061
H168	H	1.360985	0.265474	0.744061
H169	H	0.771532	-0.193677	0.217116
H170	H	1.271532	0.306323	0.717116
O171	O	0.741239	0.009785	-0.663315
O172	O	1.241239	0.509785	-0.163315
C173	C	0.693456	0.052485	-0.617501
C174	C	1.193456	0.552485	-0.117501
H175	H	0.715025	0.104233	-0.605617
H176	H	1.215025	0.604233	-0.105617
H177	H	0.685762	0.024437	-0.561780
H178	H	1.185762	0.524437	-0.061780
H179	H	0.640942	0.063313	-0.648057
H180	H	1.140942	0.563313	-0.148057
H181	H	0.826774	-0.251105	-0.124399
H182	H	1.326774	0.248895	0.375601
O183	O	0.741188	0.009794	-0.336474
O184	O	1.241188	0.509794	0.163526
C185	C	0.693430	0.052487	-0.382341
C186	C	1.193430	0.552487	0.117659
H187	H	0.685757	0.108066	-0.358458
H188	H	1.185757	0.608066	0.141542
H189	H	0.640908	0.030308	-0.383260
H190	H	1.140908	0.530308	0.116740
H191	H	0.715005	0.053611	-0.442392
H192	H	1.215005	0.553611	0.057608
O193	O	0.907639	0.176249	-0.819643
O194	O	1.407639	0.676249	-0.319643
C195	C	0.864922	0.224015	-0.865477
C196	C	1.364922	0.724015	-0.365477
H197	H	0.813184	0.202424	-0.877364
H198	H	1.313184	0.702424	-0.377364
H199	H	0.892966	0.231717	-0.921194
H200	H	1.392966	0.731717	-0.421194
H201	H	0.854074	0.276528	-0.834936
H202	H	1.354074	0.776528	-0.334936
H203	H	0.901065	0.169596	-0.186385
H204	H	1.401065	0.669596	0.313615
O205	O	0.907795	0.176230	-0.663447
O206	O	1.407795	0.676230	-0.163447
C207	C	0.945048	0.213521	-0.715395
C208	C	1.445048	0.713521	-0.215395
H209	H	0.949212	0.184610	-0.771887
H210	H	1.449212	0.684610	-0.271887
H211	H	0.999936	0.217702	-0.692479
H212	H	1.499936	0.717702	-0.192479
H213	H	0.916123	0.268405	-0.723824
H214	H	1.416123	0.768405	-0.223824
H215	H	0.612590	0.097209	0.124602
H216	H	1.112590	0.597209	0.624602
H217	H	0.820254	-0.695089	0.124645
H218	H	1.320254	-0.195089	0.624645
O219	O	0.741144	0.009774	-0.180258
O220	O	1.241144	0.509774	0.319742
C221	C	0.670223	0.029297	-0.199667
C222	C	1.170223	0.529297	0.300333
H223	H	0.663307	0.085622	-0.221448
H224	H	1.163307	0.585622	0.278552
H225	H	0.635878	0.025320	-0.147568
H226	H	1.135878	0.525320	0.352432
H227	H	0.654136	-0.007261	-0.245678
H228	H	1.154136	0.492739	0.254322
O229	O	0.474665	0.095062	-0.135174
O230	O	0.974665	0.595062	0.364826
C231	C	0.440635	0.033989	-0.139274
C232	C	0.940635	0.533989	0.360726
H233	H	0.468259	-0.007942	-0.100334
H234	H	0.968259	0.492058	0.399666
H235	H	0.442511	0.013685	-0.199973
H236	H	0.942511	0.513685	0.300027
H237	H	0.383618	0.046835	-0.120829
H238	H	0.883618	0.546835	0.379171
H239	H	0.612513	0.097240	-0.124428
H240	H	1.112513	0.597240	0.375572
H241	H	0.036473	0.088693	0.124659
H242	H	0.536473	0.588693	0.624659
O243	O	0.828831	-0.113374	-0.135262
O244	O	1.328831	0.386626	0.364738
C245	C	0.828098	-0.161128	-0.195834
C246	C	1.328098	0.338872	0.304166
H247	H	0.849434	-0.215999	-0.175713
H248	H	1.349434	0.284001	0.324287
H249	H	0.862290	-0.144632	-0.243831
H250	H	1.362290	0.355368	0.256169
H251	H	0.771978	-0.161369	-0.216939
H252	H	1.271978	0.338631	0.283061
H253	H	0.828768	-0.118971	0.124616
H254	H	1.328768	0.381029	0.624616
H255	H	0.822214	-0.562981	0.124640
H256	H	1.322214	-0.062981	0.624640
