data_functionalizedCrystal
_audit_creation_method	'MofGen! by Chris Wilmer'
_symmetry_space_group_name_H-M	'P1'
_symmetry_Int_Tables_number	1
_symmetry_cell_setting	triclinic
loop_
_symmetry_equiv_pos_as_xyz
  x,y,z
_cell_length_a	14.044191
_cell_length_b	9.016244
_cell_length_c	14.044220
_cell_angle_alpha	90.002898
_cell_angle_beta	93.190327
_cell_angle_gamma	90.005095
loop_
_atom_site_label
_atom_site_type_symbol
_atom_site_fract_x
_atom_site_fract_y
_atom_site_fract_z
O1	O	1.277177	0.123275	0.230196
O2	O	1.000504	0.123294	0.221884
O3	O	1.134687	0.123270	0.087704
O4	O	1.142993	0.123299	0.364376
O5	O	1.134666	-0.123411	0.087706
O6	O	1.000483	-0.123387	0.221885
O7	O	1.277155	-0.123406	0.230198
Cu8	Cu	1.138817	-0.145920	0.226042
Cu9	Cu	1.138842	0.145808	0.226040
O10	O	1.142972	-0.123382	0.364377
C11	C	0.964872	-0.000044	0.218248
C12	C	0.858728	-0.000038	0.207401
C13	C	0.613270	-0.000047	0.264501
C14	C	0.664395	-0.000052	0.187585
C15	C	0.772532	-0.000044	0.198613
C16	C	0.505123	-0.000055	0.253474
N17	N	1.138807	-0.351106	0.226043
C18	C	1.066769	-0.586126	0.297542
C19	C	1.066964	-0.414235	0.297845
C20	C	1.240264	-0.413449	0.256228
C21	C	1.239881	-0.585394	0.256743
C22	C	1.110357	-0.585659	0.124181
C23	C	1.108118	-0.413704	0.124658
C24	C	1.312788	-0.000064	0.233834
C25	C	1.418931	-0.000061	0.244681
C26	C	1.131041	-0.000071	0.052083
C27	C	1.120197	-0.000072	-0.054060
N28	N	1.138860	0.350995	0.226032
C29	C	1.100370	-0.000049	-0.248398
C30	C	1.177285	-0.000050	-0.299526
C31	C	1.166253	-0.000037	-0.407663
C32	C	1.111400	-0.000062	-0.140252
C33	C	1.146618	-0.000038	0.399998
C34	C	1.157463	-0.000027	0.506142
H35	H	0.626952	0.000045	0.113452
Br36	Br	1.197815	-0.653426	0.035319
Br37	Br	0.675675	-0.000019	0.388054
H38	H	1.251419	0.000045	-0.262085
H39	H	0.991820	-0.372088	0.278617
Br40	Br	0.941152	-0.655068	0.265800
H41	H	1.026242	-0.000041	-0.285837
H42	H	1.085635	-0.629313	0.372514
H43	H	1.086036	-0.373082	0.373252
H44	H	1.295648	-0.626985	0.207163
Br45	Br	1.279599	-0.652210	0.380974
Br46	Br	1.332391	-0.345303	0.172315
H47	H	1.037530	-0.629104	0.097247
Br48	Br	1.280566	-0.341643	0.379133
Br49	Br	0.983651	-0.345800	0.086800
Br50	Br	1.188869	-0.342114	0.030720
