data_functionalizedCrystal
_audit_creation_method	'MofGen! by Chris Wilmer'
_symmetry_space_group_name_H-M	'P1'
_symmetry_Int_Tables_number	1
_symmetry_cell_setting	triclinic
loop_
_symmetry_equiv_pos_as_xyz
  x,y,z
_cell_length_a	17.699083
_cell_length_b	17.699083
_cell_length_c	16.176319
_cell_angle_alpha	89.996995
_cell_angle_beta	90.000050
_cell_angle_gamma	96.716986
loop_
_atom_site_label
_atom_site_type_symbol
_atom_site_fract_x
_atom_site_fract_y
_atom_site_fract_z
O1	O	-1.004078	0.095710	0.068619
O2	O	-0.504078	0.595710	0.568619
O3	O	-0.783699	0.108162	0.068644
O4	O	-0.283699	0.608162	0.568644
O5	O	-0.900115	-0.008253	0.068639
O6	O	-0.400115	0.491747	0.568639
O7	O	-0.887662	0.212125	0.068624
O8	O	-0.387662	0.712125	0.568624
O9	O	-0.900101	-0.008254	-0.068854
O10	O	-0.400101	0.491746	0.431146
O11	O	-0.783686	0.108162	-0.068849
O12	O	-0.283686	0.608162	0.431151
O13	O	-1.004064	0.095709	-0.068874
O14	O	-0.504064	0.595709	0.431126
Cu15	Cu	-0.893874	0.101935	-0.081416
Cu16	Cu	-0.393874	0.601935	0.418584
Cu17	Cu	-0.893890	0.101936	0.081186
Cu18	Cu	-0.393890	0.601936	0.581186
O19	O	-0.887649	0.212125	-0.068869
O20	O	-0.387649	0.712125	0.431131
C21	C	-0.755495	0.107716	-0.000099
C22	C	-0.255495	0.607716	0.499901
C23	C	-0.671477	0.106377	-0.000088
C24	C	-0.171477	0.606377	0.499912
C25	C	-0.899662	-0.036451	-0.000104
C26	C	-0.399662	0.463549	0.499896
C27	C	-0.898323	-0.120469	-0.000092
C28	C	-0.398323	0.379531	0.499908
C29	C	-1.032268	0.096156	-0.000129
C30	C	-0.532268	0.596156	0.499871
C31	C	-1.116286	0.097494	-0.000134
C32	C	-0.616286	0.597494	0.499866
C33	C	-0.888102	0.240322	-0.000124
C34	C	-0.388102	0.740322	0.499876
C35	C	-0.889440	0.324340	-0.000131
C36	C	-0.389440	0.824340	0.499869
C37	C	-0.622856	0.174710	-0.000093
C38	C	-0.122856	0.674710	0.499907
C39	C	-0.543913	0.173448	-0.000104
C40	C	-0.043913	0.673448	0.499896
C41	C	-0.513592	0.103852	-0.000104
C42	C	-0.013592	0.603852	0.499896
C43	C	-0.562219	0.035513	-0.000101
C44	C	-0.062219	0.535513	0.499899
C45	C	-0.641161	0.036776	-0.000097
C46	C	-0.141161	0.536776	0.499903
C47	C	-0.243856	0.030418	-0.000121
C48	C	0.256144	0.530418	0.499879
C49	C	-0.164908	0.029160	-0.000124
C50	C	0.335092	0.529160	0.499876
C51	C	-0.146608	0.167090	-0.000129
C52	C	0.353392	0.667090	0.499871
C53	C	-0.225550	0.168353	-0.000124
C54	C	0.274450	0.668353	0.499876
C55	C	-0.274170	0.100015	-0.000126
C56	C	0.225830	0.600015	0.499874
C57	C	-0.359769	0.101384	-0.000116
C58	C	0.140231	0.601384	0.499884
C59	C	-0.427995	0.102481	-0.000108
C60	C	0.072005	0.602481	0.499892
N61	N	-0.893868	0.101935	-0.195781
N62	N	-0.393868	0.601935	0.304219
C63	C	-0.821107	0.372961	-0.000123
C64	C	-0.321107	0.872961	0.499877
C65	C	-0.822369	0.451904	-0.000113
C66	C	-0.322369	0.951904	0.499887
C67	C	-0.891965	0.482225	-0.000117
C68	C	-0.391965	0.982225	0.499883
C69	C	-0.960304	0.433598	-0.000123
C70	C	-0.460304	0.933598	0.499877
C71	C	-0.959041	0.354656	-0.000126
C72	C	-0.459041	0.854656	0.499874
C73	C	-0.965399	0.751961	-0.000107
C74	C	-0.465399	1.251961	0.499893
C75	C	-0.966657	0.830909	-0.000106
C76	C	-0.466657	1.330909	0.499894
C77	C	-0.828727	0.849209	-0.000094
C78	C	-0.328727	1.349209	0.499906
C79	C	-0.827464	0.770267	-0.000097
C80	C	-0.327464	1.270267	0.499903
C81	C	-0.895803	0.721647	-0.000098
C82	C	-0.395803	1.221647	0.499902
C83	C	-0.894433	0.636048	-0.000107
C84	C	-0.394433	1.136048	0.499893
C85	C	-0.893336	0.567823	-0.000115
C86	C	-0.393336	1.067823	0.499885
C87	C	-0.939683	0.147783	-0.239050
C88	C	-0.439683	0.647783	0.260950
C89	C	-0.939691	0.147781	-0.325598
C90	C	-0.439691	0.647781	0.174402
C91	C	-0.893879	0.101933	-0.368874
C92	C	-0.393879	0.601933	0.131126
C93	C	-0.848063	0.056079	-0.325598
C94	C	-0.348063	0.556079	0.174402
C95	C	-0.848059	0.056078	-0.239053
C96	C	-0.348059	0.556078	0.260947
C97	C	-0.848077	0.056080	-0.674626
C98	C	-0.348077	0.556080	-0.174626
C99	C	-0.848082	0.056085	-0.761178
C100	C	-0.348082	0.556085	-0.261178
C101	C	-0.939708	0.147782	-0.761171
C102	C	-0.439708	0.647782	-0.261171
C103	C	-0.939705	0.147781	-0.674626
C104	C	-0.439705	0.647781	-0.174626
C105	C	-0.893891	0.101925	-0.631358
C106	C	-0.393891	0.601925	-0.131358
C107	C	-0.893884	0.101927	-0.537514
C108	C	-0.393884	0.601927	-0.037514
C109	C	-0.893882	0.101933	-0.462716
C110	C	-0.393882	0.601933	0.037284
N111	N	-0.893902	0.101931	0.195551
N112	N	-0.393902	0.601931	0.695551
H113	H	-0.504328	0.229092	-0.000107
H114	H	-0.004328	0.729092	0.499893
N115	N	-0.798645	0.006627	-0.192379
N116	N	-0.298645	0.506627	0.307621
H117	H	-0.831669	-0.030460	-0.156473
H118	H	-0.331669	0.469540	0.343527
H119	H	-0.769631	-0.022367	-0.232978
H120	H	-0.269631	0.477633	0.267022
N121	N	-0.746043	0.340257	-0.000114
N122	N	-0.246043	0.840257	0.499886
H123	H	-0.742439	0.307918	-0.051085
H124	H	-0.242439	0.807918	0.448915
H125	H	-0.702989	0.383079	-0.000074
H126	H	-0.202989	0.883079	0.499926
H127	H	-0.977006	0.185118	-0.639395
H128	H	-0.477006	0.685118	-0.139395
N129	N	-0.989125	0.197242	-0.807839
N130	N	-0.489125	0.697242	-0.307839
H131	H	-0.982181	0.190286	-0.869232
H132	H	-0.482181	0.690286	-0.369232
H133	H	-1.044196	0.182223	-0.792704
H134	H	-0.544196	0.682223	-0.292704
H135	H	-0.766725	0.491489	-0.000104
H136	H	-0.266725	0.991489	0.499896
H137	H	-0.537526	-0.021154	-0.000113
H138	H	-0.037526	0.478846	0.499887
H139	H	-0.680748	-0.018868	-0.000092
H140	H	-0.180748	0.481132	0.499908
H141	H	-0.770792	0.745585	-0.000098
H142	H	-0.270792	1.245585	0.499902
N143	N	-0.989092	0.197233	-0.192373
N144	N	-0.489092	0.697233	0.307627
H145	H	-0.974062	0.252321	-0.207438
H146	H	-0.474062	0.752321	0.292562
H147	H	-1.044169	0.182168	-0.207448
H148	H	-0.544169	0.682168	0.292552
H149	H	-0.810775	0.018748	-0.796411
H150	H	-0.310775	0.518748	-0.296411
N151	N	-0.094168	0.240801	-0.000129
N152	N	0.405832	0.740801	0.499871
H153	H	-0.039557	0.229445	-0.000135
H154	H	0.460443	0.729445	0.499865
H155	H	-0.103975	0.271141	-0.051097
H156	H	0.396025	0.771141	0.448903
N157	N	-1.041728	0.863609	-0.000106
N158	N	-0.541728	1.363609	0.499894
H159	H	-1.045325	0.895954	0.050861
H160	H	-0.545325	1.395954	0.550861
H161	H	-1.045276	0.895918	-0.051111
H162	H	-0.545276	1.395918	0.448889
N163	N	-0.755016	0.901650	-0.000101
N164	N	-0.255016	1.401650	0.499899
H165	H	-0.766373	0.956260	-0.000101
H166	H	-0.266373	1.456260	0.499899
H167	H	-0.724674	0.891845	0.050865
H168	H	-0.224674	1.391845	0.550865
H169	H	-0.647537	0.231384	-0.000093
H170	H	-0.147537	0.731384	0.499907
N171	N	-0.258253	0.243417	-0.000113
N172	N	0.241747	0.743417	0.499887
H173	H	-0.215472	0.286516	-0.000117
H174	H	0.284528	0.786516	0.499883
H175	H	-0.290613	0.246947	-0.051080
H176	H	0.209387	0.746947	0.448920
H177	H	-1.021045	0.712383	-0.000113
H178	H	-0.521045	1.212383	0.499887
N179	N	-0.132203	-0.045908	-0.000124
N180	N	0.367797	0.454092	0.499876
H181	H	-0.174981	-0.089009	-0.000127
H182	H	0.325019	0.410991	0.499873
H183	H	-0.099847	-0.049428	-0.051095
H184	H	0.400153	0.450572	0.448905
N185	N	-0.798666	0.006622	-0.627965
N186	N	-0.298666	0.506622	-0.127965
H187	H	-0.769645	-0.022418	-0.668515
H188	H	-0.269645	0.477582	-0.168515
H189	H	-0.761604	0.039665	-0.592057
H190	H	-0.261604	0.539665	-0.092057
N191	N	-0.296291	-0.043286	-0.000129
N192	N	0.203709	0.456714	0.499871
H193	H	-0.265101	-0.087564	-0.000128
H194	H	0.234899	0.412436	0.499872
H195	H	-0.329445	-0.045773	0.050840
H196	H	0.170555	0.454227	0.550840
H197	H	-1.016971	0.458291	-0.000128
H198	H	-0.516971	0.958291	0.499872
N199	N	-1.032743	0.302211	-0.000131
N200	N	-0.532743	0.802211	0.499869
H201	H	-1.077024	0.333396	-0.000134
H202	H	-0.577024	0.833396	0.499866
H203	H	-1.035220	0.269062	-0.051102
H204	H	-0.535220	0.769062	0.448898
H205	H	-0.976999	0.185114	-0.360824
H206	H	-0.476999	0.685114	0.139176
H207	H	-0.810766	0.018745	-0.360840
H208	H	-0.310766	0.518745	0.139160
