data_functionalizedCrystal
_audit_creation_method	'MofGen! by Chris Wilmer'
_symmetry_space_group_name_H-M	'P1'
_symmetry_Int_Tables_number	1
_symmetry_cell_setting	triclinic
loop_
_symmetry_equiv_pos_as_xyz
  x,y,z
_cell_length_a	17.699083
_cell_length_b	9.198806
_cell_length_c	17.699083
_cell_angle_alpha	89.995663
_cell_angle_beta	96.716985
_cell_angle_gamma	89.997927
loop_
_atom_site_label
_atom_site_type_symbol
_atom_site_fract_x
_atom_site_fract_y
_atom_site_fract_z
O1	O	1.004075	0.120692	-0.095710
O2	O	1.504075	0.620692	0.404290
O3	O	0.783697	0.120740	-0.108162
O4	O	1.283697	0.620740	0.391838
O5	O	0.900112	0.120701	0.008253
O6	O	1.400112	0.620701	0.508253
O7	O	0.887660	0.120730	-0.212125
O8	O	1.387660	0.620730	0.287875
O9	O	0.900103	-0.121084	0.008254
O10	O	1.400103	0.378916	0.508254
O11	O	0.783688	-0.121046	-0.108161
O12	O	1.283688	0.378954	0.391839
O13	O	1.004066	-0.121094	-0.095709
O14	O	1.504066	0.378906	0.404291
Cu15	Cu	0.893876	-0.143146	-0.101935
Cu16	Cu	1.393876	0.356854	0.398065
Cu17	Cu	0.893887	0.142792	-0.101936
Cu18	Cu	1.393887	0.642792	0.398064
O19	O	0.887651	-0.121055	-0.212124
O20	O	1.387651	0.378945	0.287876
C21	C	0.755495	-0.000147	-0.107716
C22	C	1.255495	0.499853	0.392284
C23	C	0.671477	-0.000129	-0.106377
C24	C	1.171477	0.499871	0.393623
N25	N	0.893874	-0.344260	-0.101934
N26	N	1.393874	0.155740	0.398066
C27	C	0.622856	-0.000121	-0.174710
C28	C	1.122856	0.499879	0.325290
C29	C	0.543913	-0.000140	-0.173448
C30	C	1.043913	0.499860	0.326552
C31	C	0.513592	-0.000157	-0.103852
C32	C	1.013592	0.499843	0.396148
C33	C	0.562219	-0.000169	-0.035513
C34	C	1.062219	0.499831	0.464487
C35	C	0.641161	-0.000161	-0.036776
C36	C	1.141161	0.499839	0.463224
C37	C	0.243856	-0.000206	-0.030418
C38	C	0.743856	0.499794	0.469582
C39	C	0.164908	-0.000210	-0.029160
C40	C	0.664908	0.499790	0.470840
C41	C	0.146608	-0.000185	-0.167090
C42	C	0.646608	0.499815	0.332910
C43	C	0.225550	-0.000176	-0.168353
C44	C	0.725550	0.499824	0.331647
C45	C	0.274170	-0.000197	-0.100015
C46	C	0.774170	0.499803	0.399985
C47	C	0.359769	-0.000179	-0.101384
C48	C	0.859769	0.499821	0.398616
C49	C	0.427995	-0.000164	-0.102481
C50	C	0.927995	0.499836	0.397519
C51	C	0.937554	-0.416462	-0.145366
C52	C	1.437554	0.083538	0.354634
C53	C	0.937565	-0.583875	-0.145365
C54	C	1.437565	-0.083875	0.354635
C55	C	1.032268	-0.000204	-0.096156
C56	C	1.532268	0.499796	0.403844
C57	C	1.116286	-0.000212	-0.097494
C58	C	1.616286	0.499788	0.402506
C59	C	0.899662	-0.000191	0.036451
C60	C	1.399662	0.499809	0.536451
C61	C	0.898323	-0.000192	0.120469
C62	C	1.398323	0.499808	0.620469
N63	N	0.893895	0.343906	-0.101931
N64	N	1.393895	0.843906	0.398069
C65	C	0.888102	-0.000160	-0.240322
C66	C	1.388102	0.499840	0.259678
C67	C	0.889440	-0.000150	-0.324340
C68	C	1.389440	0.499850	0.175660
C69	C	0.966656	-0.000209	0.169090
C70	C	1.466656	0.499791	0.669090
C71	C	0.965394	-0.000195	0.248033
C72	C	1.465394	0.499805	0.748033
C73	C	0.895798	-0.000176	0.278354
C74	C	1.395798	0.499824	0.778354
C75	C	0.827459	-0.000154	0.229727
C76	C	1.327459	0.499846	0.729727
C77	C	0.828722	-0.000157	0.150785
C78	C	1.328722	0.499843	0.650785
C79	C	0.822364	-0.000141	0.548090
C80	C	1.322364	0.499859	1.048090
C81	C	0.821106	-0.000143	0.627038
C82	C	1.321106	0.499857	1.127038
C83	C	0.959036	-0.000180	0.645338
C84	C	1.459036	0.499820	1.145338
C85	C	0.960299	-0.000182	0.566396
C86	C	1.460299	0.499818	1.066396
C87	C	0.891961	-0.000154	0.517776
C88	C	1.391961	0.499846	1.017776
C89	C	0.893330	-0.000165	0.432177
C90	C	1.393330	0.499835	0.932177
C91	C	0.894427	-0.000175	0.363951
C92	C	1.394427	0.499825	0.863951
H93	H	0.647537	-0.000106	-0.231384
H94	H	1.147537	0.499894	0.268616
H95	H	0.283434	-0.000224	0.025228
H96	H	0.783434	0.499776	0.525228
H97	H	0.974957	-0.645967	-0.182553
H98	H	1.474957	-0.145967	0.317447
Cl99	Cl	0.482792	-0.000120	-0.259357
Cl100	Cl	0.982792	0.499880	0.240643
Cl101	Cl	0.739966	-0.000112	0.267844
Cl102	Cl	1.239966	0.499888	0.767844
Cl103	Cl	0.836150	-0.560246	-0.044521
Cl104	Cl	1.336150	-0.060246	0.455479
Cl105	Cl	0.836153	-0.440165	-0.044516
Cl106	Cl	1.336153	0.059835	0.455484
H107	H	0.537526	-0.000204	0.021154
H108	H	1.037526	0.499796	0.521154
H109	H	1.023330	-0.000233	0.144409
H110	H	1.523330	0.499767	0.644409
Cl111	Cl	0.702285	-0.000178	0.049132
Cl112	Cl	1.202285	0.499822	0.549132
Cl113	Cl	1.051303	-0.000221	0.309154
Cl114	Cl	1.551303	0.499779	0.809154
H115	H	1.016971	-0.000206	0.541714
H116	H	1.516971	0.499794	1.041714
H117	H	0.250232	-0.000156	-0.225025
H118	H	0.750232	0.499844	0.274975
Cl119	Cl	0.085481	-0.000166	-0.253002
Cl120	Cl	0.585481	0.499834	0.246998
H121	H	0.773078	-0.000143	0.111198
H122	H	1.273078	0.499857	0.611198
Cl123	Cl	0.126793	-0.000232	0.058340
Cl124	Cl	0.626793	0.499768	0.558340
H125	H	0.974944	-0.354337	-0.182548
H126	H	1.474944	0.145663	0.317452
Cl127	Cl	0.733606	-0.000115	0.665153
Cl128	Cl	1.233606	0.499885	1.165153
Cl129	Cl	0.736452	-0.000101	0.486977
Cl130	Cl	1.236452	0.499899	0.986977
H131	H	1.014680	-0.000196	0.684934
H132	H	1.514680	0.499804	1.184934
