data_functionalizedCrystal
_audit_creation_method	'MofGen! by Chris Wilmer'
_symmetry_space_group_name_H-M	'P1'
_symmetry_Int_Tables_number	1
_symmetry_cell_setting	triclinic
loop_
_symmetry_equiv_pos_as_xyz
  x,y,z
_cell_length_a	14.044220
_cell_length_b	10.654541
_cell_length_c	9.130307
_cell_angle_alpha	90.000178
_cell_angle_beta	89.995545
_cell_angle_gamma	91.163597
loop_
_atom_site_label
_atom_site_type_symbol
_atom_site_fract_x
_atom_site_fract_y
_atom_site_fract_z
O1	O	0.133219	-1.681226	-0.121759
O2	O	0.145915	-1.317023	-0.121772
O3	O	0.001547	-1.493658	-0.121751
O4	O	0.277588	-1.504591	-0.121780
O5	O	0.001545	-1.493651	0.121848
O6	O	0.145914	-1.317016	0.121827
O7	O	0.133218	-1.681220	0.121840
Cu8	Cu	0.139565	-1.499117	0.144076
Cu9	Cu	0.139567	-1.499125	-0.144008
O10	O	0.277586	-1.504585	0.121819
C11	C	0.144983	-1.270128	0.000026
C12	C	0.142195	-1.130404	0.000021
C13	C	-0.033800	-1.488869	0.000049
C14	C	-0.139120	-1.474593	0.000050
C15	C	0.134150	-1.728114	0.000039
C16	C	0.136938	-1.867838	0.000034
C17	C	-0.331952	-1.448494	0.000028
C18	C	-0.388921	-1.549742	0.000027
C19	C	-0.496219	-1.535221	0.000015
C20	C	-0.224644	-1.463014	0.000040
C21	C	0.312933	-1.509374	0.000016
C22	C	0.418252	-1.523649	0.000005
N23	N	0.139564	-1.499121	0.346699
C24	C	0.314827	-1.119781	-0.000015
C25	C	0.399829	-1.048829	-0.000039
C26	C	0.397204	-0.917547	-0.000040
C27	C	0.309567	-0.857215	-0.000013
C28	C	0.224565	-0.928167	0.000011
C29	C	0.227199	-1.059452	0.000008
C30	C	0.051935	-0.938790	0.000058
C31	C	0.054558	-1.070072	0.000049
C32	C	-0.035701	-0.878458	0.000085
C33	C	-0.120706	-0.949411	0.000098
C34	C	-0.118077	-1.080701	0.000098
C35	C	-0.030444	-1.141025	0.000072
N36	N	0.139561	-1.499130	-0.346631
C37	C	0.011763	-1.655605	0.346707
C38	C	-0.052134	-1.733855	0.423378
C39	C	-0.052135	-1.733868	0.576712
C40	C	0.011767	-1.655619	0.653378
C41	C	0.075664	-1.577368	0.576707
C42	C	0.075660	-1.577367	0.423370
C43	C	0.203459	-1.420880	0.576698
C44	C	0.203466	-1.420872	0.423365
C45	C	0.267361	-1.342631	0.653364
C46	C	0.331265	-1.264385	0.576693
C47	C	0.331263	-1.264377	0.423351
C48	C	0.267363	-1.342621	0.346694
H49	H	-0.357109	-1.647330	-0.000067
H50	H	0.383293	-1.200651	0.360933
H51	H	-0.363762	-1.350915	0.000021
H52	H	0.267360	-1.342627	0.221842
H53	H	0.316973	-1.226677	-0.000046
H54	H	0.383285	-1.200674	0.639124
Cl55	Cl	-0.132469	-1.832234	0.673100
Cl56	Cl	0.509995	-1.124680	-0.000074
Cl57	Cl	-0.039002	-0.713417	0.000091
Cl58	Cl	0.504064	-0.828346	-0.000056
Cl59	Cl	0.267358	-1.342637	0.846128
H60	H	0.307437	-0.750318	0.000004
Cl61	Cl	-0.230865	-0.873560	0.000145
Cl62	Cl	-0.224944	-1.169887	0.000139
H63	H	-0.104165	-1.797563	0.360944
H64	H	-0.028295	-1.247921	0.000055
H65	H	0.011765	-1.655614	0.221855
H66	H	0.011755	-1.655622	0.778230
