data_functionalizedCrystal
_audit_creation_method	'MofGen! by Chris Wilmer'
_symmetry_space_group_name_H-M	'P1'
_symmetry_Int_Tables_number	1
_symmetry_cell_setting	triclinic
loop_
_symmetry_equiv_pos_as_xyz
  x,y,z
_cell_length_a	16.120484
_cell_length_b	16.959455
_cell_length_c	16.959447
_cell_angle_alpha	89.985299
_cell_angle_beta	92.866538
_cell_angle_gamma	92.924951
loop_
_atom_site_label
_atom_site_type_symbol
_atom_site_fract_x
_atom_site_fract_y
_atom_site_fract_z
Zn1	Zn	-0.331903	1.192397	-0.462856
Zn2	Zn	-0.471331	1.185603	-0.337374
Zn3	Zn	-0.331935	1.060223	-0.330695
Zn4	Zn	-0.471275	1.053476	-0.469509
O5	O	-0.401611	1.122925	-0.400108
O6	O	-0.350409	1.302106	-0.446222
O7	O	-0.452877	1.168952	-0.225879
O8	O	-0.215265	1.083423	-0.342647
O9	O	-0.452846	1.297115	-0.354031
O10	O	-0.215242	1.180530	-0.439745
O11	O	-0.350463	1.076836	-0.220971
O12	O	-0.350409	0.948718	-0.349097
O13	O	-0.452750	1.071924	-0.579236
O14	O	-0.452781	0.943761	-0.451084
O15	O	-0.350354	1.173988	-0.574348
O16	O	-0.587989	1.162409	-0.360481
O17	O	-0.587948	1.065336	-0.457560
C18	C	-0.618219	1.112425	-0.410485
C19	C	-0.710885	1.108005	-0.414950
C20	C	-0.401593	0.917559	-0.400088
C21	C	-0.401605	0.829702	-0.400099
C22	C	-0.454864	0.785831	-0.352024
C23	C	-0.348353	0.791019	-0.448181
C24	C	-0.348360	0.708473	-0.448191
C25	C	-0.401618	0.664602	-0.400115
C26	C	-0.454870	0.703277	-0.352030
C27	C	-0.295103	0.669792	-0.496269
C28	C	-0.295107	0.587241	-0.496280
C29	C	-0.348370	0.543368	-0.448208
C30	C	-0.401625	0.582048	-0.400122
C31	C	-0.454883	0.538177	-0.352047
C32	C	-0.508143	0.576856	-0.303964
C33	C	-0.508134	0.659405	-0.303958
C34	C	-0.348379	0.460819	-0.448214
C35	C	-0.454890	0.455624	-0.352053
C36	C	-0.880546	1.099941	-0.423119
C37	C	-0.921836	1.146050	-0.377111
C38	C	-1.016241	1.141563	-0.381656
C39	C	-0.786132	1.104427	-0.418575
C40	C	-0.184158	1.133487	-0.389709
C41	C	-0.091492	1.137988	-0.385277
C42	C	-0.401630	1.329092	-0.400129
C43	C	-0.401638	1.416948	-0.400138
C44	C	-0.401542	1.122961	-0.606273
C45	C	-0.401513	1.122976	-0.694129
C46	C	-0.454738	1.069935	-1.068147
C47	C	-0.348112	1.176215	-1.063053
C48	C	-0.348130	1.176193	-0.980508
C49	C	-0.401453	1.123042	-0.941779
C50	C	-0.454759	1.069913	-0.985595
C51	C	-0.294831	1.229327	-0.936686
C52	C	-0.294847	1.229308	-0.854136
C53	C	-0.348167	1.176152	-0.815405
C54	C	-0.401474	1.123020	-0.859226
C55	C	-0.454797	1.069869	-0.820497
C56	C	-0.508101	1.016733	-0.864317
C57	C	-0.508079	1.016757	-0.946864
C58	C	-0.348189	1.176128	-0.732858
C59	C	-0.454819	1.069847	-0.737945
C60	C	-0.401620	1.122937	-0.194743
C61	C	-0.401414	1.123086	-0.106877
H62	H	-0.498263	0.419909	-0.312907
H63	H	-0.551521	0.973461	-0.832773
C64	C	-0.289559	1.234566	-0.684660
H65	H	-0.257796	1.266221	-0.719548
H66	H	-0.321458	1.267446	-0.653975
H67	H	-0.253234	1.206077	-0.650729
H68	H	-0.251423	1.272604	-0.968226
C69	C	-0.289802	0.418272	-0.501094
H70	H	-0.297429	0.362826	-0.494210
H71	H	-0.302059	0.431226	-0.554772
H72	H	-0.233769	0.434509	-0.486913
C73	C	-0.873815	1.203908	-0.319265
H74	H	-0.815744	1.199359	-0.323746
H75	H	-0.887964	1.256358	-0.331525
H76	H	-0.888102	1.191682	-0.266825
C77	C	-0.928566	1.042057	-0.480931
H78	H	-0.986636	1.046594	-0.476430
H79	H	-0.914298	1.054245	-0.533380
H80	H	-0.914405	0.989614	-0.468634
C81	C	-0.566725	0.528593	-0.251085
H82	H	-0.559099	0.473891	-0.257981
H83	H	-0.554464	0.542696	-0.197405
H84	H	-0.622758	0.539405	-0.265261
H85	H	-0.551478	0.973499	-0.982549
C86	C	-0.513487	1.011390	-0.695349
H87	H	-0.545234	0.979758	-0.733271
H88	H	-0.481614	0.978489	-0.661615
H89	H	-0.549826	1.039869	-0.664893
H90	H	-0.551493	0.690905	-0.264810
H91	H	-0.498134	1.026671	-1.103829
H92	H	-0.304703	1.219493	-1.094592
C93	C	-0.236522	0.718049	-0.549144
H94	H	-0.244154	0.772751	-0.542259
H95	H	-0.180493	0.707234	-0.534975
H96	H	-0.248791	0.703944	-0.602827
C97	C	-0.513442	0.828373	-0.299134
H98	H	-0.505811	0.883820	-0.306010
H99	H	-0.569473	0.812132	-0.313301
H100	H	-0.501168	0.815421	-0.245454
H101	H	-0.251741	0.555756	-0.535433
C102	C	-0.236210	1.287748	-0.805941
H103	H	-0.204446	1.319401	-0.840831
H104	H	-0.268107	1.320630	-0.775257
H105	H	-0.199886	1.259259	-0.772010
H106	H	-0.304989	0.826744	-0.487318
