data_functionalizedCrystal
_audit_creation_method	'MofGen! by Chris Wilmer'
_symmetry_space_group_name_H-M	'P1'
_symmetry_Int_Tables_number	1
_symmetry_cell_setting	triclinic
loop_
_symmetry_equiv_pos_as_xyz
  x,y,z
_cell_length_a	11.169417
_cell_length_b	12.594516
_cell_length_c	11.169409
_cell_angle_alpha	89.968646
_cell_angle_beta	89.980176
_cell_angle_gamma	90.016931
loop_
_atom_site_label
_atom_site_type_symbol
_atom_site_fract_x
_atom_site_fract_y
_atom_site_fract_z
Zn1	Zn	1.834915	-0.423631	-0.678551
Zn2	Zn	1.834784	-0.601657	-0.477871
Zn3	Zn	1.634201	-0.423696	-0.477885
Zn4	Zn	1.634188	-0.601571	-0.678516
O5	O	1.734522	-0.512639	-0.578206
O6	O	2.002847	-0.447256	-0.651939
O7	O	1.808127	-0.578114	-0.309923
O8	O	1.660886	-0.274741	-0.504524
O9	O	2.002751	-0.578051	-0.504501
O10	O	1.808349	-0.274694	-0.651953
O11	O	1.660759	-0.447366	-0.309934
O12	O	1.466249	-0.447282	-0.504491
O13	O	1.660864	-0.577903	-0.846471
O14	O	1.466240	-0.577966	-0.651893
O15	O	1.808337	-0.447172	-0.846496
O16	O	1.808115	-0.750592	-0.504467
O17	O	1.660738	-0.750528	-0.651880
C18	C	1.422697	-0.512623	-0.578190
C19	C	1.289297	-0.512641	-0.578212
C20	C	1.734443	-0.789180	-0.578194
C21	C	1.734519	-0.907485	-0.578229
C22	C	1.654353	-0.976742	-0.658351
C23	C	1.625107	-1.047617	-0.548838
C24	C	1.763875	-1.047410	-0.687761
C25	C	1.705215	-0.976801	-0.468658
C26	C	1.844034	-0.976588	-0.607656
C27	C	1.814829	-1.047430	-0.498067
C28	C	2.047564	-0.512656	-0.578222
C29	C	2.180964	-0.512663	-0.578229
C30	C	1.734614	-0.512520	-0.891249
C31	C	1.734653	-0.512470	-1.024649
C32	C	1.734634	-0.235018	-0.578244
C33	C	1.734681	-0.116712	-0.578260
C34	C	1.734499	-0.512680	-0.266381
C35	C	1.734692	-0.512430	-0.132982
H36	H	1.586438	-0.945703	-0.726008
C37	C	1.969018	-0.934401	-0.641313
C38	C	2.070956	-1.012686	-0.669925
C39	C	2.195940	-0.970497	-0.703599
C40	C	2.218986	-0.850022	-0.708663
C41	C	2.117045	-0.771729	-0.680050
C42	C	1.992061	-0.813919	-0.646376
H43	H	2.053898	-1.101875	-0.666178
H44	H	2.271403	-1.028455	-0.724780
H45	H	2.311507	-0.818791	-0.733591
H46	H	2.134103	-0.682540	-0.683797
H47	H	1.916598	-0.755960	-0.625195
H48	H	1.532568	-1.078839	-0.523974
C49	C	1.906501	-1.089109	-0.406446
C50	C	2.039674	-1.059370	-0.418807
C51	C	2.131336	-1.101051	-0.327180
C52	C	2.089824	-1.172473	-0.223192
C53	C	1.956644	-1.202216	-0.210827
C54	C	1.864983	-1.160534	-0.302454
H55	H	2.070410	-1.006496	-0.495789
H56	H	2.229925	-1.079033	-0.336334
H57	H	2.157678	-1.203328	-0.155365
H58	H	1.925909	-1.255090	-0.133845
H59	H	1.766394	-1.182553	-0.293300
C60	C	1.671610	-0.935085	-0.343502
C61	C	1.644348	-1.013759	-0.241480
C62	C	1.610739	-0.972040	-0.116328
C63	C	1.604390	-0.851647	-0.093198
C64	C	1.631652	-0.772966	-0.195223
C65	C	1.665262	-0.814684	-0.320375
H66	H	1.649047	-1.102888	-0.258599
H67	H	1.590557	-1.030286	-0.040803
H68	H	1.579510	-0.820765	-0.000553
H69	H	1.626954	-0.683837	-0.178104
H70	H	1.685443	-0.756438	-0.395900
H71	H	1.788639	-1.078426	-0.780379
