data_functionalizedCrystal
_audit_creation_method	'MofGen! by Chris Wilmer'
_symmetry_space_group_name_H-M	'P1'
_symmetry_Int_Tables_number	1
_symmetry_cell_setting	triclinic
loop_
_symmetry_equiv_pos_as_xyz
  x,y,z
_cell_length_a	14.853567
_cell_length_b	17.699083
_cell_length_c	16.176319
_cell_angle_alpha	90.004302
_cell_angle_beta	89.999649
_cell_angle_gamma	83.458972
loop_
_atom_site_label
_atom_site_type_symbol
_atom_site_fract_x
_atom_site_fract_y
_atom_site_fract_z
O1	O	0.114004	1.004373	0.068707
O2	O	0.614004	1.504373	0.568707
O3	O	0.128837	0.784034	0.068715
O4	O	0.628837	1.284034	0.568715
O5	O	-0.009831	0.900089	0.068713
O6	O	0.490169	1.400089	0.568713
O7	O	0.252672	0.888318	0.068709
O8	O	0.752672	1.388318	0.568709
O9	O	-0.009831	0.900075	-0.068780
O10	O	0.490169	1.400075	0.431220
O11	O	0.128836	0.784020	-0.068778
O12	O	0.628836	1.284020	0.431222
O13	O	0.114004	1.004360	-0.068786
O14	O	0.614004	1.504360	0.431214
Cu15	Cu	0.121420	0.894189	-0.081336
Cu16	Cu	0.621420	1.394189	0.418664
Cu17	Cu	0.121420	0.894205	0.081265
Cu18	Cu	0.621420	1.394205	0.581265
O19	O	0.252671	0.888304	-0.068784
O20	O	0.752671	1.388304	0.431216
C21	C	-0.043418	0.899549	-0.000031
C22	C	0.456582	1.399549	0.499969
C23	C	-0.143496	0.897951	-0.000024
C24	C	0.356504	1.397951	0.499976
C25	C	0.114535	1.032565	-0.000039
C26	C	0.614535	1.532565	0.499961
C27	C	0.116130	1.116587	-0.000037
C28	C	0.616130	1.616587	0.499963
C29	C	0.128305	0.755828	-0.000030
C30	C	0.628305	1.255828	0.499970
C31	C	0.126711	0.671806	-0.000027
C32	C	0.626711	1.171806	0.499973
C33	C	-0.555751	0.822255	-0.000037
C34	C	-0.055751	1.322255	0.499963
C35	C	-0.577539	0.960131	-0.000041
C36	C	-0.077539	1.460131	0.499959
C37	C	-0.483511	0.961634	-0.000037
C38	C	0.016489	1.461634	0.499963
C39	C	-0.425598	0.893446	-0.000033
C40	C	0.074402	1.393446	0.499967
C41	C	-0.461714	0.823756	-0.000034
C42	C	0.038286	1.323756	0.499966
C43	C	-0.447389	1.031324	-0.000044
C44	C	0.052611	1.531324	0.499956
C45	C	-0.353355	1.032829	-0.000040
C46	C	0.146645	1.532829	0.499960
C47	C	-0.295441	0.964641	-0.000030
C48	C	0.204559	1.464641	0.499970
C49	C	-0.331561	0.894947	-0.000031
C50	C	0.168439	1.394947	0.499969
C51	C	-0.273648	0.826759	-0.000027
C52	C	0.226352	1.326759	0.499973
C53	C	-0.309767	0.757065	-0.000021
C54	C	0.190233	1.257065	0.499979
C55	C	-0.403799	0.755567	-0.000025
C56	C	0.096201	1.255567	0.499975
C57	C	-0.201409	0.966139	-0.000027
C58	C	0.298591	1.466139	0.499973
C59	C	-0.179611	0.828260	-0.000025
C60	C	0.320389	1.328260	0.499975
C61	C	0.286258	0.888844	-0.000038
C62	C	0.786258	1.388844	0.499962
C63	C	0.386336	0.890443	-0.000040
C64	C	0.886336	1.390443	0.499960
N65	N	0.121419	0.894183	-0.195702
N66	N	0.621419	1.394183	0.304298
C67	C	0.034735	1.164997	-0.000032
C68	C	0.534735	1.664997	0.499968
C69	C	0.036238	1.243944	-0.000035
C70	C	0.536238	1.743944	0.499965
C71	C	0.119138	1.274480	-0.000036
C72	C	0.619138	1.774480	0.499964
C73	C	0.200539	1.226064	-0.000043
C74	C	0.700539	1.726064	0.499957
C75	C	0.199035	1.147119	-0.000046
C76	C	0.699035	1.647119	0.499954
C77	C	0.206608	1.544443	-0.000031
C78	C	0.706608	2.044443	0.499969
C79	C	0.208107	1.623395	-0.000026
C80	C	0.708107	2.123395	0.499974
C81	C	0.043812	1.641269	-0.000020
C82	C	0.543812	2.141269	0.499980
C83	C	0.042308	1.562323	-0.000023
C84	C	0.542308	2.062323	0.499977
C85	C	0.123708	1.513914	-0.000034
C86	C	0.623708	2.013914	0.499966
C87	C	0.122077	1.428311	-0.000033
C88	C	0.622077	1.928311	0.499967
C89	C	0.120770	1.360082	-0.000032
C90	C	0.620770	1.860082	0.499968
C91	C	0.176032	0.940139	-0.238965
C92	C	0.676032	1.440139	0.261035
C93	C	0.176028	0.940147	-0.325512
C94	C	0.676028	1.440147	0.174488
C95	C	0.121417	0.894194	-0.368794
C96	C	0.621417	1.394194	0.131206
C97	C	0.066798	0.848236	-0.325525
C98	C	0.566798	1.348236	0.174475
C99	C	0.066797	0.848232	-0.238979
C100	C	0.566797	1.348232	0.261021
C101	C	0.066799	0.848250	-0.674553
C102	C	0.566799	1.348250	-0.174553
C103	C	0.066806	0.848255	-0.761105
C104	C	0.566806	1.348255	-0.261105
C105	C	0.176030	0.940165	-0.761086
C106	C	0.676030	1.440165	-0.261086
C107	C	0.176029	0.940162	-0.674540
C108	C	0.676029	1.440162	-0.174540
C109	C	0.121407	0.894206	-0.631278
C110	C	0.621407	1.394206	-0.131278
C111	C	0.121410	0.894199	-0.537434
C112	C	0.621410	1.394199	-0.037434
C113	C	0.121418	0.894197	-0.462637
C114	C	0.621418	1.394197	0.037363
N115	N	0.121414	0.894217	0.195631
N116	N	0.621414	1.394217	0.695631
H117	H	-0.132463	0.772732	-0.000018
H118	H	0.367537	1.272732	0.499982
Br119	Br	-0.007294	0.785851	-0.615851
Br120	Br	0.492706	1.285851	-0.115851
Br121	Br	-0.525987	1.123859	-0.000071
Br122	Br	-0.025987	1.623859	0.499929
Br123	Br	0.313048	1.267505	-0.000049
Br124	Br	0.813048	1.767505	0.499951
Br125	Br	-0.007323	0.785873	-0.384264
Br126	Br	0.492677	1.285873	0.115736
Br127	Br	0.250148	1.002520	-0.384224
Br128	Br	0.750148	1.502520	0.115776
H129	H	0.272890	1.505037	-0.000036
H130	H	0.772890	2.005037	0.499964
Br131	Br	0.309504	1.081418	-0.000062
Br132	Br	0.809504	1.581418	0.499938
Br133	Br	-0.604765	0.727674	-0.000017
Br134	Br	-0.104765	1.227674	0.499983
Br135	Br	0.250163	1.002516	-0.615804
Br136	Br	0.750163	1.502516	-0.115804
H137	H	0.220504	0.977586	-0.796320
H138	H	0.720504	1.477586	-0.296320
Br139	Br	-0.070203	1.520885	-0.000008
Br140	Br	0.429797	2.020885	0.499992
H141	H	-0.022468	1.680693	-0.000014
H142	H	0.477532	2.180693	0.499986
H143	H	0.022331	0.810833	-0.796342
H144	H	0.522331	1.310833	-0.296342
Br145	Br	-0.304345	1.127412	-0.000035
Br146	Br	0.195655	1.627412	0.499965
Br147	Br	-0.007336	0.785871	-0.180263
Br148	Br	0.492664	1.285871	0.319737
Br149	Br	-0.152392	1.060715	-0.000054
Br150	Br	0.347608	1.560715	0.499946
Br151	Br	-0.231160	0.664528	-0.000027
Br152	Br	0.268840	1.164528	0.499973
Br153	Br	-0.077778	1.123564	-0.000025
Br154	Br	0.422222	1.623564	0.499975
Br155	Br	-0.074231	1.309641	-0.000038
Br156	Br	0.425769	1.809641	0.499962
Br157	Br	-0.452823	0.660990	-0.000012
Br158	Br	0.047177	1.160990	0.499988
H159	H	0.275617	1.648254	-0.000030
H160	H	0.775617	2.148254	0.499970
H161	H	0.220508	0.977555	-0.203731
H162	H	0.720508	1.477555	0.296269
H163	H	-0.624697	1.015647	-0.000051
H164	H	-0.124697	1.515647	0.499949
