data_functionalizedCrystal
_audit_creation_method	'MofGen! by Chris Wilmer'
_symmetry_space_group_name_H-M	'P1'
_symmetry_Int_Tables_number	1
_symmetry_cell_setting	triclinic
loop_
_symmetry_equiv_pos_as_xyz
  x,y,z
_cell_length_a	14.853567
_cell_length_b	12.837943
_cell_length_c	11.295483
_cell_angle_alpha	94.538773
_cell_angle_beta	94.104625
_cell_angle_gamma	90.768065
loop_
_atom_site_label
_atom_site_type_symbol
_atom_site_fract_x
_atom_site_fract_y
_atom_site_fract_z
O1	O	0.228927	-1.382763	-0.098984
O2	O	0.217348	-1.080941	-0.098992
O3	O	0.092592	-1.239915	-0.098991
O4	O	0.353684	-1.223790	-0.098985
O5	O	0.103530	-1.225952	0.099059
O6	O	0.228287	-1.066978	0.099059
O7	O	0.239866	-1.368800	0.099067
Cu8	Cu	0.235075	-1.216614	0.117146
Cu9	Cu	0.222139	-1.233127	-0.117072
O10	O	0.364623	-1.209827	0.099066
C11	C	0.218906	-1.035334	0.000032
C12	C	0.207240	-0.920240	0.000029
C13	C	0.064410	-1.232203	0.000030
C14	C	-0.035860	-1.230014	0.000020
C15	C	0.238308	-1.414408	0.000040
C16	C	0.249974	-1.529502	0.000036
C17	C	-0.457187	-1.126324	0.000040
C18	C	-0.462449	-1.315188	0.000045
C19	C	-0.368241	-1.317247	0.000038
C20	C	-0.318502	-1.223843	0.000034
C21	C	-0.362970	-1.128380	0.000037
C22	C	-0.323764	-1.412707	0.000047
C23	C	-0.229551	-1.414770	0.000042
C24	C	-0.179810	-1.321366	0.000029
C25	C	-0.224285	-1.225899	0.000030
C26	C	-0.174546	-1.132495	0.000026
C27	C	-0.219019	-1.037028	0.000019
C28	C	-0.313230	-1.034976	0.000024
C29	C	-0.085599	-1.323418	0.000024
C30	C	-0.080329	-1.134551	0.000023
C31	C	0.392804	-1.217539	0.000042
C32	C	0.493073	-1.219728	0.000044
N33	N	0.244174	-1.205008	0.281883
C34	C	0.347487	-0.679482	0.000049
C35	C	0.336530	-0.571341	0.000047
C36	C	0.174369	-0.595813	0.000030
C37	C	0.185327	-0.703954	0.000032
C38	C	0.271888	-0.745785	0.000040
C39	C	0.282844	-0.853929	0.000034
C40	C	0.120685	-0.878399	0.000026
C41	C	0.109728	-0.770257	0.000023
N42	N	0.213033	-1.244742	-0.281808
C43	C	0.147484	-1.328293	0.531173
C44	C	0.154367	-1.319529	0.655836
C45	C	0.264819	-1.178712	0.655876
C46	C	0.257935	-1.187475	0.531212
C47	C	0.199267	-1.262270	0.468865
C48	C	0.192389	-1.271038	0.344199
C49	C	0.302836	-1.130216	0.344241
C50	C	0.309719	-1.121452	0.468904
H51	H	-0.039837	-1.058490	0.000014
F52	F	-0.166071	-0.937624	0.000024
H53	H	0.357483	-1.060553	0.519682
F54	F	0.085054	-1.407904	0.464817
H55	H	0.398091	-0.517360	0.000058
H56	H	0.345004	-1.076458	0.293496
H57	H	-0.364268	-1.488750	0.000062
F58	F	0.082253	-0.551275	0.000036
H59	H	0.039252	-0.736183	0.000031
F60	F	0.040221	-0.948972	0.000001
F61	F	-0.360568	-0.933383	0.000013
F62	F	-0.182228	-1.516374	0.000034
H63	H	0.144621	-1.331942	0.293437
H64	H	0.112199	-1.373291	0.706564
H65	H	0.353327	-0.887985	0.000043
F66	F	-0.504519	-1.024727	0.000022
H67	H	0.417969	-0.713541	0.000054
F68	F	-0.515386	-1.414587	0.000067
F69	F	-0.038270	-1.425012	0.000051
H70	H	0.312578	-1.117809	0.706655
