data_functionalizedCrystal
_audit_creation_method	'MofGen! by Chris Wilmer'
_symmetry_space_group_name_H-M	'P1'
_symmetry_Int_Tables_number	1
_symmetry_cell_setting	triclinic
loop_
_symmetry_equiv_pos_as_xyz
  x,y,z
_cell_length_a	10.654550
_cell_length_b	14.971486
_cell_length_c	14.048226
_cell_angle_alpha	90.001501
_cell_angle_beta	89.994756
_cell_angle_gamma	95.950484
loop_
_atom_site_label
_atom_site_type_symbol
_atom_site_fract_x
_atom_site_fract_y
_atom_site_fract_z
O1	O	0.163659	-1.187838	-0.079049
O2	O	0.183257	-0.927544	-0.079074
O3	O	-0.009345	-1.063675	-0.079057
O4	O	0.356262	-1.051706	-0.079066
O5	O	-0.009357	-1.063659	0.079264
O6	O	0.183246	-0.927527	0.079247
O7	O	0.163648	-1.187821	0.079273
Zn8	Zn	0.173445	-1.057672	0.104397
Zn9	Zn	0.173460	-1.057693	-0.104198
O10	O	0.356250	-1.051690	0.079256
C11	C	0.182375	-0.894206	0.000083
C12	C	0.179749	-0.794895	0.000073
C13	C	-0.056139	-1.062788	0.000102
C14	C	-0.195555	-1.060159	0.000099
C15	C	0.164530	-1.221159	0.000113
C16	C	0.167156	-1.320470	0.000117
C17	C	-0.275900	-1.140311	0.000109
C18	C	-0.406894	-1.137835	0.000102
C19	C	-0.377185	-0.975048	0.000078
C20	C	-0.246193	-0.977525	0.000078
C21	C	-0.293054	-1.234295	0.000128
C22	C	-0.424048	-1.231819	0.000121
C23	C	0.403044	-1.052577	0.000094
C24	C	0.542460	-1.055206	0.000092
N25	N	0.173434	-1.057663	0.246758
C26	C	0.292898	-0.738285	0.000072
C27	C	0.290422	-0.644972	0.000086
C28	C	0.174797	-0.608271	0.000095
C29	C	0.061639	-0.664888	0.000099
C30	C	0.064116	-0.758199	0.000092
C31	C	0.056485	-0.470397	0.000112
C32	C	0.054007	-0.377080	0.000118
C33	C	0.282791	-0.357171	0.000107
C34	C	0.285268	-0.450482	0.000100
C35	C	0.172110	-0.507092	0.000102
N36	N	0.173461	-1.057709	-0.246559
C37	C	0.088185	-1.117962	0.296583
C38	C	0.088184	-1.117968	0.396241
C39	C	0.173440	-1.057679	0.446071
C40	C	0.258693	-0.997374	0.396238
C41	C	0.258687	-0.997365	0.296583
C42	C	0.258702	-0.997400	0.603953
C43	C	0.258710	-0.997411	0.703615
C44	C	0.088200	-1.118003	0.703611
C45	C	0.088193	-1.117993	0.603955
C46	C	0.173448	-1.057690	0.554129
H47	H	-0.180779	-0.912257	0.000056
N48	N	-0.484913	-1.269472	-0.090411
H49	H	-0.449039	-1.233264	-0.146602
H50	H	-0.467418	-1.334103	-0.098081
N51	N	0.350646	-0.932352	0.449988
H52	H	0.439801	-0.943200	0.432631
H53	H	0.335924	-0.868809	0.432640
N54	N	-0.057922	-0.819261	0.000100
H55	H	-0.131548	-0.781854	0.000106
H56	H	-0.061879	-0.858411	-0.058592
H57	H	0.382560	-0.598884	0.000084
H58	H	0.379420	-0.480361	0.000084
N59	N	-0.479852	-1.278687	0.087909
H60	H	-0.524586	-1.235088	0.127056
H61	H	-0.542029	-1.330987	0.068340
H62	H	0.374929	-0.311074	0.000109
H63	H	-0.257753	-1.264216	0.068491
H64	H	-0.032505	-0.634998	0.000120
H65	H	0.328103	-0.948262	0.256016
N66	N	-0.431802	-0.885925	0.000055
H67	H	-0.526977	-0.896516	0.000054
H68	H	-0.402428	-0.850806	0.058742
H69	H	-0.264085	-1.271062	-0.066121
N70	N	0.350660	-0.932358	0.550217
H71	H	0.406340	-0.966877	0.508858
H72	H	0.302487	-0.892469	0.508936
H73	H	0.018778	-1.167089	0.563383
H74	H	-0.035661	-0.516488	0.000116
N75	N	0.417609	-0.777867	0.000052
H76	H	0.488912	-0.727842	0.000054
H77	H	0.423621	-0.816154	0.058738
H78	H	0.018782	-1.167104	0.744185
N79	N	-0.070692	-0.337481	0.000151
H80	H	-0.076825	-0.299206	-0.058533
H81	H	-0.141937	-0.387544	0.000199
H82	H	0.018765	-1.167059	0.256018
H83	H	0.018767	-1.167066	0.436808
N84	N	0.350661	-0.932375	0.757350
H85	H	0.302575	-0.892487	0.798710
H86	H	0.406339	-0.966958	0.798628
