data_functionalizedCrystal
_audit_creation_method	'MofGen! by Chris Wilmer'
_symmetry_space_group_name_H-M	'P1'
_symmetry_Int_Tables_number	1
_symmetry_cell_setting	triclinic
loop_
_symmetry_equiv_pos_as_xyz
  x,y,z
_cell_length_a	11.792241
_cell_length_b	11.792241
_cell_length_c	12.376457
_cell_angle_alpha	101.354533
_cell_angle_beta	78.632725
_cell_angle_gamma	84.193416
loop_
_atom_site_label
_atom_site_type_symbol
_atom_site_fract_x
_atom_site_fract_y
_atom_site_fract_z
O1	O	1.528516	0.133972	-0.093894
O2	O	1.198181	0.149999	-0.093920
O3	O	1.371363	-0.023183	-0.093899
O4	O	1.355334	0.307154	-0.093916
O5	O	1.328083	0.020053	0.094108
O6	O	1.154901	0.193235	0.094086
O7	O	1.485236	0.177208	0.094113
Zn8	Zn	1.313197	0.192086	0.123950
Zn9	Zn	1.370220	0.135121	-0.123757
O10	O	1.312054	0.350390	0.094091
C11	C	1.134251	0.170609	0.000080
C12	C	1.008239	0.167593	0.000070
C13	C	0.777520	0.162057	0.000103
C14	C	0.905909	0.165133	0.000085
C15	C	1.348716	-0.043856	0.000104
C16	C	1.345702	-0.169870	0.000103
C17	C	1.340163	-0.400587	0.000084
C18	C	1.343241	-0.272199	0.000094
C19	C	1.549167	0.156598	0.000110
C20	C	1.675180	0.159613	0.000113
C21	C	1.334702	0.371063	0.000086
C22	C	1.337717	0.497075	0.000079
N23	N	1.274288	0.230963	0.293003
N24	N	1.409138	0.096235	-0.292811
C25	C	1.499458	0.005967	0.648016
C26	C	1.526684	-0.021243	0.529680
C27	C	1.463587	0.041806	0.470505
C28	C	1.373260	0.132070	0.529678
C29	C	1.346037	0.159289	0.648026
C30	C	1.310166	0.195128	0.470514
C31	C	1.219839	0.285393	0.529687
C32	C	1.192620	0.312606	0.648024
C33	C	1.255717	0.249557	0.707199
C34	C	1.337389	0.167909	0.352166
C35	C	1.183968	0.321231	0.352176
C36	C	1.156742	0.348442	0.470512
H37	H	1.410934	0.094416	0.303998
H38	H	1.233547	0.271708	0.803558
Cl39	Cl	1.043191	0.461915	0.544913
H40	H	1.600228	-0.094734	0.481506
H41	H	1.119079	0.386113	0.696203
Cl42	Cl	1.104646	0.400502	0.277792
Cl43	Cl	1.578781	-0.073276	0.722408
Cl44	Cl	1.497812	0.007595	0.321737
