data_functionalizedCrystal
_audit_creation_method	'MofGen! by Chris Wilmer'
_symmetry_space_group_name_H-M	'P1'
_symmetry_Int_Tables_number	1
_symmetry_cell_setting	triclinic
loop_
_symmetry_equiv_pos_as_xyz
  x,y,z
_cell_length_a	15.995350
_cell_length_b	8.559649
_cell_length_c	7.681481
_cell_angle_alpha	94.930900
_cell_angle_beta	84.272804
_cell_angle_gamma	76.635520
loop_
_atom_site_label
_atom_site_type_symbol
_atom_site_fract_x
_atom_site_fract_y
_atom_site_fract_z
O1	O	-1.088861	-0.221071	-0.146274
O2	O	-0.843449	-0.246508	-0.146310
O3	O	-0.987776	-0.001187	-0.146287
O4	O	-0.944534	-0.466392	-0.146297
O5	O	-1.005545	0.029076	0.146574
O6	O	-0.861217	-0.216245	0.146551
O7	O	-1.106630	-0.190808	0.146586
Zn8	Zn	-0.986745	-0.198722	0.193067
Zn9	Zn	-0.963334	-0.238595	-0.192790
O10	O	-0.962303	-0.436129	0.146564
C11	C	-0.999937	0.073474	0.000140
C12	C	-1.009691	0.250853	0.000132
C13	C	-0.821206	-0.230326	0.000116
C14	C	-0.728457	-0.227175	0.000102
C15	C	-1.128873	-0.206991	0.000157
C16	C	-1.221621	-0.210143	0.000159
C17	C	-0.391440	-0.215850	0.000139
C18	C	-0.450148	-0.041071	0.000796
C19	C	-0.546595	-0.044294	0.000124
C20	C	-0.558638	-0.221468	0.000122
C21	C	-0.501863	-0.324922	-0.167111
C22	C	-0.405502	-0.320547	-0.167238
C23	C	-0.425137	-0.289741	0.165799
C24	C	-0.522219	-0.289473	0.167997
C25	C	-0.653130	-0.224652	0.000106
C26	C	-0.296946	-0.212672	0.000143
C27	C	-0.950141	-0.510791	0.000132
C28	C	-0.940387	-0.688171	0.000129
N29	N	-1.002729	-0.171508	0.456403
N30	N	-0.947358	-0.265795	-0.456127
H31	H	-0.586653	0.035831	0.120004
H32	H	-0.364545	-0.449601	-0.174829
N33	N	-1.077612	-0.044037	0.556021
H34	H	-1.073257	0.066063	0.524038
H35	H	-1.133908	-0.065782	0.523961
H36	H	-0.529889	-0.417630	0.178097
H37	H	-0.873589	0.228332	0.000125
N38	N	-0.872482	-0.393261	0.444252
H39	H	-0.816143	-0.371670	0.476258
H40	H	-0.876917	-0.503306	0.476272
H41	H	-0.443393	0.041158	0.120725
H42	H	-0.571552	0.011492	-0.119961
N43	N	-0.420519	0.034722	-0.157142
H44	H	-0.369233	-0.043668	-0.229118
H45	H	-0.469332	0.061877	-0.231712
N46	N	-0.508993	-0.498188	-0.175381
H47	H	-0.449842	-0.571736	-0.173729
H48	H	-0.549223	-0.511166	-0.070537
N49	N	-0.372192	-0.460211	0.167331
H50	H	-0.377522	-0.528632	0.057050
H51	H	-0.309462	-0.459015	0.171979
N52	N	-0.376545	-0.254407	-0.332810
H53	H	-0.383268	-0.326345	-0.439187
H54	H	-0.413200	-0.141642	-0.335470
N55	N	-0.534525	-0.262694	-0.331987
H56	H	-0.596560	-0.269985	-0.333906
H57	H	-0.531271	-0.146377	-0.333546
N58	N	-0.412995	-0.196739	0.333712
H59	H	-0.385521	-0.105757	0.304090
H60	H	-0.471133	-0.150752	0.406274
N61	N	-0.573697	-0.189222	0.331886
H62	H	-0.620417	-0.100122	0.297553
H63	H	-0.601138	-0.260258	0.406059
H64	H	-1.076494	0.334361	0.000156
