data_functionalizedCrystal
_audit_creation_method	'MofGen! by Chris Wilmer'
_symmetry_space_group_name_H-M	'P1'
_symmetry_Int_Tables_number	1
_symmetry_cell_setting	triclinic
loop_
_symmetry_equiv_pos_as_xyz
  x,y,z
_cell_length_a	15.995292
_cell_length_b	15.995350
_cell_length_c	18.366186
_cell_angle_alpha	89.995992
_cell_angle_beta	89.989780
_cell_angle_gamma	83.480495
loop_
_atom_site_label
_atom_site_type_symbol
_atom_site_fract_x
_atom_site_fract_y
_atom_site_fract_z
O1	O	1.111021	0.107696	-0.060566
O2	O	0.867239	0.121074	-0.060562
O3	O	0.995794	-0.007504	-0.060563
O4	O	0.982466	0.236274	-0.060565
O5	O	0.995772	-0.007510	0.060536
O6	O	0.867217	0.121068	0.060537
O7	O	1.110999	0.107690	0.060534
Zn8	Zn	0.989105	0.114378	0.079762
Zn9	Zn	0.989134	0.114386	-0.079791
O10	O	0.982445	0.236268	0.060535
C11	C	0.836033	0.120527	-0.000012
C12	C	0.743080	0.118894	-0.000011
C13	C	0.405341	0.112893	-0.000019
C14	C	0.428654	0.205697	-0.000290
C15	C	0.525329	0.207461	-0.000014
C16	C	0.572897	0.115871	-0.000016
C17	C	0.543783	0.069469	0.069136
C18	C	0.446992	0.068352	0.069191
C19	C	0.447162	0.066464	-0.068522
C20	C	0.543655	0.069904	-0.069433
C21	C	0.667593	0.117549	-0.000011
C22	C	0.310646	0.111212	-0.000019
C23	C	0.995232	-0.038702	-0.000015
C24	C	0.993580	-0.131652	-0.000019
C25	C	0.987648	-0.469398	-0.000017
C26	C	0.896094	-0.421945	-0.000287
C27	C	0.897746	-0.325255	-0.000014
C28	C	0.990591	-0.301838	-0.000018
C29	C	1.035736	-0.342929	0.069133
C30	C	1.033436	-0.439564	0.069191
C31	C	1.035352	-0.439915	-0.068521
C32	C	1.035331	-0.342970	-0.069435
C33	C	0.992259	-0.207141	-0.000017
C34	C	0.985983	-0.564095	-0.000013
C35	C	1.142206	0.108237	-0.000018
C36	C	1.235159	0.109870	-0.000024
C37	C	0.983006	0.267466	-0.000015
C38	C	0.984658	0.360416	-0.000016
N39	N	0.989091	0.114372	0.188654
N40	N	0.989154	0.114386	-0.188682
C41	C	1.046034	0.057465	0.226754
C42	C	1.046040	0.057461	0.302981
C43	C	0.989110	0.114378	0.341106
C44	C	0.932157	0.171289	0.302997
C45	C	0.932147	0.171286	0.226771
C46	C	0.978140	0.190637	0.461866
C47	C	0.978155	0.190642	0.538091
C48	C	0.989134	0.114389	0.576214
C49	C	1.000115	0.038128	0.538102
C50	C	1.000106	0.038125	0.461876
C51	C	0.989113	0.114388	0.423761
C52	C	1.046086	0.057474	0.696969
C53	C	1.046085	0.057469	0.773198
C54	C	0.932206	0.171304	0.773212
C55	C	0.932203	0.171302	0.696985
C56	C	0.989147	0.114387	0.658867
H57	H	0.418844	0.095475	-0.120935
C58	C	0.966082	0.274524	0.580007
H59	H	0.959528	0.319936	0.546387
H60	H	1.013927	0.279192	0.609728
H61	H	0.917328	0.276198	0.609757
H62	H	0.859654	-0.441534	0.049028
C63	C	0.410747	0.111765	0.139017
H64	H	0.455197	0.129921	0.167081
H65	H	0.382711	0.073190	0.166665
H66	H	0.371981	0.158985	0.126380
C67	C	0.993357	-0.304594	0.138660
H68	H	1.021127	-0.329866	0.180217
H69	H	0.935934	-0.314553	0.139283
H70	H	0.996876	-0.245710	0.139376
C71	C	1.124235	-0.483152	0.073440
H72	H	1.162363	-0.441776	0.075129
H73	H	1.135794	-0.517670	0.031742
H74	H	1.130567	-0.516888	0.116087
C75	C	0.427330	-0.023565	0.073438
H76	H	0.478477	-0.060058	0.075129
H77	H	0.395997	-0.036276	0.031739
H78	H	0.395397	-0.031068	0.116084
H79	H	0.885838	0.217644	0.665962
C80	C	1.127879	-0.323863	0.072612
H81	H	1.139662	-0.290590	0.031826
H82	H	1.164186	-0.375157	0.071970
H83	H	1.136630	-0.294060	0.116184
H84	H	0.862001	-0.297385	0.049642
H85	H	1.005428	-0.460446	-0.120934
C86	C	0.568748	0.115541	-0.138545
H87	H	0.596934	0.162411	-0.125158
H88	H	0.519685	0.134466	-0.165696
H89	H	0.605126	0.077902	-0.167411
H90	H	1.092451	0.011128	0.665932
H91	H	0.969185	0.252736	0.430833
C92	C	0.588184	-0.020411	-0.075076
H93	H	0.625354	-0.031316	-0.034989
H94	H	0.619256	-0.026434	-0.119212
H95	H	0.547408	-0.059206	-0.074490
C96	C	1.012198	-0.045757	0.580023
H97	H	1.018744	-0.091171	0.546408
H98	H	0.964363	-0.050426	0.609771
H99	H	1.060961	-0.047426	0.609746
H100	H	1.009045	-0.023969	0.430848
H101	H	0.543724	0.244015	0.049640
C102	C	0.990808	-0.306076	-0.138547
H103	H	0.945146	-0.265770	-0.125161
H104	H	0.970246	-0.349971	-0.165700
H105	H	1.029565	-0.279707	-0.167412
C106	C	0.389447	0.253757	0.066325
H107	H	0.403835	0.309768	0.065740
H108	H	0.410330	0.226414	0.109632
H109	H	0.329980	0.254749	0.064689
C110	C	0.988930	-0.464285	0.139019
H111	H	0.972418	-0.415291	0.167082
H112	H	1.026332	-0.502265	0.166668
H113	H	0.940564	-0.490537	0.126383
H114	H	0.433169	-0.001846	-0.068991
C115	C	0.869538	0.233899	0.344931
H116	H	0.877705	0.225757	0.395786
H117	H	0.813657	0.224785	0.332457
H118	H	0.878632	0.289786	0.332429
H119	H	0.544365	0.243796	-0.049586
H120	H	0.885777	0.217627	0.195749
H121	H	1.103038	-0.327622	-0.073614
H122	H	1.092452	0.011124	0.804219
C123	C	1.126538	-0.482845	-0.069161
H124	H	1.135527	-0.518568	-0.027907
H125	H	1.164367	-0.441191	-0.067646
H126	H	1.135966	-0.515281	-0.112321
C127	C	1.108680	-0.005133	0.344904
H128	H	1.100526	0.003019	0.395760
H129	H	1.164557	0.003986	0.332397
H130	H	1.099591	-0.061025	0.332423
C131	C	0.570856	0.112994	0.138660
H132	H	0.599893	0.159437	0.125693
H133	H	0.606910	0.074094	0.166639
H134	H	0.522458	0.132323	0.166534
C135	C	0.390837	0.254034	-0.067277
H136	H	0.360486	0.218054	-0.095679
H137	H	0.434800	0.272508	-0.095752
H138	H	0.353872	0.301356	-0.051722
C139	C	0.849794	-0.286840	-0.066971
H140	H	0.829123	-0.330322	-0.094583
H141	H	0.886693	-0.258555	-0.096233
H142	H	0.803962	-0.247952	-0.051401
H143	H	0.885850	0.217644	0.804253
C144	C	0.586830	-0.021579	0.072618
H145	H	0.568331	-0.048474	0.114833
H146	H	0.646112	-0.021088	0.074692
H147	H	0.572588	-0.051352	0.030475
C148	C	0.846662	-0.446973	-0.067271
H149	H	0.881411	-0.486590	-0.095672
H150	H	0.829828	-0.398392	-0.095749
H151	H	0.798251	-0.471399	-0.051713
H152	H	1.092399	0.011120	0.195721
