data_functionalizedCrystal
_audit_creation_method	'MofGen! by Chris Wilmer'
_symmetry_space_group_name_H-M	'P1'
_symmetry_Int_Tables_number	1
_symmetry_cell_setting	triclinic
loop_
_symmetry_equiv_pos_as_xyz
  x,y,z
_cell_length_a	10.654543
_cell_length_b	15.538191
_cell_length_c	9.730223
_cell_angle_alpha	89.998968
_cell_angle_beta	89.998625
_cell_angle_gamma	114.122866
loop_
_atom_site_label
_atom_site_type_symbol
_atom_site_fract_x
_atom_site_fract_y
_atom_site_fract_z
O1	O	-1.606190	0.131886	-0.114133
O2	O	-1.234832	0.144461	-0.114167
O3	O	-1.492799	0.001515	-0.114150
O4	O	-1.348223	0.274832	-0.114150
O5	O	-1.492788	0.001511	0.114430
O6	O	-1.234821	0.144457	0.114413
O7	O	-1.606179	0.131883	0.114447
Zn8	Zn	-1.420499	0.138169	0.150722
Zn9	Zn	-1.420513	0.138174	-0.150442
O10	O	-1.348212	0.274828	0.114430
C11	C	-1.188460	0.143537	0.000118
C12	C	-1.050305	0.140779	0.000105
C13	C	-0.931475	0.224942	0.000107
C14	C	-0.801668	0.222345	0.000127
C15	C	-0.909538	0.051413	0.000138
C16	C	-1.039342	0.054011	0.000128
C17	C	-1.507920	-0.033484	0.000137
C18	C	-1.552977	-0.137764	0.000128
C19	C	-1.105350	-0.428471	0.000116
C20	C	-1.147720	-0.526460	0.000123
C21	C	-1.386036	-0.547351	0.000144
C22	C	-1.343687	-0.449361	0.000130
C23	C	-1.203342	-0.389928	0.000118
C24	C	-1.441679	-0.410818	0.000132
C25	C	-1.399333	-0.312837	0.000126
C26	C	-1.258994	-0.253398	0.000117
C27	C	-1.160996	-0.291947	0.000111
C28	C	-1.582023	-0.470252	0.000155
C29	C	-1.680015	-0.431710	0.000157
C30	C	-1.637669	-0.333727	0.000141
C31	C	-1.497331	-0.274288	0.000132
C32	C	-1.735668	-0.295178	0.000147
C33	C	-1.693321	-0.197197	0.000140
C34	C	-1.454985	-0.176306	0.000126
C35	C	-0.652549	0.132811	0.000152
C36	C	-0.790694	0.135583	0.000136
C37	C	-1.333091	0.309827	0.000140
C38	C	-1.288035	0.414107	0.000141
N39	N	-1.420499	0.138165	0.356258
N40	N	-1.420526	0.138171	-0.355978
C41	C	-1.534743	0.074896	0.428192
C42	C	-1.534755	0.074896	0.572075
C43	C	-1.306271	0.201444	0.572078
C44	C	-1.306256	0.201438	0.428198
H45	H	-1.136105	-0.014529	0.000130
C46	C	-1.660428	0.005302	0.651204
C47	C	-1.786098	-0.064279	0.572070
C48	C	-1.911775	-0.133877	0.651199
C49	C	-1.911782	-0.133896	0.809462
C50	C	-1.786107	-0.064313	0.888604
C51	C	-1.660430	0.005286	0.809475
H52	H	-1.786097	-0.064268	0.454907
H53	H	-2.004807	-0.185387	0.592612
H54	H	-2.004816	-0.185417	0.868038
H55	H	-1.786109	-0.064324	1.005768
H56	H	-1.567398	0.056796	0.868063
H57	H	-1.340702	-0.127912	0.000105
C58	C	-1.660400	0.005290	0.349058
C59	C	-1.707059	-0.101678	0.368857
C60	C	-1.832718	-0.171288	0.289728
C61	C	-1.911718	-0.133930	0.190800
C62	C	-1.865060	-0.026956	0.170997
C63	C	-1.739401	0.042654	0.250126
H64	H	-1.648578	-0.129337	0.442094
H65	H	-1.867257	-0.250477	0.304389
H66	H	-2.004738	-0.185459	0.132224
H67	H	-1.923541	0.000703	0.097760
H68	H	-1.704862	0.121843	0.235465
C69	C	-1.180614	0.271049	0.651212
C70	C	-1.180667	0.271118	0.809475
C71	C	-1.055009	0.340728	0.888604
C72	C	-0.929297	0.410269	0.809470
C73	C	-0.929239	0.410203	0.651198
C74	C	-1.054898	0.340593	0.572069
H75	H	-1.273731	0.219637	0.868062
H76	H	-1.055052	0.340776	1.005767
H77	H	-0.836276	0.461799	0.868046
H78	H	-0.836175	0.461684	0.592611
H79	H	-1.054854	0.340544	0.454906
H80	H	-0.940394	0.295594	0.000099
H81	H	-0.900594	-0.019230	0.000165
H82	H	-1.849936	-0.343582	0.000171
H83	H	-1.213219	0.252960	0.369625
H84	H	-0.704916	0.290880	0.000131
H85	H	-1.224518	-0.173615	0.000120
H86	H	-1.046714	-0.243552	0.000091
H87	H	-0.991068	-0.380076	0.000095
H88	H	-1.067912	-0.557836	0.000141
H89	H	-1.794284	-0.480113	0.000173
H90	H	-1.500305	-0.595754	0.000160
H91	H	-1.616497	-0.550035	0.000148
H92	H	-1.773117	-0.165815	0.000144
