data_functionalizedCrystal
_audit_creation_method	'MofGen! by Chris Wilmer'
_symmetry_space_group_name_H-M	'P1'
_symmetry_Int_Tables_number	1
_symmetry_cell_setting	triclinic
loop_
_symmetry_equiv_pos_as_xyz
  x,y,z
_cell_length_a	17.019311
_cell_length_b	17.038272
_cell_length_c	9.798715
_cell_angle_alpha	89.996584
_cell_angle_beta	86.116594
_cell_angle_gamma	87.245400
loop_
_atom_site_label
_atom_site_type_symbol
_atom_site_fract_x
_atom_site_fract_y
_atom_site_fract_z
O1	O	1.053363	0.099628	-0.237285
O2	O	1.553363	0.599628	0.262715
O3	O	0.824550	0.112322	-0.210398
O4	O	1.324550	0.612322	0.289602
O5	O	0.937597	-0.007839	-0.223671
O6	O	1.437597	0.492161	0.276329
O7	O	0.940316	0.219789	-0.224012
O8	O	1.440316	0.719789	0.275988
O9	O	0.937588	-0.007839	0.003312
O10	O	1.437588	0.492161	0.503312
O11	O	0.824541	0.112322	0.016585
O12	O	1.324541	0.612322	0.516585
O13	O	1.053354	0.099628	-0.010302
O14	O	1.553354	0.599628	0.489698
Zn15	Zn	0.938946	0.105975	0.039180
Zn16	Zn	1.438946	0.605975	0.539180
Zn17	Zn	0.938958	0.105975	-0.259880
Zn18	Zn	1.438958	0.605975	0.240120
O19	O	0.940307	0.219789	0.002971
O20	O	1.440307	0.719789	0.502971
C21	C	0.795124	0.111840	-0.093449
C22	C	1.295124	0.611840	0.406551
C23	C	0.707457	0.110393	-0.083147
C24	C	1.207457	0.610393	0.416853
C25	C	0.211627	0.102237	-0.018677
C26	C	0.711627	0.602237	0.481323
C27	C	0.293999	0.103596	-0.028359
C28	C	0.793999	0.603596	0.471641
C29	C	0.335191	0.104270	-0.156931
C30	C	0.835191	0.604270	0.343069
C31	C	0.294005	0.103592	-0.275829
C32	C	0.794005	0.603592	0.224171
C33	C	0.211634	0.102239	-0.266145
C34	C	0.711634	0.602239	0.233855
C35	C	0.583900	0.108362	-0.192360
C36	C	1.083900	0.608362	0.307640
C37	C	0.666277	0.109713	-0.202035
C38	C	1.166277	0.609713	0.297965
C39	C	0.666265	0.109718	0.045435
C40	C	1.166265	0.609718	0.545435
C41	C	0.583893	0.108360	0.055108
C42	C	1.083893	0.608360	0.555108
C43	C	0.542714	0.107687	-0.063789
C44	C	1.042714	0.607687	0.436211
C45	C	0.419389	0.105657	-0.166832
C46	C	0.919389	0.605657	0.333168
C47	C	0.458517	0.106305	-0.053888
C48	C	0.958517	0.606305	0.446112
C49	C	0.935118	-0.036965	-0.109889
C50	C	1.435118	0.463035	0.390111
C51	C	0.927738	-0.123752	-0.109022
C52	C	1.427738	0.376248	0.390978
C53	C	0.995498	-0.173923	-0.116983
C54	C	1.495498	0.326077	0.383017
C55	C	0.988559	-0.255467	-0.116181
C56	C	1.488559	0.244533	0.383819
C57	C	0.913859	-0.286840	-0.107407
C58	C	1.413859	0.213160	0.392593
C59	C	0.846094	-0.236663	-0.099450
C60	C	1.346094	0.263337	0.400550
C61	C	0.853034	-0.155120	-0.100262
C62	C	1.353034	0.344880	0.399738
C63	C	0.889341	-0.532578	-0.104545
C64	C	1.389341	-0.032578	0.395455
C65	C	0.882406	-0.614127	-0.103729
C66	C	1.382406	-0.114127	0.396271
C67	C	1.024872	-0.632926	-0.120462
C68	C	1.524872	-0.132926	0.379538
C69	C	1.031805	-0.551380	-0.121266
C70	C	1.531805	-0.051380	0.378734
C71	C	0.964040	-0.501211	-0.113316
C72	C	1.464040	-0.001211	0.386684
C73	C	0.906764	-0.370192	-0.106582
C74	C	1.406764	0.129808	0.393418
C75	C	0.971136	-0.417861	-0.114150
C76	C	1.471136	0.082139	0.385850
C77	C	1.082780	0.100110	-0.127254
C78	C	1.582780	0.600110	0.372746
C79	C	1.170447	0.101557	-0.137565
C80	C	1.670447	0.601557	0.362435
C81	C	0.942786	0.248915	-0.110814
C82	C	1.442786	0.748915	0.389186
C83	C	0.950166	0.335702	-0.111690
C84	C	1.450166	0.835702	0.388310
N85	N	0.938944	0.105974	0.243280
N86	N	1.438944	0.605974	0.743280
N87	N	0.938966	0.105970	-0.463981
N88	N	1.438966	0.605970	0.036019
C89	C	0.986396	0.055301	0.305485
C90	C	1.486396	0.555301	0.805485
C91	C	0.986408	0.055299	0.462647
C92	C	1.486408	0.555299	0.962647
H93	H	0.327524	0.104148	0.068452
H94	H	0.827524	0.604148	0.568452
H95	H	0.898324	0.149352	0.306374
H96	H	1.398324	0.649352	0.806374
F97	F	1.039337	-0.001540	0.223041
F98	F	1.539337	0.498460	0.723041
H99	H	0.178094	0.101691	0.086020
H100	H	0.678094	0.601691	0.586020
F101	F	0.540058	0.107657	0.191952
F102	F	1.040058	0.607657	0.691952
H103	H	1.031956	-0.392313	-0.121323
H104	H	1.531956	0.107687	0.378677
F105	F	0.827264	-0.403588	-0.097251
F106	F	1.327264	0.096412	0.402749
F107	F	0.710096	0.110439	0.171965
F108	F	1.210096	0.610439	0.671965
F109	F	1.039515	-0.001404	0.532591
F110	F	1.539515	0.498596	1.032591
F111	F	0.766591	-0.270054	-0.090128
F112	F	1.266591	0.229946	0.409872
H113	H	0.327550	0.104146	-0.380515
H114	H	0.827550	0.604146	0.119485
H115	H	1.043737	-0.296314	-0.122660
H116	H	1.543737	0.203686	0.377340
F117	F	0.540085	0.107642	-0.318903
F118	F	1.040085	0.607642	0.181097
F119	F	0.710115	0.110431	-0.338885
F120	F	1.210115	0.610431	0.161115
H121	H	0.178106	0.101687	-0.362956
H122	H	0.678106	0.601687	0.137044
F123	F	0.885865	0.162682	0.466083
F124	F	1.385865	0.662682	0.966083
H125	H	0.424975	0.105761	0.050795
H126	H	0.924975	0.605761	0.550795
H127	H	1.056327	-0.148386	-0.124119
H128	H	1.556327	0.351614	0.375881
F129	F	0.463236	0.106366	-0.303664
F130	F	0.963236	0.606366	0.196336
F131	F	1.111311	-0.517998	-0.130638
F132	F	1.611311	-0.017998	0.369362
H133	H	1.080042	-0.673782	-0.126938
H134	H	1.580042	-0.173782	0.373062
F135	F	0.802896	-0.647514	-0.094384
F136	F	1.302896	-0.147514	0.405616
F137	F	0.817218	-0.479193	-0.096087
F138	F	1.317218	0.020807	0.403913
H139	H	0.797856	-0.114271	-0.093780
H140	H	1.297856	0.385729	0.406220
