data_functionalizedCrystal
_audit_creation_method	'MofGen! by Chris Wilmer'
_symmetry_space_group_name_H-M	'P1'
_symmetry_Int_Tables_number	1
_symmetry_cell_setting	triclinic
loop_
_symmetry_equiv_pos_as_xyz
  x,y,z
_cell_length_a	14.446369
_cell_length_b	14.809374
_cell_length_c	14.809374
_cell_angle_alpha	60.797835
_cell_angle_beta	90.000875
_cell_angle_gamma	67.424702
loop_
_atom_site_label
_atom_site_type_symbol
_atom_site_fract_x
_atom_site_fract_y
_atom_site_fract_z
Zr1	Zr	1.022484	0.955154	-0.203635
O2	O	0.909089	1.113080	-0.350799
O3	O	1.041192	0.777387	-0.145558
O4	O	1.079057	0.926533	-0.332096
O5	O	0.859616	0.993431	-0.031862
O6	O	1.231393	0.926526	-0.332090
O7	O	0.871223	0.963934	-0.164260
O8	O	1.163658	0.659731	0.001593
O9	O	0.927351	1.260225	-0.365546
O10	O	1.182252	0.857849	-0.136447
O11	O	1.059904	0.879866	-0.037644
O12	O	1.104485	1.055466	-0.257269
O13	O	0.982137	1.077484	-0.158467
Zr14	Zr	1.246929	1.002186	0.007533
Zr15	Zr	1.265442	0.955143	-0.203626
Zr16	Zr	1.003971	1.002197	0.007524
Zr17	Zr	1.051609	1.189834	-0.227155
Zr18	Zr	1.217804	0.767507	0.031053
O19	O	1.228221	1.179954	-0.050545
O20	O	1.254544	1.113064	-0.350786
O21	O	0.882767	1.179970	-0.050558
O22	O	1.360324	0.844260	0.154696
O23	O	1.386646	0.777371	-0.145545
O24	O	1.014869	0.844276	0.154683
O25	O	1.409797	0.963910	-0.164240
O26	O	1.190356	1.030808	0.135994
O27	O	1.038020	1.030815	0.135988
O28	O	1.398190	0.993406	-0.031842
O29	O	1.120470	1.260217	-0.365539
O30	O	1.148943	0.697124	0.169436
O31	O	1.342062	0.697115	0.169443
O32	O	1.356777	0.659722	0.001600
O33	O	0.912636	1.297618	-0.197703
O34	O	1.105755	1.297610	-0.197695
O35	O	1.164927	0.901874	0.061167
O36	O	1.287276	0.879856	-0.037636
O37	O	1.209509	1.077474	-0.158458
O38	O	1.087161	1.099492	-0.059656
C39	C	1.098275	0.685122	-0.068631
C40	C	1.085911	0.585494	-0.058646
C41	C	1.141092	0.530155	-0.103208
C42	C	1.128314	0.427184	-0.092889
C43	C	0.830803	0.978684	-0.098063
C44	C	0.727661	0.978689	-0.098066
C45	C	0.531918	1.103382	-0.173954
C46	C	0.639192	1.103398	-0.174312
C47	C	0.719784	0.899758	-0.136626
C48	C	0.612164	0.900535	-0.137169
C49	C	0.599720	0.931869	0.016567
C50	C	0.706028	0.934442	0.016136
C51	C	1.438610	0.978656	-0.098040
C52	C	1.541752	0.978652	-0.098036
C53	C	1.157863	0.919826	-0.362179
C54	C	1.165722	0.899855	-0.451821
C55	C	1.171138	1.272218	-0.127471
C56	C	1.183502	1.371846	-0.137456
C57	C	1.130648	0.988984	-0.551723
C58	C	1.138770	0.968345	-0.644374
C59	C	1.111550	1.037514	0.166076
C60	C	1.103691	1.057485	0.255719
C61	C	1.402178	0.685108	-0.068620
C62	C	1.492956	0.585476	-0.058631
C63	C	1.075119	0.743966	0.195496
C64	C	1.054895	0.664309	0.295124
C65	C	1.379022	0.743952	0.195508
C66	C	1.461941	0.664291	0.295139
C67	C	0.890391	1.213389	-0.391610
C68	C	0.807472	1.293050	-0.491241
C69	C	0.867235	1.272232	-0.127483
C70	C	0.776457	1.371865	-0.137471
C71	C	1.194294	1.213375	-0.391599
C72	C	1.214518	1.293031	-0.491226
C73	C	1.480765	0.527198	-0.105528
C74	C	1.566055	0.433591	-0.096163
C75	C	1.663532	0.398259	-0.039895
C76	C	1.675721	0.456547	0.007002
C77	C	1.590434	0.550157	-0.002370
C78	C	1.100219	0.638391	0.393497
C79	C	1.081213	0.563561	0.487114
C80	C	1.016890	0.514642	0.482357
C81	C	0.971561	0.540567	0.383973
C82	C	0.990561	0.615403	0.290357
C83	C	1.564755	0.615388	0.290353
C84	C	1.642677	0.540549	0.383958
C85	C	1.617782	0.514608	0.482348
C86	C	1.514958	0.563519	0.487131
C87	C	1.437038	0.638363	0.393527
C88	C	0.704659	1.341964	-0.486456
C89	C	0.626741	1.416832	-0.580064
C90	C	0.651636	1.442778	-0.678455
C91	C	0.754460	1.393860	-0.683238
C92	C	0.832377	1.319000	-0.589632
C93	C	0.788650	1.430151	-0.090585
C94	C	0.703366	1.523778	-0.099975
C95	C	0.605889	1.559112	-0.156246
C96	C	0.593699	1.500821	-0.203139
C97	C	0.678983	1.407201	-0.193754
C98	C	1.278846	1.341927	-0.486434
C99	C	1.297868	1.416762	-0.580035
C100	C	1.252555	1.442706	-0.678428
C101	C	1.188223	1.393802	-0.683218
C102	C	1.169208	1.318962	-0.589617
H103	H	1.071610	0.398333	-0.047093
N104	N	0.642384	1.183917	-0.141116
H105	H	0.712231	1.184086	-0.141293
H106	H	0.629710	1.157168	-0.067247
N107	N	1.552895	0.370736	-0.146750
H108	H	1.478199	0.407322	-0.183805
H109	H	1.574708	0.287313	-0.089980
N110	N	1.258626	0.410041	-0.198108
H111	H	1.257110	0.478183	-0.196882
H112	H	1.238624	0.432784	-0.274141
H113	H	1.029211	0.556638	-0.012854
N114	N	1.213466	0.778536	-0.429376
H115	H	1.235759	0.721892	-0.349977
H116	H	1.275349	0.766325	-0.461616
N117	N	1.375635	0.565291	-0.166217
H118	H	1.380870	0.514161	-0.194502
H119	H	1.349049	0.647713	-0.227484
N120	N	1.591613	0.643372	0.184235
H121	H	1.555301	0.618781	0.148620
H122	H	1.668584	0.601033	0.195499
H123	H	0.536453	1.635346	-0.163879
H124	H	1.732970	0.322034	-0.032272
H125	H	1.001428	0.453708	0.558593
H126	H	1.197799	0.559003	-0.148993
H127	H	1.353323	0.678171	0.397439
N128	N	1.169600	0.691139	0.398653
H129	H	1.140020	0.738272	0.431961
H130	H	1.174749	0.742426	0.324401
H131	H	0.919188	0.500727	0.380115
H132	H	0.916091	1.279172	-0.593540
N133	N	0.465865	1.184373	-0.140998
H134	H	0.441667	1.141002	-0.076540
H135	H	0.404208	1.249135	-0.201377
N136	N	0.677792	1.313985	-0.380342
H137	H	0.600834	1.356343	-0.391531
H138	H	0.714183	1.338552	-0.344776
N139	N	1.099817	1.266238	-0.594804
H140	H	1.028933	1.329388	-0.639182
H141	H	1.094719	1.214877	-0.520552
N142	N	0.477175	1.151789	-0.285570
H143	H	0.458713	1.093276	-0.287171
H144	H	0.523944	1.170042	-0.335417
H145	H	0.953654	0.636493	0.210262
N146	N	1.082899	1.110307	-0.574179
H147	H	1.123495	1.152174	-0.616385
H148	H	1.083865	1.107761	-0.504769
H149	H	1.350249	1.456574	-0.576115
N150	N	0.893776	1.392069	-0.029898
H151	H	0.942795	1.397816	-0.078837
H152	H	0.920335	1.309682	0.031431
N153	N	1.130112	0.535604	0.593219
H154	H	1.173751	0.577942	0.582020
H155	H	1.174847	0.449918	0.639837
H156	H	1.726396	0.500730	0.380044
N157	N	0.515845	1.469582	-0.574892
H158	H	0.511904	1.441771	-0.498355
H159	H	0.473889	1.446017	-0.605965
N160	N	0.716526	1.586636	-0.049393
H161	H	0.791218	1.550032	-0.012315
H162	H	0.672333	1.581906	0.004088
H163	H	1.067650	1.149078	-0.761227
H164	H	1.755099	0.427766	0.052814
H165	H	0.650440	1.140043	-0.259065
N166	N	1.701821	0.433864	0.583310
H167	H	1.702369	0.475459	0.620596
H168	H	1.770686	0.406835	0.565263
H169	H	1.494702	0.542387	0.567253
H170	H	0.669040	1.359746	-0.231933
N171	N	1.603588	0.613010	0.048216
H172	H	1.631215	0.557653	0.127526
H173	H	1.534743	0.677675	0.033664
N174	N	0.488554	1.538927	-0.263808
H175	H	0.490589	1.561701	-0.339861
H176	H	0.436447	1.607040	-0.262538
H177	H	0.622497	0.808298	-0.084721
H178	H	0.588181	1.503735	-0.754667
H179	H	1.315749	1.320817	-0.406327
H180	H	0.774719	1.414995	-0.763359
H181	H	1.268046	1.503648	-0.754636
N182	N	1.139349	1.421792	-0.789344
H183	H	1.195024	1.397205	-0.824952
H184	H	1.094560	1.507471	-0.835916
N185	N	0.562694	0.941956	-0.248454
H186	H	0.610863	0.959541	-0.296697
H187	H	0.495979	1.013941	-0.275563
H188	H	0.781634	0.807430	-0.083407
H189	H	1.174816	0.876753	-0.627430
H190	H	0.551869	0.984660	0.050097
N191	N	0.739550	0.939932	-0.246780
H192	H	0.801197	0.875922	-0.245017
H193	H	0.753575	1.009227	-0.271808
N194	N	0.709648	1.010904	0.054470
H195	H	0.725238	1.073944	-0.001896
H196	H	0.765277	0.963490	0.121974
H197	H	0.768245	0.844488	0.076377
H198	H	0.610421	0.840152	0.073234
