data_functionalizedCrystal
_audit_creation_method	'MofGen! by Chris Wilmer'
_symmetry_space_group_name_H-M	'P1'
_symmetry_Int_Tables_number	1
_symmetry_cell_setting	triclinic
loop_
_symmetry_equiv_pos_as_xyz
  x,y,z
_cell_length_a	12.759395
_cell_length_b	12.594516
_cell_length_c	12.759387
_cell_angle_alpha	90.030166
_cell_angle_beta	90.020509
_cell_angle_gamma	90.013352
loop_
_atom_site_label
_atom_site_type_symbol
_atom_site_fract_x
_atom_site_fract_y
_atom_site_fract_z
Zn1	Zn	1.606290	-0.423642	0.594010
Zn2	Zn	1.606189	-0.601660	0.418332
Zn3	Zn	1.430588	-0.423700	0.418347
Zn4	Zn	1.430589	-0.601584	0.593971
O5	O	1.518414	-0.512647	0.506165
O6	O	1.753297	-0.447264	0.570716
O7	O	1.582853	-0.578109	0.271313
O8	O	1.453937	-0.274747	0.441671
O9	O	1.753224	-0.578053	0.441646
O10	O	1.583024	-0.274704	0.570730
O11	O	1.453839	-0.447363	0.271323
O12	O	1.283567	-0.447290	0.441634
O13	O	1.453939	-0.577924	0.740998
O14	O	1.283568	-0.577980	0.570664
O15	O	1.583025	-0.447191	0.741026
O16	O	1.582854	-0.750595	0.441609
O17	O	1.453841	-0.750540	0.570650
C18	C	1.245447	-0.512634	0.506147
C19	C	1.128670	-0.512654	0.506164
C20	C	1.518365	-0.789188	0.506147
C21	C	1.518441	-0.907493	0.506174
C22	C	1.128709	-0.648962	0.640306
C23	C	1.073868	-0.717124	0.707380
C24	C	0.964147	-0.717137	0.707393
C25	C	0.909264	-0.648978	0.640327
C26	C	0.964105	-0.580816	0.573253
C27	C	1.073829	-0.580812	0.573245
C28	C	0.964065	-0.444504	0.439118
C29	C	1.073787	-0.444495	0.439098
C30	C	0.909182	-0.376345	0.372051
C31	C	0.964023	-0.308186	0.304970
C32	C	1.073751	-0.308177	0.304959
C33	C	1.128628	-0.376332	0.372024
C34	C	1.588692	-0.976738	0.436063
C35	C	1.614370	-1.047430	0.531956
C36	C	1.492894	-1.047600	0.410342
C37	C	1.544167	-0.976627	0.602117
C38	C	1.422647	-0.976791	0.480438
C39	C	1.448289	-1.047451	0.576397
C40	C	1.792447	-0.512660	0.506184
C41	C	1.909224	-0.512666	0.506192
C42	C	1.518493	-0.512542	0.780199
C43	C	1.518527	-0.512498	0.896975
C44	C	1.518491	-0.235026	0.506206
C45	C	1.518525	-0.116720	0.506224
C46	C	1.518395	-0.512674	0.233197
C47	C	1.518565	-0.512418	0.116421
C48	C	1.652954	-0.376374	0.897025
C49	C	1.720182	-0.308297	0.951910
C50	C	1.720208	-0.308258	1.061632
C51	C	1.652996	-0.376302	1.116470
C52	C	1.585768	-0.444380	1.061585
C53	C	1.585752	-0.444413	0.951861
C54	C	1.451337	-0.580496	1.061536
C55	C	1.451315	-0.580542	0.951814
C56	C	1.384125	-0.648540	1.116375
C57	C	1.316901	-0.716624	1.061489
C58	C	1.316879	-0.716661	0.951761
C59	C	1.384087	-0.648619	0.896929
H60	H	1.118566	-0.772616	0.761986
C61	C	1.667745	-0.935268	0.356937
C62	C	1.615832	-0.874257	0.281332
C63	C	1.688620	-0.836050	0.208423
H64	H	1.718302	-0.892601	0.391811
H65	H	1.701766	-0.993413	0.323875
H66	H	1.581828	-0.816121	0.314390
H67	H	1.565280	-0.916902	0.246432
H68	H	1.722641	-0.894194	0.175361
H69	H	1.739174	-0.793387	0.243306
H70	H	1.653407	-0.794658	0.157111
H71	H	1.695416	-1.078461	0.553752
H72	H	1.384147	-0.648499	1.205716
C73	C	0.790055	-0.376161	0.371945
C74	C	0.753733	-0.301866	0.298877
C75	C	0.643999	-0.301657	0.298756
H76	H	0.765085	-0.444762	0.353616
H77	H	0.765226	-0.357795	0.439761
H78	H	0.778551	-0.320238	0.231076
H79	H	0.778674	-0.233255	0.317189
H80	H	0.619170	-0.283291	0.366571
H81	H	0.619039	-0.370262	0.280429
H82	H	0.619340	-0.251243	0.249187
C83	C	1.133100	-0.234132	0.232015
C84	C	1.061547	-0.174471	0.173272
C85	C	1.116176	-0.106261	0.106052
H86	H	1.175936	-0.187710	0.272160
H87	H	1.175848	-0.274764	0.186102
H88	H	1.018817	-0.133842	0.219179
H89	H	1.018708	-0.220865	0.133105
H90	H	1.158924	-0.146893	0.060139
H91	H	1.159010	-0.059845	0.146206
H92	H	1.067636	-0.065779	0.066181
C93	C	1.653052	-0.376228	0.777898
C94	C	1.726283	-0.302057	0.741620
C95	C	1.726395	-0.301882	0.631886
H96	H	1.671225	-0.444865	0.752940
H97	H	1.585275	-0.357766	0.753026
H98	H	1.794045	-0.320525	0.766481
H99	H	1.708127	-0.233410	0.766549
H100	H	1.658618	-0.283419	0.607015
H101	H	1.744566	-0.370522	0.606938
H102	H	1.776074	-0.251551	0.607258
H103	H	1.565729	-0.945584	0.683251
H104	H	0.919329	-0.252692	0.250375
C105	C	1.314671	-0.935165	0.451416
C106	C	1.315846	-0.824009	0.452746
C107	C	1.216394	-0.785625	0.426019
H108	H	1.296481	-0.959310	0.383254
H109	H	1.264600	-0.960372	0.500565
H110	H	1.365901	-0.798812	0.403600
H111	H	1.334017	-0.799835	0.520900
H112	H	1.166322	-0.810832	0.475167
H113	H	1.198212	-0.809777	0.357857
H114	H	1.217175	-0.710203	0.426927
C115	C	1.368968	-1.088455	0.655490
C116	C	1.269048	-1.051058	0.629150
C117	C	1.195960	-1.088801	0.701995
H118	H	1.368885	-1.163872	0.654733
H119	H	1.387245	-1.063988	0.723532
H120	H	1.250775	-1.075531	0.561126
H121	H	1.269097	-0.975645	0.629913
H122	H	1.214237	-1.064334	0.770037
H123	H	1.195887	-1.164217	0.701233
H124	H	1.128158	-1.063425	0.684139
C125	C	1.383960	-0.648866	0.777802
C126	C	1.310724	-0.723069	0.741467
C127	C	1.310595	-0.723337	0.631733
H128	H	1.365783	-0.580251	0.752848
H129	H	1.451733	-0.667349	0.752964
H130	H	1.242966	-0.704581	0.766294
H131	H	1.328885	-0.791695	0.766392
H132	H	1.378368	-0.741820	0.606896
H133	H	1.292420	-0.654719	0.606790
H134	H	1.260913	-0.773690	0.607066
H135	H	1.471253	-1.078774	0.329278
C136	C	1.793025	-0.234250	0.892423
C137	C	1.770179	-0.128923	0.919105
C138	C	1.837248	-0.060681	0.864319
H139	H	1.863650	-0.249693	0.910368
H140	H	1.783375	-0.243952	0.819206
H141	H	1.779837	-0.119226	0.992305
H142	H	1.699566	-0.113447	0.901157
H143	H	1.827599	-0.070383	0.791102
H144	H	1.907870	-0.076134	0.882268
H145	H	1.821751	0.010790	0.882407
C146	C	0.904409	-0.791024	0.780175
C147	C	0.796574	-0.776423	0.765844
C148	C	0.741512	-0.844459	0.832881
H149	H	0.922244	-0.862562	0.764740
H150	H	0.922360	-0.775526	0.850816
H151	H	0.778631	-0.791929	0.695219
H152	H	0.778708	-0.704900	0.781287
H153	H	0.759463	-0.828960	0.903522
H154	H	0.759356	-0.915992	0.817440
H155	H	0.668341	-0.834554	0.823173
C156	C	1.793021	-0.234214	1.121283
C157	C	1.733567	-0.165950	1.184261
C158	C	1.800605	-0.097718	1.239216
H159	H	1.838811	-0.274801	1.164171
H160	H	1.833026	-0.193631	1.072947
H161	H	1.693580	-0.206530	1.232591
H162	H	1.687780	-0.125340	1.141400
H163	H	1.840610	-0.057135	1.190880
H164	H	1.846391	-0.138314	1.282097
H165	H	1.760275	-0.051387	1.281945
C166	C	1.247754	-0.376203	0.371822
C167	C	1.284041	-0.301940	0.298713
C168	C	1.393774	-0.301803	0.298494
H169	H	1.272737	-0.357848	0.439591
H170	H	1.272596	-0.444846	0.353476
H171	H	1.259210	-0.233313	0.317065
H172	H	1.259087	-0.320279	0.230934
H173	H	1.418616	-0.370445	0.280149
H174	H	1.418746	-0.283449	0.366266
H175	H	1.418409	-0.251424	0.248884
H176	H	1.653014	-0.376255	1.205812
H177	H	1.262177	-0.772014	1.106147
C178	C	1.244025	-0.790760	0.892224
C179	C	1.266892	-0.896063	0.918885
C180	C	1.199814	-0.964355	0.864052
H181	H	1.173403	-0.775312	0.910145
H182	H	1.253650	-0.781113	0.819014
H183	H	1.257258	-0.905705	0.992078
H184	H	1.337502	-0.911544	0.900961
H185	H	1.209439	-0.954708	0.790842
H186	H	1.129196	-0.948898	0.881978
H187	H	1.215326	-1.035811	0.882126
H188	H	1.218050	-0.648966	0.640295
H189	H	0.819922	-0.648985	0.640353
