data_functionalizedCrystal
_audit_creation_method	'MofGen! by Chris Wilmer'
_symmetry_space_group_name_H-M	'P1'
_symmetry_Int_Tables_number	1
_symmetry_cell_setting	triclinic
loop_
_symmetry_equiv_pos_as_xyz
  x,y,z
_cell_length_a	19.188905
_cell_length_b	19.188940
_cell_length_c	17.666332
_cell_angle_alpha	89.993076
_cell_angle_beta	89.983521
_cell_angle_gamma	83.141635
loop_
_atom_site_label
_atom_site_type_symbol
_atom_site_fract_x
_atom_site_fract_y
_atom_site_fract_z
O1	O	0.926164	0.087085	-0.063074
O2	O	1.259497	0.420418	0.270260
O3	O	1.592830	0.753752	0.603593
O4	O	0.722850	0.098838	-0.063048
O5	O	1.056184	0.432171	0.270285
O6	O	1.389517	0.765504	0.603619
O7	O	0.830371	-0.008694	-0.063056
O8	O	1.163704	0.324639	0.270278
O9	O	1.497037	0.657972	0.603611
O10	O	0.818643	0.194617	-0.063066
O11	O	1.151977	0.527950	0.270267
O12	O	1.485310	0.861284	0.603601
O13	O	0.830352	-0.008700	0.062841
O14	O	1.163685	0.324633	0.396174
O15	O	1.497019	0.657967	0.729508
O16	O	0.722832	0.098832	0.062849
O17	O	1.056165	0.432165	0.396182
O18	O	1.389498	0.765499	0.729515
O19	O	0.926145	0.087080	0.062823
O20	O	1.259478	0.420413	0.396156
O21	O	1.592812	0.753746	0.729490
Cu22	Cu	0.824487	0.092955	0.074331
Cu23	Cu	1.157820	0.426289	0.407665
Cu24	Cu	1.491153	0.759622	0.740998
Cu25	Cu	0.824509	0.092962	-0.074556
Cu26	Cu	1.157842	0.426295	0.258777
Cu27	Cu	1.491175	0.759629	0.592110
O28	O	0.818625	0.194611	0.062831
O29	O	1.151958	0.527945	0.396164
O30	O	1.485291	0.861278	0.729497
C31	C	0.696830	0.098457	-0.000096
C32	C	1.030163	0.431790	0.333237
C33	C	1.363496	0.765124	0.666570
C34	C	0.619324	0.097323	-0.000086
C35	C	0.952658	0.430657	0.333247
C36	C	1.285991	0.763990	0.666580
C37	C	0.582943	0.096782	-0.068715
C38	C	0.916276	0.430115	0.264619
C39	C	1.249609	0.763449	0.597952
C40	C	0.510119	0.095709	-0.068724
C41	C	0.843452	0.429042	0.264609
C42	C	1.176786	0.762376	0.597943
C43	C	0.473682	0.095163	-0.000101
C44	C	0.807015	0.428497	0.333232
C45	C	1.140348	0.761830	0.666566
C46	C	0.510071	0.095709	0.068536
C47	C	0.843405	0.429042	0.401870
C48	C	1.176738	0.762376	0.735203
C49	C	0.582893	0.096789	0.068544
C50	C	0.916226	0.430122	0.401877
C51	C	1.249559	0.763456	0.735210
N52	N	0.364652	0.053733	0.050970
N53	N	0.697986	0.387066	0.384304
N54	N	1.031319	0.720399	0.717637
N55	N	0.295475	0.052705	0.050959
N56	N	0.628808	0.386038	0.384292
N57	N	0.962142	0.719372	0.717625
C58	C	0.254275	0.091911	-0.000119
C59	C	0.587608	0.425244	0.333214
C60	C	0.920941	0.758577	0.666547
N61	N	0.284866	0.132174	-0.051196
N62	N	0.618199	0.465507	0.282137
N63	N	0.951533	0.798841	0.615470
N64	N	0.354050	0.133198	-0.051187
N65	N	0.687383	0.466532	0.282146
N66	N	1.020716	0.799865	0.615480
C67	C	0.394719	0.093993	-0.000101
C68	C	0.728052	0.427326	0.333232
C69	C	1.061386	0.760659	0.666565
C70	C	0.138929	0.090207	-0.068762
C71	C	0.472263	0.423540	0.264571
C72	C	0.805596	0.756873	0.597904
C73	C	0.066104	0.089138	-0.068769
C74	C	0.399437	0.422471	0.264564
C75	C	0.732770	0.755805	0.597898
C76	C	0.066058	0.089131	0.068493
C77	C	0.399392	0.422464	0.401827
C78	C	0.732725	0.755798	0.735160
C79	C	0.138882	0.090207	0.068498
C80	C	0.472215	0.423540	0.401831
C81	C	0.805548	0.756873	0.735164
C82	C	0.175313	0.090741	-0.000132
C83	C	0.508647	0.424075	0.333201
C84	C	0.841980	0.757408	0.666535
C85	C	0.829980	-0.034708	-0.000108
C86	C	1.163314	0.298625	0.333226
C87	C	1.496647	0.631959	0.666559
C88	C	0.828837	-0.112212	-0.000108
C89	C	1.162170	0.221121	0.333226
C90	C	1.495504	0.554455	0.666559
C91	C	0.820692	-0.665474	0.068502
C92	C	1.154025	-0.332140	0.401835
C93	C	1.487359	0.001193	0.735168
C94	C	0.821759	-0.592649	0.068506
C95	C	1.155092	-0.259316	0.401839
C96	C	1.488425	0.074017	0.735172
C97	C	0.822306	-0.556227	-0.000120
C98	C	1.155639	-0.222893	0.333214
C99	C	1.488972	0.110440	0.666547
C100	C	0.821768	-0.592632	-0.068754
C101	C	1.155101	-0.259299	0.264579
C102	C	1.488435	0.074035	0.597912
C103	C	0.820694	-0.665454	-0.068757
C104	C	1.154027	-0.332121	0.264577
C105	C	1.487361	0.001213	0.597910
N106	N	0.863730	-0.447204	-0.051204
N107	N	1.197063	-0.113871	0.282129
N108	N	1.530397	0.219462	0.615462
N109	N	0.864752	-0.378027	-0.051198
N110	N	1.198085	-0.044693	0.282136
N111	N	1.531418	0.288640	0.615469
C112	C	0.825539	-0.336818	-0.000118
C113	C	1.158873	-0.003484	0.333216
C114	C	1.492206	0.329849	0.666549
N115	N	0.785276	-0.367401	0.050967
N116	N	1.118609	-0.034068	0.384301
N117	N	1.451943	0.299265	0.717634
N118	N	0.784257	-0.436586	0.050963
N119	N	1.117591	-0.103252	0.384296
N120	N	1.450924	0.230081	0.717629
C121	C	0.823470	-0.477263	-0.000125
C122	C	1.156803	-0.143930	0.333208
C123	C	1.490136	0.189403	0.666542
C124	C	0.827229	-0.221456	0.068517
C125	C	1.160562	0.111877	0.401851
C126	C	1.493896	0.445211	0.735184
C127	C	0.828291	-0.148630	0.068518
C128	C	1.161625	0.184704	0.401852
C129	C	1.494958	0.518037	0.735185
C130	C	0.828307	-0.148615	-0.068744
C131	C	1.161641	0.184718	0.264590
C132	C	1.494974	0.518052	0.597923
C133	C	0.827238	-0.221439	-0.068743
C134	C	1.160571	0.111894	0.264590
C135	C	1.493905	0.445228	0.597924
C136	C	0.826702	-0.257856	-0.000110
C137	C	1.160035	0.075478	0.333223
C138	C	1.493369	0.408811	0.666556
C139	C	0.952166	0.087460	-0.000130
C140	C	1.285499	0.420793	0.333203
C141	C	1.618832	0.754127	0.666536
C142	C	1.029671	0.088594	-0.000145
C143	C	1.363004	0.421927	0.333188
C144	C	1.696338	0.755260	0.666521
C145	C	0.819015	0.220625	-0.000119
C146	C	1.152348	0.553958	0.333214
C147	C	1.485682	0.887292	0.666548
C148	C	0.820158	0.298129	-0.000124
C149	C	1.153492	0.631463	0.333209
C150	C	1.486825	0.964796	0.666543
N151	N	0.824476	0.092950	0.179051
N152	N	1.157809	0.426283	0.512384
N153	N	1.491143	0.759617	0.845717
N154	N	0.824525	0.092962	-0.179276
N155	N	1.157858	0.426295	0.154058
N156	N	1.491192	0.759628	0.487391
C157	C	0.872101	0.045358	0.218657
C158	C	1.205435	0.378691	0.551990
C159	C	1.538768	0.712025	0.885324
C160	C	0.872105	0.045355	0.297905
C161	C	1.205439	0.378688	0.631238
C162	C	1.538772	0.712021	0.964571
C163	C	0.824491	0.092955	0.337543
C164	C	1.157824	0.426289	0.670876
C165	C	1.491157	0.759622	1.004210
C166	C	0.776857	0.140551	0.297927
C167	C	1.110190	0.473884	0.631260
C168	C	1.443523	0.807218	0.964594
C169	C	0.776849	0.140548	0.218681
C170	C	1.110182	0.473882	0.552014
C171	C	1.443516	0.807215	0.885348
N172	N	0.815417	0.154763	0.461959
N173	N	1.148750	0.488097	0.795292
N174	N	1.482083	0.821430	1.128626
N175	N	0.815428	0.154763	0.537240
N176	N	1.148761	0.488097	0.870573
N177	N	1.482094	0.821430	1.203906
C178	C	0.824509	0.092965	0.576307
C179	C	1.157842	0.426298	0.909640
C180	C	1.491176	0.759632	1.242974
N181	N	0.833593	0.031164	0.537250
N182	N	1.166926	0.364498	0.870583
N183	N	1.500259	0.697831	1.203916
N184	N	0.833585	0.031165	0.461962
N185	N	1.166918	0.364498	0.795296
N186	N	1.500252	0.697831	1.128629
C187	C	0.824493	0.092963	0.423472
C188	C	1.157827	0.426297	0.756805
C189	C	1.491160	0.759630	1.090139
C190	C	0.872142	0.045366	0.701842
C191	C	1.205475	0.378699	1.035176
C192	C	1.538808	0.712032	1.368509
C193	C	0.872141	0.045361	0.781091
C194	C	1.205474	0.378695	1.114425
C195	C	1.538807	0.712028	1.447758
C196	C	0.776895	0.140563	0.781112
C197	C	1.110228	0.473897	1.114446
C198	C	1.443562	0.807230	1.447779
C199	C	0.776893	0.140562	0.701865
C200	C	1.110226	0.473895	1.035198
C201	C	1.443559	0.807228	1.368532
C202	C	0.824520	0.092964	0.662235
C203	C	1.157853	0.426297	0.995568
C204	C	1.491186	0.759630	1.328901
H205	H	0.480491	0.095269	-0.124611
H206	H	0.813824	0.428602	0.208722
H207	H	1.147158	0.761936	0.542056
O208	O	0.470733	0.095458	0.142553
O209	O	0.804066	0.428791	0.475886
O210	O	1.137399	0.762125	0.809219
H211	H	0.413967	0.094733	0.131018
H212	H	0.747300	0.428066	0.464352
H213	H	1.080634	0.761399	0.797685
H214	H	0.910889	0.006598	0.330158
H215	H	1.244222	0.339931	0.663491
H216	H	1.577556	0.673265	0.996825
O217	O	0.725560	0.191925	0.823858
O218	O	1.058894	0.525259	1.157192
O219	O	1.392227	0.858592	1.490525
H220	H	0.692448	0.225027	0.783000
H221	H	1.025781	0.558360	1.116333
H222	H	1.359114	0.891693	1.449666
O223	O	0.828864	-0.109367	0.142540
O224	O	1.162197	0.223966	0.475873
O225	O	1.495530	0.557300	0.809206
H226	H	0.876926	-0.082554	0.145806
H227	H	1.210259	0.250780	0.479139
H228	H	1.543592	0.584113	0.812472
H229	H	0.826787	-0.251107	0.124402
H230	H	1.160120	0.082226	0.457735
H231	H	1.493453	0.415559	0.791069
H232	H	0.828744	-0.118959	-0.124620
H233	H	1.162078	0.214374	0.208713
H234	H	1.495411	0.547707	0.542047
H235	H	0.168592	0.090649	-0.124645
H236	H	0.501926	0.423983	0.208688
H237	H	0.835259	0.757316	0.542022
H238	H	0.036482	0.088701	-0.124657
H239	H	0.369816	0.422035	0.208677
H240	H	0.703149	0.755368	0.542010
O241	O	0.822354	-0.553354	-0.142775
O242	O	1.155688	-0.220021	0.190558
O243	O	1.489021	0.113313	0.523892
H244	H	0.870424	-0.526554	-0.146073
H245	H	1.203758	-0.193220	0.187261
H246	H	1.537091	0.140113	0.520594
O247	O	0.820120	-0.704713	-0.142780
O248	O	1.153453	-0.371379	0.190553
O249	O	1.486786	-0.038046	0.523886
H250	H	0.819278	-0.761468	-0.131252
H251	H	1.152612	-0.428135	0.202081
H252	H	1.485945	-0.094802	0.535415
O253	O	0.622238	0.097364	-0.142733
O254	O	0.955571	0.430697	0.190600
O255	O	1.288904	0.764031	0.523934
H256	H	0.601899	0.144737	-0.175643
H257	H	0.935232	0.478071	0.157690
H258	H	1.268566	0.811404	0.491024
O259	O	0.026708	0.088645	0.142481
O260	O	0.360041	0.421978	0.475815
O261	O	0.693375	0.755311	0.809148
H262	H	-0.000144	0.040609	0.145813
H263	H	0.333190	0.373943	0.479146
H264	H	0.666523	0.707276	0.812480
O265	O	0.622139	0.097382	0.142567
O266	O	0.955472	0.430715	0.475900
O267	O	1.288805	0.764049	0.809233
H268	H	0.584570	0.096825	0.190285
H269	H	0.917903	0.430159	0.523619
H270	H	1.251237	0.763492	0.856952
H271	H	0.826808	-0.251074	-0.124625
H272	H	1.160141	0.082259	0.208708
H273	H	1.493475	0.415592	0.542041
H274	H	0.822181	-0.563007	0.124391
H275	H	1.155514	-0.229674	0.457724
H276	H	1.488847	0.103659	0.791057
H277	H	0.168505	0.090643	0.124382
H278	H	0.501838	0.423976	0.457716
H279	H	0.835171	0.757310	0.791049
H280	H	0.738066	0.179304	0.186433
H281	H	1.071399	0.512637	0.519766
H282	H	1.404733	0.845971	0.853099
O283	O	0.923459	-0.005986	0.175911
O284	O	1.256792	0.327347	0.509244
O285	O	1.590125	0.660681	0.842578
H286	H	0.956572	-0.039086	0.216771
H287	H	1.289905	0.294247	0.550104
H288	H	1.623238	0.627581	0.883437
O289	O	0.820105	-0.704752	0.142523
O290	O	1.153438	-0.371419	0.475856
O291	O	1.486771	-0.038086	0.809190
H292	H	0.820649	-0.667203	0.190244
H293	H	1.153982	-0.333869	0.523577
H294	H	1.487315	-0.000536	0.856911
H295	H	0.738087	0.179307	0.330204
H296	H	1.071420	0.512640	0.663538
H297	H	1.404753	0.845974	0.996871
O298	O	0.923498	-0.005977	0.659089
O299	O	1.256831	0.327356	0.992422
O300	O	1.590165	0.660689	1.325756
H301	H	0.956608	-0.039082	0.699947
H302	H	1.289942	0.294252	1.033281
H303	H	1.623275	0.627585	1.366614
H304	H	0.910921	0.006602	0.813340
H305	H	1.244254	0.339936	1.146673
H306	H	1.577588	0.673269	1.480006
O307	O	0.725533	0.191901	0.659138
O308	O	1.058867	0.525234	0.992472
O309	O	1.392200	0.858568	1.325805
H310	H	0.692428	0.225006	0.700012
H311	H	1.025761	0.558339	1.033346
H312	H	1.359094	0.891672	1.366679
