data_functionalizedCrystal
_audit_creation_method	'MofGen! by Chris Wilmer'
_symmetry_space_group_name_H-M	'P1'
_symmetry_Int_Tables_number	1
_symmetry_cell_setting	triclinic
loop_
_symmetry_equiv_pos_as_xyz
  x,y,z
_cell_length_a	15.995350
_cell_length_b	15.995350
_cell_length_c	15.186229
_cell_angle_alpha	89.998487
_cell_angle_beta	90.000289
_cell_angle_gamma	83.492375
loop_
_atom_site_label
_atom_site_type_symbol
_atom_site_fract_x
_atom_site_fract_y
_atom_site_fract_z
O1	O	1.110984	0.107926	-0.073150
O2	O	0.867209	0.121253	-0.073167
O3	O	0.995760	-0.007298	-0.073157
O4	O	0.982433	0.236477	-0.073160
O5	O	0.995752	-0.007300	0.073300
O6	O	0.867200	0.121251	0.073290
O7	O	1.110976	0.107924	0.073308
Zn8	Zn	0.989087	0.114587	0.096552
Zn9	Zn	0.989098	0.114590	-0.096412
O10	O	0.982424	0.236475	0.073298
C11	C	0.836010	0.120701	0.000059
C12	C	0.743060	0.119049	0.000052
C13	C	0.405312	0.113117	0.000071
C14	C	0.452746	0.021565	0.000398
C15	C	0.549436	0.023217	0.000062
C16	C	0.572873	0.116060	0.000062
C17	C	0.531790	0.161217	-0.083569
C18	C	0.435155	0.158917	-0.083633
C19	C	0.434806	0.160807	0.082916
C20	C	0.531751	0.160785	0.084015
C21	C	0.667570	0.117727	0.000054
C22	C	0.310614	0.111452	0.000073
C23	C	0.995205	-0.038494	0.000070
C24	C	0.993553	-0.131444	0.000065
C25	C	0.987621	-0.469192	0.000067
C26	C	0.896069	-0.421758	-0.000268
C27	C	0.897721	-0.325068	0.000062
C28	C	0.990564	-0.301631	0.000066
C29	C	1.035715	-0.342710	0.083702
C30	C	1.033415	-0.439346	0.083771
C31	C	1.035317	-0.439702	-0.082778
C32	C	1.035295	-0.342756	-0.083883
C33	C	0.992231	-0.206934	0.000068
C34	C	0.985956	-0.563890	0.000071
C35	C	1.142175	0.108476	0.000079
C36	C	1.235125	0.110127	0.000081
C37	C	0.982980	0.267671	0.000069
C38	C	0.984631	0.360621	0.000068
N39	N	0.989085	0.114585	0.228245
N40	N	0.989106	0.114585	-0.228104
C41	C	1.046027	0.057682	0.453972
C42	C	1.046030	0.057680	0.546162
C43	C	0.932158	0.171491	0.546162
C44	C	0.932152	0.171488	0.453974
C45	C	0.989091	0.114585	0.407881
C46	C	0.989100	0.114585	0.592259
C47	C	0.989102	0.114584	0.692215
C48	C	0.989088	0.114585	0.307919
H49	H	0.545916	0.229426	-0.086679
H50	H	0.402906	0.226133	-0.087428
H51	H	1.000484	-0.457648	0.146288
Cl52	Cl	0.842541	-0.282041	0.092775
H53	H	0.414267	0.130876	0.146307
H54	H	0.885784	0.217826	0.416444
Cl55	Cl	1.139826	-0.319036	-0.091683
H56	H	1.005387	-0.460241	-0.146169
Cl57	Cl	0.575599	0.112796	-0.179666
Cl58	Cl	0.839573	-0.450366	-0.092869
H59	H	1.004348	-0.314329	0.145938
Cl60	Cl	0.424139	-0.034939	0.092996
H61	H	0.577862	-0.012279	0.060013
H62	H	0.885801	0.217822	0.583700
H63	H	1.092391	0.011343	0.583686
H64	H	0.433156	-0.014861	-0.059245
H65	H	0.577298	-0.012517	-0.059992
H66	H	0.416850	0.125988	-0.146149
H67	H	0.559064	0.127820	0.145886
H68	H	1.002283	-0.315507	-0.145755
H69	H	0.547116	0.228488	0.089067
H70	H	0.403044	0.228307	0.083482
H71	H	0.862229	-0.296645	-0.059891
H72	H	0.859636	-0.441353	0.059370
Cl73	Cl	1.117604	-0.013858	0.396031
Cl74	Cl	1.137188	-0.489138	0.089646
H75	H	1.102817	-0.471462	-0.083338
Cl76	Cl	1.141025	-0.320903	0.088513
