data_functionalizedCrystal
_audit_creation_method	'MofGen! by Chris Wilmer'
_symmetry_space_group_name_H-M	'P1'
_symmetry_Int_Tables_number	1
_symmetry_cell_setting	triclinic
loop_
_symmetry_equiv_pos_as_xyz
  x,y,z
_cell_length_a	25.639242
_cell_length_b	16.994747
_cell_length_c	25.639233
_cell_angle_alpha	89.993240
_cell_angle_beta	90.022166
_cell_angle_gamma	90.006589
loop_
_atom_site_label
_atom_site_type_symbol
_atom_site_fract_x
_atom_site_fract_y
_atom_site_fract_z
Zn1	Zn	0.799326	-0.314218	0.295835
Zn2	Zn	0.799291	-0.446103	0.208438
Zn3	Zn	0.711902	-0.314207	0.208399
Zn4	Zn	0.711889	-0.446074	0.295828
O5	O	0.755602	-0.380150	0.252125
O6	O	0.872486	-0.331730	0.284261
O7	O	0.787690	-0.428614	0.135268
O8	O	0.723518	-0.203827	0.219984
O9	O	0.872461	-0.428625	0.220051
O10	O	0.787748	-0.203835	0.284223
O11	O	0.723485	-0.331710	0.135239
O12	O	0.638735	-0.331682	0.219977
O13	O	0.723497	-0.428575	0.368994
O14	O	0.638726	-0.428564	0.284211
O15	O	0.787736	-0.331702	0.368999
O16	O	0.787677	-0.556480	0.220044
O17	O	0.723463	-0.556459	0.284249
C18	C	0.619759	-0.380119	0.252090
C19	C	0.561645	-0.380125	0.252087
C20	C	0.755572	-0.585090	0.252149
C21	C	0.755575	-0.674412	0.252147
Zn22	Zn	0.711917	-0.945293	0.208384
Zn23	Zn	0.799349	-0.945283	0.295812
Zn24	Zn	0.711907	-0.813466	0.295819
Zn25	Zn	0.799301	-0.813358	0.208421
O26	O	0.755618	-0.879350	0.252109
O27	O	0.723539	-1.055673	0.219963
O28	O	0.787765	-0.927838	0.368978
O29	O	0.638743	-0.831003	0.284209
O30	O	0.787775	-1.055666	0.284196
O31	O	0.638750	-0.927855	0.219971
O32	O	0.723522	-0.830993	0.368984
O33	O	0.723476	-0.703071	0.284244
O34	O	0.787693	-0.830819	0.135251
O35	O	0.787683	-0.702991	0.220033
O36	O	0.723492	-0.927751	0.135224
O37	O	0.872508	-0.927734	0.284232
O38	O	0.872472	-0.830809	0.220026
C39	C	0.201286	-0.430681	0.285540
C40	C	0.146682	-0.430686	0.285548
O41	O	0.118449	-0.473632	0.313961
N42	N	0.119363	-0.380172	0.252159
C43	C	0.146651	-0.329644	0.218764
O44	O	0.118400	-0.286678	0.190365
C45	C	0.201254	-0.329636	0.218758
C46	C	0.228570	-0.380159	0.252146
C47	C	0.228603	-0.481199	0.318925
C48	C	0.283203	-0.481195	0.318916
C49	C	0.310487	-0.430673	0.285522
C50	C	0.283171	-0.380155	0.252137
C51	C	0.228541	-0.279105	0.185366
C52	C	0.283148	-0.279101	0.185364
C53	C	0.310464	-0.329624	0.218751
C54	C	0.365056	-0.329629	0.218733
N55	N	0.392375	-0.380143	0.252122
C56	C	0.365091	-0.430665	0.285517
C57	C	0.031980	-0.329664	0.218778
C58	C	-0.022622	-0.329676	0.218780
C59	C	-0.022587	-0.430717	0.285565
C60	C	0.032016	-0.430709	0.285560
C61	C	0.059299	-0.380178	0.252167
C62	C	0.479756	-0.430653	0.285495
C63	C	0.534361	-0.430647	0.285481
C64	C	0.534321	-0.329604	0.218698
C65	C	0.479721	-0.329612	0.218709
C66	C	0.452439	-0.380140	0.252112
O67	O	0.393324	-0.286702	0.190336
O68	O	0.393348	-0.473617	0.313916
C69	C	0.891975	-0.380182	0.252161
C70	C	0.950089	-0.380196	0.252176
C71	C	0.755619	-0.380137	0.388498
C72	C	0.755626	-0.380131	0.446612
C73	C	0.755635	-0.174410	0.252098
C74	C	0.755651	-0.085088	0.252087
C75	C	0.755615	-0.380107	0.116283
C76	C	0.755709	-0.379891	0.058169
C77	C	0.789118	-0.329539	0.806984
C78	C	0.789124	-0.329517	0.861588
O79	O	0.817558	-0.286595	0.889832
N80	N	0.755684	-0.379946	0.888895
C81	C	0.722231	-0.430394	0.861595
O82	O	0.693787	-0.473285	0.889835
C83	C	0.722222	-0.430411	0.806991
C84	C	0.755668	-0.379985	0.779687
C85	C	0.822561	-0.279115	0.779680
C86	C	0.822555	-0.279139	0.725079
C87	C	0.789106	-0.329585	0.697783
C88	C	0.755662	-0.380008	0.725087
C89	C	0.688767	-0.480855	0.779692
C90	C	0.688761	-0.480868	0.725085
C91	C	0.722207	-0.430441	0.697781
C92	C	0.722207	-0.430477	0.643190
N93	N	0.755648	-0.380048	0.615883
C94	C	0.789097	-0.329602	0.643179
C95	C	0.722251	-0.430353	0.976265
C96	C	0.722262	-0.430340	1.030868
C97	C	0.789155	-0.329462	1.030857
C98	C	0.789146	-0.329479	0.976254
C99	C	0.755691	-0.379924	0.948958
C100	C	0.789083	-0.329655	0.528514
C101	C	0.789075	-0.329684	0.473909
C102	C	0.722181	-0.430560	0.473924
C103	C	0.722190	-0.430533	0.528524
C104	C	0.755642	-0.380074	0.555818
O105	O	0.693787	-0.473375	0.614911
O106	O	0.817531	-0.286711	0.614932
C107	C	0.891461	-0.879261	0.252133
C108	C	0.949575	-0.879245	0.252159
C109	C	0.755588	-0.879274	0.115736
C110	C	0.755576	-0.879241	0.057622
C111	C	0.619245	-0.879442	0.252086
C112	C	0.561131	-0.879481	0.252077
C113	C	0.755611	-0.879471	0.387952
C114	C	0.755477	-0.879654	0.446065
C115	C	0.976869	-0.929749	0.285572
C116	C	1.031473	-0.929750	0.285597
C117	C	1.058783	-0.879243	0.252210
C118	C	1.031485	-0.828737	0.218793
C119	C	0.976881	-0.828741	0.218766
C120	C	0.722140	-0.929694	0.030314
C121	C	0.722118	-0.929663	-0.024290
C122	C	0.755534	-0.879184	-0.051586
C123	C	0.788971	-0.828726	-0.024274
C124	C	0.788991	-0.828753	0.030330
C125	C	0.533834	-0.829068	0.285518
C126	C	0.479229	-0.829089	0.285509
C127	C	0.451924	-0.879529	0.252061
C128	C	0.479225	-0.929944	0.218616
C129	C	0.533828	-0.929919	0.218623
C130	C	0.722207	-0.828952	0.473337
C131	C	0.722071	-0.829124	0.527941
C132	C	0.755210	-0.879994	0.555273
C133	C	0.788482	-0.930701	0.527998
C134	C	0.788615	-0.930533	0.473394
H135	H	0.556600	-0.471792	0.312670
H136	H	0.695032	-0.471411	1.053094
H137	H	0.206310	-0.237966	0.158177
N138	N	0.825065	-0.774345	0.059778
H139	H	0.820013	-0.782017	0.098512
H140	H	0.816915	-0.718010	0.050241
H141	H	0.054191	-0.288517	0.191581
H142	H	0.755514	-0.879171	-0.096047
H143	H	-0.044858	-0.288543	0.191587
H144	H	0.954663	-0.787610	0.191558
H145	H	0.661531	-0.521918	0.801914
N146	N	1.060907	-0.984217	0.321648
H147	H	1.099643	-0.976560	0.316601
H148	H	1.051357	-1.040538	0.313470
N149	N	0.755069	-0.880161	0.614166
H150	H	0.781110	-0.920078	0.627347
H151	H	0.719087	-0.894303	0.627159
H152	H	0.457008	-0.788034	0.312745
N153	N	0.312657	-0.535688	0.354931
H154	H	0.303168	-0.523515	0.392298
H155	H	0.351380	-0.528004	0.349823
H156	H	0.457550	-0.471796	0.312696
N157	N	0.199180	-0.535700	0.354943
H158	H	0.224778	-0.567698	0.376087
H159	H	0.176518	-0.572161	0.333626
H160	H	0.695221	-0.787524	0.451090
N161	N	1.060945	-0.774256	0.182791
H162	H	1.035372	-0.742256	0.161617
H163	H	1.083604	-0.806315	0.158584
H164	H	0.305359	-0.237947	0.158173
H165	H	1.103244	-0.879248	0.252237
N166	N	0.947423	-0.984239	0.321579
H167	H	0.908689	-0.976586	0.316497
H168	H	0.956966	-0.972036	0.358934
N169	N	0.563278	-0.774663	0.321597
H170	H	0.537693	-0.742731	0.342775
H171	H	0.585922	-0.738135	0.300323
H172	H	0.694927	-0.970803	0.052531
N173	N	0.450254	-0.275132	0.182693
H174	H	0.475827	-0.243129	0.161536
H175	H	0.427615	-0.238675	0.204013
H176	H	0.694888	-0.970753	-0.046520
H177	H	0.556546	-0.288472	0.191507
H178	H	0.816178	-0.787627	-0.046506
N179	N	0.061477	-0.485201	0.321570
H180	H	0.035902	-0.517207	0.342723
H181	H	0.084143	-0.453147	0.345796
N182	N	0.825222	-0.275091	0.946809
H183	H	0.849443	-0.307163	0.924169
H184	H	0.846377	-0.243151	0.972427
N185	N	-0.052020	-0.485211	0.321585
H186	H	-0.090756	-0.477544	0.316521
H187	H	-0.042459	-0.473016	0.358936
N188	N	0.393030	-0.879549	0.252054
H189	H	0.379884	-0.839956	0.278317
H190	H	0.379926	-0.933696	0.261640
N191	N	0.652672	-0.535270	0.695645
H192	H	0.631486	-0.567207	0.721231
H193	H	0.673939	-0.571793	0.673003
H194	H	0.456984	-0.971010	0.191383
N195	N	0.563268	-0.984298	0.182553
H196	H	0.537681	-1.016252	0.161366
H197	H	0.585932	-1.020805	0.203832
N198	N	0.686184	-0.774430	0.557352
H199	H	0.665217	-0.742175	0.531749
H200	H	0.707579	-0.738217	0.580114
N201	N	0.824220	-0.985570	0.557480
H202	H	0.819084	-0.977976	0.596208
H203	H	0.861640	-0.973649	0.548059
H204	H	0.815711	-0.971818	0.451195
H205	H	0.816313	-0.288620	0.451680
H206	H	0.849790	-0.238074	0.702853
N207	N	0.825160	-0.275229	0.557948
H208	H	0.846343	-0.243294	0.532359
H209	H	0.849356	-0.307329	0.580618
H210	H	0.849800	-0.238032	0.801899
N211	N	0.825233	-0.275049	1.060304
H212	H	0.820160	-0.282692	1.099037
H213	H	0.817104	-0.218716	1.050746
N214	N	0.686162	-0.484760	0.946827
H215	H	0.664980	-0.516697	0.972415
H216	H	0.707427	-0.521282	0.924181
H217	H	0.694960	-0.471602	0.550757
H218	H	0.694949	-0.471634	0.451689
