data_functionalizedCrystal
_audit_creation_method	'MofGen! by Chris Wilmer'
_symmetry_space_group_name_H-M	'P1'
_symmetry_Int_Tables_number	1
_symmetry_cell_setting	triclinic
loop_
_symmetry_equiv_pos_as_xyz
  x,y,z
_cell_length_a	19.288867
_cell_length_b	23.532357
_cell_length_c	17.766277
_cell_angle_alpha	90.010079
_cell_angle_beta	90.004231
_cell_angle_gamma	82.982680
loop_
_atom_site_label
_atom_site_type_symbol
_atom_site_fract_x
_atom_site_fract_y
_atom_site_fract_z
O1	O	0.921114	0.071051	0.062577
O2	O	1.421114	0.571051	0.562577
O3	O	0.718822	0.080634	0.062585
O4	O	1.218822	0.580634	0.562585
O5	O	0.826086	-0.007078	0.062565
O6	O	1.326086	0.492922	0.562565
O7	O	0.813850	0.158764	0.062597
O8	O	1.313850	0.658764	0.562597
O9	O	0.826074	-0.007080	-0.062623
O10	O	1.326074	0.492920	0.437377
O11	O	0.718810	0.080632	-0.062603
O12	O	1.218810	0.580632	0.437397
O13	O	0.921102	0.071049	-0.062612
O14	O	1.421102	0.571049	0.437388
Cu15	Cu	0.819955	0.075840	-0.074038
Cu16	Cu	1.319955	0.575840	0.425962
Cu17	Cu	0.819969	0.075843	0.074012
Cu18	Cu	1.319969	0.575843	0.574012
O19	O	0.813838	0.158762	-0.062592
O20	O	1.313838	0.658762	0.437408
C21	C	0.692941	0.080325	-0.000008
C22	C	1.192941	0.580325	0.499992
C23	C	0.615840	0.079398	-0.000005
C24	C	1.115840	0.579398	0.499995
C25	C	0.060303	0.072728	0.068225
C26	C	0.560303	0.572728	0.568225
C27	C	0.132748	0.073595	0.068228
C28	C	0.632748	0.573595	0.568228
C29	C	0.168969	0.074030	-0.000012
C30	C	0.668969	0.574030	0.499988
C31	C	0.132741	0.073583	-0.068260
C32	C	0.632741	0.573583	0.431740
C33	C	0.060299	0.072711	-0.068261
C34	C	0.560299	0.572711	0.431739
C35	C	0.278176	0.108768	-0.052286
C36	C	0.778176	0.608768	0.447714
C37	C	0.350617	0.109644	-0.052282
C38	C	0.850617	0.609644	0.447718
C39	C	0.392405	0.076719	-0.000012
C40	C	0.892405	0.576719	0.499988
C41	C	0.361743	0.042924	0.052268
C42	C	0.861743	0.542924	0.552268
C43	C	0.289301	0.042052	0.052267
C44	C	0.789301	0.542052	0.552267
C45	C	0.247520	0.074976	-0.000019
C46	C	0.747520	0.574976	0.499981
C47	C	0.507178	0.078101	0.068235
C48	C	1.007178	0.578101	0.568235
C49	C	0.579624	0.078964	0.068235
C50	C	1.079624	0.578964	0.568235
C51	C	0.579615	0.078958	-0.068255
C52	C	1.079615	0.578958	0.431745
C53	C	0.507171	0.078089	-0.068253
C54	C	1.007171	0.578089	0.431747
C55	C	0.470956	0.077664	-0.000006
C56	C	0.970956	0.577664	0.499994
C57	C	0.825774	-0.028297	-0.000031
C58	C	1.325774	0.471703	0.499969
C59	C	0.824854	-0.091517	-0.000038
C60	C	1.324854	0.408483	0.499962
C61	C	0.819083	-0.483539	0.068243
C62	C	1.319083	0.016461	0.568243
C63	C	0.818209	-0.542940	0.068247
C64	C	1.318209	-0.042940	0.568247
O65	O	0.817738	-0.573657	0.126283
O66	O	1.317738	-0.073657	0.626283
N67	N	0.817768	-0.572654	0.000008
N68	N	1.317768	-0.072654	0.500008
C69	C	0.818196	-0.542962	-0.068240
C70	C	1.318196	-0.042962	0.431760
O71	O	0.817741	-0.573690	-0.126283
O72	O	1.317741	-0.073690	0.373717
C73	C	0.819066	-0.483561	-0.068244
C74	C	1.319066	0.016439	0.431756
C75	C	0.819513	-0.453852	0.000000
C76	C	1.319513	0.046148	0.500000
C77	C	0.819530	-0.453830	0.136481
C78	C	1.319530	0.046170	0.636481
C79	C	0.820406	-0.394433	0.136477
C80	C	1.320406	0.105567	0.636477
C81	C	0.820835	-0.364745	0.068234
C82	C	1.320835	0.135255	0.568234
C83	C	0.820389	-0.394455	-0.000004
C84	C	1.320389	0.105545	0.499996
C85	C	0.819488	-0.453870	-0.136491
C86	C	1.319488	0.046130	0.363509
C87	C	0.820358	-0.394465	-0.136489
C88	C	1.320358	0.105535	0.363511
C89	C	0.820805	-0.364756	-0.068245
C90	C	1.320805	0.135244	0.431755
C91	C	0.821695	-0.305370	-0.068252
C92	C	1.321695	0.194630	0.431748
N93	N	0.822135	-0.275657	-0.000013
N94	N	1.322135	0.224343	0.499987
C95	C	0.821705	-0.305344	0.068230
C96	C	1.321705	0.194656	0.568230
C97	C	0.816368	-0.667707	-0.068227
C98	C	1.316368	-0.167707	0.431773
C99	C	0.815503	-0.727107	-0.068225
C100	C	1.315503	-0.227107	0.431775
C101	C	0.815515	-0.727082	0.068263
C102	C	1.315515	-0.227082	0.568263
C103	C	0.816385	-0.667681	0.068259
C104	C	1.316385	-0.167681	0.568259
C105	C	0.816808	-0.637994	0.000012
C106	C	1.316808	-0.137994	0.500012
C107	C	0.823545	-0.180606	0.068215
C108	C	1.323545	0.319394	0.568215
C109	C	0.824424	-0.121205	0.068205
C110	C	1.324424	0.378795	0.568205
C111	C	0.824409	-0.121235	-0.068283
C112	C	1.324409	0.378765	0.431717
C113	C	0.823534	-0.180632	-0.068272
C114	C	1.323534	0.319368	0.431728
C115	C	0.823100	-0.210316	-0.000017
C116	C	1.323100	0.289684	0.499983
O117	O	0.822163	-0.274616	-0.126258
O118	O	1.322163	0.225384	0.373742
O119	O	0.822151	-0.274608	0.126263
O120	O	1.322151	0.225392	0.626263
C121	C	0.946984	0.071359	-0.000017
C122	C	1.446984	0.571359	0.499983
C123	C	1.024084	0.072285	-0.000014
C124	C	1.524084	0.572285	0.499986
C125	C	0.814150	0.179980	0.000007
C126	C	1.314150	0.679980	0.500007
C127	C	0.815070	0.243200	0.000019
C128	C	1.315070	0.743200	0.500019
N129	N	0.819950	0.075838	-0.178168
N130	N	1.319950	0.575838	0.321832
C131	C	0.867477	0.037012	-0.782466
C132	C	1.367477	0.537012	-0.282466
C133	C	0.867478	0.037013	-0.703664
C134	C	1.367478	0.537013	-0.203664
C135	C	0.819969	0.075838	-0.664257
C136	C	1.319969	0.575838	-0.164257
C137	C	0.772468	0.114673	-0.703659
C138	C	1.272468	0.614673	-0.203659
C139	C	0.772473	0.114675	-0.782459
C140	C	1.272473	0.614675	-0.282459
C141	C	0.756652	0.083438	-0.539422
C142	C	1.256652	0.583438	-0.039422
C143	C	0.756646	0.083433	-0.460623
C144	C	1.256646	0.583433	0.039377
C145	C	0.819954	0.075837	-0.421211
C146	C	1.319954	0.575837	0.078789
C147	C	0.883271	0.068234	-0.460607
C148	C	1.383271	0.568234	0.039393
C149	C	0.883276	0.068235	-0.539407
C150	C	1.383276	0.568235	-0.039407
C151	C	0.819959	0.075841	-0.578812
C152	C	1.319959	0.575841	-0.078812
C153	C	0.867457	0.037008	-0.296373
C154	C	1.367457	0.537008	0.203627
C155	C	0.867459	0.037013	-0.217570
C156	C	1.367459	0.537013	0.282430
C157	C	0.772443	0.114670	-0.217566
C158	C	1.272443	0.614670	0.282434
C159	C	0.772447	0.114668	-0.296368
C160	C	1.272447	0.614668	0.203632
C161	C	0.819953	0.075833	-0.335766
C162	C	1.319953	0.575833	0.164234
N163	N	0.819979	0.075840	0.178142
N164	N	1.319979	0.575840	0.678142
H165	H	0.609106	0.079310	-0.123817
H166	H	1.109106	0.579310	0.376183
H167	H	0.820692	-0.370296	-0.192065
H168	H	1.320692	0.129704	0.307935
H169	H	0.934822	0.062053	-0.428520
H170	H	1.434822	0.562053	0.071480
H171	H	0.705090	0.089617	-0.428553
H172	H	1.205090	0.589617	0.071447
C173	C	0.919714	-0.005702	-0.339719
C174	C	1.419714	0.494298	0.160281
H175	H	0.912909	-0.000145	-0.392292
H176	H	1.412909	0.499855	0.107708
H177	H	0.966025	0.000386	-0.326799
H178	H	1.466025	0.500386	0.173201
H179	H	0.912439	-0.043698	-0.326813
H180	H	1.412439	0.456302	0.173187
C181	C	0.467326	0.077611	-0.143317
C182	C	0.967326	0.577611	0.356683
H183	H	0.499271	0.077999	-0.183959
H184	H	0.999271	0.577999	0.316041
H185	H	0.444598	0.044068	-0.146161
H186	H	0.944598	0.544068	0.353839
H187	H	0.433534	0.110481	-0.146146
H188	H	0.933534	0.610481	0.353854
C189	C	0.919720	-0.005703	-0.660320
C190	C	1.419720	0.494297	-0.160320
H191	H	0.912914	-0.000139	-0.607747
H192	H	1.412914	0.499861	-0.107747
H193	H	0.912443	-0.043695	-0.673247
H194	H	1.412443	0.456305	-0.173247
H195	H	0.966038	0.000382	-0.673220
H196	H	1.466038	0.500382	-0.173220
H197	H	0.823176	-0.204823	-0.123842
H198	H	1.323176	0.295177	0.376158
C199	C	0.819065	-0.486478	0.211555
C200	C	1.319065	0.013522	0.711555
H201	H	0.819461	-0.460269	0.252188
H202	H	1.319461	0.039731	0.752188
H203	H	0.778218	-0.505204	0.214410
H204	H	1.278218	-0.005204	0.714410
H205	H	0.859245	-0.514095	0.214391
H206	H	1.359245	-0.014095	0.714391
C207	C	0.815017	-0.759785	-0.143291
C208	C	1.315017	-0.259785	0.356709
H209	H	0.814439	-0.799415	-0.133522
H210	H	1.314439	-0.299415	0.366478
H211	H	0.774647	-0.745600	-0.171327
H212	H	1.274647	-0.245600	0.328673
H213	H	0.855674	-0.754504	-0.171331
H214	H	1.355674	-0.254504	0.328669
C215	C	0.952917	0.059881	-0.582741
C216	C	1.452917	0.559881	-0.082741
H217	H	0.990624	0.055361	-0.547988
H218	H	1.490624	0.555361	-0.047988
H219	H	0.954564	0.026718	-0.613493
H220	H	1.454564	0.526718	-0.113493
H221	H	0.956534	0.092423	-0.613468
H222	H	1.456534	0.592423	-0.113468
C223	C	0.407701	0.006705	0.109769
C224	C	0.907701	0.506705	0.609769
H225	H	0.455237	0.012058	0.102279
H226	H	0.955237	0.512058	0.602279
H227	H	0.393878	0.018294	0.159311
H228	H	0.893878	0.518294	0.659311
H229	H	0.402351	-0.032586	0.103180
H230	H	0.902351	0.467414	0.603180
H231	H	0.823188	-0.204768	0.123795
H232	H	1.323188	0.295232	0.623795
C233	C	0.232215	0.144992	-0.109784
C234	C	0.732215	0.644992	0.390216
H235	H	0.260848	0.165250	-0.140910
H236	H	0.760848	0.665250	0.359090
H237	H	0.207959	0.120604	-0.140025
H238	H	0.707959	0.620604	0.359975
H239	H	0.199489	0.171478	-0.083884
H240	H	0.699489	0.671478	0.416116
H241	H	0.816748	-0.643495	0.123830
H242	H	1.316748	-0.143495	0.623830
C243	C	0.818983	-0.486538	-0.211558
C244	C	1.318983	0.013462	0.288442
H245	H	0.818404	-0.526169	-0.201794
H246	H	1.318404	-0.026169	0.298206
H247	H	0.778608	-0.472349	-0.239583
H248	H	1.278608	0.027651	0.260417
H249	H	0.859634	-0.481257	-0.239608
H250	H	1.359634	0.018743	0.260392
C251	C	0.824878	-0.088571	-0.143344
C252	C	1.324878	0.411429	0.356656
H253	H	0.825455	-0.048939	-0.133566
H254	H	1.325455	0.451061	0.366434
H255	H	0.865239	-0.102755	-0.171394
H256	H	1.365239	0.397245	0.328606
H257	H	0.784213	-0.093857	-0.171374
H258	H	1.284213	0.406143	0.328626
C259	C	0.384342	0.146816	-0.109783
C260	C	0.884342	0.646816	0.390217
H261	H	0.433469	0.142627	-0.102290
H262	H	0.933469	0.642627	0.397710
H263	H	0.374425	0.134940	-0.159325
H264	H	0.874425	0.634940	0.340675
H265	H	0.365943	0.185821	-0.103196
H266	H	0.865943	0.685821	0.396804
H267	H	0.030809	0.072352	-0.123831
H268	H	0.530809	0.572352	0.376169
C269	C	0.467336	0.077626	0.143300
C270	C	0.967336	0.577626	0.643300
H271	H	0.419003	0.077051	0.133527
H272	H	0.919003	0.577051	0.633527
H273	H	0.484741	0.044565	0.171335
H274	H	0.984741	0.544565	0.671335
H275	H	0.473678	0.110978	0.171343
H276	H	0.973678	0.610978	0.671343
H277	H	0.162243	0.073959	0.123798
H278	H	0.662243	0.573959	0.623798
C279	C	0.720214	0.157380	-0.825792
C280	C	1.220214	0.657380	-0.325792
H281	H	0.691915	0.180501	-0.791039
H282	H	1.191915	0.680501	-0.291039
H283	H	0.745025	0.181036	-0.856529
H284	H	1.245025	0.681036	-0.356529
H285	H	0.691449	0.136944	-0.856534
H286	H	1.191449	0.636944	-0.356534
H287	H	0.264340	0.014534	0.094833
H288	H	0.764340	0.514534	0.594833
H289	H	0.162237	0.073936	-0.123822
H290	H	0.662237	0.573936	0.376178
C291	C	0.824912	-0.088527	0.143276
C292	C	1.324912	0.411473	0.643276
H293	H	0.824523	-0.114718	0.183917
H294	H	1.324523	0.385282	0.683917
H295	H	0.865763	-0.069805	0.146113
H296	H	1.365763	0.430195	0.646113
H297	H	0.784737	-0.060904	0.146113
H298	H	1.284737	0.439096	0.646113
H299	H	0.906161	0.005392	-0.814542
H300	H	1.406161	0.505392	-0.314542
C301	C	0.687011	0.091794	-0.582771
C302	C	1.187011	0.591794	-0.082771
H303	H	0.696081	0.090712	-0.635344
H304	H	1.196081	0.590712	-0.135344
H305	H	0.660007	0.062066	-0.569870
H306	H	1.160007	0.562066	-0.069870
H307	H	0.661986	0.127770	-0.569851
H308	H	1.161986	0.627770	-0.069851
C309	C	0.919708	-0.005701	-0.174239
C310	C	1.419708	0.494299	0.325761
H311	H	0.947995	-0.028831	-0.208992
H312	H	1.447995	0.471169	0.291008
H313	H	0.948477	0.014721	-0.143489
H314	H	1.448477	0.514721	0.356511
H315	H	0.894883	-0.029356	-0.143509
H316	H	1.394883	0.470644	0.356491
C317	C	0.820885	-0.361758	0.211545
C318	C	1.320885	0.138242	0.711545
H319	H	0.820495	-0.387953	0.252183
H320	H	1.320495	0.112047	0.752183
H321	H	0.861732	-0.343032	0.214391
H322	H	1.361732	0.156968	0.714391
H323	H	0.780706	-0.334139	0.214381
H324	H	1.280706	0.165861	0.714381
H325	H	0.733763	0.146284	-0.185481
H326	H	1.233763	0.646284	0.314519
C327	C	0.815034	-0.759745	0.143330
C328	C	1.315034	-0.259745	0.643330
H329	H	0.814444	-0.799375	0.133552
H330	H	1.314444	-0.299375	0.633552
H331	H	0.855688	-0.754460	0.171373
H332	H	1.355688	-0.254460	0.671373
H333	H	0.774662	-0.745556	0.171367
H334	H	1.274662	-0.245556	0.671367
C335	C	0.720194	0.157376	-0.339701
C336	C	1.220194	0.657376	0.160299
H337	H	0.691896	0.180496	-0.304947
H338	H	1.191896	0.680496	0.195053
H339	H	0.745012	0.181031	-0.370431
H340	H	1.245012	0.681031	0.129569
H341	H	0.691427	0.136946	-0.370449
H342	H	1.191427	0.636946	0.129551
H343	H	0.816715	-0.643540	-0.123806
H344	H	1.316715	-0.143540	0.376194
H345	H	0.609113	0.079321	0.123806
H346	H	1.109113	0.579321	0.623806
C347	C	0.020473	0.072245	0.143293
C348	C	0.520473	0.572245	0.643293
H349	H	0.052425	0.072626	0.183935
H350	H	0.552425	0.572626	0.683935
H351	H	-0.013326	0.105105	0.146143
H352	H	0.486674	0.605105	0.646143
H353	H	-0.002244	0.038692	0.146119
H354	H	0.497756	0.538692	0.646119
C355	C	0.720210	0.157379	-0.660314
C356	C	1.220210	0.657379	-0.160314
H357	H	0.727005	0.151813	-0.607741
H358	H	1.227005	0.651813	-0.107741
H359	H	0.727483	0.195374	-0.673215
H360	H	1.227483	0.695374	-0.173215
H361	H	0.673897	0.151289	-0.673239
H362	H	1.173897	0.651289	-0.173239
