data_functionalizedCrystal
_audit_creation_method	'MofGen! by Chris Wilmer'
_symmetry_space_group_name_H-M	'P1'
_symmetry_Int_Tables_number	1
_symmetry_cell_setting	triclinic
loop_
_symmetry_equiv_pos_as_xyz
  x,y,z
_cell_length_a	17.077404
_cell_length_b	18.215405
_cell_length_c	17.077396
_cell_angle_alpha	90.028580
_cell_angle_beta	90.021444
_cell_angle_gamma	90.020979
loop_
_atom_site_label
_atom_site_type_symbol
_atom_site_fract_x
_atom_site_fract_y
_atom_site_fract_z
Zn1	Zn	1.200055	-0.293019	0.443883
Zn2	Zn	1.199963	-0.416092	0.312617
Zn3	Zn	1.068787	-0.293040	0.312626
Zn4	Zn	1.068756	-0.416044	0.443836
O5	O	1.134390	-0.354549	0.378240
O6	O	1.309890	-0.309356	0.426486
O7	O	1.182537	-0.399798	0.202771
O8	O	1.086252	-0.190053	0.330062
O9	O	1.309822	-0.399777	0.330045
O10	O	1.182694	-0.190037	0.426495
O11	O	1.086163	-0.309392	0.202778
O12	O	0.958936	-0.309346	0.330016
O13	O	1.086198	-0.399696	0.553689
O14	O	0.958913	-0.399716	0.426415
O15	O	1.182664	-0.309309	0.553724
O16	O	1.182506	-0.519070	0.329999
O17	O	1.086109	-0.519035	0.426405
C18	C	0.930442	-0.354529	0.378212
C19	C	0.843193	-0.354538	0.378218
C20	C	0.467411	-0.307571	0.428566
C21	C	0.549391	-0.307566	0.428557
C22	C	0.590344	-0.354564	0.378260
C23	C	0.549312	-0.401576	0.327974
C24	C	0.467333	-0.401585	0.327987
C25	C	0.720182	-0.401554	0.327949
C26	C	0.802166	-0.401545	0.327934
C27	C	0.802240	-0.307535	0.428519
C28	C	0.720261	-0.307544	0.428532
C29	C	0.679235	-0.354555	0.378245
C30	C	1.134315	-0.545755	0.378213
C31	C	1.134355	-0.627554	0.378228
C32	C	1.184596	-0.815679	0.428509
C33	C	1.184625	-0.892537	0.428524
C34	C	1.084282	-0.892667	0.328020
C35	C	1.084250	-0.815810	0.328010
C36	C	1.134411	-0.777317	0.378253
C37	C	1.134472	-0.931034	0.378278
C38	C	1.134502	-1.014367	0.378294
C39	C	1.134380	-0.693979	0.378239
C40	C	1.339135	-0.354569	0.378270
C41	C	1.426384	-0.354578	0.378282
C42	C	1.134438	-0.354495	0.582985
C43	C	1.134458	-0.354472	0.670235
C44	C	1.134487	-0.162596	0.378285
C45	C	1.134529	-0.080797	0.378304
C46	C	1.134388	-0.354550	0.174293
C47	C	1.134520	-0.354366	0.087043
C48	C	1.184689	-0.307403	0.711244
C49	C	1.184699	-0.307379	0.793225
C50	C	1.134480	-0.354427	0.834194
C51	C	1.084243	-0.401497	0.793179
C52	C	1.084231	-0.401517	0.711200
C53	C	1.084275	-0.401453	0.964049
C54	C	1.084289	-0.401434	1.046034
C55	C	1.184743	-0.307314	1.046074
C56	C	1.184730	-0.307335	0.964095
C57	C	1.134494	-0.354406	0.923085
H58	H	0.835648	-0.269256	0.469463
C59	C	0.978741	-0.979189	0.317017
C60	C	1.029154	-0.934983	0.272789
H61	H	0.944712	-1.005314	0.282915
H62	H	0.948679	-0.949208	0.351175
H63	H	1.008643	-1.013032	0.346946
H64	H	0.999252	-0.901135	0.242864
H65	H	1.059218	-0.964965	0.238617
C66	C	0.978652	-0.411711	0.871841
C67	C	1.029055	-0.453201	0.918978
H68	H	0.944563	-0.443662	0.844023
H69	H	1.008552	-0.383703	0.835707
H70	H	0.948648	-0.379637	0.903829
H71	H	1.059064	-0.485271	0.886990
H72	H	0.999152	-0.481222	0.955117
H73	H	1.225604	-0.269053	0.826611
H74	H	1.043395	-0.439743	1.079389
H75	H	1.225627	-0.269028	0.930739
H76	H	0.686920	-0.269270	0.469485
H77	H	1.225440	-0.784340	0.469421
H78	H	0.433930	-0.439864	0.287042
C79	C	1.229351	-0.265465	1.171755
C80	C	1.239951	-0.255559	1.091148
H81	H	1.263428	-0.233511	1.199583
H82	H	1.240824	-0.314901	1.185184
H83	H	1.176611	-0.254690	1.185167
H84	H	1.292689	-0.266340	1.077736
H85	H	1.228483	-0.206112	1.077714
C86	C	0.984959	-0.494568	0.719389
C87	C	1.029028	-0.453269	0.666119
H88	H	0.950884	-0.526522	0.691557
H89	H	0.954946	-0.462496	0.751359
H90	H	1.019163	-0.522703	0.751371
H91	H	0.994825	-0.425129	0.634141
H92	H	1.059043	-0.485344	0.634136
H93	H	1.225488	-0.923768	0.469449
H94	H	0.835508	-0.439817	0.286980
H95	H	1.043380	-0.784574	0.287086
H96	H	0.582791	-0.269291	0.469506
H97	H	1.043352	-0.439801	0.826543
H98	H	0.434073	-0.269295	0.469519
C99	C	0.728339	-0.494476	0.228516
C100	C	0.675084	-0.453228	0.272671
H101	H	0.700495	-0.526371	0.194387
H102	H	0.760322	-0.522665	0.262656
H103	H	0.760309	-0.462363	0.198550
H104	H	0.643118	-0.485342	0.302642
H105	H	0.643087	-0.425037	0.238526
C106	C	1.283978	-0.214363	0.719526
C107	C	1.239891	-0.255684	0.666214
H108	H	1.318052	-0.182429	0.691727
H109	H	1.313993	-0.246422	0.751497
H110	H	1.249786	-0.186205	0.751503
H111	H	1.274082	-0.283846	0.634241
H112	H	1.209874	-0.223621	0.634230
H113	H	0.582662	-0.439846	0.287024
