data_functionalizedCrystal
_audit_creation_method	'MofGen! by Chris Wilmer'
_symmetry_space_group_name_H-M	'P1'
_symmetry_Int_Tables_number	1
_symmetry_cell_setting	triclinic
loop_
_symmetry_equiv_pos_as_xyz
  x,y,z
_cell_length_a	19.077105
_cell_length_b	15.297327
_cell_length_c	19.077174
_cell_angle_alpha	102.301226
_cell_angle_beta	85.483752
_cell_angle_gamma	97.818066
loop_
_atom_site_label
_atom_site_type_symbol
_atom_site_fract_x
_atom_site_fract_y
_atom_site_fract_z
Zn1	Zn	1.036793	-0.438342	-0.498707
Zn2	Zn	1.536793	0.061658	0.001293
Zn3	Zn	1.013211	-0.582892	-0.399571
Zn4	Zn	1.513211	-0.082892	0.100429
Zn5	Zn	0.915816	-0.425731	-0.374469
Zn6	Zn	1.415816	0.074269	0.125531
Zn7	Zn	0.900112	-0.582833	-0.512681
Zn8	Zn	1.400112	-0.082833	-0.012681
O9	O	0.966483	-0.507450	-0.446357
O10	O	1.466483	-0.007450	0.053643
O11	O	1.131627	-0.462820	-0.490214
O12	O	1.631627	0.037180	0.009786
O13	O	0.996994	-0.556791	-0.296910
O14	O	1.496994	-0.056791	0.203090
O15	O	0.948305	-0.301162	-0.374596
O16	O	1.448305	0.198838	0.125404
O17	O	1.114301	-0.569019	-0.417379
O18	O	1.614301	-0.069019	0.082621
O19	O	1.037187	-0.310428	-0.465873
O20	O	1.537187	0.189572	0.034127
O21	O	0.925438	-0.441326	-0.278468
O22	O	1.425438	0.058674	0.221532
O23	O	0.815771	-0.441269	-0.388146
O24	O	1.315771	0.058731	0.111854
O25	O	0.921541	-0.568919	-0.610159
O26	O	1.421541	-0.068919	-0.110159
O27	O	0.804234	-0.556690	-0.489690
O28	O	1.304234	-0.056690	0.010310
O29	O	1.021960	-0.462762	-0.599892
O30	O	1.521960	0.037238	-0.099892
O31	O	0.981766	-0.709126	-0.430929
O32	O	1.481766	-0.209126	0.069071
O33	O	0.898673	-0.709082	-0.514031
O34	O	1.398673	-0.209082	-0.014031
C35	C	0.784602	-0.497605	-0.437711
C36	C	1.284602	0.002395	0.062289
C37	C	0.706790	-0.493417	-0.434032
C38	C	1.206790	0.006583	0.065968
C39	C	0.664232	-0.551626	-0.485112
C40	C	1.164232	-0.051626	0.014888
C41	C	0.591121	-0.547678	-0.481656
C42	C	1.091121	-0.047678	0.018344
C43	C	0.560569	-0.485525	-0.427118
C44	C	1.060569	0.014475	0.072882
C45	C	0.603133	-0.427310	-0.376035
C46	C	1.103133	0.072690	0.123965
C47	C	0.676243	-0.431254	-0.379494
C48	C	1.176243	0.068746	0.120506
C49	C	0.342558	-0.467273	-0.411113
C50	C	0.842558	0.032727	0.088887
C51	C	0.269442	-0.463335	-0.407657
C52	C	0.769442	0.036665	0.092343
C53	C	0.257435	-0.583703	-0.513280
C54	C	0.757435	-0.083703	-0.013280
C55	C	0.330546	-0.587645	-0.516731
C56	C	0.830546	-0.087645	-0.016731
C57	C	0.373105	-0.529427	-0.465651
C58	C	0.873105	-0.029427	0.034349
N59	N	0.485838	-0.481491	-0.423583
N60	N	0.985838	0.018509	0.076417
N61	N	0.447835	-0.533457	-0.469189
N62	N	0.947835	-0.033457	0.030811
C63	C	0.935976	-0.741839	-0.476737
C64	C	1.435976	-0.241839	0.023263
C65	C	0.922990	-0.842116	-0.489760
C66	C	1.422990	-0.342116	0.010240
C67	C	1.059593	-1.124762	-0.353534
C68	C	1.559593	-0.624762	0.146466
C69	C	1.071793	-1.030546	-0.341295
C70	C	1.571793	-0.530546	0.158705
C71	C	1.034594	-0.983434	-0.378410
C72	C	1.534594	-0.483434	0.121590
C73	C	0.985191	-1.030547	-0.427767
C74	C	1.485191	-0.530547	0.072233
C75	C	0.972985	-1.124772	-0.440003
C76	C	1.472985	-0.624772	0.059997
C77	C	0.947987	-0.983444	-0.464879
C78	C	1.447987	-0.483444	0.035121
C79	C	0.898584	-1.030557	-0.514236
C80	C	1.398584	-0.530557	-0.014236
C81	C	0.886381	-1.124773	-0.526471
C82	C	1.386381	-0.624773	-0.026471
C83	C	0.923580	-1.171885	-0.489356
C84	C	1.423580	-0.671885	0.010644
C85	C	0.960192	-0.889219	-0.452643
C86	C	1.460192	-0.389219	0.047357
C87	C	0.873585	-0.889229	-0.539112
C88	C	1.373585	-0.389229	-0.039112
C89	C	0.861385	-0.983445	-0.551352
C90	C	1.361385	-0.483445	-0.051352
C91	C	1.149074	-0.517333	-0.455038
C92	C	1.649074	-0.017333	0.044962
C93	C	1.226884	-0.521545	-0.458737
C94	C	1.726884	-0.021545	0.041263
C95	C	0.972629	-0.517241	-0.631501
C96	C	1.472629	-0.017241	-0.131501
C97	C	0.975248	-0.521413	-0.710399
C98	C	1.475248	-0.021413	-0.210399
C99	C	0.997128	-0.272147	-0.415876
C100	C	1.497128	0.227853	0.084124
C101	C	1.010187	-0.171875	-0.402886
C102	C	1.510187	0.328125	0.097114
C103	C	0.939225	-0.463258	-0.737862
C104	C	1.439225	0.036742	-0.237862
C105	C	0.941683	-0.467186	-0.811996
C106	C	1.441683	0.032814	-0.311996
C107	C	0.980167	-0.529265	-0.858663
C108	C	1.480167	-0.029265	-0.358663
C109	C	1.016191	-0.587426	-0.831195
C110	C	1.516191	-0.087426	-0.331195
C111	C	1.013729	-0.583502	-0.757064
C112	C	1.513729	-0.083502	-0.257064
C113	C	0.991521	-0.547451	-1.081404
C114	C	1.491521	-0.047451	-0.581404
C115	C	0.993982	-0.551369	-1.155540
C116	C	1.493982	-0.051369	-0.655540
C117	C	0.919472	-0.431130	-1.136335
C118	C	1.419472	0.068870	-0.636335
C119	C	0.917017	-0.427207	-1.062203
C120	C	1.417017	0.072793	-0.562203
C121	C	0.953038	-0.485372	-1.034741
C122	C	1.453038	0.014628	-0.534741
N123	N	0.982682	-0.533279	-0.934440
N124	N	1.482682	-0.033279	-0.434440
N125	N	0.950519	-0.481361	-0.958967
N126	N	1.450519	0.018639	-0.458967
C127	C	0.960409	-0.497633	-0.261927
C128	C	1.460409	0.002367	0.238073
C129	C	0.957959	-0.493214	-0.183004
C130	C	1.457959	0.006786	0.316996
H131	H	0.355416	-0.638259	-0.561141
H132	H	0.855416	-0.138259	-0.061141
N133	N	1.125081	-0.979735	-0.288073
N134	N	1.625081	-0.479735	0.211927
H135	H	1.110442	-0.992900	-0.238965
H136	H	1.610442	-0.492900	0.261035
H137	H	1.173319	-0.999389	-0.303706
H138	H	1.673319	-0.499389	0.196294
N139	N	0.697183	-0.618661	-0.543936
N140	N	1.197183	-0.118661	-0.043936
H141	H	0.721116	-0.660520	-0.521881
H142	H	1.221116	-0.160520	-0.021881
H143	H	0.659090	-0.654873	-0.575752
H144	H	1.159090	-0.154873	-0.075752
N145	N	0.833099	-1.175587	-0.579706
N146	N	1.333099	-0.675587	-0.079706
H147	H	0.831012	-1.242422	-0.581826
H148	H	1.331012	-0.742422	-0.081826
H149	H	0.784868	-1.155890	-0.564114
H150	H	1.284868	-0.655890	-0.064114
N151	N	0.808101	-1.034263	-0.604584
N152	N	1.308101	-0.534263	-0.104584
H153	H	0.806017	-1.101098	-0.606701
H154	H	1.306017	-0.601098	-0.106701
H155	H	0.759870	-1.014568	-0.588989
H156	H	1.259870	-0.514568	-0.088989
N157	N	0.388457	-0.404470	-0.356031
N158	N	0.888457	0.095530	0.143969
H159	H	0.358007	-0.364498	-0.320960
H160	H	0.858007	0.135502	0.179040
H161	H	0.412932	-0.441005	-0.329314
H162	H	0.912932	0.058995	0.170686
N163	N	0.833454	-0.838428	-0.579144
N164	N	1.333454	-0.338428	-0.079144
H165	H	0.848684	-0.771592	-0.563905
H166	H	1.348684	-0.271592	-0.063905
H167	H	0.843863	-0.858128	-0.632499
H168	H	1.343863	-0.358128	-0.132499
H169	H	0.890145	-0.383776	-1.158703
H170	H	1.390145	0.116224	-0.658703
H171	H	1.043069	-0.630852	-0.734704
H172	H	1.543069	-0.130852	-0.234704
N173	N	0.545217	-0.610469	-0.536744
N174	N	1.045217	-0.110469	-0.036744
H175	H	0.508486	-0.649044	-0.511811
H176	H	1.008486	-0.149044	-0.011811
H177	H	0.520794	-0.573921	-0.563496
H178	H	1.020794	-0.073921	-0.063496
N179	N	1.013482	-0.838414	-0.399420
N180	N	1.513482	-0.338414	0.100580
H181	H	1.015573	-0.771578	-0.397298
H182	H	1.515573	-0.271578	0.102702
H183	H	0.998806	-0.851651	-0.350344
H184	H	1.498806	-0.351651	0.149656
H185	H	0.578253	-0.376700	-0.331631
H186	H	1.078253	0.123300	0.168369
H187	H	1.025324	-0.601923	-1.193536
H188	H	1.525324	-0.101923	-0.693536
H189	H	0.885676	-0.376658	-1.024210
H190	H	1.385676	0.123342	-0.524210
N191	N	0.897725	-0.396292	-0.687529
N192	N	1.397725	0.103708	-0.187529
H193	H	0.875277	-0.360048	-0.716179
H194	H	1.375277	0.139952	-0.216179
H195	H	0.859524	-0.429627	-0.659985
H196	H	1.359524	0.070373	-0.159985
H197	H	0.222777	-0.631100	-0.554867
H198	H	0.722777	-0.131100	-0.054867
N199	N	0.902851	-0.404449	-0.841627
N200	N	1.402851	0.095551	-0.341627
H201	H	0.866654	-0.440972	-0.875593
H202	H	1.366654	0.059028	-0.375593
H203	H	0.878146	-0.364526	-0.800780
H204	H	1.378146	0.135474	-0.300780
N205	N	1.030371	-0.610180	-1.051787
N206	N	1.530371	-0.110180	-0.551787
H207	H	1.055126	-0.650099	-1.092600
H208	H	1.555126	-0.150099	-0.592600
H209	H	1.066527	-0.573585	-1.017812
H210	H	1.566527	-0.073585	-0.517812
H211	H	0.244571	-0.412713	-0.363248
H212	H	0.744571	0.087287	0.136752
N213	N	0.722152	-0.368478	-0.324400
N214	N	1.222152	0.131522	0.175600
H215	H	0.758881	-0.329895	-0.349327
H216	H	1.258881	0.170105	0.150673
H217	H	0.691656	-0.328564	-0.289337
H218	H	1.191656	0.171436	0.210663
H219	H	0.913651	-1.248603	-0.499320
H220	H	1.413651	-0.748603	0.000680
N221	N	1.057691	-0.654394	-0.881527
N222	N	1.557691	-0.154394	-0.381527
H223	H	1.053785	-0.648057	-0.932657
H224	H	1.553785	-0.148057	-0.432657
H225	H	1.109086	-0.642381	-0.869129
H226	H	1.609086	-0.142381	-0.369129
H227	H	1.089870	-1.163129	-0.323316
H228	H	1.589870	-0.663129	0.176684
H229	H	1.044530	-0.906719	-0.368441
H230	H	1.544530	-0.406719	0.131559
