data_functionalizedCrystal
_audit_creation_method	'MofGen! by Chris Wilmer'
_symmetry_space_group_name_H-M	'P1'
_symmetry_Int_Tables_number	1
_symmetry_cell_setting	triclinic
loop_
_symmetry_equiv_pos_as_xyz
  x,y,z
_cell_length_a	31.640172
_cell_length_b	16.704495
_cell_length_c	16.704494
_cell_angle_alpha	94.152720
_cell_angle_beta	63.425370
_cell_angle_gamma	62.466077
loop_
_atom_site_label
_atom_site_type_symbol
_atom_site_fract_x
_atom_site_fract_y
_atom_site_fract_z
Zr1	Zr	0.460073	0.775746	-0.046470
O2	O	0.541177	0.654310	-0.176764
O3	O	0.374071	0.812957	-0.006530
O4	O	0.453637	0.821144	-0.165217
O5	O	0.468395	0.639683	0.107100
O6	O	0.454131	0.952763	-0.156106
O7	O	0.461611	0.646123	-0.018077
O8	O	0.311803	0.938119	0.127755
O9	O	0.610724	0.654328	-0.176761
O10	O	0.411628	0.927072	0.017306
O11	O	0.416322	0.824040	0.103925
O12	O	0.510001	0.833679	-0.082908
O13	O	0.514695	0.730647	0.003711
Zr14	Zr	0.471682	0.975393	0.167704
Zr15	Zr	0.460862	0.985664	-0.031939
Zr16	Zr	0.470893	0.765475	0.153174
Zr17	Zr	0.570993	0.775775	-0.046466
Zr18	Zr	0.360762	0.975364	0.167700
O19	O	0.557684	0.938182	0.127765
O20	O	0.542298	0.952786	-0.156103
O21	O	0.556562	0.639706	0.107104
O22	O	0.390578	1.096829	0.297998
O23	O	0.375193	1.111433	0.014130
O24	O	0.389456	0.798353	0.277337
O25	O	0.463360	1.111456	0.014134
O26	O	0.478118	0.929995	0.286451
O27	O	0.477623	0.798376	0.277341
O28	O	0.470144	1.105016	0.139311
O29	O	0.611351	0.821185	-0.165211
O30	O	0.320404	0.929955	0.286445
O31	O	0.321031	1.096811	0.297995
O32	O	0.312430	1.104975	0.139305
O33	O	0.619325	0.646164	-0.018071
O34	O	0.619952	0.813021	-0.006521
O35	O	0.421754	0.917460	0.204143
O36	O	0.417060	1.020492	0.117523
O37	O	0.515433	0.927099	0.017309
O38	O	0.520127	0.824067	0.103929
C39	C	0.327133	0.875534	0.060612
C40	C	0.280044	0.875522	0.060610
C41	C	0.464891	0.612994	0.042441
C42	C	0.464556	0.523879	0.036273
C43	C	0.452342	0.888417	-0.189107
C44	C	0.447749	0.892777	-0.273861
C45	C	-0.014447	0.929371	0.015413
C46	C	-0.191443	0.929391	0.015415
O47	O	-0.216429	0.975164	-0.023003
N48	N	-0.211122	0.875608	0.060627
C49	C	-0.186551	0.821821	0.105848
O50	O	-0.207354	0.776084	0.144312
C51	C	-0.009559	0.821807	0.105851
C52	C	0.010121	0.875586	0.060627
C53	C	0.005233	0.983146	-0.029806
C54	C	0.049481	0.983136	-0.029811
C55	C	0.074050	0.929351	0.015404
C56	C	0.054370	0.875576	0.060623
C57	C	0.015008	0.768026	0.151077
C58	C	0.059257	0.768030	0.151076
C59	C	0.078938	0.821808	0.105852
C60	C	0.123186	0.821781	0.105833
N61	N	0.142865	0.875564	0.060621
C62	C	0.118297	0.929349	0.015406
C63	C	-0.279474	0.821831	0.105841
C64	C	-0.323721	0.821833	0.105839
C65	C	-0.328610	0.929404	0.015407
C66	C	-0.284360	0.929396	0.015404
C67	C	-0.259795	0.875614	0.060629
C68	C	0.211222	0.929324	0.015399
C69	C	0.255476	0.929306	0.015395
C70	C	0.260359	0.821740	0.105831
C71	C	0.216111	0.821753	0.105831
C72	C	0.191542	0.875552	0.060614
O73	O	0.148195	0.776041	0.144239
O74	O	0.139100	0.975097	-0.023035
C75	C	-0.058695	0.929380	0.015417
C76	C	-0.078376	0.875605	0.060636
C77	C	-0.053807	0.821820	0.105851
C78	C	-0.122623	0.875607	0.060634
C79	C	-0.147191	0.929392	0.015420
C80	C	-0.127512	0.983175	-0.029793
C81	C	-0.083264	0.983165	-0.029797
C82	C	-0.073486	0.768038	0.151063
C83	C	-0.117734	0.768051	0.151063
C84	C	-0.142303	0.821836	0.105849
C85	C	0.604622	0.875606	0.060622
C86	C	0.651711	0.875618	0.060624
C87	C	0.471413	0.349313	0.162610
C88	C	0.471098	0.265581	0.156817
C89	C	0.463616	0.272677	0.018892
C90	C	0.463931	0.356409	0.024684
C91	C	0.467828	0.394725	0.096547
C92	C	0.468139	0.478463	0.102342
C93	C	0.460661	0.485553	-0.035586
C94	C	0.460346	0.401821	-0.041379
C95	C	0.466864	1.138145	0.078793
C96	C	0.467199	1.227260	0.084961
C97	C	0.541827	0.803474	-0.537755
C98	C	0.537514	0.807569	-0.617392
C99	C	0.434809	0.905066	-0.512772
C100	C	0.439122	0.900972	-0.433135
C101	C	0.492633	0.850173	-0.445632
C102	C	0.496946	0.846073	-0.365994
C103	C	0.394242	0.943575	-0.261375
C104	C	0.389928	0.947670	-0.341012
C105	C	0.479413	0.862722	0.310341
C106	C	0.484006	0.858362	0.395095
C107	C	0.328120	1.138109	0.078788
C108	C	0.281366	1.227212	0.084954
C109	C	0.340668	0.862686	0.310336
C110	C	0.298173	0.858314	0.395088
C111	C	0.341655	1.125262	0.328511
C112	C	0.299495	1.210005	0.419432
C113	C	0.590100	0.625878	-0.207277
C114	C	0.632260	0.541135	-0.298198
C115	C	0.603635	0.613030	0.042447
C116	C	0.650389	0.523927	0.036280
C117	C	0.591087	0.888453	-0.189101
C118	C	0.633582	0.892825	-0.273853
C119	C	0.256574	1.220292	0.035529
C120	C	0.212649	1.304007	0.041305
C121	C	0.193514	1.394641	0.096511
C122	C	0.218311	1.401559	0.145937
C123	C	0.262238	1.317845	0.140156
C124	C	0.281053	0.905024	0.487209
C125	C	0.241131	0.900912	0.566850
C126	C	0.218327	0.850094	0.554368
C127	C	0.235451	0.803378	0.462237
C128	C	0.275375	0.807485	0.382597
C129	C	0.277246	1.303591	0.416916
C130	C	0.237638	1.383225	0.502338
C131	C	0.220276	1.369270	0.590276
C132	C	0.242530	1.275673	0.592790
C133	C	0.282140	1.196042	0.507369
C134	C	0.654514	0.447548	-0.295681
C135	C	0.694136	0.367914	-0.381104
C136	C	0.711500	0.381869	-0.469042
C137	C	0.689244	0.475466	-0.471556
C138	C	0.649626	0.555098	-0.386134
C139	C	0.675185	0.530847	0.085697
C140	C	0.719121	0.447133	0.079899
C141	C	0.738257	0.356500	0.024690
C142	C	0.713459	0.349581	-0.024732
C143	C	0.669526	0.433295	-0.018940
C144	C	0.656374	0.943652	-0.261341
C145	C	0.696297	0.947779	-0.340965
C146	C	0.713430	0.901073	-0.433102
C147	C	0.690634	0.850245	-0.445613
C148	C	0.650709	0.846125	-0.365989
H149	H	0.271499	0.973099	-0.021434
O150	O	0.625629	0.656044	-0.388839
H151	H	0.578814	0.694902	-0.352082
O152	O	0.197671	1.499317	0.205478
H153	H	0.181605	1.503980	0.281018
O154	O	0.295966	1.318664	0.322078
H155	H	0.327245	1.247576	0.263091
O156	O	0.341176	0.993947	-0.162011
H157	H	0.315924	1.072327	-0.148461
O158	O	0.459419	0.231332	-0.058615
H159	H	0.456984	0.276971	-0.103589
H160	H	0.743760	0.317020	-0.538591
H161	H	0.457740	0.522539	-0.089377
H162	H	0.216877	0.762002	0.452087
H163	H	0.188023	1.434119	0.659825
O164	O	0.599541	0.748679	-0.551232
H165	H	0.603758	0.690259	-0.521212
O166	O	0.474964	0.216598	0.228070
H167	H	0.436606	0.214726	0.267840
O168	O	0.654555	0.628593	0.145246
H169	H	0.619836	0.685653	0.140987
H170	H	0.228388	1.264325	0.664401
O171	O	0.734103	0.251823	-0.084280
H172	H	0.728127	0.208695	-0.037849
O173	O	0.288965	1.325321	0.193488
H174	H	0.334970	1.292184	0.141809
H175	H	0.739305	0.452785	0.120150
O176	O	0.472338	0.519796	0.179852
H177	H	0.511052	0.521334	0.146676
O178	O	0.305648	0.959833	0.500683
H179	H	0.287036	0.991608	0.578126
O180	O	0.306124	1.095101	0.510087
H181	H	0.287387	1.098785	0.585590
O182	O	0.785627	0.266209	0.018476
H183	H	0.799643	0.286257	0.062135
H184	H	0.577572	0.769543	-0.692401
O185	O	0.085757	0.710035	0.199857
H186	H	0.104092	0.632682	0.166231
H187	H	0.649338	0.427646	-0.059179
H188	H	0.642430	0.981685	-0.186325
H189	H	0.704590	0.812220	-0.520642
H190	H	0.712251	0.291711	-0.379039
H191	H	0.157745	1.462799	0.101211
H192	H	0.714854	0.989166	-0.330760
H193	H	0.391243	0.946435	-0.502614
O194	O	0.194881	0.763749	0.154603
H195	H	0.219399	0.726351	0.186046
H196	H	0.346361	0.989032	-0.330850
H197	H	0.745941	0.904436	-0.497929
O198	O	0.293783	0.757123	0.283273
H199	H	0.340278	0.702407	0.240662
O200	O	0.222656	0.951319	0.666215
H201	H	0.245213	0.987362	0.661508
H202	H	0.185818	0.846757	0.619224
H203	H	0.219523	1.459429	0.500275
H204	H	0.632156	0.804732	-0.376191
H205	H	0.640379	0.436167	-0.224086
O206	O	0.554658	0.791288	-0.379463
H207	H	0.588140	0.759513	-0.456904
O208	O	0.185906	1.296537	-0.012004
H209	H	0.167118	1.254435	0.013380
H210	H	0.703386	0.486817	-0.543165
O211	O	0.277213	1.122544	-0.024031
H212	H	0.241570	1.112564	0.003538
O213	O	0.184730	0.987338	-0.033380
H214	H	0.205860	1.024716	-0.064830
H215	H	-0.067243	1.026957	-0.066622
O216	O	0.070703	1.041144	-0.078584
H217	H	0.035388	1.118492	-0.044941
O218	O	-0.021258	1.041151	-0.078588
H219	H	-0.000129	1.078530	-0.110034
H220	H	-0.348620	0.973196	-0.021410
O221	O	-0.263137	0.987406	-0.033364
H222	H	-0.287660	1.024806	-0.064799
H223	H	-0.259478	0.778033	0.142671
O224	O	-0.344926	0.763789	0.154571
H225	H	-0.320403	0.726388	0.186005
H226	H	-0.001009	0.724235	0.187904
H227	H	-0.147521	1.026965	-0.066613
O228	O	0.286833	0.763786	0.154658
H229	H	0.320894	0.772849	0.147084
H230	H	-0.133751	0.724248	0.187886
H231	H	0.474581	0.380516	0.221128
O232	O	-0.046985	0.710015	0.199823
H233	H	-0.068104	0.672616	0.231251
H234	H	0.457175	0.370612	-0.099890
