data_functionalizedCrystal
_audit_creation_method	'MofGen! by Chris Wilmer'
_symmetry_space_group_name_H-M	'P1'
_symmetry_Int_Tables_number	1
_symmetry_cell_setting	triclinic
loop_
_symmetry_equiv_pos_as_xyz
  x,y,z
_cell_length_a	21.295420
_cell_length_b	21.295417
_cell_length_c	12.594509
_cell_angle_alpha	90.035198
_cell_angle_beta	90.021067
_cell_angle_gamma	90.025484
loop_
_atom_site_label
_atom_site_type_symbol
_atom_site_fract_x
_atom_site_fract_y
_atom_site_fract_z
Zn1	Zn	0.962337	-0.250661	0.601801
Zn2	Zn	1.462337	0.249339	1.101801
Zn3	Zn	0.962247	-0.355940	0.423801
Zn4	Zn	1.462247	0.144060	0.923801
Zn5	Zn	0.857067	-0.250681	0.423831
Zn6	Zn	1.357067	0.249319	0.923831
Zn7	Zn	0.857031	-0.355889	0.601732
Zn8	Zn	1.357031	0.144111	1.101732
O9	O	0.909671	-0.303293	0.512791
O10	O	1.409671	0.196707	1.012791
O11	O	1.050414	-0.264640	0.578205
O12	O	1.550414	0.235360	1.078205
O13	O	0.948272	-0.342006	0.274859
O14	O	1.448272	0.157994	0.774859
O15	O	0.871083	-0.162589	0.447480
O16	O	1.371083	0.337411	0.947480
O17	O	1.050349	-0.341988	0.447429
O18	O	1.550349	0.158012	0.947429
O19	O	0.948425	-0.162574	0.578234
O20	O	1.448425	0.337426	1.078234
O21	O	0.870996	-0.264673	0.274881
O22	O	1.370996	0.235327	0.774881
O23	O	0.768973	-0.264623	0.447413
O24	O	1.268973	0.235377	0.947413
O25	O	0.871023	-0.341900	0.750687
O26	O	1.371023	0.158100	1.250687
O27	O	0.768946	-0.341919	0.578116
O28	O	1.268946	0.158081	1.078116
O29	O	0.948391	-0.264590	0.750738
O30	O	1.448391	0.235410	1.250738
O31	O	0.948238	-0.444022	0.447362
O32	O	1.448238	0.055978	0.947362
O33	O	0.870936	-0.443985	0.578087
O34	O	1.370936	0.056015	1.078087
C35	C	0.746119	-0.303268	0.512761
C36	C	1.246119	0.196732	1.012761
C37	C	0.676151	-0.303273	0.512773
C38	C	1.176151	0.196727	1.012773
C39	C	0.176726	-0.263112	0.581013
C40	C	0.676726	0.236888	1.081013
C41	C	0.242469	-0.263108	0.581013
C42	C	0.742469	0.236892	1.081013
C43	C	0.275311	-0.303312	0.512816
C44	C	0.775311	0.196688	1.012816
C45	C	0.242406	-0.343535	0.444633
C46	C	0.742406	0.156465	0.944633
C47	C	0.176665	-0.343543	0.444643
C48	C	0.676665	0.156457	0.944643
N49	N	0.378505	-0.308061	0.419617
N50	N	0.878505	0.191939	0.919617
N51	N	0.440956	-0.308050	0.419611
N52	N	0.940956	0.191950	0.919611
C53	C	0.473386	-0.303291	0.512785
C54	C	0.973386	0.196709	1.012785
N55	N	0.441005	-0.298531	0.605967
N56	N	0.941005	0.201469	1.105967
N57	N	0.378548	-0.298539	0.605971
N58	N	0.878548	0.201461	1.105971
C59	C	0.346597	-0.303308	0.512798
C60	C	0.846597	0.196692	1.012798
C61	C	0.577569	-0.263069	0.580968
C62	C	1.077569	0.236931	1.080968
C63	C	0.643313	-0.263068	0.580970
C64	C	1.143313	0.236932	1.080970
C65	C	0.643249	-0.343492	0.444581
C66	C	1.143249	0.156508	0.944581
C67	C	0.577506	-0.343495	0.444589
C68	C	1.077506	0.156505	0.944589
C69	C	0.544670	-0.303280	0.512781
C70	C	1.044670	0.196720	1.012781
C71	C	0.909590	-0.466844	0.512737
C72	C	1.409590	0.033156	1.012737
C73	C	0.909614	-0.536812	0.512750
C74	C	1.409614	-0.036812	1.012750
C75	C	0.949862	-0.569614	0.580882
C76	C	1.449862	-0.069614	1.080882
C77	C	0.949885	-0.635357	0.580908
C78	C	1.449885	-0.135357	1.080908
C79	C	0.909665	-0.668295	0.512783
C80	C	1.409665	-0.168295	1.012783
C81	C	0.869408	-0.635485	0.444646
C82	C	1.369408	-0.135485	0.944646
C83	C	0.869382	-0.569744	0.444629
C84	C	1.369382	-0.069744	0.944629
N85	N	0.904909	-0.771561	0.419633
N86	N	1.404909	-0.271561	0.919633
N87	N	0.904936	-0.834012	0.419652
N88	N	1.404936	-0.334012	0.919652
C89	C	0.909738	-0.866369	0.512831
C90	C	1.409738	-0.366369	1.012831
N91	N	0.914523	-0.833916	0.605993
N92	N	1.414523	-0.333916	1.105993
N93	N	0.914498	-0.771459	0.605973
N94	N	1.414498	-0.271459	1.105973
C95	C	0.909688	-0.739580	0.512794
C96	C	1.409688	-0.239580	1.012794
C97	C	0.950013	-0.970457	0.580998
C98	C	1.450013	-0.470457	1.080998
C99	C	0.950031	-1.036201	0.581026
C100	C	1.450031	-0.536201	1.081026
C101	C	0.869558	-1.036327	0.444754
C102	C	1.369558	-0.536327	0.944754
C103	C	0.869537	-0.970585	0.444736
C104	C	1.369537	-0.470585	0.944736
C105	C	0.909768	-0.937654	0.512856
C106	C	1.409768	-0.437654	1.012856
C107	C	1.073861	-0.303317	0.512822
C108	C	1.573861	0.196683	1.012822
C109	C	1.143829	-0.303328	0.512835
C110	C	1.643829	0.196672	1.012835
C111	C	0.909713	-0.303237	0.790412
C112	C	1.409713	0.196763	1.290412
C113	C	0.909731	-0.303214	0.908718
C114	C	1.409731	0.196786	1.408718
C115	C	0.909768	-0.139102	0.512868
C116	C	1.409768	0.360898	1.012868
C117	C	0.909810	-0.069134	0.512901
C118	C	1.409810	0.430866	1.012901
C119	C	0.909665	-0.303302	0.236250
C120	C	1.409665	0.196698	0.736250
C121	C	0.909769	-0.303148	0.117945
C122	C	1.409769	0.196852	0.617945
C123	C	0.867664	-0.345239	0.977943
C124	C	1.367664	0.154761	1.477943
C125	C	0.925099	-0.360624	1.048730
C126	C	1.425099	0.139376	1.548730
C127	C	0.852340	-0.287791	1.048730
C128	C	1.352340	0.212209	1.548730
C129	C	0.967196	-0.318629	0.977946
C130	C	1.467196	0.181371	1.477946
C131	C	0.894399	-0.245769	0.977940
C132	C	1.394399	0.254231	1.477940
C133	C	0.951874	-0.261132	1.048695
C134	C	1.451874	0.238868	1.548695
H135	H	0.550833	-0.230323	0.636494
H136	H	1.050833	0.269677	1.136494
C137	C	0.140611	-0.218880	0.656035
C138	C	0.640611	0.281120	1.156035
N139	N	0.113408	-0.185565	0.712546
N140	N	0.613408	0.314435	1.212546
H141	H	0.832117	-0.380834	0.946879
H142	H	1.332117	0.119166	1.446879
H143	H	0.550720	-0.376240	0.389066
H144	H	1.050720	0.123760	0.889066
C145	C	0.825306	-1.072555	0.369830
C146	C	1.325306	-0.572555	0.869830
N147	N	0.791971	-1.099846	0.313402
N148	N	1.291971	-0.599846	0.813402
C149	C	0.942645	-0.426214	1.090744
C150	C	1.442645	0.073786	1.590744
N151	N	0.955856	-0.475617	1.122386
N152	N	1.455856	0.024383	1.622386
C153	C	1.032803	-0.336295	0.936122
C154	C	1.532803	0.163705	1.436122
N155	N	1.082217	-0.349604	0.904617
N156	N	1.582217	0.150396	1.404617
H157	H	0.987506	-0.225565	1.079564
H158	H	1.487506	0.274435	1.579564
C159	C	0.876827	-0.180199	0.935892
C160	C	1.376827	0.319801	1.435892
N161	N	0.863585	-0.130811	0.904218
N162	N	1.363585	0.369189	1.404218
C163	C	0.825190	-0.671718	0.369667
C164	C	1.325190	-0.171718	0.869667
N165	N	0.791892	-0.699009	0.313178
N166	N	1.291892	-0.199009	0.813178
H167	H	0.803790	-0.274774	1.079823
H168	H	1.303790	0.225226	1.579823
C169	C	0.825101	-0.533660	0.369679
C170	C	1.325101	-0.033660	0.869679
N171	N	0.791748	-0.506481	0.313226
N172	N	1.291748	-0.006481	0.813226
H173	H	0.982770	-0.943643	0.636469
H174	H	1.482770	-0.443643	1.136469
H175	H	0.269259	-0.230357	0.636530
H176	H	0.769259	0.269643	1.136530
C177	C	0.140476	-0.387779	0.369630
C178	C	0.640476	0.112221	0.869630
N179	N	0.113218	-0.421097	0.313125
N180	N	0.613218	0.078903	0.813125
C181	C	0.278534	-0.387757	0.369612
C182	C	0.778534	0.112243	0.869612
N183	N	0.305745	-0.421066	0.313105
N184	N	0.805745	0.078934	0.813105
H185	H	0.670097	-0.230322	0.636496
H186	H	1.170097	0.269678	1.136496
H187	H	0.669988	-0.376232	0.389062
H188	H	1.169988	0.123768	0.889062
H189	H	0.836765	-0.943876	0.389251
H190	H	1.336765	-0.443876	0.889251
H191	H	0.982655	-0.662069	0.636402
H192	H	1.482655	-0.162069	1.136402
C193	C	0.994121	-0.533394	0.655811
C194	C	1.494121	-0.033394	1.155811
N195	N	1.027459	-0.506111	0.712245
N196	N	1.527459	-0.006111	1.212245
C197	C	0.994313	-1.072283	0.655976
C198	C	1.494313	-0.572283	1.155976
N199	N	1.027670	-1.099460	0.712426
N200	N	1.527670	-0.599460	1.212426
