data_functionalizedCrystal
_audit_creation_method	'MofGen! by Chris Wilmer'
_symmetry_space_group_name_H-M	'P1'
_symmetry_Int_Tables_number	1
_symmetry_cell_setting	triclinic
loop_
_symmetry_equiv_pos_as_xyz
  x,y,z
_cell_length_a	19.288864
_cell_length_b	9.065218
_cell_length_c	18.366186
_cell_angle_alpha	89.995673
_cell_angle_beta	89.977106
_cell_angle_gamma	84.076066
loop_
_atom_site_label
_atom_site_type_symbol
_atom_site_fract_x
_atom_site_fract_y
_atom_site_fract_z
O1	O	0.922782	0.184031	-0.060781
O2	O	0.720714	0.208857	-0.060731
O3	O	0.825924	-0.018345	-0.060755
O4	O	0.817571	0.411233	-0.060756
O5	O	0.825906	-0.018356	0.060344
O6	O	0.720696	0.208846	0.060369
O7	O	0.922763	0.184020	0.060319
Zn8	Zn	0.821727	0.196431	0.079571
Zn9	Zn	0.821751	0.196446	-0.079983
O10	O	0.817553	0.411222	0.060343
C11	C	0.694822	0.208053	-0.000174
C12	C	0.617700	0.205655	-0.000155
C13	C	0.574039	0.338966	-0.000167
C14	C	0.501574	0.336713	-0.000175
C15	C	0.472774	0.201142	-0.000186
C16	C	0.516445	0.067812	-0.000170
C17	C	0.588908	0.070069	-0.000155
C18	C	0.363691	0.094571	-0.042637
C19	C	0.291229	0.092320	-0.042657
C20	C	0.249274	0.194176	-0.000230
C21	C	0.279789	0.298308	0.042207
C22	C	0.352252	0.300565	0.042222
C23	C	0.394201	0.198680	-0.000202
C24	C	0.127038	0.325054	-0.000250
C25	C	0.054572	0.322796	-0.000253
C26	C	0.069445	0.053891	-0.000256
C27	C	0.141909	0.056153	-0.000245
C28	C	0.170701	0.191739	-0.000245
C29	C	0.825112	-0.073309	-0.000206
C30	C	0.822712	-0.237067	-0.000209
C31	C	0.948655	0.184825	-0.000239
C32	C	1.025777	0.187223	-0.000263
C33	C	0.818365	0.466186	-0.000207
C34	C	0.820765	0.629945	-0.000209
N35	N	0.821715	0.196420	0.188462
N36	N	0.821767	0.196445	-0.188874
C37	C	0.868318	0.095865	0.226552
C38	C	0.868323	0.095858	0.302779
C39	C	0.821731	0.196433	0.340915
C40	C	0.775119	0.296996	0.302816
C41	C	0.775111	0.296990	0.226590
C42	C	0.813476	0.330848	0.461676
C43	C	0.813489	0.330856	0.537901
C44	C	0.821751	0.196451	0.576022
C45	C	0.830015	0.062032	0.537909
C46	C	0.830007	0.062026	0.461683
C47	C	0.821734	0.196450	0.423570
C48	C	0.868361	0.095880	0.696767
C49	C	0.868361	0.095871	0.772996
C50	C	0.775160	0.297022	0.773031
C51	C	0.775157	0.297018	0.696803
C52	C	0.821761	0.196448	0.658676
H53	H	0.045997	-0.056494	-0.000310
C54	C	0.385821	0.415087	0.088902
H55	H	0.434984	0.401844	0.082829
H56	H	0.374635	0.401748	0.138685
H57	H	0.368559	0.512329	0.073980
C58	C	0.839108	-0.085826	0.579828
H59	H	0.844034	-0.165875	0.546213
H60	H	0.799376	-0.093807	0.609586
H61	H	0.879538	-0.089018	0.609542
H62	H	0.806764	0.440308	0.568927
H63	H	0.245631	0.381248	0.076755
H64	H	0.177459	-0.052404	-0.000239
H65	H	0.737221	0.378906	0.804081
C66	C	0.804393	0.478704	0.419750
H67	H	0.799484	0.558756	0.453364
H68	H	0.763969	0.481917	0.390033
H69	H	0.844133	0.486662	0.389996
C70	C	0.919612	-0.014755	0.654820
H71	H	0.912938	-0.000346	0.603966
H72	H	0.911450	-0.113169	0.667322
H73	H	0.966069	0.001017	0.667287
C74	C	0.919597	-0.014717	0.184612
H75	H	0.912929	-0.000302	0.133758
H76	H	0.911464	-0.113154	0.197104
H77	H	0.966044	0.001118	0.197091
H78	H	0.906274	0.013971	0.333798
C79	C	0.257669	-0.022223	-0.089331
H80	H	0.293033	-0.082581	-0.114585
H81	H	0.226600	0.027887	-0.123456
H82	H	0.232679	-0.082668	-0.058741
C83	C	0.158713	0.474188	-0.000243
H84	H	0.122328	0.553264	-0.000240
H85	H	0.186693	0.480664	-0.042468
H86	H	0.186649	0.480652	0.041997
H87	H	0.466018	0.445275	-0.000183
H88	H	0.906308	0.013979	0.804009
C89	C	0.409834	-0.017467	-0.089316
H90	H	0.381283	-0.079786	-0.114601
H91	H	0.441382	-0.076162	-0.058730
H92	H	0.435295	0.034442	-0.123426
C93	C	0.723871	0.407629	0.344762
H94	H	0.730555	0.393242	0.395615
H95	H	0.677417	0.391858	0.332298
H96	H	0.732034	0.506049	0.332257
H97	H	0.737211	0.378905	0.665789
H98	H	0.019024	0.431359	-0.000258
C99	C	0.723851	0.407616	0.184690
H100	H	0.696104	0.467521	0.218316
H101	H	0.694606	0.354706	0.154968
H102	H	0.749224	0.468896	0.154941
H103	H	0.624457	-0.038493	-0.000146
C104	C	0.605706	0.488104	-0.000154
H105	H	0.569320	0.567177	-0.000155
H106	H	0.633692	0.494587	-0.042375
H107	H	0.633637	0.494564	0.042090
H108	H	0.492991	-0.042571	-0.000189
H109	H	0.836734	-0.047423	0.430654
