data_functionalizedCrystal
_audit_creation_method	'MofGen! by Chris Wilmer'
_symmetry_space_group_name_H-M	'P1'
_symmetry_Int_Tables_number	1
_symmetry_cell_setting	triclinic
loop_
_symmetry_equiv_pos_as_xyz
  x,y,z
_cell_length_a	10.654550
_cell_length_b	16.109301
_cell_length_c	14.586319
_cell_angle_alpha	89.994786
_cell_angle_beta	89.992968
_cell_angle_gamma	83.973192
loop_
_atom_site_label
_atom_site_type_symbol
_atom_site_fract_x
_atom_site_fract_y
_atom_site_fract_z
O1	O	1.666255	0.116773	-0.076319
O2	O	2.166255	0.616773	0.423681
O3	O	1.300626	0.127898	-0.076305
O4	O	1.800626	0.627898	0.423695
O5	O	1.493485	0.001364	-0.076303
O6	O	1.993485	0.501364	0.423697
O7	O	1.473397	0.243307	-0.076321
O8	O	1.973397	0.743307	0.423679
O9	O	1.493472	0.001362	0.076178
O10	O	1.993472	0.501362	0.576178
O11	O	1.300613	0.127896	0.076176
O12	O	1.800613	0.627896	0.576176
O13	O	1.666242	0.116771	0.076162
O14	O	2.166242	0.616771	0.576162
Cu15	Cu	1.483426	0.122333	0.090092
Cu16	Cu	1.983426	0.622333	0.590092
Cu17	Cu	1.483442	0.122336	-0.090234
Cu18	Cu	1.983442	0.622336	0.409766
O19	O	1.473383	0.243305	0.076160
O20	O	1.973383	0.743305	0.576160
C21	C	1.492665	-0.029616	-0.000062
C22	C	1.992665	0.470384	0.499938
C23	C	1.490225	-0.121926	-0.000061
C24	C	1.990225	0.378074	0.499939
C25	C	1.253832	0.127080	-0.000062
C26	C	1.753832	0.627080	0.499938
C27	C	1.114422	0.124636	-0.000056
C28	C	1.614422	0.624636	0.499944
C29	C	1.598991	-0.343552	-0.000079
C30	C	2.098991	0.156448	0.499921
C31	C	1.596689	-0.430286	-0.000087
C32	C	2.096689	0.069714	0.499913
C33	C	1.367868	-0.411772	-0.000074
C34	C	1.867868	0.088228	0.499926
C35	C	1.370172	-0.325040	-0.000073
C36	C	1.870172	0.174960	0.499927
C37	C	1.485737	-0.290932	-0.000071
C38	C	1.985737	0.209068	0.499929
C39	C	1.481131	-0.464399	-0.000080
C40	C	1.981131	0.035601	0.499920
C41	C	1.478634	-0.558440	-0.000088
C42	C	1.978634	-0.058440	0.499912
C43	C	1.488234	-0.196885	-0.000065
C44	C	1.988234	0.303115	0.499935
C45	C	1.033926	0.199138	-0.000075
C46	C	1.533926	0.699138	0.499925
C47	C	0.902936	0.196836	-0.000091
C48	C	1.402936	0.696836	0.499909
C49	C	0.932952	0.045526	-0.000073
C50	C	1.432952	0.545526	0.499927
C51	C	1.063939	0.047828	-0.000050
C52	C	1.563939	0.547828	0.499950
C53	C	1.084409	0.275946	-0.000081
C54	C	1.584409	0.775946	0.499919
C55	C	1.003911	0.350453	-0.000101
C56	C	1.503911	0.850453	0.499899
C57	C	0.872921	0.348152	-0.000117
C58	C	1.372921	0.848152	0.499883
C59	C	0.822430	0.271343	-0.000113
C60	C	1.322430	0.771343	0.499887
C61	C	1.713036	0.117589	-0.000083
C62	C	2.213036	0.617589	0.499917
C63	C	1.852446	0.120033	-0.000094
C64	C	2.352446	0.620033	0.499906
C65	C	1.474204	0.274286	-0.000083
C66	C	1.974204	0.774286	0.499917
C67	C	1.476643	0.366595	-0.000090
C68	C	1.976643	0.866595	0.499910
N69	N	1.483424	0.122331	0.216923
N70	N	1.983424	0.622331	0.716923
N71	N	1.483454	0.122331	-0.217066
N72	N	1.983454	0.622331	0.282934
C73	C	1.568850	0.066321	0.451931
C74	C	2.068850	0.566321	0.951931
C75	C	1.568854	0.066319	0.547912
C76	C	2.068854	0.566319	1.047912
C77	C	1.398019	0.178344	0.547920
C78	C	1.898019	0.678344	1.047920
C79	C	1.398010	0.178341	0.451940
C80	C	1.898010	0.678341	0.951940
C81	C	1.483433	0.122331	0.403948
C82	C	1.983433	0.622331	0.903948
C83	C	1.483445	0.122332	0.595909
C84	C	1.983445	0.622332	1.095909
C85	C	1.483448	0.122330	0.699976
C86	C	1.983448	0.622330	1.199976
C87	C	1.483428	0.122331	0.299874
C88	C	1.983428	0.622331	0.799874
H89	H	1.693091	-0.315785	-0.000080
H90	H	2.193091	0.184215	0.499920
H91	H	1.273779	-0.439553	-0.000074
H92	H	1.773779	0.060447	0.499926
Cl93	Cl	1.227783	-0.258884	-0.000071
Cl94	Cl	1.727783	0.241116	0.499929
Cl95	Cl	1.739073	-0.496434	-0.000099
Cl96	Cl	2.239073	0.003566	0.499901
Cl97	Cl	1.290614	0.248755	0.391614
Cl98	Cl	1.790614	0.748755	0.891614
Cl99	Cl	0.869475	-0.051027	-0.000072
Cl100	Cl	1.369475	0.448973	0.499928
Cl101	Cl	1.067385	0.447007	-0.000096
Cl102	Cl	1.567385	0.947007	0.499904
Cl103	Cl	1.249080	0.278844	-0.000066
Cl104	Cl	1.749080	0.778844	0.499934
H105	H	0.807383	0.408819	-0.000124
H106	H	1.307383	0.908819	0.499876
Cl107	Cl	0.657755	0.268453	-0.000119
Cl108	Cl	1.157755	0.768453	0.499881
H109	H	1.129482	-0.012837	-0.000038
H110	H	1.629482	0.487163	0.499962
Cl111	Cl	1.676234	-0.004095	0.391602
Cl112	Cl	2.176234	0.495905	0.891602
H113	H	1.638407	0.020710	0.586977
H114	H	2.138407	0.520710	1.086977
H115	H	1.328471	0.223948	0.587005
H116	H	1.828471	0.723948	1.087005
