data_functionalizedCrystal
_audit_creation_method	'MofGen! by Chris Wilmer'
_symmetry_space_group_name_H-M	'P1'
_symmetry_Int_Tables_number	1
_symmetry_cell_setting	triclinic
loop_
_symmetry_equiv_pos_as_xyz
  x,y,z
_cell_length_a	19.805407
_cell_length_b	29.839131
_cell_length_c	19.805399
_cell_angle_alpha	89.969027
_cell_angle_beta	89.984884
_cell_angle_gamma	90.038737
loop_
_atom_site_label
_atom_site_type_symbol
_atom_site_fract_x
_atom_site_fract_y
_atom_site_fract_z
Zn1	Zn	1.034647	-0.178890	-0.382678
Zn2	Zn	1.034538	-0.254019	-0.269486
Zn3	Zn	0.921467	-0.178900	-0.269506
Zn4	Zn	0.921396	-0.253990	-0.382636
O5	O	0.978012	-0.216450	-0.326077
O6	O	1.129349	-0.188864	-0.367672
O7	O	1.019523	-0.244071	-0.174772
O8	O	0.936556	-0.116032	-0.284545
O9	O	1.129269	-0.244061	-0.284510
O10	O	1.019709	-0.116024	-0.367692
O11	O	0.936450	-0.188882	-0.174787
O12	O	0.826741	-0.188853	-0.284504
O13	O	0.936435	-0.244011	-0.477359
O14	O	0.826689	-0.244021	-0.367620
O15	O	1.019640	-0.188835	-0.477389
O16	O	1.019453	-0.316882	-0.284470
O17	O	0.936328	-0.316861	-0.367601
C18	C	0.802156	-0.216436	-0.326060
C19	C	0.726924	-0.216441	-0.326069
C20	C	0.691622	-0.187750	-0.369438
C21	C	0.620934	-0.187752	-0.369440
C22	C	0.585548	-0.216448	-0.326078
C23	C	0.620855	-0.245139	-0.282705
C24	C	0.691542	-0.245135	-0.282699
C25	C	0.335782	-0.245160	-0.282725
C26	C	0.265089	-0.245163	-0.282736
C27	C	0.265173	-0.187778	-0.369466
C28	C	0.335860	-0.187773	-0.369461
C29	C	0.371161	-0.216462	-0.326086
C30	C	0.447809	-0.216459	-0.326083
C31	C	0.508901	-0.216454	-0.326084
C32	C	0.977890	-0.333172	-0.326043
C33	C	0.977899	-0.383107	-0.326052
C34	C	1.021374	-0.692749	-0.282854
C35	C	1.021457	-0.880422	-0.282880
O36	O	1.058324	-0.904685	-0.246126
N37	N	0.978152	-0.903892	-0.326128
C38	C	0.934826	-0.880441	-0.369375
O39	O	0.898000	-0.904710	-0.406166
C40	C	0.934747	-0.692769	-0.369352
C41	C	0.978050	-0.669301	-0.326096
C42	C	1.064674	-0.669281	-0.239602
C43	C	1.064650	-0.622366	-0.239594
C44	C	1.021326	-0.598918	-0.282836
C45	C	0.978026	-0.622385	-0.326088
C46	C	0.891425	-0.669318	-0.412602
C47	C	0.891410	-0.622397	-0.412594
C48	C	0.934713	-0.598930	-0.369338
C49	C	0.934678	-0.552022	-0.369322
N50	N	0.977983	-0.528552	-0.326074
C51	C	1.021307	-0.552000	-0.282831
C52	C	0.934870	-0.978971	-0.369384
C53	C	0.934889	-1.025889	-0.369389
C54	C	1.021521	-1.025867	-0.282894
C55	C	1.021498	-0.978948	-0.282886
C56	C	0.978175	-0.955501	-0.326136
C57	C	1.021253	-0.453474	-0.282816
C58	C	1.021223	-0.406555	-0.282809
C59	C	0.934594	-0.406581	-0.369306
C60	C	0.934621	-0.453496	-0.369310
C61	C	0.977956	-0.476942	-0.326063
O62	O	0.897836	-0.527730	-0.406062
O63	O	1.058139	-0.527723	-0.246057
C64	C	1.021398	-0.739664	-0.282862
C65	C	0.978098	-0.763132	-0.326114
C66	C	0.934774	-0.739684	-0.369357
C67	C	0.978116	-0.810050	-0.326119
C68	C	1.021440	-0.833497	-0.282876
C69	C	1.064745	-0.810027	-0.239628
C70	C	1.064722	-0.763112	-0.239620
C71	C	0.891469	-0.763154	-0.412604
C72	C	0.891495	-0.810070	-0.412609
C73	C	0.934819	-0.833517	-0.369366
C74	C	1.154555	-0.216464	-0.326094
C75	C	1.229786	-0.216470	-0.326101
C76	C	0.978042	-0.216419	-0.502620
C77	C	0.978054	-0.216405	-0.577852
C78	C	0.978153	-0.099271	-0.326125
C79	C	0.978213	-0.049337	-0.326146
C80	C	0.934811	-0.187665	-0.613203
C81	C	0.934820	-0.187657	-0.683891
C82	C	0.978077	-0.216386	-0.719227
C83	C	1.021322	-0.245129	-0.683871
C84	C	1.021309	-0.245140	-0.613184
C85	C	1.021376	-0.245087	-0.968944
C86	C	1.021387	-0.245073	-1.039637
C87	C	0.934887	-0.187604	-1.039652
C88	C	0.934874	-0.187615	-0.968965
C89	C	0.978116	-0.216359	-0.933615
C90	C	0.978105	-0.216369	-0.856966
C91	C	0.978092	-0.216374	-0.795874
C92	C	0.978021	-0.216448	-0.150221
C93	C	0.978140	-0.216335	-0.074989
H94	H	0.720284	-0.268497	-0.247384
C95	C	0.581933	-0.276704	-0.235007
H96	H	0.534778	-0.272602	-0.241226
H97	H	0.593506	-0.270091	-0.189547
H98	H	0.593497	-0.306898	-0.244835
C99	C	0.226166	-0.276727	-0.235030
H100	H	0.257313	-0.293809	-0.209191
H101	H	0.198583	-0.296326	-0.260867
H102	H	0.198596	-0.259512	-0.205591
H103	H	1.099913	-0.603261	-0.204373
C104	C	1.068909	-0.276728	-0.722735
H105	H	1.094659	-0.293848	-0.691555
H106	H	1.098425	-0.259539	-0.750318
H107	H	1.042999	-0.296299	-0.750301
H108	H	0.899621	-1.044993	-0.404605
H109	H	1.056579	-0.268497	-0.940171
H110	H	0.364668	-0.164407	-0.404774
H111	H	0.899590	-0.959884	-0.404604
H112	H	1.099983	-0.744008	-0.204397
H113	H	1.056486	-0.387449	-0.247583
H114	H	0.592194	-0.164391	-0.404756
H115	H	0.899590	-0.164268	-0.584438
C116	C	0.886947	-0.380785	-0.416877
H117	H	0.861157	-0.401478	-0.442639
H118	H	0.912822	-0.362454	-0.446382
H119	H	0.857460	-0.362510	-0.390957
C120	C	0.374603	-0.276719	-0.235017
H121	H	0.343403	-0.293811	-0.209199
H122	H	0.402181	-0.259506	-0.205570
H123	H	0.402171	-0.296316	-0.260853
C124	C	0.843795	-0.695123	-0.460189
H125	H	0.818001	-0.674432	-0.485944
H126	H	0.814322	-0.713457	-0.434285
H127	H	0.869683	-0.713393	-0.489710
C128	C	0.843754	-0.596608	-0.460170
H129	H	0.817967	-0.617307	-0.485926
H130	H	0.869618	-0.578276	-0.489681
H131	H	0.814264	-0.578337	-0.434249
H132	H	1.056542	-0.472558	-0.247601
H133	H	0.899652	-0.164219	-0.940198
H134	H	1.056527	-0.268539	-0.584402
H135	H	0.720428	-0.164384	-0.404750
C136	C	1.112330	-0.695066	-0.192027
H137	H	1.138107	-0.674364	-0.166268
H138	H	1.141818	-0.713342	-0.217937
H139	H	1.086460	-0.713394	-0.162509
H140	H	1.056614	-0.268470	-1.068405
C141	C	0.887314	-0.155988	-1.078536
H142	H	0.861557	-0.138876	-1.047366
H143	H	0.857804	-0.173164	-1.106100
H144	H	0.913239	-0.136410	-1.106122
H145	H	0.236423	-0.164415	-0.404782
H146	H	1.056760	-0.959844	-0.247664
H147	H	1.056797	-1.044966	-0.247684
C148	C	0.886988	-0.479312	-0.416889
H149	H	0.861186	-0.458626	-0.442643
H150	H	0.857523	-0.497650	-0.390980
H151	H	0.912879	-0.497580	-0.446411
C152	C	1.112400	-0.835826	-0.192062
H153	H	1.106210	-0.867129	-0.198270
H154	H	1.102523	-0.828166	-0.146573
H155	H	1.157871	-0.828105	-0.202012
H156	H	0.856227	-0.829173	-0.447832
C157	C	0.887232	-0.156058	-0.722778
H158	H	0.893421	-0.160174	-0.769938
H159	H	0.897152	-0.125871	-0.711222
H160	H	0.841750	-0.162647	-0.711172
H161	H	0.856190	-0.744067	-0.447819
