data_functionalizedCrystal
_audit_creation_method	'MofGen! by Chris Wilmer'
_symmetry_space_group_name_H-M	'P1'
_symmetry_Int_Tables_number	1
_symmetry_cell_setting	triclinic
loop_
_symmetry_equiv_pos_as_xyz
  x,y,z
_cell_length_a	34.490303
_cell_length_b	34.489386
_cell_length_c	34.485816
_cell_angle_alpha	60.004462
_cell_angle_beta	60.008900
_cell_angle_gamma	59.994399
loop_
_atom_site_label
_atom_site_type_symbol
_atom_site_fract_x
_atom_site_fract_y
_atom_site_fract_z
O1	O	0.053846	-0.566517	0.473678
O2	O	0.553846	-0.066517	0.973678
O3	O	0.020329	-0.441078	0.381663
O4	O	0.520329	0.058922	0.881663
O5	O	0.099768	-0.520436	0.381578
O6	O	0.599768	-0.020436	0.881578
O7	O	-0.025592	-0.487159	0.473762
O8	O	0.474408	0.012841	0.973762
O9	O	0.126127	-0.494082	0.407849
O10	O	0.626127	0.005918	0.907849
O11	O	0.046689	-0.414724	0.407933
O12	O	0.546689	0.085276	0.907933
O13	O	0.080206	-0.540163	0.499949
O14	O	0.580206	-0.040163	0.999949
Zn15	Zn	0.067632	-0.473259	0.458112
Zn16	Zn	0.567632	0.026741	0.958112
Zn17	Zn	0.032903	-0.507982	0.423499
Zn18	Zn	0.532903	-0.007982	0.923499
O19	O	0.000767	-0.460805	0.500033
O20	O	0.500767	0.039195	1.000033
N21	N	0.091336	-0.449565	0.481736
N22	N	0.591336	0.050435	0.981736
N23	N	0.009203	-0.531680	0.399875
N24	N	0.509203	-0.031680	0.899875
C25	C	0.142510	-0.268211	0.532817
C26	C	0.642510	0.231789	1.032817
C27	C	0.142641	-0.398441	0.662987
C28	C	0.642641	0.101559	1.162987
C29	C	0.142524	-0.398421	0.532817
C30	C	0.642524	0.101579	1.032817
C31	C	0.272762	-0.398394	0.532723
C32	C	0.772762	0.101606	1.032723
C33	C	0.156853	-0.311177	0.547124
C34	C	0.656853	0.188823	1.047124
C35	C	0.156928	-0.384109	0.620020
C36	C	0.656928	0.115891	1.120020
C37	C	0.229794	-0.384081	0.547073
C38	C	0.729794	0.115919	1.047073
C39	C	0.156863	-0.384097	0.547124
C40	C	0.656863	0.115903	1.047124
C41	C	0.124253	-0.213522	0.514606
C42	C	0.624253	0.286478	1.014606
C43	C	0.124277	-0.416652	0.514606
C44	C	0.624277	0.083348	1.014606
C45	C	0.175110	-0.365866	0.565335
C46	C	0.675110	0.134134	1.065335
C47	C	0.352285	-0.384669	0.490824
C48	C	0.852285	0.115331	0.990824
C49	C	0.401998	-0.401229	0.474223
C50	C	0.901998	0.098771	0.974223
C51	C	0.402027	-0.481671	0.504898
C52	C	0.902027	0.018329	1.004898
C53	C	0.352316	-0.465109	0.521500
C54	C	0.852316	0.034891	1.021500
C55	C	0.136220	-0.188652	0.465734
C56	C	0.636220	0.311348	0.965734
C57	C	0.119621	-0.138936	0.449181
C58	C	0.619621	0.361064	0.949181
C59	C	0.079092	-0.138961	0.530374
C60	C	0.579092	0.361039	1.030374
C61	C	0.095691	-0.188678	0.546927
C62	C	0.595691	0.311322	1.046927
C63	C	0.075398	-0.404656	0.526651
C64	C	0.575398	0.095344	1.026651
C65	C	0.058814	-0.421229	0.510091
C66	C	0.558814	0.078771	1.010091
C67	C	0.139984	-0.461794	0.469452
C68	C	0.639984	0.038206	0.969452
C69	C	0.156570	-0.445221	0.486007
C70	C	0.656570	0.054779	0.986007
C71	C	0.075593	-0.404694	0.742565
C72	C	0.575593	0.095306	1.242565
C73	C	0.059066	-0.421281	0.792280
C74	C	0.559066	0.078719	1.292280
C75	C	0.140274	-0.461856	0.792215
C76	C	0.640274	0.038144	1.292215
C77	C	0.156800	-0.445269	0.742499
C78	C	0.656800	0.054731	1.242499
C79	C	0.124458	-0.416687	0.717675
C80	C	0.624458	0.083313	1.217675
C81	C	0.327446	-0.416608	0.514460
C82	C	0.827446	0.083392	1.014460
C83	C	-0.023585	-0.564792	0.161919
C84	C	0.476415	-0.064792	0.661919
C85	C	-0.023910	-0.769260	0.366530
C86	C	0.476090	-0.269260	0.866530
C87	C	-0.023880	-0.564780	0.366623
C88	C	0.476120	-0.064780	0.866623
C89	C	-0.228325	-0.564561	0.366222
C90	C	0.271675	-0.064561	0.866222
C91	C	-0.129610	-0.597564	0.333467
C92	C	0.370390	-0.097564	0.833467
C93	C	-0.056729	-0.597644	0.333613
C94	C	0.443271	-0.097644	0.833613
C95	C	-0.074925	-0.615849	0.315324
C96	C	0.425075	-0.115849	0.815324
C97	C	-0.088689	-0.695351	0.357144
C98	C	0.411311	-0.195351	0.857144
C99	C	-0.072155	-0.745068	0.373736
C100	C	0.427845	-0.245068	0.873736
C101	C	0.008283	-0.745150	0.343188
C102	C	0.508283	-0.245150	0.843188
C103	C	-0.008252	-0.695435	0.326596
C104	C	0.491748	-0.195435	0.826596
C105	C	-0.154529	-0.609541	0.382326
C106	C	0.345471	-0.109541	0.882326
C107	C	-0.204241	-0.592916	0.398818
C108	C	0.295759	-0.092916	0.898818
C109	C	-0.204114	-0.552341	0.317588
C110	C	0.295886	-0.052341	0.817588
C111	C	-0.154401	-0.568966	0.301096
C112	C	0.345599	-0.068966	0.801096
C113	C	-0.068707	-0.548770	0.321590
C114	C	0.431293	-0.048770	0.821590
C115	C	-0.052166	-0.532225	0.338221
C116	C	0.447834	-0.032225	0.838221
C117	C	-0.011669	-0.613425	0.378886
C118	C	0.488331	-0.113425	0.878886
C119	C	-0.028210	-0.629972	0.362261
C120	C	0.471790	-0.129972	0.862261
C121	C	-0.068581	-0.548777	0.235758
C122	C	0.431419	-0.048777	0.735758
C123	C	-0.051939	-0.532234	0.186043
C124	C	0.448061	-0.032234	0.686043
C125	C	-0.011379	-0.613438	0.186090
C126	C	0.488621	-0.113438	0.686090
C127	C	-0.028020	-0.629981	0.235806
C128	C	0.471980	-0.129981	0.735806
C129	C	-0.056622	-0.597649	0.260639
C130	C	0.443378	-0.097649	0.760639
C131	C	-0.056739	-0.670537	0.333576
C132	C	0.443261	-0.170537	0.833576
C133	C	-0.005614	-0.545951	0.107238
C134	C	0.494386	-0.045951	0.607238
C135	C	-0.006360	-0.823943	0.385033
C136	C	0.493640	-0.323943	0.885033
C137	C	-0.005995	-0.545937	0.384582
C138	C	0.494005	-0.045937	0.884582
C139	C	-0.283006	-0.545971	0.383725
C140	C	0.216994	-0.045971	0.883725
N141	N	0.426163	-0.449489	0.481488
N142	N	0.926163	0.050511	0.981488
O143	O	0.588601	-0.457377	0.364497
O144	O	1.088601	0.042623	0.864497
O145	O	0.588789	-0.549696	0.489801
O146	O	1.088789	-0.049696	0.989801
O147	O	0.588709	-0.549485	0.410335
O148	O	1.088709	-0.049485	0.910335
O149	O	0.588681	-0.457588	0.443963
O150	O	1.088681	0.042412	0.943963
O151	O	0.509731	-0.523223	0.436741
O152	O	1.009731	-0.023223	0.936741
O153	O	0.509811	-0.523434	0.516207
O154	O	1.009811	-0.023434	1.016207
O155	O	0.509624	-0.431115	0.390903
O156	O	1.009624	0.068885	0.890903
Zn157	Zn	0.497178	-0.473105	0.457747
Zn158	Zn	0.997178	0.026895	0.957747
Zn159	Zn	0.601234	-0.507706	0.422956
Zn160	Zn	1.101234	-0.007706	0.922956
O161	O	0.509704	-0.431326	0.470368
O162	O	1.009704	0.068674	0.970368
N163	N	0.672250	-0.531322	0.399211
N164	N	1.172250	-0.031322	0.899211
N165	N	0.091303	-0.114798	0.481730
N166	N	0.591303	0.385202	0.981730
O167	O	-0.025603	0.047729	0.473733
O168	O	0.474397	0.547729	0.973733
O169	O	0.099703	0.047764	0.381394
O170	O	0.599703	0.547764	0.881394
O171	O	0.020199	0.047731	0.381655
O172	O	0.520199	0.547731	0.881655
O173	O	0.053901	0.047761	0.473472
O174	O	0.553901	0.547761	0.973472
O175	O	0.046564	-0.031252	0.407974
O176	O	0.546564	0.468748	0.907974
O177	O	0.126068	-0.031219	0.407713
O178	O	0.626068	0.468781	0.907713
O179	O	0.000762	-0.031254	0.500052
O180	O	0.500762	0.468746	1.000052
Zn181	Zn	0.067601	-0.043777	0.458061
Zn182	Zn	0.567601	0.456223	0.958061
Zn183	Zn	0.032864	0.060287	0.423385
Zn184	Zn	0.532864	0.560287	0.923385
O185	O	0.080266	-0.031222	0.499791
O186	O	0.580266	0.468778	0.999791
N187	N	0.009156	0.131307	0.399717
N188	N	0.509156	0.631307	0.899717
N189	N	0.091635	-0.449614	0.816396
N190	N	0.591635	0.050386	1.316396
O191	O	0.083664	-0.566502	0.978913
O192	O	0.583664	-0.066502	1.478913
O193	O	-0.008637	-0.441152	0.978954
O194	O	0.491363	0.058848	1.478954
O195	O	-0.008421	-0.520640	0.978930
O196	O	0.491579	-0.020640	1.478930
O197	O	0.083448	-0.487013	0.978936
O198	O	0.583448	0.012987	1.478936
O199	O	0.017877	-0.494296	0.899950
O200	O	0.517877	0.005704	1.399950
O201	O	0.017661	-0.414807	0.899974
O202	O	0.517661	0.085193	1.399974
O203	O	0.109961	-0.540157	0.899933
O204	O	0.609961	-0.040157	1.399933
Zn205	Zn	0.067986	-0.473299	0.887414
Zn206	Zn	0.567986	0.026701	1.387414
Zn207	Zn	0.033338	-0.508010	0.991473
Zn208	Zn	0.533338	-0.008010	1.491473
O209	O	0.109746	-0.460669	0.899956
O210	O	0.609746	0.039331	1.399956
N211	N	0.009689	-0.531700	1.062491
N212	N	0.509689	-0.031700	1.562491
C213	C	0.030367	-0.412095	0.382120
C214	C	0.530367	0.087905	0.882120
C215	C	0.128741	-0.510370	0.382016
C216	C	0.628741	-0.010370	0.882016
C217	C	0.070168	-0.569147	0.499490
C218	C	0.570168	-0.069147	0.999490
C219	C	-0.028207	-0.470871	0.499595
C220	C	0.471793	0.029129	0.999595
C221	C	0.549323	-0.549278	0.518791
C222	C	1.049323	-0.049278	1.018791
C223	C	0.549225	-0.549017	0.420381
C224	C	1.049225	-0.049017	0.920381
C225	C	0.549087	-0.431532	0.361914
C226	C	1.049087	0.068468	0.861914
C227	C	0.549188	-0.431794	0.460322
C228	C	1.049188	0.068206	0.960322
C229	C	0.128638	0.008374	0.381806
C230	C	0.628638	0.508374	0.881806
C231	C	0.030215	0.008236	0.382161
C232	C	0.530215	0.508236	0.882161
C233	C	-0.028206	0.008233	0.499608
C234	C	0.471794	0.508233	0.999608
C235	C	0.070250	0.008272	0.499285
C236	C	0.570250	0.508272	0.999285
C237	C	-0.008199	-0.412187	0.939469
C238	C	0.491801	0.087813	1.439469
C239	C	-0.007927	-0.510619	0.939425
C240	C	0.492073	-0.010619	1.439425
C241	C	0.109523	-0.569121	0.939417
C242	C	0.609523	-0.069121	1.439417
C243	C	0.109257	-0.470684	0.939444
C244	C	0.609257	0.029316	1.439444
H245	H	0.019274	-0.411508	0.812539
H246	H	0.519274	0.088492	1.312539
H247	H	0.549237	-0.577886	0.413185
H248	H	1.049237	-0.077886	0.913185
C249	C	0.549392	-0.588434	0.567407
C250	C	1.049392	-0.088434	1.067407
C251	C	0.590436	-0.607117	0.585417
C252	C	1.090436	-0.107117	1.085417
C253	C	0.590506	-0.646273	0.634033
C254	C	1.090506	-0.146273	1.134033
C255	C	0.549532	-0.666746	0.664639
C256	C	1.049532	-0.166746	1.164639
C257	C	0.508485	-0.648063	0.646630
C258	C	1.008485	-0.148063	1.146630
C259	C	0.508416	-0.608907	0.598014
C260	C	1.008416	-0.108907	1.098014
H261	H	0.620770	-0.591962	0.562760
H262	H	1.120770	-0.091962	1.062760
H263	H	0.620891	-0.660104	0.647365
H264	H	1.120891	-0.160104	1.147365
H265	H	0.549584	-0.695732	0.700628
H266	H	1.049584	-0.195732	1.200628
H267	H	0.478151	-0.663218	0.669287
H268	H	0.978151	-0.163218	1.169287
H269	H	0.478030	-0.595076	0.584682
H270	H	0.978030	-0.095076	1.084682
C271	C	-0.076820	0.008222	0.538771
C272	C	0.423180	0.508222	1.038771
C273	C	-0.115973	0.008204	0.529311
C274	C	0.384027	0.508204	1.029311
C275	C	-0.164586	0.008193	0.568474
C276	C	0.335414	0.508193	1.068474
C277	C	-0.174047	0.008198	0.617097
C278	C	0.325953	0.508198	1.117097
C279	C	-0.134893	0.008215	0.626559
C280	C	0.365107	0.508215	1.126559
C281	C	-0.086279	0.008227	0.587396
C282	C	0.413721	0.508227	1.087396
H283	H	-0.108970	0.008201	0.493316
H284	H	0.391030	0.508201	0.993316
H285	H	-0.193570	0.008180	0.561470
H286	H	0.306430	0.508180	1.061470
H287	H	-0.210034	0.008189	0.646088
H288	H	0.289966	0.508189	1.146088
H289	H	-0.141895	0.008219	0.662555
H290	H	0.358105	0.508219	1.162555
H291	H	-0.057295	0.008240	0.594401
H292	H	0.442705	0.508240	1.094401
H293	H	0.549027	-0.402547	0.325928
H294	H	1.049027	0.097453	0.825928
H295	H	-0.036776	-0.517804	0.939391
H296	H	0.463224	-0.017804	1.439391
H297	H	0.138119	-0.463487	0.939440
H298	H	0.638119	0.036513	1.439440
H299	H	0.077468	0.008281	0.528131
H300	H	0.577468	0.508281	1.028131
C301	C	0.020468	0.008226	0.343188
C302	C	0.520468	0.508226	0.843188
C303	C	0.007368	-0.032799	0.351985
C304	C	0.507368	0.467201	0.851985
C305	C	-0.002378	-0.032809	0.313013
C306	C	0.497622	0.467191	0.813013
C307	C	0.000975	0.008207	0.265243
C308	C	0.500975	0.508207	0.765243
C309	C	0.014075	0.049235	0.256444
C310	C	0.514075	0.549235	0.756444
C311	C	0.023822	0.049245	0.295417
C312	C	0.523822	0.549245	0.795417
H313	H	0.004886	-0.063163	0.387349
H314	H	0.504886	0.436837	0.887349
H315	H	-0.012076	-0.063181	0.319527
H316	H	0.487924	0.436819	0.819527
H317	H	-0.006240	0.008199	0.236394
H318	H	0.493760	0.508199	0.736394
H319	H	0.016558	0.079599	0.221081
H320	H	0.516558	0.579599	0.721081
H321	H	0.033520	0.079617	0.288903
H322	H	0.533520	0.579617	0.788903
C323	C	0.079838	-0.617826	0.538535
C324	C	0.579838	-0.117826	1.038535
C325	C	0.049061	-0.648496	0.559002
C326	C	0.549061	-0.148496	1.059002
C327	C	0.058732	-0.697175	0.598047
C328	C	0.558732	-0.197175	1.098047
C329	C	0.099179	-0.715183	0.616625
C330	C	0.599179	-0.215183	1.116625
C331	C	0.129958	-0.684512	0.596158
C332	C	0.629958	-0.184512	1.096158
C333	C	0.120288	-0.635834	0.557113
C334	C	0.620288	-0.135834	1.057113
H335	H	0.019118	-0.635165	0.545250
H336	H	0.519118	-0.135165	1.045250
H337	H	0.035947	-0.719879	0.613198
H338	H	0.535947	-0.219879	1.113198
H339	H	0.106337	-0.751218	0.645529
H340	H	0.606337	-0.251218	1.145529
H341	H	0.159902	-0.697843	0.609911
H342	H	0.659902	-0.197843	1.109911
H343	H	0.143073	-0.613129	0.541962
H344	H	0.643073	-0.113129	1.041962
H345	H	0.549182	-0.402927	0.467517
H346	H	1.049182	0.097073	0.967517
H347	H	0.023205	-0.376060	0.353221
H348	H	0.523205	0.123940	0.853221
C349	C	0.177151	0.008687	0.342543
C350	C	0.677151	0.508687	0.842543
C351	C	0.216253	0.008855	0.351953
C352	C	0.716253	0.508855	0.851953
C353	C	0.264765	0.009168	0.312690
C354	C	0.764765	0.509168	0.812690
C355	C	0.274175	0.009313	0.264017
C356	C	0.774175	0.509313	0.764017
C357	C	0.235072	0.009145	0.254605
C358	C	0.735072	0.509145	0.754605
C359	C	0.186560	0.008832	0.293868
C360	C	0.686560	0.508832	0.793868
H361	H	0.209288	0.008747	0.387985
H362	H	0.709288	0.508747	0.887985
H363	H	0.293712	0.009292	0.319657
H364	H	0.793712	0.509292	0.819657
H365	H	0.310087	0.009545	0.234952
H366	H	0.810087	0.509545	0.734952
H367	H	0.242037	0.009253	0.218572
H368	H	0.742037	0.509253	0.718572
H369	H	0.157613	0.008708	0.286900
H370	H	0.657613	0.508708	0.786900
C371	C	-0.231654	-0.606090	0.452567
C372	C	0.268346	-0.106090	0.952567
C373	C	-0.265854	-0.633717	0.475060
C374	C	0.234146	-0.133717	0.975060
C375	C	-0.293264	-0.646892	0.528809
C376	C	0.206736	-0.146892	1.028809
C377	C	-0.286474	-0.632440	0.560065
C378	C	0.213526	-0.132440	1.060065
C379	C	-0.252273	-0.604811	0.537572
C380	C	0.247727	-0.104811	1.037572
C381	C	-0.224863	-0.591636	0.483823
C382	C	0.275137	-0.091636	0.983823
H383	H	-0.270881	-0.644417	0.451923
H384	H	0.229119	-0.144417	0.951923
H385	H	-0.318582	-0.667345	0.545460
H386	H	0.181418	-0.167345	1.045460
H387	H	-0.306765	-0.642193	0.599853
H388	H	0.193235	-0.142193	1.099853
H389	H	-0.247246	-0.594111	0.560709
H390	H	0.252754	-0.094111	1.060709
H391	H	-0.199545	-0.571183	0.467173
H392	H	0.300455	-0.071183	0.967173
C393	C	-0.047349	-0.363555	0.939486
C394	C	0.452651	0.136445	1.439486
C395	C	-0.037864	-0.324417	0.939497
C396	C	0.462136	0.175583	1.439497
C397	C	-0.077014	-0.275785	0.939514
C398	C	0.422986	0.224215	1.439514
C399	C	-0.125649	-0.266290	0.939519
C400	C	0.374351	0.233710	1.439519
C401	C	-0.135136	-0.305429	0.939508
C402	C	0.364864	0.194571	1.439508
C403	C	-0.095986	-0.354061	0.939491
C404	C	0.404014	0.145939	1.439491
H405	H	-0.001859	-0.331445	0.939493
H406	H	0.498141	0.168555	1.439493
H407	H	-0.069990	-0.246812	0.939522
H408	H	0.430010	0.253188	1.439522
H409	H	-0.154630	-0.230289	0.939531
H410	H	0.345370	0.269711	1.439531
H411	H	-0.171141	-0.298401	0.939511
H412	H	0.328859	0.201599	1.439511
H413	H	-0.103010	-0.383034	0.939483
H414	H	0.396990	0.116966	1.439483
C415	C	0.148673	-0.617754	0.939401
C416	C	0.648673	-0.117754	1.439401
C417	C	0.140063	-0.663161	0.980403
C418	C	0.640063	-0.163161	1.480403
C419	C	0.179213	-0.711794	0.980387
C420	C	0.679213	-0.211794	1.480387
C421	C	0.226973	-0.715019	0.939368
C422	C	0.726973	-0.215019	1.439368
C423	C	0.235586	-0.669611	0.898363
C424	C	0.735586	-0.169611	1.398363
C425	C	0.196436	-0.620978	0.898379
C426	C	0.696436	-0.120978	1.398379
H427	H	0.104706	-0.660775	1.010771
H428	H	0.604706	-0.160775	1.510771
H429	H	0.172837	-0.745408	1.010742
H430	H	0.672837	-0.245408	1.510742
H431	H	0.255954	-0.751020	0.939356
H432	H	0.755954	-0.251020	1.439356
H433	H	0.270943	-0.671997	0.867996
H434	H	0.770943	-0.171997	1.367996
H435	H	0.202812	-0.587363	0.868024
H436	H	0.702812	-0.087363	1.368024
C437	C	0.040014	-0.373251	0.715261
C438	C	0.540014	0.126749	1.215261
C439	C	-0.013737	-0.360059	0.742640
C440	C	0.486263	0.139941	1.242640
C441	C	-0.049315	-0.328619	0.715335
C442	C	0.450685	0.171381	1.215335
C443	C	-0.031141	-0.310371	0.660652
C444	C	0.468859	0.189629	1.160652
C445	C	0.022613	-0.323563	0.633270
C446	C	0.522613	0.176437	1.133270
C447	C	0.058191	-0.355003	0.660574
C448	C	0.558191	0.144997	1.160574
H449	H	-0.027193	-0.373567	0.783123
H450	H	0.472807	0.126433	1.283123
H451	H	-0.089107	-0.318853	0.735606
H452	H	0.410893	0.181147	1.235606
H453	H	-0.057478	-0.287097	0.640440
H454	H	0.442522	0.212903	1.140440
H455	H	0.036069	-0.310055	0.592787
H456	H	0.536069	0.189945	1.092787
H457	H	0.097983	-0.364769	0.640304
H458	H	0.597983	0.135231	1.140304
H459	H	0.196592	-0.455039	0.722237
H460	H	0.696592	0.044961	1.222237
C461	C	0.175850	-0.493287	0.819522
C462	C	0.675850	0.006713	1.319522
C463	C	0.229602	-0.506476	0.792145
C464	C	0.729602	-0.006476	1.292145
C465	C	0.265178	-0.537909	0.819452
C466	C	0.765178	-0.037909	1.319452
C467	C	0.247001	-0.556153	0.874135
C468	C	0.747001	-0.056153	1.374135
C469	C	0.193247	-0.542965	0.901515
C470	C	0.693247	-0.042965	1.401515
C471	C	0.157671	-0.511531	0.874208
C472	C	0.657671	-0.011531	1.374208
H473	H	0.243060	-0.492970	0.751662
H474	H	0.743060	0.007030	1.251662
H475	H	0.304971	-0.547672	0.799183
H476	H	0.804971	-0.047672	1.299183
H477	H	0.273337	-0.579422	0.894349
H478	H	0.773337	-0.079422	1.394349
H479	H	0.179789	-0.556471	0.941998
H480	H	0.679789	-0.056471	1.441998
H481	H	0.117878	-0.501768	0.894477
H482	H	0.617878	-0.001768	1.394477
H483	H	0.085944	-0.208923	0.586721
H484	H	0.585944	0.291077	1.086721
C485	C	0.177380	-0.519946	0.342907
C486	C	0.677380	-0.019946	0.842907
C487	C	0.216483	-0.568602	0.352466
C488	C	0.716483	-0.068602	0.852466
C489	C	0.265122	-0.578177	0.313357
C490	C	0.765122	-0.078177	0.813357
C491	C	0.274657	-0.539097	0.264689
C492	C	0.774657	-0.039097	0.764689
C493	C	0.235553	-0.490438	0.255128
C494	C	0.735553	0.009562	0.755128
C495	C	0.186914	-0.480863	0.294237
C496	C	0.686914	0.019137	0.794237
H497	H	0.209425	-0.597534	0.388494
H498	H	0.709425	-0.097534	0.888494
H499	H	0.294069	-0.614198	0.320435
H500	H	0.794069	-0.114198	0.820435
H501	H	0.310662	-0.546186	0.235738
H502	H	0.810662	-0.046186	0.735738
H503	H	0.242611	-0.461506	0.219099
H504	H	0.742611	0.038494	0.719099
H505	H	0.157967	-0.444842	0.287159
H506	H	0.657967	0.055158	0.787159
C507	C	0.005047	-0.408035	0.523332
C508	C	0.505047	0.091965	1.023332
C509	C	-0.017482	-0.447346	0.551005
C510	C	0.482518	0.052654	1.051005
C511	C	-0.071247	-0.434151	0.564243
C512	C	0.428753	0.065849	1.064243
C513	C	-0.102483	-0.381645	0.549807
C514	C	0.397517	0.118355	1.049807
C515	C	-0.079955	-0.342330	0.522131
C516	C	0.420045	0.157670	1.022131
C517	C	-0.026189	-0.355525	0.508894
C518	C	0.473811	0.144475	1.008894
H519	H	0.005642	-0.486218	0.561693
H520	H	0.505642	0.013782	1.061693
H521	H	-0.087924	-0.463255	0.584730
H522	H	0.412076	0.036745	1.084730
H523	H	-0.142284	-0.371877	0.559606
H524	H	0.357716	0.128123	1.059606
H525	H	-0.103078	-0.303459	0.511444
H526	H	0.396922	0.196541	1.011444
H527	H	-0.009512	-0.326422	0.488407
H528	H	0.490488	0.173578	0.988407
C529	C	0.175509	-0.493224	0.437995
C530	C	0.675509	0.006776	0.937995
C531	C	0.211305	-0.541173	0.456987
C532	C	0.711305	-0.041173	0.956987
C533	C	0.246828	-0.572602	0.425529
C534	C	0.746828	-0.072602	0.925529
C535	C	0.246555	-0.556081	0.375080
C536	C	0.746555	-0.056081	0.875080
C537	C	0.210759	-0.508129	0.356086
C538	C	0.710759	-0.008129	0.856086
C539	C	0.175236	-0.476701	0.387543
C540	C	0.675236	0.023299	0.887543
H541	H	0.211507	-0.553405	0.494335
H542	H	0.711507	-0.053405	0.994335
H543	H	0.273327	-0.608099	0.439591
H544	H	0.773327	-0.108099	0.939591
H545	H	0.272852	-0.579346	0.351794
H546	H	0.772852	-0.079346	0.851794
H547	H	0.210556	-0.495897	0.318738
H548	H	0.710556	0.004103	0.818738
H549	H	0.148736	-0.441204	0.373482
H550	H	0.648736	0.058796	0.873482
H551	H	0.196371	-0.454985	0.476195
H552	H	0.696371	0.045015	0.976195
C553	C	0.324994	-0.500244	0.547494
C554	C	0.824994	-0.000244	1.047494
C555	C	0.352354	-0.553592	0.555225
C556	C	0.852354	-0.053592	1.055225
C557	C	0.325033	-0.588728	0.581215
C558	C	0.825033	-0.088728	1.081215
C559	C	0.270351	-0.570517	0.599474
C560	C	0.770351	-0.070517	1.099474
C561	C	0.242987	-0.517166	0.591743
C562	C	0.742987	-0.017166	1.091743
C563	C	0.270309	-0.482030	0.565753
C564	C	0.770309	0.017970	1.065753
H565	H	0.392836	-0.567075	0.541709
H566	H	0.892836	-0.067075	1.041709
H567	H	0.345290	-0.628222	0.586938
H568	H	0.845290	-0.128222	1.086938
H569	H	0.250126	-0.596527	0.618713
H570	H	0.750126	-0.096527	1.118713
H571	H	0.202506	-0.503683	0.605259
H572	H	0.702506	-0.003683	1.105259
H573	H	0.250052	-0.442537	0.560030
H574	H	0.750052	0.057463	1.060030
H575	H	0.159477	-0.208876	0.439413
H576	H	0.659477	0.291124	0.939413
H577	H	0.422274	-0.521162	0.510626
H578	H	0.922274	-0.021162	1.010626
C579	C	0.429326	-0.366096	0.448218
C580	C	0.929326	0.133904	0.948218
C581	C	0.422514	-0.335884	0.473632
C582	C	0.922514	0.164116	0.973632
C583	C	0.449842	-0.300751	0.447623
C584	C	0.949842	0.199249	0.947623
C585	C	0.483982	-0.295829	0.396202
C586	C	0.983982	0.204171	0.896202
C587	C	0.490795	-0.326042	0.370786
C588	C	0.990795	0.173958	0.870786
C589	C	0.463467	-0.361175	0.396794
C590	C	0.963467	0.138825	0.896794
H591	H	0.397240	-0.339526	0.511700
H592	H	0.897240	0.160474	1.011700
H593	H	0.444798	-0.278385	0.466438
H594	H	0.944798	0.221615	0.966438
H595	H	0.504211	-0.269822	0.376949
H596	H	1.004211	0.230178	0.876949
H597	H	0.516069	-0.322400	0.332718
H598	H	1.016069	0.177600	0.832718
H599	H	0.468511	-0.383541	0.377979
H600	H	0.968511	0.116459	0.877979
C601	C	0.324928	-0.331316	0.483082
C602	C	0.824928	0.168684	0.983082
C603	C	0.352254	-0.296185	0.457083
C604	C	0.852254	0.203815	0.957083
C605	C	0.324898	-0.242833	0.449340
C606	C	0.824898	0.257167	0.949340
C607	C	0.270217	-0.224611	0.467595
C608	C	0.770217	0.275389	0.967595
C609	C	0.242887	-0.259743	0.493596
C610	C	0.742887	0.240257	0.993596
C611	C	0.270243	-0.313095	0.501339
C612	C	0.770243	0.186905	1.001339
H613	H	0.392736	-0.309674	0.443568
H614	H	0.892736	0.190326	0.943568
H615	H	0.345130	-0.216827	0.430092
H616	H	0.845130	0.283173	0.930092
H617	H	0.249966	-0.185116	0.461863
H618	H	0.749966	0.314884	0.961863
H619	H	0.202405	-0.246254	0.507111
H620	H	0.702405	0.253746	1.007111
H621	H	0.250011	-0.339101	0.520587
H622	H	0.750011	0.160899	1.020587
H623	H	0.049100	-0.381393	0.549936
H624	H	0.549100	0.118607	1.049936
C625	C	-0.076846	-0.461297	0.538703
C626	C	0.423154	0.038703	1.038703
C627	C	-0.086382	-0.500377	0.587370
C628	C	0.413618	-0.000377	1.087370
C629	C	-0.135022	-0.490803	0.626478
C630	C	0.364978	0.009197	1.126478
C631	C	-0.174126	-0.442148	0.616919
C632	C	0.325874	0.057852	1.116919
C633	C	-0.164591	-0.403064	0.568249
C634	C	0.335409	0.096936	1.068249
C635	C	-0.115951	-0.412638	0.529141
C636	C	0.384049	0.087362	1.029141
H637	H	-0.057434	-0.536398	0.594449
H638	H	0.442566	-0.036398	1.094449
H639	H	-0.142080	-0.519735	0.662507
H640	H	0.357920	-0.019735	1.162507
H641	H	-0.210132	-0.435060	0.645869
H642	H	0.289868	0.064940	1.145869
H643	H	-0.193539	-0.367043	0.561171
H644	H	0.306461	0.132957	1.061171
H645	H	-0.108893	-0.383705	0.493113
H646	H	0.391107	0.116295	0.993113
C647	C	0.132786	-0.111575	0.395420
C648	C	0.632786	0.388425	0.895420
C649	C	0.164208	-0.138903	0.359869
C650	C	0.664208	0.361097	0.859869
C651	C	0.177373	-0.111544	0.306107
C652	C	0.677373	0.388456	0.806107
C653	C	0.159116	-0.056858	0.287897
C654	C	0.659116	0.443142	0.787897
C655	C	0.127692	-0.029528	0.323449
C656	C	0.627692	0.470472	0.823449
C657	C	0.114527	-0.056886	0.377211
C658	C	0.614527	0.443114	0.877211
H659	H	0.177724	-0.179387	0.373348
H660	H	0.677724	0.320613	0.873348
H661	H	0.200634	-0.131776	0.279789
H662	H	0.700634	0.368224	0.779789
H663	H	0.168861	-0.036606	0.248100
H664	H	0.668861	0.463394	0.748100
H665	H	0.114176	0.010957	0.309970
H666	H	0.614176	0.510957	0.809970
H667	H	0.091266	-0.036654	0.403529
H668	H	0.591266	0.463346	0.903529
H669	H	0.055841	-0.118733	0.556693
H670	H	0.555841	0.381267	1.056693
H671	H	-0.061683	-0.492436	0.165791
H672	H	0.438317	0.007564	0.665791
H673	H	-0.091873	-0.522445	0.255974
H674	H	0.408127	-0.022445	0.755974
H675	H	0.011902	-0.639768	0.165877
H676	H	0.511902	-0.139768	0.665877
C677	C	-0.014863	-0.683743	0.263174
C678	C	0.485137	-0.183743	0.763174
C679	C	-0.054196	-0.706248	0.297291
C680	C	0.445804	-0.206248	0.797291
C681	C	-0.041039	-0.760010	0.324658
C682	C	0.458961	-0.260010	0.824658
C683	C	0.011450	-0.791267	0.317906
C684	C	0.511450	-0.291267	0.817906
C685	C	0.050785	-0.768763	0.283787
C686	C	0.550785	-0.268763	0.783787
C687	C	0.037629	-0.715001	0.256421
C688	C	0.537629	-0.215001	0.756421
H689	H	-0.093054	-0.683109	0.302291
H690	H	0.406946	-0.183109	0.802291
H691	H	-0.070158	-0.776668	0.349915
H692	H	0.429842	-0.276668	0.849915
H693	H	0.021189	-0.831065	0.338164
H694	H	0.521189	-0.331065	0.838164
H695	H	0.089644	-0.791902	0.278788
H696	H	0.589644	-0.291902	0.778788
H697	H	0.066748	-0.698343	0.231164
H698	H	0.566748	-0.198343	0.731164
C699	C	-0.100078	-0.513211	0.290078
C700	C	0.399922	-0.013211	0.790078
C701	C	-0.150538	-0.513385	0.306497
C702	C	0.349462	-0.013385	0.806497
C703	C	-0.181907	-0.477827	0.274982
C704	C	0.318093	0.022173	0.774982
C705	C	-0.162817	-0.442095	0.227047
C706	C	0.337183	0.057905	0.727047
C707	C	-0.112355	-0.441919	0.210626
C708	C	0.387645	0.058081	0.710626
C709	C	-0.080986	-0.477478	0.242141
C710	C	0.419014	0.022522	0.742141
H711	H	-0.164672	-0.539838	0.341983
H712	H	0.335328	-0.039838	0.841983
H713	H	-0.219263	-0.477957	0.287138
H714	H	0.280737	0.022043	0.787138
H715	H	-0.186039	-0.415772	0.203718
H716	H	0.313961	0.084228	0.703718
H717	H	-0.098222	-0.415467	0.175140
H718	H	0.401778	0.084533	0.675140
H719	H	-0.043630	-0.477348	0.229985
H720	H	0.456370	0.022652	0.729985
C721	C	-0.065337	-0.478462	0.324997
C722	C	0.434663	0.021538	0.824997
C723	C	-0.096702	-0.442901	0.293481
C724	C	0.403298	0.057099	0.793481
C725	C	-0.109872	-0.389139	0.280256
C726	C	0.390128	0.110861	0.780256
C727	C	-0.091676	-0.370939	0.298547
C728	C	0.408324	0.129061	0.798547
C729	C	-0.060309	-0.406501	0.330064
C730	C	0.439691	0.093499	0.830064
C731	C	-0.047139	-0.460263	0.343289
C732	C	0.452861	0.039737	0.843289
H733	H	-0.110174	-0.456373	0.279939
H734	H	0.389826	0.043627	0.779939
H735	H	-0.133092	-0.362813	0.256924
H736	H	0.366908	0.137187	0.756924
H737	H	-0.101425	-0.331141	0.288757
H738	H	0.398575	0.168859	0.788757
H739	H	-0.046838	-0.393029	0.343606
H740	H	0.453162	0.106971	0.843606
H741	H	-0.023919	-0.486588	0.366621
H742	H	0.476081	0.013412	0.866621
H743	H	0.011557	-0.639751	0.402207
H744	H	0.511557	-0.139751	0.902207
C745	C	0.026896	-0.668138	0.300672
C746	C	0.526896	-0.168138	0.800672
C747	C	0.031887	-0.633979	0.249245
C748	C	0.531887	-0.133979	0.749245
C749	C	0.067036	-0.606682	0.223319
C750	C	0.567036	-0.106682	0.723319
C751	C	0.097192	-0.613544	0.248820
C752	C	0.597192	-0.113544	0.748820
C753	C	0.092202	-0.647704	0.300250
C754	C	0.592202	-0.147704	0.800250
C755	C	0.057053	-0.675001	0.326176
C756	C	0.557053	-0.175001	0.826176
H757	H	0.009563	-0.628898	0.230365
H758	H	0.509563	-0.128898	0.730365
H759	H	0.070730	-0.581395	0.185247
H760	H	0.570730	-0.081395	0.685247
H761	H	0.123211	-0.593338	0.229629
H762	H	0.623211	-0.093338	0.729629
H763	H	0.114526	-0.652785	0.319130
H764	H	0.614526	-0.152785	0.819130
H765	H	0.053359	-0.700289	0.364247
H766	H	0.553359	-0.200289	0.864247
C767	C	0.061619	-0.772544	0.335515
C768	C	0.561619	-0.272544	0.835515
C769	C	0.078752	-0.806728	0.378541
C770	C	0.578752	-0.306728	0.878541
C771	C	0.132087	-0.834121	0.370867
C772	C	0.632087	-0.334121	0.870867
C773	C	0.168289	-0.827330	0.320168
C774	C	0.668289	-0.327330	0.820168
C775	C	0.151157	-0.793144	0.277139
C776	C	0.651157	-0.293144	0.777139
C777	C	0.097822	-0.765751	0.284812
C778	C	0.597822	-0.265751	0.784812
H779	H	0.051952	-0.811757	0.416075
H780	H	0.551952	-0.311757	0.916075
H781	H	0.144768	-0.859428	0.402720
H782	H	0.644768	-0.359428	0.902720
H783	H	0.207771	-0.847608	0.314487
H784	H	0.707771	-0.347608	0.814487
H785	H	0.177957	-0.788115	0.239605
H786	H	0.677957	-0.288115	0.739605
H787	H	0.085140	-0.740444	0.252959
H788	H	0.585140	-0.240444	0.752959
C789	C	-0.107308	-0.772359	0.399667
C790	C	0.392692	-0.272359	0.899667
C791	C	-0.148050	-0.765475	0.445804
C792	C	0.351950	-0.265475	0.945804
C793	C	-0.183207	-0.792763	0.471739
C794	C	0.316793	-0.292763	0.971739
C795	C	-0.177621	-0.826936	0.451535
C796	C	0.322379	-0.326936	0.951535
C797	C	-0.136876	-0.833822	0.405395
C798	C	0.363124	-0.333822	0.905395
C799	C	-0.101720	-0.806533	0.379461
C800	C	0.398280	-0.306533	0.879461
H801	H	-0.152187	-0.740176	0.460762
H802	H	0.347813	-0.240176	0.960762
H803	H	-0.213369	-0.787666	0.505895
H804	H	0.286631	-0.287666	1.005895
H805	H	-0.203646	-0.847137	0.470733
H806	H	0.296354	-0.347137	0.970733
H807	H	-0.132739	-0.859120	0.390438
H808	H	0.367261	-0.359120	0.890438
H809	H	-0.071558	-0.811631	0.345305
H810	H	0.428442	-0.311631	0.845305
C811	C	-0.127256	-0.640997	0.417931
C812	C	0.372744	-0.140997	0.917931
C813	C	-0.134135	-0.621968	0.453717
C814	C	0.365865	-0.121968	0.953717
C815	C	-0.106862	-0.653424	0.489323
C816	C	0.393138	-0.153424	0.989323
C817	C	-0.072711	-0.703909	0.489143
C818	C	0.427289	-0.203909	0.989143
C819	C	-0.065831	-0.722940	0.453356
C820	C	0.434169	-0.222940	0.953356
C821	C	-0.093104	-0.691484	0.417750
C822	C	0.406896	-0.191484	0.917750
H823	H	-0.159417	-0.584594	0.453851
H824	H	0.340583	-0.084594	0.953851
H825	H	-0.111955	-0.639336	0.515815
H826	H	0.388045	-0.139336	1.015815
H827	H	-0.052523	-0.727194	0.515500
H828	H	0.447477	-0.227194	1.015500
H829	H	-0.040549	-0.760314	0.453221
H830	H	0.459451	-0.260314	0.953221
H831	H	-0.088011	-0.705572	0.391258
H832	H	0.411989	-0.205572	0.891258
C833	C	-0.231391	-0.520892	0.281985
C834	C	0.268609	-0.020892	0.781985
C835	C	-0.224515	-0.539928	0.246207
C836	C	0.275485	-0.039928	0.746207
C837	C	-0.251793	-0.508481	0.210606
C838	C	0.248207	-0.008481	0.710606
C839	C	-0.285947	-0.457996	0.210783
C840	C	0.214053	0.042004	0.710783
C841	C	-0.292825	-0.438957	0.246563
C842	C	0.207175	0.061043	0.746563
C843	C	-0.265547	-0.470405	0.282164
C844	C	0.234453	0.029595	0.782164
H845	H	-0.199230	-0.577302	0.246075
H846	H	0.300770	-0.077302	0.746075
H847	H	-0.246701	-0.522575	0.184120
H848	H	0.253299	-0.022575	0.684120
H849	H	-0.306140	-0.434717	0.184429
H850	H	0.193860	0.065283	0.684429
H851	H	-0.318110	-0.401583	0.246695
H852	H	0.181890	0.098417	0.746695
H853	H	-0.270639	-0.456310	0.308650
H854	H	0.229361	0.043690	0.808650
H855	H	-0.128170	-0.675084	0.362831
H856	H	0.371830	-0.175084	0.862831
H857	H	-0.018458	-0.669769	0.372051
H858	H	0.481542	-0.169769	0.872051
H859	H	-0.134111	-0.559208	0.261309
H860	H	0.365889	-0.059208	0.761309
