data_functionalizedCrystal
_audit_creation_method	'MofGen! by Chris Wilmer'
_symmetry_space_group_name_H-M	'P1'
_symmetry_Int_Tables_number	1
_symmetry_cell_setting	triclinic
loop_
_symmetry_equiv_pos_as_xyz
  x,y,z
_cell_length_a	18.101398
_cell_length_b	18.101397
_cell_length_c	18.101389
_cell_angle_alpha	90.021047
_cell_angle_beta	90.024802
_cell_angle_gamma	90.018196
loop_
_atom_site_label
_atom_site_type_symbol
_atom_site_fract_x
_atom_site_fract_y
_atom_site_fract_z
Zn1	Zn	1.132176	-0.294952	0.418835
Zn2	Zn	1.465509	0.038381	0.752168
Zn3	Zn	1.798842	0.371715	1.085501
Zn4	Zn	1.132095	-0.418778	0.294987
Zn5	Zn	1.465428	-0.085444	0.628321
Zn6	Zn	1.798761	0.247889	0.961654
Zn7	Zn	1.008335	-0.294950	0.294995
Zn8	Zn	1.341668	0.038384	0.628328
Zn9	Zn	1.675001	0.371717	0.961661
Zn10	Zn	1.008308	-0.418751	0.418775
Zn11	Zn	1.341642	-0.085418	0.752108
Zn12	Zn	1.674975	0.247915	1.085442
O13	O	1.070228	-0.356858	0.356898
O14	O	1.403562	-0.023524	0.690231
O15	O	1.736895	0.309809	1.023565
O16	O	1.235798	-0.311390	0.402428
O17	O	1.569131	0.021944	0.735761
O18	O	1.902465	0.355277	1.069095
O19	O	1.115655	-0.402362	0.191355
O20	O	1.448988	-0.069028	0.524689
O21	O	1.782321	0.264305	0.858022
O22	O	1.024807	-0.191317	0.311450
O23	O	1.358141	0.142016	0.644784
O24	O	1.691474	0.475350	0.978117
O25	O	1.235738	-0.402364	0.311438
O26	O	1.569072	-0.069031	0.644771
O27	O	1.902405	0.264303	0.978105
O28	O	1.115793	-0.191319	0.402435
O29	O	1.449126	0.142015	0.735768
O30	O	1.782460	0.475348	1.069102
O31	O	1.024729	-0.311386	0.191361
O32	O	1.358062	0.021948	0.524694
O33	O	1.691395	0.355281	0.858027
O34	O	0.904698	-0.311360	0.311393
O35	O	1.238032	0.021973	0.644726
O36	O	1.571365	0.355306	0.978059
O37	O	1.024763	-0.402319	0.522416
O38	O	1.358096	-0.068986	0.855749
O39	O	1.691429	0.264348	1.189082
O40	O	0.904679	-0.402317	0.402333
O41	O	1.238012	-0.068983	0.735667
O42	O	1.571346	0.264350	1.069000
O43	O	1.115767	-0.311364	0.522460
O44	O	1.449101	0.021969	0.855793
O45	O	1.782434	0.355302	1.189126
O46	O	1.115629	-0.522407	0.311380
O47	O	1.448963	-0.189074	0.644713
O48	O	1.782296	0.144260	0.978047
O49	O	1.024684	-0.522388	0.402326
O50	O	1.358017	-0.189054	0.735660
O51	O	1.691351	0.144279	1.068993
C52	C	0.877818	-0.356836	0.356858
C53	C	1.211151	-0.023503	0.690191
C54	C	1.544484	0.309831	1.023524
C55	C	0.795504	-0.356844	0.356858
C56	C	1.128837	-0.023511	0.690191
C57	C	1.462170	0.309822	1.023525
C58	C	1.070165	-0.549268	0.356862
C59	C	1.403498	-0.215935	0.690195
C60	C	1.736832	0.117398	1.023529
C61	C	1.070206	-0.631582	0.356871
C62	C	1.403539	-0.298249	0.690205
C63	C	1.736872	0.035084	1.023538
C64	C	0.644795	-0.356860	0.356891
C65	C	0.978129	-0.023526	0.690225
C66	C	1.311462	0.309807	1.023558
C67	C	0.613429	-0.299550	0.299769
C68	C	0.946762	0.033783	0.633102
C69	C	1.280096	0.367117	0.966436
C70	C	0.527811	-0.299335	0.299957
C71	C	0.861144	0.033999	0.633290
C72	C	1.194477	0.367332	0.966623
C73	C	0.496413	-0.356874	0.356923
C74	C	0.829746	-0.023541	0.690256
C75	C	1.163079	0.309792	1.023590
C76	C	0.527549	-0.336055	0.435059
C77	C	0.860882	-0.002722	0.768392
C78	C	1.194216	0.330611	1.101726
C79	C	0.613194	-0.335631	0.434710
C80	C	0.946527	-0.002298	0.768044
C81	C	1.279860	0.331036	1.101377
C82	C	0.613206	-0.435137	0.336566
C83	C	0.946539	-0.101803	0.669900
C84	C	1.279873	0.231530	1.003233
C85	C	0.527555	-0.434724	0.334864
C86	C	0.860888	-0.101390	0.668197
C87	C	1.194221	0.231943	1.001530
C88	C	0.412553	-0.356884	0.356945
C89	C	0.745887	-0.023551	0.690279
C90	C	1.079220	0.309782	1.023612
C91	C	0.728655	-0.356848	0.356874
C92	C	1.061988	-0.023515	0.690207
C93	C	1.395321	0.309819	1.023541
C94	C	1.070300	-0.930673	0.356939
C95	C	1.403634	-0.597340	0.690272
C96	C	1.736967	-0.264007	1.023606
C97	C	1.127361	-0.899329	0.299565
C98	C	1.460694	-0.565996	0.632898
C99	C	1.794028	-0.232663	0.966232
C100	C	1.127559	-0.813711	0.299714
C101	C	1.460892	-0.480378	0.633047
C102	C	1.794225	-0.147044	0.966380
C103	C	1.070253	-0.782291	0.356905
C104	C	1.403587	-0.448957	0.690238
C105	C	1.736920	-0.115624	1.023572
C106	C	1.091409	-0.813312	0.434968
C107	C	1.424743	-0.479978	0.768301
C108	C	1.758076	-0.146645	1.101634
C109	C	1.091851	-0.898957	0.434655
C110	C	1.425184	-0.565623	0.767989
C111	C	1.758517	-0.232290	1.101322
C112	C	0.991931	-0.899176	0.336926
C113	C	1.325265	-0.565842	0.670259
C114	C	1.658598	-0.232509	1.003593
C115	C	0.992318	-0.813526	0.335184
C116	C	1.325652	-0.480193	0.668517
C117	C	1.658985	-0.146859	1.001850
C118	C	1.070226	-0.698431	0.356890
C119	C	1.403559	-0.365098	0.690224
C120	C	1.736892	-0.031765	1.023557
C121	C	1.070330	-1.014533	0.356959
C122	C	1.403663	-0.681199	0.690292
C123	C	1.736996	-0.347866	1.023625
C124	C	1.263390	-0.356880	0.356939
C125	C	1.596724	-0.023547	0.690272
C126	C	1.930057	0.309787	1.023605
C127	C	1.345704	-0.356890	0.356956
C128	C	1.679038	-0.023556	0.690289
C129	C	2.012371	0.309777	1.023623
C130	C	1.070271	-0.356839	0.550060
C131	C	1.403605	-0.023506	0.883393
C132	C	1.736938	0.309828	1.216727
C133	C	1.070289	-0.356831	0.632374
C134	C	1.403623	-0.023498	0.965707
C135	C	1.736956	0.309836	1.299041
C136	C	1.070312	-0.163696	0.356950
C137	C	1.403646	0.169638	0.690284
C138	C	1.736979	0.502971	1.023617
C139	C	1.070348	-0.081382	0.356972
C140	C	1.403681	0.251952	0.690306
C141	C	1.737015	0.585285	1.023639
C142	C	1.070228	-0.356823	0.164487
C143	C	1.403562	-0.023490	0.497821
C144	C	1.736895	0.309844	0.831154
C145	C	1.070354	-0.356622	0.082174
C146	C	1.403687	-0.023289	0.415507
C147	C	1.737020	0.310044	0.748840
C148	C	1.070333	-0.356692	0.931465
C149	C	1.403666	-0.023359	1.264799
C150	C	1.736999	0.309974	1.598132
C151	C	1.012878	-0.413736	0.900112
C152	C	1.346211	-0.080403	1.233446
C153	C	1.679544	0.252930	1.566779
C154	C	1.013033	-0.414001	0.814494
C155	C	1.346366	-0.080668	1.147827
C156	C	1.679700	0.252666	1.481161
C157	C	1.070311	-0.356761	0.783083
C158	C	1.403644	-0.023428	1.116416
C159	C	1.736977	0.309906	1.449749
C160	C	1.148340	-0.377948	0.814188
C161	C	1.481673	-0.044615	1.147521
C162	C	1.815006	0.288718	1.480855
C163	C	1.148020	-0.378323	0.899833
C164	C	1.481353	-0.044989	1.233166
C165	C	1.814686	0.288344	1.566500
C166	C	1.050437	-0.278334	0.899893
C167	C	1.383770	0.055000	1.233226
C168	C	1.717103	0.388333	1.566560
C169	C	1.048701	-0.278786	0.814242
C170	C	1.382034	0.054547	1.147575
C171	C	1.715367	0.387880	1.480909
C172	C	1.070303	-0.356799	0.699223
C173	C	1.403636	-0.023465	1.032556
C174	C	1.736970	0.309868	1.365890
C175	C	1.070345	-0.356656	1.015325
C176	C	1.403679	-0.023323	1.348658
C177	C	1.737012	0.310010	1.681991
H178	H	0.633972	-0.312389	0.241649
H179	H	0.967306	0.020944	0.574983
H180	H	1.300639	0.354277	0.908316
O181	O	1.100100	-0.219501	0.785940
O182	O	1.433433	0.113833	1.119273
O183	O	1.766766	0.447166	1.452607
H184	H	1.083299	-0.165218	0.808984
H185	H	1.416632	0.168115	1.142318
H186	H	1.749966	0.501449	1.475651
O187	O	0.936394	-0.396436	0.786620
O188	O	1.269727	-0.063102	1.119953
O189	O	1.603061	0.270231	1.453287
H190	H	0.938297	-0.345570	0.752449
H191	H	1.271630	-0.012236	1.085782
H192	H	1.604963	0.321097	1.419116
O193	O	1.105860	-0.222029	0.926754
O194	O	1.439193	0.111304	1.260087
O195	O	1.772527	0.444637	1.593420
H196	H	1.147378	-0.249672	0.962417
H197	H	1.480711	0.083661	1.295751
H198	H	1.814044	0.416995	1.629084
H199	H	1.114323	-0.792739	0.241831
H200	H	1.447656	-0.459406	0.575165
H201	H	1.780990	-0.126072	0.908498
H202	H	1.025884	-0.471464	0.921635
H203	H	1.359217	-0.138130	1.254969
H204	H	1.692550	0.195203	1.588302
H205	H	1.051120	-0.792958	0.478866
H206	H	1.384453	-0.459625	0.812199
H207	H	1.717786	-0.126292	1.145532
O208	O	0.935996	-0.396356	0.927368
O209	O	1.269330	-0.063023	1.260701
O210	O	1.602663	0.270310	1.594034
H211	H	0.937911	-0.346878	0.963557
H212	H	1.271244	-0.013545	1.296890
H213	H	1.604577	0.319788	1.630223
O214	O	1.110133	-0.927268	0.222861
O215	O	1.443466	-0.593934	0.556194
O216	O	1.776800	-0.260601	0.889528
H217	H	1.053816	-0.909248	0.206626
H218	H	1.387149	-0.575915	0.539960
H219	H	1.720483	-0.242581	0.873293
H220	H	0.506756	-0.312322	0.242030
H221	H	0.840089	0.021011	0.575363
H222	H	1.173423	0.354345	0.908696
H223	H	0.634966	-0.241876	0.313090
H224	H	0.968299	0.091457	0.646424
H225	H	1.301633	0.424790	0.979757
O226	O	0.966439	-0.927838	0.262825
O227	O	1.299772	-0.594504	0.596158
O228	O	1.633106	-0.261171	0.929491
H229	H	0.963256	-0.989048	0.264608
H230	H	1.296589	-0.655714	0.597942
H231	H	1.629923	-0.322381	0.931275
O232	O	1.203842	-0.927755	0.316904
O233	O	1.537176	-0.594422	0.650237
O234	O	1.870509	-0.261088	0.983570
H235	H	1.201392	-0.964109	0.366208
H236	H	1.534725	-0.630776	0.699542
H237	H	1.868059	-0.297442	1.032875
O238	O	1.166443	-0.784845	0.457805
O239	O	1.499777	-0.451511	0.791139
O240	O	1.833110	-0.118178	1.124472
H241	H	1.188788	-0.748612	0.413689
H242	H	1.522121	-0.415278	0.747022
H243	H	1.855454	-0.081945	1.080355
H244	H	0.976366	-0.793257	0.277736
H245	H	1.309700	-0.459924	0.611069
H246	H	1.643033	-0.126591	0.944402
H247	H	0.507338	-0.241336	0.313451
H248	H	0.840671	0.091997	0.646785
H249	H	1.174004	0.425331	0.980118
H250	H	1.026170	-0.472083	0.794009
H251	H	1.359503	-0.138749	1.127342
H252	H	1.692836	0.194584	1.460676
H253	H	0.633947	-0.375576	0.478745
H254	H	0.967281	-0.042242	0.812078
H255	H	1.300614	0.291091	1.145412
O256	O	0.639688	-0.259851	0.457452
O257	O	0.973021	0.073482	0.790785
O258	O	1.306355	0.406816	1.124119
H259	H	0.591329	-0.223852	0.468592
H260	H	0.924662	0.109482	0.801925
H261	H	1.257996	0.442815	1.135258
H262	H	0.947517	-0.792145	0.373911
H263	H	1.280850	-0.458812	0.707245
H264	H	1.614184	-0.125479	1.040578
O265	O	0.935548	-0.926023	0.392211
O266	O	1.268881	-0.592689	0.725544
O267	O	1.602215	-0.259356	1.058877
H268	H	0.892212	-0.958234	0.363108
H269	H	1.225545	-0.624900	0.696441
H270	H	1.558878	-0.291567	1.029774
H271	H	0.507216	-0.376526	0.478798
H272	H	0.840549	-0.043193	0.812131
H273	H	1.173882	0.290141	1.145465
H274	H	1.052111	-0.919689	0.478877
H275	H	1.385444	-0.586356	0.812210
H276	H	1.718777	-0.253023	1.145544
O277	O	1.167731	-0.925349	0.457105
O278	O	1.501065	-0.592016	0.790438
O279	O	1.834398	-0.258683	1.123771
H280	H	1.163273	-0.959461	0.507850
H281	H	1.496607	-0.626128	0.841183
H282	H	1.829940	-0.292794	1.174517
H283	H	0.634771	-0.454151	0.280540
H284	H	0.968104	-0.120818	0.613874
H285	H	1.301437	0.212516	0.947207
O286	O	0.499175	-0.261112	0.458221
O287	O	0.832508	0.072222	0.791554
O288	O	1.165842	0.405555	1.124888
H289	H	0.462907	-0.238573	0.414213
H290	H	0.796240	0.094760	0.747547
H291	H	1.129573	0.428094	1.080880
H292	H	1.185610	-0.793172	0.312956
H293	H	1.518943	-0.459839	0.646289
H294	H	1.852276	-0.126505	0.979622
O295	O	1.206578	-0.324657	0.787233
O296	O	1.539912	0.008676	1.120567
O297	O	1.873245	0.342010	1.453900
H298	H	1.180463	-0.282405	0.751293
H299	H	1.513797	0.050928	1.084626
H300	H	1.847130	0.384261	1.417960
O301	O	1.170346	-0.454198	0.926310
O302	O	1.503680	-0.120865	1.259643
O303	O	1.837013	0.212469	1.592976
H304	H	1.181267	-0.490279	0.877942
H305	H	1.514600	-0.156946	1.211276
H306	H	1.847933	0.176388	1.544609
H307	H	0.507201	-0.450428	0.277359
H308	H	0.840535	-0.117095	0.610692
H309	H	1.173868	0.216238	0.944025
H310	H	0.633488	-0.477831	0.378171
H311	H	0.966821	-0.144497	0.711505
H312	H	1.300155	0.188836	1.044838
O313	O	0.972644	-0.257614	0.787298
O314	O	1.305978	0.075720	1.120631
O315	O	1.639311	0.409053	1.453964
H316	H	0.931872	-0.299162	0.806561
H317	H	1.265205	0.034172	1.139895
H318	H	1.598539	0.367505	1.473228
O319	O	1.171070	-0.453015	0.785782
O320	O	1.504403	-0.119682	1.119115
O321	O	1.837736	0.213651	1.452448
H322	H	1.226328	-0.467380	0.808152
H323	H	1.559661	-0.134046	1.141485
H324	H	1.892995	0.199287	1.474818
H325	H	0.994526	-0.259031	0.921479
H326	H	1.327859	0.074302	1.254813
H327	H	1.661193	0.407635	1.588146
O328	O	0.499253	-0.494286	0.385924
O329	O	0.832586	-0.160953	0.719257
O330	O	1.165919	0.172381	1.052590
H331	H	0.462388	-0.469220	0.428012
H332	H	0.795721	-0.135886	0.761346
H333	H	1.129055	0.197447	1.094679
O334	O	1.206656	-0.325693	0.927319
O335	O	1.539989	0.007641	1.260652
O336	O	1.873323	0.340974	1.593985
H337	H	1.235119	-0.300091	0.879437
H338	H	1.568452	0.033242	1.212770
H339	H	1.901786	0.366576	1.546103
