data_functionalizedCrystal
_audit_creation_method	'MofGen! by Chris Wilmer'
_symmetry_space_group_name_H-M	'P1'
_symmetry_Int_Tables_number	1
_symmetry_cell_setting	triclinic
loop_
_symmetry_equiv_pos_as_xyz
  x,y,z
_cell_length_a	16.992694
_cell_length_b	10.654559
_cell_length_c	16.053789
_cell_angle_alpha	92.863006
_cell_angle_beta	92.715794
_cell_angle_gamma	87.578454
loop_
_atom_site_label
_atom_site_type_symbol
_atom_site_fract_x
_atom_site_fract_y
_atom_site_fract_z
O1	O	1.044817	0.271444	0.069317
O2	O	0.816517	0.268522	0.069342
O3	O	0.935912	0.087698	0.069329
O4	O	0.925422	0.452268	0.069330
O5	O	0.929949	0.077649	-0.069530
O6	O	0.810554	0.258474	-0.069517
O7	O	1.038854	0.261395	-0.069542
Zn8	Zn	0.923757	0.258339	-0.091576
Zn9	Zn	0.931614	0.271578	0.091376
O10	O	0.919459	0.442220	-0.069529
C11	C	0.784302	0.259738	-0.000085
C12	C	0.697197	0.248520	-0.000075
C13	C	0.932159	0.035809	-0.000099
C14	C	0.929850	-0.103833	-0.000093
C15	C	0.647548	0.356770	-0.000075
C16	C	0.565703	0.346220	-0.000087
C17	C	0.533510	0.227419	-0.000092
C18	C	0.583166	0.119160	-0.000094
C19	C	0.665009	0.129711	-0.000089
C20	C	0.289673	0.183690	-0.000115
C21	C	0.207823	0.173148	-0.000118
C22	C	0.190366	0.400209	-0.000112
C23	C	0.272212	0.410750	-0.000101
C24	C	0.321860	0.302491	-0.000108
N25	N	0.449852	0.216633	-0.000101
N26	N	0.405517	0.313278	-0.000105
C27	C	0.857382	-0.161634	-0.000083
C28	C	0.855217	-0.292844	-0.000090
C29	C	0.997995	-0.308439	-0.000112
C30	C	1.000159	-0.177232	-0.000112
C31	C	0.787073	-0.088235	-0.000065
C32	C	0.714599	-0.146036	-0.000054
C33	C	0.712434	-0.277245	-0.000060
C34	C	0.782743	-0.350654	-0.000077
C35	C	1.071069	0.270179	-0.000114
C36	C	1.158174	0.281398	-0.000118
C37	C	0.923212	0.494109	-0.000100
C38	C	0.925521	0.633751	-0.000100
N39	N	0.918401	0.249303	-0.216436
C40	C	0.964522	0.327172	-0.260132
C41	C	0.960786	0.320845	-0.347539
C42	C	0.910924	0.236653	-0.391248
C43	C	0.864801	0.158776	-0.347547
C44	C	0.868542	0.165098	-0.260142
C45	C	0.894594	0.209050	-0.652657
C46	C	0.890855	0.202736	-0.740068
C47	C	0.986841	0.364804	-0.740054
C48	C	0.990574	0.371124	-0.652648
C49	C	0.944454	0.293242	-0.608954
N50	N	0.907102	0.230186	-0.480592
N51	N	0.948281	0.299704	-0.519612
N52	N	0.936976	0.280605	0.216236
H53	H	0.673753	0.453511	-0.000070
O54	O	0.811028	0.067951	-0.394683
H55	H	0.749193	0.090137	-0.377904
O56	O	0.638768	-0.066868	-0.000048
H57	H	0.606546	-0.084228	0.056547
O58	O	0.306939	0.538882	-0.000096
H59	H	0.341394	0.545014	-0.056686
H60	H	0.653422	-0.324304	-0.000060
O61	O	0.343212	0.066925	-0.000116
H62	H	0.405532	0.094209	-0.000121
O63	O	0.718566	0.012958	-0.000091
H64	H	0.709476	-0.039412	0.056506
H65	H	0.780974	-0.457493	-0.000081
H66	H	0.525281	0.434370	-0.000086
O67	O	1.036589	0.448782	-0.787189
H68	H	1.020780	0.548698	-0.770422
H69	H	0.830985	0.101689	-0.224566
O70	O	1.073826	-0.387606	-0.000125
H71	H	1.060146	-0.488553	-0.000116
H72	H	1.059169	-0.130170	-0.000121
O73	O	0.548443	-0.008976	-0.000101
H74	H	0.565910	-0.065476	-0.056703
O75	O	0.136814	0.516965	-0.000123
H76	H	0.101522	0.521688	0.056465
O77	O	1.044358	0.461932	-0.605510
H78	H	1.039204	0.453254	-0.537390
H79	H	0.850247	0.134177	-0.775654
O80	O	1.018302	0.417980	-0.212988
H81	H	1.049750	0.471055	-0.258061
O82	O	0.173095	0.045006	-0.000131
H83	H	0.221368	-0.028502	-0.000144
O84	O	1.010528	0.404835	-0.394671
H85	H	1.045820	0.464452	-0.349592
O86	O	0.844844	0.125067	-0.605534
H87	H	0.809537	0.065476	-0.650615
H88	H	0.788828	0.018604	-0.000058
