data_functionalizedCrystal
_audit_creation_method	'MofGen! by Chris Wilmer'
_symmetry_space_group_name_H-M	'P1'
_symmetry_Int_Tables_number	1
_symmetry_cell_setting	triclinic
loop_
_symmetry_equiv_pos_as_xyz
  x,y,z
_cell_length_a	13.635800
_cell_length_b	17.253917
_cell_length_c	11.102300
_cell_angle_alpha	82.486930
_cell_angle_beta	108.605850
_cell_angle_gamma	77.340689
loop_
_atom_site_label
_atom_site_type_symbol
_atom_site_fract_x
_atom_site_fract_y
_atom_site_fract_z
V1	V	2.044083	-0.111294	0.408319
O2	O	2.035843	0.005348	0.388134
O3	O	2.020989	-0.220677	0.417464
O4	O	2.032653	-0.109582	0.580954
O5	O	2.024098	-0.106516	0.223512
V6	V	2.284098	-0.097342	0.384764
O7	O	2.178541	-0.141898	0.459988
O8	O	2.374739	-0.066738	0.333095
O9	O	2.195589	0.012041	0.375619
O10	O	2.351036	-0.213984	0.404949
O11	O	2.362781	-0.102120	0.569571
O12	O	2.183925	-0.099054	0.212129
V13	V	2.544083	-0.111294	0.408319
O14	O	2.535843	0.005348	0.388134
O15	O	2.520989	-0.220677	0.417464
O16	O	2.532653	-0.109582	0.580954
O17	O	2.524098	-0.106516	0.223512
V18	V	2.784098	-0.097342	0.384764
O19	O	2.678541	-0.141898	0.459988
O20	O	2.874739	-0.066738	0.333095
O21	O	2.695589	0.012041	0.375619
O22	O	2.851036	-0.213984	0.404949
O23	O	2.862781	-0.102120	0.569571
O24	O	2.683925	-0.099054	0.212129
C25	C	1.943345	-0.247343	0.414103
C26	C	1.965192	-0.336765	0.422731
C27	C	1.946576	-0.367288	0.309155
C28	C	1.967114	-0.451311	0.317266
C29	C	2.006260	-0.504808	0.438955
C30	C	2.024880	-0.474280	0.552540
C31	C	2.004350	-0.390259	0.544427
C32	C	2.070766	-0.757327	0.475830
C33	C	2.091292	-0.841353	0.483934
C34	C	2.033526	-0.818378	0.248659
C35	C	2.012992	-0.734356	0.240557
C36	C	2.031619	-0.703835	0.354143
N37	N	2.027251	-0.590693	0.447248
N38	N	2.010636	-0.617952	0.345848
C39	C	1.958223	-0.105628	0.622649
C40	C	1.989527	-0.104952	0.763858
C41	C	2.104903	0.038702	0.378977
C42	C	2.072676	0.128124	0.370357
C43	C	2.090025	-0.103010	0.170427
C44	C	2.048340	-0.103682	0.029217
C45	C	2.443345	-0.247343	0.414103
C46	C	2.465192	-0.336765	0.422731
C47	C	2.458223	-0.105628	0.622649
C48	C	2.489527	-0.104952	0.763858
C49	C	2.095817	-0.108652	0.837108
C50	C	2.125224	-0.108014	0.969787
C51	C	1.942040	-0.099980	0.955956
C52	C	1.912633	-0.100612	0.823277
C53	C	2.604903	0.038702	0.378977
C54	C	2.572676	0.128124	0.370357
C55	C	2.590025	-0.103010	0.170427
C56	C	2.548340	-0.103682	0.029217
C57	C	2.567038	-0.382860	0.433577
C58	C	2.587585	-0.466884	0.441704
C59	C	2.506281	-0.504811	0.438975
C60	C	2.404427	-0.458710	0.428132
C61	C	2.383885	-0.374688	0.420014
C62	C	2.643324	0.174219	0.359515
C63	C	2.613050	0.258242	0.351394
C64	C	2.512131	0.296169	0.354126
C65	C	2.441477	0.250068	0.364966
C66	C	2.471748	0.166047	0.373077
C67	C	2.595817	-0.108652	0.837108
C68	C	2.625224	-0.108014	0.969787
C69	C	2.442040	-0.099980	0.955956
C70	C	2.412633	-0.100612	0.823277
H71	H	1.914692	-0.323735	0.210062
H72	H	2.300948	-0.337162	0.411176
H73	H	2.158431	-0.112185	0.788733
H74	H	2.725502	0.143350	0.357290
C75	C	1.969922	-0.675514	0.106690
N76	N	1.937475	-0.631193	0.005859
C77	C	2.134364	-0.900200	0.617807
N78	N	2.166805	-0.944524	0.718635
C79	C	2.013069	-0.851959	0.123726
N80	N	1.997671	-0.877253	0.029622
H81	H	2.211773	-0.111026	1.029422
C82	C	2.690802	0.308932	0.339525
N83	N	2.749373	0.347108	0.330604
C84	C	2.024826	-0.356685	0.669370
N85	N	2.040252	-0.331398	0.763482
C86	C	1.795702	-0.096546	0.742699
N87	N	1.707632	-0.093483	0.682007
C88	C	1.857442	-0.095129	1.021303
N89	N	1.793712	-0.091448	1.070510
C90	C	2.357442	-0.095129	1.021303
N91	N	2.293712	-0.091448	1.070510
C92	C	2.656493	-0.341158	0.436591
N93	N	2.723880	-0.309755	0.438870
H94	H	2.670524	-0.504408	0.450529
C95	C	2.394026	0.115350	0.385022
N96	N	2.335479	0.077168	0.394020
H97	H	2.085921	-0.732488	0.568319
C98	C	2.067932	-0.533130	0.686398
N99	N	2.100352	-0.577455	0.787222
H100	H	2.487495	0.364585	0.347520
H101	H	2.359306	0.280961	0.367187
H102	H	2.658431	-0.112185	0.788733
H103	H	2.326074	-0.097593	0.763632
C104	C	1.946628	-0.484881	0.192322
N105	N	1.931196	-0.510166	0.098208
C106	C	2.528894	-0.597238	0.447896
N107	N	2.545930	-0.666854	0.454611
H108	H	2.338236	-0.489602	0.425911
H109	H	2.711773	-0.111026	1.029422
