data_functionalizedCrystal
_audit_creation_method	'MofGen! by Chris Wilmer'
_symmetry_space_group_name_H-M	'P1'
_symmetry_Int_Tables_number	1
_symmetry_cell_setting	triclinic
loop_
_symmetry_equiv_pos_as_xyz
  x,y,z
_cell_length_a	15.297475
_cell_length_b	15.296720
_cell_length_c	14.908520
_cell_angle_alpha	77.692278
_cell_angle_beta	95.852479
_cell_angle_gamma	91.617114
loop_
_atom_site_label
_atom_site_type_symbol
_atom_site_fract_x
_atom_site_fract_y
_atom_site_fract_z
Zn1	Zn	1.207407	-0.758998	0.699757
Zn2	Zn	1.707407	-0.258998	1.199757
Zn3	Zn	1.224160	-0.618508	0.829223
Zn4	Zn	1.724160	-0.118508	1.329223
Zn5	Zn	1.089605	-0.584900	0.649246
Zn6	Zn	1.589605	-0.084900	1.149246
Zn7	Zn	1.052967	-0.739228	0.820385
Zn8	Zn	1.552967	-0.239228	1.320385
O9	O	1.143535	-0.675409	0.749653
O10	O	1.643535	-0.175409	1.249653
O11	O	1.330575	-0.762701	0.741768
O12	O	1.830575	-0.262701	1.241768
O13	O	1.228655	-0.490668	0.787909
O14	O	1.728655	0.009332	1.287909
O15	O	1.113553	-0.602204	0.530142
O16	O	1.613553	-0.102204	1.030142
O17	O	1.342883	-0.659484	0.836887
O18	O	1.842883	-0.159484	1.336887
O19	O	1.200102	-0.730113	0.567252
O20	O	1.700102	-0.230113	1.067252
O21	O	1.129798	-0.465976	0.655681
O22	O	1.629798	0.034024	1.155681
O23	O	0.963799	-0.583033	0.647111
O24	O	1.463799	-0.083033	1.147111
O25	O	1.051110	-0.865232	0.821824
O26	O	1.551110	-0.365232	1.321824
O27	O	0.936882	-0.696417	0.772846
O28	O	1.436882	-0.196417	1.272846
O29	O	1.164576	-0.879758	0.733198
O30	O	1.664576	-0.379758	1.233198
O31	O	1.193129	-0.640313	0.953856
O32	O	1.693129	-0.140313	1.453856
O33	O	1.067354	-0.729005	0.947362
O34	O	1.567354	-0.229005	1.447362
C35	C	0.918981	-0.633933	0.703539
C36	C	1.418981	-0.133933	1.203539
C37	C	0.822910	-0.616211	0.683836
C38	C	1.322910	-0.116211	1.183836
C39	C	0.496181	-0.802070	0.890481
C40	C	0.996181	-0.302070	1.390481
C41	C	0.586444	-0.818718	0.908999
C42	C	1.086444	-0.318718	1.408999
C43	C	0.645565	-0.768093	0.852710
C44	C	1.145565	-0.268093	1.352710
C45	C	0.614414	-0.700817	0.777899
C46	C	1.114414	-0.200817	1.277899
C47	C	0.524143	-0.684162	0.759383
C48	C	1.024143	-0.184162	1.259383
C49	C	0.673527	-0.650185	0.721612
C50	C	1.173527	-0.150185	1.221612
C51	C	0.642376	-0.582909	0.646802
C52	C	1.142376	-0.082909	1.146802
C53	C	0.552113	-0.566258	0.628289
C54	C	1.052113	-0.066258	1.128289
C55	C	0.492992	-0.616883	0.684578
C56	C	0.992992	-0.116883	1.184578
C57	C	0.763798	-0.666840	0.740128
C58	C	1.263798	-0.166840	1.240128
C59	C	0.791759	-0.548932	0.609031
C60	C	1.291759	-0.048932	1.109031
C61	C	0.701496	-0.532284	0.590513
C62	C	1.201496	-0.032284	1.090513
C63	C	1.101887	-0.905381	0.782160
C64	C	1.601887	-0.405381	1.282160
C65	C	1.084140	-1.003382	0.796012
C66	C	1.584140	-0.503382	1.296012
C67	C	1.270422	-1.309881	0.650497
C68	C	1.770422	-0.809881	1.150497
C69	C	1.287102	-1.217806	0.637485
C70	C	1.787102	-0.717806	1.137485
C71	C	1.236363	-1.164195	0.677115
C72	C	1.736363	-0.664195	1.177115
C73	C	1.168941	-1.202669	0.729761
C74	C	1.668941	-0.702669	1.229761
C75	C	1.152264	-1.294755	0.742780
C76	C	1.652264	-0.794755	1.242780
C77	C	1.118204	-1.149069	0.769398
C78	C	1.618204	-0.649069	1.269398
C79	C	1.050782	-1.187542	0.822044
C80	C	1.550782	-0.687542	1.322044
C81	C	1.034108	-1.279619	0.835060
C82	C	1.534108	-0.779619	1.335060
C83	C	1.084847	-1.333230	0.795430
C84	C	1.584847	-0.833230	1.295430
C85	C	1.134882	-1.056983	0.756379
C86	C	1.634882	-0.556983	1.256379
C87	C	1.016723	-1.041857	0.848662
C88	C	1.516723	-0.541857	1.348662
C89	C	1.000043	-1.133932	0.861674
C90	C	1.500043	-0.633932	1.361674
C91	C	1.368966	-0.717047	0.795948
C92	C	1.868966	-0.217047	1.295948
C93	C	1.465031	-0.734790	0.815676
C94	C	1.965031	-0.234790	1.315676
C95	C	1.128104	-0.686184	0.983236
C96	C	1.628104	-0.186184	1.483236
C97	C	1.121576	-0.690838	1.083185
C98	C	1.621576	-0.190838	1.583185
C99	C	1.185074	-0.446337	0.717218
C100	C	1.685074	0.053663	1.217218
C101	C	1.203006	-0.348356	0.703147
C102	C	1.703006	0.151644	1.203147
C103	C	1.159046	-0.664615	0.515165
C104	C	1.659046	-0.164615	1.015165
C105	C	1.165656	-0.660015	0.415241
C106	C	1.665656	-0.160015	0.915241
C107	C	1.240377	-0.607340	1.277735
C108	C	1.740377	-0.107340	1.777735
C109	C	1.234247	-0.611711	1.371645
C110	C	1.734247	-0.111711	1.871645
C111	C	1.103191	-0.703954	1.364919
C112	C	1.603191	-0.203954	1.864919
C113	C	1.109321	-0.699584	1.271009
C114	C	1.609321	-0.199584	1.771009
C115	C	1.177915	-0.651274	1.227420
C116	C	1.677915	-0.151274	1.727420
C117	C	1.184041	-0.646899	1.133506
C118	C	1.684041	-0.146899	1.633506
C119	C	1.052989	-0.739147	1.126783
C120	C	1.552989	-0.239147	1.626783
C121	C	1.046860	-0.743518	1.220694
C122	C	1.546860	-0.243518	1.720694
H123	H	0.789152	-0.721617	0.801040
H124	H	1.289152	-0.221617	1.301040
C125	C	0.667218	-0.458279	0.508225
C126	C	1.167218	0.041721	1.008225
N127	N	0.641399	-0.402537	0.446247
N128	N	1.141399	0.097463	0.946247
H129	H	1.189777	-1.025667	0.713513
H130	H	1.689777	-0.525667	1.213513
H131	H	1.071270	-1.408206	0.806022
H132	H	1.571270	-0.908206	1.306022
H133	H	1.311732	-1.353540	0.618242
H134	H	1.811732	-0.853540	1.118242
H135	H	0.975408	-0.998207	0.880934
H136	H	1.475408	-0.498207	1.380934
C137	C	1.254707	-1.062908	0.662791
C138	C	1.754707	-0.562908	1.162791
N139	N	1.268523	-0.986614	0.651994
N140	N	1.768523	-0.486614	1.151994
H141	H	1.296224	-0.567997	1.242242
H142	H	1.796224	-0.067997	1.742242
H143	H	0.979215	-1.310943	0.877937
H144	H	1.479215	-0.810943	1.377937
C145	C	1.302957	-0.563376	1.426987
C146	C	1.802957	-0.063376	1.926987
N147	N	1.354712	-0.526967	1.468671
N148	N	1.854712	-0.026967	1.968671
H149	H	0.448039	-0.843276	0.936308
H150	H	0.948039	-0.343276	1.436308
C151	C	1.259495	-0.593758	1.085559
C152	C	1.759495	-0.093758	1.585559
N153	N	1.316332	-0.553732	1.049449
N154	N	1.816332	-0.053732	1.549449
H155	H	0.991014	-0.782853	1.256198
H156	H	1.491014	-0.282853	1.756198
C157	C	0.925879	-1.176265	0.919581
C158	C	1.425879	-0.676265	1.419581
N159	N	0.870017	-1.208151	0.963195
N160	N	1.370017	-0.708151	1.463195
H161	H	1.047350	-0.743292	1.400428
H162	H	1.547350	-0.243292	1.900428
C163	C	1.361257	-1.175490	0.579568
C164	C	1.861257	-0.675490	1.079568
N165	N	1.417112	-1.143616	0.535937
N166	N	1.917112	-0.643616	1.035937
H167	H	0.419491	-0.603333	0.669503
H168	H	0.919491	-0.103333	1.169503
H169	H	0.526755	-0.511469	0.567381
H170	H	1.026755	-0.011469	1.067381
H171	H	0.839896	-0.507708	0.563197
H172	H	1.339896	-0.007708	1.063197
H173	H	1.002127	-0.774918	1.085805
H174	H	1.502127	-0.274918	1.585805
H175	H	0.719061	-0.781652	0.867792
H176	H	1.219061	-0.281652	1.367792
H177	H	0.611801	-0.873492	0.969912
H178	H	1.111801	-0.373492	1.469912
