data_functionalizedCrystal
_audit_creation_method	'MofGen! by Chris Wilmer'
_symmetry_space_group_name_H-M	'P1'
_symmetry_Int_Tables_number	1
_symmetry_cell_setting	triclinic
loop_
_symmetry_equiv_pos_as_xyz
  x,y,z
_cell_length_a	14.908783
_cell_length_b	14.908520
_cell_length_c	14.908308
_cell_angle_alpha	96.360765
_cell_angle_beta	89.788727
_cell_angle_gamma	96.791586
loop_
_atom_site_label
_atom_site_type_symbol
_atom_site_fract_x
_atom_site_fract_y
_atom_site_fract_z
Zn1	Zn	1.325980	-0.317645	-0.605030
Zn2	Zn	1.825980	0.182355	-0.105030
Zn3	Zn	1.325877	-0.460296	-0.462395
Zn4	Zn	1.825877	0.039704	0.037605
Zn5	Zn	1.184353	-0.316662	-0.445949
Zn6	Zn	1.684353	0.183338	0.054051
Zn7	Zn	1.165844	-0.477686	-0.604959
Zn8	Zn	1.665844	0.022314	-0.104959
O9	O	1.250514	-0.393072	-0.529583
O10	O	1.750514	0.106928	-0.029583
O11	O	1.452212	-0.329701	-0.593023
O12	O	1.952212	0.170299	-0.093023
O13	O	1.314807	-0.433553	-0.333974
O14	O	1.814807	0.066447	0.166026
O15	O	1.210929	-0.189703	-0.460198
O16	O	1.710929	0.310297	0.039802
O17	O	1.452137	-0.434506	-0.488229
O18	O	1.952137	0.065494	0.011771
O19	O	1.314982	-0.190425	-0.577075
O20	O	1.814982	0.309575	-0.077075
O21	O	1.210830	-0.328026	-0.321891
O22	O	1.710830	0.171974	0.178109
O23	O	1.055652	-0.344889	-0.460128
O24	O	1.555652	0.155111	0.039872
O25	O	1.179384	-0.464145	-0.731208
O26	O	1.679384	0.035855	-0.231208
O27	O	1.042054	-0.463192	-0.576952
O28	O	1.542054	0.036808	-0.076952
O29	O	1.297035	-0.346564	-0.731260
O30	O	1.797035	0.153436	-0.231260
O31	O	1.296860	-0.589691	-0.488159
O32	O	1.796860	-0.089691	0.011841
O33	O	1.179284	-0.602468	-0.592900
O34	O	1.679284	-0.102468	-0.092900
C35	C	1.016119	-0.405822	-0.516749
C36	C	1.516119	0.094178	-0.016749
C37	C	0.915841	-0.411299	-0.511280
C38	C	1.415841	0.088701	-0.011280
C39	C	0.727464	-0.312628	-0.610312
C40	C	1.227464	0.187372	-0.110312
C41	C	0.633244	-0.317772	-0.605177
C42	C	1.133244	0.182228	-0.105177
C43	C	0.633180	-0.426725	-0.495871
C44	C	1.133180	0.073275	0.004129
C45	C	0.727400	-0.421581	-0.501006
C46	C	1.227400	0.078419	-0.001006
C47	C	0.774539	-0.364532	-0.558229
C48	C	1.274539	0.135468	-0.058229
C49	C	0.868760	-0.359394	-0.563369
C50	C	1.368760	0.140606	-0.063369
C51	C	0.868694	-0.468341	-0.454059
C52	C	1.368694	0.031659	0.045941
C53	C	0.774474	-0.473485	-0.448924
C54	C	1.274474	0.026515	0.051076
C55	C	1.236076	-0.629032	-0.542328
C56	C	1.736076	-0.129032	-0.042328
C57	C	1.229980	-0.729974	-0.547814
C58	C	1.729980	-0.229974	-0.047814
C59	C	1.341070	-0.906289	-0.449158
C60	C	1.841070	-0.406289	0.050842
C61	C	1.335345	-1.001133	-0.454310
C62	C	1.835345	-0.501133	0.045690
C63	C	1.212812	-1.014508	-0.563277
C64	C	1.712812	-0.514508	-0.063277
C65	C	1.218536	-0.919664	-0.558124
C66	C	1.718536	-0.419664	-0.058124
C67	C	1.282666	-0.865558	-0.501062
C68	C	1.782666	-0.365558	-0.001062
C69	C	1.288386	-0.770712	-0.495905
C70	C	1.788386	-0.270712	0.004095
C71	C	1.165857	-0.784088	-0.604875
C72	C	1.665857	-0.284088	-0.104875
C73	C	1.160133	-0.878932	-0.610028
C74	C	1.660133	-0.378932	-0.110028
C75	C	1.485824	-0.380273	-0.542468
C76	C	1.985824	0.119727	-0.042468
C77	C	1.586099	-0.374819	-0.547959
C78	C	2.086099	0.125181	-0.047959
C79	C	1.236156	-0.407404	-0.764882
C80	C	1.736156	0.092596	-0.264882
C81	C	1.230038	-0.413511	-0.865152
C82	C	1.730038	0.086489	-0.365152
C83	C	1.265031	-0.156190	-0.516810
C84	C	1.765031	0.343810	-0.016810
C85	C	1.271218	-0.055245	-0.511367
C86	C	1.771218	0.444755	-0.011367
C87	C	1.341049	-0.302529	-1.053626
C88	C	1.841049	0.197471	-0.553626
C89	C	1.335303	-0.308264	-1.147839
C90	C	1.835303	0.191736	-0.647839
C91	C	1.212797	-0.430712	-1.147792
C92	C	1.712797	0.069288	-0.647792
C93	C	1.218542	-0.424977	-1.053579
C94	C	1.718542	0.075023	-0.553579
C95	C	1.282672	-0.360884	-1.006499
C96	C	1.782672	0.139116	-0.506499
C97	C	1.288421	-0.355154	-0.912285
C98	C	1.788421	0.144846	-0.412285
C99	C	1.165911	-0.477597	-0.912240
C100	C	1.665911	0.022403	-0.412240
C101	C	1.160165	-0.483332	-1.006452
C102	C	1.660165	0.016668	-0.506452
C103	C	1.264871	-0.378727	-0.295199
C104	C	1.764871	0.121273	0.204801
C105	C	1.271180	-0.372355	-0.194925
C106	C	1.771180	0.127645	0.305075
H107	H	0.765845	-0.266181	-0.656909
H108	H	1.265845	0.233819	-0.156909
H109	H	1.160586	-0.482893	-1.186140
H110	H	1.660586	0.017107	-0.686140
H111	H	1.393281	-0.862235	-0.402689
H112	H	1.893281	-0.362235	0.097311
N113	N	1.102918	-0.540516	-0.861405
N114	N	1.602918	-0.040516	-0.361405
H115	H	1.061417	-0.581979	-0.905528
H116	H	1.561417	-0.081979	-0.405528
H117	H	1.139432	-0.578175	-0.826583
H118	H	1.639432	-0.078175	-0.326583
H119	H	0.594785	-0.473160	-0.449272
H120	H	1.094785	0.026840	0.050728
H121	H	1.340602	-0.726660	-0.449439
H122	H	1.840602	-0.226660	0.050561
H123	H	1.382905	-1.034293	-0.412047
H124	H	1.882905	-0.534293	0.087953
N125	N	0.919477	-0.524320	-0.397880
N126	N	1.419477	-0.024320	0.102120
H127	H	0.907867	-0.507090	-0.331784
H128	H	1.407867	-0.007090	0.168216
H129	H	0.898246	-0.590954	-0.414476
H130	H	1.398246	-0.090954	0.085524
H131	H	0.594920	-0.275504	-0.647585
H132	H	1.094920	0.224496	-0.147585
N133	N	1.090964	-0.937287	-0.671569
N134	N	1.590964	-0.437287	-0.171569
H135	H	1.122661	-0.977145	-0.717550
H136	H	1.622661	-0.477145	-0.217550
H137	H	1.049070	-0.976671	-0.634656
H138	H	1.549070	-0.476671	-0.134656
N139	N	0.919606	-0.297870	-0.625088
N140	N	1.419606	0.202130	-0.125088
H141	H	0.875484	-0.265769	-0.657301
H142	H	1.375484	0.234231	-0.157301
H143	H	0.963499	-0.251421	-0.588290
H144	H	1.463499	0.248579	-0.088290
N145	N	0.723631	-0.535005	-0.387200
N146	N	1.223631	-0.035005	0.112800
H147	H	0.656800	-0.530387	-0.391846
H148	H	1.156800	-0.030387	0.108154
H149	H	0.735285	-0.599839	-0.405541
H150	H	1.235285	-0.099839	0.094459
H151	H	1.393270	-0.250347	-1.015294
H152	H	1.893270	0.249653	-0.515294
H153	H	1.160606	-1.058577	-0.609740
H154	H	1.660606	-0.558577	-0.109740
N155	N	1.102854	-0.740158	-0.660856
N156	N	1.602854	-0.240158	-0.160856
H157	H	1.116207	-0.671864	-0.648933
H158	H	1.616207	-0.171864	-0.148933
H159	H	1.111906	-0.759861	-0.726963
H160	H	1.611906	-0.259861	-0.226963
H161	H	1.340639	-0.302968	-0.873955
H162	H	1.840639	0.197032	-0.373955
H163	H	1.382838	-0.260744	-1.186205
H164	H	1.882838	0.239256	-0.686205
N165	N	1.090983	-0.552440	-1.057231
N166	N	1.590983	-0.052440	-0.557231
H167	H	1.096195	-0.547214	-1.124065
H168	H	1.596195	-0.047214	-0.624065
H169	H	1.102045	-0.615541	-1.045041
H170	H	1.602045	-0.115541	-0.545041
