data_functionalizedCrystal
_audit_creation_method	'MofGen! by Chris Wilmer'
_symmetry_space_group_name_H-M	'P1'
_symmetry_Int_Tables_number	1
_symmetry_cell_setting	triclinic
loop_
_symmetry_equiv_pos_as_xyz
  x,y,z
_cell_length_a	18.101395
_cell_length_b	13.897449
_cell_length_c	13.897441
_cell_angle_alpha	90.026069
_cell_angle_beta	89.969302
_cell_angle_gamma	89.968968
loop_
_atom_site_label
_atom_site_type_symbol
_atom_site_fract_x
_atom_site_fract_y
_atom_site_fract_z
Zn1	Zn	-0.294807	-1.474613	-0.545518
Zn2	Zn	-0.418663	-1.474469	-0.384219
Zn3	Zn	-0.294840	-1.313302	-0.384221
Zn4	Zn	-0.418611	-1.313246	-0.545456
O5	O	-0.356730	-1.393907	-0.464854
O6	O	-0.311245	-1.609575	-0.524146
O7	O	-0.402273	-1.453053	-0.249237
O8	O	-0.191203	-1.334784	-0.405644
O9	O	-0.402241	-1.609470	-0.405640
O10	O	-0.191179	-1.453298	-0.524148
O11	O	-0.311300	-1.334644	-0.249239
O12	O	-0.311250	-1.178313	-0.405585
O13	O	-0.402153	-1.334688	-0.680446
O14	O	-0.402185	-1.178272	-0.524044
O15	O	-0.311195	-1.453244	-0.680491
O16	O	-0.522289	-1.452999	-0.405581
O17	O	-0.522251	-1.334549	-0.524041
C18	C	-0.356716	-1.143293	-0.464808
C19	C	-0.356728	-1.036079	-0.464812
C20	C	-0.356729	-0.949009	-0.464824
C21	C	-0.356733	-0.839777	-0.464848
C22	C	-0.549141	-1.393778	-0.464825
C23	C	-0.631455	-1.393811	-0.464845
C24	C	-0.930546	-1.394023	-0.464897
C25	C	-0.899228	-1.319670	-0.539615
C26	C	-0.813610	-1.319317	-0.539381
C27	C	-0.782163	-1.393918	-0.464872
C28	C	-0.813319	-1.366392	-0.363211
C29	C	-0.898965	-1.365913	-0.363658
C30	C	-0.898889	-1.496064	-0.490947
C31	C	-0.813237	-1.495464	-0.493176
C32	C	-0.698304	-1.393860	-0.464852
C33	C	-1.014405	-1.394078	-0.464911
C34	C	-0.163568	-1.394063	-0.464903
C35	C	-0.081254	-1.394130	-0.464924
C36	C	-0.356665	-1.393976	-0.716447
C37	C	-0.356637	-1.394005	-0.823661
C38	C	-0.356742	-0.645500	-0.464888
C39	C	-0.356740	-0.752714	-0.464873
C40	C	-0.356587	-1.394031	-1.019956
C41	C	-0.356617	-1.394014	-0.910723
C42	C	-0.356742	-1.393895	-0.214239
C43	C	-0.356561	-1.394053	-0.107026
H44	H	-0.919772	-1.336722	-0.615239
H45	H	-0.919685	-1.417719	-0.306089
C46	C	-0.927463	-1.529587	-0.588164
C47	C	-0.867762	-1.544733	-0.650463
C48	C	-0.894056	-1.575616	-0.740026
H49	H	-0.959179	-1.481888	-0.614427
H50	H	-0.954072	-1.587978	-0.580396
H51	H	-0.841164	-1.486350	-0.658233
H52	H	-0.836039	-1.592438	-0.624231
H53	H	-0.920665	-1.634007	-0.732258
H54	H	-0.925772	-1.527913	-0.766279
H55	H	-0.853553	-1.585905	-0.782303
C56	C	-0.925931	-1.570065	-0.418550
C57	C	-0.966424	-1.641284	-0.466427
C58	C	-0.991343	-1.709468	-0.399767
H59	H	-0.956535	-1.539462	-0.372174
H60	H	-0.884754	-1.598625	-0.387240
H61	H	-1.007595	-1.612727	-0.497721
H62	H	-0.935835	-1.671912	-0.512798
H63	H	-0.950166	-1.738028	-0.368457
H64	H	-1.021944	-1.678856	-0.353395
H65	H	-1.018814	-1.757803	-0.432243
H66	H	-0.792542	-1.336539	-0.614761
H67	H	-0.792952	-1.418843	-0.306023
H68	H	-0.791936	-1.292590	-0.340750
H69	H	-0.791827	-1.553792	-0.442723
C70	C	-0.928152	-1.219506	-0.516874
C71	C	-1.005414	-1.219637	-0.521598
C72	C	-1.032087	-1.127388	-0.500638
H73	H	-0.909050	-1.174937	-0.562310
H74	H	-0.912946	-1.201416	-0.453999
H75	H	-1.020613	-1.237714	-0.584463
H76	H	-1.024535	-1.264186	-0.476162
H77	H	-1.016881	-1.109298	-0.437764
H78	H	-1.012980	-1.082826	-0.546077
H79	H	-1.084511	-1.127466	-0.503832
C80	C	-0.786331	-1.218443	-0.516563
C81	C	-0.743414	-1.184524	-0.593211
C82	C	-0.718282	-1.091593	-0.572226
H83	H	-0.757285	-1.219899	-0.459677
H84	H	-0.827447	-1.176949	-0.507237
H85	H	-0.702304	-1.226006	-0.602525
H86	H	-0.772444	-1.183044	-0.650105
H87	H	-0.759398	-1.050100	-0.562901
H88	H	-0.689239	-1.093059	-0.515339
H89	H	-0.689166	-1.068564	-0.624231
C90	C	-0.925551	-1.266379	-0.334271
C91	C	-0.864500	-1.207242	-0.316274
C92	C	-0.888959	-1.115539	-0.289215
H93	H	-0.954787	-1.271183	-0.277699
H94	H	-0.954311	-1.239475	-0.384710
H95	H	-0.835752	-1.234139	-0.265839
H96	H	-0.835258	-1.202409	-0.372833
H97	H	-0.917719	-1.088635	-0.339654
H98	H	-0.918195	-1.120353	-0.232645
H99	H	-0.847540	-1.075400	-0.277009
H100	H	-0.792871	-1.516222	-0.567993
