data_functionalizedCrystal
_audit_creation_method	'MofGen! by Chris Wilmer'
_symmetry_space_group_name_H-M	'P1'
_symmetry_Int_Tables_number	1
_symmetry_cell_setting	triclinic
loop_
_symmetry_equiv_pos_as_xyz
  x,y,z
_cell_length_a	11.792254
_cell_length_b	12.503572
_cell_length_c	14.044220
_cell_angle_alpha	86.156832
_cell_angle_beta	91.306263
_cell_angle_gamma	86.456155
loop_
_atom_site_label
_atom_site_type_symbol
_atom_site_fract_x
_atom_site_fract_y
_atom_site_fract_z
O1	O	-1.525103	0.089354	0.124589
O2	O	-1.196020	0.089350	0.137974
O3	O	-1.355622	0.089342	-0.006728
O4	O	-1.365502	0.089363	0.269291
O5	O	-1.343620	-0.089300	0.004173
O6	O	-1.184019	-0.089291	0.148874
O7	O	-1.513102	-0.089287	0.135490
Cu8	Cu	-1.347465	-0.105600	0.143177
Cu9	Cu	-1.361658	0.105664	0.130286
O10	O	-1.353501	-0.089278	0.280192
C11	C	-1.147650	0.000029	0.142581
C12	C	-1.021400	0.000027	0.140057
C13	C	-0.918871	0.000029	0.138007
C14	C	-0.790244	0.000027	0.135443
N15	N	-1.337491	-0.254192	0.152244
C16	C	-1.322819	-0.473306	0.165589
C17	C	-1.386308	-0.526637	0.107870
C18	C	-1.378145	-0.648560	0.115296
C19	C	-1.330981	-0.351373	0.158165
C20	C	-0.561473	0.000032	0.130883
C21	C	-0.687722	0.000025	0.133407
C22	C	-1.345297	0.000021	-0.036615
C23	C	-1.332398	0.000019	-0.141907
N24	N	-1.371640	0.254255	0.121212
C25	C	-1.308817	0.000034	-0.334691
C26	C	-1.400302	0.000039	-0.391851
C27	C	-1.387181	0.000047	-0.499123
C28	C	-1.321936	0.000026	-0.227409
C29	C	-1.363826	0.000045	0.310078
C30	C	-1.376726	0.000054	0.415370
H31	H	-1.446795	-0.480727	0.052880
H32	H	-1.488483	0.000112	-0.360228
H33	H	-1.220647	0.000036	-0.366317
H34	H	-1.262338	-0.519211	0.220577
