data_functionalizedCrystal
_audit_creation_method	'MofGen! by Chris Wilmer'
_symmetry_space_group_name_H-M	'P1'
_symmetry_Int_Tables_number	1
_symmetry_cell_setting	triclinic
loop_
_symmetry_equiv_pos_as_xyz
  x,y,z
_cell_length_a	17.699104
_cell_length_b	15.944493
_cell_length_c	16.776229
_cell_angle_alpha	89.999222
_cell_angle_beta	89.991971
_cell_angle_gamma	83.383281
loop_
_atom_site_label
_atom_site_type_symbol
_atom_site_fract_x
_atom_site_fract_y
_atom_site_fract_z
O1	O	1.004230	0.106308	-0.066294
O2	O	1.504230	0.606308	0.433706
O3	O	0.783875	0.120110	-0.066291
O4	O	1.283875	0.620110	0.433709
O5	O	0.900093	-0.009081	-0.066299
O6	O	1.400093	0.490919	0.433701
O7	O	0.888012	0.235499	-0.066286
O8	O	1.388012	0.735499	0.433714
O9	O	0.900077	-0.009089	0.066277
O10	O	1.400077	0.490911	0.566277
O11	O	0.783859	0.120102	0.066286
O12	O	1.283859	0.620102	0.566286
O13	O	1.004215	0.106300	0.066283
O14	O	1.504215	0.606300	0.566283
Zn15	Zn	0.894035	0.113200	0.087334
Zn16	Zn	1.394035	0.613200	0.587334
Zn17	Zn	0.894055	0.113210	-0.087342
Zn18	Zn	1.394055	0.613210	0.412658
O19	O	0.887997	0.235491	0.066291
O20	O	1.387997	0.735491	0.566291
C21	C	0.755670	0.119608	-0.000002
C22	C	1.255670	0.619608	0.499998
C23	C	0.671650	0.118116	-0.000002
C24	C	1.171650	0.618116	0.499998
C25	C	0.899591	-0.040379	-0.000014
C26	C	1.399591	0.459621	0.499986
C27	C	0.898111	-0.133625	-0.000024
C28	C	1.398111	0.366375	0.499976
C29	C	0.146882	0.185531	-0.000006
C30	C	0.646882	0.685531	0.499994
C31	C	0.225828	0.186928	-0.000008
C32	C	0.725828	0.686928	0.499992
C33	C	0.274330	0.111088	-0.000012
C34	C	0.774330	0.611088	0.499988
C35	C	0.243883	0.033845	-0.000022
C36	C	0.743883	0.533845	0.499978
C37	C	0.164938	0.032449	-0.000026
C38	C	0.664938	0.532449	0.499974
C39	C	0.562257	0.039476	-0.000009
C40	C	1.062257	0.539476	0.499991
C41	C	0.641207	0.040878	-0.000003
C42	C	1.141207	0.540878	0.499997
C43	C	0.623147	0.193955	0.000008
C44	C	1.123147	0.693955	0.500008
C45	C	0.544202	0.192559	0.000005
C46	C	1.044202	0.692559	0.500005
C47	C	0.513762	0.115317	-0.000009
C48	C	1.013762	0.615317	0.499991
C49	C	0.428160	0.113802	-0.000009
C50	C	0.928160	0.613802	0.499991
C51	C	0.359931	0.112602	-0.000008
C52	C	0.859931	0.612602	0.499992
C53	C	0.966520	-0.369523	-0.000010
C54	C	1.466520	0.130477	0.499990
C55	C	0.929637	-0.420012	-0.065376
C56	C	1.429637	0.079988	0.434624
C57	C	0.895368	-0.304340	-0.000015
C58	C	1.395368	0.195660	0.499985
C59	C	0.929605	-0.419996	0.065334
C60	C	1.429605	0.080004	0.565334
C61	C	0.892724	-0.469245	-0.000002
C62	C	1.392724	0.030755	0.499998
C63	C	0.858505	-0.353602	-0.065435
C64	C	1.358505	0.146398	0.434565
C65	C	0.858483	-0.353582	0.065334
C66	C	1.358483	0.146418	0.565334
C67	C	0.821549	-0.404039	-0.000048
C68	C	1.321549	0.095961	0.499952
C69	C	0.896893	-0.209343	-0.000023
C70	C	1.396893	0.290657	0.499977
C71	C	0.891193	-0.564239	0.000001
C72	C	1.391193	-0.064239	0.500001
C73	C	1.032420	0.106802	-0.000008
C74	C	1.532420	0.606802	0.499992
C75	C	1.116439	0.108294	-0.000014
C76	C	1.616439	0.608294	0.499986
C77	C	0.888498	0.266789	0.000004
C78	C	1.388498	0.766789	0.500004
C79	C	0.889979	0.360035	0.000009
C80	C	1.389979	0.860035	0.500009
N81	N	0.894026	0.113192	0.206545
N82	N	1.394026	0.613192	0.706545
N83	N	0.894069	0.113211	-0.206553
N84	N	1.394069	0.613211	0.293447
C85	C	0.945503	0.056010	0.248258
C86	C	1.445503	0.556010	0.748258
C87	C	0.945507	0.056009	0.331710
C88	C	1.445507	0.556009	0.831710
C89	C	0.894038	0.113195	0.373448
C90	C	1.394038	0.613195	0.873448
C91	C	0.842555	0.170381	0.331728
C92	C	1.342555	0.670381	0.831728
C93	C	0.842548	0.170377	0.248278
C94	C	1.342548	0.670377	0.748278
C95	C	0.842583	0.170397	0.668276
C96	C	1.342583	0.670397	1.168276
C97	C	0.842595	0.170398	0.751732
C98	C	1.342595	0.670398	1.251732
C99	C	0.945542	0.056029	0.751708
C100	C	1.445542	0.556029	1.251708
C101	C	0.945535	0.056025	0.668258
C102	C	1.445535	0.556025	1.168258
C103	C	0.894050	0.113207	0.626546
C104	C	1.394050	0.613207	1.126546
C105	C	0.894045	0.113206	0.536057
C106	C	1.394045	0.613206	1.036057
C107	C	0.894046	0.113201	0.463934
C108	C	1.394046	0.613201	0.963934
H109	H	0.107396	0.247289	0.000003
H110	H	0.607396	0.747289	0.500003
H111	H	0.250609	0.249822	-0.000010
H112	H	0.750609	0.749822	0.499990
H113	H	0.828455	-0.324564	0.120600
H114	H	1.328455	0.175436	0.620600
Br115	Br	1.068668	-0.343678	-0.000115
Br116	Br	1.568668	0.156322	0.499885
H117	H	0.800629	0.216939	0.214315
H118	H	1.300629	0.716939	0.714315
H119	H	0.140154	-0.030445	-0.000033
H120	H	0.640154	0.469555	0.499967
H121	H	0.800680	0.216968	0.785713
H122	H	1.300680	0.716968	1.285713
H123	H	0.800663	0.216958	0.634320
H124	H	1.300663	0.716958	1.134320
Br125	Br	0.478381	0.295488	0.000014
Br126	Br	0.978381	0.795488	0.500014
H127	H	0.680696	-0.020884	-0.000009
H128	H	1.180696	0.479116	0.499991
H129	H	0.987462	0.009466	0.785679
H130	H	1.487462	0.509466	1.285679
Br131	Br	0.979727	-0.468355	-0.157487
Br132	Br	1.479727	0.031645	0.342513
H133	H	0.800644	0.216940	0.365716
H134	H	1.300644	0.716940	0.865716
Br135	Br	1.015392	-0.021582	0.611616
Br136	Br	1.515392	0.478418	1.111616
Br137	Br	0.979699	-0.468324	0.157435
Br138	Br	1.479699	0.031676	0.657435
H139	H	0.760213	-0.419381	-0.000083
H140	H	1.260213	0.080619	0.499917
Br141	Br	1.015367	-0.021600	0.388324
Br142	Br	1.515367	0.478400	0.888324
Br143	Br	0.664462	0.298786	0.000024
Br144	Br	1.164462	0.798786	0.500024
Br145	Br	0.520955	-0.065353	-0.000052
Br146	Br	1.020955	0.434647	0.499948
H147	H	0.283380	-0.027905	-0.000030
H148	H	0.783380	0.472095	0.499970
Br149	Br	0.808463	-0.305467	-0.157643
Br150	Br	1.308463	0.194533	0.342357
H151	H	0.987419	0.009445	0.214281
H152	H	1.487419	0.509445	0.714281
