data_functionalizedCrystal
_audit_creation_method	'MofGen! by Chris Wilmer'
_symmetry_space_group_name_H-M	'P1'
_symmetry_Int_Tables_number	1
_symmetry_cell_setting	triclinic
loop_
_symmetry_equiv_pos_as_xyz
  x,y,z
_cell_length_a	12.759401
_cell_length_b	12.759393
_cell_length_c	12.759399
_cell_angle_alpha	89.969094
_cell_angle_beta	89.980611
_cell_angle_gamma	90.017606
loop_
_atom_site_label
_atom_site_type_symbol
_atom_site_fract_x
_atom_site_fract_y
_atom_site_fract_z
Zn1	Zn	1.606263	0.593924	0.418096
Zn2	Zn	2.106263	1.093924	0.918096
Zn3	Zn	1.606153	0.418243	0.593811
Zn4	Zn	2.106153	0.918243	1.093811
Zn5	Zn	1.430562	0.418269	0.418160
Zn6	Zn	1.930562	0.918269	0.918160
Zn7	Zn	1.430553	0.593890	0.593746
Zn8	Zn	1.930553	1.093890	1.093746
O9	O	1.518383	0.506081	0.505953
O10	O	2.018383	1.006081	1.005953
O11	O	1.753270	0.570622	0.441405
O12	O	2.253270	1.070622	0.941405
O13	O	1.582818	0.271225	0.570565
O14	O	2.082818	0.771225	1.070565
O15	O	1.453919	0.441595	0.271130
O16	O	1.953919	0.941595	0.771130
O17	O	1.753189	0.441550	0.570503
O18	O	2.253189	0.941550	1.070503
O19	O	1.583006	0.570648	0.271083
O20	O	2.083006	1.070648	0.771083
O21	O	1.453812	0.271245	0.441515
O22	O	1.953812	0.771245	0.941515
O23	O	1.283540	0.441563	0.441452
O24	O	1.783540	0.941563	0.941452
O25	O	1.453903	0.740916	0.570392
O26	O	1.953903	1.240916	1.070392
O27	O	1.283533	0.570591	0.570454
O28	O	1.783533	1.070591	1.070454
O29	O	1.582997	0.740940	0.441342
O30	O	2.082997	1.240940	0.941342
O31	O	1.582809	0.441517	0.740824
O32	O	2.082809	0.941517	1.240824
O33	O	1.453796	0.570565	0.740776
O34	O	1.953796	1.070565	1.240776
C35	C	1.245415	0.506076	0.505954
C36	C	1.745415	1.006076	1.005954
C37	C	1.128639	0.506099	0.505979
C38	C	1.628639	1.006099	1.005979
C39	C	1.518461	0.780115	0.505852
C40	C	2.018461	1.280115	1.005852
C41	C	1.518495	0.896892	0.505809
C42	C	2.018495	1.396892	1.005809
C43	C	1.518318	0.506058	0.778921
C44	C	2.018318	1.006058	1.278921
C45	C	1.518387	0.506082	0.895697
C46	C	2.018387	1.006082	1.395697
C47	C	1.792416	0.506087	0.505954
C48	C	2.292416	1.006087	1.005954
C49	C	1.909193	0.506089	0.505954
C50	C	2.409193	1.006089	1.005954
C51	C	1.964098	0.573289	0.438744
C52	C	2.464098	1.073289	0.938744
C53	C	2.073822	0.573297	0.438759
C54	C	2.573822	1.073297	0.938759
C55	C	2.073725	0.438896	0.573196
C56	C	2.573725	0.938896	1.073196
C57	C	1.964003	0.438894	0.573186
C58	C	2.464003	0.938894	1.073186
C59	C	1.518365	0.233114	0.505978
C60	C	2.018365	0.733114	1.005978
C61	C	1.518535	0.116338	0.505725
C62	C	2.018535	0.616338	1.005725
C63	C	1.585719	0.951768	0.438603
C64	C	2.085719	1.451768	0.938603
C65	C	1.585737	1.061492	0.438557
C66	C	2.085737	1.561492	0.938557
C67	C	1.451303	1.061454	0.572935
C68	C	1.951303	1.561454	1.072935
C69	C	1.451281	0.951732	0.572974
C70	C	1.951281	1.451732	1.072974
C71	C	1.518476	0.506128	0.231920
C72	C	2.018476	1.006128	0.731920
C73	C	1.518516	0.506148	0.115143
C74	C	2.018516	1.006148	0.615143
C75	C	1.585641	0.438964	0.950549
C76	C	2.085641	0.938964	1.450549
C77	C	1.585708	0.438999	1.060273
C78	C	2.085708	0.938999	1.560273
C79	C	1.451259	0.573274	1.060284
C80	C	1.951259	1.073274	1.560284
C81	C	1.451198	0.573244	0.950562
C82	C	1.951198	1.073244	1.450562
H83	H	1.919475	0.628004	0.383999
H84	H	2.419475	1.128004	0.883999
H85	H	1.640474	0.384346	1.104929
H86	H	2.140474	0.884346	1.604929
H87	H	1.396583	1.106118	0.627620
H88	H	1.896583	1.606118	1.127620
H89	H	1.640446	0.907121	0.383910
H90	H	2.140446	1.407121	0.883910
H91	H	2.118522	0.628019	0.384031
H92	H	2.618522	1.128019	0.884031
H93	H	2.118366	0.384187	0.627932
H94	H	2.618366	0.884187	1.127932
H95	H	1.919298	0.384171	0.627922
H96	H	2.419298	0.884171	1.127922
H97	H	1.640476	1.106168	0.383829
H98	H	2.140476	1.606168	0.883829
H99	H	1.396532	0.907050	0.627701
H100	H	1.896532	1.407050	1.127701
H101	H	1.396432	0.627905	0.905898
H102	H	1.896432	1.127905	1.405898
H103	H	1.640352	0.384279	0.905881
H104	H	2.140352	0.884279	1.405881
H105	H	1.396555	0.627953	1.104968
H106	H	1.896555	1.127953	1.604968
