data_functionalizedCrystal
_audit_creation_method	'MofGen! by Chris Wilmer'
_symmetry_space_group_name_H-M	'P1'
_symmetry_Int_Tables_number	1
_symmetry_cell_setting	triclinic
loop_
_symmetry_equiv_pos_as_xyz
  x,y,z
_cell_length_a	19.288864
_cell_length_b	12.996460
_cell_length_c	19.288865
_cell_angle_alpha	90.005525
_cell_angle_beta	83.136245
_cell_angle_gamma	90.020041
loop_
_atom_site_label
_atom_site_type_symbol
_atom_site_fract_x
_atom_site_fract_y
_atom_site_fract_z
O1	O	0.921351	0.085909	0.086643
O2	O	0.719090	0.085840	0.098332
O3	O	0.826065	0.085856	-0.008643
O4	O	0.814376	0.085893	0.193618
O5	O	0.826051	-0.085278	-0.008637
O6	O	0.719076	-0.085294	0.098338
O7	O	0.921337	-0.085225	0.086649
Cu8	Cu	0.820205	-0.100886	0.092494
Cu9	Cu	0.820222	0.101500	0.092487
O10	O	0.814362	-0.085241	0.193624
C11	C	0.693207	0.000264	0.097959
C12	C	0.616103	0.000237	0.096830
N13	N	0.820199	-0.243233	0.092499
C14	C	0.571407	0.000264	0.159598
C15	C	0.498960	0.000275	0.158537
C16	C	0.471212	0.000280	0.094705
C17	C	0.515918	0.000246	0.031929
C18	C	0.588364	0.000225	0.032991
C19	C	0.362955	0.060261	0.044523
C20	C	0.290510	0.060289	0.043464
C21	C	0.247767	0.000341	0.091425
C22	C	0.277474	-0.059621	0.140458
C23	C	0.349920	-0.059642	0.141521
C24	C	0.392658	0.000302	0.093546
C25	C	0.124514	0.000380	0.153047
C26	C	0.052066	0.000384	0.151984
C27	C	0.069026	0.000366	0.025374
C28	C	0.141473	0.000350	0.026439
C29	C	0.169212	0.000362	0.090278
C30	C	0.820202	-0.336339	0.092501
C31	C	0.820208	-0.453144	0.092496
C32	C	0.820217	-0.546242	0.092488
C33	C	0.820225	-0.663055	0.092484
C34	C	0.947220	0.000353	0.087022
C35	C	1.024324	0.000387	0.088151
C36	C	0.825682	0.000286	-0.034516
C37	C	0.824553	0.000276	-0.111620
N38	N	0.820233	0.243847	0.092476
C39	C	0.887321	0.000293	-0.156316
C40	C	0.886260	0.000308	-0.228763
C41	C	0.822428	0.000287	-0.256511
C42	C	0.759652	0.000277	-0.211805
C43	C	0.760714	0.000271	-0.139359
C44	C	0.772243	-0.059674	-0.364796
C45	C	0.771184	-0.059675	-0.437241
C46	C	0.819148	0.000309	-0.479956
C47	C	0.868184	0.060281	-0.450221
C48	C	0.869247	0.060275	-0.377775
C49	C	0.821269	0.000294	-0.335065
C50	C	0.880770	0.000344	-0.603209
C51	C	0.879707	0.000367	-0.675657
C52	C	0.753097	0.000325	-0.658697
C53	C	0.754162	0.000313	-0.586250
C54	C	0.818001	0.000318	-0.558511
C55	C	0.814745	0.000331	0.219497
C56	C	0.815874	0.000347	0.296601
H57	H	0.593987	0.000276	0.211580
H58	H	0.939303	0.000300	-0.133736
H59	H	0.177866	0.000334	-0.024674
H60	H	0.909172	0.109108	-0.353567
H61	H	0.015674	0.000401	0.203099
H62	H	0.930822	0.000386	-0.712049
H63	H	0.242673	-0.108436	0.179513
H64	H	0.046435	0.000433	-0.026600
H65	H	0.731252	-0.108501	-0.461445
H66	H	0.709599	0.000258	-0.102967
H67	H	0.266328	0.109117	0.003541
H68	H	0.932751	0.000353	-0.580622
H69	H	0.374105	-0.108469	0.181443
H70	H	0.397752	0.109083	0.005466
H71	H	0.462561	0.000295	0.209652
H72	H	0.907241	0.109126	-0.484999
H73	H	0.147101	0.000374	0.205028
H74	H	0.493322	0.000264	-0.020044
H75	H	0.703049	0.000294	-0.549857
H76	H	0.624756	0.000203	-0.018124
H77	H	0.937375	0.000326	-0.265162
H78	H	0.733183	-0.108526	-0.330022
H79	H	0.701123	0.000313	-0.681288
H80	H	0.707679	0.000262	-0.234401
