data_functionalizedCrystal
_audit_creation_method	'MofGen! by Chris Wilmer'
_symmetry_space_group_name_H-M	'P1'
_symmetry_Int_Tables_number	1
_symmetry_cell_setting	triclinic
loop_
_symmetry_equiv_pos_as_xyz
  x,y,z
_cell_length_a	18.215407
_cell_length_b	12.759394
_cell_length_c	18.215399
_cell_angle_alpha	90.023582
_cell_angle_beta	90.019833
_cell_angle_gamma	90.014304
loop_
_atom_site_label
_atom_site_type_symbol
_atom_site_fract_x
_atom_site_fract_y
_atom_site_fract_z
Zn1	Zn	1.125128	-0.418265	0.416138
Zn2	Zn	1.125060	-0.593962	0.293081
Zn3	Zn	1.002061	-0.418299	0.293086
Zn4	Zn	1.002050	-0.593904	0.416106
O5	O	1.063575	-0.506107	0.354603
O6	O	1.228104	-0.441581	0.399826
O7	O	1.108720	-0.570699	0.190098
O8	O	1.018419	-0.271273	0.309424
O9	O	1.228054	-0.570666	0.309417
O10	O	1.108836	-0.271248	0.399830
O11	O	1.018353	-0.441640	0.190101
O12	O	0.899075	-0.441583	0.309393
O13	O	1.018401	-0.570566	0.519095
O14	O	0.899068	-0.570599	0.399776
O15	O	1.108826	-0.441525	0.519118
O16	O	1.108710	-0.740975	0.309386
O17	O	1.018335	-0.740932	0.399772
C18	C	0.872369	-0.506089	0.354582
C19	C	0.790570	-0.506107	0.354590
C20	C	1.063534	-0.779075	0.354591
C21	C	1.063584	-0.895852	0.354610
C22	C	0.602391	-0.573391	0.401593
C23	C	0.525533	-0.573395	0.401603
C24	C	0.525511	-0.438843	0.307628
C25	C	0.602368	-0.438835	0.307623
C26	C	0.640806	-0.506115	0.354605
C27	C	0.487090	-0.506126	0.354619
C28	C	0.403757	-0.506129	0.354629
C29	C	0.724145	-0.506111	0.354596
C30	C	1.157665	-0.895667	0.448821
C31	C	1.204728	-0.950436	0.495932
C32	C	1.204772	-1.060157	0.495947
C33	C	1.157746	-1.115113	0.448849
C34	C	1.110682	-1.060344	0.401738
C35	C	1.110645	-0.950620	0.401726
C36	C	1.016599	-1.060529	0.307532
C37	C	1.016557	-0.950807	0.307512
C38	C	0.969572	-1.115484	0.260434
C39	C	0.922511	-1.060716	0.213318
C40	C	0.922470	-0.950987	0.213304
C41	C	0.969494	-0.896039	0.260401
C42	C	1.255528	-0.506126	0.354624
C43	C	1.337327	-0.506134	0.354634
C44	C	1.063620	-0.506035	0.546556
C45	C	1.063639	-0.506004	0.628355
C46	C	1.063636	-0.232074	0.354631
C47	C	1.063662	-0.115297	0.354643
C48	C	1.063573	-0.506104	0.163397
C49	C	1.063696	-0.505839	0.081598
C50	C	1.110740	-0.438749	0.816562
C51	C	1.110749	-0.438719	0.893421
C52	C	1.016590	-0.573096	0.893385
C53	C	1.016578	-0.573121	0.816528
C54	C	1.063657	-0.505949	0.778118
C55	C	1.063678	-0.505894	0.931835
C56	C	1.063687	-0.505861	1.015168
C57	C	1.063647	-0.505980	0.694779
H58	H	0.494258	-0.628176	0.439866
H59	H	0.978232	-0.627842	0.785226
C60	C	0.923515	-0.705922	0.885630
C61	C	0.964847	-0.646937	0.935607
H62	H	0.891569	-0.751505	0.911696
H63	H	0.955567	-0.746117	0.855654
H64	H	0.895370	-0.660143	0.855653
H65	H	0.992997	-0.692715	0.965580
H66	H	0.932791	-0.606739	0.965595
C67	C	0.594690	-0.706378	0.494491
C68	C	0.644643	-0.647333	0.453243
H69	H	0.620775	-0.752020	0.526382
H70	H	0.564698	-0.746513	0.462384
H71	H	0.564728	-0.660641	0.522691
H72	H	0.674602	-0.693069	0.425038
H73	H	0.674648	-0.607194	0.485354
C74	C	0.407684	-0.379110	0.265909
C75	C	0.483257	-0.364895	0.255985
H76	H	0.381601	-0.333460	0.234022
H77	H	0.395115	-0.363824	0.315369
H78	H	0.395082	-0.449685	0.255054
H79	H	0.495859	-0.294321	0.266846
H80	H	0.495831	-0.380173	0.206514
C81	C	1.152566	-0.378997	1.011252
C82	C	1.162500	-0.364846	0.935679
H83	H	1.184511	-0.333380	1.037338
H84	H	1.163329	-0.449572	1.023841
H85	H	1.103120	-0.363616	1.023828
H86	H	1.211944	-0.380234	0.923102
H87	H	1.151742	-0.294254	0.923085
H88	H	0.633647	-0.384044	0.269360
C89	C	1.208833	-0.738389	0.500087
C90	C	1.157620	-0.775059	0.448802
H91	H	1.208802	-0.663931	0.500078
H92	H	1.256332	-0.763167	0.487399
H93	H	1.196089	-0.763189	0.547569
H94	H	1.170368	-0.750266	0.401319
H95	H	1.110112	-0.750271	0.461487
C96	C	1.240499	-0.916495	0.620574
C97	C	1.256414	-0.890022	0.547703
H98	H	1.272403	-0.879194	0.652535
H99	H	1.247264	-0.989670	0.627321
H100	H	1.191037	-0.898558	0.631289
H101	H	1.305874	-0.907966	0.536987
H102	H	1.249654	-0.816831	0.540953
H103	H	1.243088	-1.104750	0.534317
C104	C	1.087783	-1.272344	0.467580
C105	C	1.157788	-1.235720	0.448874
H106	H	1.087811	-1.346803	0.467599
H107	H	1.053035	-1.247597	0.432779
H108	H	1.075032	-1.247482	0.515056
H109	H	1.170537	-1.260576	0.401395
H110	H	1.192547	-1.260478	0.483676
C111	C	0.950849	-1.272627	0.330448
C112	C	0.969621	-1.236092	0.260450
H113	H	0.950884	-1.347086	0.330455
H114	H	0.903346	-1.247856	0.343125
H115	H	0.985593	-1.247730	0.365232
H116	H	0.934873	-1.260983	0.225666
H117	H	1.017131	-1.260874	0.247764
H118	H	0.884142	-0.906401	0.174943
C119	C	0.880798	-1.228994	0.171519
C120	C	0.870825	-1.121123	0.161552
H121	H	0.848892	-1.266287	0.139555
H122	H	0.870007	-1.246931	0.220954
H123	H	0.930260	-1.246921	0.160794
H124	H	0.821365	-1.103194	0.172282
H125	H	0.881611	-1.103178	0.112105
H126	H	0.969468	-0.806697	0.260390
C127	C	1.203805	-0.305912	0.824320
C128	C	1.162481	-0.364905	0.774342
H129	H	1.235744	-0.260316	0.798255
H130	H	1.231952	-0.351676	0.854294
H131	H	1.171744	-0.265720	0.854299
H132	H	1.194543	-0.405103	0.744367
H133	H	1.134333	-0.319134	0.744355
