data_functionalizedCrystal
_audit_creation_method	'MofGen! by Chris Wilmer'
_symmetry_space_group_name_H-M	'P1'
_symmetry_Int_Tables_number	1
_symmetry_cell_setting	triclinic
loop_
_symmetry_equiv_pos_as_xyz
  x,y,z
_cell_length_a	10.654545
_cell_length_b	15.995292
_cell_length_c	9.130313
_cell_angle_alpha	89.998674
_cell_angle_beta	89.996934
_cell_angle_gamma	83.975848
loop_
_atom_site_label
_atom_site_type_symbol
_atom_site_fract_x
_atom_site_fract_y
_atom_site_fract_z
O1	O	1.666270	0.117587	-0.121773
O2	O	1.300641	0.128796	-0.121778
O3	O	1.493488	0.001359	-0.121778
O4	O	1.473423	0.245025	-0.121774
O5	O	1.493475	0.001355	0.121821
O6	O	1.300628	0.128792	0.121820
O7	O	1.666257	0.117584	0.121825
Cu8	Cu	1.483441	0.123188	0.144065
Cu9	Cu	1.483456	0.123192	-0.144018
O10	O	1.473409	0.245021	0.121825
C11	C	1.253847	0.127972	0.000020
C12	C	1.114436	0.125512	0.000018
C13	C	1.048940	0.124352	0.132804
C14	C	0.917952	0.122027	0.132804
C15	C	0.917967	0.122025	-0.132780
C16	C	1.048954	0.124345	-0.132779
C17	C	1.492665	-0.029843	0.000018
C18	C	1.490216	-0.122810	0.000007
C19	C	1.481216	-0.460601	0.000020
C20	C	1.620408	-0.436482	0.000566
C21	C	1.623053	-0.339791	0.000012
C22	C	1.485682	-0.293019	0.000014
C23	C	1.416100	-0.322521	-0.139089
C24	C	1.414424	-0.419322	-0.139200
C25	C	1.411567	-0.419199	0.137817
C26	C	1.416725	-0.322677	0.139650
C27	C	1.488199	-0.198308	0.000006
C28	C	1.478695	-0.555311	0.000018
C29	C	1.713050	0.118408	0.000024
C30	C	1.852461	0.120868	0.000016
C31	C	1.474233	0.276223	0.000026
C32	C	1.476681	0.369190	0.000028
N33	N	1.483439	0.123184	0.346688
N34	N	1.483468	0.123189	-0.346641
C35	C	1.568860	0.066779	0.423340
C36	C	1.568873	0.066779	0.576677
C37	C	1.398038	0.179597	0.576696
C38	C	1.398021	0.179592	0.423362
H39	H	0.864631	0.121083	0.240933
C40	C	1.692895	-0.473888	0.135316
H41	H	1.776673	-0.458605	0.133599
H42	H	1.695013	-0.533398	0.133470
H43	H	1.651726	-0.452726	0.222022
H44	H	1.673766	-0.465189	-0.098630
H45	H	1.309111	-0.433784	0.138756
H46	H	1.677881	-0.321067	-0.099876
H47	H	1.464430	-0.302179	-0.242610
H48	H	0.864635	0.121076	-0.240899
H49	H	1.102283	0.125287	-0.240916
C50	C	1.120974	0.125629	0.278870
H51	H	1.208366	0.127184	0.259857
H52	H	1.109103	0.076506	0.333432
H53	H	1.089903	0.173996	0.333427
H54	H	1.462625	-0.445857	-0.243184
H55	H	1.677548	-0.320451	0.099724
C56	C	1.662813	0.004735	0.338996
H57	H	1.650582	0.012815	0.236697
H58	H	1.649211	-0.051235	0.364132
H59	H	1.746621	0.014360	0.364113
C60	C	1.276565	-0.439783	-0.147769
H61	H	1.221831	-0.388952	-0.151177
H62	H	1.257478	-0.471238	-0.063896
H63	H	1.265333	-0.471769	-0.233559
C64	C	1.281276	-0.278920	0.151018
H65	H	1.264929	-0.241832	0.070385
H66	H	1.272255	-0.247913	0.239803
H67	H	1.223073	-0.320024	0.149846
H68	H	1.315013	-0.291240	-0.144259
C69	C	1.304056	0.241643	0.339039
H70	H	1.253199	0.275246	0.406662
H71	H	1.251791	0.211195	0.279238
H72	H	1.349218	0.276779	0.279210
H73	H	1.455396	-0.447036	0.243257
C74	C	1.662841	0.004737	0.660988
H75	H	1.713712	-0.028852	0.593358
H76	H	1.617695	-0.030401	0.720818
H77	H	1.715109	0.035191	0.720787
C78	C	1.485155	-0.297196	0.278674
H79	H	1.555453	-0.268597	0.251748
H80	H	1.513536	-0.346098	0.333298
H81	H	1.428691	-0.261151	0.336733
H82	H	1.328494	0.225524	0.639140
