data_functionalizedCrystal
_audit_creation_method	'MofGen! by Chris Wilmer'
_symmetry_space_group_name_H-M	'P1'
_symmetry_Int_Tables_number	1
_symmetry_cell_setting	triclinic
loop_
_symmetry_equiv_pos_as_xyz
  x,y,z
_cell_length_a	10.489716
_cell_length_b	9.065218
_cell_length_c	8.140239
_cell_angle_alpha	90.001671
_cell_angle_beta	90.001102
_cell_angle_gamma	84.772511
loop_
_atom_site_label
_atom_site_type_symbol
_atom_site_fract_x
_atom_site_fract_y
_atom_site_fract_z
O1	O	1.694818	0.207992	0.136594
O2	O	1.323689	0.227570	0.136600
O3	O	1.516924	0.003101	0.136592
O4	O	1.501582	0.432461	0.136602
O5	O	1.516918	0.003099	-0.136635
O6	O	1.323682	0.227568	-0.136627
O7	O	1.694811	0.207991	-0.136633
Zn8	Zn	1.509246	0.217779	-0.180011
Zn9	Zn	1.509254	0.217781	0.179978
O10	O	1.501576	0.432460	-0.136625
C11	C	1.276148	0.226098	-0.000013
C12	C	1.134501	0.221697	-0.000010
C13	C	1.037324	0.359348	-0.000003
C14	C	0.959713	0.286610	-0.134728
C15	C	0.959725	0.286579	0.134653
C16	C	1.058755	0.149016	-0.134846
C17	C	1.058773	0.149005	0.134656
C18	C	0.981210	0.076165	-0.000102
C19	C	1.515447	-0.051880	-0.000019
C20	C	1.511038	-0.215701	-0.000012
C21	C	1.742352	0.209462	-0.000016
C22	C	1.883999	0.213863	-0.000008
C23	C	1.503053	0.487440	-0.000010
C24	C	1.507462	0.651261	-0.000006
N25	N	1.509250	0.217777	-0.425693
N26	N	1.509261	0.217772	0.425660
H27	H	0.916454	0.344716	0.248535
N28	N	0.949983	-0.074137	-0.000216
N29	N	0.835442	-0.101949	0.000847
H30	H	0.813382	-0.208098	0.000757
N31	N	1.068825	0.509550	-0.000181
N32	N	1.032963	0.593834	-0.116041
H33	H	1.055215	0.699911	-0.116178
H34	H	0.916438	0.344718	-0.248622
H35	H	1.102062	0.090942	0.248556
N36	N	1.112837	0.076165	-0.277868
N37	N	1.231078	0.067876	-0.300978
H38	H	1.269277	0.016430	-0.401986
