data_functionalizedCrystal
_audit_creation_method	'MofGen! by Chris Wilmer'
_symmetry_space_group_name_H-M	'P1'
_symmetry_Int_Tables_number	1
_symmetry_cell_setting	triclinic
loop_
_symmetry_equiv_pos_as_xyz
  x,y,z
_cell_length_a	19.077105
_cell_length_b	15.297510
_cell_length_c	19.077174
_cell_angle_alpha	77.696628
_cell_angle_beta	85.483752
_cell_angle_gamma	82.180037
loop_
_atom_site_label
_atom_site_type_symbol
_atom_site_fract_x
_atom_site_fract_y
_atom_site_fract_z
Zn1	Zn	1.036782	0.438342	-0.498720
Zn2	Zn	1.536782	0.938342	0.001280
Zn3	Zn	1.013196	0.582892	-0.399588
Zn4	Zn	1.513196	1.082892	0.100412
Zn5	Zn	0.915805	0.425731	-0.374481
Zn6	Zn	1.415805	0.925731	0.125519
Zn7	Zn	0.900097	0.582833	-0.512699
Zn8	Zn	1.400097	1.082833	-0.012699
O9	O	0.966470	0.507450	-0.446372
O10	O	1.466470	1.007450	0.053628
O11	O	1.131615	0.462820	-0.490228
O12	O	1.631615	0.962820	0.009772
O13	O	0.996979	0.556791	-0.296927
O14	O	1.496979	1.056791	0.203073
O15	O	0.948297	0.301162	-0.374605
O16	O	1.448297	0.801162	0.125395
O17	O	1.114286	0.569020	-0.417396
O18	O	1.614286	1.069020	0.082604
O19	O	1.037179	0.310428	-0.465882
O20	O	1.537179	0.810428	0.034118
O21	O	0.925427	0.441326	-0.278481
O22	O	1.425427	0.941326	0.221519
O23	O	0.815760	0.441269	-0.388159
O24	O	1.315760	0.941269	0.111841
O25	O	0.921526	0.568919	-0.610176
O26	O	1.421526	1.068919	-0.110176
O27	O	0.804220	0.556690	-0.489706
O28	O	1.304220	1.056690	0.010294
O29	O	1.021948	0.462763	-0.599906
O30	O	1.521948	0.962763	-0.099906
O31	O	0.981748	0.709126	-0.430950
O32	O	1.481748	1.209126	0.069050
O33	O	0.898656	0.709082	-0.514052
O34	O	1.398656	1.209082	-0.014052
C35	C	0.784589	0.497605	-0.437726
C36	C	1.284589	0.997605	0.062274
C37	C	0.706778	0.493417	-0.434046
C38	C	1.206778	0.993417	0.065954
C39	C	0.664218	0.551626	-0.485128
C40	C	1.164218	1.051626	0.014872
C41	C	0.591107	0.547678	-0.481672
C42	C	1.091107	1.047678	0.018328
C43	C	0.560557	0.485525	-0.427132
C44	C	1.060557	0.985525	0.072868
C45	C	0.603122	0.427310	-0.376048
C46	C	1.103122	0.927310	0.123952
C47	C	0.676232	0.431254	-0.379507
C48	C	1.176232	0.931254	0.120493
C49	C	0.342546	0.467273	-0.411127
C50	C	0.842546	0.967273	0.088873
C51	C	0.269430	0.463335	-0.407671
C52	C	0.769430	0.963335	0.092329
C53	C	0.257420	0.583703	-0.513297
C54	C	0.757420	1.083703	-0.013297
C55	C	0.330531	0.587645	-0.516748
C56	C	0.830531	1.087645	-0.016748
C57	C	0.373091	0.529427	-0.465666
C58	C	0.873091	1.029427	0.034334
N59	N	0.485826	0.481491	-0.423597
N60	N	0.985826	0.981491	0.076403
N61	N	0.447822	0.533458	-0.469204
N62	N	0.947822	1.033458	0.030796
C63	C	0.935958	0.741839	-0.476759
C64	C	1.435958	1.241839	0.023241
C65	C	0.922969	0.842117	-0.489785
C66	C	1.422969	1.342117	0.010215
C67	C	1.059564	1.124762	-0.353567
C68	C	1.559564	1.624762	0.146433
C69	C	1.071767	1.030546	-0.341325
C70	C	1.571767	1.530546	0.158675
C71	C	1.034569	0.983434	-0.378439
C72	C	1.534569	1.483434	0.121561
C73	C	0.985165	1.030547	-0.427797
C74	C	1.485165	1.530547	0.072203
C75	C	0.972957	1.124772	-0.440037
C76	C	1.472957	1.624772	0.059963
C77	C	0.947962	0.983444	-0.464908
C78	C	1.447962	1.483444	0.035092
C79	C	0.898558	1.030557	-0.514266
C80	C	1.398558	1.530557	-0.014266
C81	C	0.886353	1.124773	-0.526504
C82	C	1.386353	1.624773	-0.026504
C83	C	0.923551	1.171885	-0.489390
C84	C	1.423551	1.671885	0.010610
C85	C	0.960170	0.889219	-0.452669
C86	C	1.460170	1.389219	0.047331
C87	C	0.873563	0.889229	-0.539138
C88	C	1.373563	1.389229	-0.039138
C89	C	0.861360	0.983445	-0.551381
C90	C	1.361360	1.483445	-0.051381
C91	C	1.149061	0.517333	-0.455053
C92	C	1.649061	1.017333	0.044947
C93	C	1.226871	0.521545	-0.458752
C94	C	1.726871	1.021545	0.041248
C95	C	0.972616	0.517241	-0.631516
C96	C	1.472616	1.017241	-0.131516
C97	C	0.975235	0.521413	-0.710414
C98	C	1.475235	1.021413	-0.210414
C99	C	0.997115	1.272147	-0.415891
C100	C	1.497115	1.772147	0.084109
C101	C	1.010158	1.171875	-0.402921
C102	C	1.510158	1.671875	0.097079
C103	C	0.939214	0.463258	-0.737876
C104	C	1.439214	0.963258	-0.237876
C105	C	0.941671	0.467186	-0.812009
C106	C	1.441671	0.967186	-0.312009
C107	C	0.980154	0.529265	-0.858679
C108	C	1.480154	1.029265	-0.358679
C109	C	1.016176	0.587426	-0.831213
C110	C	1.516176	1.087426	-0.331213
C111	C	1.013715	0.583502	-0.757081
C112	C	1.513715	1.083502	-0.257081
C113	C	0.991507	0.547452	-1.081420
C114	C	1.491507	1.047452	-0.581420
C115	C	0.993968	0.551369	-1.155556
C116	C	1.493968	1.051369	-0.655556
C117	C	0.919461	0.431130	-1.136348
C118	C	1.419461	0.931130	-0.636348
C119	C	0.917006	0.427207	-1.062215
C120	C	1.417006	0.927207	-0.562215
C121	C	0.953025	0.485372	-1.034755
C122	C	1.453025	0.985372	-0.534755
N123	N	0.982668	0.533280	-0.934455
N124	N	1.482668	1.033280	-0.434455
N125	N	0.950507	0.481361	-0.958981
N126	N	1.450507	0.981361	-0.458981
C127	C	0.960397	0.497634	-0.261942
C128	C	1.460397	0.997634	0.238058
C129	C	0.957947	0.493214	-0.183018
C130	C	1.457947	0.993214	0.316982
H131	H	1.000394	0.850868	-0.412481
H132	H	1.500394	1.350868	0.087519
O133	O	1.099676	1.175592	-0.313552
O134	O	1.599676	1.675592	0.186448
H135	H	1.088200	1.153973	-0.254919
H136	H	1.588200	1.653973	0.245081
O137	O	0.363485	0.654688	-0.575567
O138	O	0.863485	1.154688	-0.075567
H139	H	0.403257	0.618097	-0.608080
H140	H	0.903257	1.118097	-0.108080
H141	H	0.907881	0.412702	-0.699881
H142	H	1.407881	0.912702	-0.199881
O143	O	0.236461	0.396307	-0.348845
O144	O	0.736461	0.896307	0.151155
H145	H	0.260094	0.326925	-0.352596
H146	H	0.760094	0.826925	0.147404
H147	H	0.890135	0.383776	-1.158714
H148	H	1.390135	0.883776	-0.658714
H149	H	0.846116	1.163129	-0.566686
H150	H	1.346116	1.663129	-0.066686
H151	H	0.821135	1.021818	-0.591568
H152	H	1.321135	1.521818	-0.091568
H153	H	0.843271	0.850871	-0.569358
H154	H	1.343271	1.350871	-0.069358
H155	H	0.912335	0.419833	-0.834365
H156	H	1.412335	0.919833	-0.334365
H157	H	0.913619	1.248603	-0.499357
H158	H	1.413619	1.748603	0.000643
H159	H	0.885667	0.376658	-1.024221
H160	H	1.385667	0.876658	-0.524221
H161	H	1.020828	0.594823	-1.059073
H162	H	1.520828	1.094823	-0.559073
H163	H	1.025308	0.601923	-1.193554
H164	H	1.525308	1.101923	-0.693554
H165	H	1.047506	0.637977	-0.869218
H166	H	1.547506	1.137977	-0.369218
H167	H	1.043053	0.630852	-0.734723
H168	H	1.543053	1.130852	-0.234723
O169	O	0.545131	0.610459	-0.536705
O170	O	1.045131	1.110459	-0.036705
H171	H	0.504810	0.652739	-0.509159
H172	H	1.004810	1.152739	-0.009159
O173	O	0.697169	0.618659	-0.543956
O174	O	1.197169	1.118659	-0.043956
H175	H	0.655289	0.658464	-0.578901
H176	H	1.155289	1.158464	-0.078901
O177	O	0.211520	0.646485	-0.568397
O178	O	0.711520	1.146485	-0.068397
H179	H	0.155550	0.633298	-0.556837
H180	H	0.655550	1.133298	-0.056837
H181	H	1.044507	0.906719	-0.368467
H182	H	1.544507	1.406719	0.131533
O183	O	0.388442	0.404511	-0.356016
O184	O	0.888442	0.904511	0.143984
H185	H	0.354911	0.360647	-0.317501
H186	H	0.854911	0.860647	0.182499
O187	O	0.570174	0.360293	-0.317204
O188	O	1.070174	0.860293	0.182796
H189	H	0.512183	0.367342	-0.323370
H190	H	1.012183	0.867342	0.176630
O191	O	0.722140	0.368482	-0.324405
O192	O	1.222140	0.868482	0.175595
H193	H	0.688614	0.324608	-0.285892
H194	H	1.188614	0.824608	0.214108
H195	H	1.111990	0.992190	-0.301137
H196	H	1.611990	1.492190	0.198863
