data_functionalizedCrystal
_audit_creation_method	'MofGen! by Chris Wilmer'
_symmetry_space_group_name_H-M	'P1'
_symmetry_Int_Tables_number	1
_symmetry_cell_setting	triclinic
loop_
_symmetry_equiv_pos_as_xyz
  x,y,z
_cell_length_a	18.050588
_cell_length_b	18.050591
_cell_length_c	18.050582
_cell_angle_alpha	89.980240
_cell_angle_beta	89.978848
_cell_angle_gamma	90.026009
loop_
_atom_site_label
_atom_site_type_symbol
_atom_site_fract_x
_atom_site_fract_y
_atom_site_fract_z
Zn1	Zn	-0.295777	1.135286	-0.420016
Zn2	Zn	-0.045777	1.385286	-0.170016
Zn3	Zn	0.204223	1.635286	0.079984
Zn4	Zn	0.454223	1.885286	0.329984
Zn5	Zn	-0.419960	1.135193	-0.295829
Zn6	Zn	-0.169960	1.385193	-0.045829
Zn7	Zn	0.080040	1.635193	0.204171
Zn8	Zn	0.330040	1.885193	0.454171
Zn9	Zn	-0.295781	1.011105	-0.295829
Zn10	Zn	-0.045781	1.261105	-0.045829
Zn11	Zn	0.204219	1.511105	0.204171
Zn12	Zn	0.454219	1.761105	0.454171
Zn13	Zn	-0.419922	1.011050	-0.419967
Zn14	Zn	-0.169922	1.261050	-0.169967
Zn15	Zn	0.080078	1.511050	0.080033
Zn16	Zn	0.330078	1.761050	0.330033
O17	O	-0.357860	1.073158	-0.357910
O18	O	-0.107860	1.323158	-0.107910
O19	O	0.142140	1.573158	0.142090
O20	O	0.392140	1.823158	0.392090
O21	O	-0.312265	1.239198	-0.403562
O22	O	-0.062265	1.489198	-0.153562
O23	O	0.187735	1.739198	0.096438
O24	O	0.437735	1.989198	0.346438
O25	O	-0.403505	1.118717	-0.191904
O26	O	-0.153505	1.368717	0.058096
O27	O	0.096495	1.618717	0.308096
O28	O	0.346495	1.868717	0.558096
O29	O	-0.191856	1.027639	-0.312324
O30	O	0.058144	1.277639	-0.062324
O31	O	0.308144	1.527639	0.187676
O32	O	0.558144	1.777639	0.437676
O33	O	-0.403502	1.239130	-0.312323
O34	O	-0.153502	1.489130	-0.062323
O35	O	0.096498	1.739130	0.187677
O36	O	0.346498	1.989130	0.437677
O37	O	-0.191853	1.118874	-0.403563
O38	O	0.058147	1.368874	-0.153563
O39	O	0.308147	1.618874	0.096437
O40	O	0.558147	1.868874	0.346437
O41	O	-0.312271	1.027550	-0.191905
O42	O	-0.062271	1.277550	0.058095
O43	O	0.187729	1.527550	0.308095
O44	O	0.437729	1.777550	0.558095
O45	O	-0.312234	0.907173	-0.312276
O46	O	-0.062234	1.157173	-0.062276
O47	O	0.187766	1.407173	0.187724
O48	O	0.437766	1.657173	0.437724
O49	O	-0.403436	1.027546	-0.523898
O50	O	-0.153436	1.277546	-0.273898
O51	O	0.096564	1.527546	-0.023898
O52	O	0.346564	1.777546	0.226102
O53	O	-0.403440	0.907133	-0.403479
O54	O	-0.153440	1.157133	-0.153479
O55	O	0.096560	1.407133	0.096521
O56	O	0.346560	1.657133	0.346521
O57	O	-0.312227	1.118821	-0.523934
O58	O	-0.062227	1.368821	-0.273934
O59	O	0.187773	1.618821	-0.023934
O60	O	0.437773	1.868821	0.226066
O61	O	-0.523880	1.118664	-0.312275
O62	O	-0.273880	1.368664	-0.062275
O63	O	-0.023880	1.618664	0.187725
O64	O	0.226120	1.868664	0.437725
O65	O	-0.523852	1.027456	-0.403479
O66	O	-0.273852	1.277456	-0.153479
O67	O	-0.023852	1.527456	0.096521
O68	O	0.226148	1.777456	0.346521
C69	C	-0.357834	0.880206	-0.357873
C70	C	-0.107834	1.130206	-0.107873
C71	C	0.142166	1.380206	0.142127
C72	C	0.392166	1.630206	0.392127
C73	C	-0.357841	0.797661	-0.357875
C74	C	-0.107841	1.047661	-0.107875
C75	C	0.142159	1.297661	0.142125
C76	C	0.392159	1.547661	0.392125
C77	C	-0.308192	0.548835	-0.308396
C78	C	-0.058192	0.798835	-0.058396
C79	C	0.191808	1.048835	0.191604
C80	C	0.441808	1.298835	0.441604
C81	C	-0.290110	0.598268	-0.376171
C82	C	-0.040110	0.848268	-0.126171
C83	C	0.209890	1.098268	0.123829
C84	C	0.459890	1.348268	0.373829
C85	C	-0.357879	0.500540	-0.357936
C86	C	-0.107879	0.750540	-0.107936
C87	C	0.142121	1.000540	0.142064
C88	C	0.392121	1.250540	0.392064
C89	C	-0.375906	0.598189	-0.290134
C90	C	-0.125906	0.848189	-0.040134
C91	C	0.124094	1.098189	0.209866
C92	C	0.374094	1.348189	0.459866
C93	C	-0.357858	0.646525	-0.357902
C94	C	-0.107858	0.896525	-0.107902
C95	C	0.142142	1.146525	0.142098
C96	C	0.392142	1.396525	0.392098
C97	C	-0.339763	0.548885	-0.425747
C98	C	-0.089763	0.798885	-0.175747
C99	C	0.160237	1.048885	0.074253
C100	C	0.410237	1.298885	0.324253
C101	C	-0.425589	0.548803	-0.339664
C102	C	-0.175589	0.798803	-0.089664
C103	C	0.074411	1.048803	0.160336
C104	C	0.324411	1.298803	0.410336
C105	C	-0.407534	0.598213	-0.407486
C106	C	-0.157534	0.848213	-0.157486
C107	C	0.092466	1.098213	0.092514
C108	C	0.342466	1.348213	0.342514
C109	C	-0.357888	0.416442	-0.357954
C110	C	-0.107888	0.666442	-0.107954
C111	C	0.142112	0.916442	0.142046
C112	C	0.392112	1.166442	0.392046
C113	C	-0.357848	0.730622	-0.357891
C114	C	-0.107848	0.980622	-0.107891
C115	C	0.142152	1.230622	0.142109
C116	C	0.392152	1.480622	0.392109
C117	C	-0.550812	1.073064	-0.357888
C118	C	-0.300812	1.323064	-0.107888
C119	C	-0.050812	1.573064	0.142112
C120	C	0.199188	1.823064	0.392112
C121	C	-0.633358	1.073092	-0.357903
C122	C	-0.383358	1.323092	-0.107903
C123	C	-0.133358	1.573092	0.142097
C124	C	0.116642	1.823092	0.392097
C125	C	-0.882195	1.023571	-0.407500
C126	C	-0.632195	1.273571	-0.157500
C127	C	-0.382195	1.523571	0.092500
C128	C	-0.132195	1.773571	0.342500
C129	C	-0.832731	1.091288	-0.425730
C130	C	-0.582731	1.341288	-0.175730
C131	C	-0.332731	1.591288	0.074270
C132	C	-0.082731	1.841288	0.324270
C133	C	-0.930478	1.073246	-0.357945
C134	C	-0.680478	1.323246	-0.107945
C135	C	-0.430478	1.573246	0.142055
C136	C	-0.180478	1.823246	0.392055
C137	C	-0.832861	1.005457	-0.339729
C138	C	-0.582861	1.255457	-0.089729
C139	C	-0.332861	1.505457	0.160271
C140	C	-0.082861	1.755457	0.410271
C141	C	-0.784493	1.073167	-0.357926
C142	C	-0.534493	1.323167	-0.107926
C143	C	-0.284493	1.573167	0.142074
C144	C	-0.034493	1.823167	0.392074
C145	C	-0.882101	1.140999	-0.376210
C146	C	-0.632101	1.390999	-0.126210
C147	C	-0.382101	1.640999	0.123790
C148	C	-0.132101	1.890999	0.373790
C149	C	-0.882236	1.055123	-0.290177
C150	C	-0.632236	1.305123	-0.040177
C151	C	-0.382236	1.555123	0.209823
C152	C	-0.132236	1.805123	0.459823
C153	C	-0.832794	1.122886	-0.308382
C154	C	-0.582794	1.372886	-0.058382
C155	C	-0.332794	1.622886	0.191618
C156	C	-0.082794	1.872886	0.441618
C157	C	-1.014577	1.073291	-0.357957
C158	C	-0.764577	1.323291	-0.107957
C159	C	-0.514577	1.573291	0.142043
C160	C	-0.264577	1.823291	0.392043
C161	C	-0.700397	1.073130	-0.357913
C162	C	-0.450397	1.323130	-0.107913
C163	C	-0.200397	1.573130	0.142087
C164	C	0.049603	1.823130	0.392087
C165	C	-0.164154	1.073273	-0.357949
C166	C	0.085846	1.323273	-0.107949
C167	C	0.335846	1.573273	0.142051
C168	C	0.585846	1.823273	0.392051
C169	C	-0.081609	1.073322	-0.357965
C170	C	0.168391	1.323322	-0.107965
C171	C	0.418391	1.573322	0.142035
C172	C	0.668391	1.823322	0.392035
C173	C	-0.357887	1.266864	-0.357948
C174	C	-0.107887	1.516864	-0.107948
C175	C	0.142113	1.766864	0.142052
C176	C	0.392113	2.016864	0.392052
C177	C	-0.357898	1.349410	-0.357964
C178	C	-0.107898	1.599410	-0.107964
C179	C	0.142102	1.849410	0.142036
C180	C	0.392102	2.099410	0.392036
C181	C	-0.357827	1.073188	-0.551616
C182	C	-0.107827	1.323188	-0.301616
C183	C	0.142173	1.573188	-0.051616
C184	C	0.392173	1.823188	0.198384
C185	C	-0.357813	1.073200	-0.634162
C186	C	-0.107813	1.323200	-0.384162
C187	C	0.142187	1.573200	-0.134162
C188	C	0.392187	1.823200	0.115838
C189	C	-0.407345	1.023602	-0.833593
C190	C	-0.157345	1.273602	-0.583593
C191	C	0.092655	1.523602	-0.333593
C192	C	0.342655	1.773602	-0.083593
C193	C	-0.425502	1.091357	-0.882990
C194	C	-0.175502	1.341357	-0.632990
C195	C	0.074498	1.591357	-0.382990
C196	C	0.324498	1.841357	-0.132990
C197	C	-0.357756	1.073237	-0.785292
C198	C	-0.107756	1.323237	-0.535292
C199	C	0.142244	1.573237	-0.285292
C200	C	0.392244	1.823237	-0.035292
C201	C	-0.339578	1.005519	-0.882976
C202	C	-0.089578	1.255519	-0.632976
C203	C	0.160422	1.505519	-0.382976
C204	C	0.410422	1.755519	-0.132976
C205	C	-0.357703	1.073266	-0.931277
C206	C	-0.107703	1.323266	-0.681277
C207	C	0.142297	1.573266	-0.431277
C208	C	0.392297	1.823266	-0.181277
C209	C	-0.375950	1.141027	-0.833602
C210	C	-0.125950	1.391027	-0.583602
C211	C	0.124050	1.641027	-0.333602
C212	C	0.374050	1.891027	-0.083602
C213	C	-0.289994	1.055143	-0.833584
C214	C	-0.039994	1.305143	-0.583584
C215	C	0.210006	1.555143	-0.333584
C216	C	0.460006	1.805143	-0.083584
C217	C	-0.308126	1.122945	-0.882959
C218	C	-0.058126	1.372945	-0.632959
C219	C	0.191874	1.622945	-0.382959
C220	C	0.441874	1.872945	-0.132959
C221	C	-0.357789	1.073219	-0.701194
C222	C	-0.107789	1.323219	-0.451194
C223	C	0.142211	1.573219	-0.201194
C224	C	0.392211	1.823219	0.048806
C225	C	-0.357670	1.073292	-1.015374
C226	C	-0.107670	1.323292	-0.765374
C227	C	0.142330	1.573292	-0.515374
C228	C	0.392330	1.823292	-0.265374
C229	C	-0.357839	1.073172	-0.164958
C230	C	-0.107839	1.323172	0.085042
C231	C	0.142161	1.573172	0.335042
C232	C	0.392161	1.823172	0.585042
C233	C	-0.357644	1.073304	-0.082413
C234	C	-0.107644	1.323304	0.167587
C235	C	0.142356	1.573304	0.417587
C236	C	0.392356	1.823304	0.667587
H237	H	-0.449544	0.619756	-0.449415
H238	H	-0.199544	0.869756	-0.199415
H239	H	0.050456	1.119756	0.050585
H240	H	0.300456	1.369756	0.300585
H241	H	-0.391162	0.619849	-0.232809
H242	H	-0.141162	0.869849	0.017191
H243	H	0.108838	1.119849	0.267191
H244	H	0.358838	1.369849	0.517191
H245	H	-0.232728	1.039802	-0.811866
H246	H	0.017272	1.289802	-0.561866
H247	H	0.267272	1.539802	-0.311866
H248	H	0.517272	1.789802	-0.061866
H249	H	-0.449335	0.981668	-0.811918
H250	H	-0.199335	1.231668	-0.561918
H251	H	0.050665	1.481668	-0.311918
H252	H	0.300665	1.731668	-0.061918
H253	H	-0.266168	1.164980	-0.904498
H254	H	-0.016168	1.414980	-0.654498
H255	H	0.233832	1.664980	-0.404498
H256	H	0.483832	1.914980	-0.154498
C257	C	-0.319057	0.519751	-0.503213
C258	C	-0.069057	0.769751	-0.253213
C259	C	0.180943	1.019751	-0.003213
C260	C	0.430943	1.269751	0.246787
N261	N	-0.303458	0.497805	-0.561557
N262	N	-0.053458	0.747805	-0.311557
N263	N	0.196542	0.997805	-0.061557
N264	N	0.446542	1.247805	0.188443
H265	H	-0.811228	0.948163	-0.324331
H266	H	-0.561228	1.198163	-0.074331
H267	H	-0.311228	1.448163	0.175669
H268	H	-0.061228	1.698163	0.425669
H269	H	-0.482844	0.527060	-0.324199
H270	H	-0.232844	0.777060	-0.074199
H271	H	0.017156	1.027060	0.175801
H272	H	0.267156	1.277060	0.425801
H273	H	-0.903884	0.981648	-0.449447
H274	H	-0.653884	1.231648	-0.199447
H275	H	-0.403884	1.481648	0.050553
H276	H	-0.153884	1.731648	0.300553
H277	H	-0.391368	1.198324	-0.812005
H278	H	-0.141368	1.448324	-0.562005
H279	H	0.108632	1.698324	-0.312005
H280	H	0.358632	1.948324	-0.062005
H281	H	-0.482785	1.106679	-0.904692
H282	H	-0.232785	1.356679	-0.654692
H283	H	0.017215	1.606679	-0.404692
H284	H	0.267215	1.856679	-0.154692
H285	H	-0.324225	0.948239	-0.904665
H286	H	-0.074225	1.198239	-0.654665
H287	H	0.175775	1.448239	-0.404665
H288	H	0.425775	1.698239	-0.154665
C289	C	-0.803359	1.111960	-0.503142
C290	C	-0.553359	1.361960	-0.253142
C291	C	-0.303359	1.611960	-0.003142
C292	C	-0.053359	1.861960	0.246858
N293	N	-0.781241	1.127528	-0.561451
N294	N	-0.531241	1.377528	-0.311451
N295	N	-0.281241	1.627528	-0.061451
N296	N	-0.031241	1.877528	0.188549
C297	C	-0.251396	0.519539	-0.251892
C298	C	-0.001396	0.769539	-0.001892
C299	C	0.248604	1.019539	0.248108
C300	C	0.498604	1.269539	0.498108
N301	N	-0.208616	0.497471	-0.209338
N302	N	0.041384	0.747471	0.040662
N303	N	0.291384	0.997471	0.290662
N304	N	0.541384	1.247471	0.540662
H305	H	-0.903996	1.039803	-0.232893
H306	H	-0.653996	1.289803	0.017107
H307	H	-0.403996	1.539803	0.267107
H308	H	-0.153996	1.789803	0.517107
H309	H	-0.232837	0.619982	-0.391625
H310	H	0.017163	0.869982	-0.141625
H311	H	0.267163	1.119982	0.108375
H312	H	0.517163	1.369982	0.358375
H313	H	-0.903642	1.198310	-0.391675
H314	H	-0.653642	1.448310	-0.141675
H315	H	-0.403642	1.698310	0.108325
H316	H	-0.153642	1.948310	0.358325
H317	H	-0.811240	1.164909	-0.266466
H318	H	-0.561240	1.414909	-0.016466
H319	H	-0.311240	1.664909	0.233534
H320	H	-0.061240	1.914909	0.483534
