data_functionalizedCrystal
_audit_creation_method	'MofGen! by Chris Wilmer'
_symmetry_space_group_name_H-M	'P1'
_symmetry_Int_Tables_number	1
_symmetry_cell_setting	triclinic
loop_
_symmetry_equiv_pos_as_xyz
  x,y,z
_cell_length_a	17.077404
_cell_length_b	29.839131
_cell_length_c	29.839126
_cell_angle_alpha	89.978002
_cell_angle_beta	89.974084
_cell_angle_gamma	90.041645
loop_
_atom_site_label
_atom_site_type_symbol
_atom_site_fract_x
_atom_site_fract_y
_atom_site_fract_z
Zn1	Zn	1.200003	-0.178895	-0.254007
Zn2	Zn	1.700003	0.321105	0.245993
Zn3	Zn	1.199853	-0.254012	-0.178877
Zn4	Zn	1.699853	0.245988	0.321123
Zn5	Zn	1.068720	-0.178897	-0.178890
Zn6	Zn	1.568720	0.321103	0.321110
Zn7	Zn	1.068661	-0.253999	-0.253979
Zn8	Zn	1.568661	0.246001	0.246021
O9	O	1.134309	-0.216451	-0.216438
O10	O	1.634309	0.283549	0.283562
O11	O	1.309830	-0.188864	-0.244048
O12	O	1.809830	0.311136	0.255952
O13	O	1.182420	-0.244055	-0.116012
O14	O	1.682420	0.255945	0.383988
O15	O	1.086223	-0.116030	-0.188872
O16	O	1.586223	0.383970	0.311128
O17	O	1.309720	-0.244052	-0.188850
O18	O	1.809720	0.255948	0.311150
O19	O	1.182676	-0.116028	-0.244060
O20	O	1.682676	0.383972	0.255940
O21	O	1.086078	-0.188868	-0.116021
O22	O	1.586078	0.311132	0.383979
O23	O	0.958865	-0.188855	-0.188844
O24	O	1.458865	0.311145	0.311156
O25	O	1.086121	-0.244029	-0.316850
O26	O	1.586121	0.255971	0.183150
O27	O	0.958822	-0.244032	-0.244011
O28	O	1.458822	0.255968	0.255989
O29	O	1.182618	-0.188850	-0.316871
O30	O	1.682618	0.311150	0.183129
O31	O	1.182362	-0.316878	-0.188822
O32	O	1.682362	0.183122	0.311178
O33	O	1.085976	-0.316868	-0.243999
O34	O	1.585976	0.183132	0.256001
C35	C	0.930361	-0.216443	-0.216426
C36	C	1.430361	0.283557	0.283574
C37	C	0.843112	-0.216450	-0.216431
C38	C	1.343112	0.283550	0.283569
C39	C	1.134168	-0.333173	-0.216416
C40	C	1.634168	0.166827	0.283584
C41	C	1.134179	-0.383108	-0.216421
C42	C	1.634179	0.116892	0.283579
C43	C	0.802119	-0.245224	-0.245111
C44	C	1.302119	0.254776	0.254889
C45	C	0.720139	-0.245225	-0.245118
C46	C	1.220139	0.254775	0.254882
C47	C	0.679152	-0.216454	-0.216443
C48	C	1.179152	0.283546	0.283557
C49	C	0.720150	-0.187677	-0.187762
C50	C	1.220150	0.312323	0.312238
C51	C	0.802129	-0.187674	-0.187758
C52	C	1.302129	0.312326	0.312242
C53	C	0.549280	-0.187686	-0.187773
C54	C	1.049280	0.312314	0.312227
C55	C	0.467296	-0.187689	-0.187777
C56	C	0.967296	0.312311	0.312223
C57	C	0.467290	-0.245236	-0.245133
C58	C	0.967290	0.254764	0.254867
C59	C	0.549269	-0.245233	-0.245129
C60	C	1.049269	0.254767	0.254871
C61	C	0.590261	-0.216457	-0.216447
C62	C	1.090261	0.283543	0.283553
C63	C	1.184589	-0.692744	-0.187750
C64	C	1.684589	-0.192744	0.312250
C65	C	1.184686	-0.880417	-0.187767
C66	C	1.684686	-0.380417	0.312233
O67	O	1.227434	-0.904675	-0.163372
O68	O	1.727434	-0.404675	0.336628
N69	N	1.134472	-0.903893	-0.216472
N70	N	1.634472	-0.403893	0.283528
C71	C	1.084234	-0.880448	-0.245177
C72	C	1.584234	-0.380448	0.254823
O73	O	1.041532	-0.904722	-0.269596
O74	O	1.541532	-0.404722	0.230404
C75	C	1.084142	-0.692775	-0.245161
C76	C	1.584142	-0.192775	0.254839
C77	C	1.134353	-0.669302	-0.216451
C78	C	1.634353	-0.169302	0.283549
C79	C	1.234797	-0.669270	-0.159042
C80	C	1.734797	-0.169270	0.340958
C81	C	1.234769	-0.622355	-0.159037
C82	C	1.734769	-0.122355	0.340963
C83	C	1.184534	-0.598913	-0.187738
C84	C	1.684534	-0.098913	0.312262
C85	C	1.134325	-0.622386	-0.216445
C86	C	1.634325	-0.122386	0.283555
C87	C	1.033908	-0.669331	-0.273868
C88	C	1.533908	-0.169331	0.226132
C89	C	1.033891	-0.622410	-0.273862
C90	C	1.533891	-0.122410	0.226138
C91	C	1.084102	-0.598937	-0.245152
C92	C	1.584102	-0.098937	0.254848
C93	C	1.084062	-0.552029	-0.245141
C94	C	1.584062	-0.052029	0.254859
N95	N	1.134276	-0.528553	-0.216436
N96	N	1.634276	-0.028553	0.283564
C97	C	1.184512	-0.551995	-0.187735
C98	C	1.684512	-0.051995	0.312265
C99	C	1.084285	-0.978978	-0.245182
C100	C	1.584285	-0.478978	0.254818
C101	C	1.084307	-1.025896	-0.245186
C102	C	1.584307	-0.525896	0.254814
C103	C	1.184760	-1.025862	-0.187777
C104	C	1.684760	-0.525862	0.312223
C105	C	1.184734	-0.978943	-0.187771
C106	C	1.684734	-0.478943	0.312229
C107	C	1.134499	-0.955502	-0.216477
C108	C	1.634499	-0.455502	0.283523
C109	C	1.184449	-0.453469	-0.187724
C110	C	1.684449	0.046531	0.312276
C111	C	1.184415	-0.406550	-0.187720
C112	C	1.684415	0.093450	0.312280
C113	C	1.083965	-0.406588	-0.245131
C114	C	1.583965	0.093412	0.254869
C115	C	1.083996	-0.453503	-0.245134
C116	C	1.583996	0.046497	0.254866
C117	C	1.134244	-0.476943	-0.216429
C118	C	1.634244	0.023057	0.283571
O119	O	1.041342	-0.527742	-0.269527
O120	O	1.541342	-0.027742	0.230473
O121	O	1.227220	-0.527713	-0.163326
O122	O	1.727220	-0.027713	0.336674
C123	C	1.184617	-0.739659	-0.187756
C124	C	1.684617	-0.239659	0.312244
C125	C	1.134409	-0.763133	-0.216463
C126	C	1.634409	-0.263133	0.283537
C127	C	1.084173	-0.739691	-0.245164
C128	C	1.584173	-0.239691	0.254836
C129	C	1.134431	-0.810051	-0.216466
C130	C	1.634431	-0.310051	0.283534
C131	C	1.184667	-0.833492	-0.187765
C132	C	1.684667	-0.333492	0.312235
C133	C	1.234880	-0.810016	-0.159060
C134	C	1.734880	-0.310016	0.340940
C135	C	1.234853	-0.763101	-0.159054
C136	C	1.734853	-0.263101	0.340946
C137	C	1.033959	-0.763167	-0.273869
C138	C	1.533959	-0.263167	0.226131
C139	C	1.033990	-0.810082	-0.273872
C140	C	1.533990	-0.310082	0.226128
C141	C	1.084226	-0.833524	-0.245171
C142	C	1.584226	-0.333524	0.254829
C143	C	1.339054	-0.216459	-0.216451
C144	C	1.839054	0.283541	0.283549
C145	C	1.426303	-0.216463	-0.216456
C146	C	1.926303	0.283537	0.283544
C147	C	1.134380	-0.216438	-0.333617
C148	C	1.634380	0.283562	0.166383
C149	C	1.134410	-0.216432	-0.383551
C150	C	1.634410	0.283568	0.116449
C151	C	1.134473	-0.099272	-0.216470
C152	C	1.634473	0.400728	0.283530
C153	C	1.134543	-0.049338	-0.216484
C154	C	1.634543	0.450662	0.283516
C155	C	1.184565	-0.245108	-0.740137
C156	C	1.684565	0.254892	-0.240137
C157	C	1.184566	-0.245139	-0.552463
C158	C	1.684566	0.254861	-0.052463
O159	O	1.227202	-0.269591	-0.528197
O160	O	1.727202	0.230409	-0.028197
N161	N	1.134406	-0.216411	-0.528996
N162	N	1.634406	0.283589	-0.028996
C163	C	1.084239	-0.187674	-0.552450
C164	C	1.584239	0.312326	-0.052450
O165	O	1.041569	-0.163243	-0.528184
O166	O	1.541569	0.336757	-0.028184
C167	C	1.084234	-0.187646	-0.740122
C168	C	1.584234	0.312354	-0.240122
C169	C	1.134403	-0.216373	-0.763587
C170	C	1.634403	0.283627	-0.263587
C171	C	1.234729	-0.273834	-0.763601
C172	C	1.734729	0.226166	-0.263601
C173	C	1.234731	-0.273824	-0.810517
C174	C	1.734731	0.226176	-0.310517
C175	C	1.184569	-0.245088	-0.833968
C176	C	1.684569	0.254912	-0.333968
C177	C	1.134405	-0.216363	-0.810503
C178	C	1.634405	0.283637	-0.310503
C179	C	1.034063	-0.158912	-0.763576
C180	C	1.534063	0.341088	-0.263576
C181	C	1.034065	-0.158908	-0.810497
C182	C	1.534065	0.341092	-0.310497
C183	C	1.084234	-0.187635	-0.833961
C184	C	1.584234	0.312365	-0.333961
C185	C	1.084245	-0.187618	-0.880869
C186	C	1.584245	0.312382	-0.380869
N187	N	1.134405	-0.216347	-0.904336
N188	N	1.634405	0.283653	-0.404336
C189	C	1.184567	-0.245082	-0.880885
C190	C	1.684567	0.254918	-0.380885
C191	C	1.084246	-0.187691	-0.453920
C192	C	1.584246	0.312309	0.046080
C193	C	1.084248	-0.187697	-0.407002
C194	C	1.584248	0.312303	0.092998
C195	C	1.184574	-0.245163	-0.407018
C196	C	1.684574	0.254837	0.092982
C197	C	1.184576	-0.245154	-0.453937
C198	C	1.684576	0.254846	0.046063
C199	C	1.134406	-0.216419	-0.477387
C200	C	1.634406	0.283581	0.022613
C201	C	1.184568	-0.245059	-0.979411
C202	C	1.684568	0.254941	-0.479411
C203	C	1.184568	-0.245045	-1.026331
C204	C	1.684568	0.254955	-0.526331
C205	C	1.084239	-0.187581	-1.026310
C206	C	1.584239	0.312419	-0.526310
C207	C	1.084242	-0.187593	-0.979395
C208	C	1.584242	0.312407	-0.479395
C209	C	1.134409	-0.216335	-0.955946
C210	C	1.634409	0.283665	-0.455946
O211	O	1.041626	-0.163183	-0.905164
O212	O	1.541626	0.336817	-0.405164
O213	O	1.227218	-0.269517	-0.905160
O214	O	1.727218	0.230483	-0.405160
C215	C	1.184563	-0.245118	-0.693221
C216	C	1.684563	0.254882	-0.193221
C217	C	1.134398	-0.216393	-0.669756
C218	C	1.634398	0.283607	-0.169756
C219	C	1.084237	-0.187657	-0.693207
C220	C	1.584237	0.312343	-0.193207
C221	C	1.134400	-0.216399	-0.622838
C222	C	1.634400	0.283601	-0.122838
C223	C	1.184562	-0.245134	-0.599388
C224	C	1.684562	0.254866	-0.099388
C225	C	1.234722	-0.273863	-0.622855
C226	C	1.734722	0.226137	-0.122855
C227	C	1.234724	-0.273853	-0.669770
C228	C	1.734724	0.226147	-0.169770
C229	C	1.034077	-0.158929	-0.669740
C230	C	1.534077	0.341071	-0.169740
C231	C	1.034079	-0.158940	-0.622824
C232	C	1.534079	0.341060	-0.122824
C233	C	1.084241	-0.187676	-0.599374
C234	C	1.584241	0.312324	-0.099374
C235	C	1.134284	-0.216431	-0.099716
C236	C	1.634284	0.283569	0.400284
C237	C	1.134406	-0.216310	-0.049782
C238	C	1.634406	0.283690	0.450218
H239	H	0.835484	-0.268654	-0.268460
H240	H	1.335484	0.231346	0.231540
H241	H	0.993017	-0.688435	-0.297245
H242	H	1.493017	-0.188435	0.202755
Br243	Br	0.965977	-0.119906	-0.842319
Br244	Br	1.465977	0.380094	-0.342319
Br245	Br	0.411671	-0.148646	-0.148857
Br246	Br	0.911671	0.351354	0.351143
H247	H	1.275710	-0.688351	-0.135670
H248	H	1.775710	-0.188351	0.364330
H249	H	0.993226	-0.135529	-0.688829
H250	H	1.493226	0.364471	-0.188829
H251	H	1.225427	-0.268546	-0.473039
H252	H	1.725427	0.231454	0.026961
Br253	Br	0.411658	-0.284284	-0.284064
Br254	Br	0.911658	0.215716	0.215936
Br255	Br	1.252879	-0.947091	-0.148806
Br256	Br	1.752879	-0.447091	0.351194
H257	H	1.275658	-0.603245	-0.135660
H258	H	1.775658	-0.103245	0.364340
Br259	Br	0.664527	-0.148626	-0.148850
Br260	Br	1.164527	0.351374	0.351150
H261	H	1.043061	-0.387494	-0.268498
H262	H	1.543061	0.112506	0.231502
H263	H	0.686766	-0.268656	-0.268471
H264	H	1.186766	0.231344	0.231529
H265	H	0.582638	-0.268664	-0.268476
H266	H	1.082638	0.231336	0.231524
H267	H	1.225664	-1.044956	-0.164407
H268	H	1.725664	-0.544956	0.335593
Br269	Br	0.604913	-0.148631	-0.148849
Br270	Br	1.104913	0.351369	0.351151
H271	H	0.835505	-0.164241	-0.164406
H272	H	1.335505	0.335759	0.335594
H273	H	1.225303	-0.387439	-0.164339
H274	H	1.725303	0.112561	0.335661
Br275	Br	0.965714	-0.590600	-0.312825
Br276	Br	1.465714	-0.090600	0.187175
Br277	Br	1.252644	-0.485273	-0.148768
Br278	Br	1.752644	0.014727	0.351232
H279	H	0.993227	-0.135543	-0.603723
H280	H	1.493227	0.364457	-0.103723
H281	H	1.043404	-0.164299	-0.387901
H282	H	1.543404	0.335701	0.112099
H283	H	1.043412	-1.045004	-0.268560
H284	H	1.543412	-0.545004	0.231440
H285	H	1.043376	-0.959896	-0.268559
H286	H	1.543376	-0.459896	0.231441
Br287	Br	1.015832	-0.485361	-0.284086
Br288	Br	1.515832	0.014639	0.215914
Br289	Br	1.252652	-0.284067	-0.947596
Br290	Br	1.752652	0.215933	-0.447596
H291	H	1.275740	-0.743992	-0.135676
H292	H	1.775740	-0.243992	0.364324
Br293	Br	1.303054	-0.841840	-0.120106
Br294	Br	1.803054	-0.341840	0.379894
H295	H	0.993095	-0.829191	-0.297251
H296	H	1.493095	-0.329191	0.202749
H297	H	1.275581	-0.297218	-0.829618
H298	H	1.775581	0.202782	-0.329618
H299	H	0.993052	-0.744084	-0.297242
H300	H	1.493052	-0.244084	0.202758
H301	H	1.225425	-0.268439	-1.045434
H302	H	1.725425	0.231561	-0.545434
H303	H	1.275577	-0.297246	-0.688871
H304	H	1.775577	0.202754	-0.188871
Br305	Br	1.016132	-0.148700	-0.485738
Br306	Br	1.516132	0.351300	0.014262
Br307	Br	1.252650	-0.284162	-0.375183
Br308	Br	1.752650	0.215838	0.124817
Br309	Br	1.302815	-0.312837	-0.731784
Br310	Br	1.802815	0.187163	-0.231784
H311	H	0.993209	-0.135520	-0.744479
H312	H	1.493209	0.364480	-0.244479
Br313	Br	1.302803	-0.312858	-0.591020
Br314	Br	1.802803	0.187142	-0.091020
Br315	Br	1.016166	-0.148600	-0.947549
Br316	Br	1.516166	0.351400	-0.447549
Br317	Br	1.016168	-0.148584	-1.058145
Br318	Br	1.516168	0.351416	-0.558145
