data_functionalizedCrystal
_audit_creation_method	'MofGen! by Chris Wilmer'
_symmetry_space_group_name_H-M	'P1'
_symmetry_Int_Tables_number	1
_symmetry_cell_setting	triclinic
loop_
_symmetry_equiv_pos_as_xyz
  x,y,z
_cell_length_a	19.188928
_cell_length_b	17.666332
_cell_length_c	16.109301
_cell_angle_alpha	90.007897
_cell_angle_beta	96.697354
_cell_angle_gamma	89.973946
loop_
_atom_site_label
_atom_site_type_symbol
_atom_site_fract_x
_atom_site_fract_y
_atom_site_fract_z
O1	O	-0.926393	0.063244	0.103789
O2	O	-0.426393	0.563244	0.603789
O3	O	-0.723114	0.063181	0.117764
O4	O	-0.223114	0.563181	0.617764
O5	O	-0.830338	0.063206	-0.010273
O6	O	-0.330338	0.563206	0.489727
O7	O	-0.819170	0.063218	0.231826
O8	O	-0.319170	0.563218	0.731826
O9	O	-0.830319	-0.062690	-0.010279
O10	O	-0.330319	0.437310	0.489721
O11	O	-0.723096	-0.062716	0.117758
O12	O	-0.223096	0.437284	0.617758
O13	O	-0.926374	-0.062653	0.103783
O14	O	-0.426374	0.437347	0.603783
Cu15	Cu	-0.824733	-0.074180	0.110770
Cu16	Cu	-0.324733	0.425820	0.610770
Cu17	Cu	-0.824756	0.074708	0.110778
Cu18	Cu	-0.324756	0.574708	0.610778
O19	O	-0.819151	-0.062678	0.231820
O20	O	-0.319151	0.437322	0.731820
C21	C	-0.697093	0.000225	0.117309
C22	C	-0.197093	0.500225	0.617309
C23	C	-0.619585	0.000201	0.115951
C24	C	-0.119585	0.500201	0.615951
C25	C	-0.574837	0.000214	0.191079
C26	C	-0.074837	0.500214	0.691079
C27	C	-0.502010	0.000218	0.189804
C28	C	-0.002010	0.500218	0.689804
C29	C	-0.473935	0.000225	0.113396
C30	C	0.026065	0.500225	0.613396
C31	C	-0.518693	0.000207	0.038259
C32	C	-0.018693	0.500207	0.538259
C33	C	-0.591518	0.000195	0.039536
C34	C	-0.091518	0.500195	0.539536
N35	N	-0.365824	0.043094	0.054996
N36	N	0.134176	0.543094	0.554996
N37	N	-0.296643	0.043107	0.053787
N38	N	0.203357	0.543107	0.553787
C39	C	-0.254517	0.000259	0.109543
C40	C	0.245483	0.500259	0.609543
N41	N	-0.284184	-0.042593	0.166565
N42	N	0.215816	0.457407	0.666565
N43	N	-0.353372	-0.042603	0.167776
N44	N	0.146628	0.457397	0.667776
C45	C	-0.394969	0.000237	0.112003
C46	C	0.105031	0.500237	0.612003
C47	C	-0.130801	0.000276	0.183293
C48	C	0.369199	0.500276	0.683293
C49	C	-0.057973	0.000276	0.182014
C50	C	0.442027	0.500276	0.682014
C51	C	-0.074657	0.000272	0.030467
C52	C	0.425343	0.500272	0.530467
C53	C	-0.147484	0.000264	0.031748
C54	C	0.352516	0.500264	0.531748
C55	C	-0.175551	0.000270	0.108163
C56	C	0.324449	0.500270	0.608163
N57	N	-0.824723	-0.178899	0.110763
N58	N	-0.324723	0.321101	0.610763
C59	C	-0.872217	-0.218498	0.054096
C60	C	-0.372217	0.281502	0.554096
C61	C	-0.872221	-0.297745	0.054092
C62	C	-0.372221	0.202255	0.554092
C63	C	-0.824738	-0.337391	0.110770
C64	C	-0.324738	0.162609	0.610770
C65	C	-0.777235	-0.297783	0.167441
C66	C	-0.277235	0.202217	0.667441
C67	C	-0.777227	-0.218537	0.167438
C68	C	-0.277227	0.281463	0.667438
N69	N	-0.815833	-0.461808	0.184369
N70	N	-0.315833	0.038192	0.684369
N71	N	-0.815844	-0.537088	0.184369
N72	N	-0.315844	-0.037088	0.684369
C73	C	-0.824756	-0.576155	0.110781
C74	C	-0.324756	-0.076155	0.610781
N75	N	-0.833669	-0.537098	0.037191
N76	N	-0.333669	-0.037098	0.537191
N77	N	-0.833662	-0.461810	0.037191
N78	N	-0.333662	0.038190	0.537191
C79	C	-0.824740	-0.423320	0.110779
C80	C	-0.324740	0.076680	0.610779
C81	C	-0.872257	-0.701683	0.054105
C82	C	-0.372257	-0.201683	0.554105
C83	C	-0.872256	-0.780932	0.054100
C84	C	-0.372256	-0.280932	0.554100
C85	C	-0.777273	-0.780969	0.167456
C86	C	-0.277273	-0.280969	0.667456
C87	C	-0.777271	-0.701721	0.167454
C88	C	-0.277271	-0.201721	0.667454
C89	C	-0.824766	-0.662083	0.110779
C90	C	-0.324766	-0.162083	0.610779
C91	C	0.047604	0.000292	0.104241
C92	C	0.547604	0.500292	0.604241
C93	C	-0.029903	0.000281	0.105606
C94	C	0.470097	0.500281	0.605606
C95	C	-0.829876	0.000258	-0.041249
C96	C	-0.329876	0.500258	0.458751
C97	C	-0.828520	0.000256	-0.133540
C98	C	-0.328520	0.500256	0.366460
N99	N	-0.824772	0.179427	0.110777
N100	N	-0.324772	0.679427	0.610777
C101	C	-0.888991	0.000287	-0.356014
C102	C	-0.388991	0.500287	0.143986
C103	C	-0.887711	0.000292	-0.442730
C104	C	-0.387711	0.500292	0.057270
C105	C	-0.760493	0.000250	-0.422432
C106	C	-0.260493	0.500250	0.077568
C107	C	-0.761774	0.000250	-0.335718
C108	C	-0.261774	0.500250	0.164282
C109	C	-0.826025	0.000264	-0.302511
C110	C	-0.326025	0.500264	0.197489
C111	C	-0.823464	0.000270	-0.475942
C112	C	-0.323464	0.500270	0.024058
C113	C	-0.822076	0.000277	-0.569963
C114	C	-0.322076	0.500277	-0.069963
C115	C	-0.827413	0.000259	-0.208484
C116	C	-0.327413	0.500259	0.291516
C117	C	-0.819613	0.000272	0.262797
C118	C	-0.319613	0.500272	0.762797
C119	C	-0.820969	0.000279	0.355087
C120	C	-0.320969	0.500279	0.855087
H121	H	-0.495829	0.000222	-0.023953
H122	H	0.004171	0.500222	0.476047
Cl123	Cl	-0.931934	-0.347535	-0.017152
Cl124	Cl	-0.431934	0.152465	0.482848
Cl125	Cl	-0.647777	0.000179	-0.054918
Cl126	Cl	-0.147777	0.500179	0.445082
H127	H	-0.738551	-0.186295	0.213584
H128	H	-0.238551	0.313705	0.713584
H129	H	-0.708183	0.000237	-0.449480
H130	H	-0.208183	0.500237	0.050520
H131	H	-0.738572	-0.330067	0.213588
H132	H	-0.238572	0.169933	0.713588
Cl133	Cl	-0.001716	0.000289	0.276470
Cl134	Cl	0.498284	0.500289	0.776470
Cl135	Cl	-0.931964	-0.830716	-0.017150
Cl136	Cl	-0.431964	-0.330716	0.482850
H137	H	-0.710496	0.000234	-0.292154
H138	H	-0.210496	0.500234	0.207846
H139	H	-0.183919	0.000258	-0.029430
H140	H	0.316081	0.500258	0.470570
H141	H	-0.153654	0.000270	0.245514
H142	H	0.346346	0.500270	0.745514
H143	H	-0.738609	-0.813248	0.213601
H144	H	-0.238609	-0.313248	0.713601
Cl145	Cl	-0.610117	0.000218	0.287144
Cl146	Cl	-0.110117	0.500218	0.787144
Cl147	Cl	-0.931920	-0.168668	-0.017154
Cl148	Cl	-0.431920	0.331332	0.482846
H149	H	-0.738599	-0.669478	0.213601
H150	H	-0.238599	-0.169478	0.713601
H151	H	-0.465569	0.000227	0.250984
H152	H	0.034431	0.500227	0.750984
H153	H	-0.051800	0.000324	-0.031746
H154	H	0.448200	0.500324	0.468254
Cl155	Cl	-0.969762	0.000306	-0.314271
Cl156	Cl	-0.469762	0.500306	0.185729
H157	H	-0.938984	0.000312	-0.486289
H158	H	-0.438984	0.500312	0.013711
Cl159	Cl	-0.931961	-0.651851	-0.017147
Cl160	Cl	-0.431961	-0.151851	0.482853
