data_functionalizedCrystal
_audit_creation_method	'MofGen! by Chris Wilmer'
_symmetry_space_group_name_H-M	'P1'
_symmetry_Int_Tables_number	1
_symmetry_cell_setting	triclinic
loop_
_symmetry_equiv_pos_as_xyz
  x,y,z
_cell_length_a	17.639762
_cell_length_b	21.295417
_cell_length_c	17.640968
_cell_angle_alpha	101.234808
_cell_angle_beta	87.859627
_cell_angle_gamma	101.260577
loop_
_atom_site_label
_atom_site_type_symbol
_atom_site_fract_x
_atom_site_fract_y
_atom_site_fract_z
Zn1	Zn	1.247818	-0.018010	0.195068
Zn2	Zn	1.222024	-0.147890	0.068077
Zn3	Zn	1.095138	-0.058969	0.093713
Zn4	Zn	1.120763	-0.139610	0.220660
O5	O	1.171436	-0.091119	0.144379
O6	O	1.350672	-0.021562	0.156783
O7	O	1.183672	-0.156701	-0.034797
O8	O	1.115462	0.034568	0.107176
O9	O	1.331721	-0.116985	0.063483
O10	O	1.227636	0.064661	0.181642
O11	O	1.090450	-0.091371	-0.015963
O12	O	0.992261	-0.083342	0.131991
O13	O	1.159136	-0.102872	0.323540
O14	O	1.011088	-0.142589	0.225259
O15	O	1.252484	-0.013533	0.304737
O16	O	1.208520	-0.234895	0.088299
O17	O	1.134124	-0.228812	0.200401
C18	C	0.974118	-0.116512	0.184185
C19	C	0.889709	-0.127387	0.201231
C20	C	0.780543	-0.173631	0.273734
C21	C	0.859858	-0.163410	0.257710
C22	C	0.840251	-0.101568	0.160757
C23	C	0.760934	-0.111782	0.176775
C24	C	0.731087	-0.147815	0.233264
C25	C	0.711478	-0.085966	0.136305
C26	C	0.632167	-0.096182	0.152320
C27	C	0.602313	-0.132215	0.208805
C28	C	0.651776	-0.158031	0.249279
C29	C	0.741326	-0.049937	0.079813
C30	C	0.691869	-0.024121	0.039343
C31	C	0.612558	-0.034333	0.055361
C32	C	0.582704	-0.070366	0.111846
C33	C	0.563094	-0.008516	0.014887
C34	C	0.483784	-0.018733	0.030901
C35	C	0.503393	-0.080582	0.127860
C36	C	1.171327	-0.254692	0.144357
C37	C	1.171356	-0.324655	0.144359
C38	C	1.210147	-0.360653	0.086029
C39	C	1.210186	-0.426388	0.086039
C40	C	1.171419	-0.456125	0.144374
C41	C	1.132626	-0.420118	0.202715
C42	C	1.132595	-0.354383	0.202707
N43	N	1.106154	-0.566823	0.163566
N44	N	1.106185	-0.629270	0.163568
C45	C	1.171513	-0.654181	0.144400
N46	N	1.236807	-0.614289	0.125215
N47	N	1.236774	-0.551838	0.125209
C48	C	1.171449	-0.527403	0.144389
C49	C	1.210350	-0.761456	0.086077
C50	C	1.210391	-0.827190	0.086092
C51	C	1.132824	-0.820920	0.202765
C52	C	1.132790	-0.755185	0.202753
C53	C	1.171551	-0.725458	0.144405
C54	C	1.369523	-0.065628	0.104419
C55	C	1.453936	-0.054765	0.087390
C56	C	1.211546	-0.052710	0.342465
C57	C	1.228638	-0.036342	0.426877
C58	C	1.171568	0.073098	0.144414
C59	C	1.171625	0.143077	0.144428
C60	C	1.131525	-0.129328	-0.052944
C61	C	1.114580	-0.145500	-0.137386
C62	C	1.041877	-0.215083	0.753438
C63	C	1.057954	-0.199693	0.832753
C64	C	1.155149	-0.106672	0.813166
C65	C	1.139077	-0.122053	0.733848
C66	C	1.082441	-0.176259	0.703991
C67	C	1.179641	-0.083229	0.684401
C68	C	1.163573	-0.098610	0.605090
C69	C	1.106942	-0.152815	0.575226
C70	C	1.066373	-0.191641	0.624680
C71	C	1.236281	-0.029025	0.714259
C72	C	1.276845	0.009799	0.664811
C73	C	1.260773	-0.005580	0.585499
C74	C	1.204142	-0.059785	0.555636
C75	C	1.301342	0.033246	0.536045
C76	C	1.285274	0.017864	0.456734
C77	C	1.188074	-0.075166	0.476324
H78	H	0.627475	-0.187365	0.295285
F79	F	0.594870	0.029824	-0.045237
H80	H	1.024918	-0.231313	0.873012
F81	F	1.091499	-0.716873	0.264835
F82	F	1.089844	-0.169188	0.490814
H83	H	0.443515	0.002294	-0.002049
H84	H	1.241711	-0.336451	0.038520
H85	H	1.201264	-0.062539	0.837486
H86	H	0.900124	-0.184434	0.290671
F87	F	0.723644	0.014225	-0.020776
F88	F	1.253383	-0.012658	0.798670
F89	F	0.517901	-0.143093	0.225844
F90	F	1.337121	0.067486	0.696596
F91	F	1.251474	-0.464708	0.023952
H92	H	0.756242	-0.202965	0.319741
F93	F	0.872026	-0.063222	0.100638
H94	H	1.101006	-0.325072	0.250208
F95	F	0.825736	-0.039069	0.062766
H96	H	1.101063	-0.444334	0.250213
H97	H	1.241915	-0.737250	0.038568
H98	H	1.241985	-0.856498	0.038593
F99	F	1.091569	-0.852563	0.264854
H100	H	1.347460	0.077377	0.560366
F101	F	1.127789	-0.132855	0.444545
H102	H	1.020237	-0.235768	0.600373
F103	F	1.328449	0.059183	0.404105
F104	F	0.471625	-0.118924	0.187990
F105	F	0.981592	-0.272772	0.721659
