data_functionalizedCrystal
_audit_creation_method	'MofGen! by Chris Wilmer'
_symmetry_space_group_name_H-M	'P1'
_symmetry_Int_Tables_number	1
_symmetry_cell_setting	triclinic
loop_
_symmetry_equiv_pos_as_xyz
  x,y,z
_cell_length_a	16.625548
_cell_length_b	25.639240
_cell_length_c	16.625539
_cell_angle_alpha	90.038438
_cell_angle_beta	90.020568
_cell_angle_gamma	90.033826
loop_
_atom_site_label
_atom_site_type_symbol
_atom_site_fract_x
_atom_site_fract_y
_atom_site_fract_z
Zn1	Zn	1.232623	-0.208135	0.455853
Zn2	Zn	1.732623	0.291865	0.955853
Zn3	Zn	1.232502	-0.295573	0.320996
Zn4	Zn	1.732502	0.204427	0.820996
Zn5	Zn	1.097785	-0.208155	0.321033
Zn6	Zn	1.597785	0.291845	0.821033
Zn7	Zn	1.097731	-0.295543	0.455786
Zn8	Zn	1.597731	0.204457	0.955786
O9	O	1.165160	-0.251851	0.388417
O10	O	1.665160	0.248149	0.888417
O11	O	1.345439	-0.219738	0.437976
O12	O	1.845439	0.280262	0.937976
O13	O	1.214603	-0.283998	0.208168
O14	O	1.714603	0.216002	0.708168
O15	O	1.115744	-0.134987	0.338961
O16	O	1.615744	0.365013	0.838961
O17	O	1.345350	-0.283978	0.338897
O18	O	1.845350	0.216022	0.838897
O19	O	1.214809	-0.134972	0.438012
O20	O	1.714809	0.365028	0.938012
O21	O	1.115627	-0.219772	0.208196
O22	O	1.615627	0.280228	0.708196
O23	O	0.984945	-0.219743	0.338896
O24	O	1.484945	0.280257	0.838896
O25	O	1.115653	-0.283927	0.568627
O26	O	1.615653	0.216073	1.068627
O27	O	0.984906	-0.283946	0.437898
O28	O	1.484906	0.216054	0.937898
O29	O	1.214757	-0.219709	0.568676
O30	O	1.714757	0.280291	1.068676
O31	O	1.214551	-0.368734	0.338833
O32	O	1.714551	0.131266	0.838833
O33	O	1.115535	-0.368712	0.437862
O34	O	1.615535	0.131288	0.937862
C35	C	0.955669	-0.251844	0.388394
C36	C	1.455669	0.248156	0.888394
C37	C	0.866048	-0.251853	0.388404
C38	C	1.366048	0.248147	0.888404
C39	C	0.537872	-0.251857	0.388438
C40	C	1.037872	0.248143	0.888438
C41	C	0.629181	-0.251854	0.388426
C42	C	1.129181	0.248146	0.888426
C43	C	0.701957	-0.251855	0.388420
C44	C	1.201957	0.248145	0.888420
C45	C	0.793272	-0.251852	0.388409
C46	C	1.293272	0.248148	0.888409
C47	C	1.165046	-0.387694	0.388354
C48	C	1.665046	0.112306	0.888354
C49	C	1.165071	-0.445808	0.388354
C50	C	1.665071	0.054192	0.888354
C51	C	1.216769	-0.806125	0.440086
C52	C	1.716769	-0.306125	0.940086
C53	C	1.216793	-0.860729	0.440102
C54	C	1.716793	-0.360729	0.940102
O55	O	1.260612	-0.888927	0.484022
O56	O	1.760612	-0.388927	0.984022
N57	N	1.165272	-0.888090	0.388495
N58	N	1.665272	-0.388090	0.888495
C59	C	1.113718	-0.860844	0.336873
C60	C	1.613718	-0.360844	0.836873
O61	O	1.069898	-0.889131	0.292979
O62	O	1.569898	-0.389131	0.792979
C63	C	1.113691	-0.806241	0.336862
C64	C	1.613691	-0.306241	0.836862
C65	C	1.165221	-0.778883	0.388467
C66	C	1.665221	-0.278883	0.888467
C67	C	1.268294	-0.778767	0.491687
C68	C	1.768294	-0.278767	0.991687
C69	C	1.268271	-0.724166	0.491670
C70	C	1.768271	-0.224166	0.991670
C71	C	1.216723	-0.696924	0.440051
C72	C	1.716723	-0.196924	0.940051
C73	C	1.165198	-0.724282	0.388449
C74	C	1.665198	-0.224282	0.888449
C75	C	1.062134	-0.778996	0.285245
C76	C	1.562134	-0.278996	0.785245
C77	C	1.062111	-0.724389	0.285238
C78	C	1.562111	-0.224389	0.785238
C79	C	1.113641	-0.697031	0.336843
C80	C	1.613641	-0.197031	0.836843
C81	C	1.113627	-0.642440	0.336812
C82	C	1.613627	-0.142440	0.836812
N83	N	1.165148	-0.615078	0.388420
N84	N	1.665148	-0.115078	0.888420
C85	C	1.216696	-0.642321	0.440039
C86	C	1.716696	-0.142321	0.940039
C87	C	1.113778	-0.975515	0.336903
C88	C	1.613778	-0.475515	0.836903
C89	C	1.113809	-1.030117	0.336910
C90	C	1.613809	-0.530117	0.836910
C91	C	1.216883	-1.029998	0.440140
C92	C	1.716883	-0.529998	0.940140
C93	C	1.216855	-0.975395	0.440128
C94	C	1.716855	-0.475395	0.940128
C95	C	1.165299	-0.948154	0.388510
C96	C	1.665299	-0.448154	0.888510
C97	C	1.216644	-0.527655	0.439997
C98	C	1.716644	-0.027655	0.939997
C99	C	1.216619	-0.473050	0.439973
C100	C	1.716619	0.026950	0.939973
C101	C	1.113543	-0.473174	0.336746
C102	C	1.613543	0.026826	0.836746
C103	C	1.113571	-0.527774	0.336767
C104	C	1.613571	-0.027774	0.836767
C105	C	1.165124	-0.555014	0.388399
C106	C	1.665124	-0.055014	0.888399
O107	O	1.069827	-0.614207	0.292917
O108	O	1.569827	-0.114207	0.792917
O109	O	1.260502	-0.614027	0.483933
O110	O	1.760502	-0.114027	0.983933
C111	C	1.375469	-0.251859	0.388440
C112	C	1.875469	0.248141	0.888440
C113	C	1.465090	-0.251863	0.388450
C114	C	1.965090	0.248137	0.888450
C115	C	1.165212	-0.251812	0.598726
C116	C	1.665212	0.248188	1.098726
C117	C	1.165235	-0.251796	0.688347
C118	C	1.665235	0.248204	1.188347
C119	C	1.165296	-0.115478	0.388498
C120	C	1.665296	0.384522	0.888498
C121	C	1.165354	-0.057364	0.388532
C122	C	1.665354	0.442636	0.888532
C123	C	1.165154	-0.251852	0.178926
C124	C	1.665154	0.248148	0.678926
C125	C	1.165288	-0.251722	0.089305
C126	C	1.665288	0.248278	0.589305
C127	C	1.165272	-0.251737	1.016523
C128	C	1.665272	0.248263	1.516523
C129	C	1.165259	-0.251755	0.925214
C130	C	1.665259	0.248245	1.425214
C131	C	1.165254	-0.251767	0.852438
C132	C	1.665254	0.248233	1.352438
C133	C	1.165240	-0.251784	0.761124
C134	C	1.665240	0.248216	1.261124
H135	H	1.258584	-0.450777	0.481996
H136	H	1.758584	0.049223	0.981996
F137	F	1.271514	-0.556638	0.494949
F138	F	1.771514	-0.056638	0.994949
F139	F	1.271699	-0.946283	0.495054
F140	F	1.771699	-0.446283	0.995054
H141	H	1.071857	-1.052388	0.294879
H142	H	1.571857	-0.552388	0.794879
F143	F	1.323112	-0.695056	0.546600
F144	F	1.823112	-0.195056	1.046600
H145	H	1.071798	-0.953338	0.294863
H146	H	1.571798	-0.453338	0.794863
H147	H	1.310270	-0.800941	0.533727
H148	H	1.810270	-0.300941	1.033727
H149	H	1.258854	-1.052189	0.482173
H150	H	1.758854	-0.552189	0.982173
F151	F	1.007286	-0.808101	0.230321
F152	F	1.507286	-0.308101	0.730321
H153	H	1.020125	-0.702212	0.243205
H154	H	1.520125	-0.202212	0.743205
H155	H	1.071617	-0.550051	0.294740
H156	H	1.571617	-0.050051	0.794740
F157	F	1.058686	-0.444171	0.281811
F158	F	1.558686	0.055829	0.781811
