data_functionalizedCrystal
_audit_creation_method	'MofGen! by Chris Wilmer'
_symmetry_space_group_name_H-M	'P1'
_symmetry_Int_Tables_number	1
_symmetry_cell_setting	triclinic
loop_
_symmetry_equiv_pos_as_xyz
  x,y,z
_cell_length_a	12.837943
_cell_length_b	19.188930
_cell_length_c	11.295483
_cell_angle_alpha	94.076039
_cell_angle_beta	85.461227
_cell_angle_gamma	88.986861
loop_
_atom_site_label
_atom_site_type_symbol
_atom_site_fract_x
_atom_site_fract_y
_atom_site_fract_z
O1	O	1.381633	0.177215	-0.099031
O2	O	1.714967	0.510549	0.234302
O3	O	2.048300	0.843882	0.567636
O4	O	1.079869	0.168252	-0.099037
O5	O	1.413202	0.501585	0.234297
O6	O	1.746535	0.834918	0.567630
O7	O	1.239458	0.071676	-0.099010
O8	O	1.572791	0.405010	0.234323
O9	O	1.906124	0.738343	0.567656
O10	O	1.222044	0.273791	-0.099057
O11	O	1.555378	0.607124	0.234276
O12	O	1.888711	0.940458	0.567609
O13	O	1.225441	0.080144	0.099038
O14	O	1.558774	0.413478	0.432371
O15	O	1.892107	0.746811	0.765705
O16	O	1.065852	0.176720	0.099012
O17	O	1.399185	0.510053	0.432345
O18	O	1.732518	0.843386	0.765679
O19	O	1.367616	0.185683	0.099017
O20	O	1.700950	0.519017	0.432351
O21	O	2.034283	0.852350	0.765684
Cu22	Cu	1.215454	0.181975	0.117098
Cu23	Cu	1.548787	0.515308	0.450431
Cu24	Cu	1.882121	0.848641	0.783765
Cu25	Cu	1.232031	0.171960	-0.117117
Cu26	Cu	1.565364	0.505294	0.216216
Cu27	Cu	1.898697	0.838627	0.549549
O28	O	1.208027	0.282259	0.098991
O29	O	1.541361	0.615592	0.432325
O30	O	1.874694	0.948926	0.765658
C31	C	1.034253	0.169458	-0.000013
C32	C	1.367587	0.502791	0.333321
C33	C	1.700920	0.836124	0.666654
C34	C	0.919217	0.160427	-0.000014
C35	C	1.252551	0.493760	0.333319
C36	C	1.585884	0.827093	0.666653
C37	C	1.231885	0.049861	0.000017
C38	C	1.565218	0.383194	0.333351
C39	C	1.898551	0.716527	0.666684
C40	C	1.230191	-0.027760	0.000027
C41	C	1.563524	0.305574	0.333361
C42	C	1.896858	0.638907	0.666694
C43	C	0.677767	0.268994	-0.000022
C44	C	1.011101	0.602328	0.333311
C45	C	1.344434	0.935661	0.666645
C46	C	0.569680	0.260512	-0.000022
C47	C	0.903013	0.593845	0.333311
C48	C	1.236347	0.927179	0.666645
C49	C	0.594953	0.134982	-0.000006
C50	C	0.928286	0.468315	0.333328
C51	C	1.261619	0.801648	0.666661
C52	C	0.703040	0.143464	-0.000006
C53	C	1.036373	0.476797	0.333328
C54	C	1.369707	0.810130	0.666661
C55	C	0.744443	0.210472	-0.000016
C56	C	1.077776	0.543805	0.333318
C57	C	1.411110	0.877139	0.666651
C58	C	0.852533	0.218953	-0.000024
C59	C	1.185866	0.552286	0.333309
C60	C	1.519200	0.885620	0.666643
C61	C	0.877803	0.093423	0.000001
C62	C	1.211136	0.426757	0.333334
C63	C	1.544470	0.760090	0.666668
C64	C	0.769716	0.084941	0.000001
C65	C	1.103049	0.418275	0.333334
C66	C	1.436382	0.751608	0.666668
C67	C	1.323833	-0.066260	0.000035
C68	C	1.657166	0.267073	0.333368
C69	C	1.990500	0.600406	0.666702
C70	C	1.322244	-0.139194	0.000016
C71	C	1.655577	0.194139	0.333349
C72	C	1.988911	0.527473	0.666682
C73	C	1.227005	-0.173623	0.000013
C74	C	1.560339	0.159710	0.333346
C75	C	1.893672	0.493044	0.666680
C76	C	1.133352	-0.135114	-0.000001
C77	C	1.466685	0.198220	0.333332
C78	C	1.800018	0.531553	0.666666
C79	C	1.134944	-0.062182	0.000006
C80	C	1.468278	0.271152	0.333340
C81	C	1.801611	0.604485	0.666673
N82	N	1.149437	-0.283739	0.067411
N83	N	1.482770	0.049594	0.400745
N84	N	1.816103	0.382927	0.734078
N85	N	1.147930	-0.353022	0.067407
N86	N	1.481263	-0.019688	0.400741
N87	N	1.814597	0.313645	0.734074
C88	C	1.222201	-0.393362	-0.000011
C89	C	1.555534	-0.060029	0.333322
C90	C	1.888868	0.273304	0.666656
N91	N	1.298051	-0.361803	-0.067410
N92	N	1.631384	-0.028470	0.265923
N93	N	1.964717	0.304863	0.599257
N94	N	1.299560	-0.292515	-0.067400
N95	N	1.632894	0.040819	0.265933
N96	N	1.966227	0.374152	0.599266
C97	C	1.225268	-0.252705	0.000005
C98	C	1.558601	0.080628	0.333338
C99	C	1.891935	0.413962	0.666671
C100	C	1.314126	-0.510946	-0.000026
C101	C	1.647460	-0.177613	0.333307
C102	C	1.980793	0.155720	0.666641
C103	C	1.312534	-0.583882	-0.000052
C104	C	1.645867	-0.250548	0.333281
C105	C	1.979200	0.082785	0.666614
C106	C	1.123638	-0.579799	-0.000057
C107	C	1.456971	-0.246466	0.333276
C108	C	1.790305	0.086867	0.666609
C109	C	1.125234	-0.506866	-0.000043
C110	C	1.458567	-0.173533	0.333291
C111	C	1.791901	0.159801	0.666624
C112	C	1.220481	-0.472444	-0.000021
C113	C	1.553814	-0.139110	0.333312
C114	C	1.887147	0.194223	0.666645
C115	C	1.413232	0.184477	-0.000009
C116	C	1.746565	0.517811	0.333324
C117	C	2.079898	0.851144	0.666658
C118	C	1.528268	0.193508	-0.000016
C119	C	1.861602	0.526841	0.333318
C120	C	2.194935	0.860175	0.666651
C121	C	1.215600	0.304074	-0.000039
C122	C	1.548934	0.637408	0.333294
C123	C	1.882267	0.970741	0.666628
C124	C	1.217295	0.381694	-0.000057
C125	C	1.550628	0.715028	0.333276
C126	C	1.883961	1.048361	0.666610
N127	N	1.203803	0.189018	0.281832
N128	N	1.537136	0.522352	0.615166
N129	N	1.870469	0.855685	0.948499
N130	N	1.243691	0.164912	-0.281852
N131	N	1.577024	0.498245	0.051482
N132	N	1.910357	0.831578	0.384815
C133	C	1.327566	0.114169	0.531142
C134	C	1.660899	0.447502	0.864476
C135	C	1.994232	0.780836	1.197809
C136	C	1.318768	0.119497	0.655804
C137	C	1.652101	0.452831	0.989138
C138	C	1.985434	0.786164	1.322471
C139	C	1.177405	0.204999	0.655821
C140	C	1.510738	0.538333	0.989155
C141	C	1.844071	0.871666	1.322488
C142	C	1.186202	0.199671	0.531159
C143	C	1.519536	0.533004	0.864492
C144	C	1.852869	0.866338	1.197826
C145	C	1.261286	0.154255	0.468824
C146	C	1.594620	0.487588	0.802157
C147	C	1.927953	0.820922	1.135491
C148	C	1.270089	0.148931	0.344159
C149	C	1.603422	0.482264	0.677493
C150	C	1.936755	0.815598	1.010826
C151	C	1.128721	0.234429	0.344179
C152	C	1.462055	0.567762	0.677512
C153	C	1.795388	0.901095	1.010845
C154	C	1.119923	0.239757	0.468841
C155	C	1.453257	0.573090	0.802174
C156	C	1.786590	0.906424	1.135508
H157	H	0.886241	0.273515	-0.000030
H158	H	1.219575	0.606848	0.333303
H159	H	1.552908	0.940181	0.666637
H160	H	1.116266	0.241971	0.706591
H161	H	1.449600	0.575304	1.039924
H162	H	1.782933	0.908637	1.373258
H163	H	0.932104	0.045770	-0.000002
H164	H	1.265437	0.379103	0.333332
H165	H	1.598770	0.712437	0.666665
H166	H	1.398501	-0.170548	0.000017
H167	H	1.731835	0.162786	0.333350
H168	H	2.065168	0.496119	0.666684
H169	H	0.711478	0.323555	-0.000032
H170	H	1.044812	0.656888	0.333302
H171	H	1.378145	0.990222	0.666635
H172	H	1.372737	0.086854	0.706541
H173	H	1.706071	0.420188	1.039874
H174	H	2.039404	0.753521	1.373207
H175	H	0.515395	0.308167	-0.000024
H176	H	0.848728	0.641501	0.333309
H177	H	1.182062	0.974834	0.666643
H178	H	1.331228	0.111953	0.293407
H179	H	1.664561	0.445286	0.626741
H180	H	1.997895	0.778620	0.960074
H181	H	1.388709	0.077195	0.480388
H182	H	1.722042	0.410528	0.813721
H183	H	2.055375	0.743861	1.147055
H184	H	1.074755	0.267072	0.293425
H185	H	1.408089	0.600405	0.626758
H186	H	1.741422	0.933738	0.960092
H187	H	1.058789	0.276732	0.519608
H188	H	1.392122	0.610065	0.852942
H189	H	1.725455	0.943399	1.186275
H190	H	1.401391	-0.038239	0.000048
H191	H	1.734724	0.295095	0.333381
H192	H	2.068057	0.628428	0.666715
H193	H	1.048980	-0.475518	-0.000042
H194	H	1.382313	-0.142184	0.333291
H195	H	1.715647	0.191149	0.666625
H196	H	1.055808	-0.163150	-0.000006
H197	H	1.389141	0.170183	0.333328
H198	H	1.722475	0.503516	0.666661
H199	H	0.561216	0.080430	0.000101
H200	H	0.894549	0.413764	0.333434
H201	H	1.227882	0.747097	0.666767
H202	H	0.735989	0.030385	0.000023
H203	H	1.069322	0.363719	0.333356
H204	H	1.402656	0.697052	0.666689
H205	H	1.391682	-0.482919	-0.000014
H206	H	1.725016	-0.149585	0.333319
H207	H	2.058349	0.183748	0.666653
H208	H	1.388792	-0.615228	-0.000053
H209	H	1.722125	-0.281895	0.333280
H210	H	2.055459	0.051438	0.666614
H211	H	1.046093	-0.607831	-0.000065
H212	H	1.379427	-0.274497	0.333268
H213	H	1.712760	0.058836	0.666601
H214	H	1.058687	-0.030834	0.000001
H215	H	1.392020	0.302499	0.333334
H216	H	1.725354	0.635832	0.666667
