data_functionalizedCrystal
_audit_creation_method	'MofGen! by Chris Wilmer'
_symmetry_space_group_name_H-M	'P1'
_symmetry_Int_Tables_number	1
_symmetry_cell_setting	triclinic
loop_
_symmetry_equiv_pos_as_xyz
  x,y,z
_cell_length_a	33.592126
_cell_length_b	33.591377
_cell_length_c	33.588093
_cell_angle_alpha	60.004089
_cell_angle_beta	60.008299
_cell_angle_gamma	59.994549
loop_
_atom_site_label
_atom_site_type_symbol
_atom_site_fract_x
_atom_site_fract_y
_atom_site_fract_z
O1	O	0.055297	-0.581666	0.486338
O2	O	0.020882	-0.452873	0.391864
O3	O	0.102445	-0.534352	0.391775
O4	O	-0.026266	-0.500187	0.486427
O5	O	0.129510	-0.507292	0.418747
O6	O	0.047947	-0.425814	0.418835
O7	O	0.082362	-0.554606	0.513309
Cu8	Cu	0.067626	-0.487739	0.468535
Cu9	Cu	0.035618	-0.519740	0.436638
O10	O	0.000799	-0.473128	0.513398
N11	N	0.090139	-0.465235	0.490972
N12	N	0.013110	-0.542249	0.414202
C13	C	0.124394	-0.431229	0.734914
C14	C	0.334265	-0.431145	0.524799
C15	C	0.124204	-0.431200	0.524965
C16	C	0.124184	-0.221175	0.524955
C17	C	0.158017	-0.322536	0.558710
C18	C	0.158027	-0.397406	0.558711
C19	C	0.176763	-0.378688	0.577408
C20	C	0.258412	-0.364594	0.534386
C21	C	0.309454	-0.381596	0.517340
C22	C	0.309485	-0.464188	0.548836
C23	C	0.258444	-0.447186	0.565883
C24	C	0.170304	-0.297002	0.508532
C25	C	0.153260	-0.245956	0.491537
C26	C	0.111648	-0.245983	0.574901
C27	C	0.128691	-0.297029	0.591896
C28	C	0.107841	-0.385091	0.571080
C29	C	0.090813	-0.402108	0.554078
C30	C	0.174153	-0.443755	0.512351
C31	C	0.191183	-0.426739	0.529347
C32	C	0.107923	-0.385106	0.659111
C33	C	0.090955	-0.402138	0.710156
C34	C	0.174335	-0.443795	0.710087
C35	C	0.191302	-0.426764	0.659041
C36	C	0.158095	-0.397418	0.633555
C37	C	0.232909	-0.397388	0.558656
C38	C	0.105069	-0.449619	0.791057
C39	C	0.390406	-0.449193	0.505789
C40	C	0.104813	-0.449599	0.506607
C41	C	0.105125	-0.165028	0.506915
C42	C	-0.020560	-0.576246	0.169890
C43	C	-0.020889	-0.786183	0.379970
C44	C	-0.020859	-0.576235	0.380063
C45	C	-0.230772	-0.576015	0.379658
C46	C	-0.129417	-0.609898	0.346025
C47	C	-0.054587	-0.609979	0.346172
C48	C	-0.073269	-0.628671	0.327396
C49	C	-0.087401	-0.710299	0.370335
C50	C	-0.070424	-0.761345	0.387369
C51	C	0.012165	-0.761428	0.356003
C52	C	-0.004813	-0.710383	0.338967
C53	C	-0.155001	-0.622196	0.396191
C54	C	-0.206043	-0.605128	0.413125
C55	C	-0.205914	-0.563467	0.329724
C56	C	-0.154872	-0.580535	0.312790
C57	C	-0.066886	-0.559797	0.333828
C58	C	-0.049903	-0.542809	0.350903
C59	C	-0.008321	-0.626180	0.392654
C60	C	-0.025304	-0.643170	0.375585
C61	C	-0.066758	-0.559805	0.245702
C62	C	-0.049671	-0.542819	0.194658
C63	C	-0.008026	-0.626194	0.194706
C64	C	-0.025111	-0.643179	0.245752
C65	C	-0.054479	-0.609983	0.271248
C66	C	-0.054597	-0.684821	0.346135
C67	C	-0.002109	-0.556901	0.113746
C68	C	-0.002869	-0.842328	0.398966
C69	C	-0.002496	-0.556887	0.398501
C70	C	-0.286914	-0.556929	0.397631
N71	N	0.436349	-0.465146	0.490703
O72	O	0.592194	-0.469605	0.374236
O73	O	0.592389	-0.564393	0.502890
O74	O	0.592305	-0.564176	0.421300
O75	O	0.592277	-0.469822	0.455826
O76	O	0.511216	-0.537214	0.448415
O77	O	0.511300	-0.537431	0.530004
O78	O	0.511104	-0.442643	0.401350
Cu79	Cu	0.503798	-0.487575	0.468153
Cu80	Cu	0.599695	-0.519461	0.436087
O81	O	0.511188	-0.442860	0.482940
N82	N	0.667145	-0.541890	0.413532
N83	N	0.090108	-0.119085	0.490958
O84	O	-0.026275	0.036848	0.486394
O85	O	0.102381	0.036888	0.391584
O86	O	0.020751	0.036852	0.391854
O87	O	0.055356	0.036884	0.486124
O88	O	0.047821	-0.044242	0.418876
O89	O	0.129452	-0.044207	0.418606
O90	O	0.000796	-0.044246	0.513417
Cu91	Cu	0.067596	-0.051631	0.468479
Cu92	Cu	0.035582	0.044273	0.436522
O93	O	0.082426	-0.044211	0.513146
N94	N	0.013063	0.111726	0.414043
N95	N	0.090453	-0.465282	0.837001
O96	O	0.085913	-0.581648	0.992925
O97	O	-0.008857	-0.452947	0.992970
O98	O	-0.008635	-0.534562	0.992946
O99	O	0.085691	-0.500033	0.992949
O100	O	0.018365	-0.507512	0.911855
O101	O	0.018143	-0.425898	0.911878
O102	O	0.112912	-0.554598	0.911834
Cu103	Cu	0.067993	-0.487778	0.904452
Cu104	Cu	0.036063	-0.519767	1.000352
O105	O	0.112691	-0.472984	0.911857
N106	N	0.013602	-0.542269	1.067803
C107	C	0.031188	-0.423114	0.392334
C108	C	0.132194	-0.524016	0.392223
C109	C	0.072056	-0.584366	0.512840
C110	C	-0.028950	-0.483464	0.512950
C111	C	0.551868	-0.563965	0.532655
C112	C	0.551766	-0.563697	0.431617
C113	C	0.551623	-0.443070	0.371586
C114	C	0.551728	-0.443339	0.472623
C115	C	0.132090	-0.003555	0.392006
C116	C	0.031035	-0.003698	0.392374
C117	C	-0.028947	-0.003703	0.512961
C118	C	0.072143	-0.003661	0.512626
C119	C	-0.008408	-0.423209	0.952430
C120	C	-0.008128	-0.524272	0.952385
C121	C	0.112464	-0.584336	0.952374
C122	C	0.112190	-0.483267	0.952401
H123	H	0.050098	-0.392105	0.730957
O124	O	0.148006	-0.628393	0.952271
C125	C	0.189082	-0.621957	0.910275
H126	H	0.177317	-0.586250	0.880931
H127	H	0.216605	-0.620834	0.919770
C128	C	0.227111	-0.708534	0.927257
C129	C	0.212661	-0.664680	0.891214
H130	H	0.241658	-0.734888	0.915499
H131	H	0.199439	-0.712871	0.955551
H132	H	0.250045	-0.707591	0.935166
H133	H	0.189723	-0.665622	0.883310
H134	H	0.240330	-0.660345	0.862917
H135	H	0.169160	-0.531297	0.362501
H136	H	0.079411	-0.621363	0.542512
H137	H	-0.065919	-0.476185	0.542670
O138	O	0.551954	-0.599421	0.576755
C139	C	0.551958	-0.581860	0.607096
H140	H	0.567269	-0.550537	0.583648
H141	H	0.513065	-0.568350	0.631750
C142	C	0.565012	-0.661707	0.667410
C143	C	0.583821	-0.623239	0.638610
H144	H	0.584665	-0.687232	0.686851
H145	H	0.565007	-0.673539	0.646970
H146	H	0.532602	-0.650443	0.687950
H147	H	0.616228	-0.634502	0.618066
H148	H	0.583832	-0.611410	0.659048
O149	O	-0.043528	-0.532995	0.952365
C150	C	-0.085601	-0.491115	0.952353
H151	H	-0.085201	-0.467844	0.967737
H152	H	-0.086173	-0.469095	0.913445
C153	C	-0.131815	-0.535133	0.965223
C154	C	-0.131327	-0.506553	0.984121
H155	H	-0.160022	-0.544655	0.984817
H156	H	-0.103470	-0.563348	0.965229
H157	H	-0.132290	-0.516779	0.932800
H158	H	-0.130846	-0.524909	1.016541
H159	H	-0.159673	-0.478341	0.984121
H160	H	0.551722	-0.413701	0.480010
H161	H	0.551779	-0.593338	0.424228
O162	O	0.176036	-0.003212	0.356346
C163	C	0.169345	0.038881	0.315402
H164	H	0.130416	0.052716	0.316083
H165	H	0.176190	0.068346	0.316344
C166	C	0.253194	0.009379	0.267651
C167	C	0.205381	0.026368	0.268484
H168	H	0.275424	0.001661	0.238709
H169	H	0.257703	-0.018980	0.295235
H170	H	0.258891	0.033936	0.268437
H171	H	0.199683	0.001809	0.267704
H172	H	0.200873	0.054722	0.240898
O173	O	0.147499	-0.474367	0.952372
C174	C	0.129732	-0.426441	0.952399
H175	H	0.098422	-0.403371	0.937059
H176	H	0.116148	-0.427164	0.991305
C177	C	0.209426	-0.432610	0.939433
C178	C	0.170973	-0.404274	0.920589
H179	H	0.234865	-0.418937	0.919813
H180	H	0.221396	-0.464899	0.939417
H181	H	0.198099	-0.433210	0.971855
H182	H	0.182299	-0.403679	0.888170
H183	H	0.159006	-0.371984	0.920598
H184	H	0.551560	-0.413310	0.334638
O185	O	0.022128	-0.003743	0.357105
C186	C	-0.025801	-0.003756	0.374888
H187	H	-0.038606	-0.019096	0.416419
H188	H	-0.051044	0.035141	0.362555
C189	C	-0.011029	-0.016747	0.303859
C190	C	-0.026755	-0.035593	0.354869
H191	H	-0.011619	-0.036383	0.291509
H192	H	0.021261	-0.016737	0.291877
H193	H	-0.032067	0.015666	0.293589
H194	H	-0.005713	-0.068003	0.365139
H195	H	-0.059041	-0.035609	0.366852
H196	H	0.118680	-0.317820	0.632757
H197	H	0.080878	-0.361206	0.638363
H198	H	0.201378	-0.467681	0.730833
H199	H	-0.065895	-0.003715	0.542725
H200	H	0.049948	-0.392069	0.564138
O201	O	0.081071	-0.003682	0.547918
C202	C	0.128995	-0.003655	0.530130
H203	H	0.152044	-0.018998	0.498825
H204	H	0.128266	0.035253	0.516532
C205	C	0.122887	-0.016615	0.609808
C206	C	0.151196	-0.035463	0.571360
H207	H	0.136581	-0.036234	0.635240
H208	H	0.090599	-0.016631	0.621791
H209	H	0.122281	0.015808	0.598469
H210	H	0.151796	-0.067883	0.582698
H211	H	0.183485	-0.035453	0.559379
H212	H	-0.038161	-0.386246	0.952443
H213	H	0.232159	-0.436796	0.638236
H214	H	0.201155	-0.467643	0.488446
O215	O	0.075567	-0.356584	0.599579
C216	C	0.027621	-0.349371	0.606855
H217	H	0.027685	-0.355067	0.576088
H218	H	0.013028	-0.376551	0.643218
C219	C	-0.005207	-0.290088	0.645032
C220	C	-0.005129	-0.297079	0.607241
H221	H	-0.025410	-0.257833	0.645272
H222	H	0.027095	-0.294948	0.640132
H223	H	-0.017367	-0.312741	0.675330
H224	H	0.007036	-0.274431	0.576943
H225	H	-0.037429	-0.292214	0.612136
O226	O	0.233744	-0.479106	0.589429
C227	C	0.267230	-0.526705	0.592158
H228	H	0.303597	-0.524753	0.561992
H229	H	0.272694	-0.546193	0.629137
C230	C	0.202632	-0.557410	0.622986
C231	C	0.247298	-0.555012	0.585933
H232	H	0.190337	-0.574873	0.619149
H233	H	0.180072	-0.525343	0.621149
H234	H	0.207192	-0.573649	0.653798
H235	H	0.242736	-0.538768	0.555122
H236	H	0.269857	-0.587078	0.587765
O237	O	0.022330	-0.378959	0.356978
C238	C	-0.025583	-0.348718	0.374684
H239	H	-0.048681	-0.372253	0.406003
H240	H	-0.024845	-0.324105	0.388239
C241	C	-0.019347	-0.288238	0.294940
C242	C	-0.047717	-0.317143	0.333404
H243	H	-0.033000	-0.268759	0.269477
H244	H	0.012934	-0.308611	0.283012
H245	H	-0.018734	-0.267731	0.306243
H246	H	-0.048325	-0.337654	0.322103
H247	H	-0.079999	-0.296773	0.345330
H248	H	0.330277	-0.504737	0.554712
O249	O	0.239943	-0.438665	0.517245
C250	C	0.261087	-0.421170	0.466116
H251	H	0.236867	-0.416184	0.448280
H252	H	0.264849	-0.384679	0.454575
C253	C	0.341564	-0.464215	0.471858
C254	C	0.311819	-0.458094	0.449951
H255	H	0.372859	-0.486989	0.461886
H256	H	0.327320	-0.476000	0.506305
H257	H	0.344694	-0.433802	0.462239
H258	H	0.308685	-0.488505	0.459576
H259	H	0.326064	-0.446315	0.415506
O260	O	0.334206	-0.349709	0.493690
C261	C	0.321682	-0.315050	0.451631
H262	H	0.307638	-0.330783	0.439916
H263	H	0.292051	-0.280647	0.459991
C264	C	0.384248	-0.283088	0.424607
C265	C	0.367003	-0.302414	0.410216
H266	H	0.412203	-0.275291	0.399061
H267	H	0.392685	-0.306437	0.452944
H268	H	0.359552	-0.254421	0.431574
H269	H	0.391697	-0.331083	0.403256
H270	H	0.358571	-0.279069	0.381877
O271	O	0.165255	-0.221224	0.442776
C272	C	0.194782	-0.254684	0.417130
H273	H	0.213370	-0.291071	0.441454
H274	H	0.171219	-0.260117	0.406147
C275	C	0.210928	-0.190047	0.341221
C276	C	0.233761	-0.234738	0.371095
H277	H	0.234971	-0.177744	0.312823
H278	H	0.191033	-0.167504	0.358498
H279	H	0.191293	-0.194581	0.332073
H280	H	0.253391	-0.230203	0.380247
H281	H	0.253660	-0.257280	0.353818
O282	O	0.083153	-0.221278	0.607201
C283	C	0.075983	-0.254762	0.655136
H284	H	0.081691	-0.291150	0.655047
H285	H	0.103174	-0.260181	0.669727
C286	C	0.016696	-0.190169	0.688019
C287	C	0.023703	-0.234861	0.687909
H288	H	-0.015552	-0.177893	0.708236
H289	H	0.021528	-0.167610	0.655724
H290	H	0.039359	-0.194691	0.700177
H291	H	0.001044	-0.230337	0.675746
H292	H	0.018866	-0.257419	0.720203
H293	H	0.237625	-0.324046	0.528499
H294	H	-0.059677	-0.501957	0.173865
O295	O	-0.095254	-0.527490	0.270394
C296	C	-0.102437	-0.479558	0.236901
H297	H	-0.071630	-0.479686	0.200544
H298	H	-0.138777	-0.464894	0.231411
C299	C	-0.140644	-0.446676	0.301498
C300	C	-0.102805	-0.446833	0.256845
H301	H	-0.140874	-0.426489	0.313801
H302	H	-0.135807	-0.478969	0.324064
H303	H	-0.170924	-0.434458	0.296917
H304	H	-0.072526	-0.459057	0.261429
H305	H	-0.107637	-0.414542	0.234281
H306	H	0.015877	-0.653227	0.173952
O307	O	-0.013155	-0.691941	0.270490
C308	C	0.016434	-0.717595	0.237039
H309	H	0.009980	-0.693251	0.200622
H310	H	0.056404	-0.728642	0.231680
C311	C	0.011410	-0.793480	0.301658
C312	C	0.003479	-0.763581	0.256931
H313	H	0.003421	-0.821847	0.313928
H314	H	-0.008524	-0.776197	0.324195
H315	H	0.044718	-0.802680	0.297186
H316	H	-0.029829	-0.754376	0.261404
H317	H	0.023407	-0.780864	0.234394
H318	H	-0.090726	-0.532768	0.309877
O319	O	-0.061818	-0.494079	0.338978
C320	C	-0.040539	-0.486203	0.360344
H321	H	-0.032902	-0.519694	0.393139
H322	H	-0.004906	-0.479444	0.332474
C323	C	-0.085124	-0.400354	0.336755
C324	C	-0.075748	-0.441487	0.377036
H325	H	-0.106842	-0.372769	0.347049
H326	H	-0.099460	-0.405659	0.322358
H327	H	-0.055427	-0.394728	0.313533
H328	H	-0.105444	-0.447115	0.400254
H329	H	-0.061419	-0.436181	0.391437
O330	O	0.020176	-0.658470	0.421165
C331	C	0.063005	-0.688010	0.395436
H332	H	0.056204	-0.688502	0.365684
H333	H	0.093718	-0.672697	0.378167
C334	C	0.085839	-0.739694	0.467387
C335	C	0.077485	-0.740302	0.430849
H336	H	0.094773	-0.771950	0.489231
H337	H	0.056985	-0.719792	0.484722
H338	H	0.111432	-0.726930	0.452991
H339	H	0.051889	-0.753060	0.445245
H340	H	0.106335	-0.760208	0.413518
O341	O	0.027110	-0.685685	0.315410
C342	C	0.061795	-0.698182	0.273348
H343	H	0.064188	-0.735235	0.277948
H344	H	0.050312	-0.669453	0.240249
C345	C	0.109022	-0.655080	0.260247
C346	C	0.111965	-0.700592	0.265899
H347	H	0.139969	-0.656565	0.255650
H348	H	0.085653	-0.646659	0.288584
H349	H	0.099451	-0.631144	0.232665
H350	H	0.121529	-0.724526	0.293483
H351	H	0.135336	-0.709017	0.237566
H352	H	-0.015291	-0.684031	0.385637
O353	O	0.060506	-0.786338	0.349104
C354	C	0.068457	-0.836855	0.369318
H355	H	0.033305	-0.843787	0.398530
H356	H	0.080254	-0.851349	0.339432
C357	C	0.151867	-0.854582	0.356431
C358	C	0.108693	-0.863096	0.392313
H359	H	0.176688	-0.870769	0.370613
H360	H	0.146511	-0.820547	0.342811
H361	H	0.161692	-0.866660	0.331529
H362	H	0.098867	-0.851012	0.417211
H363	H	0.114049	-0.897129	0.405938
H364	H	-0.097137	-0.782089	0.407066
O365	O	-0.135770	-0.685546	0.377304
C366	C	-0.161082	-0.718984	0.402320
H367	H	-0.134885	-0.755389	0.396470
H368	H	-0.177015	-0.724383	0.442929
C369	C	-0.234773	-0.654325	0.389876
C370	C	-0.202598	-0.699037	0.382688
H371	H	-0.260384	-0.642021	0.377769
H372	H	-0.217721	-0.631796	0.373024
H373	H	-0.248045	-0.658830	0.423718
H374	H	-0.189322	-0.694530	0.348847
H375	H	-0.219649	-0.721565	0.399534
H376	H	-0.134277	-0.646110	0.423254
O377	O	-0.230879	-0.617158	0.461863
C378	C	-0.218442	-0.668281	0.483076
H379	H	-0.204372	-0.684743	0.454006
H380	H	-0.188858	-0.683427	0.499257
C381	C	-0.281110	-0.661213	0.559362
C382	C	-0.263832	-0.681430	0.523659
H383	H	-0.309107	-0.669324	0.584397
H384	H	-0.289488	-0.626770	0.545072
H385	H	-0.256452	-0.673836	0.572841
H386	H	-0.288488	-0.668803	0.510177
H387	H	-0.255459	-0.715872	0.537948
O388	O	-0.230568	-0.534937	0.297376
C389	C	-0.197041	-0.527762	0.249464
H390	H	-0.160672	-0.533501	0.249618
H391	H	-0.191602	-0.554932	0.234835
C392	C	-0.261564	-0.468419	0.216492
C393	C	-0.216896	-0.475464	0.216681
H394	H	-0.273812	-0.436160	0.196269
H395	H	-0.284153	-0.473254	0.248771
H396	H	-0.257026	-0.491064	0.204302
H397	H	-0.221436	-0.452823	0.228876
H398	H	-0.194309	-0.470623	0.184404
H399	H	-0.134040	-0.570516	0.271939
H400	H	0.194180	-0.317769	0.481510
