data_functionalizedCrystal
_audit_creation_method	'MofGen! by Chris Wilmer'
_symmetry_space_group_name_H-M	'P1'
_symmetry_Int_Tables_number	1
_symmetry_cell_setting	triclinic
loop_
_symmetry_equiv_pos_as_xyz
  x,y,z
_cell_length_a	25.639242
_cell_length_b	18.101395
_cell_length_c	18.101389
_cell_angle_alpha	89.983159
_cell_angle_beta	90.027770
_cell_angle_gamma	89.973368
loop_
_atom_site_label
_atom_site_type_symbol
_atom_site_fract_x
_atom_site_fract_y
_atom_site_fract_z
Zn1	Zn	0.799282	0.294996	0.418915
Zn2	Zn	0.799208	0.418821	0.295077
Zn3	Zn	0.711849	0.294988	0.295069
Zn4	Zn	0.711815	0.418790	0.418858
O5	O	0.755538	0.356899	0.356980
O6	O	0.872437	0.311437	0.402515
O7	O	0.787604	0.402405	0.191443
O8	O	0.723493	0.191357	0.311517
O9	O	0.872383	0.402412	0.311531
O10	O	0.787729	0.191362	0.402507
O11	O	0.723421	0.311425	0.191437
O12	O	0.638679	0.311395	0.311462
O13	O	0.723433	0.402358	0.522498
O14	O	0.638654	0.402352	0.402410
O15	O	0.787695	0.311407	0.522540
O16	O	0.787570	0.522450	0.311476
O17	O	0.723362	0.522427	0.402418
C18	C	0.619696	0.356870	0.356929
C19	C	0.561582	0.356875	0.356925
C20	C	0.755468	0.549309	0.356958
C21	C	0.755486	0.631624	0.356973
C22	C	0.755569	0.356880	0.550142
C23	C	0.755581	0.356872	0.632456
C24	C	0.201214	0.404339	0.404291
C25	C	0.146610	0.404344	0.404303
O26	O	0.118369	0.444663	0.444532
N27	N	0.119299	0.356919	0.357028
C28	C	0.146596	0.309482	0.309744
O29	O	0.118352	0.269144	0.269534
C30	C	0.201199	0.309474	0.309736
C31	C	0.228507	0.356907	0.357009
C32	C	0.228522	0.451767	0.451560
C33	C	0.283123	0.451764	0.451547
C34	C	0.310415	0.404332	0.404265
C35	C	0.283107	0.356903	0.356996
C36	C	0.228495	0.262034	0.262456
C37	C	0.283102	0.262030	0.262453
C38	C	0.310409	0.309463	0.309726
C39	C	0.365001	0.309467	0.309701
N40	N	0.392311	0.356892	0.356976
C41	C	0.365019	0.404324	0.404258
C42	C	0.031925	0.309501	0.309764
C43	C	-0.022677	0.309512	0.309767
C44	C	-0.022659	0.404373	0.404327
C45	C	0.031944	0.404365	0.404320
C46	C	0.059236	0.356925	0.357038
C47	C	0.479684	0.404313	0.404227
C48	C	0.534289	0.404307	0.404208
C49	C	0.534266	0.309444	0.309650
C50	C	0.479666	0.309452	0.309667
C51	C	0.452376	0.356889	0.356961
O52	O	0.393276	0.269167	0.269494
O53	O	0.393269	0.444648	0.444467
C54	C	0.891911	0.356929	0.357030
C55	C	0.950025	0.356941	0.357052
C56	C	0.755623	0.163737	0.357018
C57	C	0.755659	0.081423	0.357034
C58	C	0.755601	0.930714	0.357013
C59	C	0.715297	0.899406	0.414373
C60	C	0.715105	0.813788	0.414194
C61	C	0.755544	0.782332	0.356994
C62	C	0.740627	0.813467	0.278941
C63	C	0.740367	0.899113	0.279284
C64	C	0.810911	0.899068	0.377019
C65	C	0.810585	0.813417	0.378730
C66	C	0.755513	0.698472	0.356978
C67	C	0.755631	1.014574	0.357023
C68	C	0.755538	0.356864	0.164569
C69	C	0.755627	0.356663	0.082255
C70	C	0.755612	0.356733	0.931547
C71	C	0.715041	0.413775	0.900195
C72	C	0.715151	0.414040	0.814577
C73	C	0.755596	0.356802	0.783164
C74	C	0.810683	0.377992	0.814275
C75	C	0.810456	0.378367	0.899920
C76	C	0.741576	0.278374	0.899968
C77	C	0.740350	0.278827	0.814317
C78	C	0.755591	0.356840	0.699305
C79	C	0.755621	0.356698	1.015406
H80	H	0.556521	0.442935	0.442703
H81	H	0.768449	0.919825	0.235089
H82	H	-0.044907	0.270895	0.271265
Br83	Br	0.672778	0.252195	0.780436
H84	H	0.724537	0.919965	0.472435
Br85	Br	0.788014	0.779513	0.205762
H86	H	0.700624	0.792075	0.261692
H87	H	0.822788	0.434665	0.792836
H88	H	0.724438	0.792735	0.472069
H89	H	0.054175	0.442988	0.442814
H90	H	0.457431	0.270830	0.271172
H91	H	0.724216	0.471503	0.921723
Br92	Br	0.647068	0.391932	0.779510
Br93	Br	0.863287	0.777716	0.314181
H94	H	0.824511	0.920628	0.432966
H95	H	0.702105	0.259070	0.921550
H96	H	0.767744	0.234071	0.792934
H97	H	0.771126	0.235875	0.920245
Br98	Br	0.068958	0.245116	0.245586
H99	H	0.821834	0.793066	0.436173
Br100	Br	0.320175	0.516137	0.515710
H101	H	0.674109	0.793358	0.400941
Br102	Br	0.830289	0.473839	0.933236
H103	H	0.457471	0.442939	0.442740
H104	H	0.840938	0.919313	0.335242
H105	H	0.305320	0.223393	0.223955
H106	H	-0.044891	0.442992	0.442829
H107	H	0.556498	0.270828	0.271152
H108	H	0.206270	0.223411	0.223960
H109	H	0.674549	0.920985	0.401287
H110	H	0.206306	0.490393	0.490067
Br111	Br	0.672980	0.932511	0.251040
Br112	Br	0.646748	0.391897	0.934490
Br113	Br	0.862514	0.312079	0.934496
Br114	Br	0.730627	0.510838	0.780435
H115	H	0.841723	0.337751	0.793931
