data_functionalizedCrystal
_audit_creation_method	'MofGen! by Chris Wilmer'
_symmetry_space_group_name_H-M	'P1'
_symmetry_Int_Tables_number	1
_symmetry_cell_setting	triclinic
loop_
_symmetry_equiv_pos_as_xyz
  x,y,z
_cell_length_a	18.101395
_cell_length_b	18.101398
_cell_length_c	18.101389
_cell_angle_alpha	90.026909
_cell_angle_beta	89.983159
_cell_angle_gamma	89.976925
loop_
_atom_site_label
_atom_site_type_symbol
_atom_site_fract_x
_atom_site_fract_y
_atom_site_fract_z
Zn1	Zn	-0.295066	-1.132121	-0.418898
Zn2	Zn	0.204934	-0.632121	0.081102
Zn3	Zn	-0.418892	-1.132017	-0.295060
Zn4	Zn	0.081108	-0.632017	0.204940
Zn5	Zn	-0.295051	-1.008280	-0.295053
Zn6	Zn	0.204949	-0.508280	0.204947
Zn7	Zn	-0.418853	-1.008231	-0.418843
Zn8	Zn	0.081147	-0.508231	0.081157
O9	O	-0.356965	-1.070162	-0.356963
O10	O	0.143035	-0.570162	0.143037
O11	O	-0.311514	-1.235740	-0.402496
O12	O	0.188486	-0.735740	0.097504
O13	O	-0.402474	-1.115580	-0.191426
O14	O	0.097526	-0.615580	0.308574
O15	O	-0.191420	-1.024772	-0.311502
O16	O	0.308580	-0.524772	0.188498
O17	O	-0.402488	-1.235664	-0.311513
O18	O	0.097512	-0.735664	0.188487
O19	O	-0.191431	-1.115757	-0.402490
O20	O	0.308569	-0.615757	0.097510
O21	O	-0.311489	-1.024671	-0.191421
O22	O	0.188511	-0.524671	0.308579
O23	O	-0.311451	-0.904641	-0.311449
O24	O	0.188549	-0.404641	0.188551
O25	O	-0.402422	-1.024688	-0.522483
O26	O	0.097578	-0.524688	-0.022483
O27	O	-0.402408	-0.904604	-0.402396
O28	O	0.097592	-0.404604	0.097604
O29	O	-0.311476	-1.115710	-0.522523
O30	O	0.188524	-0.615710	-0.022523
O31	O	-0.522519	-1.115532	-0.311459
O32	O	-0.022519	-0.615532	0.188541
O33	O	-0.522491	-1.024587	-0.402402
O34	O	-0.022491	-0.524587	0.097598
C35	C	-0.356924	-0.877752	-0.356916
C36	C	0.143076	-0.377752	0.143084
C37	C	-0.356924	-0.795437	-0.356913
C38	C	0.143076	-0.295437	0.143087
C39	C	-0.549376	-1.070063	-0.356942
C40	C	-0.049376	-0.570063	0.143058
C41	C	-0.631690	-1.070088	-0.356957
C42	C	-0.131690	-0.570088	0.143043
C43	C	-0.356953	-0.496347	-0.356962
C44	C	0.143047	0.003653	0.143038
C45	C	-0.299442	-0.527670	-0.300021
C46	C	0.200558	-0.027670	0.199979
C47	C	-0.299601	-0.613288	-0.299782
C48	C	0.200399	-0.113288	0.200218
C49	C	-0.356938	-0.644729	-0.356938
C50	C	0.143062	-0.144729	0.143062
C51	C	-0.434945	-0.613611	-0.335614
C52	C	0.065055	-0.113611	0.164386
C53	C	-0.434620	-0.527966	-0.335214
C54	C	0.065380	-0.027966	0.164786
C55	C	-0.337139	-0.527961	-0.435362
C56	C	0.162861	-0.027961	0.064638
C57	C	-0.335407	-0.613612	-0.434938
C58	C	0.164593	-0.113612	0.065062
C59	C	-0.356935	-0.728589	-0.356926
C60	C	0.143065	-0.228589	0.143074
C61	C	-0.356962	-0.412487	-0.356973
C62	C	0.143038	0.087513	0.143027
C63	C	-0.930781	-1.070251	-0.356997
C64	C	-0.430781	-0.570251	0.143003
C65	C	-0.899469	-1.013163	-0.414358
C66	C	-0.399469	-0.513163	0.085642
C67	C	-0.813851	-1.012892	-0.414178
C68	C	-0.313851	-0.512892	0.085822
C69	C	-0.782398	-1.070170	-0.356978
C70	C	-0.282398	-0.570170	0.143022
C71	C	-0.813532	-1.049041	-0.278925
C72	C	-0.313532	-0.549041	0.221075
C73	C	-0.899178	-1.048673	-0.279269
C74	C	-0.399178	-0.548673	0.220731
C75	C	-0.899139	-1.148593	-0.377002
C76	C	-0.399139	-0.648593	0.122998
C77	C	-0.813488	-1.148132	-0.378713
C78	C	-0.313488	-0.648132	0.121287
C79	C	-0.698539	-1.070126	-0.356962
C80	C	-0.198539	-0.570126	0.143038
C81	C	-1.014640	-1.070293	-0.357007
C82	C	-0.514640	-0.570293	0.142993
C83	C	-0.163803	-1.070282	-0.357002
C84	C	0.336197	-0.570282	0.142998
C85	C	-0.081489	-1.070333	-0.357018
C86	C	0.418511	-0.570333	0.142982
C87	C	-0.356947	-1.070205	-0.550125
C88	C	0.143053	-0.570205	-0.050125
C89	C	-0.356939	-1.070223	-0.632440
C90	C	0.143061	-0.570223	-0.132440
C91	C	-0.356993	-0.263324	-0.357000
C92	C	0.143007	0.236676	0.143000
C93	C	-0.356967	-0.345638	-0.356987
C94	C	0.143033	0.154362	0.143013
C95	C	-0.356800	-1.070266	-0.931531
C96	C	0.143200	-0.570266	-0.431531
C97	C	-0.413838	-1.012801	-0.900180
C98	C	0.086162	-0.512801	-0.400180
C99	C	-0.414103	-1.012956	-0.814562
C100	C	0.085897	-0.512956	-0.314562
C101	C	-0.356869	-1.070244	-0.783148
C102	C	0.143131	-0.570244	-0.283148
C103	C	-0.378064	-1.148270	-0.814258
C104	C	0.121936	-0.648270	-0.314258
C105	C	-0.378438	-1.147949	-0.899903
C106	C	0.121562	-0.647949	-0.399903
C107	C	-0.278439	-1.050385	-0.899952
C108	C	0.221561	-0.550385	-0.399952
C109	C	-0.278892	-1.048649	-0.814301
C110	C	0.221108	-0.548649	-0.314301
C111	C	-0.356906	-1.070237	-0.699289
C112	C	0.143094	-0.570237	-0.199289
C113	C	-0.356764	-1.070279	-1.015390
C114	C	0.143236	-0.570279	-0.515390
C115	C	-0.356931	-1.070162	-0.164553
C116	C	0.143069	-0.570162	0.335447
C117	C	-0.356730	-1.070287	-0.082239
C118	C	0.143270	-0.570287	0.417761
H119	H	-0.241756	-0.634329	-0.313148
H120	H	0.258244	-0.134329	0.186852
H121	H	-0.400710	-0.954768	-0.920763
H122	H	0.099290	-0.454768	-0.420763
H123	H	-0.472186	-1.026082	-0.794081
H124	H	0.027814	-0.526082	-0.294081
H125	H	-0.921045	-0.955448	-0.401273
H126	H	-0.421045	-0.455448	0.098727
H127	H	-0.471567	-1.025796	-0.921708
H128	H	0.028433	-0.525796	-0.421708
C129	C	-0.457315	-0.500929	-0.257783
C130	C	0.042685	-0.000929	0.242217
N131	N	-0.474406	-0.480568	-0.199458
N132	N	0.025594	0.019432	0.300542
C133	C	-0.926242	-0.971306	-0.256382
C134	C	-0.426242	-0.471306	0.243618
N135	N	-0.946623	-0.913030	-0.239146
N136	N	-0.446623	-0.413030	0.260854
H137	H	-0.435721	-1.164804	-0.919889
H138	H	0.064279	-0.664804	-0.419889
H139	H	-0.241417	-0.507099	-0.313238
H140	H	0.258583	-0.007099	0.186762
C141	C	-0.387882	-0.642522	-0.495328
C142	C	0.112118	-0.142522	0.004672
N143	N	-0.427413	-0.664296	-0.540812
N144	N	0.072587	-0.164296	-0.040812
H145	H	-0.338698	-1.192217	-0.920644
H146	H	0.161302	-0.692217	-0.420644
H147	H	-0.478921	-0.507244	-0.374879
H148	H	0.021079	-0.007244	0.125121
H149	H	-0.259131	-0.994478	-0.921535
H150	H	0.240869	-0.494478	-0.421535
H151	H	-0.792137	-0.992380	-0.261677
H152	H	-0.292137	-0.492380	0.238323
H153	H	-0.312392	-0.506120	-0.242265
H154	H	0.187608	-0.006120	0.257735
H155	H	-0.792075	-1.192915	-0.339981
H156	H	-0.292075	-0.692915	0.160019
H157	H	-0.235943	-1.092240	-0.920229
H158	H	0.264057	-0.592240	-0.420229
C159	C	-0.393726	-0.500592	-0.492680
C160	C	0.106274	-0.000592	0.007320
N161	N	-0.436349	-0.479972	-0.535846
N162	N	0.063651	0.020028	-0.035846
H163	H	-0.312701	-0.633741	-0.241690
H164	H	0.187299	-0.133741	0.258310
C165	C	-0.257851	-0.641086	-0.456657
C166	C	0.242149	-0.141086	0.043343
N167	N	-0.199435	-0.661782	-0.473012
N168	N	0.300565	-0.161782	0.026988
C169	C	-0.454630	-1.171432	-0.785299
C170	C	0.045370	-0.671432	-0.285299
N171	N	-0.512303	-1.188874	-0.763490
N172	N	-0.012303	-0.688874	-0.263490
H173	H	-0.792799	-1.026111	-0.472053
H174	H	-0.292799	-0.526111	0.027947
H175	H	-0.919387	-1.191125	-0.335224
H176	H	-0.419387	-0.691125	0.164776
C177	C	-0.786005	-1.103441	-0.219610
C178	C	-0.286005	-0.603441	0.280390
N179	N	-0.765269	-1.144415	-0.174933
N180	N	-0.265269	-0.644415	0.325067
C181	C	-0.323708	-1.207669	-0.786769
C182	C	0.176292	-0.707669	-0.286769
N183	N	-0.282767	-1.252408	-0.766062
N184	N	0.217233	-0.752408	-0.266062
C185	C	-0.928262	-1.174615	-0.452586
C186	C	-0.428262	-0.674615	0.047414
N187	N	-0.950197	-1.194206	-0.509519
N188	N	-0.450197	-0.694206	-0.009519
H189	H	-0.262909	-0.991229	-0.793966
H190	H	0.237091	-0.491229	-0.293966
H191	H	-0.234138	-1.087450	-0.792917
H192	H	0.265862	-0.587450	-0.292917
C193	C	-0.494392	-0.641132	-0.389883
C194	C	0.005608	-0.141132	0.110117
N195	N	-0.539167	-0.661865	-0.430757
N196	N	-0.039167	-0.161865	0.069243
C197	C	-0.458044	-0.642533	-0.259020
C198	C	0.041956	-0.142533	0.240980
N199	N	-0.475438	-0.664315	-0.201327
N200	N	0.024562	-0.164315	0.298673
C201	C	-0.261625	-0.498826	-0.461548
C202	C	0.238375	0.001174	0.038452
N203	N	-0.204743	-0.476883	-0.481262
N204	N	0.295257	0.023117	0.018738
H205	H	-0.793417	-0.954823	-0.400927
H206	H	-0.293417	-0.454823	0.099073
C207	C	-0.927165	-1.102400	-0.219555
C208	C	-0.427165	-0.602400	0.280445
N209	N	-0.948241	-1.142862	-0.174575
N210	N	-0.448241	-0.642862	0.325425
C211	C	-0.927250	-1.030839	-0.492799
C212	C	-0.427250	-0.530839	0.007201
N213	N	-0.948182	-1.044152	-0.551882
N214	N	-0.448182	-0.544152	-0.051882
H215	H	-0.793138	-1.164065	-0.436156
H216	H	-0.293138	-0.664065	0.063844
C217	C	-0.396181	-0.934791	-0.786142
C218	C	0.103819	-0.434791	-0.286142
N219	N	-0.382685	-0.875913	-0.764739
N220	N	0.117315	-0.375913	-0.264739
