data_functionalizedCrystal
_audit_creation_method	'MofGen! by Chris Wilmer'
_symmetry_space_group_name_H-M	'P1'
_symmetry_Int_Tables_number	1
_symmetry_cell_setting	triclinic
loop_
_symmetry_equiv_pos_as_xyz
  x,y,z
_cell_length_a	8.559649
_cell_length_b	8.559649
_cell_length_c	7.088929
_cell_angle_alpha	84.655305
_cell_angle_beta	95.325015
_cell_angle_gamma	69.778664
loop_
_atom_site_label
_atom_site_type_symbol
_atom_site_fract_x
_atom_site_fract_y
_atom_site_fract_z
O1	O	2.108185	-0.036318	-0.158958
O2	O	2.608185	0.463682	0.341042
O3	O	1.632699	0.047464	-0.158966
O4	O	2.132699	0.547464	0.341034
O5	O	1.912333	-0.232170	-0.158956
O6	O	2.412333	0.267830	0.341044
O7	O	1.828551	0.243316	-0.158967
O8	O	2.328551	0.743316	0.341033
O9	O	1.949713	-0.269616	0.159020
O10	O	2.449713	0.230384	0.659020
O11	O	1.670079	0.010018	0.159011
O12	O	2.170079	0.510018	0.659011
O13	O	2.145565	-0.073764	0.159019
O14	O	2.645565	0.426236	0.659019
Cu15	Cu	1.911235	-0.035292	0.188049
Cu16	Cu	2.411235	0.464708	0.688049
Cu17	Cu	1.867029	0.008992	-0.187995
Cu18	Cu	2.367029	0.508992	0.312005
O19	O	1.865930	0.205870	0.159010
O20	O	2.365930	0.705870	0.659010
C21	C	1.937372	-0.311202	0.000029
C22	C	2.437372	0.188798	0.500029
C23	C	1.956270	-0.490900	0.000021
C24	C	2.456270	0.009100	0.500021
C25	C	1.591080	0.035090	0.000021
C26	C	2.091080	0.535090	0.500021
C27	C	1.411380	0.053990	0.000018
C28	C	1.911380	0.553990	0.500018
C29	C	2.187183	-0.061390	0.000028
C30	C	2.687183	0.438610	0.500028
C31	C	2.366882	-0.080288	0.000018
C32	C	2.866882	0.419712	0.500018
C33	C	1.840891	0.284902	0.000020
C34	C	2.340891	0.784902	0.500020
C35	C	1.821992	0.464602	0.000016
C36	C	2.321992	0.964602	0.500016
N37	N	1.942338	-0.066441	0.452538
N38	N	2.442338	0.433559	0.952538
N39	N	1.835940	0.040127	-0.452484
N40	N	2.335940	0.540127	0.047516
H41	H	2.085691	-0.590279	0.000030
H42	H	2.585691	-0.090279	0.500030
H43	H	1.725671	0.150563	0.465866
H44	H	2.225671	0.650563	0.965866
C45	C	2.091324	-0.215640	0.562851
C46	C	2.591324	0.284360	1.062851
N47	N	2.203537	-0.328017	0.645941
N48	N	2.703537	0.171983	1.145941
H49	H	1.692565	-0.436011	0.000028
H50	H	2.192565	0.063989	0.500028
H51	H	1.466259	-0.209707	0.000012
H52	H	1.966259	0.290293	0.500012
H53	H	1.311990	0.183419	0.000005
H54	H	1.811990	0.683419	0.500005
