data_functionalizedCrystal
_audit_creation_method	'MofGen! by Chris Wilmer'
_symmetry_space_group_name_H-M	'P1'
_symmetry_Int_Tables_number	1
_symmetry_cell_setting	triclinic
loop_
_symmetry_equiv_pos_as_xyz
  x,y,z
_cell_length_a	19.288865
_cell_length_b	19.288864
_cell_length_c	17.766277
_cell_angle_alpha	90.023209
_cell_angle_beta	90.011603
_cell_angle_gamma	83.136245
loop_
_atom_site_label
_atom_site_type_symbol
_atom_site_fract_x
_atom_site_fract_y
_atom_site_fract_z
O1	O	-0.086649	-0.921353	-0.062844
O2	O	0.413351	-0.421353	0.437156
O3	O	-0.098337	-0.719092	-0.062794
O4	O	0.401663	-0.219092	0.437206
O5	O	0.008637	-0.826067	-0.062806
O6	O	0.508637	-0.326067	0.437194
O7	O	-0.193623	-0.814378	-0.062832
O8	O	0.306377	-0.314378	0.437168
O9	O	0.008643	-0.826048	0.062383
O10	O	0.508643	-0.326048	0.562383
O11	O	-0.098332	-0.719074	0.062395
O12	O	0.401668	-0.219074	0.562395
O13	O	-0.086643	-0.921334	0.062344
O14	O	0.413357	-0.421334	0.562344
Cu15	Cu	-0.092487	-0.820202	0.073800
Cu16	Cu	0.407513	-0.320202	0.573800
Cu17	Cu	-0.092494	-0.820224	-0.074250
Cu18	Cu	0.407506	-0.320224	0.425750
O19	O	-0.193618	-0.814360	0.062356
O20	O	0.306382	-0.314360	0.562356
C21	C	-0.097959	-0.693207	-0.000193
C22	C	0.402041	-0.193207	0.499807
C23	C	-0.096830	-0.616103	-0.000173
C24	C	0.403170	-0.116103	0.499827
C25	C	0.034516	-0.825682	-0.000209
C26	C	0.534516	-0.325682	0.499791
C27	C	0.111620	-0.824553	-0.000202
C28	C	0.611620	-0.324553	0.499798
C29	C	-0.087022	-0.947220	-0.000258
C30	C	0.412978	-0.447220	0.499742
C31	C	-0.088151	-1.024324	-0.000283
C32	C	0.411849	-0.524324	0.499717
C33	C	-0.219497	-0.814745	-0.000242
C34	C	0.280503	-0.314745	0.499758
C35	C	-0.296601	-0.815874	-0.000254
C36	C	0.203399	-0.315874	0.499746
C37	C	0.156316	-0.887321	-0.000214
C38	C	0.656316	-0.387321	0.499786
C39	C	0.228763	-0.886260	-0.000226
C40	C	0.728763	-0.386260	0.499774
C41	C	0.256511	-0.822428	-0.000210
C42	C	0.756511	-0.322428	0.499790
C43	C	0.211805	-0.759652	-0.000203
C44	C	0.711805	-0.259652	0.499797
C45	C	0.139359	-0.760714	-0.000198
C46	C	0.639359	-0.260714	0.499802
C47	C	0.364800	-0.772242	0.043653
C48	C	0.864800	-0.272242	0.543653
C49	C	0.437245	-0.771182	0.043654
C50	C	0.937245	-0.271182	0.543654
C51	C	0.479956	-0.819148	-0.000226
C52	C	0.979956	-0.319148	0.499774
C53	C	0.450216	-0.868186	-0.044097
C54	C	0.950216	-0.368186	0.455903
C55	C	0.377771	-0.869249	-0.044093
C56	C	0.877771	-0.369249	0.455907
C57	C	0.335065	-0.821269	-0.000215
C58	C	0.835065	-0.321269	0.499785
C59	C	0.603209	-0.880770	-0.000252
C60	C	1.103209	-0.380770	0.499748
C61	C	0.675657	-0.879707	-0.000268
C62	C	1.175657	-0.379707	0.499732
C63	C	0.658697	-0.753097	-0.000238
C64	C	1.158697	-0.253097	0.499762
C65	C	0.586250	-0.754162	-0.000229
C66	C	1.086250	-0.254162	0.499771
C67	C	0.558511	-0.818001	-0.000232
C68	C	1.058511	-0.318001	0.499768
N69	N	-0.092482	-0.820192	0.177931
N70	N	0.407518	-0.320192	0.677931
C71	C	-0.159598	-0.571407	-0.000193
C72	C	0.340402	-0.071407	0.499807
C73	C	-0.158537	-0.498960	-0.000201
C74	C	0.341463	0.001040	0.499799
C75	C	-0.094705	-0.471212	-0.000205
C76	C	0.405295	0.028788	0.499795
C77	C	-0.031929	-0.515918	-0.000180
C78	C	0.468071	-0.015918	0.499820
C79	C	-0.032991	-0.588364	-0.000164
C80	C	0.467009	-0.088364	0.499836
C81	C	-0.044527	-0.362957	-0.044082
C82	C	0.455473	0.137043	0.455918
C83	C	-0.043468	-0.290512	-0.044103
C84	C	0.456532	0.209488	0.455897
C85	C	-0.091425	-0.247767	-0.000250
C86	C	0.408575	0.252233	0.499750
C87	C	-0.140454	-0.277473	0.043614
C88	C	0.359546	0.222527	0.543614
C89	C	-0.141517	-0.349918	0.043630
C90	C	0.358483	0.150082	0.543630
C91	C	-0.093546	-0.392658	-0.000221
C92	C	0.406454	0.107342	0.499779
C93	C	-0.153047	-0.124514	-0.000278
C94	C	0.346953	0.375486	0.499722
C95	C	-0.151984	-0.052066	-0.000281
C96	C	0.348016	0.447934	0.499719
C97	C	-0.025374	-0.069026	-0.000267
C98	C	0.474626	0.430974	0.499733
C99	C	-0.026439	-0.141473	-0.000256
C100	C	0.473561	0.358527	0.499744
C101	C	-0.090278	-0.169212	-0.000265
C102	C	0.409722	0.330788	0.499735
N103	N	-0.092493	-0.820241	-0.178380
N104	N	0.407507	-0.320241	0.321620
C105	C	-0.045137	-0.867575	0.217312
C106	C	0.454863	-0.367575	0.717312
C107	C	-0.045134	-0.867579	0.296114
C108	C	0.454866	-0.367579	0.796114
C109	C	-0.092488	-0.820206	0.335531
C110	C	0.407512	-0.320206	0.835531
C111	C	-0.139837	-0.772814	0.296140
C112	C	0.360163	-0.272814	0.796140
C113	C	-0.139834	-0.772807	0.217340
C114	C	0.360166	-0.272807	0.717340
C115	C	-0.155775	-0.810908	0.460362
C116	C	0.344225	-0.310908	0.960362
C117	C	-0.155779	-0.810920	0.539161
C118	C	0.344221	-0.310920	1.039161
C119	C	-0.092496	-0.820225	0.578577
C120	C	0.407504	-0.320225	1.078577
C121	C	-0.029207	-0.829533	0.539185
C122	C	0.470793	-0.329533	1.039185
C123	C	-0.029204	-0.829525	0.460385
C124	C	0.470796	-0.329525	0.960385
C125	C	-0.092496	-0.820209	0.420977
C126	C	0.407504	-0.320209	0.920977
C127	C	-0.045143	-0.867616	0.703405
C128	C	0.454857	-0.367616	1.203405
C129	C	-0.045139	-0.867615	0.782208
C130	C	0.454861	-0.367615	1.282208
C131	C	-0.139848	-0.772853	0.782233
C132	C	0.360152	-0.272853	1.282233
C133	C	-0.139846	-0.772850	0.703431
C134	C	0.360154	-0.272850	1.203431
C135	C	-0.092495	-0.820235	0.664022
C136	C	0.407505	-0.320235	1.164022
H137	H	0.133736	-0.939303	-0.000220
H138	H	0.633736	-0.439303	0.499780
Br139	Br	0.508173	-0.933289	-0.103652
Br140	Br	1.008173	-0.433289	0.396348
H141	H	-0.005473	-0.397755	-0.079797
H142	H	0.494527	0.102245	0.420203
Br143	Br	0.525587	-0.668972	-0.000212
Br144	Br	1.025587	-0.168972	0.499788
H145	H	-0.203099	-0.015674	-0.000293
H146	H	0.296901	0.484326	0.499707
H147	H	0.265162	-0.937375	-0.000238
H148	H	0.765162	-0.437375	0.499762
Br149	Br	0.078695	-0.675522	-0.000184
Br150	Br	0.578695	-0.175522	0.499816
H151	H	0.353560	-0.909176	-0.079815
H152	H	0.853560	-0.409176	0.420185
H153	H	0.461453	-0.731249	0.079371
H154	H	0.961453	-0.231249	0.579371
Br155	Br	-0.205547	-0.219470	0.103131
Br156	Br	0.294453	0.280530	0.603131
Br157	Br	0.058751	-0.202136	-0.000231
Br158	Br	0.558751	0.297864	0.499769
H159	H	0.330029	-0.733180	0.079389
H160	H	0.830029	-0.233180	0.579389
H161	H	0.020044	-0.493322	-0.000193
H162	H	0.520044	0.006678	0.499807
H163	H	0.234401	-0.707679	-0.000192
H164	H	0.734401	-0.207679	0.499808
Br165	Br	-0.246235	-0.609050	-0.000204
Br166	Br	0.253765	-0.109050	0.499796
Br167	Br	0.565558	-0.967406	-0.000249
Br168	Br	1.065558	-0.467406	0.499751
Br169	Br	0.061257	-0.031377	-0.000259
Br170	Br	0.561257	0.468623	0.499741
H171	H	0.022324	-0.837110	0.571277
H172	H	0.522324	-0.337110	1.071277
H173	H	-0.207311	-0.803318	0.428276
H174	H	0.292689	-0.303318	0.928276
H175	H	0.712049	-0.930822	-0.000282
H176	H	1.212049	-0.430822	0.499718
H177	H	0.022328	-0.837102	0.428315
H178	H	0.522328	-0.337102	0.928315
Br179	Br	-0.204106	-0.708543	0.649978
Br180	Br	0.295894	-0.208543	1.149978
H181	H	0.018124	-0.624756	-0.000148
H182	H	0.518124	-0.124756	0.499852
H183	H	-0.003548	-0.266331	-0.079822
H184	H	0.496452	0.233669	0.420178
Br185	Br	0.696346	-0.666466	-0.000224
Br186	Br	1.196346	-0.166466	0.499776
H187	H	-0.006579	-0.906158	0.185228
H188	H	0.493421	-0.406158	0.685228
H189	H	-0.178392	-0.734241	0.328237
H190	H	0.321608	-0.234241	0.828237
Br191	Br	-0.239683	-0.162165	-0.000284
Br192	Br	0.260317	0.337835	0.499716
H193	H	-0.209652	-0.462561	-0.000216
H194	H	0.290348	0.037439	0.499784
H195	H	-0.006578	-0.906166	0.328185
H196	H	0.493422	-0.406166	0.828185
Br197	Br	-0.208051	-0.390233	0.103158
Br198	Br	0.291949	0.109767	0.603158
H199	H	-0.006585	-0.906198	0.671317
H200	H	0.493415	-0.406198	1.171317
H201	H	-0.006581	-0.906198	0.814274
H202	H	0.493419	-0.406198	1.314274
H203	H	-0.178402	-0.734278	0.814325
H204	H	0.321598	-0.234278	1.314325
H205	H	-0.207313	-0.803345	0.571228
H206	H	0.292687	-0.303345	1.071228
H207	H	-0.178389	-0.734220	0.185274
H208	H	0.321611	-0.234220	0.685274
