data_functionalizedCrystal
_audit_creation_method	'MofGen! by Chris Wilmer'
_symmetry_space_group_name_H-M	'P1'
_symmetry_Int_Tables_number	1
_symmetry_cell_setting	triclinic
loop_
_symmetry_equiv_pos_as_xyz
  x,y,z
_cell_length_a	8.497366
_cell_length_b	18.215407
_cell_length_c	18.215405
_cell_angle_alpha	89.977671
_cell_angle_beta	90.055800
_cell_angle_gamma	89.967886
loop_
_atom_site_label
_atom_site_type_symbol
_atom_site_fract_x
_atom_site_fract_y
_atom_site_fract_z
Zn1	Zn	-0.891876	1.125179	0.292859
Zn2	Zn	-0.628052	1.125056	0.415984
Zn3	Zn	-0.628105	1.002080	0.292931
Zn4	Zn	-0.891787	1.002077	0.415883
O5	O	-0.759955	1.063598	0.354414
O6	O	-0.856894	1.228147	0.309204
O7	O	-0.407297	1.108692	0.399733
O8	O	-0.663154	1.018462	0.189937
O9	O	-0.663065	1.228056	0.399664
O10	O	-0.856945	1.108902	0.189884
O11	O	-0.407335	1.018342	0.309326
O12	O	-0.663068	0.899095	0.309228
O13	O	-1.112561	1.018458	0.399491
O14	O	-0.856793	0.899094	0.399560
O15	O	-1.112627	1.108900	0.309105
O16	O	-0.662978	1.108690	0.518955
O17	O	-0.856742	1.018338	0.518880
C18	C	-0.759927	0.872392	0.354391
C19	C	-0.759953	0.790593	0.354399
C20	C	-0.861040	0.602445	0.307394
C21	C	-0.861045	0.525586	0.307400
C22	C	-0.658898	0.525503	0.401455
C23	C	-0.658886	0.602360	0.401444
C24	C	-0.759966	0.640829	0.354415
C25	C	-0.759983	0.487113	0.354432
C26	C	-0.759988	0.403780	0.354439
C27	C	-0.759959	0.724168	0.354406
C28	C	-0.759879	1.063520	0.545620
C29	C	-0.759899	1.063554	0.627419
C30	C	-0.171436	1.063641	0.354347
C31	C	-0.350079	1.063543	0.354501
C32	C	-0.759984	1.255551	0.354437
C33	C	-0.759996	1.337350	0.354447
C34	C	-0.760066	1.063696	0.162461
C35	C	-0.760113	1.063738	0.080662
C36	C	-0.659192	1.110711	0.815627
C37	C	-0.659230	1.110744	0.892486
C38	C	-0.860831	1.016579	0.892448
C39	C	-0.860800	1.016551	0.815591
C40	C	-0.759971	1.063615	0.777183
C41	C	-0.760041	1.063677	0.930899
C42	C	-0.760083	1.063712	1.014232
C43	C	-0.759931	1.063581	0.693844
H44	H	-0.576571	0.633614	0.439735
H45	H	-0.577168	1.149095	0.923785
H46	H	-0.577093	1.149035	0.784357
H47	H	-0.943340	0.633764	0.269097
H48	H	-0.942920	0.978260	0.923730
H49	H	-0.576604	0.494172	0.439745
H50	H	-0.943347	0.494337	0.269110
F51	F	-0.968076	0.966426	0.774673
