data_functionalizedCrystal
_audit_creation_method	'MofGen! by Chris Wilmer'
_symmetry_space_group_name_H-M	'P1'
_symmetry_Int_Tables_number	1
_symmetry_cell_setting	triclinic
loop_
_symmetry_equiv_pos_as_xyz
  x,y,z
_cell_length_a	13.897441
_cell_length_b	11.169417
_cell_length_c	11.169416
_cell_angle_alpha	90.013967
_cell_angle_beta	90.023053
_cell_angle_gamma	90.018542
loop_
_atom_site_label
_atom_site_type_symbol
_atom_site_fract_x
_atom_site_fract_y
_atom_site_fract_z
Zn1	Zn	-0.545375	-1.834924	0.477741
Zn2	Zn	-0.212042	-1.501591	0.811074
Zn3	Zn	0.121291	-1.168258	1.144407
Zn4	Zn	-0.384098	-1.834808	0.678464
Zn5	Zn	-0.050765	-1.501475	1.011797
Zn6	Zn	0.282569	-1.168142	1.345131
Zn7	Zn	-0.384100	-1.634215	0.477796
Zn8	Zn	-0.050767	-1.300881	0.811130
Zn9	Zn	0.282567	-0.967548	1.144463
Zn10	Zn	-0.545357	-1.634208	0.678384
Zn11	Zn	-0.212023	-1.300875	1.011717
Zn12	Zn	0.121310	-0.967541	1.345050
O13	O	-0.464733	-1.734539	0.578096
O14	O	-0.131399	-1.401205	0.911429
O15	O	0.201934	-1.067872	1.244763
O16	O	-0.523989	-2.002859	0.504377
O17	O	-0.190655	-1.669525	0.837711
O18	O	0.142678	-1.336192	1.171044
O19	O	-0.249117	-1.808154	0.651902
O20	O	0.084217	-1.474820	0.985235
O21	O	0.417550	-1.141487	1.318568
O22	O	-0.405502	-1.660890	0.309839
O23	O	-0.072169	-1.327557	0.643173
O24	O	0.261165	-0.994224	0.976506
O25	O	-0.405499	-2.002773	0.651848
O26	O	-0.072165	-1.669440	0.985181
O27	O	0.261168	-1.336107	1.318514
O28	O	-0.523990	-1.808351	0.309798
O29	O	-0.190657	-1.475018	0.643132
O30	O	0.142676	-1.141684	0.976465
O31	O	-0.249118	-1.660778	0.504472
O32	O	0.084215	-1.327445	0.837806
O33	O	0.417549	-0.994111	1.171139
O34	O	-0.405484	-1.466264	0.504395
O35	O	-0.072151	-1.132931	0.837728
O36	O	0.261183	-0.799597	1.171061
O37	O	-0.680341	-1.660879	0.651711
O38	O	-0.347008	-1.327546	0.985044
O39	O	-0.013674	-0.994212	1.318378
O40	O	-0.523959	-1.466259	0.651765
O41	O	-0.190625	-1.132926	0.985098
O42	O	0.142708	-0.799592	1.318432
O43	O	-0.680355	-1.808344	0.504300
O44	O	-0.347021	-1.475011	0.837633
O45	O	-0.013688	-1.141678	1.170966
O46	O	-0.405481	-1.808147	0.846403
O47	O	-0.072147	-1.474814	1.179736
O48	O	0.261186	-1.141480	1.513070
O49	O	-0.523957	-1.660767	0.846344
O50	O	-0.190624	-1.327434	1.179677
O51	O	0.142710	-0.994100	1.513011
C52	C	-0.464738	-1.734476	0.889921
C53	C	-0.131404	-1.401143	1.223254
C54	C	0.201929	-1.067810	1.556588
C55	C	-0.464772	-1.734559	1.023321
C56	C	-0.131439	-1.401226	1.356654
C57	C	0.201895	-1.067893	1.689987
C58	C	-0.464720	-1.422714	0.578078
C59	C	-0.131387	-1.089381	0.911411
C60	C	0.201947	-0.756047	1.244745
C61	C	-0.464738	-1.289314	0.578099
C62	C	-0.131404	-0.955981	0.911432
C63	C	0.201929	-0.622647	1.244766
C64	C	-0.716326	-1.734624	0.577990
C65	C	-0.382992	-1.401291	0.911323
C66	C	-0.049659	-1.067957	1.244657
C67	C	-0.823540	-1.734660	0.577945
C68	C	-0.490206	-1.401327	0.911278
C69	C	-0.156873	-1.067994	1.244612
C70	C	-1.019835	-1.734693	0.577864
C71	C	-0.686502	-1.401359	0.911197
C72	C	-0.353168	-1.068026	1.244530
C73	C	-0.910602	-1.734671	0.577912
C74	C	-0.577269	-1.401338	0.911246
C75	C	-0.243936	-1.068004	1.244579
C76	C	-0.214118	-1.734523	0.578115
C77	C	0.119215	-1.401190	0.911449
C78	C	0.452548	-1.067856	1.244782
C79	C	-0.106905	-1.734719	0.577822
C80	C	0.226429	-1.401386	0.911156
C81	C	0.559762	-1.068053	1.244489
C82	C	-0.464746	-2.047581	0.578115
C83	C	-0.131412	-1.714248	0.911449
C84	C	0.201921	-1.380914	1.244782
C85	C	-0.464751	-2.180981	0.578123
C86	C	-0.131418	-1.847648	0.911457
C87	C	0.201916	-1.514314	1.244790
C88	C	-0.464759	-1.734622	1.265054
C89	C	-0.131425	-1.401289	1.598387
C90	C	0.201908	-1.067956	1.931720
C91	C	-0.464795	-1.734627	1.131654
C92	C	-0.131462	-1.401294	1.464987
C93	C	0.201871	-1.067960	1.798320
