data_functionalizedCrystal
_audit_creation_method	'MofGen! by Chris Wilmer'
_symmetry_space_group_name_H-M	'P1'
_symmetry_Int_Tables_number	1
_symmetry_cell_setting	triclinic
loop_
_symmetry_equiv_pos_as_xyz
  x,y,z
_cell_length_a	17.038272
_cell_length_b	10.723024
_cell_length_c	15.500258
_cell_angle_alpha	86.844919
_cell_angle_beta	87.022249
_cell_angle_gamma	87.789713
loop_
_atom_site_label
_atom_site_type_symbol
_atom_site_fract_x
_atom_site_fract_y
_atom_site_fract_z
O1	O	0.106451	1.661807	0.071939
O2	O	0.116953	1.299626	0.071942
O3	O	-0.002125	1.478565	0.071934
O4	O	0.225529	1.482869	0.071947
O5	O	0.004414	1.489610	-0.071954
O6	O	0.123492	1.310671	-0.071945
O7	O	0.112990	1.672852	-0.071948
Cu8	Cu	0.118838	1.492770	-0.085085
Cu9	Cu	0.111105	1.479708	0.085079
O10	O	0.232068	1.493914	-0.071940
C11	C	0.119458	1.258578	-0.000001
C12	C	0.117171	1.119813	-0.000000
C13	C	-0.028006	1.480172	-0.000010
C14	C	-0.114863	1.468489	-0.000009
C15	C	0.183801	1.050993	0.000004
C16	C	0.181439	0.907571	0.000005
C17	C	-0.164384	1.575745	-0.000011
C18	C	-0.245996	1.564760	-0.000003
C19	C	-0.278084	1.446520	0.000001
C20	C	-0.228557	1.339256	0.000005
C21	C	-0.146947	1.350241	0.000003
C22	C	-0.524057	1.407710	0.000013
C23	C	-0.605674	1.396733	0.000013
C24	C	-0.623107	1.622239	0.000006
C25	C	-0.541495	1.633214	-0.000001
C26	C	-0.491974	1.525950	0.000008
C27	C	-0.361504	1.435289	0.000007
C28	C	-0.408556	1.537181	0.000008
C29	C	0.257948	1.492307	0.000006
C30	C	0.344805	1.503988	0.000011
C31	C	0.110484	1.713900	-0.000003
C32	C	0.112771	1.852665	0.000002
N33	N	0.124276	1.501966	-0.204769
C34	C	0.151482	1.547801	-0.749952
C35	C	0.147363	1.540853	-0.659380
C36	C	0.097418	1.456630	-0.614095
C37	C	0.051594	1.379342	-0.659387
C38	C	0.055718	1.386285	-0.749957
C39	C	0.082576	1.431621	-0.340631
C40	C	0.078455	1.424686	-0.250054
C41	C	0.174225	1.586197	-0.250054
C42	C	0.178340	1.593137	-0.340626
C43	C	0.132520	1.515845	-0.385910
C44	C	0.093205	1.449528	-0.521516
C45	C	0.136738	1.522941	-0.478487
N46	N	0.105660	1.470522	0.204763
H47	H	0.242594	1.098254	0.000003
N48	N	-0.261318	1.218466	-0.000007
N49	N	-0.217091	1.122712	-0.000012
H50	H	-0.240225	1.037400	-0.000026
N51	N	0.253007	0.833387	0.000017
N52	N	0.298167	0.838301	0.060671
H53	H	0.348715	0.785907	0.060680
H54	H	0.219010	1.661722	-0.377491
N55	N	-0.673679	1.731812	-0.000004
N56	N	-0.667646	1.813189	-0.060657
H57	H	-0.703362	1.890582	-0.060663
N58	N	0.221020	1.665137	-0.203784
N59	N	0.217334	1.658933	-0.122918
H60	H	0.250386	1.714685	-0.090239
N61	N	0.202498	1.633851	-0.796192
N62	N	0.243407	1.702843	-0.755744
H63	H	0.279440	1.763617	-0.788398
H64	H	0.184675	1.603784	-0.622513
H65	H	0.058378	1.072550	0.000018
N66	N	-0.638448	1.275940	0.000038
N67	N	-0.684795	1.240003	0.060692
H68	H	-0.707941	1.154697	0.060709
H69	H	0.018406	1.323353	-0.786827
H70	H	0.055727	0.911814	0.000003
N71	N	0.027395	1.338694	-0.203808
N72	N	-0.013534	1.269724	-0.244249
H73	H	-0.049606	1.209015	-0.211588
N74	N	-0.096372	1.240668	0.000016
N75	N	-0.125030	1.135102	0.000025
H76	H	-0.089312	1.057711	0.000040
N77	N	-0.131623	1.696538	-0.000027
N78	N	-0.175851	1.792291	-0.000029
H79	H	-0.152717	1.877605	-0.000040
N80	N	0.035767	1.352664	-0.386866
N81	N	-0.008825	1.277476	-0.346419
H82	H	-0.041887	1.221709	-0.379075
H83	H	-0.286313	1.652100	-0.000006
N84	N	0.042180	1.363538	-0.475229
N85	N	-0.011546	1.402978	-0.424695
H86	H	-0.047583	1.342253	-0.391996
N87	N	0.000587	1.293306	-0.613119
N88	N	-0.003089	1.287117	-0.532253
H89	H	-0.039115	1.226354	-0.499576
H90	H	0.177406	1.591509	-0.515362
N91	N	-0.508732	1.754005	-0.000006
N92	N	-0.552958	1.849762	-0.000006
H93	H	-0.529820	1.935073	-0.000012
H94	H	-0.483747	1.320367	0.000020
H95	H	-0.382427	1.633451	0.000024
H96	H	-0.387640	1.339016	0.000008
