data_functionalizedCrystal
_audit_creation_method	'MofGen! by Chris Wilmer'
_symmetry_space_group_name_H-M	'P1'
_symmetry_Int_Tables_number	1
_symmetry_cell_setting	triclinic
loop_
_symmetry_equiv_pos_as_xyz
  x,y,z
_cell_length_a	14.519731
_cell_length_b	9.065218
_cell_length_c	12.996460
_cell_angle_alpha	89.987569
_cell_angle_beta	89.993340
_cell_angle_gamma	95.647598
loop_
_atom_site_label
_atom_site_type_symbol
_atom_site_fract_x
_atom_site_fract_y
_atom_site_fract_z
O1	O	1.225257	-0.193547	0.085587
O2	O	1.725257	0.306453	0.585587
O3	O	0.956950	-0.216289	0.085590
O4	O	1.456950	0.283711	0.585590
O5	O	1.096649	0.009828	0.085562
O6	O	1.596649	0.509828	0.585562
O7	O	1.085558	-0.419664	0.085615
O8	O	1.585558	0.080336	0.585615
O9	O	1.096667	0.009841	-0.085572
O10	O	1.596667	0.509841	0.414428
O11	O	0.956968	-0.216276	-0.085543
O12	O	1.456968	0.283724	0.414457
O13	O	1.225276	-0.193534	-0.085547
O14	O	1.725276	0.306466	0.414453
Cu15	Cu	1.091123	-0.204904	-0.101171
Cu16	Cu	1.591123	0.295096	0.398829
Cu17	Cu	1.091102	-0.204919	0.101214
Cu18	Cu	1.591102	0.295081	0.601214
O19	O	1.085576	-0.419651	-0.085519
O20	O	1.585576	0.080349	0.414481
C21	C	0.922591	-0.215217	0.000023
C22	C	1.422591	0.284783	0.500023
C23	C	0.820188	-0.212024	0.000024
C24	C	1.320188	0.287976	0.500024
C25	C	0.737025	-0.209429	0.000027
C26	C	1.237025	0.290571	0.500027
C27	C	0.632692	-0.206187	0.000027
C28	C	1.132692	0.293813	0.500027
C29	C	0.549534	-0.203614	0.000027
C30	C	1.049534	0.296386	0.500027
C31	C	0.445195	-0.200372	0.000029
C32	C	0.945195	0.299628	0.500029
C33	C	1.095592	0.064801	-0.000009
C34	C	1.595592	0.564801	0.499991
C35	C	1.092405	0.228584	-0.000023
C36	C	1.592405	0.728584	0.499977
C37	C	1.259634	-0.194606	0.000022
C38	C	1.759634	0.305394	0.500022
C39	C	1.362037	-0.197799	0.000029
C40	C	1.862037	0.302201	0.500029
N41	N	1.091145	-0.204892	-0.243518
N42	N	1.591145	0.295108	0.256482
C43	C	1.086633	0.525376	0.000026
C44	C	1.586633	1.025376	0.500026
C45	C	1.089820	0.361592	-0.000038
C46	C	1.589820	0.861592	0.499962
N47	N	1.091087	-0.204919	0.243561
N48	N	1.591087	0.295081	0.743561
C49	C	1.091090	-0.204921	0.336667
C50	C	1.591090	0.295079	0.836667
C51	C	1.091103	-0.204918	0.453473
C52	C	1.591103	0.295082	0.953473
C53	C	1.091118	-0.204908	0.546571
C54	C	1.591118	0.295092	1.046571
C55	C	1.091130	-0.204902	0.663383
C56	C	1.591130	0.295098	1.163383
