data_functionalizedCrystal
_audit_creation_method	'MofGen! by Chris Wilmer'
_symmetry_space_group_name_H-M	'P1'
_symmetry_Int_Tables_number	1
_symmetry_cell_setting	triclinic
loop_
_symmetry_equiv_pos_as_xyz
  x,y,z
_cell_length_a	14.971487
_cell_length_b	7.088929
_cell_length_c	14.971486
_cell_angle_alpha	96.231414
_cell_angle_beta	96.385734
_cell_angle_gamma	96.217351
loop_
_atom_site_label
_atom_site_type_symbol
_atom_site_fract_x
_atom_site_fract_y
_atom_site_fract_z
O1	O	-1.177788	0.158718	0.125735
O2	O	-0.917384	0.158782	0.139697
O3	O	-1.054566	0.158734	0.002515
O4	O	-1.040605	0.158765	0.262917
O5	O	-1.072899	-0.159247	-0.015860
O6	O	-0.935717	-0.159200	0.121322
O7	O	-1.196121	-0.159264	0.107360
Cu8	Cu	-1.067593	-0.188266	0.112664
Cu9	Cu	-1.045912	0.187784	0.134394
O10	O	-1.058938	-0.159216	0.244542
C11	C	-0.893225	-0.000201	0.129886
C12	C	-0.793927	-0.000177	0.128016
N13	N	-1.082848	-0.452759	0.097379
C14	C	-0.736701	-0.000168	0.208606
C15	C	-0.643403	-0.000192	0.206841
C16	C	-0.607332	-0.000212	0.124486
C17	C	-0.664565	-0.000227	0.043890
C18	C	-0.757862	-0.000216	0.045655
C19	C	-0.470104	-0.000245	0.040218
C20	C	-0.376800	-0.000252	0.038453
C21	C	-0.355645	-0.000221	0.201404
C22	C	-0.448942	-0.000210	0.203168
C23	C	-0.506168	-0.000221	0.122572
C24	C	-0.220278	-0.000265	0.117172
C25	C	-0.319574	-0.000243	0.119042
C26	C	-1.063108	-0.000256	-0.039997
C27	C	-1.061237	-0.000253	-0.139294
N28	N	-1.030663	0.452277	0.149671
C29	C	-1.141828	-0.000275	-0.196520
C30	C	-1.140064	-0.000255	-0.289819
C31	C	-1.057709	-0.000228	-0.325890
C32	C	-0.977112	-0.000201	-0.268656
C33	C	-0.978876	-0.000207	-0.175358
C34	C	-0.973440	-0.000193	-0.463118
C35	C	-0.971676	-0.000191	-0.556422
C36	C	-1.134628	-0.000241	-0.577578
C37	C	-1.136392	-0.000247	-0.484281
C38	C	-1.055795	-0.000224	-0.427053
C39	C	-1.050396	-0.000222	0.287054
C40	C	-1.052266	-0.000212	0.386352
H41	H	-0.596813	-0.000182	0.272465
H42	H	-1.203453	-0.000283	-0.454916
O43	O	-0.771615	0.000109	0.288677
C44	C	-0.732886	0.164821	0.347318
H45	H	-0.664987	0.219714	0.326040
H46	H	-0.722150	0.127791	0.419651
H47	H	-0.780204	0.280146	0.343684
O48	O	-1.212832	-0.000157	-0.633285
C49	C	-1.193622	-0.000177	-0.723369
H50	H	-1.119890	0.060043	-0.723537
H51	H	-1.239662	0.092140	-0.760241
H52	H	-1.205780	-0.152723	-0.759173
H53	H	-0.913251	-0.000189	-0.128765
O54	O	-1.221758	-0.000045	-0.161364
C55	C	-1.218166	0.164661	-0.098525
H56	H	-1.144526	0.219578	-0.072186
H57	H	-1.256025	0.127612	-0.039538
H58	H	-1.251042	0.279974	-0.133035
O59	O	-0.891720	0.000105	-0.591557
C60	C	-0.876337	0.164817	-0.635355
H61	H	-0.943652	0.219685	-0.655335
H62	H	-0.842757	0.127796	-0.698631
H63	H	-0.830162	0.280157	-0.587516
O64	O	-0.966230	-0.450397	0.214435
C65	C	-0.983766	-0.499198	0.300171
H66	H	-1.058546	-0.554341	0.297465
H67	H	-0.966039	-0.367465	0.352607
H68	H	-0.940895	-0.615244	0.319771
H69	H	-1.136942	-0.534434	0.043193
O70	O	-1.218438	-0.000374	-0.345286
C71	C	-1.291502	-0.000368	-0.293441
H72	H	-1.272340	-0.060563	-0.227314
H73	H	-1.353294	-0.092712	-0.333135
H74	H	-1.307954	0.152171	-0.277951
O75	O	-0.483839	-0.000271	0.283239
C76	C	-0.413323	-0.000219	0.354000
H77	H	-0.353392	-0.060431	0.325385
H78	H	-0.438214	-0.092525	0.406156
H79	H	-0.391343	0.152336	0.387679
H80	H	-0.907809	-0.000169	-0.416525
H81	H	-0.910056	-0.000167	-0.298031
H82	H	-0.635190	-0.000271	-0.023166
O83	O	-0.813398	0.000123	-0.032633
C84	C	-0.787518	0.164775	-0.073125
H85	H	-0.749034	0.279886	-0.019289
H86	H	-0.850483	0.220054	-0.105726
H87	H	-0.742111	0.127530	-0.127104
O88	O	-0.341912	-0.000361	-0.041628
C89	C	-0.412424	-0.000333	-0.112384
H90	H	-0.479304	-0.060530	-0.090724
H91	H	-0.398189	-0.092666	-0.175206
H92	H	-0.416796	0.152212	-0.128438
O93	O	-0.525773	0.000004	-0.037998
C94	C	-0.570846	0.164721	-0.032339
H95	H	-0.572463	0.219630	0.041837
H96	H	-0.643070	0.127692	-0.067719
H97	H	-0.533453	0.280034	-0.066560
H98	H	-0.309046	-0.000220	0.267027
