data_functionalizedCrystal
_audit_creation_method	'MofGen! by Chris Wilmer'
_symmetry_space_group_name_H-M	'P1'
_symmetry_Int_Tables_number	1
_symmetry_cell_setting	triclinic
loop_
_symmetry_equiv_pos_as_xyz
  x,y,z
_cell_length_a	17.077404
_cell_length_b	19.805405
_cell_length_c	17.077396
_cell_angle_alpha	90.028963
_cell_angle_beta	90.019501
_cell_angle_gamma	90.026951
loop_
_atom_site_label
_atom_site_type_symbol
_atom_site_fract_x
_atom_site_fract_y
_atom_site_fract_z
Zn1	Zn	1.200034	-0.269459	0.443840
Zn2	Zn	1.199932	-0.382652	0.312573
Zn3	Zn	1.068765	-0.269483	0.312588
Zn4	Zn	1.068725	-0.382612	0.443797
O5	O	1.134364	-0.326052	0.378199
O6	O	1.309867	-0.284481	0.426439
O7	O	1.182507	-0.367667	0.202728
O8	O	1.086238	-0.174763	0.330023
O9	O	1.309792	-0.367644	0.329998
O10	O	1.182680	-0.174746	0.426454
O11	O	1.086140	-0.284522	0.202739
O12	O	0.958913	-0.284483	0.329981
O13	O	1.086169	-0.367575	0.553649
O14	O	0.958883	-0.367598	0.426380
O15	O	1.182641	-0.284442	0.553681
O16	O	1.182467	-0.477363	0.329956
O17	O	1.086070	-0.477334	0.426365
C18	C	0.930416	-0.326039	0.378178
C19	C	0.843166	-0.326050	0.378187
C20	C	0.802181	-0.369394	0.428301
C21	C	0.720201	-0.369395	0.428314
C22	C	0.679207	-0.326056	0.378208
C23	C	0.720198	-0.282708	0.328091
C24	C	0.802177	-0.282703	0.328083
C25	C	0.549328	-0.282721	0.328110
C26	C	0.467343	-0.282726	0.328117
C27	C	0.467352	-0.369413	0.428341
C28	C	0.549331	-0.369409	0.428333
C29	C	0.590316	-0.326061	0.378215
C30	C	1.134275	-0.501908	0.378171
C31	C	1.134308	-0.577140	0.378185
C32	C	1.184496	-0.612416	0.428436
C33	C	1.184524	-0.683105	0.428450
C34	C	1.134368	-0.718515	0.378210
C35	C	1.084175	-0.683233	0.327957
C36	C	1.084143	-0.612546	0.327947
C37	C	1.084301	-0.968307	0.327997
C38	C	1.084338	-1.038999	0.328009
C39	C	1.184682	-1.038865	0.428501
C40	C	1.184650	-0.968178	0.428491
C41	C	1.134454	-0.932902	0.378241
C42	C	1.134423	-0.856254	0.378227
C43	C	1.134403	-0.795162	0.378219
C44	C	1.339108	-0.326064	0.378222
C45	C	1.426358	-0.326070	0.378231
C46	C	1.134411	-0.326002	0.582944
C47	C	1.134432	-0.325980	0.670194
C48	C	1.134475	-0.149509	0.378245
C49	C	1.134523	-0.074277	0.378265
C50	C	1.134362	-0.326052	0.174252
C51	C	1.134494	-0.325883	0.087002
C52	C	1.184667	-0.282689	0.711202
C53	C	1.184676	-0.282667	0.793182
C54	C	1.134454	-0.325939	0.834153
C55	C	1.084214	-0.369232	0.793139
C56	C	1.084201	-0.369251	0.711160
C57	C	1.084245	-0.369191	0.964009
C58	C	1.084259	-0.369174	1.045994
C59	C	1.184720	-0.282608	1.046031
C60	C	1.184708	-0.282626	0.964052
C61	C	1.134468	-0.325920	0.923044
H62	H	0.433977	-0.404706	0.469150
H63	H	0.582696	-0.247417	0.287306
O64	O	1.035577	-0.411268	1.085835
C65	C	1.080237	-0.454969	1.133271
H66	H	1.142051	-0.459180	1.108571
H67	H	1.082977	-0.434018	1.195403
C68	C	0.965898	-0.520148	1.164860
C69	C	1.041817	-0.525324	1.134519
H70	H	0.942198	-0.563546	1.165634
H71	H	0.935809	-0.490705	1.132904
H72	H	0.968192	-0.502686	1.216634
H73	H	1.039522	-0.542777	1.082744
H74	H	1.071905	-0.554772	1.166467
H75	H	0.433968	-0.247428	0.287326
O76	O	0.680416	-0.240509	0.279502
C77	C	0.700503	-0.173069	0.296783
H78	H	0.723065	-0.169720	0.359499
H79	H	0.748081	-0.155328	0.254732
C80	C	0.599988	-0.132003	0.210716
C81	C	0.627692	-0.127889	0.287747
H82	H	0.555076	-0.104132	0.205139
H83	H	0.586456	-0.177438	0.199070
H84	H	0.639643	-0.117220	0.175683
H85	H	0.588040	-0.142679	0.322778
H86	H	0.641215	-0.082454	0.299398
H87	H	0.835546	-0.247405	0.287279
H88	H	0.582705	-0.404703	0.469129
O89	O	1.233241	-0.578126	0.477316
C90	C	1.277555	-0.624424	0.521660
H91	H	1.245424	-0.674835	0.524351
H92	H	1.337195	-0.631913	0.492974
C93	C	1.328266	-0.534871	0.601908
C94	C	1.288799	-0.596784	0.605218
H95	H	1.335206	-0.517821	0.653450
H96	H	1.298414	-0.503678	0.572031
H97	H	1.377962	-0.541119	0.578000
H98	H	1.239101	-0.590534	0.629117
H99	H	1.318644	-0.627976	0.635101
O100	O	1.233172	-0.717398	0.477345
C101	C	1.188483	-0.758304	0.528008
H102	H	1.126644	-0.737050	0.532803
H103	H	1.185821	-0.811894	0.503750
C104	C	1.302749	-0.785409	0.603752
C105	C	1.226799	-0.759302	0.609647
H106	H	1.326385	-0.786028	0.654110
H107	H	1.332858	-0.757852	0.569618
H108	H	1.300520	-0.830065	0.583535
H109	H	1.229030	-0.714644	0.629855
H110	H	1.196692	-0.786851	0.643786
O111	O	1.233323	-1.073166	0.477405
C112	C	1.188620	-1.114070	0.528058
H113	H	1.126784	-1.092808	0.532847
H114	H	1.185951	-1.167658	0.503795
C115	C	1.302871	-1.141197	0.603814
C116	C	1.226925	-1.115079	0.609701
H117	H	1.326501	-1.141823	0.654175
H118	H	1.332989	-1.113641	0.569687
H119	H	1.300636	-1.185851	0.583592
H120	H	1.229162	-1.070423	0.629914
H121	H	1.196808	-1.142627	0.643834
O122	O	1.233440	-0.240564	1.085983
C123	C	1.222692	-0.249830	1.167126
H124	H	1.162102	-0.271996	1.178303
H125	H	1.269236	-0.285865	1.190397
C126	C	1.304339	-0.154107	1.195498
C127	C	1.229919	-0.181326	1.209226
H128	H	1.308800	-0.111852	1.221469
H129	H	1.311583	-0.147866	1.140831
H130	H	1.343118	-0.184143	1.214891
H131	H	1.191143	-0.151295	1.189825
H132	H	1.222669	-0.187561	1.263891
O133	O	1.035539	-0.411350	0.924201
C134	C	1.052659	-0.478801	0.944236
H135	H	1.115366	-0.482203	0.966796
H136	H	1.010565	-0.496490	0.991799
C137	C	0.966495	-0.519813	0.843686
C138	C	1.043516	-0.523992	0.871388
H139	H	0.960852	-0.547690	0.798752
H140	H	0.954959	-0.474370	0.830190
H141	H	0.931426	-0.534552	0.883329
H142	H	1.078583	-0.509245	0.831749
H143	H	1.055058	-0.569434	0.884876
O144	O	1.035535	-1.073293	0.279182
C145	C	0.991236	-1.027001	0.234815
H146	H	0.988475	-0.976596	0.266956
H147	H	1.020005	-1.019494	0.175220
C148	C	0.911102	-1.116571	0.183963
C149	C	0.907706	-1.054665	0.223442
H150	H	0.859578	-1.133636	0.176944
H151	H	0.940949	-1.147759	0.213851
H152	H	0.935081	-1.110307	0.134305
H153	H	0.883738	-1.060931	0.273103
H154	H	0.877853	-1.023478	0.193562
H155	H	1.225584	-0.247417	0.826567
H156	H	1.043334	-0.712070	0.287053
O157	O	1.035463	-0.934018	0.279292
C158	C	0.984724	-0.893132	0.323923
H159	H	0.979850	-0.914400	0.385748
H160	H	1.008961	-0.839538	0.326636
C161	C	0.909132	-0.866018	0.209560
C162	C	0.903139	-0.892143	0.285493
H163	H	0.858807	-0.865405	0.185853
H164	H	0.943317	-0.893562	0.179490
H165	H	0.929332	-0.821358	0.211831
H166	H	0.882949	-0.936805	0.283219
H167	H	0.868949	-0.864607	0.315561
O168	O	1.233519	-0.240530	0.924373
C169	C	1.277877	-0.202325	0.978145
H170	H	1.245740	-0.199962	1.036579
H171	H	1.337480	-0.227113	0.986865
C172	C	1.328703	-0.133199	0.874397
C173	C	1.289228	-0.130292	0.946165
H174	H	1.335708	-0.088767	0.854670
H175	H	1.298821	-0.158940	0.838169
H176	H	1.378368	-0.153859	0.881674
H177	H	1.239560	-0.109641	0.938885
H178	H	1.319103	-0.104546	0.982391
O179	O	1.035388	-0.411376	0.671444
C180	C	0.991054	-0.449558	0.725183
H181	H	1.023210	-0.451883	0.783628
H182	H	0.931448	-0.424775	0.733891
C183	C	0.940211	-0.518750	0.621387
C184	C	0.979709	-0.521610	0.693168
H185	H	0.933210	-0.563195	0.601638
H186	H	0.970077	-0.493025	0.585181
H187	H	0.890544	-0.498095	0.628654
H188	H	1.029379	-0.542258	0.685899
H189	H	0.949851	-0.547341	0.729372
H190	H	0.835552	-0.404688	0.469101
H191	H	0.686834	-0.404691	0.469121
H192	H	1.043274	-0.583824	0.287029
H193	H	1.225495	-0.939349	0.469398
H194	H	1.225566	-0.247454	0.677849
H195	H	1.043319	-0.404463	0.826504
