data_functionalizedCrystal
_audit_creation_method	'MofGen! by Chris Wilmer'
_symmetry_space_group_name_H-M	'P1'
_symmetry_Int_Tables_number	1
_symmetry_cell_setting	triclinic
loop_
_symmetry_equiv_pos_as_xyz
  x,y,z
_cell_length_a	16.974885
_cell_length_b	10.540539
_cell_length_c	16.053833
_cell_angle_alpha	92.858123
_cell_angle_beta	96.535644
_cell_angle_gamma	83.957898
loop_
_atom_site_label
_atom_site_type_symbol
_atom_site_fract_x
_atom_site_fract_y
_atom_site_fract_z
O1	O	1.050111	0.161837	0.001463
O2	O	0.819349	0.181384	-0.014116
O3	O	0.939995	-0.013157	-0.005970
O4	O	0.929465	0.356379	-0.006683
O5	O	0.946015	-0.003599	0.133294
O6	O	0.825369	0.190942	0.125148
O7	O	1.056131	0.171395	0.140727
Zn8	Zn	0.941706	0.182686	0.155049
Zn9	Zn	0.933774	0.170093	-0.028438
O10	O	0.935485	0.365936	0.132581
C11	C	0.792810	0.185244	0.053521
C12	C	0.704764	0.182488	0.047577
C13	C	0.208806	0.166375	0.005912
C14	C	0.291535	0.168964	0.011508
C15	C	0.336172	0.175479	0.090220
C16	C	0.298077	0.179390	0.163340
C17	C	0.215350	0.176792	0.157743
C18	C	0.583942	0.183801	0.115100
C19	C	0.666674	0.186404	0.120692
C20	C	0.660126	0.175975	-0.031141
C21	C	0.577397	0.173385	-0.036731
C22	C	0.539310	0.177290	0.036389
N23	N	0.420735	0.178130	0.095942
N24	N	0.454750	0.174630	0.030666
C25	C	0.942215	-0.055672	0.063607
C26	C	0.939853	-0.196593	0.063443
C27	C	0.849313	-0.378986	0.057019
C28	C	0.851722	-0.232374	0.057494
C29	C	0.985703	-0.253287	0.145833
C30	C	0.982698	-0.399792	0.145697
C31	C	0.977644	-0.411200	-0.012552
C32	C	0.978411	-0.264300	-0.013548
C33	C	1.082670	0.167535	0.073088
C34	C	1.170716	0.170290	0.079026
C35	C	0.933265	0.408451	0.063002
C36	C	0.935627	0.549372	0.063160
N37	N	0.947125	0.191279	0.280274
N38	N	0.928362	0.161490	-0.153663
C39	C	0.974994	0.235651	0.805785
C40	C	0.971207	0.229631	0.718123
C41	C	0.920792	0.149441	0.671015
C42	C	0.874154	0.075277	0.711573
C43	C	0.877937	0.081305	0.799233
C44	C	0.904270	0.123143	0.408492
C45	C	0.900493	0.117118	0.320827
C46	C	0.997545	0.271474	0.327382
C47	C	1.001327	0.277489	0.415044
C48	C	0.954686	0.203330	0.455594
N49	N	0.916922	0.143282	0.581411
N50	N	0.958553	0.209497	0.545197
H51	H	0.541059	0.168079	-0.100827
H52	H	0.953923	-0.423546	0.203029
H53	H	0.691146	0.172794	-0.090671
H54	H	0.552943	0.186963	0.174640
H55	H	1.009181	0.290019	0.685109
H56	H	0.820584	-0.186307	0.112328
H57	H	1.035516	0.331852	0.294356
H58	H	1.042382	0.342786	0.453393
H59	H	0.812034	-0.411094	-0.002361
H60	H	0.866295	0.062753	0.441498
H61	H	0.833101	0.009990	0.673211
H62	H	0.859434	0.051819	0.282473
H63	H	0.703016	0.191717	0.184792
H64	H	1.042457	-0.241157	-0.014013
H65	H	0.839962	0.020918	0.832250
H66	H	0.322544	0.165768	-0.048030
H67	H	1.046236	-0.448252	0.153584
H68	H	0.334429	0.184686	0.227430
H69	H	0.958799	-0.206283	0.203025
H70	H	0.184338	0.179993	0.217281
H71	H	0.815885	-0.193294	-0.001767
H72	H	0.172467	0.161079	-0.058184
H73	H	0.817093	-0.404897	0.111389
H74	H	0.944835	-0.227117	-0.074475
H75	H	0.946515	-0.446557	-0.074754
H76	H	1.050551	-0.231485	0.153159
H77	H	1.016051	0.300946	0.844134
H78	H	1.041278	-0.459205	-0.008789
