data_functionalizedCrystal
_audit_creation_method	'MofGen! by Chris Wilmer'
_symmetry_space_group_name_H-M	'P1'
_symmetry_Int_Tables_number	1
_symmetry_cell_setting	triclinic
loop_
_symmetry_equiv_pos_as_xyz
  x,y,z
_cell_length_a	17.077404
_cell_length_b	16.625546
_cell_length_c	16.625539
_cell_angle_alpha	89.969603
_cell_angle_beta	89.979509
_cell_angle_gamma	90.022693
loop_
_atom_site_label
_atom_site_type_symbol
_atom_site_fract_x
_atom_site_fract_y
_atom_site_fract_z
Zn1	Zn	1.200065	-0.320995	-0.455896
Zn2	Zn	1.199970	-0.455838	-0.321058
Zn3	Zn	1.068794	-0.321024	-0.321077
Zn4	Zn	1.068765	-0.455790	-0.455848
O5	O	1.134399	-0.388412	-0.388470
O6	O	1.309899	-0.338891	-0.438022
O7	O	1.182542	-0.437987	-0.208228
O8	O	1.086259	-0.208188	-0.338988
O9	O	1.309830	-0.437959	-0.338957
O10	O	1.182703	-0.208167	-0.438040
O11	O	1.086168	-0.338940	-0.208242
O12	O	0.958943	-0.338893	-0.338942
O13	O	1.086210	-0.437877	-0.568687
O14	O	0.958922	-0.437905	-0.437958
O15	O	1.182675	-0.338844	-0.568722
O16	O	1.182514	-0.568664	-0.338911
O17	O	1.086118	-0.568629	-0.437940
C18	C	0.930451	-0.388397	-0.388448
C19	C	0.843201	-0.388411	-0.388457
C20	C	1.134324	-0.597903	-0.388436
C21	C	1.134364	-0.687524	-0.388449
C22	C	0.802220	-0.440044	-0.439932
C23	C	0.720240	-0.440046	-0.439945
C24	C	0.679242	-0.388418	-0.388478
C25	C	0.720228	-0.336778	-0.337001
C26	C	0.802207	-0.336773	-0.336993
C27	C	0.549358	-0.336794	-0.337020
C28	C	0.467373	-0.336800	-0.337027
C29	C	0.467391	-0.440067	-0.439973
C30	C	0.549370	-0.440062	-0.439964
C31	C	0.590351	-0.388423	-0.388486
C32	C	1.134501	-1.015700	-0.388533
C33	C	1.134461	-0.924391	-0.388511
C34	C	1.134432	-0.851615	-0.388490
C35	C	1.134393	-0.760300	-0.388470
C36	C	1.339143	-0.388427	-0.388493
C37	C	1.426393	-0.388434	-0.388502
C38	C	1.134450	-0.388352	-0.598779
C39	C	1.134471	-0.388326	-0.688400
C40	C	1.134495	-0.178103	-0.388521
C41	C	1.134535	-0.088482	-0.388543
C42	C	1.134508	-0.388236	-1.016576
C43	C	1.134495	-0.388264	-0.925267
C44	C	1.134490	-0.388282	-0.852491
C45	C	1.134477	-0.388308	-0.761176
C46	C	1.134393	-0.388414	-0.178979
C47	C	1.134523	-0.388212	-0.089358
H48	H	0.835595	-0.482088	-0.481840
H49	H	0.835572	-0.294724	-0.295081
Cl50	Cl	0.668687	-0.271869	-0.272305
Cl51	Cl	0.668725	-0.504959	-0.504660
H52	H	0.434020	-0.482110	-0.481891
Cl53	Cl	0.600910	-0.504972	-0.504661
H54	H	0.433995	-0.294751	-0.295128
H55	H	0.582722	-0.294738	-0.295108
