data_functionalizedCrystal
_audit_creation_method	'MofGen! by Chris Wilmer'
_symmetry_space_group_name_H-M	'P1'
_symmetry_Int_Tables_number	1
_symmetry_cell_setting	triclinic
loop_
_symmetry_equiv_pos_as_xyz
  x,y,z
_cell_length_a	14.044220
_cell_length_b	11.026607
_cell_length_c	9.482900
_cell_angle_alpha	101.363848
_cell_angle_beta	100.188801
_cell_angle_gamma	79.112553
loop_
_atom_site_label
_atom_site_type_symbol
_atom_site_fract_x
_atom_site_fract_y
_atom_site_fract_z
O1	O	0.392560	-1.671574	-0.120918
O2	O	0.346512	-1.313283	-0.120917
O3	O	0.230635	-1.487049	-0.120903
O4	O	0.508437	-1.497809	-0.120932
O5	O	0.254293	-1.451766	0.120886
O6	O	0.370170	-1.278001	0.120872
O7	O	0.416218	-1.636292	0.120871
Cu8	Cu	0.395354	-1.453925	0.142949
Cu9	Cu	0.367376	-1.495650	-0.142995
O10	O	0.532095	-1.462526	0.120857
C11	C	0.349846	-1.249512	-0.000022
C12	C	0.324521	-1.112056	-0.000022
C13	C	0.206346	-1.464699	-0.000008
C14	C	0.098724	-1.450655	-0.000006
C15	C	0.412884	-1.700064	-0.000027
C16	C	0.438207	-1.837521	-0.000037
C17	C	-0.098320	-1.424983	-0.000027
C18	C	-0.138958	-1.524588	-0.000032
C19	C	-0.248600	-1.510304	-0.000043
C20	C	0.011332	-1.439266	-0.000015
C21	C	0.556383	-1.484876	-0.000041
C22	C	0.664004	-1.498922	-0.000053
N23	N	0.415033	-1.424586	0.344067
C24	C	0.394445	-1.045821	-0.000030
C25	C	0.368273	-0.903753	-0.000029
N26	N	0.347690	-1.524998	-0.344113
C27	C	0.373174	-1.486988	0.416271
C28	C	0.389556	-1.462587	0.583687
H29	H	-0.091415	-1.620606	-0.000129
H30	H	0.289024	-0.855294	-0.000058
C31	C	0.545263	-0.902973	-0.000043
H32	H	0.585738	-0.842991	-0.000037
H33	H	0.549803	-0.965455	-0.084357
H34	H	0.566298	-0.940836	0.084288
C35	C	0.479817	-1.327990	0.427972
H36	H	0.503945	-1.291992	0.360962
H37	H	0.533324	-1.368331	0.487351
H38	H	0.442133	-1.264027	0.487351
C39	C	-0.162550	-1.295298	-0.000015
H40	H	-0.228880	-1.302589	-0.000007
H41	H	-0.157453	-1.263942	-0.084323
H42	H	-0.140958	-1.239359	0.084323
H43	H	0.473686	-1.094290	-0.000030
C44	C	0.217473	-1.046591	-0.000019
H45	H	0.213924	-0.959695	-0.000031
H46	H	0.194470	-1.057536	0.084298
H47	H	0.177981	-1.082147	-0.084348
C48	C	0.454360	-1.366008	0.667593
H49	H	0.456876	-1.362284	0.769108
H50	H	0.427513	-1.285920	0.642742
H51	H	0.518681	-1.390258	0.642711
C52	C	0.308373	-1.583562	0.332359
H53	H	0.305867	-1.587298	0.230845
H54	H	0.244057	-1.559326	0.357244
H55	H	0.335230	-1.663656	0.357208
C56	C	0.282915	-1.621612	0.571984
H57	H	0.280418	-1.625359	0.470469
H58	H	0.218593	-1.597409	0.596850
H59	H	0.309798	-1.701692	0.596854
