data_functionalizedCrystal
_audit_creation_method	'MofGen! by Chris Wilmer'
_symmetry_space_group_name_H-M	'P1'
_symmetry_Int_Tables_number	1
_symmetry_cell_setting	triclinic
loop_
_symmetry_equiv_pos_as_xyz
  x,y,z
_cell_length_a	15.944551
_cell_length_b	15.995350
_cell_length_c	14.472310
_cell_angle_alpha	90.009379
_cell_angle_beta	89.997979
_cell_angle_gamma	96.504443
loop_
_atom_site_label
_atom_site_type_symbol
_atom_site_fract_x
_atom_site_fract_y
_atom_site_fract_z
O1	O	0.108264	-1.111003	-0.076765
O2	O	0.121634	-0.867228	-0.076784
O3	O	-0.007326	-0.995772	-0.076765
O4	O	0.237224	-0.982458	-0.076783
O5	O	-0.007319	-0.995739	0.076917
O6	O	0.121641	-0.867195	0.076898
O7	O	0.108272	-1.110969	0.076917
Cu8	Cu	0.114957	-0.989079	0.090940
Cu9	Cu	0.114948	-0.989118	-0.090807
O10	O	0.237232	-0.982425	0.076899
C11	C	0.121085	-0.836017	0.000055
C12	C	0.119428	-0.743066	0.000048
C13	C	-0.038616	-0.995203	0.000076
C14	C	-0.131862	-0.993546	0.000076
C15	C	0.108821	-1.142181	0.000077
C16	C	0.110478	-1.235131	0.000078
C17	C	-0.346714	-0.909908	0.000057
C18	C	-0.407730	-0.948730	0.075834
C19	C	-0.302588	-0.990548	0.000069
C20	C	-0.407721	-0.948782	-0.075684
C21	C	-0.467501	-0.987647	0.000058
C22	C	-0.362376	-1.029393	0.075909
C23	C	-0.362360	-1.029433	-0.075678
C24	C	-0.423358	-1.068315	0.000119
C25	C	-0.207586	-0.992217	0.000076
C26	C	-0.562502	-0.985984	0.000057
C27	C	0.268522	-0.982995	0.000056
C28	C	0.361768	-0.984652	0.000049
N29	N	0.114963	-0.989058	0.218771
C30	C	0.113477	-0.405318	0.000067
C31	C	0.021634	-0.452747	0.000417
C32	C	0.023291	-0.549438	0.000064
C33	C	0.116429	-0.572879	0.000058
C34	C	0.161724	-0.531813	-0.087701
C35	C	0.159417	-0.435178	-0.087768
C36	C	0.161323	-0.434801	0.086997
C37	C	0.161302	-0.531746	0.088150
C38	C	0.118102	-0.667577	0.000050
C39	C	0.111806	-0.310620	0.000069
N40	N	0.114936	-0.989146	-0.218638
C41	C	0.114945	-0.989117	0.592862
C42	C	0.183717	-0.920105	0.553686
C43	C	0.183968	-0.920264	0.446598
C44	C	0.114954	-0.989087	0.407271
C45	C	0.134096	-1.076453	0.446114
C46	C	0.134585	-1.076065	0.553235
C47	C	0.026826	-0.971543	0.553396
C48	C	0.027414	-0.969539	0.446269
C49	C	0.114957	-0.989075	0.302383
C50	C	0.114943	-0.989135	0.697750
H51	H	-0.313403	-0.842972	0.000127
C52	C	-0.434897	-0.902642	0.162370
H53	H	-0.472570	-0.939958	0.198049
H54	H	-0.462353	-0.855587	0.144155
H55	H	-0.386518	-0.883957	0.198302
H56	H	-0.015075	-0.434210	0.063353
H57	H	0.248741	-0.931173	0.580592
H58	H	-0.456521	-1.135309	0.000167
H59	H	-0.342235	-1.063526	-0.139740
H60	H	-0.342384	-1.063458	0.140043
H61	H	-0.427799	-0.914677	-0.139753
H62	H	0.229039	-0.403043	0.087586
H63	H	-0.012314	-0.577851	0.062974
C64	C	-0.027746	-0.426298	-0.084122
H65	H	-0.083165	-0.455241	-0.083378
H66	H	0.000295	-0.439967	-0.139080
H67	H	-0.030841	-0.367363	-0.082052
H68	H	-0.012561	-0.577307	-0.062951
H69	H	0.012886	-0.905272	0.420882
C70	C	0.114780	-0.410457	-0.176379
H71	H	0.098221	-0.459452	-0.211994
H72	H	0.152305	-0.372492	-0.211467
H73	H	0.066261	-0.384190	-0.160338
C74	C	0.272303	-0.935430	0.411957
H75	H	0.308172	-0.941525	0.463353
H76	H	0.295124	-0.888933	0.375524
H77	H	0.268110	-0.985204	0.375633
C78	C	0.250502	-0.391615	-0.093179
H79	H	0.288750	-0.433001	-0.095332
H80	H	0.262100	-0.357088	-0.040264
H81	H	0.256852	-0.357891	-0.147301
C82	C	0.254158	-0.550904	-0.092127
H83	H	0.265974	-0.584172	-0.040370
H84	H	0.290580	-0.499620	-0.091313
H85	H	0.262942	-0.580718	-0.147426
H86	H	0.198850	-1.091551	0.578207
C87	C	0.119215	-0.570150	-0.175930
H88	H	0.073869	-0.611171	-0.159471
H89	H	0.159330	-0.595894	-0.211439
H90	H	0.098200	-0.527031	-0.211301
C91	C	-0.044968	-1.033026	0.410113
H92	H	-0.097055	-1.019697	0.434768
H93	H	-0.035753	-1.088209	0.428681
H94	H	-0.046758	-1.030330	0.344579
H95	H	0.131301	-0.414250	0.153516
C96	C	0.116633	-0.568619	0.175859
H97	H	0.070830	-0.608917	0.158874
H98	H	0.096002	-0.524717	0.210327
H99	H	0.155512	-0.594993	0.212481
C100	C	0.068237	-1.147490	0.411695
H101	H	0.028389	-1.124443	0.373234
H102	H	0.039959	-1.174712	0.463119
H103	H	0.095738	-1.187135	0.377477
C104	C	0.219921	-1.097880	0.409863
H105	H	0.230939	-1.150868	0.433751
H106	H	0.263145	-1.055733	0.429185
H107	H	0.218619	-1.100272	0.344282
C108	C	0.253058	-0.552493	0.095309
H109	H	0.278593	-0.526857	0.149123
H110	H	0.283687	-0.531688	0.042239
H111	H	0.253501	-0.611740	0.098993
H112	H	0.172563	-0.855324	0.420338
H113	H	0.086470	-1.129023	0.579148
C114	C	0.168577	-0.832091	0.588526
H115	H	0.120182	-0.836641	0.627282
H116	H	0.159798	-0.797004	0.537289
H117	H	0.216410	-0.808334	0.622526
C118	C	0.001977	-0.887330	0.589917
H119	H	0.045117	-0.862098	0.629579
H120	H	-0.049505	-0.897108	0.623283
H121	H	-0.004988	-0.850819	0.539412
H122	H	-0.024352	-1.021870	0.578730
