data_functionalizedCrystal
_audit_creation_method	'MofGen! by Chris Wilmer'
_symmetry_space_group_name_H-M	'P1'
_symmetry_Int_Tables_number	1
_symmetry_cell_setting	triclinic
loop_
_symmetry_equiv_pos_as_xyz
  x,y,z
_cell_length_a	42.784839
_cell_length_b	42.784841
_cell_length_c	42.784893
_cell_angle_alpha	90.002418
_cell_angle_beta	59.997780
_cell_angle_gamma	119.999863
loop_
_atom_site_label
_atom_site_type_symbol
_atom_site_fract_x
_atom_site_fract_y
_atom_site_fract_z
O1	O	0.275695	-0.214412	-0.009300
O2	O	0.211692	-0.168961	0.009253
O3	O	0.275692	-0.168961	-0.054750
O4	O	0.211694	-0.214412	0.054702
O5	O	0.223708	-0.220945	-0.054749
O6	O	0.159708	-0.220945	0.009253
O7	O	0.223710	-0.266397	-0.009300
Zn8	Zn	0.183455	-0.251924	-0.000023
Zn9	Zn	0.251947	-0.183433	-0.000024
O10	O	0.159710	-0.266396	0.054703
C11	C	0.051021	-0.022778	0.028112
C12	C	0.013142	-0.041761	0.028375
C13	C	0.051018	-0.079378	0.028116
C14	C	0.013139	-0.098275	0.028379
C15	C	-0.005578	-0.079377	0.028112
C16	C	0.069652	-0.041762	0.028379
C17	C	0.152948	0.113708	0.017863
C18	C	0.173786	0.152360	0.014965
C19	C	0.155902	0.171750	0.013509
C20	C	0.178499	0.213661	0.010359
C21	C	0.117177	0.152485	0.014953
C22	C	0.096339	0.113835	0.017857
C23	C	0.114226	0.094447	0.019312
C24	C	-0.131813	-0.113936	0.017859
C25	C	-0.167567	-0.131750	0.014961
C26	C	-0.185502	-0.169024	0.013506
C27	C	-0.224264	-0.188340	0.010358
C28	C	-0.167685	-0.188485	0.014954
C29	C	-0.131938	-0.170675	0.017859
C30	C	-0.114002	-0.133396	0.019309
C31	C	0.152939	-0.113943	0.017877
C32	C	0.173778	-0.131757	0.014977
C33	C	0.155892	-0.169032	0.013523
C34	C	0.178486	-0.188349	0.010377
C35	C	0.117170	-0.188491	0.014967
C36	C	0.096334	-0.170675	0.017865
C37	C	0.114220	-0.133401	0.019323
C38	C	0.091629	0.052537	0.022456
C39	C	0.073617	0.019131	0.024964
C40	C	0.073613	-0.098693	0.024971
C41	C	0.091623	-0.114089	0.022466
C42	C	-0.044339	-0.098690	0.024964
C43	C	-0.075237	-0.114084	0.022456
O44	O	-0.327856	-0.266388	-0.009322
O45	O	-0.236954	-0.220935	0.009228
O46	O	-0.236950	-0.220939	-0.054773
O47	O	-0.327860	-0.266385	0.054680
O48	O	-0.236948	-0.168954	-0.054776
O49	O	-0.236952	-0.168950	0.009225
O50	O	-0.327854	-0.214403	-0.009325
Zn51	Zn	-0.282403	-0.183423	-0.000050
Zn52	Zn	-0.282405	-0.251916	-0.000046
O53	O	-0.327858	-0.214400	0.054676
C54	C	0.384390	-0.079141	-0.361606
C55	C	0.422270	-0.041526	-0.380503
C56	C	0.384390	-0.079141	-0.305008
C57	C	0.422270	-0.041526	-0.323990
C58	C	0.440988	-0.022543	-0.361606
C59	C	0.365758	-0.098038	-0.323991
C60	C	0.282465	-0.170819	-0.396168
C61	C	0.261627	-0.188759	-0.413983
C62	C	0.279513	-0.169420	-0.451257
C63	C	0.256917	-0.188867	-0.470572
C64	C	0.318239	-0.132140	-0.470717
C65	C	0.339076	-0.114205	-0.452905
C66	C	0.321187	-0.133546	-0.415628
C67	C	0.567227	0.113942	-0.453282
C68	C	0.602981	0.152594	-0.471222
C69	C	0.620916	0.171985	-0.451883
C70	C	0.659678	0.213894	-0.471328
C71	C	0.603097	0.152719	-0.414603
C72	C	0.567349	0.114068	-0.396667
C73	C	0.549414	0.094682	-0.416011
C74	C	0.282465	-0.170819	-0.168522
C75	C	0.261624	-0.188757	-0.129868
C76	C	0.279510	-0.169418	-0.110479
C77	C	0.256914	-0.188865	-0.068568
C78	C	0.318233	-0.132140	-0.129742
C79	C	0.339070	-0.114203	-0.168394
C80	C	0.321184	-0.133548	-0.187782
C81	C	0.343783	-0.114094	-0.396315
C82	C	0.361794	-0.098590	-0.380920
C83	C	0.361794	-0.098590	-0.263099
C84	C	0.343783	-0.114094	-0.229693
C85	C	0.479750	0.019366	-0.381054
C86	C	0.510649	0.052771	-0.396557
C87	C	0.440758	-0.356212	-0.028193
C88	C	0.422041	-0.393827	-0.028459
C89	C	0.384158	-0.356213	-0.028190
C90	C	0.365526	-0.393828	-0.028456
C91	C	0.384160	-0.412810	-0.028193
C92	C	0.422038	-0.337315	-0.028456
C93	C	0.567000	-0.264532	-0.017949
C94	C	0.602755	-0.246591	-0.015053
C95	C	0.620692	-0.265931	-0.013601
C96	C	0.659455	-0.246483	-0.010453
C97	C	0.602873	-0.303210	-0.015048
C98	C	0.567125	-0.321146	-0.017949
C99	C	0.549188	-0.301805	-0.019399
C100	C	0.339356	-0.549295	-0.017951
C101	C	0.318645	-0.587947	-0.015055
C102	C	0.279915	-0.607338	-0.013597
C103	C	0.257452	-0.649247	-0.010452
C104	C	0.261899	-0.588073	-0.015042
C105	C	0.282613	-0.549422	-0.017945
C106	C	0.321343	-0.530035	-0.019397
C107	C	0.339344	-0.264537	-0.017936
C108	C	0.318628	-0.246599	-0.015032
C109	C	0.279898	-0.265939	-0.013577
C110	C	0.257433	-0.246493	-0.010426
C111	C	0.261884	-0.303217	-0.015022
C112	C	0.282601	-0.321153	-0.017924
C113	C	0.321334	-0.301808	-0.019385
C114	C	0.510421	-0.321258	-0.022542
C115	C	0.479522	-0.336762	-0.025048
C116	C	0.361696	-0.336765	-0.025041
C117	C	0.343793	-0.321261	-0.022532
C118	C	0.361701	-0.454719	-0.025047
C119	C	0.343799	-0.488125	-0.022541
O120	O	0.223728	0.336934	-0.009323
O121	O	0.159726	0.227482	0.009227
O122	O	0.223729	0.291478	-0.054775
O123	O	0.159725	0.272938	0.054678
O124	O	0.275711	0.291477	-0.054771
O125	O	0.211707	0.227481	0.009230
O126	O	0.275710	0.336932	-0.009320
Zn127	Zn	0.251962	0.282206	-0.000045
Zn128	Zn	0.183474	0.282208	-0.000049
O129	O	0.211707	0.272936	0.054681
O130	O	0.763271	0.337164	-0.496871
O131	O	0.672367	0.227713	-0.451422
O132	O	0.672365	0.291711	-0.451418
O133	O	0.763273	0.273165	-0.496876
O134	O	0.672366	0.291712	-0.503402
O135	O	0.672368	0.227714	-0.503407
O136	O	0.763272	0.337165	-0.548856
Zn137	Zn	0.717820	0.282440	-0.534385
Zn138	Zn	0.717819	0.282438	-0.465893
O139	O	0.763275	0.273167	-0.548860
O140	O	0.211690	-0.214417	-0.548617
O141	O	0.275691	-0.168962	-0.503167
O142	O	0.211689	-0.168964	-0.503163
O143	O	0.275692	-0.214415	-0.548621
O144	O	0.159706	-0.220947	-0.451179
O145	O	0.223708	-0.220945	-0.451183
O146	O	0.159707	-0.266400	-0.496633
Zn147	Zn	0.183454	-0.251926	-0.465654
Zn148	Zn	0.251944	-0.183436	-0.534146
O149	O	0.223709	-0.266398	-0.496637
C150	C	-0.005343	-0.412572	0.361558
C151	C	0.013375	-0.393590	0.380456
C152	C	0.051255	-0.355974	0.304961
C153	C	0.069887	-0.337077	0.323944
C154	C	0.051254	-0.355974	0.361560
C155	C	0.013375	-0.393589	0.323943
C156	C	-0.131582	-0.549057	0.396116
C157	C	-0.167336	-0.587709	0.413930
C158	C	-0.185271	-0.607098	0.451205
C159	C	-0.224034	-0.649009	0.470519
C160	C	-0.167452	-0.587833	0.470666
C161	C	-0.131705	-0.549184	0.452854
C162	C	-0.113770	-0.529796	0.415578
C163	C	0.096061	-0.321414	0.453239
C164	C	0.116773	-0.303600	0.471179
C165	C	0.155502	-0.266327	0.451842
C166	C	0.177965	-0.247011	0.471288
C167	C	0.173517	-0.246866	0.414562
C168	C	0.152802	-0.264677	0.396625
C169	C	0.114073	-0.301955	0.415968
C170	C	0.096064	-0.321412	0.168474
C171	C	0.116779	-0.303599	0.129820
C172	C	0.155508	-0.266324	0.110432
C173	C	0.177972	-0.247009	0.068521
C174	C	0.173522	-0.246865	0.129696
C175	C	0.152807	-0.264680	0.168348
C176	C	0.114075	-0.301953	0.187735
C177	C	-0.075004	-0.487887	0.396265
C178	C	-0.044106	-0.454481	0.380871
C179	C	0.073715	-0.336660	0.263052
C180	C	0.091618	-0.321265	0.229646
C181	C	0.073714	-0.336661	0.381009
C182	C	0.091616	-0.321267	0.396513
C183	C	0.051046	-0.022794	-0.361634
C184	C	0.069679	-0.041778	-0.380530
C185	C	-0.005555	-0.079390	-0.305034
C186	C	0.013163	-0.098288	-0.324016
C187	C	0.051045	-0.079393	-0.361631
C188	C	0.013164	-0.041775	-0.324018
C189	C	0.095858	0.113693	-0.396200
C190	C	0.116571	0.152344	-0.414015
C191	C	0.155302	0.171732	-0.451290
C192	C	0.177767	0.213642	-0.470607
C193	C	0.173317	0.152465	-0.470750
C194	C	0.152600	0.113815	-0.452936
C195	C	0.113869	0.094429	-0.415659
C196	C	0.152973	-0.113959	-0.453306
C197	C	0.173810	-0.131775	-0.471245
C198	C	0.155926	-0.169048	-0.451906
C199	C	0.178519	-0.188366	-0.471350
C200	C	0.117198	-0.188507	-0.414626
C201	C	0.096358	-0.170694	-0.396690
C202	C	0.114251	-0.133416	-0.416035
C203	C	-0.131801	-0.113944	-0.168548
C204	C	-0.167554	-0.131755	-0.129895
C205	C	-0.185491	-0.169029	-0.110504
C206	C	-0.224255	-0.188343	-0.068593
C207	C	-0.167671	-0.188490	-0.129767
C208	C	-0.131918	-0.170677	-0.168418
C209	C	-0.113988	-0.133404	-0.187808
C210	C	0.091411	0.052521	-0.396344
C211	C	0.073508	0.019115	-0.380949
C212	C	-0.044320	-0.098701	-0.263125
C213	C	-0.075220	-0.114094	-0.229719
C214	C	0.073641	-0.098707	-0.381079
C215	C	0.091652	-0.114103	-0.396582
C216	C	-0.615853	-0.356193	0.361535
C217	C	-0.634487	-0.393808	0.380433
C218	C	-0.559253	-0.356195	0.304938
C219	C	-0.577972	-0.393810	0.323921
C220	C	-0.615854	-0.412792	0.361537
C221	C	-0.577972	-0.337297	0.323920
C222	C	-0.660661	-0.264512	0.396093
C223	C	-0.681373	-0.246571	0.413906
C224	C	-0.720104	-0.265909	0.451181
C225	C	-0.742568	-0.246461	0.470495
C226	C	-0.738120	-0.303189	0.470643
C227	C	-0.717405	-0.321125	0.452831
C228	C	-0.678674	-0.301785	0.415554
C229	C	-0.717784	-0.549275	0.453218
C230	C	-0.738622	-0.587926	0.471159
C231	C	-0.720740	-0.607319	0.451822
C232	C	-0.743333	-0.649227	0.471268
C233	C	-0.682012	-0.588055	0.414542
C234	C	-0.661170	-0.549403	0.396604
C235	C	-0.679063	-0.530016	0.415946
C236	C	-0.433006	-0.264522	0.168449
C237	C	-0.397253	-0.246585	0.129796
C238	C	-0.379317	-0.265926	0.110407
C239	C	-0.340553	-0.246480	0.068496
C240	C	-0.397138	-0.303204	0.129672
C241	C	-0.432891	-0.321139	0.168324
C242	C	-0.450820	-0.301793	0.187711
C243	C	-0.656216	-0.321238	0.396242
C244	C	-0.638314	-0.336743	0.380848
C245	C	-0.520488	-0.336748	0.263028
C246	C	-0.489588	-0.321245	0.229622
C247	C	-0.638451	-0.454700	0.380987
C248	C	-0.656463	-0.488106	0.396492
C249	C	0.440756	0.310302	-0.361620
C250	C	0.422038	0.310564	-0.380518
C251	C	0.384160	0.310312	-0.305026
C252	C	0.365528	0.310574	-0.324010
C253	C	0.384159	0.310303	-0.361624
C254	C	0.422038	0.310573	-0.324006
C255	C	0.566989	0.300046	-0.396172
C256	C	0.602741	0.297145	-0.413984
C257	C	0.620675	0.295684	-0.451257
C258	C	0.659436	0.292531	-0.470569
C259	C	0.602857	0.297127	-0.470719
C260	C	0.567111	0.300033	-0.452909
C261	C	0.549177	0.301493	-0.415634
C262	C	0.339351	0.300042	-0.453303
C263	C	0.318640	0.297142	-0.471244
C264	C	0.279912	0.295690	-0.451908
C265	C	0.257449	0.292541	-0.471354
C266	C	0.261899	0.297143	-0.414629
C267	C	0.282613	0.300049	-0.396692
C268	C	0.321341	0.301496	-0.416033
C269	C	0.339354	0.300088	-0.168540
C270	C	0.318640	0.297192	-0.129888
C271	C	0.279912	0.295742	-0.110501
C272	C	0.257450	0.292601	-0.068591
C273	C	0.261898	0.297184	-0.129766
C274	C	0.282612	0.300078	-0.168417
C275	C	0.321344	0.301533	-0.187802
C276	C	0.510413	0.304640	-0.396323
C277	C	0.479516	0.307151	-0.380931
C278	C	0.361701	0.307173	-0.263117
C279	C	0.343799	0.304671	-0.229712
C280	C	0.361700	0.307154	-0.381073
C281	C	0.343798	0.304644	-0.396578
O282	O	0.275503	0.336913	-0.548651
O283	O	0.211494	0.227461	-0.503201
O284	O	0.275490	0.291455	-0.503192
O285	O	0.211507	0.272919	-0.548659
O286	O	0.223502	0.291457	-0.451211
O287	O	0.159506	0.227463	-0.451219
O288	O	0.223515	0.336915	-0.496669
Zn289	Zn	0.183256	0.282189	-0.465691
Zn290	Zn	0.251753	0.282187	-0.534179
O291	O	0.159519	0.272921	-0.496677
C292	C	0.051032	0.254111	0.361530
C293	C	0.013154	0.253851	0.380425
C294	C	0.051031	0.254102	0.304932
C295	C	0.013153	0.253842	0.323913
C296	C	-0.005564	0.254113	0.361527
C297	C	0.069663	0.253840	0.323916
C298	C	0.152954	0.264360	0.396096
C299	C	0.173791	0.267260	0.413911
C300	C	0.155906	0.268721	0.451185
C301	C	0.178502	0.271871	0.470501
C302	C	0.117182	0.267279	0.470643
C303	C	0.096345	0.264374	0.452830
C304	C	0.114233	0.262915	0.415555
C305	C	-0.131796	0.264379	0.453195
C306	C	-0.167548	0.267281	0.471133
C307	C	-0.185483	0.268734	0.451793
C308	C	-0.224243	0.271886	0.471236
C309	C	-0.167664	0.267282	0.414515
C310	C	-0.131919	0.264374	0.396581
C311	C	-0.113984	0.262925	0.415925
C312	C	0.152952	0.264325	0.168451
C313	C	0.173792	0.267221	0.129798
C314	C	0.155907	0.268673	0.110407
C315	C	0.178502	0.271814	0.068498
C316	C	0.117186	0.267232	0.129669
C317	C	0.096350	0.264339	0.168320
C318	C	0.114234	0.262881	0.187709
C319	C	0.091638	0.259769	0.396240
C320	C	0.073627	0.257260	0.380845
C321	C	0.073626	0.257242	0.263024
C322	C	0.091636	0.259743	0.229619
C323	C	-0.044324	0.257264	0.380973
C324	C	-0.075221	0.259775	0.396474
H325	H	0.064802	-0.186523	0.019045
H326	H	0.370892	-0.533512	-0.019136
H327	H	-0.002512	0.253428	0.411332
H328	H	0.205307	-0.115910	0.013801
C329	C	0.216384	0.173551	0.013371
C330	C	0.257723	0.176919	-0.019204
C331	C	0.300321	0.198109	-0.020799
C332	C	0.301581	0.215933	0.010179
C333	C	0.260241	0.212566	0.042756
C334	C	0.217642	0.191375	0.044352
H335	H	0.256792	0.163724	-0.042138
H336	H	0.330924	0.200602	-0.044915
H337	H	0.333115	0.231620	0.008998
H338	H	0.261172	0.225760	0.065690
H339	H	0.187039	0.188882	0.068467
C340	C	0.622604	-0.324481	-0.013451
C341	C	0.671438	-0.307814	-0.044430
C342	C	0.691167	-0.329087	-0.042833
C343	C	0.662063	-0.367027	-0.010256
C344	C	0.613226	-0.383696	0.020726
C345	C	0.593496	-0.362423	0.019129
H346	H	0.692985	-0.279727	-0.068548
H347	H	0.727320	-0.316747	-0.065768
H348	H	0.676668	-0.382774	-0.009074
H349	H	0.591679	-0.411783	0.044844
H350	H	0.557344	-0.374763	0.042064
H351	H	-0.002510	0.253416	0.308669
H352	H	-0.182279	-0.218843	-0.113977
C353	C	-0.187155	-0.110349	-0.108705
C354	C	-0.157954	-0.072378	-0.105336
C355	C	-0.177556	-0.050972	-0.084146
C356	C	-0.226357	-0.067538	-0.066326
C357	C	-0.255561	-0.105512	-0.069694
C358	C	-0.235959	-0.126918	-0.090884
H359	H	-0.121826	-0.060112	-0.118528
H360	H	-0.155937	-0.022861	-0.081653
H361	H	-0.240867	-0.051693	-0.050640
H362	H	-0.291689	-0.117777	-0.056502
H363	H	-0.257578	-0.155028	-0.093377
C364	C	-0.187180	-0.609161	0.511666
C365	C	-0.158074	-0.612633	0.520499
C366	C	-0.177801	-0.633960	0.561500
C367	C	-0.226635	-0.651815	0.593668
C368	C	-0.255744	-0.648344	0.584836
C369	C	-0.236017	-0.627017	0.543835
H370	H	-0.121921	-0.599414	0.496685
H371	H	-0.156251	-0.636529	0.568038
H372	H	-0.241238	-0.667603	0.624020
H373	H	-0.291897	-0.661562	0.608649
H374	H	-0.257567	-0.624448	0.537297
H375	H	0.102103	-0.319447	0.501532
C376	C	0.053745	0.092645	0.019445
C377	C	0.052494	0.074825	-0.011537
C378	C	0.009901	0.053635	-0.009950
C379	C	-0.031442	0.050266	0.022620
C380	C	-0.030193	0.068087	0.053605
C381	C	0.012401	0.089277	0.052017
H382	H	0.083100	0.077319	-0.035649
H383	H	0.008976	0.040443	-0.032887
H384	H	-0.062972	0.034581	0.023795
H385	H	-0.060798	0.065594	0.077717
H386	H	0.013325	0.102469	0.074954
H387	H	0.064825	-0.186540	-0.366338
C388	C	0.215918	0.173790	-0.511750
C389	C	0.215621	0.159792	-0.544823
C390	C	0.258224	0.181117	-0.585825
C391	C	0.301123	0.216440	-0.593754
C392	C	0.301421	0.230441	-0.560680
C393	C	0.258818	0.209116	-0.519679
H394	H	0.183863	0.133642	-0.538954
H395	H	0.258003	0.170753	-0.610308
H396	H	0.332660	0.232226	-0.624106
H397	H	0.333179	0.256591	-0.566549
H398	H	0.259039	0.219480	-0.495195
H399	H	-0.117415	0.263190	0.366230
H400	H	0.335269	-0.128941	-0.308748
C401	C	0.172620	-0.243274	0.189539
C402	C	0.145323	-0.235603	0.224831
C403	C	0.165137	-0.214196	0.246022
C404	C	0.212247	-0.200461	0.231920
C405	C	0.239546	-0.208132	0.196626
C406	C	0.219733	-0.229539	0.175435
H407	H	0.110447	-0.245771	0.235271
H408	H	0.144927	-0.208518	0.272149
H409	H	0.226914	-0.184614	0.247606
H410	H	0.274423	-0.197964	0.186185
H411	H	0.239942	-0.235217	0.149308
H412	H	0.205059	-0.216514	0.113907
C413	C	0.097521	-0.229508	-0.393350
C414	C	0.050452	-0.262579	-0.379652
C415	C	0.030775	-0.303580	-0.358376
C416	C	0.058168	-0.311510	-0.350798
C417	C	0.105240	-0.278437	-0.364497
C418	C	0.124916	-0.237436	-0.385773
H419	H	0.030171	-0.256711	-0.385261
H420	H	-0.004070	-0.328063	-0.348235
H421	H	0.043603	-0.341861	-0.335049
H422	H	0.125521	-0.284306	-0.358888
H423	H	0.159762	-0.212954	-0.395914
H424	H	0.205343	-0.115928	-0.501596
H425	H	0.230368	0.295965	-0.398887
H426	H	0.552629	0.098160	-0.469035
C427	C	-0.662335	-0.609381	0.393269
C428	C	-0.656970	-0.612855	0.355327
C429	C	-0.637295	-0.634183	0.334054
C430	C	-0.622985	-0.652038	0.350722
C431	C	-0.628350	-0.648565	0.388665
C432	C	-0.648025	-0.627237	0.409939
H433	H	-0.667564	-0.599637	0.342987
H434	H	-0.633324	-0.636754	0.305965
H435	H	-0.608420	-0.667826	0.334974
H436	H	-0.617756	-0.661783	0.401005
H437	H	-0.651996	-0.624666	0.438027
H438	H	-0.117412	-0.186525	-0.184100
H439	H	0.230362	0.296001	-0.113978
C440	C	0.381670	-0.073200	-0.474308
C441	C	0.401345	-0.051925	-0.515307
C442	C	0.443938	-0.010919	-0.536711
C443	C	0.466857	0.008811	-0.517115
C444	C	0.447183	-0.012465	-0.476114
C445	C	0.404589	-0.053470	-0.454711
H446	H	0.384379	-0.066530	-0.529815
H447	H	0.458502	0.004830	-0.567063
H448	H	0.498388	0.039165	-0.532959
H449	H	0.464149	0.002140	-0.461606
H450	H	0.390025	-0.069220	-0.424359
C451	C	-0.556811	-0.414402	0.303335
C452	C	-0.515061	-0.393533	0.261870
C453	C	-0.493902	-0.414125	0.241285
C454	C	-0.514493	-0.455587	0.262166
C455	C	-0.556245	-0.476459	0.303634
C456	C	-0.577404	-0.455867	0.324219
H457	H	-0.499817	-0.362838	0.246410
H458	H	-0.462995	-0.398674	0.210588
H459	H	-0.498830	-0.470831	0.246928
H460	H	-0.571489	-0.507154	0.319094
H461	H	-0.608311	-0.471318	0.354916
C462	C	0.216387	0.268851	0.392507
C463	C	0.259350	0.303819	0.384832
C464	C	0.301947	0.305411	0.363427
C465	C	0.301581	0.272034	0.349695
C466	C	0.258616	0.237063	0.357370
C467	C	0.216019	0.235471	0.378775
H468	H	0.259622	0.328529	0.394997
H469	H	0.333753	0.331299	0.357746
H470	H	0.333114	0.273213	0.333849
H471	H	0.258344	0.212353	0.347205
H472	H	0.184214	0.209583	0.384456
H473	H	0.205048	-0.216515	0.398819
C474	C	-0.377650	-0.205580	0.108607
C475	C	-0.328849	-0.173348	0.090790
C476	C	-0.309245	-0.132341	0.069602
C477	C	-0.338443	-0.123566	0.066232
C478	C	-0.387247	-0.155799	0.084050
C479	C	-0.406851	-0.196806	0.105238
H480	H	-0.307233	-0.179843	0.093284
H481	H	-0.273117	-0.108481	0.056412
H482	H	-0.323931	-0.093211	0.050548
H483	H	-0.408863	-0.149304	0.081556
H484	H	-0.442979	-0.220667	0.118428
H485	H	0.333315	-0.603629	-0.013877
H486	H	-0.182052	0.268464	0.501484
C487	C	-0.675665	-0.414396	0.422186
C488	C	-0.696259	-0.393523	0.443062
C489	C	-0.737435	-0.414112	0.484813
C490	C	-0.758018	-0.455573	0.505688
C491	C	-0.737424	-0.476448	0.484812
C492	C	-0.696248	-0.455860	0.443061
H493	H	-0.681022	-0.362829	0.427609
H494	H	-0.752680	-0.398658	0.500266
H495	H	-0.788499	-0.470814	0.536594
H496	H	-0.752660	-0.507143	0.500265
H497	H	-0.681003	-0.471313	0.427607
H498	H	-0.002509	-0.129196	-0.308775
H499	H	-0.002500	-0.026531	-0.308780
C500	C	-0.007784	-0.414175	0.422207
C501	C	-0.012107	-0.451272	0.432468
C502	C	-0.033263	-0.471855	0.474217
C503	C	-0.050096	-0.455342	0.505706
C504	C	-0.045774	-0.418243	0.495447
C505	C	-0.024619	-0.397660	0.453697
H506	H	0.000355	-0.463498	0.409157
H507	H	-0.036462	-0.499318	0.481812
H508	H	-0.065757	-0.470578	0.536612
H509	H	-0.058236	-0.406017	0.518758
H510	H	-0.021419	-0.370197	0.446103
H511	H	-0.666703	-0.216219	0.398058
C512	C	0.172652	-0.072958	-0.474587
C513	C	0.145258	-0.065028	-0.482162
C514	C	0.164937	-0.024027	-0.503440
C515	C	0.212008	0.009043	-0.517143
C516	C	0.239404	0.001114	-0.509568
C517	C	0.219726	-0.039887	-0.488290
H518	H	0.110410	-0.089509	-0.472018
H519	H	0.144656	-0.018157	-0.509048
H520	H	0.226575	0.039395	-0.532895
H521	H	0.274252	0.025595	-0.519713
H522	H	0.240007	-0.045757	-0.482682
H523	H	0.437707	0.310988	-0.411425
C524	C	-0.112078	0.262776	0.474478
C525	C	-0.111730	0.227803	0.482056
C526	C	-0.092012	0.226199	0.503338
C527	C	-0.072642	0.259566	0.517041
C528	C	-0.072990	0.294542	0.509463
C529	C	-0.092707	0.296146	0.488181
H530	H	-0.126069	0.203100	0.471912
H531	H	-0.091755	0.200308	0.508948
H532	H	-0.058046	0.258379	0.532795
H533	H	-0.058650	0.319245	0.519607
H534	H	-0.092964	0.322037	0.482571
C535	C	0.262801	0.301647	-0.355689
C536	C	0.248383	0.270669	-0.323450
C537	C	0.228570	0.272265	-0.282446
C538	C	0.223175	0.304840	-0.273682
C539	C	0.237593	0.335820	-0.305921
C540	C	0.257407	0.334224	-0.346925
H541	H	0.252376	0.246553	-0.329937
H542	H	0.217896	0.249331	-0.258580
H543	H	0.208508	0.306022	-0.243328
H544	H	0.233600	0.359936	-0.299434
H545	H	0.268080	0.357158	-0.370791
H546	H	0.552621	-0.351498	-0.019128
H547	H	0.267897	-0.186572	-0.184305
C548	C	-0.112074	-0.072943	-0.189876
C549	C	-0.131668	-0.051534	-0.168689
C550	C	-0.111938	-0.010532	-0.190017
C551	C	-0.072614	0.009060	-0.232533
C552	C	-0.053017	-0.012349	-0.253722
C553	C	-0.072747	-0.053350	-0.232394
H554	H	-0.160781	-0.066037	-0.137214
H555	H	-0.126445	0.005316	-0.174331
H556	H	-0.058008	0.039412	-0.248322
H557	H	-0.023905	0.002154	-0.285197
H558	H	-0.058240	-0.069198	-0.248080
C559	C	0.110837	0.253259	0.303329
C560	C	0.131429	0.252978	0.324202
C561	C	0.172602	0.252396	0.303615
C562	C	0.193181	0.252097	0.262154
C563	C	0.172589	0.252378	0.241279
C564	C	0.131417	0.252959	0.261866
H565	H	0.116195	0.253200	0.354896
H566	H	0.187845	0.252188	0.319069
H567	H	0.223659	0.251666	0.246915
H568	H	0.187824	0.252156	0.210585
H569	H	0.116174	0.253168	0.246412
H570	H	0.332793	-0.116391	-0.113952
H571	H	0.333308	0.295959	-0.501595
C572	C	0.216384	0.268805	0.108612
C573	C	0.259352	0.303767	0.073320
C574	C	0.301944	0.305350	0.052134
C575	C	0.301567	0.271971	0.066241
C576	C	0.258597	0.237007	0.101535
C577	C	0.216006	0.235424	0.122720
H578	H	0.259632	0.328479	0.062875
H579	H	0.333753	0.331233	0.026007
H580	H	0.333096	0.273143	0.050558
H581	H	0.258317	0.212295	0.111979
H582	H	0.184197	0.209540	0.148847
H583	H	0.064821	0.263164	0.184001
C584	C	0.547749	0.092878	-0.355663
C585	C	0.508424	0.050364	-0.335934
C586	C	0.488823	0.029174	-0.294928
C587	C	0.508546	0.050498	-0.273652
C588	C	0.547874	0.093015	-0.293382
C589	C	0.567475	0.114205	-0.334387
H590	H	0.493822	0.034576	-0.351683
H591	H	0.459710	-0.002300	-0.280323
H592	H	0.494036	0.034812	-0.243298
H593	H	0.562476	0.108803	-0.277632
H594	H	0.596588	0.145678	-0.348992
C595	C	0.219030	-0.229762	-0.108679
C596	C	0.177688	-0.238534	-0.105309
C597	C	0.135095	-0.279540	-0.084120
C598	C	0.133844	-0.311773	-0.066301
C599	C	0.175187	-0.303002	-0.069671
C600	C	0.217780	-0.261996	-0.090860
H601	H	0.178614	-0.214673	-0.118500
H602	H	0.104490	-0.286033	-0.081625
H603	H	0.102313	-0.342128	-0.050615
H604	H	0.174262	-0.326863	-0.056480
H605	H	0.248385	-0.255503	-0.093354
H606	H	0.617704	0.168507	-0.398859
C607	C	0.096759	0.173537	-0.392610
C608	C	0.091364	0.176910	-0.354641
C609	C	0.071553	0.198103	-0.333235
C610	C	0.057137	0.215924	-0.349799
C611	C	0.062532	0.212552	-0.387770
C612	C	0.082343	0.191358	-0.409176
H613	H	0.102035	0.163717	-0.342378
H614	H	0.067559	0.200599	-0.305127
H615	H	0.042472	0.231612	-0.333953
H616	H	0.051860	0.225744	-0.400033
H617	H	0.086337	0.188862	-0.437285
C618	C	-0.556805	-0.295546	0.303328
C619	C	-0.577394	-0.274668	0.324199
C620	C	-0.556228	-0.232919	0.303607
C621	C	-0.514472	-0.212047	0.262144
C622	C	-0.493880	-0.232924	0.241272
C623	C	-0.515047	-0.274674	0.261863
H624	H	-0.608307	-0.290119	0.354894
H625	H	-0.571471	-0.217464	0.319059
H626	H	-0.498803	-0.181141	0.246901
H627	H	-0.462968	-0.217474	0.210577
H628	H	-0.499803	-0.290129	0.246412
H629	H	0.102623	0.268466	0.500992
H630	H	0.167470	-0.248829	0.366274
C631	C	-0.781222	-0.609116	0.512162
C632	C	-0.824183	-0.644405	0.520152
C633	C	-0.866784	-0.665594	0.561155
C634	C	-0.866425	-0.651495	0.594167
C635	C	-0.823463	-0.616204	0.586177
C636	C	-0.780862	-0.595014	0.545174
H637	H	-0.824450	-0.654844	0.495714
H638	H	-0.898588	-0.691719	0.567069
H639	H	-0.897961	-0.667180	0.624519
H640	H	-0.823196	-0.605765	0.610615
H641	H	-0.749058	-0.568889	0.539260
C642	C	-0.377411	-0.324482	0.108348
C643	C	-0.377051	-0.332059	0.073023
C644	C	-0.357326	-0.353338	0.051700
C645	C	-0.337960	-0.367039	0.065704
C646	C	-0.338318	-0.359463	0.101031
C647	C	-0.358044	-0.338184	0.122354
H648	H	-0.391388	-0.321916	0.062655
H649	H	-0.357061	-0.358946	0.025548
H650	H	-0.323358	-0.382791	0.049920
H651	H	-0.323982	-0.369606	0.111399
H652	H	-0.358309	-0.332576	0.148505
H653	H	-0.116983	-0.533275	0.365765
C654	C	0.262789	-0.192096	-0.355166
C655	C	0.220197	-0.233100	-0.333762
C656	C	0.200522	-0.254375	-0.292761
C657	C	0.223439	-0.234645	-0.273164
C658	C	0.266033	-0.193639	-0.294568
C659	C	0.285708	-0.172365	-0.335569
H660	H	0.203230	-0.247707	-0.348269
H661	H	0.168991	-0.284730	-0.276916
H662	H	0.208875	-0.250394	-0.242812
H663	H	0.283000	-0.179033	-0.280061
H664	H	0.317239	-0.142009	-0.351414
H665	H	0.230097	-0.219111	-0.398135
C666	C	0.097508	0.268827	0.108343
C667	C	0.083187	0.237842	0.090497
C668	C	0.063508	0.239437	0.069173
C669	C	0.058150	0.272016	0.065694
C670	C	0.072471	0.303004	0.083541
C671	C	0.092150	0.301410	0.104865
H672	H	0.087153	0.213723	0.093071
H673	H	0.052906	0.216497	0.055962
H674	H	0.043582	0.273197	0.049909
H675	H	0.068505	0.327124	0.080966
H676	H	0.102751	0.324349	0.118076
H677	H	0.370598	-0.083850	-0.184076
H678	H	0.370892	0.301275	-0.184323
H679	H	0.552391	0.301235	-0.365822
C680	C	-0.780722	-0.324459	0.511643
C681	C	-0.781912	-0.307792	0.543810
C682	C	-0.824516	-0.329064	0.584812
C683	C	-0.865928	-0.367004	0.593646
C684	C	-0.864739	-0.383674	0.561478
C685	C	-0.822136	-0.362401	0.520476
H686	H	-0.751255	-0.279704	0.537271
H687	H	-0.825396	-0.316724	0.608625
H688	H	-0.897466	-0.382752	0.623998
H689	H	-0.895396	-0.411761	0.568017
H690	H	-0.821255	-0.374742	0.496663
C691	C	0.443192	0.311139	-0.303411
C692	C	0.484933	0.311410	-0.324277
C693	C	0.506081	0.311971	-0.303680
C694	C	0.485489	0.312262	-0.262216
C695	C	0.443745	0.311992	-0.241348
C696	C	0.422597	0.311430	-0.261945
H697	H	0.500179	0.311195	-0.354973
H698	H	0.536982	0.312171	-0.319128
H699	H	0.501144	0.312678	-0.246969
H700	H	0.428499	0.312207	-0.210652
H701	H	0.391696	0.311230	-0.246496
H702	H	0.617241	0.295963	-0.398133
H703	H	0.552607	0.301210	-0.468757
C704	C	0.338453	0.295605	-0.108696
C705	C	0.343852	0.263034	-0.105322
C706	C	0.363667	0.261449	-0.084130
C707	C	0.378083	0.292433	-0.066314
C708	C	0.372684	0.325006	-0.069688
C709	C	0.352870	0.326592	-0.090879
H710	H	0.333180	0.240095	-0.118511
H711	H	0.367663	0.237336	-0.081633
H712	H	0.392751	0.291260	-0.050626
H713	H	0.383356	0.347945	-0.056498
H714	H	0.348873	0.350705	-0.093377
H715	H	-0.117435	-0.186523	0.019040
C716	C	0.622583	0.295521	-0.511718
C717	C	0.622933	0.260547	-0.519641
C718	C	0.642658	0.258940	-0.560641
C719	C	0.662034	0.292306	-0.593717
C720	C	0.661686	0.327282	-0.585795
C721	C	0.641960	0.328889	-0.544795
H722	H	0.608589	0.235846	-0.495154
H723	H	0.642917	0.233049	-0.566505
H724	H	0.676637	0.291117	-0.624068
H725	H	0.676029	0.351984	-0.610282
H726	H	0.641702	0.354781	-0.538931
H727	H	-0.002525	-0.129181	0.028805
C728	C	0.096963	-0.325000	0.108630
C729	C	0.049856	-0.338724	0.122733
C730	C	0.030038	-0.360124	0.101542
C731	C	0.057327	-0.367799	0.066249
C732	C	0.104437	-0.354075	0.052145
C733	C	0.124255	-0.332675	0.073335
H734	H	0.029652	-0.333043	0.148860
H735	H	-0.004836	-0.370284	0.111984
H736	H	0.042657	-0.383641	0.050563
H737	H	0.124641	-0.359756	0.026017
H738	H	0.159130	-0.322515	0.062893
C739	C	-0.007802	-0.414167	0.303360
C740	C	-0.049561	-0.455626	0.324237
C741	C	-0.070743	-0.476199	0.303657
C742	C	-0.050166	-0.455313	0.262201
C743	C	-0.008404	-0.413851	0.241322
C744	C	0.012778	-0.393279	0.261901
H745	H	-0.064796	-0.471090	0.354927
H746	H	-0.101658	-0.506892	0.319114
H747	H	-0.065846	-0.470542	0.246967
H748	H	0.006830	-0.398388	0.210632
H749	H	0.043693	-0.362586	0.246445
C750	C	0.110828	-0.021176	0.028955
C751	C	0.131423	0.020290	0.029236
C752	C	0.172599	0.040875	0.029811
C753	C	0.193179	0.019994	0.030105
C754	C	0.172584	-0.021475	0.029823
C755	C	0.131409	-0.042059	0.029248
H756	H	0.116188	0.035749	0.029018
H757	H	0.187844	0.071572	0.030019
H758	H	0.223660	0.035232	0.030530
H759	H	0.187819	-0.036934	0.030041
H760	H	0.116164	-0.072757	0.029040
H761	H	-0.447603	-0.248768	0.184232
C762	C	0.381946	-0.243259	-0.019535
C763	C	0.383133	-0.259927	0.011443
C764	C	0.425732	-0.238652	0.009847
C765	C	0.467145	-0.200710	-0.022728
C766	C	0.465960	-0.184041	-0.053709
C767	C	0.423360	-0.205315	-0.052112
H768	H	0.352475	-0.288016	0.035559
H769	H	0.426609	-0.250993	0.032781
H770	H	0.498679	-0.184962	-0.023910
H771	H	0.496617	-0.155952	-0.077825
H772	H	0.422483	-0.192975	-0.075047
C773	C	0.381955	0.301643	-0.474579
C774	C	0.401772	0.300050	-0.515583
C775	C	0.444375	0.301652	-0.536857
C776	C	0.467161	0.304845	-0.517128
C777	C	0.447344	0.306437	-0.476122
C778	C	0.404741	0.304836	-0.454848
H779	H	0.384904	0.297686	-0.530189
H780	H	0.459045	0.300473	-0.567212
H781	H	0.498699	0.306030	-0.532877
H782	H	0.464212	0.308801	-0.461516
H783	H	0.390071	0.306015	-0.424493
C784	C	0.622350	-0.205589	-0.013456
C785	C	0.622671	-0.197597	0.021513
C786	C	0.642264	-0.156595	0.023111
C787	C	0.661537	-0.123585	-0.010260
C788	C	0.661217	-0.131576	-0.045232
C789	C	0.641623	-0.172578	-0.046830
H790	H	0.608403	-0.222034	0.046219
H791	H	0.642501	-0.150679	0.049000
H792	H	0.676041	-0.093232	-0.009078
H793	H	0.675484	-0.107139	-0.069938
H794	H	0.641386	-0.178493	-0.072719
H795	H	-0.182272	0.268459	0.398770
H796	H	-0.002524	-0.026519	0.028802
H797	H	-0.629125	-0.248761	0.365741
H798	H	0.167506	-0.083593	0.019063
H799	H	0.167516	0.097925	0.019049
H800	H	0.102618	0.168275	0.013770
H801	H	0.167269	0.098131	-0.468782
H802	H	-0.117214	-0.083584	0.019042
H803	H	-0.182070	-0.115902	0.013781
H804	H	-0.182293	-0.218837	0.013775
H805	H	0.167518	0.263140	0.184235
H806	H	0.437704	-0.306410	-0.028878
C807	C	0.097488	-0.229494	0.013367
C808	C	0.083164	-0.261666	0.044347
C809	C	0.063482	-0.302668	0.042747
C810	C	0.058124	-0.311497	0.010166
C811	C	0.072448	-0.279324	-0.020817
C812	C	0.092130	-0.238323	-0.019216
H813	H	0.087131	-0.255131	0.068468
H814	H	0.052878	-0.326484	0.065682
H815	H	0.043554	-0.341849	0.008981
H816	H	0.068482	-0.285860	-0.044938
H817	H	0.102734	-0.214507	-0.042152
C818	C	0.337910	-0.110868	-0.511717
C819	C	0.352223	-0.127533	-0.543886
C820	C	0.371896	-0.106258	-0.584887
C821	C	0.377256	-0.068319	-0.593718
C822	C	0.362943	-0.051652	-0.561548
C823	C	0.343270	-0.072926	-0.520547
H824	H	0.348255	-0.155620	-0.537349
H825	H	0.382491	-0.118597	-0.608701
H826	H	0.391819	-0.052570	-0.624069
H827	H	0.366911	-0.023565	-0.568085
H828	H	0.332675	-0.060588	-0.496733
H829	H	0.437930	-0.026285	-0.308746
H830	H	0.437935	-0.026287	-0.411409
H831	H	-0.629638	-0.533721	0.366252
H832	H	0.617485	0.168277	-0.501573
C833	C	0.324347	-0.414419	-0.029029
C834	C	0.303752	-0.393549	-0.029309
C835	C	0.262575	-0.414140	-0.029881
C836	C	0.241993	-0.455602	-0.030174
C837	C	0.262589	-0.476475	-0.029893
C838	C	0.303766	-0.455884	-0.029321
H839	H	0.318987	-0.362854	-0.029092
H840	H	0.247328	-0.398689	-0.030089
H841	H	0.211511	-0.470846	-0.030597
H842	H	0.247353	-0.507170	-0.030110
H843	H	0.319012	-0.471336	-0.029113
C844	C	-0.186930	-0.608899	0.392522
C845	C	-0.187249	-0.644188	0.384848
C846	C	-0.206842	-0.665379	0.363439
C847	C	-0.226116	-0.651280	0.349702
C848	C	-0.225798	-0.615990	0.357376
C849	C	-0.206205	-0.594799	0.378785
H850	H	-0.172980	-0.654626	0.395017
H851	H	-0.207077	-0.691503	0.357758
H852	H	-0.240620	-0.666967	0.333854
H853	H	-0.240067	-0.605552	0.347207
H854	H	-0.205970	-0.568675	0.384466
C855	C	0.443204	-0.414416	-0.029037
C856	C	0.484954	-0.393544	-0.029322
C857	C	0.506116	-0.414134	-0.029900
C858	C	0.485529	-0.455595	-0.030193
C859	C	0.443777	-0.476470	-0.029908
C860	C	0.422615	-0.455881	-0.029330
H861	H	0.500196	-0.362850	-0.029104
H862	H	0.537024	-0.398681	-0.030111
H863	H	0.501194	-0.470837	-0.030621
H864	H	0.428535	-0.507165	-0.030125
H865	H	0.391707	-0.471334	-0.029119
H866	H	-0.447397	-0.351491	0.184007
H867	H	0.333296	-0.216247	-0.013853
H868	H	0.552400	-0.248780	-0.019131
H869	H	0.230365	-0.603862	-0.013858
H870	H	-0.117201	-0.533500	0.468702
H871	H	0.267943	-0.533739	-0.019121
H872	H	0.100165	-0.026535	-0.411435
H873	H	0.064321	0.097912	-0.365848
H874	H	0.267931	-0.351506	-0.019101
H875	H	0.230346	-0.318966	-0.013835
H876	H	0.100368	-0.306171	0.308703
H877	H	-0.732075	-0.351477	0.468678
H878	H	0.064816	0.263199	0.468675
H879	H	0.064523	-0.351759	0.184259
H880	H	0.064526	-0.351765	0.468991
H881	H	-0.732353	-0.533492	0.468971
H882	H	0.267941	0.301250	-0.184099
H883	H	0.335046	0.310999	-0.308768
H884	H	0.167522	0.263171	0.365746
