data_functionalizedCrystal
_audit_creation_method	'MofGen! by Chris Wilmer'
_symmetry_space_group_name_H-M	'P1'
_symmetry_Int_Tables_number	1
_symmetry_cell_setting	triclinic
loop_
_symmetry_equiv_pos_as_xyz
  x,y,z
_cell_length_a	21.295418
_cell_length_b	25.639239
_cell_length_c	21.295411
_cell_angle_alpha	89.980474
_cell_angle_beta	89.956262
_cell_angle_gamma	90.054499
loop_
_atom_site_label
_atom_site_type_symbol
_atom_site_fract_x
_atom_site_fract_y
_atom_site_fract_z
Zn1	Zn	0.962320	-0.207990	-0.356243
Zn2	Zn	1.462320	0.292010	0.143757
Zn3	Zn	0.962207	-0.295410	-0.250972
Zn4	Zn	1.462207	0.204590	0.249028
Zn5	Zn	0.857043	-0.208014	-0.250953
Zn6	Zn	1.357043	0.291986	0.249047
Zn7	Zn	0.856998	-0.295420	-0.356169
Zn8	Zn	1.356998	0.204580	0.143831
O9	O	0.909642	-0.251708	-0.303584
O10	O	1.409642	0.248292	0.196416
O11	O	1.050395	-0.219572	-0.342318
O12	O	1.550395	0.280428	0.157682
O13	O	0.948229	-0.283822	-0.162880
O14	O	1.448229	0.216178	0.337120
O15	O	0.871075	-0.134846	-0.264943
O16	O	1.371075	0.365154	0.235057
O17	O	1.050312	-0.283799	-0.264976
O18	O	1.550312	0.216201	0.235024
O19	O	0.948421	-0.134828	-0.342299
O20	O	1.448421	0.365172	0.157701
O21	O	0.870965	-0.219613	-0.162866
O22	O	1.370965	0.280387	0.337134
O23	O	0.768948	-0.219623	-0.264871
O24	O	1.268948	0.280377	0.235129
O25	O	0.870997	-0.283816	-0.444268
O26	O	1.370997	0.216184	0.055732
O27	O	0.768914	-0.283840	-0.342172
O28	O	1.268914	0.216160	0.157828
O29	O	0.948377	-0.219582	-0.444322
O30	O	1.448377	0.280418	0.055678
O31	O	0.948185	-0.368576	-0.264904
O32	O	1.448185	0.131424	0.235096
O33	O	0.870888	-0.368584	-0.342191
O34	O	1.370888	0.131416	0.157809
C35	C	0.746090	-0.251736	-0.303512
C36	C	1.246090	0.248264	0.196488
C37	C	0.676122	-0.251760	-0.303496
C38	C	1.176122	0.248240	0.196504
C39	C	0.643255	-0.285242	-0.343686
C40	C	1.143255	0.214758	0.156314
C41	C	0.577512	-0.285229	-0.343715
C42	C	1.077512	0.214771	0.156285
C43	C	0.544640	-0.251740	-0.303541
C44	C	1.044640	0.248260	0.196459
C45	C	0.577515	-0.218252	-0.263347
C46	C	1.077515	0.281748	0.236653
C47	C	0.643257	-0.218262	-0.263325
C48	C	1.143257	0.281738	0.236675
N49	N	0.441365	-0.247648	-0.248483
N50	N	0.941365	0.252352	0.251517
N51	N	0.378913	-0.247641	-0.248506
N52	N	0.878913	0.252359	0.251494
C53	C	0.346565	-0.251707	-0.303608
C54	C	0.846565	0.248293	0.196392
N55	N	0.379028	-0.255789	-0.358686
N56	N	0.879028	0.244211	0.141314
N57	N	0.441485	-0.255799	-0.358662
N58	N	0.941485	0.244201	0.141338
C59	C	0.473354	-0.251725	-0.303561
C60	C	0.973354	0.248275	0.196439
C61	C	0.242412	-0.285176	-0.343832
C62	C	0.742412	0.214824	0.156168
C63	C	0.176668	-0.285160	-0.343862
C64	C	0.676668	0.214840	0.156138
C65	C	0.176673	-0.218185	-0.263489
C66	C	0.676673	0.281815	0.236511
C67	C	0.242415	-0.218199	-0.263465
C68	C	0.742415	0.281801	0.236535
C69	C	0.275281	-0.251697	-0.303636
C70	C	0.775281	0.248303	0.196364
C71	C	0.909536	-0.387551	-0.303555
C72	C	1.409536	0.112449	0.196445
C73	C	0.909548	-0.445665	-0.303564
C74	C	1.409548	0.054335	0.196436
C75	C	0.949996	-0.806011	-0.263409
C76	C	1.449996	-0.306011	0.236591
C77	C	0.950020	-0.860616	-0.263418
C78	C	1.450020	-0.360616	0.236582
O79	O	0.984300	-0.888838	-0.229245
O80	O	1.484300	-0.388838	0.270755
N81	N	0.909753	-0.887947	-0.303626
N82	N	1.409753	-0.387947	0.196374
C83	C	0.869463	-0.860672	-0.343833
C84	C	1.369463	-0.360672	0.156167
O85	O	0.835215	-0.888934	-0.378034
O86	O	1.335215	-0.388934	0.121966
C87	C	0.869442	-0.806069	-0.343827
C88	C	1.369442	-0.306069	0.156173
C89	C	0.909708	-0.778740	-0.303612
C90	C	1.409708	-0.278740	0.196388
C91	C	0.990259	-0.778683	-0.223198
C92	C	1.490259	-0.278683	0.276802
C93	C	0.990233	-0.724082	-0.223188
C94	C	1.490233	-0.224082	0.276812
C95	C	0.949945	-0.696810	-0.263391
C96	C	1.449945	-0.196810	0.236609
C97	C	0.909682	-0.724139	-0.303603
C98	C	1.409682	-0.224139	0.196397
C99	C	0.829156	-0.778794	-0.384037
C100	C	1.329156	-0.278794	0.115963
C101	C	0.829139	-0.724187	-0.384028
C102	C	1.329139	-0.224187	0.115972
C103	C	0.869404	-0.696858	-0.343812
C104	C	1.369404	-0.196858	0.156188
C105	C	0.869369	-0.642267	-0.343796
C106	C	1.369369	-0.142267	0.156204
N107	N	0.909636	-0.614935	-0.303588
N108	N	1.409636	-0.114935	0.196412
C109	C	0.949924	-0.642207	-0.263385
C110	C	1.449924	-0.142207	0.236615
C111	C	0.869510	-0.975343	-0.343842
C112	C	1.369510	-0.475343	0.156158
C113	C	0.869527	-1.029945	-0.343845
C114	C	1.369527	-0.529945	0.156155
C115	C	0.950086	-1.029885	-0.263431
C116	C	1.450086	-0.529885	0.236569
C117	C	0.950065	-0.975282	-0.263425
C118	C	1.450065	-0.475282	0.236575
C119	C	0.909778	-0.948011	-0.303634
C120	C	1.409778	-0.448011	0.196366
C121	C	0.949868	-0.527542	-0.263369
C122	C	1.449868	-0.027542	0.236631
C123	C	0.949837	-0.472937	-0.263361
C124	C	1.449837	0.027063	0.236639
C125	C	0.869281	-0.473001	-0.343778
C126	C	1.369281	0.026999	0.156222
C127	C	0.869309	-0.527602	-0.343783
C128	C	1.369309	-0.027602	0.156217
C129	C	0.909607	-0.554871	-0.303577
C130	C	1.409607	-0.054871	0.196423
O131	O	0.835108	-0.614010	-0.377953
O132	O	1.335108	-0.114010	0.122047
O133	O	0.984172	-0.613939	-0.229195
O134	O	1.484172	-0.113939	0.270805
C135	C	1.073832	-0.251681	-0.303657
C136	C	1.573832	0.248319	0.196343
C137	C	1.143801	-0.251670	-0.303688
C138	C	1.643801	0.248330	0.196312
C139	C	0.909694	-0.251697	-0.467774
C140	C	1.409694	0.248303	0.032226
C141	C	0.909717	-0.251693	-0.537743
C142	C	1.409717	0.248307	-0.037743
C143	C	0.909766	-0.115335	-0.303627
C144	C	1.409766	0.384665	0.196373
C145	C	0.909818	-0.057221	-0.303645
C146	C	1.409818	0.442779	0.196355
C147	C	0.950007	-0.218244	-0.570639
C148	C	1.450007	0.281756	-0.070639
C149	C	0.950006	-0.218221	-0.636381
C150	C	1.450006	0.281779	-0.136381
C151	C	0.909721	-0.251657	-0.669225
C152	C	1.409721	0.248343	-0.169225
C153	C	0.869424	-0.285108	-0.636321
C154	C	1.369424	0.214892	-0.136321
C155	C	0.869421	-0.285126	-0.570580
C156	C	1.369421	0.214874	-0.070580
N157	N	0.904857	-0.297396	-0.772441
N158	N	1.404857	0.202604	-0.272441
N159	N	0.904863	-0.297377	-0.834892
N160	N	1.404863	0.202623	-0.334892
C161	C	0.909725	-0.251604	-0.867300
C162	C	1.409725	0.248396	-0.367300
N163	N	0.914594	-0.205848	-0.834897
N164	N	1.414594	0.294152	-0.334897
N165	N	0.914591	-0.205867	-0.772440
N166	N	1.414591	0.294133	-0.272440
C167	C	0.909719	-0.251641	-0.740511
C168	C	1.409719	0.248359	-0.240511
C169	C	0.950017	-0.218128	-0.971482
C170	C	1.450017	0.281872	-0.471482
C171	C	0.950011	-0.218104	-1.037225
C172	C	1.450011	0.281896	-0.537225
C173	C	0.869433	-0.284995	-1.037164
C174	C	1.369433	0.215005	-0.537164
C175	C	0.869435	-0.285014	-0.971422
C176	C	1.369435	0.214986	-0.471422
C177	C	0.909730	-0.251581	-0.938584
C178	C	1.409730	0.248419	-0.438584
C179	C	0.909626	-0.251682	-0.140032
C180	C	1.409626	0.248318	0.359968
C181	C	0.909726	-0.251539	-0.070065
C182	C	1.409726	0.248461	0.429935
H183	H	0.149909	-0.190915	-0.230781
H184	H	0.649909	0.309085	0.269219
O185	O	0.144641	-0.317636	-0.382886
O186	O	0.644641	0.182364	0.117114
C187	C	0.043362	-0.347324	-0.418515
C188	C	0.543362	0.152676	0.081485
C189	C	0.079555	-0.310510	-0.374299
C190	C	0.579555	0.189490	0.125701
H191	H	-0.009266	-0.341583	-0.411578
H192	H	0.490734	0.158417	0.088422
H193	H	0.056313	-0.338210	-0.469304
H194	H	0.556313	0.161790	0.030696
H195	H	0.056253	-0.389466	-0.407366
H196	H	0.556253	0.110534	0.092634
H197	H	0.066684	-0.268356	-0.385391
H198	H	0.566684	0.231644	0.114609
H199	H	0.066602	-0.319668	-0.323523
H200	H	0.566602	0.180332	0.176477
O201	O	0.830397	-0.948911	-0.382986
O202	O	1.330397	-0.448911	0.117014
C203	C	0.799798	-0.932184	-0.490025
C204	C	1.299798	-0.432184	0.009975
C205	C	0.844121	-0.962156	-0.445766
C206	C	1.344121	-0.462156	0.054234
H207	H	0.810886	-0.942873	-0.540793
H208	H	1.310886	-0.442873	-0.040793
H209	H	0.749041	-0.942992	-0.478956
H210	H	1.249041	-0.442992	0.021044
H211	H	0.806683	-0.888465	-0.483087
H212	H	1.306683	-0.388465	0.016913
H213	H	0.837292	-1.005882	-0.452679
H214	H	1.337292	-0.505882	0.047321
H215	H	0.894862	-0.951304	-0.456846
H216	H	1.394862	-0.451304	0.043154
O217	O	0.988985	-0.446333	-0.224383
O218	O	1.488985	0.053667	0.275617
C219	C	1.073978	-0.384621	-0.216009
C220	C	1.573978	0.115379	0.283991
C221	C	1.029675	-0.414705	-0.260220
C222	C	1.529675	0.085295	0.239780
H223	H	1.106896	-0.359051	-0.244966
H224	H	1.606896	0.140949	0.255034
H225	H	1.045118	-0.359067	-0.183061
H226	H	1.545118	0.140933	0.316939
H227	H	1.102749	-0.413506	-0.187265
H228	H	1.602749	0.086494	0.312735
H229	H	1.000895	-0.385858	-0.289004
H230	H	1.500895	0.114142	0.210996
H231	H	1.058571	-0.440267	-0.293126
H232	H	1.558571	0.059733	0.206874
O233	O	0.989087	-0.185623	-1.069280
O234	O	1.489087	0.314377	-0.569280
C235	C	1.024818	-0.155963	-1.170584
C236	C	1.524818	0.344037	-0.670584
C237	C	0.980525	-0.192769	-1.134360
C238	C	1.480525	0.307231	-0.634360
H239	H	1.017920	-0.161736	-1.223208
H240	H	1.517920	0.338264	-0.723208
H241	H	1.013800	-0.113799	-1.157692
H242	H	1.513800	0.386201	-0.657692
H243	H	1.075563	-0.165134	-1.157663
H244	H	1.575563	0.334866	-0.657663
H245	H	0.929766	-0.183645	-1.147262
H246	H	1.429766	0.316355	-0.647262
H247	H	0.991597	-0.234922	-1.147256
H248	H	1.491597	0.265078	-0.647256
O249	O	0.989030	-0.553945	-0.224251
O250	O	1.489030	-0.053945	0.275749
C251	C	1.068949	-0.548108	-0.144510
C252	C	1.568949	-0.048108	0.355490
C253	C	1.024624	-0.518142	-0.188772
C254	C	1.524624	-0.018142	0.311228
H255	H	1.097747	-0.519175	-0.115823
H256	H	1.597747	-0.019175	0.384177
H257	H	1.040107	-0.573701	-0.111518
H258	H	1.540107	-0.073701	0.388482
H259	H	1.101840	-0.573640	-0.173460
H260	H	1.601840	-0.073640	0.326540
H261	H	0.991724	-0.492583	-0.159873
H262	H	1.491724	0.007417	0.340127
H263	H	1.053505	-0.492583	-0.221765
H264	H	1.553505	0.007417	0.278235
O265	O	0.545509	-0.317783	-0.382670
O266	O	1.045509	0.182217	0.117330
C267	C	0.471230	-0.388396	-0.390999
C268	C	0.971230	0.111604	0.109001
C269	C	0.507418	-0.351553	-0.346812
C270	C	1.007418	0.148447	0.153188
H271	H	0.440434	-0.415715	-0.362025
H272	H	0.940434	0.084285	0.137975
H273	H	0.440477	-0.364459	-0.423970
H274	H	0.940477	0.135541	0.076030
H275	H	0.506028	-0.412312	-0.419719
H276	H	1.006028	0.087688	0.080281
H277	H	0.472665	-0.327629	-0.318051
H278	H	0.972665	0.172371	0.181949
H279	H	0.538180	-0.375520	-0.313883
H280	H	1.038180	0.124480	0.186117
H281	H	0.269176	-0.190937	-0.230734
H282	H	0.769176	0.309063	0.269266
H283	H	1.023070	-0.800881	-0.190460
H284	H	1.523070	-0.300881	0.309540
O285	O	0.830430	-1.056570	-0.382848
O286	O	1.330430	-0.556570	0.117152
C287	C	0.794787	-1.140709	-0.418540
C288	C	1.294787	-0.640709	0.081460
C289	C	0.839083	-1.110624	-0.374323
C290	C	1.339083	-0.610624	0.125677
H291	H	0.801777	-1.184417	-0.411673
H292	H	1.301777	-0.684417	0.088327
H293	H	0.744015	-1.130070	-0.407420
H294	H	1.244015	-0.630070	0.092580
H295	H	0.805807	-1.129905	-0.469303
H296	H	1.305807	-0.629905	0.030697
H297	H	0.828120	-1.121412	-0.323546
H298	H	1.328120	-0.621412	0.176454
H299	H	0.889841	-1.121265	-0.385497
H300	H	1.389841	-0.621265	0.114503
H301	H	0.670017	-0.190995	-0.230596
H302	H	1.170017	0.309005	0.269404
H303	H	1.023023	-0.701834	-0.190444
H304	H	1.523023	-0.201834	0.309556
H305	H	0.796364	-0.801036	-0.416781
H306	H	1.296364	-0.301036	0.083219
O307	O	0.274245	-0.317726	-0.382918
O308	O	0.774245	0.182274	0.117082
C309	C	0.267304	-0.384171	-0.462617
C310	C	0.767304	0.115829	0.037383
C311	C	0.231177	-0.347328	-0.418394
C312	C	0.731177	0.152672	0.081606
H313	H	0.232499	-0.408122	-0.491301
H314	H	0.732499	0.091878	0.008699
H315	H	0.298136	-0.360236	-0.495613
H316	H	0.798136	0.139764	0.004387
H317	H	0.298028	-0.411459	-0.433637
H318	H	0.798028	0.088541	0.066363
H319	H	0.200419	-0.320033	-0.447323
H320	H	0.700419	0.179967	0.052677
H321	H	0.200385	-0.371296	-0.385396
H322	H	0.700385	0.128704	0.114604
O323	O	0.830367	-0.317585	-0.939492
O324	O	1.330367	0.182415	-0.439492
C325	C	0.799699	-0.406530	-0.919385
C326	C	1.299699	0.093470	-0.419385
C327	C	0.843997	-0.369703	-0.955571
C328	C	1.343997	0.130297	-0.455571
H329	H	0.810695	-0.448675	-0.932381
H330	H	1.310695	0.051325	-0.432381
H331	H	0.806618	-0.400846	-0.866749
H332	H	1.306618	0.099154	-0.366749
H333	H	0.748954	-0.397324	-0.932268
H334	H	1.248954	0.102676	-0.432268
H335	H	0.894760	-0.378886	-0.942741
H336	H	1.394760	0.121114	-0.442741
H337	H	0.837025	-0.375394	-1.008198
H338	H	1.337025	0.124606	-0.508198
H339	H	0.982893	-1.052099	-0.230698
H340	H	1.482893	-0.552099	0.269302
O341	O	0.989195	-0.185832	-0.538705
O342	O	1.489195	0.314168	-0.038705
C343	C	1.074135	-0.178775	-0.464487
C344	C	1.574135	0.321225	0.035513
C345	C	1.029816	-0.215547	-0.500631
C346	C	1.529816	0.284453	-0.000631
H347	H	1.106979	-0.202785	-0.433685
H348	H	1.606979	0.297215	0.066315
H349	H	1.102977	-0.154864	-0.499258
H350	H	1.602977	0.345136	0.000742
H351	H	1.045222	-0.151448	-0.433726
H352	H	1.545222	0.348552	0.066274
H353	H	1.058680	-0.242906	-0.531392
H354	H	1.558680	0.257094	-0.031392
H355	H	1.000971	-0.239422	-0.465826
H356	H	1.500971	0.260578	0.034174
H357	H	0.836524	-0.549854	-0.376532
H358	H	1.336524	-0.049854	0.123468
H359	H	0.836609	-0.312363	-0.543796
H360	H	1.336609	0.187637	-0.043796
O361	O	0.989240	-0.948817	-0.224343
O362	O	1.489240	-0.448817	0.275657
C363	C	1.069113	-0.954536	-0.144553
C364	C	1.569113	-0.454536	0.355447
C365	C	1.024788	-0.984568	-0.188793
C366	C	1.524788	-0.484568	0.311207
H367	H	1.097856	-0.983427	-0.115790
H368	H	1.597856	-0.483427	0.384210
H369	H	1.102051	-0.928943	-0.173458
H370	H	1.602051	-0.428943	0.326542
H371	H	1.040210	-0.929000	-0.111624
H372	H	1.540210	-0.429000	0.388376
H373	H	1.053640	-1.010133	-0.221730
H374	H	1.553640	-0.510133	0.278270
H375	H	0.991848	-1.010128	-0.159848
H376	H	1.491848	-0.510128	0.340152
H377	H	0.670010	-0.312519	-0.376398
H378	H	1.170010	0.187481	0.123602
O379	O	0.989172	-0.185599	-0.939676
O380	O	1.489172	0.314401	-0.439676
C381	C	1.069118	-0.119272	-0.946674
C382	C	1.569118	0.380728	-0.446674
C383	C	1.024797	-0.156075	-0.982769
C384	C	1.524797	0.343925	-0.482769
H385	H	1.097941	-0.095400	-0.981499
H386	H	1.597941	0.404600	-0.481499
H387	H	1.040271	-0.091913	-0.915890
H388	H	1.540271	0.408087	-0.415890
H389	H	1.101985	-0.143288	-0.915904
H390	H	1.601985	0.356712	-0.415904
H391	H	0.991920	-0.132101	-1.013573
H392	H	1.491920	0.367899	-0.513573
H393	H	1.053683	-0.183435	-1.013513
H394	H	1.553683	0.316565	-0.513513
H395	H	0.796333	-0.701986	-0.416773
H396	H	1.296333	-0.201986	0.083227
O397	O	0.830234	-0.317605	-0.668125
O398	O	1.330234	0.182395	-0.168125
C399	C	0.750338	-0.383973	-0.661128
C400	C	1.250338	0.116027	-0.161128
C401	C	0.794682	-0.347189	-0.625033
C402	C	1.294682	0.152811	-0.125033
H403	H	0.721592	-0.407909	-0.626303
H404	H	1.221592	0.092091	-0.126303
H405	H	0.717404	-0.359991	-0.691867
H406	H	1.217404	0.140009	-0.191867
H407	H	0.779226	-0.411277	-0.691942
H408	H	1.279226	0.088723	-0.191942
H409	H	0.765844	-0.319878	-0.594184
H410	H	1.265844	0.180122	-0.094184
H411	H	0.827617	-0.371203	-0.594333
H412	H	1.327617	0.128797	-0.094333
H413	H	0.982813	-0.190981	-0.663170
H414	H	1.482813	0.309019	-0.163170
O415	O	0.545560	-0.185797	-0.224251
O416	O	1.045560	0.314203	0.275749
C417	C	0.471230	-0.178651	-0.139322
C418	C	0.971230	0.321349	0.360678
C419	C	0.507389	-0.215468	-0.183549
C420	C	1.007389	0.284532	0.316451
H421	H	0.440350	-0.202625	-0.106412
H422	H	0.940350	0.297375	0.393588
H423	H	0.505990	-0.154732	-0.110545
H424	H	1.005990	0.345268	0.389455
H425	H	0.440545	-0.151333	-0.168302
H426	H	0.940545	0.348667	0.331698
H427	H	0.538074	-0.242819	-0.154618
H428	H	1.038074	0.257181	0.345382
H429	H	0.472594	-0.239351	-0.212329
H430	H	0.972594	0.260649	0.287671
O431	O	0.830207	-0.446423	-0.382810
O432	O	1.330207	0.053577	0.117190
C433	C	0.794458	-0.362324	-0.418407
C434	C	1.294458	0.137676	0.081593
C435	C	0.838747	-0.392359	-0.374178
C436	C	1.338747	0.107641	0.125822
H437	H	0.801338	-0.318608	-0.411434
H438	H	1.301338	0.181392	0.088566
H439	H	0.805497	-0.372987	-0.469195
H440	H	1.305497	0.127013	0.030805
H441	H	0.743714	-0.373146	-0.407304
H442	H	1.243714	0.126854	0.092696
H443	H	0.889506	-0.381553	-0.385224
H444	H	1.389506	0.118447	0.114776
H445	H	0.827654	-0.381693	-0.323403
H446	H	1.327654	0.118307	0.176597
O447	O	0.830364	-0.317462	-1.069158
O448	O	1.330364	0.182538	-0.569158
C449	C	0.794638	-0.347065	-1.170409
C450	C	1.294638	0.152935	-0.670409
C451	C	0.838926	-0.310277	-1.134251
C452	C	1.338926	0.189723	-0.634251
H453	H	0.801536	-0.341261	-1.223043
H454	H	1.301536	0.158739	-0.723043
H455	H	0.805662	-0.389235	-1.157535
H456	H	1.305662	0.110765	-0.657535
H457	H	0.743892	-0.337907	-1.157411
H458	H	1.243892	0.162093	-0.657411
H459	H	0.889687	-0.319387	-1.147230
H460	H	1.389687	0.180613	-0.647230
H461	H	0.827848	-0.268117	-1.147128
H462	H	1.327848	0.231883	-0.647128
