data_functionalizedCrystal
_audit_creation_method	'MofGen! by Chris Wilmer'
_symmetry_space_group_name_H-M	'P1'
_symmetry_Int_Tables_number	1
_symmetry_cell_setting	triclinic
loop_
_symmetry_equiv_pos_as_xyz
  x,y,z
_cell_length_a	6.817900
_cell_length_b	11.168121
_cell_length_c	16.256277
_cell_angle_alpha	93.879727
_cell_angle_beta	103.500353
_cell_angle_gamma	108.508496
loop_
_atom_site_label
_atom_site_type_symbol
_atom_site_fract_x
_atom_site_fract_y
_atom_site_fract_z
V1	V	-4.052558	-0.175725	-0.263881
O2	O	-4.013235	0.007394	-0.258850
O3	O	-4.029236	-0.347423	-0.262083
O4	O	-4.003848	-0.173483	-0.378965
O5	O	-4.038799	-0.167750	-0.141159
V6	V	-4.532976	-0.153767	-0.249201
O7	O	-4.320626	-0.223891	-0.296081
O8	O	-4.715105	-0.105602	-0.217001
O9	O	-4.333092	0.017931	-0.250999
O10	O	-4.689696	-0.336887	-0.254232
O11	O	-4.664132	-0.161742	-0.371923
O12	O	-4.358479	-0.156010	-0.134117
C13	C	-3.880347	-0.389265	-0.257922
C14	C	-3.942564	-0.529634	-0.257219
C15	C	-4.144269	-0.598341	-0.260920
C16	C	-4.208577	-0.743419	-0.260194
C17	C	-3.847961	-0.167385	-0.407016
C18	C	-3.889585	-0.166688	-0.501098
C19	C	-4.181242	-0.171560	-0.732918
C20	C	-4.058850	-0.063192	-0.776004
C21	C	-3.965690	-0.165375	-0.673344
C22	C	-4.162190	-0.272424	-0.797887
C23	C	-4.039221	-0.164114	-0.839727
C24	C	-3.842707	-0.056930	-0.715182
C25	C	-3.946118	-0.266257	-0.737070
C26	C	-3.823563	-0.157859	-0.780125
C27	C	-3.923336	-0.166101	-0.577495
C28	C	-4.081555	-0.163378	-0.935573
C29	C	-4.145323	0.059766	-0.255158
C30	C	-4.062345	0.200134	-0.255866
C31	C	-4.177709	-0.162111	-0.106062
C32	C	-4.115322	-0.162802	-0.011979
H33	H	-3.817488	-0.578218	-0.253518
F34	F	-3.836478	-0.722678	-0.251720
H35	H	-4.106887	0.022670	-0.793393
F36	F	-3.665734	0.062219	-0.668399
H37	H	-4.381365	-0.802480	-0.263352
F38	F	-4.378219	-0.178971	-0.705612
F39	F	-3.626219	-0.150242	-0.807200
H40	H	-4.297678	-0.363483	-0.833777
F41	F	-4.307769	-0.534847	-0.265770
F42	F	-3.883415	-0.378496	-0.714319
