data_functionalizedCrystal
_audit_creation_method	'MofGen! by Chris Wilmer'
_symmetry_space_group_name_H-M	'P1'
_symmetry_Int_Tables_number	1
_symmetry_cell_setting	triclinic
loop_
_symmetry_equiv_pos_as_xyz
  x,y,z
_cell_length_a	19.077105
_cell_length_b	14.908520
_cell_length_c	19.076919
_cell_angle_alpha	84.570994
_cell_angle_beta	89.923776
_cell_angle_gamma	91.150228
loop_
_atom_site_label
_atom_site_type_symbol
_atom_site_fract_x
_atom_site_fract_y
_atom_site_fract_z
Zn1	Zn	1.037881	-0.436364	0.459234
Zn2	Zn	1.035744	-0.581390	0.347980
Zn3	Zn	0.925663	-0.424281	0.336506
Zn4	Zn	0.913591	-0.580846	0.460710
O5	O	0.978220	-0.505720	0.401107
O6	O	1.135682	-0.460886	0.448660
O7	O	1.025299	-0.555720	0.247919
O8	O	0.946495	-0.299666	0.347366
O9	O	1.134112	-0.567437	0.366923
O10	O	1.028941	-0.308543	0.437534
O11	O	0.944423	-0.440292	0.239489
O12	O	0.825977	-0.439765	0.348797
O13	O	0.925920	-0.566510	0.559053
O14	O	0.817107	-0.554793	0.440049
O15	O	1.017235	-0.460359	0.557969
O16	O	1.013594	-0.707536	0.368354
O17	O	0.923848	-0.707136	0.451175
C18	C	0.796110	-0.495910	0.393339
C19	C	0.718201	-0.491735	0.390033
C20	C	0.676998	-0.549746	0.435923
C21	C	0.603795	-0.545812	0.432820
C22	C	0.571795	-0.483870	0.383823
C23	C	0.613003	-0.425853	0.337931
C24	C	0.686205	-0.429783	0.341038
C25	C	0.353358	-0.465680	0.369446
C26	C	0.280150	-0.461756	0.366341
C27	C	0.270947	-0.581715	0.461231
C28	C	0.344151	-0.585643	0.464331
C29	C	0.385353	-0.527623	0.418441
N30	N	0.496969	-0.479850	0.380648
N31	N	0.460177	-0.531640	0.421620
C32	C	0.967198	-0.740065	0.411186
C33	C	0.962545	-0.840323	0.415524
C34	C	1.047344	-1.029082	0.337510
C35	C	1.042976	-1.123283	0.341584
C36	C	0.949443	-1.122929	0.427749
C37	C	0.953812	-1.028727	0.423675
C38	C	1.002763	-0.981807	0.378553
C39	C	1.007128	-0.887604	0.374476
C40	C	0.913600	-0.887251	0.460644
C41	C	0.909231	-0.981453	0.464718
C42	C	1.161040	-0.515570	0.408907
C43	C	1.238948	-0.519767	0.412230
C44	C	0.970470	-0.514721	0.584776
C45	C	0.967167	-0.518557	0.663044
C46	C	0.989303	-0.270463	0.391006
C47	C	0.994026	-0.170210	0.386701
C48	C	0.985983	-0.496691	0.218153
C49	C	0.989433	-0.492609	0.139879
C50	C	1.013156	-0.465095	0.699251
C51	C	1.010044	-0.468695	0.772793
C52	C	0.960947	-0.525763	0.810125
C53	C	0.914953	-0.579227	0.773913
C54	C	0.918062	-0.575622	0.700373
C55	C	0.946548	-0.542468	1.030127
C56	C	0.943444	-0.546071	1.103672
C57	C	1.038535	-0.435537	1.102547
C58	C	1.041642	-0.431941	1.029006
C59	C	0.995646	-0.485402	0.992799
N60	N	0.957767	-0.529446	0.885296
N61	N	0.998824	-0.481713	0.917629
H62	H	0.586943	-0.375415	0.298039
H63	H	0.869378	-1.019668	0.501457
O64	O	0.375312	-0.645689	0.511966
C65	C	0.418136	-0.598929	0.557116
H66	H	0.433359	-0.529904	0.529888
H67	H	0.388190	-0.590160	0.607691
C68	C	0.466104	-0.737714	0.608339
C69	C	0.484807	-0.652939	0.574895
H70	H	0.507228	-0.771031	0.619310
H71	H	0.437251	-0.769218	0.577923
H72	H	0.441148	-0.730395	0.650481
H73	H	0.509754	-0.660259	0.532750
H74	H	0.513666	-0.621437	0.605305
H75	H	1.075982	-0.392011	1.132034
O76	O	1.054696	-0.416628	0.807875
C77	C	1.044362	-0.325028	0.785394
H78	H	1.019759	-0.319098	0.730770
H79	H	1.008012	-0.294727	0.823938
C80	C	1.145631	-0.281196	0.849652
C81	C	1.115418	-0.273912	0.782558
H82	H	1.189460	-0.249663	0.847905
H83	H	1.152592	-0.342908	0.864800
H84	H	1.115332	-0.255945	0.881765
H85	H	1.145712	-0.299172	0.750449
H86	H	1.108464	-0.212202	0.767405
H87	H	0.877297	-0.848750	0.494062
O88	O	0.895684	-0.601529	1.139828
C89	C	0.855764	-0.647959	1.092104
H90	H	0.857289	-0.608315	1.037992
H91	H	0.878532	-0.717462	1.088318
C92	C	0.777469	-0.707034	1.184644
C93	C	0.779337	-0.658338	1.118184
H94	H	0.730326	-0.713441	1.200733
H95	H	0.804365	-0.675756	1.216798
H96	H	0.796446	-0.764948	1.181480
H97	H	0.760369	-0.600422	1.121351
H98	H	0.752436	-0.689607	1.086032
H99	H	1.053138	-0.418626	0.668861
H100	H	1.046985	-0.849402	0.337734
O101	O	0.901966	-0.594450	0.994898
C102	C	0.940913	-0.652795	0.956576
H103	H	0.995994	-0.623310	0.946448
H104	H	0.944271	-0.721437	0.988122
C105	C	0.836862	-0.699847	0.898224
C106	C	0.904512	-0.663630	0.885779
H107	H	0.814407	-0.706535	0.854554
H108	H	0.810622	-0.660542	0.924044
H109	H	0.839670	-0.757045	0.924514
H110	H	0.901703	-0.606429	0.859497
H111	H	0.930751	-0.702926	0.859953
H112	H	0.874974	-0.625690	0.804315
H113	H	1.087198	-0.990878	0.300765
O114	O	0.873366	-0.627657	0.665311
C115	C	0.829356	-0.678790	0.714029
H116	H	0.855700	-0.686019	0.767813
H117	H	0.777343	-0.643286	0.718152
C118	C	0.783604	-0.763960	0.622962
C119	C	0.815962	-0.772845	0.689020
H120	H	0.775338	-0.821976	0.607535
H121	H	0.813252	-0.729508	0.590139
H122	H	0.740263	-0.734370	0.626407
H123	H	0.859306	-0.802424	0.685572
H124	H	0.786321	-0.807304	0.721842
H125	H	0.386895	-0.418442	0.332074
H126	H	0.909594	-1.161148	0.464489
O127	O	0.230821	-0.637975	0.505778
C128	C	0.159348	-0.621243	0.492521
H129	H	0.153587	-0.549928	0.466125
H130	H	0.137640	-0.671714	0.456371
C131	C	0.125457	-0.718712	0.594946
C132	C	0.118381	-0.631119	0.562532
H133	H	0.100185	-0.724808	0.638131
H134	H	0.173609	-0.729988	0.603876
H135	H	0.107368	-0.760762	0.564814
H136	H	0.136478	-0.589072	0.592659
H137	H	0.070231	-0.619836	0.553608
H138	H	0.703047	-0.600189	0.475819
O139	O	0.249178	-0.401499	0.318722
C140	C	0.301239	-0.351146	0.278873
H141	H	0.352353	-0.352291	0.309802
H142	H	0.309726	-0.381859	0.227095
C143	C	0.214816	-0.251701	0.225522
C144	C	0.277595	-0.253101	0.263512
H145	H	0.200231	-0.191223	0.216043
H146	H	0.179741	-0.285627	0.252367
H147	H	0.221897	-0.277300	0.182378
H148	H	0.270511	-0.227513	0.306658
H149	H	0.312668	-0.219168	0.236674
O150	O	0.726127	-0.373398	0.296384
C151	C	0.682188	-0.317871	0.252481
H152	H	0.628374	-0.351885	0.249371
H153	H	0.676536	-0.250268	0.275079
C154	C	0.780616	-0.260810	0.182019
C155	C	0.714523	-0.302591	0.178195
H156	H	0.800562	-0.251380	0.136196
H157	H	0.810219	-0.298217	0.211599
H158	H	0.775897	-0.204479	0.200853
H159	H	0.719244	-0.358925	0.159369
H160	H	0.684921	-0.265193	0.148610
H161	H	0.570251	-0.593052	0.470187
O162	O	1.089263	-0.376354	0.992779
C163	C	1.077415	-0.286527	1.006267
H164	H	1.020776	-0.279966	1.023887
H165	H	1.114289	-0.267077	1.049560
C166	C	1.160739	-0.231601	0.917078
C167	C	1.091172	-0.223541	0.938713
H168	H	1.169227	-0.192746	0.875409
H169	H	1.168723	-0.292119	0.907992
H170	H	1.191459	-0.215393	0.953161
H171	H	1.060453	-0.239759	0.902634
H172	H	1.083183	-0.163024	0.947792
H173	H	1.079279	-1.161771	0.308163
