data_functionalizedCrystal
_audit_creation_method	'MofGen! by Chris Wilmer'
_symmetry_space_group_name_H-M	'P1'
_symmetry_Int_Tables_number	1
_symmetry_cell_setting	triclinic
loop_
_symmetry_equiv_pos_as_xyz
  x,y,z
_cell_length_a	6.817900
_cell_length_b	12.200722
_cell_length_c	12.200875
_cell_angle_alpha	93.008822
_cell_angle_beta	107.143593
_cell_angle_gamma	107.140920
loop_
_atom_site_label
_atom_site_type_symbol
_atom_site_fract_x
_atom_site_fract_y
_atom_site_fract_z
V1	V	-4.086871	-0.158974	-0.357783
V2	V	-3.753538	0.174360	-0.024450
V3	V	-3.420205	0.507693	0.308884
O4	O	-4.054179	0.007371	-0.350847
O5	O	-3.720846	0.340705	-0.017514
O6	O	-3.387512	0.674038	0.315820
O7	O	-4.056310	-0.314960	-0.355457
O8	O	-3.722976	0.018373	-0.022123
O9	O	-3.389643	0.351707	0.311210
O10	O	-4.056323	-0.156646	-0.513769
O11	O	-3.722989	0.176687	-0.180436
O12	O	-3.389656	0.510021	0.152897
O13	O	-4.054166	-0.152039	-0.191438
O14	O	-3.720833	0.181294	0.141895
O15	O	-3.387499	0.514628	0.475229
V16	V	-4.565875	-0.139063	-0.337872
V17	V	-4.232541	0.194270	-0.004539
V18	V	-3.899208	0.527604	0.328795
O19	O	-4.358044	-0.202649	-0.401459
O20	O	-4.024711	0.130684	-0.068126
O21	O	-3.691377	0.464017	0.265208
O22	O	-4.744899	-0.095387	-0.294196
O23	O	-4.411566	0.237946	0.039137
O24	O	-4.078233	0.571279	0.372471
O25	O	-4.373230	0.016924	-0.340199
O26	O	-4.039896	0.350257	-0.006865
O27	O	-3.706563	0.683590	0.326468
O28	O	-4.715964	-0.305408	-0.344808
O29	O	-4.382631	0.027926	-0.011475
O30	O	-4.049297	0.361259	0.321858
O31	O	-4.715977	-0.145998	-0.504217
O32	O	-4.382644	0.187336	-0.170884
O33	O	-4.049310	0.520669	0.162450
O34	O	-4.373217	-0.141391	-0.181886
O35	O	-4.039883	0.191943	0.151448
O36	O	-3.706550	0.525276	0.484781
C37	C	-3.905073	-0.352982	-0.349844
C38	C	-3.571739	-0.019649	-0.016510
C39	C	-3.238406	0.313684	0.316823
C40	C	-3.961491	-0.480504	-0.348981
C41	C	-3.628157	-0.147171	-0.015648
C42	C	-3.294824	0.186163	0.317685
C43	C	-3.905088	-0.151036	-0.551786
C44	C	-3.571755	0.182298	-0.218453
C45	C	-3.238421	0.515631	0.114881
C46	C	-3.961513	-0.150165	-0.679306
C47	C	-3.628179	0.183169	-0.345973
C48	C	-3.294846	0.516502	-0.012640
C49	C	-4.007301	-0.584064	-0.348270
C50	C	-3.673968	-0.250731	-0.014937
C51	C	-3.340634	0.082602	0.318397
C52	C	-4.064792	-0.713986	-0.347384
C53	C	-3.731459	-0.380653	-0.014050
C54	C	-3.398126	-0.047319	0.319283
C55	C	-4.064778	-0.148571	-0.912780
C56	C	-3.731445	0.184762	-0.579446
C57	C	-3.398112	0.518095	-0.246113
C58	C	-4.007305	-0.149457	-0.782858
C59	C	-3.673972	0.183876	-0.449525
C60	C	-3.340639	0.517209	-0.116192
C61	C	-4.187809	0.054940	-0.345808
C62	C	-3.854476	0.388273	-0.012475
C63	C	-3.521143	0.721607	0.320858
C64	C	-4.110630	0.182460	-0.346678
C65	C	-3.777297	0.515794	-0.013345
C66	C	-3.443964	0.849127	0.319988
C67	C	-4.187793	-0.147005	-0.143863
C68	C	-3.854460	0.186329	0.189470
C69	C	-3.521127	0.519662	0.522803
C70	C	-4.110606	-0.147870	-0.016342
C71	C	-3.777273	0.185464	0.316992
C72	C	-3.443940	0.518797	0.650325
