data_functionalizedCrystal
_audit_creation_method	'MofGen! by Chris Wilmer'
_symmetry_space_group_name_H-M	'P1'
_symmetry_Int_Tables_number	1
_symmetry_cell_setting	triclinic
loop_
_symmetry_equiv_pos_as_xyz
  x,y,z
_cell_length_a	10.654551
_cell_length_b	15.995292
_cell_length_c	9.730223
_cell_angle_alpha	90.001861
_cell_angle_beta	90.000351
_cell_angle_gamma	83.976943
loop_
_atom_site_label
_atom_site_type_symbol
_atom_site_fract_x
_atom_site_fract_y
_atom_site_fract_z
O1	O	1.666260	0.117605	-0.114262
O2	O	1.300632	0.128809	-0.114267
O3	O	1.493479	0.001375	-0.114266
O4	O	1.473413	0.245040	-0.114262
O5	O	1.493477	0.001378	0.114314
O6	O	1.300630	0.128812	0.114313
O7	O	1.666258	0.117609	0.114318
Zn8	Zn	1.483443	0.123211	0.150608
Zn9	Zn	1.483446	0.123207	-0.150556
O10	O	1.473411	0.245043	0.114317
C11	C	1.253844	0.127988	0.000022
C12	C	1.114434	0.125526	0.000019
C13	C	0.917947	0.122049	0.124620
C14	C	1.048936	0.124370	0.124620
C15	C	1.048933	0.124371	-0.124590
C16	C	0.917945	0.122056	-0.124589
C17	C	0.852458	0.120884	0.249229
C18	C	0.917950	0.122041	0.373839
C19	C	1.048939	0.124362	0.373839
C20	C	1.114437	0.125525	0.249230
C21	C	1.492661	-0.029824	0.000020
C22	C	1.490213	-0.122791	0.000010
C23	C	1.481212	-0.460582	0.000022
C24	C	1.620404	-0.436461	0.000535
C25	C	1.623049	-0.339770	0.000015
C26	C	1.485678	-0.293000	0.000017
C27	C	1.416090	-0.322507	-0.130510
C28	C	1.414414	-0.419308	-0.130615
C29	C	1.411570	-0.419177	0.129324
C30	C	1.416728	-0.322655	0.131044
C31	C	1.488195	-0.198289	0.000009
C32	C	1.478691	-0.555292	0.000021
C33	C	1.713046	0.118430	0.000026
C34	C	1.852456	0.120891	0.000020
C35	C	1.474229	0.276242	0.000028
C36	C	1.476677	0.369209	0.000029
N37	N	1.483451	0.123213	0.356144
N38	N	1.483449	0.123198	-0.356093
C39	C	1.568865	0.066805	0.428070
C40	C	1.568862	0.066794	0.571953
C41	C	1.398026	0.179609	0.571971
C42	C	1.398024	0.179615	0.428090
C43	C	1.654291	0.010403	0.356124
C44	C	1.739714	-0.046009	0.428050
C45	C	1.739710	-0.046019	0.571933
C46	C	1.654285	0.010383	0.643890
H47	H	0.864621	0.121116	-0.226050
H48	H	1.102257	0.125312	0.475303
O49	O	1.695264	-0.314139	0.123929
H50	H	1.728611	-0.370853	0.184766
O51	O	1.283923	-0.279740	0.141528
H52	H	1.264897	-0.236419	0.053109
H53	H	0.864611	0.121101	0.475291
H54	H	1.674054	-0.464145	0.094142
H55	H	1.462610	-0.445845	-0.228187
O56	O	1.305923	0.240456	0.649582
H57	H	1.246528	0.279684	0.575394
H58	H	1.221095	0.127425	0.249240
O59	O	1.691088	-0.474477	-0.122761
H60	H	1.627514	-0.510475	-0.184408
H61	H	1.677872	-0.321048	-0.093714
O62	O	1.831841	-0.106850	0.350458
H63	H	1.815846	-0.172222	0.378065
O64	O	1.119587	0.125613	-0.258975
H65	H	1.083253	0.182139	-0.318727
O66	O	1.279239	-0.439379	-0.138491
H67	H	1.215354	-0.379966	-0.142220
O68	O	1.282187	-0.281078	-0.136962
H69	H	1.283140	-0.211812	-0.141547
O70	O	1.275861	-0.438507	0.130499
H71	H	1.212521	-0.378848	0.127137
O72	O	0.711179	0.118375	0.249202
H73	H	0.665405	0.174731	0.302982
H74	H	1.654281	0.010364	0.761049
O75	O	1.480410	-0.295878	-0.259191
H76	H	1.561885	-0.261598	-0.230511
O77	O	1.469325	-0.456257	0.260382
H78	H	1.548320	-0.504617	0.234818
O79	O	1.483825	-0.297666	0.258964
H80	H	1.565937	-0.264260	0.229363
O81	O	1.831850	-0.106857	0.649507
H82	H	1.815899	-0.172233	0.621869
O83	O	1.654280	0.010409	0.200937
H84	H	1.728021	-0.038291	0.162988
O85	O	1.305909	0.240458	0.350496
H86	H	1.246521	0.279686	0.424694
