data_functionalizedCrystal
_audit_creation_method	'MofGen! by Chris Wilmer'
_symmetry_space_group_name_H-M	'P1'
_symmetry_Int_Tables_number	1
_symmetry_cell_setting	triclinic
loop_
_symmetry_equiv_pos_as_xyz
  x,y,z
_cell_length_a	17.699077
_cell_length_b	15.944545
_cell_length_c	16.176319
_cell_angle_alpha	89.991096
_cell_angle_beta	89.993140
_cell_angle_gamma	83.388374
loop_
_atom_site_label
_atom_site_type_symbol
_atom_site_fract_x
_atom_site_fract_y
_atom_site_fract_z
O1	O	1.004261	0.106198	-0.068739
O2	O	1.504261	0.606198	0.431261
O3	O	0.783905	0.120023	-0.068744
O4	O	1.283905	0.620023	0.431256
O5	O	0.900103	-0.009177	-0.068732
O6	O	1.400103	0.490823	0.431268
O7	O	0.888063	0.235399	-0.068752
O8	O	1.388063	0.735399	0.431248
O9	O	0.900087	-0.009185	0.068761
O10	O	1.400087	0.490815	0.568761
O11	O	0.783889	0.120015	0.068749
O12	O	1.283889	0.620015	0.568749
O13	O	1.004245	0.106190	0.068754
O14	O	1.504245	0.606190	0.568754
Cu15	Cu	0.894066	0.113102	0.081306
Cu16	Cu	1.394066	0.613102	0.581306
Cu17	Cu	0.894084	0.113112	-0.081296
Cu18	Cu	1.394084	0.613112	0.418704
O19	O	0.888047	0.235391	0.068742
O20	O	1.388047	0.735391	0.568742
C21	C	0.755699	0.119525	0.000002
C22	C	1.255699	0.619525	0.500002
C23	C	0.671678	0.118041	0.000001
C24	C	1.171678	0.618041	0.500001
C25	C	0.632201	0.117338	0.074949
C26	C	1.132201	0.617338	0.574949
C27	C	0.553256	0.115930	0.074950
C28	C	1.053256	0.615930	0.574950
C29	C	0.513789	0.115232	0.000002
C30	C	1.013789	0.615232	0.500002
C31	C	0.553272	0.115934	-0.074952
C32	C	1.053272	0.615934	0.425048
C33	C	0.632217	0.117335	-0.074953
C34	C	1.132217	0.617335	0.425047
C35	C	0.234900	0.110281	-0.074953
C36	C	0.734900	0.610281	0.425047
C37	C	0.155950	0.108882	-0.074948
C38	C	0.655950	0.608882	0.425052
C39	C	0.155939	0.108876	0.074949
C40	C	0.655939	0.608876	0.574949
C41	C	0.234883	0.110278	0.074949
C42	C	0.734883	0.610278	0.574949
C43	C	0.274360	0.110974	-0.000005
C44	C	0.774360	0.610974	0.499995
C45	C	0.359961	0.112499	-0.000005
C46	C	0.859961	0.612499	0.499995
C47	C	0.428189	0.113714	0.000001
C48	C	0.928189	0.613714	0.500001
C49	C	0.899596	-0.040474	0.000016
C50	C	1.399596	0.459526	0.500016
C51	C	0.898100	-0.133717	0.000018
C52	C	1.398100	0.366283	0.500018
C53	C	0.821605	-0.404187	-0.000000
C54	C	1.321605	0.095813	0.500000
C55	C	0.858493	-0.353676	-0.067791
C56	C	1.358493	0.146324	0.432209
C57	C	0.892765	-0.469350	-0.000006
C58	C	1.392765	0.030650	0.499994
C59	C	0.858496	-0.353712	0.067766
C60	C	1.358496	0.146288	0.567766
C61	C	0.895382	-0.304442	0.000007
C62	C	1.395382	0.195558	0.500007
C63	C	0.929634	-0.420067	-0.067853
C64	C	1.429634	0.079933	0.432147
C65	C	0.929626	-0.420106	0.067766
C66	C	1.429626	0.079894	0.567766
C67	C	0.966566	-0.369627	-0.000042
C68	C	1.466566	0.130373	0.499958
C69	C	0.891255	-0.564349	-0.000014
C70	C	1.391255	-0.064349	0.499986
C71	C	0.896898	-0.209446	0.000010
C72	C	1.396898	0.290554	0.500010
C73	C	1.032451	0.106689	0.000006
C74	C	1.532451	0.606689	0.500006
C75	C	1.116472	0.108172	0.000002
C76	C	1.616472	0.608172	0.500002
C77	C	0.888554	0.266688	-0.000008
C78	C	1.388554	0.766688	0.499992
C79	C	0.890050	0.359931	-0.000015
C80	C	1.390050	0.859931	0.499985
N81	N	0.894058	0.113095	0.195671
N82	N	1.394058	0.613095	0.695671
N83	N	0.894098	0.113112	-0.195661
N84	N	1.394098	0.613112	0.304339
C85	C	0.945526	0.055908	0.238941
C86	C	1.445526	0.555908	0.738941
C87	C	0.945529	0.055907	0.325488
C88	C	1.445529	0.555907	0.825488
C89	C	0.894068	0.113097	0.368764
C90	C	1.394068	0.613097	0.868764
C91	C	0.842595	0.170287	0.325488
C92	C	1.342595	0.670287	0.825488
C93	C	0.842588	0.170283	0.238942
C94	C	1.342588	0.670283	0.738942
C95	C	0.842621	0.170303	0.674516
C96	C	1.342621	0.670303	1.174516
C97	C	0.842633	0.170304	0.761068
C98	C	1.342633	0.670304	1.261068
C99	C	0.945562	0.055927	0.761061
C100	C	1.445562	0.555927	1.261061
C101	C	0.945555	0.055923	0.674516
C102	C	1.445555	0.555923	1.174516
C103	C	0.894080	0.113109	0.631248
C104	C	1.394080	0.613109	1.131248
C105	C	0.894075	0.113108	0.537404
C106	C	1.394075	0.613108	1.037404
C107	C	0.894076	0.113103	0.462606
C108	C	1.394076	0.613103	0.962606
H109	H	0.664358	0.117909	-0.135983
H110	H	1.164358	0.617909	0.364017
N111	N	0.967298	-0.456271	-0.139841
N112	N	1.467298	0.043729	0.360159
N113	N	0.943341	-0.434212	-0.210143
N114	N	1.443341	0.065788	0.289857
H115	H	0.969938	-0.459784	-0.260986
H116	H	1.469938	0.040216	0.239014
N117	N	0.998060	-0.002524	0.194712
N118	N	1.498060	0.497476	0.694712
N119	N	0.974005	-0.054609	0.146438
N120	N	1.474005	0.445391	0.646438
H121	H	1.011097	-0.095882	0.115192
H122	H	1.511097	0.404118	0.615192
N123	N	0.512972	0.115227	-0.151519
N124	N	1.012972	0.615227	0.348481
N125	N	0.548231	0.115855	-0.218432
N126	N	1.048231	0.615855	0.281568
H127	H	0.519771	0.115357	-0.272510
H128	H	1.019771	0.615357	0.227490
N129	N	0.115637	0.108143	-0.151510
N130	N	0.615637	0.608143	0.348490
N131	N	0.078567	0.048173	-0.168216
N132	N	0.578567	0.548173	0.331784
H133	H	0.050096	0.047649	-0.222285
H134	H	0.550096	0.547649	0.277715
N135	N	0.672525	0.118041	0.151501
N136	N	1.172525	0.618041	0.651501
N137	N	0.743010	0.119290	0.151494
N138	N	1.243010	0.619290	0.651494
H139	H	0.771489	0.119783	0.205561
H140	H	1.271489	0.619783	0.705561
N141	N	0.998128	-0.002510	0.805259
N142	N	1.498128	0.497490	1.305259
N143	N	0.997090	-0.080148	0.795602
N144	N	1.497090	0.419852	1.295602
H145	H	1.034215	-0.121418	0.826814
H146	H	1.534215	0.378582	1.326814
H147	H	0.800677	0.216849	0.203713
H148	H	1.300677	0.716849	0.703713
N149	N	0.744734	-0.423684	-0.000090
N150	N	1.244734	0.076316	0.499910
N151	N	0.731265	-0.498936	0.000487
N152	N	1.231265	0.001064	0.500487
H153	H	0.676976	-0.512708	0.000420
H154	H	1.176976	-0.012708	0.500420
H155	H	0.828447	-0.324674	-0.125105
H156	H	1.328447	0.175326	0.374895
N157	N	0.275208	0.110997	0.151500
N158	N	0.775208	0.610997	0.651500
N159	N	0.312281	0.170963	0.168216
N160	N	0.812281	0.670963	0.668216
H161	H	0.340761	0.171469	0.222281
H162	H	0.840761	0.671469	0.722281
H163	H	1.027897	-0.354267	-0.000079
H164	H	1.527897	0.145733	0.499921
N165	N	0.967281	-0.456503	0.139673
N166	N	1.467281	0.043497	0.639673
N167	N	0.942995	-0.435064	0.210012
N168	N	1.442995	0.064936	0.710012
H169	H	0.969582	-0.460770	0.260804
H170	H	1.469582	0.039230	0.760804
H171	H	0.828424	-0.324737	0.125076
H172	H	1.328424	0.175263	0.625076
H173	H	0.800725	0.216877	0.796301
H174	H	1.300725	0.716877	1.296301
N175	N	0.998105	-0.002517	0.369673
N176	N	1.498105	0.497483	0.869673
N177	N	1.044050	-0.053573	0.331025
N178	N	1.544050	0.446427	0.831025
H179	H	1.081184	-0.094839	0.362230
H180	H	1.581184	0.405161	0.862230
H181	H	0.987462	0.009356	0.639283
H182	H	1.487462	0.509356	1.139283
H183	H	0.800709	0.216867	0.639294
H184	H	1.300709	0.716867	1.139294
N185	N	0.790028	0.228694	0.369703
N186	N	1.290028	0.728694	0.869703
N187	N	0.790040	0.228691	0.446975
N188	N	1.290040	0.728691	0.946975
H189	H	0.752914	0.269944	0.478202
H190	H	1.252914	0.769944	0.978202
N191	N	0.512944	0.115205	0.151516
N192	N	1.012944	0.615205	0.651516
N193	N	0.548191	0.115831	0.218428
N194	N	1.048191	0.615831	0.718428
H195	H	0.519721	0.115316	0.272507
H196	H	1.019721	0.615316	0.772507
N197	N	0.275206	0.110992	-0.151521
N198	N	0.775206	0.610992	0.348479
N199	N	0.239955	0.110371	-0.218431
N200	N	0.739955	0.610371	0.281569
H201	H	0.268423	0.110874	-0.272512
H202	H	0.768423	0.610874	0.227488
N203	N	0.115602	0.108166	0.151508
N204	N	0.615602	0.608166	0.651508
N205	N	0.045116	0.106915	0.151503
N206	N	0.545116	0.606915	0.651503
H207	H	0.016628	0.106417	0.205571
H208	H	0.516628	0.606417	0.705571
