data_functionalizedCrystal
_audit_creation_method	'MofGen! by Chris Wilmer'
_symmetry_space_group_name_H-M	'P1'
_symmetry_Int_Tables_number	1
_symmetry_cell_setting	triclinic
loop_
_symmetry_equiv_pos_as_xyz
  x,y,z
_cell_length_a	17.077404
_cell_length_b	12.759400
_cell_length_c	17.077396
_cell_angle_alpha	89.975448
_cell_angle_beta	89.984079
_cell_angle_gamma	90.012254
loop_
_atom_site_label
_atom_site_type_symbol
_atom_site_fract_x
_atom_site_fract_y
_atom_site_fract_z
Zn1	Zn	1.200083	-0.418307	-0.443849
Zn2	Zn	1.200015	-0.594012	-0.312596
Zn3	Zn	1.068820	-0.418341	-0.312600
Zn4	Zn	1.068802	-0.593938	-0.443822
O5	O	1.134430	-0.506149	-0.378217
O6	O	1.309921	-0.441631	-0.426448
O7	O	1.182591	-0.570755	-0.202749
O8	O	1.086268	-0.271316	-0.330023
O9	O	1.309871	-0.570721	-0.330016
O10	O	1.182706	-0.271290	-0.426451
O11	O	1.086203	-0.441690	-0.202752
O12	O	0.958971	-0.441618	-0.329997
O13	O	1.086238	-0.570594	-0.553672
O14	O	0.958958	-0.570628	-0.426405
O15	O	1.182689	-0.441559	-0.553692
O16	O	1.182574	-0.741023	-0.329990
O17	O	1.086172	-0.740969	-0.426401
C18	C	0.930482	-0.506120	-0.378199
C19	C	0.843232	-0.506132	-0.378210
C20	C	0.802269	-0.439035	-0.428498
C21	C	0.720288	-0.439041	-0.428502
C22	C	0.679273	-0.506152	-0.378221
C23	C	0.720242	-0.573252	-0.327927
C24	C	0.802221	-0.573240	-0.327920
C25	C	0.549372	-0.573276	-0.327946
C26	C	0.467388	-0.573291	-0.327954
C27	C	0.467439	-0.439078	-0.428529
C28	C	0.549418	-0.439065	-0.428522
C29	C	0.590382	-0.506167	-0.378228
C30	C	1.134385	-0.779117	-0.378210
C31	C	1.134437	-0.895893	-0.378233
C32	C	1.084230	-0.950765	-0.428395
C33	C	1.084272	-1.060489	-0.428402
C34	C	1.184734	-1.060460	-0.328084
C35	C	1.184688	-0.950738	-0.328073
C36	C	1.033979	-0.895921	-0.478554
C37	C	0.983769	-0.950793	-0.528721
C38	C	0.983811	-1.060517	-0.528728
C39	C	1.034063	-1.115369	-0.478569
C40	C	1.339174	-0.506180	-0.378235
C41	C	1.426424	-0.506193	-0.378242
C42	C	1.134469	-0.506064	-0.582961
C43	C	1.134485	-0.506028	-0.670211
C44	C	1.134497	-0.232116	-0.378241
C45	C	1.134525	-0.115340	-0.378251
C46	C	1.184746	-0.573110	-1.046026
C47	C	1.184726	-0.573140	-0.964046
C48	C	1.134536	-0.505954	-0.923060
C49	C	1.084356	-0.438740	-0.964059
C50	C	1.084373	-0.438716	-1.046038
C51	C	1.084327	-0.438794	-0.793188
C52	C	1.084311	-0.438817	-0.711204
C53	C	1.184680	-0.573219	-0.711197
C54	C	1.184697	-0.573194	-0.793176
C55	C	1.134518	-0.505979	-0.834169
C56	C	1.134437	-0.506158	-0.174269
C57	C	1.134572	-0.505899	-0.087019
H58	H	0.433995	-0.627939	-0.287011
O59	O	0.593655	-0.366673	-0.482748
H60	H	0.577941	-0.384784	-0.544336
O61	O	1.033940	-0.777576	-0.478536
H62	H	1.018104	-0.748716	-0.419309
H63	H	1.043466	-0.384060	-0.826563
O64	O	0.929569	-0.891641	-0.582819
H65	H	0.937979	-0.806125	-0.574394
H66	H	1.225571	-0.906061	-0.287226
H67	H	1.225538	-0.627948	-0.677816
H68	H	1.043444	-0.384105	-0.677835
H69	H	1.043487	-0.384041	-0.930681
O70	O	0.676109	-0.366667	-0.482742
H71	H	0.638762	-0.413759	-0.522618
O72	O	0.846506	-0.366644	-0.482726
H73	H	0.804245	-0.319979	-0.517688
O74	O	0.423265	-0.366692	-0.482770
H75	H	0.359369	-0.377961	-0.474321
H76	H	0.942922	-1.105191	-0.569571
O77	O	0.593559	-0.645652	-0.273705
H78	H	0.551268	-0.692330	-0.238748
O79	O	1.238937	-1.119634	-0.274002
H80	H	1.225505	-1.098656	-0.212376
O81	O	1.238829	-0.645653	-0.837390
H82	H	1.203681	-0.699073	-0.874734
O83	O	1.034099	-1.233715	-0.478577
H84	H	1.018275	-1.262699	-0.419359
O85	O	0.846410	-0.645610	-0.273682
H86	H	0.804118	-0.692285	-0.238723
O87	O	1.030262	-0.366218	-1.090258
H88	H	0.995364	-0.319495	-1.047987
H89	H	0.686841	-0.627890	-0.286983
O90	O	1.238872	-0.645586	-1.090232
H91	H	1.273749	-0.692337	-1.047951
H92	H	1.225573	-0.627883	-0.930673
