data_functionalizedCrystal
_audit_creation_method	'MofGen! by Chris Wilmer'
_symmetry_space_group_name_H-M	'P1'
_symmetry_Int_Tables_number	1
_symmetry_cell_setting	triclinic
loop_
_symmetry_equiv_pos_as_xyz
  x,y,z
_cell_length_a	19.188930
_cell_length_b	19.188930
_cell_length_c	18.266242
_cell_angle_alpha	90.011475
_cell_angle_beta	89.977082
_cell_angle_gamma	96.855221
loop_
_atom_site_label
_atom_site_type_symbol
_atom_site_fract_x
_atom_site_fract_y
_atom_site_fract_z
O1	O	0.926149	-0.087169	-0.061124
O2	O	0.722838	-0.098903	-0.061075
O3	O	0.830361	0.008620	-0.061087
O4	O	0.818627	-0.194691	-0.061113
O5	O	0.830343	0.008625	0.060675
O6	O	0.722820	-0.098897	0.060687
O7	O	0.926131	-0.087163	0.060638
Zn8	Zn	0.824473	-0.093029	0.079994
Zn9	Zn	0.824497	-0.093037	-0.080432
O10	O	0.818608	-0.194686	0.060649
C11	C	0.696818	-0.098520	-0.000188
C12	C	0.619313	-0.097380	-0.000169
C13	C	0.574389	-0.160470	-0.000188
C14	C	0.501566	-0.159399	-0.000196
C15	C	0.473669	-0.095233	-0.000199
C16	C	0.518603	-0.032133	-0.000175
C17	C	0.591425	-0.033207	-0.000160
N18	N	0.365695	-0.046188	-0.041663
N19	N	0.296516	-0.045172	-0.041679
C20	C	0.254260	-0.091994	-0.000243
N21	N	0.283795	-0.139881	0.041200
N22	N	0.352980	-0.140899	0.041213
C23	C	0.394707	-0.094062	-0.000215
C24	C	0.130372	-0.153928	-0.000270
C25	C	0.057547	-0.152853	-0.000274
C26	C	0.074586	-0.025586	-0.000261
C27	C	0.147409	-0.026662	-0.000250
C28	C	0.175298	-0.090835	-0.000258
C29	C	0.829972	0.034634	-0.000204
C30	C	0.828831	0.112138	-0.000197
C31	C	0.952151	-0.087546	-0.000252
C32	C	1.029656	-0.088687	-0.000276
C33	C	0.818997	-0.220700	-0.000236
C34	C	0.820138	-0.298204	-0.000247
N35	N	0.824461	-0.093024	0.189481
C36	C	0.891922	0.157062	-0.000209
C37	C	0.890850	0.229886	-0.000220
C38	C	0.826684	0.257782	-0.000206
C39	C	0.763585	0.212849	-0.000198
C40	C	0.764658	0.140026	-0.000194
N41	N	0.777631	0.365789	0.041244
N42	N	0.776615	0.434968	0.041242
C43	C	0.823446	0.477191	-0.000220
N44	N	0.871341	0.447624	-0.041669
N45	N	0.872359	0.378439	-0.041664
C46	C	0.825513	0.336745	-0.000210
C47	C	0.885379	0.601079	-0.000245
C48	C	0.884305	0.673904	-0.000261
C49	C	0.757038	0.656865	-0.000231
C50	C	0.758114	0.584042	-0.000222
C51	C	0.822287	0.556154	-0.000226
N52	N	0.824513	-0.093037	-0.189919
C53	C	0.872088	-0.045436	0.227785
C54	C	0.872092	-0.045433	0.304430
C55	C	0.824477	-0.093030	0.342768
C56	C	0.776841	-0.140621	0.304455
C57	C	0.776834	-0.140618	0.227812
N58	N	0.815401	-0.154837	0.463094
N59	N	0.815413	-0.154838	0.535902
C60	C	0.824496	-0.093040	0.573691
N61	N	0.833582	-0.031239	0.535920
N62	N	0.833574	-0.031240	0.463106
C63	C	0.824480	-0.093038	0.425875
C64	C	0.872131	-0.045444	0.695101
C65	C	0.872130	-0.045440	0.771748
C66	C	0.776882	-0.140634	0.771772
C67	C	0.776879	-0.140632	0.695127
C68	C	0.824507	-0.093038	0.656796
H69	H	0.464982	-0.210776	-0.000210
C70	C	0.924489	0.006914	0.346574
C71	C	0.976896	0.059243	0.304410
C72	C	1.029293	0.111588	0.346551
C73	C	1.029284	0.111605	0.430856
C74	C	0.976875	0.059274	0.473025
C75	C	0.924477	0.006928	0.430884
H76	H	0.976905	0.059232	0.241999
H77	H	1.068090	0.150327	0.315335
H78	H	1.068071	0.150354	0.462051
H79	H	0.976866	0.059284	0.535436
H80	H	0.885681	-0.031810	0.462100
C81	C	0.724445	-0.192972	0.185672
C82	C	0.672086	-0.245349	0.227836
C83	C	0.619698	-0.297703	0.185694
C84	C	0.619670	-0.297681	0.101389
C85	C	0.672031	-0.245303	0.059221
C86	C	0.724419	-0.192948	0.101363
H87	H	0.672105	-0.245367	0.290247
H88	H	0.580937	-0.336478	0.216910
H89	H	0.580890	-0.336438	0.070194
H90	H	0.672012	-0.245284	-0.003190
H91	H	0.763180	-0.154173	0.070147
C92	C	0.924522	0.006910	0.813887
C93	C	0.976924	0.059244	0.771723
C94	C	1.029316	0.111595	0.813865
C95	C	1.029307	0.111610	0.898169
C96	C	0.976903	0.059274	0.940338
C97	C	0.924511	0.006924	0.898197
H98	H	0.976932	0.059235	0.709312
H99	H	1.068108	0.150338	0.782648
H100	H	1.068091	0.150363	0.929365
H101	H	0.976895	0.059284	1.002749
H102	H	0.885718	-0.031819	0.929413
H103	H	0.183988	0.024713	-0.000238
C104	C	0.924513	0.006914	0.652934
C105	C	0.923586	0.086419	0.663490
C106	C	0.975969	0.138779	0.621326
C107	C	1.029278	0.111632	0.568605
C108	C	1.030207	0.032123	0.558046
C109	C	0.977824	-0.020236	0.600210
H110	H	0.884121	0.106518	0.702520
H111	H	0.975281	0.197637	0.629143
H112	H	1.068055	0.150392	0.537392
H113	H	1.069672	0.012024	0.519016
H114	H	0.978512	-0.079095	0.592394
C115	C	0.724496	-0.192987	0.652986
C116	C	0.672136	-0.245364	0.695149
C117	C	0.619749	-0.297719	0.653008
C118	C	0.619721	-0.297696	0.568703
C119	C	0.672082	-0.245318	0.526535
C120	C	0.724470	-0.192963	0.568676
H121	H	0.672155	-0.245382	0.757561
H122	H	0.580987	-0.336493	0.684224
H123	H	0.580940	-0.336453	0.537507
H124	H	0.672063	-0.245300	0.464123
H125	H	0.763231	-0.154188	0.537460
H126	H	0.597091	-0.212725	-0.000196
C127	C	0.955966	0.570396	-0.000255
C128	C	1.025368	0.619816	-0.000277
C129	C	1.095955	0.589135	-0.000286
C130	C	1.097139	0.509034	-0.000272
C131	C	1.027734	0.459609	-0.000249
C132	C	0.957148	0.490290	-0.000241
H133	H	1.024494	0.679116	-0.000287
H134	H	1.147333	0.625723	-0.000302
H135	H	1.149392	0.486322	-0.000278
H136	H	1.028609	0.400309	-0.000239
H137	H	0.905770	0.453702	-0.000224
C138	C	0.960253	0.279315	-0.000227
C139	C	1.012877	0.276346	0.062998
C140	C	1.082279	0.325774	0.062994
C141	C	1.099057	0.378171	-0.000236
C142	C	1.046431	0.381142	-0.063466
C143	C	0.977029	0.331714	-0.063461
H144	H	1.000458	0.237557	0.109808
H145	H	1.121236	0.323574	0.109801
H146	H	1.150432	0.414760	-0.000239
H147	H	1.058850	0.419931	-0.110276
H148	H	0.938073	0.333914	-0.110268
H149	H	0.738110	-0.179386	0.802986
H150	H	0.711340	0.235567	-0.000187
H151	H	0.495885	0.020111	-0.000188
H152	H	0.738071	-0.179374	0.335674
C153	C	0.688712	0.534621	-0.000196
C154	C	0.618128	0.565301	-0.000177
C155	C	0.548723	0.515879	-0.000152
C156	C	0.549901	0.435777	-0.000146
C157	C	0.620487	0.405093	-0.000164
C158	C	0.689892	0.454515	-0.000189
H159	H	0.617254	0.624601	-0.000182
H160	H	0.496470	0.538594	-0.000139
H161	H	0.498523	0.399192	-0.000127
H162	H	0.621361	0.345793	-0.000159
H163	H	0.742145	0.431800	-0.000203
C164	C	0.161059	-0.224512	-0.000271
C165	C	0.143993	-0.276856	0.062951
C166	C	0.174679	-0.347440	0.062950
C167	C	0.222431	-0.365680	-0.000273
C168	C	0.239500	-0.313335	-0.063500
C169	C	0.208814	-0.242751	-0.063499
H170	H	0.108641	-0.263355	0.109757
H171	H	0.162043	-0.386189	0.109755
H172	H	0.245147	-0.417931	-0.000274
H173	H	0.274852	-0.326837	-0.110306
H174	H	0.221450	-0.204002	-0.110305
C175	C	0.924470	0.006921	0.185620
C176	C	0.923547	0.086427	0.196179
C177	C	0.975927	0.138785	0.154010
C178	C	1.029230	0.111637	0.101282
C179	C	1.030154	0.032128	0.090720
C180	C	0.977774	-0.020231	0.132889
H181	H	0.884088	0.106526	0.235214
H182	H	0.975242	0.197643	0.161829
H183	H	1.068004	0.150396	0.070066
H184	H	1.069614	0.012028	0.051685
H185	H	0.978459	-0.079089	0.125070
H186	H	0.628003	0.018171	-0.000145
H187	H	0.020970	-0.204232	-0.000285
H188	H	0.051874	0.026659	-0.000309
H189	H	0.713281	0.103448	-0.000184
H190	H	0.944176	0.134360	-0.000214
H191	H	0.935683	0.710481	-0.000274
H192	H	0.704792	0.679578	-0.000222
