data_functionalizedCrystal
_audit_creation_method	'MofGen! by Chris Wilmer'
_symmetry_space_group_name_H-M	'P1'
_symmetry_Int_Tables_number	1
_symmetry_cell_setting	triclinic
loop_
_symmetry_equiv_pos_as_xyz
  x,y,z
_cell_length_a	13.032831
_cell_length_b	15.297327
_cell_length_c	13.033429
_cell_angle_alpha	91.279548
_cell_angle_beta	89.091437
_cell_angle_gamma	93.742008
loop_
_atom_site_label
_atom_site_type_symbol
_atom_site_fract_x
_atom_site_fract_y
_atom_site_fract_z
Zn1	Zn	1.405146	-0.419820	-0.853129
Zn2	Zn	1.390163	-0.584810	-0.709533
Zn3	Zn	1.253960	-0.424431	-0.660152
Zn4	Zn	1.204488	-0.548574	-0.853431
O5	O	1.313439	-0.494409	-0.769061
O6	O	1.544136	-0.454942	-0.854620
O7	O	1.386530	-0.580630	-0.561999
O8	O	1.300990	-0.302816	-0.664959
O9	O	1.533128	-0.576159	-0.749121
O10	O	1.412066	-0.299429	-0.806738
O11	O	1.286462	-0.462800	-0.525719
O12	O	1.106420	-0.427664	-0.665251
O13	O	1.216671	-0.514400	-0.994374
O14	O	1.070073	-0.518871	-0.807252
O15	O	1.364094	-0.419805	-0.994152
O16	O	1.338558	-0.701006	-0.749413
O17	O	1.202143	-0.674384	-0.855134
C18	C	1.051692	-0.469836	-0.730927
C19	C	0.939709	-0.459342	-0.714640
C20	C	0.871817	-0.499886	-0.777561
C21	C	0.756076	-0.489041	-0.760730
C22	C	1.263381	-0.719070	-0.807691
C23	C	1.242055	-0.815185	-0.824264
C24	C	1.466242	-1.141437	-0.651014
C25	C	1.486279	-1.051132	-0.635438
C26	C	1.425225	-0.992141	-0.682643
C27	C	1.344130	-1.023463	-0.745427
C28	C	1.324086	-1.113777	-0.760999
C29	C	1.283069	-0.964481	-0.792628
C30	C	1.201974	-0.995804	-0.855412
C31	C	1.181934	-1.086109	-0.870982
C32	C	1.242988	-1.145100	-0.823776
C33	C	1.303113	-0.874168	-0.777056
C34	C	1.160957	-0.846508	-0.887041
C35	C	1.140920	-0.936813	-0.902618
C36	C	1.576208	-0.519078	-0.807345
C37	C	1.688185	-0.529591	-0.823659
C38	C	1.286536	-0.462546	-1.031840
C39	C	1.275071	-0.448969	-1.143821
C40	C	1.363718	-0.268870	-0.730306
C41	C	1.385144	-0.172759	-0.713791
C42	C	1.307625	-0.487195	-1.327434
C43	C	1.319476	-0.501224	-1.211695
C44	C	1.340310	-0.526090	-0.507302
C45	C	1.352025	-0.539443	-0.395308
H46	H	0.728519	-0.446293	-0.694399
H47	H	1.115890	-1.111608	-0.922091
N48	N	1.053455	-0.970600	-0.970331
H49	H	1.050026	-1.036760	-0.973029
H50	H	0.986617	-0.950032	-0.941402
N51	N	1.221378	-1.242504	-0.840571
H52	H	1.149345	-1.260085	-0.815692
H53	H	1.228001	-1.257503	-0.916142
N54	N	1.095094	-0.782894	-0.937955
H55	H	1.120098	-0.720931	-0.918566
H56	H	1.099850	-0.791383	-1.014913
N57	N	1.381462	-0.574234	-1.175186
H58	H	1.381110	-0.573925	-1.097681
H59	H	1.350175	-0.632310	-1.201884
H60	H	1.398814	-0.594557	-1.367732
N61	N	0.724672	-0.586205	-0.911535
H62	H	0.802181	-0.585927	-0.911107
H63	H	0.694195	-0.648150	-0.903706
H64	H	1.228288	-0.393843	-1.171390
H65	H	1.369141	-0.848674	-0.725937
N66	N	0.903210	-0.402730	-0.626772
H67	H	0.925866	-0.426498	-0.559693
H68	H	0.933626	-0.340771	-0.634641
N69	N	1.446831	-0.894741	-0.665845
H70	H	1.507468	-0.883849	-0.618910
H71	H	1.463008	-0.866365	-0.733946
N72	N	1.573747	-1.017349	-0.567738
H73	H	1.609389	-1.068420	-0.540203
H74	H	1.624454	-0.979230	-0.609115
N75	N	1.532070	-1.205059	-0.600085
H76	H	1.507060	-1.267021	-0.619472
H77	H	1.605918	-1.194071	-0.623561
N78	N	1.245632	-0.414198	-1.363954
H79	H	1.291053	-0.372712	-1.406716
H80	H	1.186688	-0.439793	-1.406810
N81	N	0.908312	-0.556504	-0.865425
H82	H	0.985820	-0.556228	-0.864993
H83	H	0.877832	-0.618448	-0.857587
