data_functionalizedCrystal
_audit_creation_method	'MofGen! by Chris Wilmer'
_symmetry_space_group_name_H-M	'P1'
_symmetry_Int_Tables_number	1
_symmetry_cell_setting	triclinic
loop_
_symmetry_equiv_pos_as_xyz
  x,y,z
_cell_length_a	10.654550
_cell_length_b	15.538191
_cell_length_c	9.730223
_cell_angle_alpha	89.998968
_cell_angle_beta	89.999957
_cell_angle_gamma	65.878512
loop_
_atom_site_label
_atom_site_type_symbol
_atom_site_fract_x
_atom_site_fract_y
_atom_site_fract_z
O1	O	1.606172	0.131915	-0.114176
O2	O	1.234818	0.144484	-0.114201
O3	O	1.492782	0.001542	-0.114190
O4	O	1.348208	0.274857	-0.114187
O5	O	1.492771	0.001538	0.114390
O6	O	1.234807	0.144480	0.114379
O7	O	1.606161	0.131912	0.114404
Zn8	Zn	1.420483	0.138195	0.150683
Zn9	Zn	1.420496	0.138200	-0.150480
O10	O	1.348197	0.274853	0.114393
C11	C	1.188446	0.143559	0.000086
C12	C	1.050293	0.140798	0.000077
C13	C	0.931464	0.224959	0.000082
C14	C	0.801659	0.222359	0.000105
C15	C	0.909528	0.051429	0.000114
C16	C	1.039330	0.054030	0.000100
C17	C	1.507903	-0.033456	0.000096
C18	C	1.552959	-0.137736	0.000085
C19	C	1.105338	-0.428451	0.000086
C20	C	1.147707	-0.526440	0.000092
C21	C	1.386021	-0.547326	0.000107
C22	C	1.343672	-0.449336	0.000094
C23	C	1.203329	-0.389906	0.000085
C24	C	1.441663	-0.410792	0.000093
C25	C	1.399317	-0.312811	0.000088
C26	C	1.258980	-0.253375	0.000083
C27	C	1.160983	-0.291926	0.000080
C28	C	1.582005	-0.470224	0.000112
C29	C	1.679996	-0.431679	0.000111
C30	C	1.637651	-0.333697	0.000096
C31	C	1.497314	-0.274261	0.000091
C32	C	1.735648	-0.295147	0.000100
C33	C	1.693302	-0.197166	0.000094
C34	C	1.454968	-0.176280	0.000086
C35	C	1.652533	0.132836	0.000114
C36	C	1.790685	0.135597	0.000114
C37	C	1.333076	0.309851	0.000104
C38	C	1.288020	0.414131	0.000106
N39	N	1.420482	0.138191	0.356220
N40	N	1.420510	0.138197	-0.356017
C41	C	1.534725	0.074923	0.428150
C42	C	1.534738	0.074924	0.572033
C43	C	1.306256	0.201467	0.572043
C44	C	1.306241	0.201462	0.428162
H45	H	0.940383	0.295611	0.000073
C46	C	1.041248	-0.568239	-0.000202
C47	C	0.959084	-0.538126	-0.117825
C48	C	0.861019	-0.576624	-0.118150
H49	H	0.985200	-0.547919	0.079411
H50	H	1.086517	-0.635108	-0.000274
H51	H	0.913818	-0.471271	-0.117741
H52	H	1.015093	-0.558445	-0.197457
H53	H	0.906288	-0.643493	-0.118221
H54	H	0.804981	-0.556301	-0.038532
H55	H	0.805267	-0.556205	-0.197961
C56	C	1.799745	-0.155360	-0.000202
C57	C	1.881914	-0.185471	-0.117820
C58	C	1.979972	-0.146967	-0.118147
H59	H	1.855791	-0.175676	0.079414
H60	H	1.754470	-0.088490	-0.000280
H61	H	1.927187	-0.252326	-0.117730
H62	H	1.825907	-0.165156	-0.197456
H63	H	1.934697	-0.080097	-0.118225
H64	H	2.036008	-0.167285	-0.038525
H65	H	2.035727	-0.167384	-0.197954
H66	H	1.616478	-0.550005	0.000104
H67	H	1.627764	0.023405	0.630595
H68	H	1.136092	-0.014509	0.000099
C69	C	1.302549	-0.111855	-0.000152
C70	C	1.240960	-0.129402	-0.117743
C71	C	1.100559	-0.070080	-0.118001
H72	H	1.291181	-0.047952	-0.000225
H73	H	1.260446	-0.123629	0.079512
H74	H	1.283050	-0.117621	-0.197385
H75	H	1.252289	-0.193293	-0.117694
H76	H	1.058456	-0.081854	-0.038337
H77	H	1.089206	-0.006181	-0.118070
H78	H	1.058751	-0.081984	-0.197778
H79	H	0.900584	-0.019214	0.000141
H80	H	1.224505	-0.173593	0.000087
H81	H	1.213205	0.252982	0.369593
H82	H	1.046702	-0.243533	0.000062
C83	C	1.658852	0.006120	0.350288
C84	C	1.758887	-0.049304	0.444086
C85	C	1.873244	-0.112708	0.372415
H86	H	1.695723	0.040157	0.294143
H87	H	1.631696	-0.033346	0.294203
H88	H	1.786042	-0.009843	0.500148
H89	H	1.722060	-0.083361	0.500234
H90	H	1.846088	-0.152174	0.316329
H91	H	1.910103	-0.078663	0.316271
H92	H	1.941126	-0.150327	0.436045
C93	C	1.538433	-0.611743	-0.000105
C94	C	1.600028	-0.594195	-0.117692
C95	C	1.740433	-0.653509	-0.117930
H96	H	1.549811	-0.675648	-0.000172
H97	H	1.580522	-0.599962	0.079561
H98	H	1.557952	-0.605984	-0.197337
H99	H	1.588688	-0.530302	-0.117650
H100	H	1.782523	-0.641727	-0.038263
H101	H	1.751798	-0.717410	-0.117993
H102	H	1.782246	-0.641604	-0.197704
C103	C	1.182243	0.270013	0.650335
C104	C	1.128461	0.219449	0.732986
C105	C	1.014231	0.282564	0.805140
H106	H	1.114064	0.307719	0.587047
H107	H	1.209429	0.309413	0.706528
H108	H	1.101271	0.180065	0.676798
H109	H	1.196604	0.181747	0.796300
H110	H	1.041417	0.321964	0.861333
H111	H	0.946062	0.320266	0.741842
H112	H	0.977734	0.248266	0.861236
H113	H	1.794264	-0.480080	0.000124
H114	H	0.704908	0.290892	0.000112
H115	H	0.991057	-0.380059	0.000068
H116	H	1.849915	-0.343549	0.000120
