data_functionalizedCrystal
_audit_creation_method	'MofGen! by Chris Wilmer'
_symmetry_space_group_name_H-M	'P1'
_symmetry_Int_Tables_number	1
_symmetry_cell_setting	triclinic
loop_
_symmetry_equiv_pos_as_xyz
  x,y,z
_cell_length_a	6.817900
_cell_length_b	11.168136
_cell_length_c	16.417825
_cell_angle_alpha	93.915456
_cell_angle_beta	103.385495
_cell_angle_gamma	108.508683
loop_
_atom_site_label
_atom_site_type_symbol
_atom_site_fract_x
_atom_site_fract_y
_atom_site_fract_z
V1	V	-4.083861	-0.394142	-0.115898
O2	O	-4.070714	-0.386184	0.005556
O3	O	-4.034576	-0.391884	-0.229794
O4	O	-4.060550	-0.565841	-0.114121
O5	O	-4.044560	-0.211023	-0.110917
V6	V	-4.564352	-0.372186	-0.101370
O7	O	-4.351769	-0.442303	-0.147766
O8	O	-4.746641	-0.324024	-0.069502
O9	O	-4.390430	-0.374444	0.012526
O10	O	-4.694895	-0.380144	-0.222824
O11	O	-4.721049	-0.555305	-0.106351
O12	O	-4.364456	-0.200487	-0.103147
C13	C	-3.878550	-0.385779	-0.257559
C14	C	-3.919709	-0.385078	-0.350670
C15	C	-3.957358	-0.267809	-0.552931
C16	C	-3.996055	-0.267160	-0.640420
C17	C	-4.110237	-0.498532	-0.664338
C18	C	-4.071555	-0.499181	-0.576850
C19	C	-3.995104	-0.383815	-0.521148
C20	C	-4.072483	-0.382517	-0.696125
C21	C	-4.114440	-0.381814	-0.790985
C22	C	-3.953148	-0.384518	-0.426282
C23	C	-3.911681	-0.607677	-0.110006
C24	C	-3.973900	-0.748044	-0.109306
C25	C	-4.175586	-0.816750	-0.112967
C26	C	-4.239896	-0.961828	-0.112244
C27	C	-4.209797	-0.380545	0.040287
C28	C	-4.147878	-0.381255	0.133397
C29	C	-4.176666	-0.158644	-0.107265
C30	C	-4.093686	-0.018275	-0.107960
H31	H	-4.172482	-0.592459	-0.709700
C32	C	-3.954548	-0.139558	-0.675382
H33	H	-3.988560	-0.155690	-0.735464
H34	H	-3.807670	-0.088080	-0.653406
H35	H	-4.041857	-0.096186	-0.658853
C36	C	-4.344554	-0.751138	-0.117927
H37	H	-4.479428	-0.813055	-0.120125
H38	H	-4.356473	-0.711669	-0.167424
H39	H	-4.302021	-0.688222	-0.069277
C40	C	-4.113070	-0.626793	-0.541886
H41	H	-4.164111	-0.695407	-0.587589
H42	H	-4.217436	-0.635898	-0.510982
H43	H	-3.983250	-0.627805	-0.505527
C44	C	-4.473307	-1.041605	-0.116476
H45	H	-4.485907	-1.128646	-0.115429
H46	H	-4.566239	-1.034425	-0.167370
H47	H	-4.511764	-1.010974	-0.069223
H48	H	-3.848837	-0.796626	-0.105631
C49	C	-3.873314	-0.140915	-0.491663
H50	H	-3.856404	-0.071735	-0.523126
H51	H	-3.738765	-0.132298	-0.454303
H52	H	-3.972968	-0.140417	-0.459772
C53	C	-3.860269	-0.938512	-0.103729
H54	H	-3.776886	-0.992748	-0.100954
H55	H	-3.802722	-0.875063	-0.054746
H56	H	-3.857196	-0.898524	-0.152893
