data_functionalizedCrystal
_audit_creation_method	'MofGen! by Chris Wilmer'
_symmetry_space_group_name_H-M	'P1'
_symmetry_Int_Tables_number	1
_symmetry_cell_setting	triclinic
loop_
_symmetry_equiv_pos_as_xyz
  x,y,z
_cell_length_a	12.645331
_cell_length_b	18.050589
_cell_length_c	12.645331
_cell_angle_alpha	90.002475
_cell_angle_beta	90.003677
_cell_angle_gamma	90.027200
loop_
_atom_site_label
_atom_site_type_symbol
_atom_site_fract_x
_atom_site_fract_y
_atom_site_fract_z
Zn1	Zn	1.620455	-0.295842	0.599442
Zn2	Zn	1.620363	-0.419991	0.422180
Zn3	Zn	1.443228	-0.295818	0.422186
Zn4	Zn	1.443119	-0.419993	0.599395
O5	O	1.531791	-0.357911	0.510801
O6	O	1.768790	-0.312321	0.575944
O7	O	1.596873	-0.403509	0.273834
O8	O	1.466822	-0.191896	0.445721
O9	O	1.768722	-0.403533	0.445711
O10	O	1.597030	-0.191914	0.575950
O11	O	1.466733	-0.312279	0.273838
O12	O	1.294866	-0.312280	0.445676
O13	O	1.466635	-0.403535	0.747749
O14	O	1.294786	-0.403511	0.575871
O15	O	1.596923	-0.312322	0.747783
O16	O	1.596766	-0.523916	0.445666
O17	O	1.466546	-0.523917	0.575865
C18	C	1.256361	-0.357893	0.510770
C19	C	1.138531	-0.357904	0.510782
C20	C	0.970982	-0.300247	0.429328
C21	C	1.093542	-0.300396	0.428969
C22	C	1.094001	-0.436128	0.480266
C23	C	0.971402	-0.435813	0.479710
C24	C	0.971350	-0.338081	0.623066
C25	C	1.093956	-0.336333	0.622443
C26	C	1.531663	-0.550863	0.510783
C27	C	1.531705	-0.633409	0.510811
C28	C	1.460961	-0.832887	0.581589
C29	C	1.435146	-0.882302	0.484854
C30	C	1.531809	-0.784539	0.510825
C31	C	1.557676	-0.882206	0.607570
C32	C	1.531908	-0.930524	0.510847
C33	C	1.505944	-0.832867	0.414039
C34	C	1.628519	-0.832767	0.536821
C35	C	1.602741	-0.882159	0.440019
C36	C	1.531750	-0.700441	0.510814
C37	C	1.531968	-1.014621	0.510847
C38	C	1.808296	-0.357929	0.510832
C39	C	1.926126	-0.357937	0.510845
C40	C	1.531777	-0.357931	0.787306
C41	C	1.531772	-0.357940	0.905136
C42	C	1.531948	-0.164205	0.510842
C43	C	1.532015	-0.081660	0.510859
C44	C	1.449798	-0.415324	0.949996
C45	C	1.449471	-0.415145	1.072556
C46	C	1.501870	-0.279600	1.073039
C47	C	1.501281	-0.279941	0.950441
C48	C	1.643840	-0.378192	0.950327
C49	C	1.643233	-0.379910	1.072933
C50	C	1.531786	-0.357914	1.235371
C51	C	1.531761	-0.357924	1.117541
H52	H	0.941727	-0.480251	0.536495
H53	H	0.941527	-0.242064	0.448250
C54	C	1.133133	-0.318126	0.316624
N55	N	1.162951	-0.331484	0.232001
H56	H	1.123652	-0.242388	0.448097
C57	C	1.133379	-0.495752	0.557947
N58	N	1.163045	-0.540660	0.616454
C59	C	1.337283	-0.396993	1.112179
N60	N	1.252780	-0.383314	1.142022
H61	H	1.124678	-0.453261	0.399108
C62	C	1.587181	-0.911483	0.718089
N63	N	1.609396	-0.933532	0.801334
C64	C	1.726346	-0.321736	0.911125
N65	N	1.788481	-0.279212	0.881591
H66	H	1.419373	-0.262808	0.921843
C67	C	0.932732	-0.458558	0.368875
N68	N	0.903610	-0.475685	0.285390
H69	H	1.468238	-0.473580	0.920519
C70	C	0.929325	-0.317765	0.317645
N71	N	0.897944	-0.330961	0.233527
H72	H	0.940459	-0.282037	0.650819
H73	H	1.420859	-0.262167	1.103741
H74	H	1.123068	-0.278769	0.645453
H75	H	1.662697	-0.903658	0.380117
C76	C	1.474666	-0.493598	1.113208
N77	N	1.493637	-0.552692	1.143822
C78	C	1.578460	-0.220191	0.910346
N79	N	1.636584	-0.175184	0.880151
C80	C	1.738909	-0.803337	0.566570
N81	N	1.822052	-0.781164	0.588992
C82	C	1.135321	-0.388966	0.708885
N83	N	1.166474	-0.428617	0.773990
H84	H	1.559744	-0.235672	1.102176
H85	H	0.942340	-0.380101	0.683804
H86	H	1.367229	-0.402062	0.919184
C87	C	1.680705	-0.454051	0.908568
N88	N	1.708459	-0.511192	0.877116
H89	H	1.400959	-0.811251	0.641347
H90	H	1.353409	-0.904077	0.462886
C91	C	1.476308	-0.803713	0.303490
N92	N	1.453981	-0.781752	0.220228
H93	H	1.665779	-0.437553	1.102016
H94	H	1.707542	-0.341181	1.103559
