data_functionalizedCrystal
_audit_creation_method	'MofGen! by Chris Wilmer'
_symmetry_space_group_name_H-M	'P1'
_symmetry_Int_Tables_number	1
_symmetry_cell_setting	triclinic
loop_
_symmetry_equiv_pos_as_xyz
  x,y,z
_cell_length_a	13.897448
_cell_length_b	13.897449
_cell_length_c	13.897449
_cell_angle_alpha	90.008641
_cell_angle_beta	90.010270
_cell_angle_gamma	90.018519
loop_
_atom_site_label
_atom_site_type_symbol
_atom_site_fract_x
_atom_site_fract_y
_atom_site_fract_z
Zn1	Zn	-0.384156	1.474562	0.545449
Zn2	Zn	-0.050823	1.807895	0.878783
Zn3	Zn	0.282510	2.141229	1.212116
Zn4	Zn	-0.545421	1.474498	0.384151
Zn5	Zn	-0.212088	1.807831	0.717484
Zn6	Zn	0.121246	2.141164	1.050817
Zn7	Zn	-0.384144	1.313293	0.384160
Zn8	Zn	-0.050810	1.646626	0.717494
Zn9	Zn	0.282523	1.979959	1.050827
Zn10	Zn	-0.545413	1.313233	0.545396
Zn11	Zn	-0.212080	1.646566	0.878729
Zn12	Zn	0.121253	1.979900	1.212062
O13	O	-0.464784	1.393896	0.464789
O14	O	-0.131450	1.727230	0.798122
O15	O	0.201883	2.060563	1.131456
O16	O	-0.405557	1.609535	0.524071
O17	O	-0.072224	1.942869	0.857404
O18	O	0.261110	2.276202	1.190738
O19	O	-0.524025	1.453112	0.249170
O20	O	-0.190692	1.786445	0.582504
O21	O	0.142642	2.119778	0.915837
O22	O	-0.249164	1.334738	0.405582
O23	O	0.084169	1.668071	0.738915
O24	O	0.417503	2.001404	1.072249
O25	O	-0.524037	1.609488	0.405566
O26	O	-0.190704	1.942821	0.738899
O27	O	0.142630	2.276155	1.072232
O28	O	-0.249173	1.453221	0.524080
O29	O	0.084160	1.786555	0.857414
O30	O	0.417494	2.119888	1.190747
O31	O	-0.405535	1.334675	0.249177
O32	O	-0.072202	1.668008	0.582511
O33	O	0.261131	2.001342	0.915844
O34	O	-0.405528	1.178303	0.405530
O35	O	-0.072195	1.511637	0.738863
O36	O	0.261138	1.844970	1.072197
O37	O	-0.524025	1.334636	0.680384
O38	O	-0.190691	1.667969	1.013718
O39	O	0.142642	2.001302	1.347051
O40	O	-0.524012	1.178259	0.523989
O41	O	-0.190679	1.511593	0.857322
O42	O	0.142654	1.844926	1.190656
O43	O	-0.405550	1.453163	0.680424
O44	O	-0.072216	1.786497	1.013757
O45	O	0.261117	2.119830	1.347090
O46	O	-0.680401	1.453054	0.405514
O47	O	-0.347068	1.786387	0.738847
O48	O	-0.013735	2.119720	1.072181
O49	O	-0.680396	1.334573	0.523980
O50	O	-0.347063	1.667906	0.857313
O51	O	-0.013729	2.001240	1.190647
C52	C	-0.464769	1.143282	0.464755
C53	C	-0.131435	1.476615	0.798089
C54	C	0.201898	1.809949	1.131422
C55	C	-0.464786	1.036068	0.464764
C56	C	-0.131452	1.369401	0.798097
C57	C	0.201881	1.702735	1.131431
C58	C	-0.464789	0.948998	0.464780
C59	C	-0.131456	1.282332	0.798113
C60	C	0.201878	1.615665	1.131447
C61	C	-0.464796	0.839766	0.464809
C62	C	-0.131462	1.173099	0.798143
C63	C	0.201871	1.506433	1.131476
C64	C	-0.715398	1.393826	0.464761
C65	C	-0.382065	1.727159	0.798094
C66	C	-0.048731	2.060493	1.131428
C67	C	-0.822612	1.393884	0.464781
C68	C	-0.489279	1.727217	0.798115
C69	C	-0.155945	2.060551	1.131448
C70	C	-1.018907	1.393985	0.464842
C71	C	-0.685574	1.727319	0.798175
C72	C	-0.352240	2.060652	1.131509
C73	C	-0.909674	1.393926	0.464811
C74	C	-0.576341	1.727260	0.798145
C75	C	-0.243008	2.060593	1.131478
C76	C	-0.213191	1.393993	0.464838
C77	C	0.120143	1.727327	0.798171
C78	C	0.453476	2.060660	1.131505
C79	C	-0.105977	1.394035	0.464859
C80	C	0.227357	1.727368	0.798192
C81	C	0.560690	2.060701	1.131526
C82	C	-0.464788	1.393900	0.716382
C83	C	-0.131454	1.727233	1.049715
C84	C	0.201879	2.060567	1.383049
C85	C	-0.464789	1.393902	0.823596
C86	C	-0.131456	1.727235	1.156929
C87	C	0.201877	2.060568	1.490263
C88	C	-0.464799	1.645489	0.464823
C89	C	-0.131466	1.978823	0.798157
C90	C	0.201867	2.312156	1.131490
C91	C	-0.464806	1.752703	0.464838
C92	C	-0.131473	2.086037	0.798171
C93	C	0.201861	2.419370	1.131505
C94	C	-0.464794	1.393877	1.019891
C95	C	-0.131460	1.727211	1.353224
C96	C	0.201873	2.060544	1.686558
C97	C	-0.464794	1.393888	0.910658
C98	C	-0.131461	1.727221	1.243992
C99	C	0.201873	2.060554	1.577325
C100	C	-0.464799	1.393884	1.214175
C101	C	-0.131466	1.727217	1.547508
C102	C	0.201867	2.060550	1.880841
C103	C	-0.464791	1.393876	1.106961
C104	C	-0.131458	1.727209	1.440294
C105	C	0.201875	2.060543	1.773627
