data_functionalizedCrystal
_audit_creation_method	'MofGen! by Chris Wilmer'
_symmetry_space_group_name_H-M	'P1'
_symmetry_Int_Tables_number	1
_symmetry_cell_setting	triclinic
loop_
_symmetry_equiv_pos_as_xyz
  x,y,z
_cell_length_a	16.120484
_cell_length_b	12.759395
_cell_length_c	12.759387
_cell_angle_alpha	89.979491
_cell_angle_beta	87.136424
_cell_angle_gamma	87.073025
loop_
_atom_site_label
_atom_site_type_symbol
_atom_site_fract_x
_atom_site_fract_y
_atom_site_fract_z
Zn1	Zn	-0.331828	-1.584987	0.615167
Zn2	Zn	-0.471265	-1.575935	0.448379
Zn3	Zn	-0.331874	-1.409282	0.439506
Zn4	Zn	-0.471205	-1.400339	0.624015
O5	O	-0.401543	-1.492636	0.531767
O6	O	-0.350331	-1.730807	0.593052
O7	O	-0.452818	-1.553783	0.300184
O8	O	-0.215202	-1.440121	0.455392
O9	O	-0.452774	-1.724157	0.470514
O10	O	-0.215169	-1.569211	0.584449
O11	O	-0.350408	-1.431344	0.293665
O12	O	-0.350350	-1.261075	0.463971
O13	O	-0.452673	-1.424878	0.769859
O14	O	-0.452717	-1.254504	0.599529
O15	O	-0.350273	-1.560539	0.763359
O16	O	-0.587922	-1.545111	0.479094
O17	O	-0.587879	-1.416101	0.608132
C18	C	-0.618150	-1.478681	0.545559
C19	C	-0.710816	-1.472808	0.551495
C20	C	-0.401533	-1.219669	0.531748
C21	C	-0.401549	-1.102891	0.531766
C22	C	-0.401461	-1.492720	0.805795
C23	C	-0.401426	-1.492756	0.922570
C24	C	-0.880477	-1.462090	0.562353
C25	C	-0.921768	-1.523370	0.501198
C26	C	-1.016173	-1.517406	0.507239
C27	C	-0.786063	-1.468052	0.556313
C28	C	-0.184090	-1.506673	0.517944
C29	C	-0.091424	-1.512655	0.512053
C30	C	-0.401554	-1.766669	0.531786
C31	C	-0.401558	-1.883445	0.531794
C32	C	-0.508315	-1.096077	0.672716
C33	C	-0.561705	-1.037808	0.743194
C34	C	-0.561715	-0.928086	0.743207
C35	C	-0.508328	-0.876630	0.672737
C36	C	-0.454938	-0.934899	0.602259
C37	C	-0.454935	-1.044623	0.602251
C38	C	-0.348169	-0.941713	0.461316
C39	C	-0.348161	-1.051436	0.461296
C40	C	-0.294781	-0.890258	0.390846
C41	C	-0.241394	-0.948526	0.320361
C42	C	-0.241387	-1.058255	0.320350
C43	C	-0.294771	-1.109704	0.390818
C44	C	-0.401564	-1.492616	0.258801
C45	C	-0.401364	-1.492798	0.142012
C46	C	-0.294805	-1.634028	0.915821
C47	C	-0.241481	-1.704680	0.967306
C48	C	-0.241451	-1.704707	1.077026
C49	C	-0.294748	-1.634074	1.135263
C50	C	-0.348071	-1.563422	1.083777
C51	C	-0.348098	-1.563404	0.974055
C52	C	-0.454688	-1.422147	1.090526
C53	C	-0.454723	-1.422123	0.980807
C54	C	-0.507985	-1.351514	1.148763
C55	C	-0.561313	-1.280866	1.097278
C56	C	-0.561342	-1.280842	0.987551
C57	C	-0.508047	-1.351472	0.929321
H58	H	-0.886218	-1.580310	0.444303
C59	C	-0.294786	-0.769561	0.390873
N60	N	-0.294788	-0.678650	0.390892
H61	H	-0.604699	-1.223356	1.144702
C62	C	-0.294774	-1.230401	0.390806
N63	N	-0.294778	-1.321311	0.390800
H64	H	-0.294832	-1.634022	0.826481
C65	C	-0.928502	-1.385159	0.639199
N66	N	-0.964683	-1.327210	0.697073
C67	C	-0.508310	-1.216774	0.672706
N68	N	-0.508305	-1.307684	0.672704
C69	C	-0.182856	-1.782372	0.903238
N70	N	-0.138699	-1.840888	0.854984
C71	C	-0.182673	-0.891918	0.242855
N72	N	-0.138444	-0.849277	0.184475
H73	H	-0.198025	-1.762231	1.118945
H74	H	-0.605170	-1.079716	0.800571
H75	H	-0.605185	-0.880644	0.800602
H76	H	-0.508334	-0.787289	0.672763
C77	C	-0.182653	-1.122342	0.242817
N78	N	-0.138413	-1.170608	0.184416
H79	H	-0.294711	-1.634094	1.224602
H80	H	-0.604756	-1.223298	0.945638
H81	H	-0.508069	-1.351463	0.839981
H82	H	-0.507953	-1.351537	1.238102
