data_functionalizedCrystal
_audit_creation_method	'MofGen! by Chris Wilmer'
_symmetry_space_group_name_H-M	'P1'
_symmetry_Int_Tables_number	1
_symmetry_cell_setting	triclinic
loop_
_symmetry_equiv_pos_as_xyz
  x,y,z
_cell_length_a	13.262402
_cell_length_b	19.188924
_cell_length_c	11.804499
_cell_angle_alpha	103.336572
_cell_angle_beta	87.666132
_cell_angle_gamma	83.816596
loop_
_atom_site_label
_atom_site_type_symbol
_atom_site_fract_x
_atom_site_fract_y
_atom_site_fract_z
O1	O	1.329113	0.051746	-0.331478
O2	O	1.041237	0.073871	-0.238229
O3	O	1.193484	-0.039149	-0.287559
O4	O	1.176867	0.164766	-0.282148
O5	O	1.157961	-0.062967	-0.474109
O6	O	1.005715	0.050053	-0.424779
O7	O	1.293590	0.027928	-0.518028
Cu8	Cu	1.146409	0.036816	-0.488437
Cu9	Cu	1.188419	0.064983	-0.267820
O10	O	1.141344	0.140948	-0.468698
C11	C	0.986646	0.062911	-0.319575
C12	C	0.876905	0.065731	-0.284028
C13	C	0.844712	0.080039	-0.165636
C14	C	0.741603	0.082695	-0.132240
C15	C	0.670679	0.071039	-0.217232
C16	C	0.702873	0.056726	-0.335626
C17	C	0.805991	0.054075	-0.369026
C18	C	0.631957	0.045074	-0.420621
C19	C	0.664151	0.030762	-0.539016
C20	C	0.767260	0.028111	-0.572409
C21	C	0.838184	0.039767	-0.487417
C22	C	0.528839	0.047725	-0.387222
C23	C	0.490118	0.021761	-0.590611
C24	C	0.593227	0.019105	-0.624008
C25	C	1.175185	-0.077050	-0.380661
C26	C	1.173572	-0.154497	-0.380142
C27	C	1.192183	-0.177885	-0.278209
C28	C	1.190655	-0.250652	-0.277705
C29	C	1.170536	-0.300030	-0.379146
C30	C	1.151917	-0.276634	-0.481090
C31	C	1.153435	-0.203867	-0.481588
N32	N	1.209998	-0.431301	-0.472279
N33	N	1.208559	-0.500426	-0.471800
C34	C	1.165959	-0.519273	-0.377652
N35	N	1.124867	-0.466383	-0.283988
N36	N	1.126311	-0.397253	-0.284465
C37	C	1.168887	-0.378935	-0.378618
C38	C	1.182913	-0.621562	-0.275166
C39	C	1.181379	-0.694329	-0.274664
C40	C	1.142650	-0.720312	-0.478056
C41	C	1.144175	-0.647544	-0.478551
C42	C	1.164312	-0.598174	-0.377105
C43	C	1.348182	0.038888	-0.436680
C44	C	1.457924	0.036069	-0.472219
C45	C	1.159643	0.178849	-0.375594
C46	C	1.161258	0.256297	-0.376106
N47	N	1.116870	0.017003	-0.643610
C48	C	1.288909	0.132377	-1.073283
C49	C	1.311251	0.147375	-0.955857
C50	C	1.262658	0.114783	-0.877790
C51	C	1.191719	0.067191	-0.917159
C52	C	1.169369	0.052196	-1.034593
C53	C	1.143117	0.034602	-0.839101
C54	C	1.072178	-0.012990	-0.878470
C55	C	1.049832	-0.027983	-0.995893
C56	C	1.098425	0.004609	-1.073961
C57	C	1.165467	0.049597	-0.721666
C58	C	1.045926	-0.030584	-0.682977
C59	C	1.023585	-0.045582	-0.800402
N60	N	1.217966	0.084790	-0.112650
H61	H	0.619454	0.007452	-0.720406
H62	H	0.502638	0.059380	-0.290824
H63	H	1.223225	0.088348	-0.689624
C64	C	1.120515	-0.774616	-0.589641
H65	H	1.109644	-0.750261	-0.650420
H66	H	1.176751	-0.811076	-0.612347
H67	H	1.061471	-0.796007	-0.574997
H68	H	1.006354	-0.057121	-0.619413
C69	C	1.123710	-0.621812	-0.590677
H70	H	1.127487	-0.571403	-0.576443
H71	H	1.173138	-0.646605	-0.651054
H72	H	1.057859	-0.631544	-0.613699
H73	H	1.369010	0.186124	-0.923812
H74	H	0.586724	0.073202	-0.190033
H75	H	1.328462	0.158911	-1.136852
C76	C	1.073849	-0.011887	-1.203130
H77	H	1.112949	0.014342	-1.243979
H78	H	1.089855	-0.062088	-1.236519
H79	H	1.003577	0.001926	-1.208578
H80	H	0.432370	0.012272	-0.659819
H81	H	0.922146	0.037600	-0.514603
H82	H	1.205805	-0.269698	-0.194695
H83	H	1.196530	-0.713368	-0.191654
H84	H	0.715398	0.094349	-0.035843
C85	C	0.922726	0.092859	-0.072161
H86	H	0.988745	0.089225	-0.109012
H87	H	0.906072	0.139612	-0.022395
H88	H	0.921501	0.057635	-0.027414
C89	C	0.971804	-0.080334	-1.039198
H90	H	0.946072	-0.097605	-0.975893
H91	H	0.917459	-0.055854	-1.070236
H92	H	1.003757	-0.119855	-1.098172
C93	C	1.214315	-0.123580	-0.166617
H94	H	1.225170	-0.147934	-0.105834
H95	H	1.273346	-0.102179	-0.181247
H96	H	1.158063	-0.087127	-0.143913
C97	C	1.129789	-0.330947	-0.592673
H98	H	1.131560	-0.377636	-0.577782
H99	H	1.064444	-0.316832	-0.615868
H100	H	1.179726	-0.331889	-0.653209
H101	H	0.793466	0.016463	-0.668813
H102	H	1.138276	-0.184826	-0.564595
C103	C	1.287270	0.131253	-0.748637
H104	H	1.336493	0.164253	-0.736376
H105	H	1.227130	0.151836	-0.700919
H106	H	1.313404	0.087820	-0.728945
C107	C	1.205051	-0.567251	-0.163578
H108	H	1.215901	-0.591603	-0.102792
H109	H	1.264087	-0.545857	-0.178213
H110	H	1.148805	-0.530793	-0.140876
C111	C	0.945538	-0.097918	-0.843706
H112	H	0.919796	-0.115185	-0.780402
H113	H	0.891203	-0.073423	-0.874738
H114	H	0.977473	-0.137443	-0.902685
