data_functionalizedCrystal
_audit_creation_method	'MofGen! by Chris Wilmer'
_symmetry_space_group_name_H-M	'P1'
_symmetry_Int_Tables_number	1
_symmetry_cell_setting	triclinic
loop_
_symmetry_equiv_pos_as_xyz
  x,y,z
_cell_length_a	10.967874
_cell_length_b	11.026607
_cell_length_c	10.065875
_cell_angle_alpha	79.268236
_cell_angle_beta	69.229500
_cell_angle_gamma	83.619819
loop_
_atom_site_label
_atom_site_type_symbol
_atom_site_fract_x
_atom_site_fract_y
_atom_site_fract_z
O1	O	1.760378	-0.088173	-0.527502
O2	O	1.389779	-0.118100	-0.440346
O3	O	1.544363	0.072636	-0.476695
O4	O	1.605795	-0.278909	-0.491153
O5	O	1.514919	0.036124	-0.242783
O6	O	1.360335	-0.154613	-0.206433
O7	O	1.730934	-0.124685	-0.293590
Zn8	Zn	1.540960	-0.145446	-0.212873
Zn9	Zn	1.579754	-0.097339	-0.521063
O10	O	1.576350	-0.315422	-0.257240
C11	C	1.326875	-0.136938	-0.312058
C12	C	1.183304	-0.138655	-0.278294
C13	C	1.134549	-0.120506	-0.384414
C14	C	0.986161	-0.122280	-0.349519
C15	C	1.518309	0.099267	-0.357076
C16	C	1.484526	0.233014	-0.349136
C17	C	1.793839	-0.105847	-0.421881
C18	C	1.937411	-0.104129	-0.455655
C19	C	1.602405	-0.342052	-0.376863
C20	C	1.636189	-0.475798	-0.384812
N21	N	1.514494	-0.178277	-0.002544
C22	C	1.577808	0.309491	-0.371075
C23	C	1.542894	0.447726	-0.362870
N24	N	1.606228	-0.064499	-0.731394
C25	C	1.570535	-0.108755	0.052057
C26	C	1.550178	-0.134031	0.214011
H27	H	0.918051	-0.139140	-0.232825
Br28	Br	1.812395	0.462785	-0.426264
H29	H	1.451437	-0.256506	0.070610
H30	H	1.005521	-0.087284	-0.572350
H31	H	1.378818	0.269880	-0.324285
Br32	Br	1.069789	-0.166758	-0.083800
H33	H	1.487118	-0.212265	0.287160
H34	H	1.202664	-0.103661	-0.501101
H35	H	1.683516	0.272625	-0.395927
Br36	Br	1.366694	0.509153	-0.321451
Br37	Br	1.675231	0.021937	-0.069763
H38	H	1.669277	0.013744	0.195460
