data_functionalizedCrystal
_audit_creation_method	'MofGen! by Chris Wilmer'
_symmetry_space_group_name_H-M	'P1'
_symmetry_Int_Tables_number	1
_symmetry_cell_setting	triclinic
loop_
_symmetry_equiv_pos_as_xyz
  x,y,z
_cell_length_a	14.853566
_cell_length_b	13.330367
_cell_length_c	14.853567
_cell_angle_alpha	89.999156
_cell_angle_beta	96.365328
_cell_angle_gamma	90.004705
loop_
_atom_site_label
_atom_site_type_symbol
_atom_site_fract_x
_atom_site_fract_y
_atom_site_fract_z
O1	O	1.196370	0.083349	-0.117698
O2	O	0.933910	0.083364	-0.131721
O3	O	1.072150	0.083359	0.006520
O4	O	1.058129	0.083354	-0.255939
O5	O	1.072130	-0.083488	0.006523
O6	O	0.933890	-0.083483	-0.131718
O7	O	1.196349	-0.083499	-0.117695
Cu8	Cu	1.065118	-0.098725	-0.124706
Cu9	Cu	1.065142	0.098591	-0.124710
O10	O	1.058109	-0.083493	-0.255936
C11	C	0.900311	-0.000057	-0.131084
C12	C	0.800227	-0.000051	-0.129181
C13	C	0.377053	0.090880	-0.121132
C14	C	0.377053	-0.091023	-0.121129
C15	C	0.471087	-0.091020	-0.122916
C16	C	0.518108	-0.000066	-0.123813
C17	C	0.471096	0.090886	-0.122922
C18	C	0.518105	-0.181970	-0.123816
C19	C	0.612145	-0.181971	-0.125605
C20	C	0.659169	-0.091015	-0.126495
C21	C	0.612151	-0.000060	-0.125603
C22	C	0.659172	0.090895	-0.126500
C23	C	0.612157	0.181851	-0.125601
C24	C	0.518120	0.181841	-0.123812
C25	C	0.753206	-0.091006	-0.128284
C26	C	0.753215	0.090900	-0.128290
N27	N	1.065108	-0.237507	-0.124703
C28	C	1.003926	-0.710127	-0.185899
C29	C	1.126381	-0.710100	-0.063514
C30	C	1.126371	-0.605082	-0.063511
C31	C	1.065138	-0.552581	-0.124704
C32	C	1.003916	-0.605099	-0.185900
C33	C	1.187599	-0.552556	-0.002322
C34	C	1.187592	-0.447531	-0.002318
C35	C	1.126354	-0.395029	-0.063507
C36	C	1.065128	-0.447553	-0.124705
C37	C	1.003895	-0.395053	-0.185898
C38	C	0.942664	-0.447575	-0.247092
C39	C	0.942678	-0.552597	-0.247089
C40	C	1.126340	-0.290007	-0.063510
C41	C	1.003885	-0.290025	-0.185899
C42	C	1.229948	-0.000075	-0.118332
C43	C	1.330032	-0.000075	-0.120235
C44	C	1.071505	-0.000062	0.040111
C45	C	1.069601	-0.000053	0.140194
N46	N	1.065159	0.237372	-0.124706
C47	C	1.058754	-0.000071	-0.289526
C48	C	1.060658	-0.000073	-0.389610
C49	C	0.979435	-0.000067	0.552728
C50	C	1.143668	-0.000076	0.574009
C51	C	1.145458	-0.000070	0.479976
C52	C	1.064236	-0.000064	0.422313
C53	C	0.981223	-0.000064	0.458685
C54	C	1.228470	-0.000081	0.443597
C55	C	1.230263	-0.000076	0.349558
C56	C	1.149040	-0.000063	0.291894
C57	C	1.066023	-0.000061	0.328271
C58	C	0.984801	-0.000055	0.270608
C59	C	0.901784	-0.000047	0.306984
C60	C	0.899999	-0.000050	0.401021
C61	C	1.150824	-0.000059	0.197856
C62	C	0.986588	-0.000052	0.176566
H63	H	0.338762	-0.165074	-0.120405
F64	F	0.877518	-0.608499	-0.312213
H65	H	0.650453	0.255906	-0.126337
F66	F	0.803252	0.187709	-0.129237
F67	F	0.662174	-0.278773	-0.126560
H68	H	1.209796	-0.000089	0.620963
H69	H	0.954018	-0.247285	-0.235727
H70	H	0.791481	-0.165061	-0.129025
H71	H	1.218415	-0.000073	0.168244
F72	F	0.938759	-0.766023	-0.251020
H73	H	1.176198	-0.247248	-0.013691
H74	H	0.338770	0.164934	-0.120397
F75	F	1.252755	-0.391640	0.062810
H76	H	1.294597	-0.000095	0.490552
H77	H	1.176240	-0.752849	-0.013696
F78	F	1.318616	-0.000073	0.310853
H79	H	0.832411	-0.000044	0.430646
H80	H	0.835653	-0.000048	0.260023
F81	F	0.468056	-0.278763	-0.122872
H82	H	0.892812	-0.404818	-0.296920
F83	F	1.252770	-0.608430	0.062795
F84	F	0.900138	-0.000039	0.115204
F85	F	0.468080	0.278634	-0.122828
H86	H	0.911845	-0.000056	0.582349
