data_functionalizedCrystal
_audit_creation_method	'MofGen! by Chris Wilmer'
_symmetry_space_group_name_H-M	'P1'
_symmetry_Int_Tables_number	1
_symmetry_cell_setting	triclinic
loop_
_symmetry_equiv_pos_as_xyz
  x,y,z
_cell_length_a	29.839131
_cell_length_b	12.594517
_cell_length_c	12.594509
_cell_angle_alpha	89.974182
_cell_angle_beta	90.034966
_cell_angle_gamma	89.963643
loop_
_atom_site_label
_atom_site_type_symbol
_atom_site_fract_x
_atom_site_fract_y
_atom_site_fract_z
Zn1	Zn	-0.178900	-1.627079	0.601938
Zn2	Zn	-0.254035	-1.626891	0.423938
Zn3	Zn	-0.178913	-1.449083	0.423953
Zn4	Zn	-0.253998	-1.448987	0.601854
O5	O	-0.216462	-1.538010	0.512921
O6	O	-0.188878	-1.776000	0.578355
O7	O	-0.244091	-1.603266	0.274994
O8	O	-0.116044	-1.472814	0.447604
O9	O	-0.244079	-1.775862	0.447579
O10	O	-0.116035	-1.603587	0.578368
O11	O	-0.188899	-1.472632	0.275005
O12	O	-0.188863	-1.300125	0.447523
O13	O	-0.244015	-1.472649	0.750811
O14	O	-0.244027	-1.300054	0.578226
O15	O	-0.188841	-1.603493	0.750872
O16	O	-0.316897	-1.603173	0.447498
O17	O	-0.316870	-1.472467	0.578212
C18	C	-0.216443	-1.261469	0.512868
C19	C	-0.216445	-1.143164	0.512870
C20	C	-0.186398	-1.073918	0.441911
C21	C	-0.227375	-1.003064	0.415714
C22	C	-0.175481	-1.003219	0.539069
C23	C	-0.257444	-1.073868	0.486623
C24	C	-0.205522	-1.074029	0.610023
C25	C	-0.246527	-1.003206	0.583863
C26	C	-0.333184	-1.537818	0.512868
C27	C	-0.383119	-1.537833	0.512881
C28	C	-0.692764	-1.606192	0.444957
C29	C	-0.880437	-1.606324	0.444999
O30	O	-0.904703	-1.664293	0.387207
N31	N	-0.903904	-1.538231	0.513001
C32	C	-0.880449	-1.470105	0.581003
O33	O	-0.904716	-1.412199	0.638852
C34	C	-0.692777	-1.469980	0.580966
C35	C	-0.669313	-1.538070	0.512952
C36	C	-0.669299	-1.674278	0.376949
C37	C	-0.622384	-1.674240	0.376935
C38	C	-0.598933	-1.606117	0.444930
C39	C	-0.622397	-1.538032	0.512938
C40	C	-0.669324	-1.401860	0.648972
C41	C	-0.622403	-1.401837	0.648959
C42	C	-0.598938	-1.469927	0.580945
C43	C	-0.552031	-1.469872	0.580918
N44	N	-0.528564	-1.537965	0.512916
C45	C	-0.552015	-1.606087	0.444922
C46	C	-0.978980	-1.470174	0.581016
C47	C	-1.025898	-1.470204	0.581024
C48	C	-1.025882	-1.606424	0.445021
C49	C	-0.978963	-1.606388	0.445008
C50	C	-0.955513	-1.538267	0.513013
C51	C	-0.453489	-1.606003	0.444897
C52	C	-0.406570	-1.605956	0.444887
C53	C	-0.406590	-1.469740	0.580893
C54	C	-0.453505	-1.469782	0.580900
C55	C	-0.476954	-1.537922	0.512899
O56	O	-0.527736	-1.411941	0.638688
O57	O	-0.527741	-1.664002	0.387098
C58	C	-0.739679	-1.606230	0.444971
C59	C	-0.763144	-1.538145	0.512979
C60	C	-0.739693	-1.470022	0.580973
C61	C	-0.810061	-1.538175	0.512987
C62	C	-0.833512	-1.606297	0.444993
C63	C	-0.810046	-1.674390	0.376990
C64	C	-0.763130	-1.674353	0.376977
C65	C	-0.763160	-1.401929	0.648976
C66	C	-0.810075	-1.401972	0.648983
C67	C	-0.833526	-1.470094	0.580989
C68	C	-0.099283	-1.538232	0.512997
C69	C	-0.049349	-1.538327	0.513029
C70	C	-0.216422	-1.538081	0.790542
C71	C	-0.216405	-1.538112	0.908847
C72	C	-0.216472	-0.815631	0.512955
C73	C	-0.216453	-0.933936	0.512919
C74	C	-0.216468	-1.538000	0.236380
C75	C	-0.216359	-1.538176	0.118075
C76	C	-0.246397	-1.466968	0.978067
C77	C	-0.257378	-1.564077	1.048862
C78	C	-0.205398	-1.441079	1.048851
C79	C	-0.227407	-1.635272	0.978084
C80	C	-0.175409	-1.512208	0.978067
C81	C	-0.186373	-1.609384	1.048830
H82	H	-0.140840	-0.972128	0.561171
H83	H	-0.236620	-0.971896	0.333575
N84	N	-0.382622	-1.400173	0.650344
N85	N	-0.356404	-1.437582	0.718188
H86	H	-0.339475	-1.388455	0.767243
H87	H	-0.292100	-1.104773	0.464393
N88	N	-0.834006	-1.743961	0.307520
N89	N	-0.860223	-1.706561	0.239670
H90	H	-0.877147	-1.755693	0.190611
N91	N	-0.300845	-1.591621	1.087865
N92	N	-0.331985	-1.610478	1.024191
H93	H	-0.362685	-1.629926	1.051732
H94	H	-0.387466	-1.661403	0.389497
H95	H	-0.236737	-1.717382	0.947129
N96	N	-0.193906	-1.113189	0.713023
N97	N	-0.192373	-1.210977	0.729646
H98	H	-0.184164	-1.238639	0.802390
N99	N	-1.049848	-1.676000	0.375567
N100	N	-1.091739	-1.676009	0.375594
H101	H	-1.108667	-1.725147	0.326549
H102	H	-0.160990	-1.669644	1.079704
H103	H	-0.271970	-0.972354	0.643892
H104	H	-0.472576	-1.661491	0.389527
N105	N	-0.131950	-1.484656	0.939034
N106	N	-0.100979	-1.464218	1.002680
H107	H	-0.070286	-1.444751	0.975113
H108	H	-0.603282	-1.729687	0.321556
H109	H	-1.044999	-1.414748	0.636398
H110	H	-0.688388	-1.729757	0.321580
N111	N	-0.955025	-1.400597	0.650489
N112	N	-0.928814	-1.437987	0.718357
H113	H	-0.911897	-1.388848	0.767424
H114	H	-0.688421	-1.346409	0.704352
N115	N	-0.193748	-1.338100	1.087848
N116	N	-0.217589	-1.259655	1.065160
H117	H	-0.209365	-1.186923	1.092698
N118	N	-0.739163	-1.743914	0.307514
N119	N	-0.712943	-1.811706	0.345012
H120	H	-0.696018	-1.860834	0.295951
N121	N	-0.598450	-1.332264	0.718441
N122	N	-0.603658	-1.339284	0.816663
H123	H	-0.586742	-1.290149	0.865734
N124	N	-0.154558	-1.112861	0.366542
N125	N	-0.158639	-1.090074	0.270413
H126	H	-0.136154	-1.117577	0.217181
H127	H	-0.959861	-1.661833	0.389626
N128	N	-0.477469	-1.400207	0.650362
N129	N	-0.456523	-1.339381	0.711058
H130	H	-0.473444	-1.290245	0.760121
H131	H	-0.829176	-1.346515	0.704368
H132	H	-0.744069	-1.346457	0.704346
H133	H	-0.271800	-1.406851	0.946998
