data_functionalizedCrystal
_audit_creation_method	'MofGen! by Chris Wilmer'
_symmetry_space_group_name_H-M	'P1'
_symmetry_Int_Tables_number	1
_symmetry_cell_setting	triclinic
loop_
_symmetry_equiv_pos_as_xyz
  x,y,z
_cell_length_a	29.839131
_cell_length_b	29.839134
_cell_length_c	29.839125
_cell_angle_alpha	89.987811
_cell_angle_beta	89.982291
_cell_angle_gamma	90.021992
loop_
_atom_site_label
_atom_site_type_symbol
_atom_site_fract_x
_atom_site_fract_y
_atom_site_fract_z
Zn1	Zn	-0.179149	0.686719	-0.254008
Zn2	Zn	0.320851	1.186719	0.245992
Zn3	Zn	-0.254261	0.686652	-0.178878
Zn4	Zn	0.245739	1.186652	0.321122
Zn5	Zn	-0.179121	0.611602	-0.178890
Zn6	Zn	0.320879	1.111602	0.321110
Zn7	Zn	-0.254227	0.611550	-0.253979
Zn8	Zn	0.245773	1.111550	0.246021
O9	O	-0.216690	0.649131	-0.216439
O10	O	0.283310	1.149131	0.283561
O11	O	-0.189139	0.749578	-0.244048
O12	O	0.310861	1.249578	0.255952
O13	O	-0.244296	0.676690	-0.116012
O14	O	0.255704	1.176690	0.383988
O15	O	-0.116257	0.621617	-0.188872
O16	O	0.383743	1.121617	0.311128
O17	O	-0.244324	0.749528	-0.188851
O18	O	0.255676	1.249528	0.311149
O19	O	-0.116278	0.676805	-0.244060
O20	O	0.383722	1.176805	0.255940
O21	O	-0.189090	0.621551	-0.116021
O22	O	0.310910	1.121551	0.383979
O23	O	-0.189058	0.548728	-0.188844
O24	O	0.310942	1.048728	0.311156
O25	O	-0.244266	0.621528	-0.316850
O26	O	0.255734	1.121528	0.183150
O27	O	-0.244238	0.548690	-0.244011
O28	O	0.255762	1.048690	0.255989
O29	O	-0.189106	0.676755	-0.316871
O30	O	0.310894	1.176755	0.183129
O31	O	-0.317124	0.676639	-0.188823
O32	O	0.182876	1.176639	0.311177
O33	O	-0.317099	0.621462	-0.243999
O34	O	0.182901	1.121462	0.256001
C35	C	-0.216641	0.532408	-0.216426
C36	C	0.283359	1.032408	0.283574
C37	C	-0.216632	0.482474	-0.216431
C38	C	0.283368	0.982474	0.283569
C39	C	-0.188015	0.125909	-0.245237
C40	C	0.311985	0.625909	0.254763
C41	C	-0.187979	0.313582	-0.245226
C42	C	0.312021	0.813582	0.254774
O43	O	-0.163591	0.337865	-0.269715
O44	O	0.336409	0.837865	0.230285
N45	N	-0.216661	0.337029	-0.216442
N46	N	0.283339	0.837029	0.283558
C47	C	-0.245357	0.313555	-0.187660
C48	C	0.254643	0.813555	0.312340
O49	O	-0.269755	0.337804	-0.163181
O50	O	0.230245	0.837804	0.336819
C51	C	-0.245395	0.125883	-0.187673
C52	C	0.254605	0.625883	0.312327
C53	C	-0.216707	0.102438	-0.216456
C54	C	0.283293	0.602438	0.283544
C55	C	-0.159330	0.102464	-0.274017
C56	C	0.340670	0.602464	0.225983
C57	C	-0.159338	0.055548	-0.274018
C58	C	0.340662	0.555548	0.225982
C59	C	-0.188030	0.032078	-0.245238
C60	C	0.311970	0.532078	0.254762
C61	C	-0.216715	0.055522	-0.216457
C62	C	0.283285	0.555522	0.283543
C63	C	-0.274092	0.102409	-0.158894
C64	C	0.225908	0.602409	0.341106
C65	C	-0.274100	0.055488	-0.158901
C66	C	0.225900	0.555488	0.341099
C67	C	-0.245412	0.032044	-0.187684
C68	C	0.254588	0.532044	0.312316
C69	C	-0.245415	-0.014864	-0.187677
C70	C	0.254585	0.485136	0.312323
N71	N	-0.216732	-0.038311	-0.216461
N72	N	0.283268	0.461689	0.283539
C73	C	-0.188040	-0.014840	-0.245242
C74	C	0.311960	0.485160	0.254758
C75	C	-0.245334	0.412085	-0.187655
C76	C	0.254666	0.912085	0.312345
C77	C	-0.245324	0.459003	-0.187651
C78	C	0.254676	0.959003	0.312349
C79	C	-0.187947	0.459027	-0.245218
C80	C	0.312053	0.959027	0.254782
C81	C	-0.187955	0.412108	-0.245219
C82	C	0.312045	0.912108	0.254781
C83	C	-0.216652	0.388638	-0.216439
C84	C	0.283348	0.888638	0.283561
C85	C	-0.188058	-0.113366	-0.245240
C86	C	0.311942	0.386634	0.254760
C87	C	-0.188067	-0.160286	-0.245237
C88	C	0.311933	0.339714	0.254763
C89	C	-0.245445	-0.160305	-0.187672
C90	C	0.254555	0.339695	0.312328
C91	C	-0.245435	-0.113390	-0.187674
C92	C	0.254565	0.386610	0.312326
C93	C	-0.216740	-0.089921	-0.216461
C94	C	0.283260	0.410079	0.283539
O95	O	-0.269794	-0.039176	-0.163204
O96	O	0.230206	0.460824	0.336796
O97	O	-0.163652	-0.039098	-0.269725
O98	O	0.336348	0.460902	0.230275
C99	C	-0.188007	0.172824	-0.245236
C100	C	0.311993	0.672824	0.254764
C101	C	-0.216692	0.196269	-0.216455
C102	C	0.283308	0.696269	0.283545
C103	C	-0.245384	0.172798	-0.187675
C104	C	0.254616	0.672798	0.312325
C105	C	-0.216682	0.243187	-0.216451
C106	C	0.283318	0.743187	0.283549
C107	C	-0.187990	0.266657	-0.245231
C108	C	0.312010	0.766657	0.254769
C109	C	-0.159308	0.243210	-0.274016
C110	C	0.340692	0.743210	0.225984
C111	C	-0.159315	0.196295	-0.274016
C112	C	0.340685	0.696295	0.225984
C113	C	-0.274067	0.196245	-0.158891
C114	C	0.225933	0.696245	0.341109
C115	C	-0.274056	0.243161	-0.158892
C116	C	0.225944	0.743161	0.341108
C117	C	-0.245364	0.266631	-0.187672
C118	C	0.254636	0.766631	0.312328
C119	C	-0.333412	0.649050	-0.216416
C120	C	0.166588	1.149050	0.283584
C121	C	-0.383347	0.649056	-0.216422
C122	C	0.116653	1.149056	0.283578
C123	C	-0.692990	0.677914	-0.187750
C124	C	-0.192990	1.177914	0.312250
C125	C	-0.880663	0.677969	-0.187767
C126	C	-0.380663	1.177969	0.312233
O127	O	-0.904928	0.702440	-0.163373
O128	O	-0.404928	1.202440	0.336627
N129	N	-0.904132	0.649224	-0.216472
N130	N	-0.404132	1.149224	0.283528
C131	C	-0.880679	0.620465	-0.245177
C132	C	-0.380679	1.120465	0.254823
O133	O	-0.904946	0.596020	-0.269596
O134	O	-0.404946	1.096020	0.230404
C135	C	-0.693007	0.620412	-0.245162
C136	C	-0.193007	1.120412	0.254838
C137	C	-0.669541	0.649156	-0.216452
C138	C	-0.169541	1.149156	0.283548
C139	C	-0.669524	0.706655	-0.159043
C140	C	-0.169524	1.206655	0.340957
C141	C	-0.622609	0.706640	-0.159037
C142	C	-0.122609	1.206640	0.340963
C143	C	-0.599159	0.677882	-0.187738
C144	C	-0.099159	1.177882	0.312262
C145	C	-0.622625	0.649140	-0.216446
C146	C	-0.122625	1.149140	0.283554
C147	C	-0.669555	0.591656	-0.273868
C148	C	-0.169555	1.091656	0.226132
C149	C	-0.622634	0.591646	-0.273863
C150	C	-0.122634	1.091646	0.226137
C151	C	-0.599168	0.620390	-0.245153
C152	C	-0.099168	1.120390	0.254847
C153	C	-0.552260	0.620367	-0.245141
C154	C	-0.052260	1.120367	0.254859
N155	N	-0.528792	0.649112	-0.216437
N156	N	-0.028792	1.149112	0.283563
C157	C	-0.552242	0.677869	-0.187735
C158	C	-0.052242	1.177869	0.312265
C159	C	-0.979209	0.620494	-0.245183
C160	C	-0.479209	1.120494	0.254817
C161	C	-1.026127	0.620507	-0.245186
C162	C	-0.526127	1.120507	0.254814
C163	C	-1.026109	0.678012	-0.187777
C164	C	-0.526109	1.178012	0.312223
C165	C	-0.979190	0.677996	-0.187772
C166	C	-0.479190	1.177996	0.312228
C167	C	-0.955741	0.649239	-0.216478
C168	C	-0.455741	1.149239	0.283522
C169	C	-0.453716	0.677834	-0.187725
C170	C	0.046284	1.177834	0.312275
C171	C	-0.406796	0.677814	-0.187720
C172	C	0.093204	1.177814	0.312280
C173	C	-0.406819	0.620311	-0.245131
C174	C	0.093181	1.120311	0.254869
C175	C	-0.453734	0.620329	-0.245134
C176	C	0.046266	1.120329	0.254866
C177	C	-0.477182	0.649094	-0.216429
C178	C	0.022818	1.149094	0.283571
O179	O	-0.527966	0.595912	-0.269527
O180	O	-0.027966	1.095912	0.230473
O181	O	-0.527966	0.702318	-0.163327
O182	O	-0.027966	1.202318	0.336673
C183	C	-0.739906	0.677930	-0.187756
C184	C	-0.239906	1.177930	0.312244
C185	C	-0.763372	0.649188	-0.216463
C186	C	-0.263372	1.149188	0.283537
C187	C	-0.739922	0.620430	-0.245165
C188	C	-0.239922	1.120430	0.254835
C189	C	-0.810289	0.649200	-0.216467
C190	C	-0.310289	1.149200	0.283533
C191	C	-0.833739	0.677958	-0.187765
C192	C	-0.333739	1.177958	0.312235
C193	C	-0.810271	0.706703	-0.159060
C194	C	-0.310271	1.206703	0.340940
C195	C	-0.763355	0.706687	-0.159054
C196	C	-0.263355	1.206687	0.340946
C197	C	-0.763390	0.591685	-0.273870
C198	C	-0.263390	1.091685	0.226130
C199	C	-0.810306	0.591703	-0.273873
C200	C	-0.310306	1.091703	0.226127
C201	C	-0.833755	0.620461	-0.245171
C202	C	-0.333755	1.120461	0.254829
C203	C	-0.099511	0.649225	-0.216471
C204	C	0.400489	1.149225	0.283529
C205	C	-0.049577	0.649264	-0.216484
C206	C	0.450423	1.149264	0.283516
C207	C	-0.216686	0.649143	-0.333617
C208	C	0.283314	1.149143	0.166383
C209	C	-0.216684	0.649148	-0.383551
C210	C	0.283316	1.149148	0.116449
C211	C	-0.216738	0.766309	-0.216451
C212	C	0.283262	1.266309	0.283549
C213	C	-0.216759	0.816244	-0.216457
C214	C	0.283241	1.316244	0.283543
C215	C	-0.187887	0.677935	-0.693209
C216	C	0.312113	1.177935	-0.193209
C217	C	-0.187849	0.677957	-0.880882
C218	C	0.312151	1.177957	-0.380882
O219	O	-0.163407	0.702399	-0.905159
O220	O	0.336593	1.202399	-0.405159
N221	N	-0.216564	0.649208	-0.904337
N222	N	0.283436	1.149208	-0.404337
C223	C	-0.245288	0.620449	-0.880870
C224	C	0.254712	1.120449	-0.380870
O225	O	-0.269708	0.595993	-0.905126
O226	O	0.230292	1.095993	-0.405126
C227	C	-0.245324	0.620424	-0.693198
C228	C	0.254676	1.120424	-0.193198
C229	C	-0.216610	0.649179	-0.669746
C230	C	0.283390	1.149179	-0.169746
C231	C	-0.159175	0.706687	-0.669757
C232	C	0.340825	1.206687	-0.169757
C233	C	-0.159187	0.706683	-0.622841
C234	C	0.340813	1.206683	-0.122841
C235	C	-0.187910	0.677927	-0.599378
C236	C	0.312090	1.177927	-0.099378
C237	C	-0.216622	0.649175	-0.622830
C238	C	0.283378	1.149175	-0.122830
C239	C	-0.274045	0.591663	-0.669732
C240	C	0.225955	1.091663	-0.169732
C241	C	-0.274051	0.591659	-0.622811
C242	C	0.225949	1.091659	-0.122811
C243	C	-0.245337	0.620414	-0.599359
C244	C	0.254663	1.120414	-0.099359
C245	C	-0.245356	0.620415	-0.552451
C246	C	0.254644	1.120415	-0.052451
N247	N	-0.216642	0.649164	-0.528997
N248	N	0.283358	1.149164	-0.028997
C249	C	-0.187918	0.677920	-0.552460
C250	C	0.312082	1.177920	-0.052460
C251	C	-0.245268	0.620464	-0.979401
C252	C	0.254732	1.120464	-0.479401
C253	C	-0.245260	0.620471	-1.026319
C254	C	0.254740	1.120471	-0.526319
C255	C	-0.187820	0.677979	-1.026327
C256	C	0.312180	1.177979	-0.526327
C257	C	-0.187830	0.677974	-0.979409
C258	C	0.312170	1.177974	-0.479409
C259	C	-0.216553	0.649213	-0.955946
C260	C	0.283447	1.149213	-0.455946
C261	C	-0.187945	0.677910	-0.453934
C262	C	0.312055	1.177910	0.046066
C263	C	-0.187961	0.677904	-0.407015
C264	C	0.312039	1.177904	0.092985
C265	C	-0.245399	0.620395	-0.407010
C266	C	0.254601	1.120395	0.092990
C267	C	-0.245385	0.620401	-0.453926
C268	C	0.254615	1.120401	0.046074
C269	C	-0.216655	0.649160	-0.477386
C270	C	0.283345	1.149160	0.022614
O271	O	-0.269782	0.595982	-0.528146
O272	O	0.230218	1.095982	-0.028146
O273	O	-0.163495	0.702365	-0.528196
O274	O	0.336505	1.202365	-0.028196
C275	C	-0.187875	0.677939	-0.740124
C276	C	0.312125	1.177939	-0.240124
C277	C	-0.216587	0.649187	-0.763577
C278	C	0.283413	1.149187	-0.263577
C279	C	-0.245310	0.620431	-0.740113
C280	C	0.254690	1.120431	-0.240113
C281	C	-0.216579	0.649194	-0.810494
C282	C	0.283421	1.149194	-0.310494
C283	C	-0.187856	0.677950	-0.833958
C284	C	0.312144	1.177950	-0.333958
C285	C	-0.159141	0.706699	-0.810503
C286	C	0.340859	1.206699	-0.310503
C287	C	-0.159152	0.706695	-0.763588
C288	C	0.340848	1.206695	-0.263588
C289	C	-0.274025	0.591682	-0.763568
C290	C	0.225975	1.091682	-0.263568
C291	C	-0.274011	0.591689	-0.810483
C292	C	0.225989	1.091689	-0.310483
C293	C	-0.245288	0.620445	-0.833947
C294	C	0.254712	1.120445	-0.333947
C295	C	-0.216661	0.649145	-0.099716
C296	C	0.283339	1.149145	0.400284
C297	C	-0.216536	0.649227	-0.049782
C298	C	0.283464	1.149227	0.450218
H299	H	-0.164704	-0.179372	-0.268675
H300	H	0.335296	0.320628	0.231325
C301	C	-0.276418	0.386549	-0.156379
C302	C	0.223582	0.886549	0.343621
C303	C	-0.250946	0.359601	-0.127637
C304	C	0.249054	0.859601	0.372363
C305	C	-0.279564	0.336068	-0.098823
C306	C	0.220436	0.836068	0.401177
H307	H	-0.293507	0.407184	-0.139194
H308	H	0.206493	0.907184	0.360806
H309	H	-0.296017	0.368222	-0.173516
H310	H	0.203983	0.868222	0.326484
H311	H	-0.231355	0.377926	-0.110502
H312	H	0.268645	0.877926	0.389498
H313	H	-0.233859	0.338957	-0.144810
H314	H	0.266141	0.838957	0.355190
H315	H	-0.299164	0.317741	-0.115960
H316	H	0.200836	0.817741	0.384040
H317	H	-0.296652	0.356706	-0.081641
H318	H	0.203348	0.856706	0.418359
H319	H	-0.262287	0.317777	-0.079321
H320	H	0.237713	0.817777	0.420679
C321	C	-0.156726	0.709244	-0.953923
C322	C	0.343274	1.209244	-0.453923
C323	C	-0.182175	0.738024	-0.926992
C324	C	0.317825	1.238024	-0.426992
C325	C	-0.153535	0.766838	-0.903516
C326	C	0.346465	1.266838	-0.403516
H327	H	-0.137138	0.692122	-0.935588
H328	H	0.362862	1.192122	-0.435588
H329	H	-0.139627	0.726396	-0.974606
H330	H	0.360373	1.226396	-0.474606
H331	H	-0.199267	0.720873	-0.906312
H332	H	0.300733	1.220873	-0.406312
H333	H	-0.201762	0.755155	-0.945317
H334	H	0.298238	1.255155	-0.445317
H335	H	-0.136436	0.783991	-0.924198
H336	H	0.363564	1.283991	-0.424198
H337	H	-0.133949	0.749713	-0.885182
H338	H	0.366051	1.249713	-0.385182
H339	H	-0.170798	0.786372	-0.885243
H340	H	0.329202	1.286372	-0.385243
C341	C	-0.953836	0.589216	-0.276364
C342	C	-0.453836	1.089216	0.223636
C343	C	-0.984436	0.564039	-0.301490
C344	C	-0.484436	1.064039	0.198510
C345	C	-0.961080	0.535215	-0.330213
C346	C	-0.461080	1.035215	0.169787
H347	H	-0.935512	0.606327	-0.295997
H348	H	-0.435512	1.106327	0.204003
H349	H	-0.935564	0.569624	-0.259169
H350	H	-0.435564	1.069624	0.240831
H351	H	-1.002700	0.583629	-0.318685
H352	H	-0.502700	1.083629	0.181315
H353	H	-1.002761	0.546919	-0.281869
H354	H	-0.502761	1.046919	0.218131
H355	H	-0.942808	0.515623	-0.313017
H356	H	-0.442808	1.015623	0.186983
H357	H	-0.942757	0.552329	-0.349842
H358	H	-0.442757	1.052329	0.150158
H359	H	-0.981839	0.518126	-0.347261
H360	H	-0.481839	1.018126	0.152739
H361	H	-0.387719	0.596895	-0.268498
H362	H	0.112281	1.096895	0.231502
H363	H	-0.268804	-0.179424	-0.164238
H364	H	0.231196	0.320576	0.335762
H365	H	-0.164594	0.393023	-0.268656
H366	H	0.335406	0.893023	0.231344
C367	C	-0.835699	0.560475	-0.305095
C368	C	-0.335699	1.060475	0.194905
C369	C	-0.805115	0.535299	-0.330236
C370	C	-0.305115	1.035299	0.169764
C371	C	-0.828489	0.506536	-0.359009
C372	C	-0.328489	1.006536	0.140991
H373	H	-0.854027	0.540877	-0.287949
H374	H	-0.354027	1.040877	0.212051
H375	H	-0.853969	0.577645	-0.324713
H376	H	-0.353969	1.077645	0.175287
H377	H	-0.786853	0.518131	-0.310622
H378	H	-0.286853	1.018131	0.189378
H379	H	-0.786786	0.554886	-0.347392
H380	H	-0.286786	1.054886	0.152608
H381	H	-0.846759	0.523705	-0.378627
H382	H	-0.346759	1.023705	0.121373
H383	H	-0.846815	0.486940	-0.341860
H384	H	-0.346815	0.986940	0.158140
H385	H	-0.807741	0.489453	-0.376074
H386	H	-0.307741	0.989453	0.123926
C387	C	-0.127926	0.737842	-0.597413
C388	C	0.372074	1.237842	-0.097413
C389	C	-0.083476	0.728077	-0.608835
C390	C	0.416524	1.228077	-0.108835
C391	C	-0.054660	0.756768	-0.585421
C392	C	0.445340	1.256768	-0.085421
H393	H	-0.134449	0.768039	-0.605089
H394	H	0.365551	1.268039	-0.105089
H395	H	-0.132005	0.733725	-0.566103
H396	H	0.367995	1.233725	-0.066103
H397	H	-0.079400	0.732199	-0.640138
H398	H	0.420600	1.232199	-0.140138
H399	H	-0.076939	0.697886	-0.601158
H400	H	0.423061	1.197886	-0.101158
H401	H	-0.058739	0.752651	-0.554112
H402	H	0.441261	1.252651	-0.054112
H403	H	-0.061187	0.786963	-0.593099
H404	H	0.438813	1.286963	-0.093099
H405	H	-0.024498	0.750144	-0.593165
H406	H	0.475502	1.250144	-0.093165
C407	C	-0.694943	0.560432	-0.305091
C408	C	-0.194943	1.060432	0.194909
C409	C	-0.664355	0.535260	-0.330232
C410	C	-0.164355	1.035260	0.169768
C411	C	-0.687725	0.506495	-0.359006
C412	C	-0.187725	1.006495	0.140994
H413	H	-0.713268	0.540831	-0.287946
H414	H	-0.213268	1.040831	0.212054
H415	H	-0.713214	0.577600	-0.324709
H416	H	-0.213214	1.077600	0.175291
H417	H	-0.646091	0.518093	-0.310617
H418	H	-0.146091	1.018093	0.189383
H419	H	-0.646029	0.554849	-0.347387
H420	H	-0.146029	1.054849	0.152613
H421	H	-0.705997	0.523662	-0.378624
H422	H	-0.205997	1.023662	0.121376
H423	H	-0.706050	0.486897	-0.341857
H424	H	-0.206050	0.986897	0.158143
H425	H	-0.666976	0.489415	-0.376071
H426	H	-0.166976	0.989415	0.123929
C427	C	-0.305281	0.560519	-0.695206
C428	C	0.194719	1.060519	-0.195206
C429	C	-0.334095	0.585931	-0.722129
C430	C	0.165905	1.085931	-0.222129
C431	C	-0.362884	0.557256	-0.745595
C432	C	0.137116	1.057256	-0.245595
H433	H	-0.288142	0.540947	-0.713546
H434	H	0.211858	1.040947	-0.213546
H435	H	-0.322410	0.543404	-0.674517
H436	H	0.177590	1.043404	-0.174517
H437	H	-0.316968	0.603038	-0.742816
H438	H	0.183032	1.103038	-0.242816
H439	H	-0.351244	0.605502	-0.703800
H440	H	0.148756	1.105502	-0.203800
H441	H	-0.380012	0.540141	-0.724906
H442	H	0.119988	1.040141	-0.224906
H443	H	-0.345741	0.537685	-0.763932
H444	H	0.154259	1.037685	-0.263932
H445	H	-0.382440	0.574494	-0.763862
H446	H	0.117560	1.074494	-0.263862
H447	H	-0.135755	0.730115	-0.829615
H448	H	0.364245	1.230115	-0.329615
C449	C	-0.695053	0.737824	-0.127882
C450	C	-0.195053	1.237824	0.372118
C451	C	-0.722044	0.712439	-0.099069
C452	C	-0.222044	1.212439	0.400931
C453	C	-0.745576	0.741144	-0.070370
C454	C	-0.245576	1.241144	0.429630
H455	H	-0.674418	0.754964	-0.110743
H456	H	-0.174418	1.254964	0.389257
H457	H	-0.713352	0.757372	-0.145100
H458	H	-0.213352	1.257372	0.354900
H459	H	-0.703747	0.692899	-0.081852
H460	H	-0.203747	1.192899	0.418148
H461	H	-0.742687	0.695301	-0.116195
H462	H	-0.242687	1.195301	0.383805
H463	H	-0.763874	0.760692	-0.087589
H464	H	-0.263874	1.260692	0.412411
H465	H	-0.724937	0.758282	-0.053235
H466	H	-0.224937	1.258282	0.446765
H467	H	-0.763894	0.723925	-0.050820
H468	H	-0.263894	1.223925	0.449180
H469	H	-0.960087	0.701402	-0.164394
H470	H	-0.460087	1.201402	0.335606
C471	C	-0.479134	0.589104	-0.276352
C472	C	0.020866	1.089104	0.223648
C473	C	-0.448553	0.563923	-0.301493
C474	C	0.051447	1.063923	0.198507
C475	C	-0.471930	0.535162	-0.330265
C476	C	0.028070	1.035162	0.169735
H477	H	-0.497463	0.569508	-0.259205
H478	H	0.002537	1.069508	0.240795
H479	H	-0.497402	0.606274	-0.295970
H480	H	0.002598	1.106274	0.204030
H481	H	-0.430292	0.546754	-0.281878
H482	H	0.069708	1.046754	0.218122
H483	H	-0.430222	0.583507	-0.318649
H484	H	0.069778	1.083507	0.181351
H485	H	-0.490199	0.552332	-0.349882
H486	H	0.009801	1.052332	0.150118
H487	H	-0.490259	0.515569	-0.313114
H488	H	0.009741	1.015569	0.186886
H489	H	-0.451185	0.518076	-0.347329
H490	H	0.048815	1.018076	0.152671
C491	C	-0.156748	0.484434	-0.276485
C492	C	0.343252	0.984434	0.223515
C493	C	-0.131622	0.453864	-0.301692
C494	C	0.368378	0.953864	0.198308
C495	C	-0.102877	0.477254	-0.330497
C496	C	0.397123	0.977254	0.169503
H497	H	-0.173914	0.502740	-0.296063
H498	H	0.326086	1.002740	0.203937
H499	H	-0.137120	0.502726	-0.259345
H500	H	0.362880	1.002726	0.240655
H501	H	-0.151248	0.435579	-0.318831
H502	H	0.348752	0.935579	0.181169
H503	H	-0.114447	0.435557	-0.282126
H504	H	0.385553	0.935557	0.217874
H505	H	-0.083249	0.495547	-0.313356
H506	H	0.416751	0.995547	0.186644
H507	H	-0.120047	0.495560	-0.350072
H508	H	0.379953	0.995560	0.149928
H509	H	-0.085823	0.456517	-0.347600
H510	H	0.414177	0.956517	0.152400
C511	C	-0.128154	0.170925	-0.305319
C512	C	0.371846	0.670925	0.194681
C513	C	-0.103037	0.201530	-0.330528
C514	C	0.396963	0.701530	0.169472
C515	C	-0.074330	0.178180	-0.359375
C516	C	0.425670	0.678180	0.140625
H517	H	-0.108515	0.152620	-0.288223
H518	H	0.391485	0.652620	0.211777
H519	H	-0.145360	0.152635	-0.324890
H520	H	0.354640	0.652635	0.175110
H521	H	-0.085831	0.219813	-0.310960
H522	H	0.414169	0.719813	0.189040
H523	H	-0.122664	0.219836	-0.347633
H524	H	0.377336	0.719836	0.152367
H525	H	-0.091536	0.159890	-0.378946
H526	H	0.408464	0.659890	0.121054
H527	H	-0.054694	0.159875	-0.342276
H528	H	0.445306	0.659875	0.157724
H529	H	-0.057287	0.198941	-0.376486
H530	H	0.442713	0.698941	0.123514
H531	H	-0.297416	0.568265	-0.744469
H532	H	0.202584	1.068265	-0.244469
H533	H	-0.135980	0.036464	-0.297458
H534	H	0.364020	0.536464	0.202542
H535	H	-0.268679	0.478088	-0.164208
H536	H	0.231321	0.978088	0.335792
C537	C	-0.156853	-0.087972	-0.276511
C538	C	0.343147	0.412028	0.223489
C539	C	-0.131729	-0.118553	-0.301705
C540	C	0.368271	0.381447	0.198295
C541	C	-0.102973	-0.095177	-0.330510
C542	C	0.397027	0.404823	0.169490
H543	H	-0.174011	-0.069666	-0.296097
H544	H	0.325989	0.430334	0.203903
H545	H	-0.137224	-0.069679	-0.259372
H546	H	0.362776	0.430321	0.240628
H547	H	-0.151356	-0.136838	-0.318843
H548	H	0.348644	0.363162	0.181157
H549	H	-0.114562	-0.136860	-0.282131
H550	H	0.385438	0.363140	0.217869
H551	H	-0.083344	-0.076884	-0.313370
H552	H	0.416656	0.423116	0.186630
H553	H	-0.120135	-0.076872	-0.350093
H554	H	0.379865	0.423128	0.149907
H555	H	-0.085920	-0.115923	-0.347604
H556	H	0.414080	0.384077	0.152396
C557	C	-0.156734	0.709141	-0.381634
C558	C	0.343266	1.209141	0.118366
C559	C	-0.131569	0.734315	-0.412228
C560	C	0.368431	1.234315	0.087772
C561	C	-0.102794	0.763088	-0.388866
C562	C	0.397206	1.263088	0.111134
H563	H	-0.173880	0.728741	-0.363331
H564	H	0.326120	1.228741	0.136669
H565	H	-0.137132	0.691980	-0.363340
H566	H	0.362868	1.191980	0.136660
H567	H	-0.151168	0.751474	-0.430514
H568	H	0.348832	1.251474	0.069486
H569	H	-0.114413	0.714726	-0.430532
H570	H	0.385587	1.214726	0.069468
H571	H	-0.083192	0.745927	-0.370572
H572	H	0.416808	1.245927	0.129428
H573	H	-0.119944	0.782685	-0.370563
H574	H	0.380056	1.282685	0.129437
H575	H	-0.085713	0.780169	-0.409620
H576	H	0.414287	1.280169	0.090380
H577	H	-1.045209	0.701427	-0.164407
H578	H	-0.545209	1.201427	0.335593
H579	H	-1.045229	0.597097	-0.268560
H580	H	-0.545229	1.097097	0.231440
C581	C	-0.597151	0.560497	-0.305085
C582	C	-0.097151	1.060497	0.194915
C583	C	-0.570194	0.585907	-0.333907
C584	C	-0.070194	1.085907	0.166093
C585	C	-0.546718	0.557229	-0.362678
C586	C	-0.046718	1.057229	0.137322
H587	H	-0.578832	0.540919	-0.287934
H588	H	-0.078832	1.040919	0.212066
H589	H	-0.617834	0.543390	-0.322209
H590	H	-0.117834	1.043390	0.177791
H591	H	-0.549514	0.603007	-0.316785
H592	H	-0.049514	1.103007	0.183215
H593	H	-0.588502	0.605485	-0.351068
H594	H	-0.088502	1.105485	0.148932
H595	H	-0.567401	0.540122	-0.379802
H596	H	-0.067401	1.040122	0.120198
H597	H	-0.528402	0.537652	-0.345523
H598	H	-0.028402	1.037652	0.154477
H599	H	-0.528429	0.574466	-0.382240
H600	H	-0.028429	1.074466	0.117760
H601	H	-0.135965	0.121569	-0.297456
H602	H	0.364035	0.621569	0.202544
C603	C	-0.305276	0.170744	-0.127714
C604	C	0.194724	0.670744	0.372286
C605	C	-0.334125	0.143817	-0.153095
C606	C	0.165875	0.643817	0.346905
C607	C	-0.362885	0.120327	-0.124388
C608	C	0.137115	0.620327	0.375612
H609	H	-0.288118	0.152405	-0.108160
H610	H	0.211882	0.652405	0.391840
H611	H	-0.322380	0.191419	-0.110582
H612	H	0.177620	0.691419	0.389418
H613	H	-0.317022	0.123145	-0.170220
H614	H	0.182978	0.623145	0.329780
H615	H	-0.351292	0.162145	-0.172649
H616	H	0.148708	0.662145	0.327351
H617	H	-0.379990	0.141001	-0.107256
H618	H	0.120010	0.641001	0.392744
H619	H	-0.345724	0.101990	-0.104835
H620	H	0.154276	0.601990	0.395165
H621	H	-0.382465	0.102057	-0.141605
H622	H	0.117535	0.602057	0.358395
C623	C	-0.127930	0.737836	-0.695248
C624	C	0.372070	1.237836	-0.195248
C625	C	-0.099107	0.712432	-0.722176
C626	C	0.400893	1.212432	-0.222176
C627	C	-0.070313	0.741115	-0.745656
C628	C	0.429687	1.241115	-0.245656
H629	H	-0.145065	0.757412	-0.713586
H630	H	0.354935	1.257412	-0.213586
H631	H	-0.110809	0.754947	-0.674568
H632	H	0.389191	1.254947	-0.174568
H633	H	-0.116227	0.695329	-0.742854
H634	H	0.383773	1.195329	-0.242854
H635	H	-0.081962	0.692858	-0.703850
H636	H	0.418038	1.192858	-0.203850
H637	H	-0.053192	0.758226	-0.724976
H638	H	0.446808	1.258226	-0.224976
H639	H	-0.087452	0.760689	-0.763992
H640	H	0.412548	1.260689	-0.263992
H641	H	-0.050750	0.723883	-0.763927
H642	H	0.449250	1.223883	-0.263927
H643	H	-0.135943	0.262328	-0.297448
H644	H	0.364057	0.762328	0.202552
C645	C	-0.305263	0.560492	-0.835883
C646	C	0.194737	1.060492	-0.335883
C647	C	-0.349719	0.570229	-0.824457
C648	C	0.150281	1.070229	-0.324457
C649	C	-0.378516	0.541494	-0.847839
C650	C	0.121484	1.041494	-0.347839
H651	H	-0.301208	0.564579	-0.867194
H652	H	0.198792	1.064579	-0.367194
H653	H	-0.298701	0.530306	-0.828176
H654	H	0.201299	1.030306	-0.328176
H655	H	-0.356279	0.600408	-0.832167
H656	H	0.143721	1.100408	-0.332167
H657	H	-0.353788	0.566139	-0.793150
H658	H	0.146212	1.066139	-0.293150
H659	H	-0.371954	0.511308	-0.840132
H660	H	0.128046	1.011308	-0.340132
H661	H	-0.374457	0.545583	-0.879149
H662	H	0.125543	1.045583	-0.379149
H663	H	-0.408682	0.548094	-0.840087
H664	H	0.091318	1.048094	-0.340087
C665	C	-0.835817	0.737923	-0.127961
C666	C	-0.335817	1.237923	0.372039
C667	C	-0.881927	0.731793	-0.134129
C668	C	-0.381927	1.231793	0.365871
C669	C	-0.905476	0.760555	-0.105501
C670	C	-0.405476	1.260555	0.394499
H671	H	-0.828210	0.731411	-0.097744
H672	H	-0.328210	1.231411	0.402256
H673	H	-0.828125	0.768106	-0.134580
H674	H	-0.328125	1.268106	0.365420
H675	H	-0.889615	0.701617	-0.127506
H676	H	-0.389615	1.201617	0.372494
H677	H	-0.889547	0.738308	-0.164339
H678	H	-0.389547	1.238308	0.335661
H679	H	-0.897784	0.790739	-0.112121
H680	H	-0.397784	1.290739	0.387879
H681	H	-0.897865	0.754041	-0.075287
H682	H	-0.397865	1.254041	0.424713
H683	H	-0.936764	0.756403	-0.109685
H684	H	-0.436764	1.256403	0.390315
C685	C	-0.305254	0.268531	-0.127622
C686	C	0.194746	0.768531	0.372378
C687	C	-0.330390	0.237928	-0.102429
C688	C	0.169610	0.737928	0.397571
C689	C	-0.359141	0.261281	-0.073627
C690	C	0.140859	0.761281	0.426373
H691	H	-0.288092	0.286836	-0.108035
H692	H	0.211908	0.786836	0.391965
H693	H	-0.324876	0.286821	-0.144764
H694	H	0.175124	0.786821	0.355236
H695	H	-0.310771	0.219645	-0.085289
H696	H	0.189229	0.719645	0.414711
H697	H	-0.347562	0.219622	-0.122004
H698	H	0.152438	0.719622	0.377996
H699	H	-0.378762	0.279571	-0.090769
H700	H	0.121238	0.779571	0.409231
H701	H	-0.341975	0.279585	-0.054044
H702	H	0.158025	0.779585	0.445956
H703	H	-0.376202	0.240520	-0.056533
H704	H	0.123798	0.740520	0.443467
C705	C	-0.305166	0.560378	-0.597318
C706	C	0.194834	1.060378	-0.097318
C707	C	-0.279727	0.531590	-0.570389
C708	C	0.220273	1.031590	-0.070389
C709	C	-0.308376	0.502765	-0.546905
C710	C	0.191624	1.002765	-0.046905
H711	H	-0.324763	0.577492	-0.578980
H712	H	0.175237	1.077492	-0.078980
H713	H	-0.322254	0.543231	-0.617996
H714	H	0.177746	1.043231	-0.117996
H715	H	-0.262646	0.548735	-0.549713
H716	H	0.237354	1.048735	-0.049713
H717	H	-0.260131	0.514466	-0.588715
H718	H	0.239869	1.014466	-0.088715
H719	H	-0.325464	0.485619	-0.567583
H720	H	0.174536	0.985619	-0.067583
H721	H	-0.327972	0.519883	-0.528570
H722	H	0.172028	1.019883	-0.028570
H723	H	-0.291119	0.483227	-0.528634
H724	H	0.208881	0.983227	-0.028634
H725	H	-0.297452	0.121490	-0.135456
H726	H	0.202548	0.621490	0.364544
C727	C	-0.305330	0.030065	-0.127678
C728	C	0.194670	0.530065	0.372322
C729	C	-0.349790	0.041481	-0.137376
C730	C	0.150210	0.541481	0.362624
C731	C	-0.378570	0.018075	-0.108619
C732	C	0.121430	0.518075	0.391381
H733	H	-0.301290	-0.001243	-0.131770
H734	H	0.198710	0.498757	0.368230
H735	H	-0.298737	0.037759	-0.097497
H736	H	0.201263	0.537759	0.402503
H737	H	-0.356380	0.033784	-0.167550
H738	H	0.143620	0.533784	0.332450
H739	H	-0.353844	0.072784	-0.133281
H740	H	0.146156	0.572784	0.366719
H741	H	-0.371977	0.025769	-0.078438
H742	H	0.128023	0.525769	0.421562
H743	H	-0.374526	-0.013232	-0.112714
H744	H	0.125474	0.486768	0.387286
H745	H	-0.408739	0.025820	-0.115192
H746	H	0.091261	0.525820	0.384808
C747	C	-0.156646	0.709146	-1.051888
C748	C	0.343354	1.209146	-0.551888
C749	C	-0.162778	0.702984	-1.097995
C750	C	0.337222	1.202984	-0.597995
C751	C	-0.134063	0.731678	-1.121557
C752	C	0.365937	1.231678	-0.621557
H753	H	-0.163198	0.739346	-1.044260
H754	H	0.336802	1.239346	-0.544260
H755	H	-0.126451	0.702583	-1.044228
H756	H	0.373549	1.202583	-0.544228
H757	H	-0.192966	0.709550	-1.105652
H758	H	0.307034	1.209550	-0.605652
H759	H	-0.156223	0.672790	-1.105637
H760	H	0.343777	1.172790	-0.605637
H761	H	-0.103868	0.725115	-1.113897
H762	H	0.396132	1.225115	-0.613897
H763	H	-0.140617	0.761876	-1.113926
H764	H	0.359383	1.261876	-0.613926
H765	H	-0.138217	0.727498	-1.152843
H766	H	0.361783	1.227498	-0.652843
C767	C	-0.381377	0.708998	-0.156476
C768	C	0.118623	1.208998	0.343524
C769	C	-0.392827	0.699259	-0.112020
C770	C	0.107173	1.199259	0.387980
C771	C	-0.369426	0.727980	-0.083227
C772	C	0.130574	1.227980	0.416773
H773	H	-0.350069	0.704901	-0.160519
H774	H	0.149931	1.204901	0.339481
H775	H	-0.389053	0.739188	-0.163054
H776	H	0.110947	1.239188	0.336946
H777	H	-0.385148	0.669076	-0.105444
H778	H	0.114852	1.169076	0.394556
H779	H	-0.424131	0.703359	-0.107962
H780	H	0.075869	1.203359	0.392038
H781	H	-0.377102	0.758170	-0.089805
H782	H	0.122898	1.258170	0.410195
H783	H	-0.338119	0.723880	-0.087274
H784	H	0.161881	1.223880	0.412726
H785	H	-0.377194	0.721379	-0.053061
H786	H	0.122806	1.221379	0.446939
H787	H	-0.268770	0.596991	-0.473021
H788	H	0.231230	1.096991	0.026979
H789	H	-0.268791	-0.094300	-0.164232
H790	H	0.231209	0.405700	0.335768
C791	C	-0.276455	0.589205	-1.051697
C792	C	0.223545	1.089205	-0.551697
C793	C	-0.301601	0.564014	-1.021101
C794	C	0.198399	1.064014	-0.521101
C795	C	-0.330337	0.535201	-1.044461
C796	C	0.169663	1.035201	-0.544461
H797	H	-0.296075	0.606325	-1.070001
H798	H	0.203925	1.106325	-0.570001
H799	H	-0.259269	0.569622	-1.069990
H800	H	0.240731	1.069622	-0.569990
H801	H	-0.318786	0.583595	-1.002816
H802	H	0.181214	1.083595	-0.502816
H803	H	-0.281993	0.546885	-1.002796
H804	H	0.218007	1.046885	-0.502796
H805	H	-0.313151	0.515617	-1.062754
H806	H	0.186849	1.015617	-0.562754
H807	H	-0.349954	0.552324	-1.062764
H808	H	0.150046	1.052324	-0.562764
H809	H	-0.347399	0.518102	-1.023705
H810	H	0.152601	1.018102	-0.523705
H811	H	-0.472801	0.701258	-0.164352
H812	H	0.027199	1.201258	0.335648
H813	H	-0.603506	0.730046	-0.135660
H814	H	-0.103506	1.230046	0.364340
C815	C	-0.276532	0.589191	-0.381449
C816	C	0.223468	1.089191	0.118551
C817	C	-0.270383	0.595335	-0.335342
C818	C	0.229617	1.095335	0.164658
C819	C	-0.299048	0.566590	-0.311780
C820	C	0.200952	1.066590	0.188220
H821	H	-0.306739	0.595709	-0.389078
H822	H	0.193261	1.095709	0.110922
H823	H	-0.269936	0.559002	-0.389108
H824	H	0.230064	1.059002	0.110892
H825	H	-0.276983	0.625516	-0.327685
H826	H	0.223017	1.125516	0.172315
H827	H	-0.240183	0.588813	-0.327699
H828	H	0.259817	1.088813	0.172301
H829	H	-0.292452	0.536402	-0.319440
H830	H	0.207548	1.036402	0.180560
H831	H	-0.329253	0.573111	-0.319413
H832	H	0.170747	1.073111	0.180587
H833	H	-0.294877	0.570752	-0.280494
H834	H	0.205123	1.070752	0.219506
H835	H	-0.744253	0.730093	-0.135676
H836	H	-0.244253	1.230093	0.364324
H837	H	-0.744302	0.568268	-0.297242
H838	H	-0.244302	1.068268	0.202758
H839	H	-0.164549	0.701326	-0.473031
H840	H	0.335451	1.201326	0.026969
H841	H	-0.268660	0.597044	-0.960302
H842	H	0.231340	1.097044	-0.460302
H843	H	-0.135771	0.730110	-0.744497
H844	H	0.364229	1.230110	-0.244497
