data_functionalizedCrystal
_audit_creation_method	'MofGen! by Chris Wilmer'
_symmetry_space_group_name_H-M	'P1'
_symmetry_Int_Tables_number	1
_symmetry_cell_setting	triclinic
loop_
_symmetry_equiv_pos_as_xyz
  x,y,z
_cell_length_a	23.532361
_cell_length_b	22.010155
_cell_length_c	17.699083
_cell_angle_alpha	90.003354
_cell_angle_beta	96.943659
_cell_angle_gamma	90.004127
loop_
_atom_site_label
_atom_site_type_symbol
_atom_site_fract_x
_atom_site_fract_y
_atom_site_fract_z
O1	O	0.755544	0.050465	-0.091699
O2	O	1.255544	0.550465	0.408301
O3	O	0.589716	0.050480	-0.105030
O4	O	1.089716	0.550480	0.394970
O5	O	0.677315	0.050467	0.011850
O6	O	1.177315	0.550467	0.511850
O7	O	0.667945	0.050479	-0.208578
O8	O	1.167945	0.550479	0.291422
O9	O	0.677299	-0.050583	0.011832
O10	O	1.177299	0.449417	0.511832
O11	O	0.589700	-0.050570	-0.105047
O12	O	1.089700	0.449430	0.394953
O13	O	0.755528	-0.050585	-0.091717
O14	O	1.255528	0.449415	0.408283
Cu15	Cu	0.672613	-0.059804	-0.098384
Cu16	Cu	1.172613	0.440196	0.401616
Cu17	Cu	0.672631	0.059700	-0.098363
Cu18	Cu	1.172631	0.559700	0.401637
O19	O	0.667929	-0.050572	-0.208596
O20	O	1.167929	0.449428	0.291404
C21	C	0.568490	-0.000043	-0.104705
C22	C	1.068490	0.499957	0.395295
C23	C	0.505269	-0.000038	-0.103701
C24	C	1.005269	0.499962	0.396299
C25	C	0.232021	0.055041	-0.099301
C26	C	0.732021	0.555041	0.400699
C27	C	0.291424	0.055043	-0.100251
C28	C	0.791424	0.555043	0.399749
O29	O	0.322158	0.101887	-0.100708
O30	O	0.822158	0.601887	0.399292
N31	N	0.321122	-0.000040	-0.100741
N32	N	0.821122	0.499960	0.399259
C33	C	0.291415	-0.055128	-0.100273
C34	C	0.791415	0.444872	0.399727
O35	O	0.322131	-0.101980	-0.100775
O36	O	0.822131	0.398020	0.399225
C37	C	0.232015	-0.055129	-0.099317
C38	C	0.732015	0.444871	0.400683
C39	C	0.202319	-0.000043	-0.098835
C40	C	0.702319	0.499957	0.401165
C41	C	0.202325	0.110123	-0.098819
C42	C	0.702325	0.610123	0.401181
C43	C	0.142926	0.110121	-0.097870
C44	C	0.642926	0.610121	0.402130
C45	C	0.113224	0.055037	-0.097404
C46	C	0.613224	0.555037	0.402596
C47	C	0.142920	-0.000044	-0.097887
C48	C	0.642920	0.499956	0.402113
C49	C	0.202310	-0.110216	-0.098843
C50	C	0.702310	0.389784	0.401157
C51	C	0.142905	-0.110212	-0.097887
C52	C	0.642905	0.389788	0.402113
C53	C	0.113209	-0.055126	-0.097405
C54	C	0.613209	0.444874	0.402595
C55	C	0.053819	-0.055130	-0.096472
C56	C	0.553819	0.444870	0.403528
N57	N	0.024121	-0.000047	-0.095982
N58	N	0.524121	0.499953	0.404018
C59	C	0.053823	0.055037	-0.096448
C60	C	0.553823	0.555037	0.403552
C61	C	0.416161	-0.055122	-0.102278
C62	C	0.916161	0.444878	0.397722
C63	C	0.475561	-0.055122	-0.103239
C64	C	0.975561	0.444878	0.396761
C65	C	0.475565	0.055049	-0.103216
C66	C	0.975565	0.555049	0.396784
C67	C	0.416164	0.055048	-0.102261
C68	C	0.916164	0.555048	0.397739
C69	C	0.386463	-0.000039	-0.101788
C70	C	0.886463	0.499961	0.398212
C71	C	-0.070918	0.055029	-0.094457
C72	C	0.429082	0.555029	0.405543
C73	C	-0.130322	0.055022	-0.093511
C74	C	0.369678	0.555022	0.406489
C75	C	-0.130321	-0.055148	-0.093530
C76	C	0.369679	0.444852	0.406470
C77	C	-0.070922	-0.055142	-0.094480
C78	C	0.429078	0.444858	0.405520
C79	C	-0.041222	-0.000049	-0.094940
C80	C	0.458778	0.499951	0.405060
O81	O	0.023047	-0.101950	-0.096011
O82	O	0.523047	0.398050	0.403989
O83	O	0.023101	0.101881	-0.095935
O84	O	0.523101	0.601881	0.404065
N85	N	0.672604	-0.143857	-0.098398
N86	N	1.172604	0.356143	0.401602
C87	C	0.711423	-0.563642	-0.046616
C88	C	1.211423	-0.063642	0.453384
C89	C	0.711425	-0.627249	-0.046611
C90	C	1.211425	-0.127249	0.453389
O91	O	0.744408	-0.660146	-0.002594
O92	O	1.244408	-0.160146	0.497406
N93	N	0.672631	-0.659064	-0.098347
N94	N	1.172631	-0.159064	0.401653
C95	C	0.633828	-0.627267	-0.150087
C96	C	1.133828	-0.127267	0.349913
O97	O	0.600830	-0.660168	-0.194091
O98	O	1.100830	-0.160168	0.305909
C99	C	0.633823	-0.563661	-0.150088
C100	C	1.133823	-0.063661	0.349912
C101	C	0.672624	-0.531850	-0.098353
C102	C	1.172624	-0.031850	0.401647
C103	C	0.750220	-0.531831	0.005115
C104	C	1.250220	-0.031831	0.505115
C105	C	0.750218	-0.468228	0.005109
C106	C	1.250218	0.031772	0.505109
C107	C	0.711419	-0.436435	-0.046629
C108	C	1.211419	0.063565	0.453371
C109	C	0.672621	-0.468247	-0.098360
C110	C	1.172621	0.031753	0.401640
C111	C	0.595017	-0.531865	-0.201823
C112	C	1.095017	-0.031865	0.298177
C113	C	0.595015	-0.468255	-0.201819
C114	C	1.095015	0.031745	0.298181
C115	C	0.633816	-0.436444	-0.150085
C116	C	1.133816	0.063556	0.349915
C117	C	0.633820	-0.372851	-0.150103
C118	C	1.133820	0.127149	0.349897
N119	N	0.672614	-0.341037	-0.098367
N120	N	1.172614	0.158963	0.401633
C121	C	0.711414	-0.372829	-0.046630
C122	C	1.211414	0.127171	0.453370
C123	C	0.633840	-0.760845	-0.150080
C124	C	1.133840	-0.260845	0.349920
C125	C	0.633848	-0.824450	-0.150083
C126	C	1.133848	-0.324450	0.349917
C127	C	0.711445	-0.824428	-0.046606
C128	C	1.211445	-0.324428	0.453394
C129	C	0.711440	-0.760822	-0.046607
C130	C	1.211440	-0.260822	0.453393
C131	C	0.672635	-0.729031	-0.098343
C132	C	1.172635	-0.229031	0.401657
C133	C	0.711407	-0.239258	-0.046647
C134	C	1.211407	0.260742	0.453353
C135	C	0.711403	-0.175649	-0.046660
C136	C	1.211403	0.324351	0.453340
C137	C	0.633804	-0.175676	-0.150134
C138	C	1.133804	0.324324	0.349866
C139	C	0.633810	-0.239280	-0.150124
C140	C	1.133810	0.260720	0.349876
C141	C	0.672613	-0.271069	-0.098375
C142	C	1.172613	0.228931	0.401625
O143	O	0.600853	-0.339914	-0.194095
O144	O	1.100853	0.160086	0.305905
O145	O	0.744401	-0.339920	-0.002626
O146	O	1.244401	0.160080	0.497374
C147	C	0.776754	-0.000060	-0.092042
C148	C	1.276754	0.499940	0.407958
C149	C	0.839975	-0.000062	-0.093045
C150	C	1.339975	0.499938	0.406955
C151	C	0.676971	-0.000058	0.040036
C152	C	1.176971	0.499942	0.540036
C153	C	0.675964	-0.000058	0.124049
C154	C	1.175964	0.499942	0.624049
N155	N	0.672645	0.143752	-0.098343
N156	N	1.172645	0.643752	0.401657
C157	C	0.668273	-0.000045	-0.236782
C158	C	1.168273	0.499955	0.263218
C159	C	0.669280	-0.000041	-0.320795
C160	C	1.169280	0.499959	0.179205
C161	C	0.727383	-0.000064	0.172942
C162	C	1.227383	0.499936	0.672942
C163	C	0.726433	-0.000058	0.251880
C164	C	1.226433	0.499942	0.751880
C165	C	0.674064	-0.000052	0.281924
C166	C	1.174064	0.499948	0.781924
C167	C	0.622641	-0.000044	0.233024
C168	C	1.122641	0.499956	0.733024
C169	C	0.623591	-0.000046	0.154088
C170	C	1.123591	0.499954	0.654088
C171	C	0.618807	-0.000039	0.551367
C172	C	1.118807	0.499961	1.051367
C173	C	0.617860	-0.000040	0.630310
C174	C	1.117860	0.499960	1.130310
C175	C	0.721649	-0.000052	0.649160
C176	C	1.221649	0.499948	1.149160
C177	C	0.722599	-0.000053	0.570223
C178	C	1.222599	0.499947	1.070223
C179	C	0.671177	-0.000043	0.521331
C180	C	1.171177	0.499957	1.021331
C181	C	0.672207	-0.000047	0.435737
C182	C	1.172207	0.499953	0.935737
C183	C	0.673033	-0.000051	0.367516
C184	C	1.173033	0.499949	0.867516
H185	H	0.391982	-0.099984	-0.101903
H186	H	0.891982	0.400016	0.398097
C187	C	0.556563	-0.051974	0.708137
C188	C	1.056563	0.448026	1.208137
C189	C	0.560291	-0.000028	0.663334
C190	C	1.060291	0.499972	1.163334
H191	H	0.521022	-0.051967	0.728520
H192	H	1.021022	0.448033	1.228520
H193	H	0.587048	-0.051977	0.748548
H194	H	1.087048	0.448023	1.248548
H195	H	0.559080	-0.087209	0.677721
H196	H	1.059080	0.412791	1.177721
H197	H	0.557778	0.035207	0.693751
H198	H	1.057778	0.535207	1.193751
H199	H	0.529797	-0.000019	0.622917
H200	H	1.029797	0.499981	1.122917
H201	H	0.602258	-0.850346	-0.192218
H202	H	1.102258	-0.350346	0.307782
C203	C	0.814622	0.051870	0.292244
C204	C	1.314622	0.551870	0.792244
C205	C	0.782957	-0.000068	0.305619
C206	C	1.282957	0.499932	0.805619
H207	H	0.849521	0.051861	0.325417
H208	H	1.349521	0.551861	0.825417
H209	H	0.793153	0.087107	0.301317
H210	H	1.293153	0.587107	0.801317
H211	H	0.822674	0.051860	0.240929
H212	H	1.322674	0.551860	0.740929
H213	H	0.774902	-0.000055	0.356933
H214	H	1.274902	0.499945	0.856933
H215	H	0.804430	-0.035313	0.296553
H216	H	1.304430	0.464687	0.796553
C217	C	0.516119	-0.000041	0.540675
C218	C	1.016119	0.499959	1.040675
C219	C	0.562284	-0.000039	0.497631
C220	C	1.062284	0.499961	0.997631
H221	H	0.481223	-0.000046	0.507496
H222	H	0.981223	0.499954	1.007496
H223	H	0.517911	0.035197	0.571854
H224	H	1.017911	0.535197	1.071854
H225	H	0.517911	-0.035281	0.571856
H226	H	1.017911	0.464719	1.071856
H227	H	0.560494	0.035203	0.466453
H228	H	1.060494	0.535203	0.966453
H229	H	0.560491	-0.035280	0.466439
H230	H	1.060491	0.464720	0.966439
C231	C	0.825098	-0.000057	0.596787
C232	C	1.325098	0.499943	1.096787
C233	C	0.780165	-0.000057	0.537201
C234	C	1.280165	0.499943	1.037201
H235	H	0.860637	-0.000054	0.576399
H236	H	1.360637	0.499946	1.076399
H237	H	0.822566	-0.035294	0.627177
H238	H	1.322566	0.464706	1.127177
H239	H	0.822569	0.035184	0.627188
H240	H	1.322569	0.535184	1.127188
H241	H	0.782692	-0.035300	0.506803
H242	H	1.282692	0.464700	1.006803
H243	H	0.782699	0.035183	0.506797
H244	H	1.282699	0.535183	1.006797
H245	H	0.602242	-0.734964	-0.192216
H246	H	1.102242	-0.234964	0.307784
C247	C	0.518308	-0.525471	-0.304088
C248	C	1.018308	-0.025471	0.195912
C249	C	0.552363	-0.566821	-0.258689
C250	C	1.052363	-0.066821	0.241311
H251	H	0.491972	-0.547051	-0.339193
H252	H	0.991972	-0.047051	0.160807
H253	H	0.541975	-0.500664	-0.331149
H254	H	1.041975	-0.000664	0.168851
H255	H	0.497876	-0.500660	-0.272710
H256	H	0.997876	-0.000660	0.227290
H257	H	0.572798	-0.591628	-0.290067
H258	H	1.072798	-0.091628	0.209933
H259	H	0.528693	-0.591638	-0.231626
H260	H	1.028693	-0.091638	0.268374
C261	C	0.575097	-0.000044	0.345657
C262	C	1.075097	0.499956	0.845657
C263	C	0.565075	-0.000040	0.266046
C264	C	1.065075	0.499960	0.766046
H265	H	0.539557	-0.000047	0.366040
H266	H	1.039557	0.499953	0.866040
H267	H	0.596265	0.035190	0.362467
H268	H	1.096265	0.535190	0.862467
H269	H	0.596260	-0.035287	0.362454
H270	H	1.096260	0.464713	0.862454
H271	H	0.543915	0.035206	0.249248
H272	H	1.043915	0.535206	0.749248
H273	H	0.543898	-0.035278	0.249229
H274	H	1.043898	0.464722	0.749229
C275	C	0.535427	0.051909	0.113721
C276	C	1.035427	0.551909	0.613721
C277	C	0.567069	-0.000040	0.100341
C278	C	1.067069	0.499960	0.600341
H279	H	0.500530	0.051911	0.080543
H280	H	1.000530	0.551911	0.580543
H281	H	0.556912	0.087138	0.104659
H282	H	1.056912	0.587138	0.604659
H283	H	0.527370	0.051902	0.165034
H284	H	1.027370	0.551902	0.665034
H285	H	0.575130	-0.000032	0.049029
H286	H	1.075130	0.499968	0.549029
H287	H	0.545580	-0.035278	0.109397
H288	H	1.045580	0.464722	0.609397
C289	C	-0.124342	0.163924	-0.093581
C290	C	0.375658	0.663924	0.406419
C291	C	-0.162963	0.115577	-0.092977
C292	C	0.337037	0.615577	0.407023
H293	H	-0.144492	0.201306	-0.093246
H294	H	0.355508	0.701306	0.406754
H295	H	-0.105581	0.161636	-0.138092
H296	H	0.394419	0.661636	0.361908
H297	H	-0.096766	0.161623	-0.049807
H298	H	0.403234	0.661623	0.450193
H299	H	-0.190537	0.117876	-0.136755
H300	H	0.309463	0.617876	0.363245
H301	H	-0.181733	0.117867	-0.048462
H302	H	0.318267	0.617867	0.451538
C303	C	0.227070	-0.204115	-0.034061
C304	C	0.727070	0.295885	0.465939
C305	C	0.234942	-0.170771	-0.099364
C306	C	0.734942	0.329229	0.400636
H307	H	0.247218	-0.241500	-0.034381
H308	H	0.747218	0.258500	0.465619
H309	H	0.187445	-0.211988	-0.033435
H310	H	0.687445	0.288012	0.466565
H311	H	0.241220	-0.181475	0.009919
H312	H	0.741220	0.318525	0.509919
H313	H	0.220788	-0.193409	-0.143345
H314	H	0.720788	0.306591	0.356655
H315	H	0.274576	-0.162900	-0.099998
H316	H	0.774576	0.337100	0.400002
H317	H	-0.046743	0.099891	-0.094833
H318	H	0.453257	0.599891	0.405167
H319	H	0.499733	-0.099979	-0.103643
H320	H	0.999733	0.400021	0.396357
H321	H	0.226503	0.154981	-0.099196
H322	H	0.726503	0.654981	0.400804
C323	C	0.148917	0.219017	-0.097926
C324	C	0.648917	0.719017	0.402074
C325	C	0.110291	0.170674	-0.097324
C326	C	0.610291	0.670674	0.402676
H327	H	0.128772	0.256401	-0.097581
H328	H	0.628772	0.756401	0.402419
H329	H	0.167673	0.216730	-0.142441
H330	H	0.667673	0.716730	0.357559
H331	H	0.176497	0.216708	-0.054156
H332	H	0.676497	0.716708	0.445844
H333	H	0.082714	0.172981	-0.141097
H334	H	0.582714	0.672981	0.358903
H335	H	0.091526	0.172962	-0.052804
H336	H	0.591526	0.672962	0.447196
H337	H	0.499759	0.099901	-0.103595
H338	H	0.999759	0.599901	0.396405
H339	H	0.118725	-0.155072	-0.097509
H340	H	0.618725	0.344928	0.402491
H341	H	-0.046744	-0.099998	-0.094887
H342	H	0.453256	0.400002	0.405113
C343	C	0.422148	0.163945	-0.102337
C344	C	0.922148	0.663945	0.397663
C345	C	0.383526	0.115600	-0.101725
C346	C	0.883526	0.615600	0.398275
H347	H	0.402000	0.201328	-0.102001
H348	H	0.902000	0.701328	0.397999
H349	H	0.440905	0.161653	-0.146851
H350	H	0.940905	0.661653	0.353149
H351	H	0.449727	0.161644	-0.058566
H352	H	0.949727	0.661644	0.441434
H353	H	0.355948	0.117898	-0.145499
H354	H	0.855948	0.617898	0.354501
H355	H	0.364760	0.117893	-0.057207
H356	H	0.864760	0.617893	0.442793
C357	C	-0.221385	-0.104056	-0.092074
C358	C	0.278615	0.395944	0.407926
C359	C	-0.162977	-0.115695	-0.093015
C360	C	0.337023	0.384305	0.406985
H361	H	-0.241545	-0.141436	-0.091747
H362	H	0.258455	0.358564	0.408253
H363	H	-0.235520	-0.081427	-0.136056
H364	H	0.264480	0.418573	0.363944
H365	H	-0.226701	-0.081420	-0.047771
H366	H	0.273299	0.418580	0.452229
H367	H	-0.157661	-0.138327	-0.137321
H368	H	0.342339	0.361673	0.362679
H369	H	-0.148838	-0.138333	-0.049028
H370	H	0.351162	0.361667	0.450972
H371	H	0.770028	-0.000073	0.148487
H372	H	1.270028	0.499927	0.648487
H373	H	0.743003	-0.265133	-0.004507
H374	H	1.243003	0.234867	0.495493
C375	C	0.744989	-0.156151	0.084622
C376	C	1.244989	0.343849	0.584622
C377	C	0.754052	-0.140728	0.010263
C378	C	1.254052	0.359272	0.510263
H379	H	0.771316	-0.134604	0.119777
H380	H	1.271316	0.365396	0.619777
H381	H	0.750516	-0.198586	0.091970
H382	H	1.250516	0.301414	0.591970
H383	H	0.706992	-0.145711	0.092550
H384	H	1.206992	0.354289	0.592550
H385	H	0.792048	-0.151172	0.002333
H386	H	1.292048	0.348828	0.502333
H387	H	0.748530	-0.098283	0.002912
H388	H	1.248530	0.401717	0.502912
C389	C	0.826911	-0.474615	0.107396
C390	C	1.326911	0.025385	0.607396
C391	C	0.792863	-0.433266	0.061986
C392	C	1.292863	0.066734	0.561986
H393	H	0.853235	-0.453033	0.142516
H394	H	1.353235	0.046967	0.642516
H395	H	0.847352	-0.499419	0.076033
H396	H	1.347352	0.000581	0.576033
H397	H	0.803234	-0.499428	0.134447
H398	H	1.303234	0.000572	0.634447
H399	H	0.816539	-0.408456	0.034932
H400	H	1.316539	0.091544	0.534932
H401	H	0.772420	-0.408452	0.093354
H402	H	1.272420	0.091548	0.593354
H403	H	0.781815	-0.557710	0.047249
H404	H	1.281815	-0.057710	0.547249
H405	H	0.743034	-0.734925	-0.004480
H406	H	1.243034	-0.234925	0.495520
H407	H	0.763520	-0.000057	0.688978
H408	H	1.263520	0.499943	1.188978
C409	C	0.745073	-0.844003	0.084662
C410	C	1.245073	-0.344003	0.584662
C411	C	0.754092	-0.859380	0.010272
C412	C	1.254092	-0.359380	0.510272
H413	H	0.771403	-0.865579	0.119772
H414	H	1.271403	-0.365579	0.619772
H415	H	0.707081	-0.854431	0.092609
H416	H	1.207081	-0.354431	0.592609
H417	H	0.750628	-0.801568	0.092058
H418	H	1.250628	-0.301568	0.592058
H419	H	0.748533	-0.901815	0.002874
H420	H	1.248533	-0.401815	0.502874
H421	H	0.792093	-0.848956	0.002322
H422	H	1.292093	-0.348956	0.502322
H423	H	0.563414	-0.442373	-0.243949
H424	H	1.063414	0.057627	0.256051
C425	C	0.557102	-0.232909	-0.252399
C426	C	1.057102	0.267091	0.247601
C427	C	0.591158	-0.274250	-0.206988
C428	C	1.091158	0.225750	0.293012
H429	H	0.530764	-0.254497	-0.287495
H430	H	1.030764	0.245503	0.212505
H431	H	0.580767	-0.208109	-0.279469
H432	H	1.080767	0.291891	0.220531
H433	H	0.536670	-0.208092	-0.221027
H434	H	1.036670	0.291908	0.278973
H435	H	0.611593	-0.299065	-0.238359
H436	H	1.111593	0.200935	0.261641
H437	H	0.567490	-0.299061	-0.179915
H438	H	1.067490	0.200939	0.320085
H439	H	0.602216	-0.149781	-0.192261
H440	H	1.102216	0.350219	0.307739
