data_functionalizedCrystal
_audit_creation_method	'MofGen! by Chris Wilmer'
_symmetry_space_group_name_H-M	'P1'
_symmetry_Int_Tables_number	1
_symmetry_cell_setting	triclinic
loop_
_symmetry_equiv_pos_as_xyz
  x,y,z
_cell_length_a	12.827893
_cell_length_b	12.827892
_cell_length_c	12.827885
_cell_angle_alpha	89.968088
_cell_angle_beta	90.019272
_cell_angle_gamma	89.974721
loop_
_atom_site_label
_atom_site_type_symbol
_atom_site_fract_x
_atom_site_fract_y
_atom_site_fract_z
Zn1	Zn	1.597599	0.415978	0.590833
Zn2	Zn	1.597463	0.590755	0.416087
Zn3	Zn	1.422840	0.416029	0.416107
Zn4	Zn	1.422796	0.590678	0.590787
O5	O	1.510175	0.503360	0.503454
O6	O	1.743817	0.439173	0.567664
O7	O	1.574261	0.567631	0.269854
O8	O	1.446098	0.269787	0.439312
O9	O	1.743717	0.567582	0.439279
O10	O	1.574492	0.269749	0.567683
O11	O	1.445966	0.439261	0.269868
O12	O	1.276598	0.439186	0.439268
O13	O	1.446022	0.567450	0.737029
O14	O	1.276566	0.567500	0.567604
O15	O	1.574449	0.439099	0.737063
O16	O	1.574218	0.736981	0.439234
O17	O	1.445891	0.736924	0.567585
C18	C	1.238665	0.503341	0.503434
C19	C	1.122512	0.503358	0.503450
C20	C	1.070776	0.439930	0.567078
C21	C	0.950726	0.439946	0.567096
C22	C	1.510063	0.774870	0.503425
C23	C	1.510111	0.891023	0.503448
C24	C	1.573608	0.942706	0.567025
C25	C	1.573659	1.062756	0.567050
C26	C	1.782745	0.503380	0.503474
C27	C	1.898898	0.503389	0.503483
C28	C	1.510246	0.503260	0.776024
C29	C	1.510276	0.503217	0.892177
C30	C	1.510272	1.230790	0.503497
C31	C	1.510205	1.114637	0.503493
C32	C	1.510164	0.503385	0.231944
C33	C	1.510336	0.503133	0.115791
C34	C	1.573833	0.439692	0.943979
C35	C	1.573866	0.439647	1.064029
H36	H	0.906234	0.385647	0.621574
Br37	Br	0.973039	0.593915	0.412689
H38	H	1.455844	1.070199	0.449055
Br39	Br	1.664142	0.868332	0.657736
Br40	Br	1.664280	1.136829	0.657769
Br41	Br	1.419553	0.965397	0.412760
H42	H	1.628282	0.385264	1.108577
Br43	Br	1.664459	0.349065	0.869774
Br44	Br	1.419644	0.593798	1.041556
H45	H	1.115360	0.385612	0.621535
H46	H	1.077928	0.557670	0.448987
H47	H	1.455881	0.557562	0.936705
