data_functionalizedCrystal
_audit_creation_method	'MofGen! by Chris Wilmer'
_symmetry_space_group_name_H-M	'P1'
_symmetry_Int_Tables_number	1
_symmetry_cell_setting	triclinic
loop_
_symmetry_equiv_pos_as_xyz
  x,y,z
_cell_length_a	9.065218
_cell_length_b	7.088929
_cell_length_c	9.065215
_cell_angle_alpha	96.315081
_cell_angle_beta	94.984675
_cell_angle_gamma	96.294088
loop_
_atom_site_label
_atom_site_type_symbol
_atom_site_fract_x
_atom_site_fract_y
_atom_site_fract_z
O1	O	-1.945446	0.159081	0.231333
O2	O	-1.445446	0.659081	0.731333
O3	O	-1.516162	0.159063	0.249078
O4	O	-1.016162	0.659063	0.749078
O5	O	-1.739680	0.159064	0.025562
O6	O	-1.239680	0.659064	0.525562
O7	O	-1.721928	0.159080	0.454849
O8	O	-1.221928	0.659080	0.954849
O9	O	-1.769550	-0.158911	-0.004377
O10	O	-1.269550	0.341089	0.495623
O11	O	-1.546032	-0.158912	0.219138
O12	O	-1.046032	0.341088	0.719138
O13	O	-1.975316	-0.158894	0.201394
O14	O	-1.475316	0.341106	0.701394
Cu15	Cu	-1.763401	-0.187937	0.207532
Cu16	Cu	-1.263401	0.312063	0.707532
Cu17	Cu	-1.728077	0.188106	0.242939
Cu18	Cu	-1.228077	0.688106	0.742939
O19	O	-1.751798	-0.158895	0.424910
O20	O	-1.251798	0.341105	0.924910
C21	C	-1.476111	0.000073	0.232402
C22	C	-0.976111	0.500073	0.732402
C23	C	-1.312269	0.000066	0.227302
C24	C	-0.812269	0.500066	0.727302
N25	N	-1.788258	-0.452424	0.182629
N26	N	-1.288258	0.047576	0.682629
C27	C	-1.015368	0.000088	0.218068
C28	C	-0.515368	0.500088	0.718068
C29	C	-1.179212	0.000072	0.223166
C30	C	-0.679212	0.500072	0.723166
C31	C	-1.752910	0.000079	-0.044394
C32	C	-1.252910	0.500079	0.455606
C33	C	-1.747811	0.000084	-0.208237
C34	C	-1.247811	0.500084	0.291763
N35	N	-1.703232	0.452594	0.267831
N36	N	-1.203232	0.952594	0.767831
C37	C	-1.738567	0.000095	0.494866
C38	C	-1.238567	0.500095	0.994866
C39	C	-1.743665	0.000102	0.658710
C40	C	-1.243665	0.500102	1.158710
H41	H	-1.876394	-0.534080	0.094339
H42	H	-1.376394	-0.034080	0.594339
H43	H	-1.615112	-0.465761	0.356125
H44	H	-1.115112	0.034239	0.856125
