data_functionalizedCrystal
_audit_creation_method	'MofGen! by Chris Wilmer'
_symmetry_space_group_name_H-M	'P1'
_symmetry_Int_Tables_number	1
_symmetry_cell_setting	triclinic
loop_
_symmetry_equiv_pos_as_xyz
  x,y,z
_cell_length_a	10.489741
_cell_length_b	13.339070
_cell_length_c	11.804783
_cell_angle_alpha	99.452288
_cell_angle_beta	76.827322
_cell_angle_gamma	79.915766
loop_
_atom_site_label
_atom_site_type_symbol
_atom_site_fract_x
_atom_site_fract_y
_atom_site_fract_z
O1	O	1.713558	-0.124651	0.098941
O2	O	1.346955	-0.138080	0.098959
O3	O	1.488183	0.016204	0.098949
O4	O	1.572329	-0.278935	0.098952
O5	O	1.547180	-0.020705	-0.099094
O6	O	1.405951	-0.174989	-0.099084
O7	O	1.772554	-0.161561	-0.099102
Cu8	Cu	1.594639	-0.171645	-0.117176
Cu9	Cu	1.524869	-0.127995	0.117033
O10	O	1.631326	-0.315845	-0.099091
C11	C	1.328573	-0.155519	-0.000060
C12	C	1.185903	-0.152483	-0.000053
C13	C	1.084159	-0.054318	-0.000065
C14	C	0.978820	-0.082493	0.097578
C15	C	1.037028	-0.118907	-0.097676
C16	C	1.082419	-0.180684	0.097671
C17	C	1.140658	-0.217100	-0.097671
C18	C	1.035364	-0.245342	-0.000004
C19	C	1.503466	0.035543	-0.000070
C20	C	1.461096	0.148154	-0.000064
C21	C	1.790935	-0.144121	-0.000080
C22	C	1.933603	-0.147155	-0.000079
C23	C	1.616042	-0.335183	-0.000069
C24	C	1.658410	-0.447793	-0.000069
N25	N	1.643721	-0.202346	-0.281905
C26	C	1.790538	0.510544	-0.000080
C27	C	1.830354	0.404739	-0.000093
C28	C	1.738042	0.340588	-0.000086
C29	C	1.605909	0.382252	-0.000065
C30	C	1.566092	0.488066	-0.000062
C31	C	1.513597	0.318109	-0.000067
C32	C	1.381463	0.359773	-0.000047
C33	C	1.341653	0.465577	-0.000042
C34	C	1.433964	0.529728	-0.000050
C35	C	1.553413	0.212296	-0.000071
C36	C	1.328968	0.189817	-0.000052
C37	C	1.289152	0.295622	-0.000039
C38	C	1.357883	-0.023556	-0.655918
C39	C	1.320726	-0.000324	-0.531264
C40	C	1.401472	-0.050828	-0.468918
C41	C	1.519381	-0.124566	-0.531238
C42	C	1.556547	-0.147794	-0.655904
C43	C	1.600135	-0.175066	-0.468904
C44	C	1.718044	-0.248805	-0.531224
C45	C	1.755204	-0.272029	-0.655878
C46	C	1.674459	-0.221525	-0.718223
C47	C	1.562969	-0.151839	-0.344239
C48	C	1.761633	-0.276077	-0.344225
C49	C	1.798790	-0.299308	-0.468878
N50	N	1.475795	-0.097287	0.281763
H51	H	1.013580	-0.326118	0.000050
H52	H	1.181567	0.329560	-0.000023
H53	H	1.660997	0.178383	-0.000087
H54	H	1.937937	0.370824	-0.000112
H55	H	1.466966	-0.091802	-0.293510
N56	N	1.234676	0.124287	-0.000028
N57	N	1.206994	0.078294	0.083454
H58	H	1.140408	0.032007	0.083469
H59	H	1.894794	-0.359347	-0.519637
N60	N	1.011154	-0.086098	-0.201239
N61	N	0.896908	-0.079257	-0.218268
H62	H	0.878633	-0.056080	-0.291404
N63	N	1.200290	0.074990	-0.467621
N64	N	1.186289	0.166800	-0.481538
H65	H	1.101219	0.219990	-0.436593
N66	N	1.778732	0.232512	-0.000103
N67	N	1.896708	0.195325	-0.000120
H68	H	1.925451	0.118994	-0.000129
H69	H	1.827384	-0.317201	-0.293463
N70	N	1.108051	-0.213453	0.201327
N71	N	1.222484	-0.221050	0.218079
H72	H	1.240594	-0.244199	0.291281
H73	H	1.210505	-0.273989	-0.180226
H74	H	0.908994	-0.025571	0.180129
N75	N	1.111738	0.046958	0.000039
N76	N	1.020821	0.121708	0.000973
H77	H	1.040297	0.193234	0.001050
H78	H	1.371211	-0.031909	-0.367420
N79	N	1.275430	0.028011	-0.719623
N80	N	1.225639	-0.023904	-0.789207
H81	H	1.167403	0.012519	-0.834203
H82	H	1.865686	0.562783	-0.000097
N83	N	1.393310	0.637814	-0.000022
N84	N	1.475742	0.695076	-0.000014
H85	H	1.447034	0.771415	0.000009
N86	N	1.206685	0.508118	-0.000039
N87	N	1.124275	0.450835	-0.000032
H88	H	1.028952	0.480877	-0.000030
H89	H	1.704703	-0.240441	-0.819727
N90	N	1.875661	-0.347337	-0.719519
N91	N	1.947747	-0.392421	-0.663846
H92	H	2.032822	-0.445608	-0.708790
