data_functionalizedCrystal
_audit_creation_method	'MofGen! by Chris Wilmer'
_symmetry_space_group_name_H-M	'P1'
_symmetry_Int_Tables_number	1
_symmetry_cell_setting	triclinic
loop_
_symmetry_equiv_pos_as_xyz
  x,y,z
_cell_length_a	20.919287
_cell_length_b	14.560438
_cell_length_c	14.560438
_cell_angle_alpha	59.999258
_cell_angle_beta	86.844023
_cell_angle_gamma	58.210215
loop_
_atom_site_label
_atom_site_type_symbol
_atom_site_fract_x
_atom_site_fract_y
_atom_site_fract_z
Zr1	Zr	0.616710	1.005332	-0.169321
O2	O	0.514476	1.196944	-0.307887
O3	O	0.648056	0.813721	-0.126841
O4	O	0.648048	1.005334	-0.318448
O5	O	0.514485	1.005327	0.034861
O6	O	0.753405	1.005335	-0.326781
O7	O	0.514484	1.005330	-0.116280
O8	O	0.753420	0.662573	0.015970
O9	O	0.514470	1.348089	-0.307889
O10	O	0.740045	0.892533	-0.114944
O11	O	0.661418	0.892531	0.004069
O12	O	0.661408	1.118131	-0.221524
O13	O	0.582781	1.118128	-0.102511
Zr14	Zr	0.784743	1.005329	0.058442
Zr15	Zr	0.784742	1.005333	-0.182611
Zr16	Zr	0.616710	1.005327	0.071732
Zr17	Zr	0.616700	1.246391	-0.169324
Zr18	Zr	0.784753	0.764269	0.058445
O19	O	0.753397	1.196939	0.015962
O20	O	0.753397	1.196946	-0.326784
O21	O	0.514476	1.196938	0.034858
O22	O	0.886977	0.813716	0.197008
O23	O	0.886976	0.813722	-0.145737
O24	O	0.648056	0.813715	0.215905
O25	O	0.886968	1.005333	-0.145740
O26	O	0.753405	1.005326	0.207569
O27	O	0.648048	1.005325	0.215902
O28	O	0.886968	1.005330	0.005401
O29	O	0.648033	1.348090	-0.318453
O30	O	0.753420	0.662570	0.207574
O31	O	0.886983	0.662571	0.197010
O32	O	0.886983	0.662574	0.005406
O33	O	0.514470	1.348086	-0.116285
O34	O	0.648033	1.348087	-0.126849
O35	O	0.740045	0.892529	0.110645
O36	O	0.818671	0.892532	-0.008368
O37	O	0.740035	1.118130	-0.114948
O38	O	0.661408	1.118127	0.004065
C39	C	0.700739	0.703801	-0.055435
C40	C	0.700744	0.601465	-0.055433
C41	C	0.758765	0.373972	0.023235
C42	C	0.758784	0.470107	0.023239
C43	C	0.642685	0.636688	-0.134122
C44	C	0.642670	0.540553	-0.134130
C45	C	0.490544	1.005329	-0.038816
C46	C	0.419209	1.005328	-0.033174
C47	C	0.385696	1.005333	-0.113791
C48	C	0.318672	1.005326	-0.108484
C49	C	0.285160	1.005323	-0.022565
C50	C	0.318679	1.005314	0.058060
C51	C	0.385705	1.005312	0.052757
C52	C	0.082789	1.005321	-0.002383
C53	C	0.015757	1.005327	0.002912
C54	C	0.015755	1.005336	-0.163632
C55	C	0.082779	1.005342	-0.168931
C56	C	0.116295	1.005326	-0.088303
C57	C	0.216650	1.005320	-0.017141
C58	C	0.184808	1.005320	-0.093724
C59	C	0.910909	1.005332	-0.072063
C60	C	0.982243	1.005332	-0.077705
C61	C	0.700726	1.005335	-0.356959
C62	C	0.700726	1.005337	-0.459292
C63	C	0.700714	1.306859	-0.055444
C64	C	0.700709	1.409195	-0.055446
C65	C	0.758768	1.005339	-0.511959
C66	C	0.758770	1.005327	-0.608105
C67	C	0.642682	1.005318	-0.598912
C68	C	0.642683	1.005320	-0.502763
C69	C	0.700727	1.005325	0.246080
C70	C	0.700727	1.005323	0.348413
C71	C	0.910922	0.703803	-0.072058
C72	C	0.982261	0.601467	-0.077699
C73	C	0.700740	0.703796	0.246085
C74	C	0.700744	0.601458	0.348419
C75	C	0.910922	0.703797	0.229461
C76	C	0.982261	0.601460	0.326154
C77	C	0.490530	1.306863	-0.340340
C78	C	0.419192	1.409200	-0.437033
C79	C	0.490531	1.306858	-0.038821
C80	C	0.419192	1.409193	-0.033180
C81	C	0.700713	1.306864	-0.356964
C82	C	0.700709	1.409202	-0.459298
C83	C	0.974719	0.553410	-0.135989
C84	C	1.041743	0.457268	-0.141311
C85	C	1.116307	0.409178	-0.088335
C86	C	1.123847	0.457245	-0.030042
C87	C	1.056824	0.553392	-0.024728
C88	C	1.056812	0.553403	0.309437
C89	C	1.123848	0.457259	0.400281
C90	C	1.116333	0.409168	0.507839
C91	C	1.041774	0.457235	0.524554
C92	C	0.974739	0.553383	0.433712
C93	C	0.344641	1.457269	-0.420316
C94	C	0.277604	1.553443	-0.511160
C95	C	0.285120	1.601539	-0.618718
C96	C	0.359679	1.553466	-0.635433
C97	C	0.426714	1.457301	-0.544591
C98	C	0.426733	1.457260	0.025100
C99	C	0.359710	1.553429	0.030395
C100	C	0.285146	1.601522	-0.022584
C101	C	0.277606	1.553451	-0.080872
C102	C	0.344629	1.457290	-0.086173
C103	C	0.741788	0.553377	0.452128
C104	C	0.741783	0.457228	0.548279
C105	C	0.659690	0.457247	0.436999
C106	C	0.659690	0.553400	0.340851
H107	H	0.806059	0.441416	0.087308
Br108	Br	1.207318	0.278679	0.631116
Br109	Br	1.031587	0.391955	0.670535
H110	H	0.626266	0.418105	0.430850
H111	H	0.230578	1.679821	-0.018259
H112	H	0.914039	0.592499	0.447338
Br113	Br	0.563911	1.005298	-0.657913
H114	H	0.338507	1.418115	-0.332744
H115	H	0.230530	1.679842	-0.692679
Br116	Br	0.603976	0.618671	0.200092
Br117	Br	0.797483	0.391985	0.689027
Br118	Br	0.176406	1.618730	-0.152764
H119	H	1.184551	0.418133	0.386651
Br120	Br	0.563879	0.588358	-0.240926
H121	H	0.216902	1.592568	-0.497529
H122	H	0.595418	1.005314	-0.459876
H123	H	0.338478	1.418157	-0.133628
H124	H	0.365789	1.592638	-0.723018
H125	H	0.412975	1.005343	-0.183759
Br126	Br	0.563919	0.814960	-0.240899
H127	H	1.170875	0.330889	-0.092670
Br128	Br	0.527887	1.392069	-0.567298
H129	H	0.806024	0.267018	0.087304
H130	H	1.035589	0.418144	-0.188778
Br131	Br	1.067073	0.618594	0.054394
H132	H	0.914012	0.592563	-0.179143
H133	H	0.806034	1.005326	-0.650982
Br134	Br	0.273190	1.005326	-0.217890
H135	H	0.365864	1.592552	0.077863
Br136	Br	0.128259	1.005353	-0.285539
Br137	Br	0.527919	1.392017	0.097007
Br138	Br	1.067034	0.618655	0.163475
Br139	Br	0.797503	0.618596	0.462401
Br140	Br	0.837541	1.005358	-0.452964
H141	H	-0.011526	1.005326	0.072881
Br142	Br	-0.029732	1.005354	-0.273048
H143	H	1.184566	0.418077	0.013088
H144	H	0.291393	1.005304	0.128022
Br145	Br	0.431192	1.005293	0.162176
Br146	Br	0.128270	1.005304	0.107034
H147	H	0.189357	1.005321	0.052815
H148	H	0.212098	1.005315	-0.163676
