data_functionalizedCrystal
_audit_creation_method	'MofGen! by Chris Wilmer'
_symmetry_space_group_name_H-M	'P1'
_symmetry_Int_Tables_number	1
_symmetry_cell_setting	triclinic
loop_
_symmetry_equiv_pos_as_xyz
  x,y,z
_cell_length_a	12.759401
_cell_length_b	29.839131
_cell_length_c	12.759393
_cell_angle_alpha	89.963159
_cell_angle_beta	89.981287
_cell_angle_gamma	90.042945
loop_
_atom_site_label
_atom_site_type_symbol
_atom_site_fract_x
_atom_site_fract_y
_atom_site_fract_z
Zn1	Zn	1.606048	-0.178813	-0.593974
Zn2	Zn	1.605864	-0.253950	-0.418275
Zn3	Zn	1.430354	-0.178837	-0.418309
Zn4	Zn	1.430257	-0.253919	-0.593912
O5	O	1.518131	-0.216380	-0.506117
O6	O	1.753045	-0.188783	-0.570679
O7	O	1.582546	-0.244010	-0.271258
O8	O	1.453778	-0.115967	-0.441652
O9	O	1.752910	-0.243986	-0.441593
O10	O	1.582860	-0.115949	-0.570712
O11	O	1.453599	-0.188824	-0.271283
O12	O	1.283320	-0.188794	-0.441592
O13	O	1.453613	-0.243933	-0.740941
O14	O	1.283249	-0.243956	-0.570606
O15	O	1.582766	-0.188753	-0.740987
O16	O	1.582452	-0.316813	-0.441533
O17	O	1.453434	-0.316790	-0.570573
C18	C	1.245163	-0.216374	-0.506097
C19	C	1.128387	-0.216383	-0.506113
C20	C	1.073515	-0.245150	-0.573185
C21	C	0.963791	-0.245151	-0.573206
C22	C	0.963820	-0.187618	-0.439073
C23	C	1.073542	-0.187615	-0.439058
C24	C	0.813873	-0.261271	-0.697062
C25	C	0.758998	-0.290045	-0.764125
C26	C	0.794547	-0.333888	-0.780061
C27	C	0.884970	-0.348966	-0.728920
C28	C	0.939839	-0.320195	-0.661849
C29	C	0.904292	-0.276346	-0.645932
C30	C	1.223462	-0.171499	-0.315200
C31	C	1.278334	-0.142730	-0.248124
C32	C	1.242787	-0.098886	-0.232176
C33	C	1.152360	-0.083810	-0.283300
C34	C	1.097489	-0.112579	-0.350376
C35	C	1.133044	-0.156422	-0.366325
C36	C	1.517941	-0.333103	-0.506065
C37	C	1.517956	-0.383037	-0.506078
C38	C	1.585433	-0.692680	-0.439024
C39	C	1.585562	-0.880353	-0.439065
O40	O	1.642783	-0.904617	-0.382014
N41	N	1.518349	-0.903822	-0.506197
C42	C	1.451103	-0.880370	-0.573327
O43	O	1.393944	-0.904638	-0.630435
C44	C	1.450979	-0.692698	-0.573291
C45	C	1.518190	-0.669231	-0.506148
C46	C	1.652638	-0.669213	-0.371888
C47	C	1.652601	-0.622297	-0.371874
C48	C	1.585358	-0.598849	-0.438997
C49	C	1.518152	-0.622316	-0.506134
C50	C	1.383739	-0.669247	-0.640427
C51	C	1.383716	-0.622326	-0.640413
C52	C	1.450927	-0.598859	-0.573270
C53	C	1.450872	-0.551952	-0.573244
N54	N	1.518086	-0.528482	-0.506113
C55	C	1.585329	-0.551931	-0.438989
C56	C	1.451171	-0.978901	-0.573340
C57	C	1.451200	-1.025818	-0.573348
C58	C	1.585662	-1.025798	-0.439087
C59	C	1.585626	-0.978879	-0.439075
C60	C	1.518385	-0.955431	-0.506209
C61	C	1.585245	-0.453405	-0.438965
C62	C	1.585199	-0.406486	-0.438955
C63	C	1.450742	-0.406510	-0.573219
C64	C	1.450784	-0.453426	-0.573226
C65	C	1.518044	-0.476872	-0.506096
O66	O	1.393690	-0.527658	-0.630274
O67	O	1.642496	-0.527655	-0.381907
C68	C	1.585470	-0.739595	-0.439038
C69	C	1.518264	-0.763062	-0.506175
C70	C	1.451021	-0.739613	-0.573298
C71	C	1.518293	-0.809980	-0.506183
C72	C	1.585536	-0.833428	-0.439060
C73	C	1.652750	-0.809959	-0.371928
C74	C	1.652713	-0.763044	-0.371915
C75	C	1.383807	-0.763083	-0.640430
C76	C	1.383849	-0.809998	-0.640437
C77	C	1.451092	-0.833447	-0.573314
C78	C	1.792164	-0.216386	-0.506139
C79	C	1.908941	-0.216388	-0.506148
C80	C	1.518199	-0.216337	-0.780151
C81	C	1.518228	-0.216318	-0.896928
C82	C	1.518350	-0.099202	-0.506193
C83	C	1.518443	-0.049267	-0.506225
C84	C	1.451000	-0.245037	-0.951768
C85	C	1.451038	-0.245020	-1.061492
C86	C	1.585533	-0.187562	-1.061526
C87	C	1.585500	-0.187582	-0.951804
C88	C	1.413443	-0.297976	-1.211412
C89	C	1.346200	-0.326690	-1.266256
C90	C	1.243661	-0.333591	-1.230639
C91	C	1.208346	-0.311771	-1.140179
C92	C	1.275584	-0.283052	-1.085341
C93	C	1.378137	-0.276160	-1.120957
C94	C	1.623084	-0.134626	-0.801882
C95	C	1.690317	-0.105905	-0.747042
C96	C	1.792857	-0.099000	-0.782657
C97	C	1.828169	-0.120812	-0.873120
C98	C	1.760935	-0.149533	-0.927960
C99	C	1.658396	-0.156439	-0.892337
C100	C	1.518124	-0.216391	-0.233150
C101	C	1.518298	-0.216282	-0.116374
H102	H	1.287468	-0.075464	-0.177548
H103	H	1.707499	-0.829059	-0.317271
H104	H	1.661555	-0.088141	-0.673387
H105	H	1.539588	-0.140248	-0.772872
H106	H	1.640302	-0.164165	-1.106220
H107	H	1.640355	-0.959775	-0.384402
H108	H	1.396461	-1.044921	-0.628013
H109	H	1.707333	-0.603193	-0.317203
H110	H	0.685376	-0.277764	-0.805765
H111	H	1.496942	-0.292364	-1.240413
H112	H	1.013459	-0.332471	-0.620210
H113	H	1.118167	-0.268573	-0.627787
H114	H	1.351963	-0.155009	-0.206496
H115	H	1.123405	-0.048112	-0.270299
H116	H	1.329109	-0.829101	-0.695112
H117	H	1.252420	-0.207199	-0.328189
H118	H	1.789693	-0.167292	-1.001623
H119	H	1.639930	-0.387380	-0.384275
H120	H	1.329004	-0.688346	-0.695097
H121	H	0.913900	-0.384669	-0.741892
H122	H	0.784927	-0.225570	-0.684103
H123	H	0.749860	-0.357316	-0.834667
H124	H	1.188911	-0.356971	-1.275301
H125	H	1.640017	-0.472490	-0.384304
H126	H	1.396059	-0.472533	-0.627903
H127	H	1.023864	-0.100299	-0.392011
H128	H	1.374963	-0.344457	-1.339908
H129	H	1.396412	-0.959813	-0.628010
H130	H	1.707401	-0.688300	-0.317227
H131	H	1.328961	-0.603237	-0.695086
H132	H	1.395990	-0.387411	-0.627867
H133	H	0.919152	-0.164197	-0.384478
H134	H	1.847593	-0.075607	-0.738004
H135	H	1.640414	-1.044898	-0.384433
H136	H	1.707442	-0.743940	-0.317241
H137	H	1.329051	-0.743994	-0.695091
H138	H	1.396217	-0.268434	-0.907090
H139	H	1.911663	-0.115187	-0.902123
H140	H	1.246830	-0.265285	-1.011694
H141	H	1.124844	-0.317387	-1.111194
