data_functionalizedCrystal
_audit_creation_method	'MofGen! by Chris Wilmer'
_symmetry_space_group_name_H-M	'P1'
_symmetry_Int_Tables_number	1
_symmetry_cell_setting	triclinic
loop_
_symmetry_equiv_pos_as_xyz
  x,y,z
_cell_length_a	10.540539
_cell_length_b	16.109301
_cell_length_c	15.186229
_cell_angle_alpha	90.005167
_cell_angle_beta	89.998698
_cell_angle_gamma	96.006514
loop_
_atom_site_label
_atom_site_type_symbol
_atom_site_fract_x
_atom_site_fract_y
_atom_site_fract_z
O1	O	1.684215	-0.117165	-0.073190
O2	O	2.017548	0.216168	0.260143
O3	O	2.350882	0.549501	0.593476
O4	O	1.314645	-0.128205	-0.073201
O5	O	1.647978	0.205129	0.260132
O6	O	1.981311	0.538462	0.593465
O7	O	1.509582	-0.001716	-0.073187
O8	O	1.842916	0.331617	0.260147
O9	O	2.176249	0.664951	0.593480
O10	O	1.489277	-0.243654	-0.073205
O11	O	1.822611	0.089679	0.260128
O12	O	2.155944	0.423013	0.593462
O13	O	1.509569	-0.001714	0.073271
O14	O	1.842903	0.331619	0.406604
O15	O	2.176236	0.664952	0.739937
O16	O	1.314632	-0.128203	0.073256
O17	O	1.647965	0.205131	0.406589
O18	O	1.981298	0.538464	0.739923
O19	O	1.684202	-0.117163	0.073267
O20	O	2.017535	0.216170	0.406600
O21	O	2.350869	0.549503	0.739934
Zn22	Zn	1.499415	-0.122683	0.096515
Zn23	Zn	1.832748	0.210651	0.429848
Zn24	Zn	2.166081	0.543984	0.763181
Zn25	Zn	1.499432	-0.122685	-0.096449
Zn26	Zn	1.832765	0.210648	0.236884
Zn27	Zn	2.166099	0.543981	0.570218
O28	O	1.489264	-0.243652	0.073252
O29	O	1.822598	0.089681	0.406586
O30	O	2.155931	0.423015	0.739919
C31	C	1.267347	-0.127376	0.000026
C32	C	1.600680	0.205958	0.333359
C33	C	1.934014	0.539291	0.666693
C34	C	1.126434	-0.124899	0.000022
C35	C	1.459768	0.208434	0.333355
C36	C	1.793101	0.541768	0.666689
N37	N	1.499412	-0.122681	0.228207
N38	N	1.832746	0.210653	0.561541
N39	N	2.166079	0.543986	0.894874
C40	C	1.508753	0.029265	0.000043
C41	C	1.842087	0.362598	0.333376
C42	C	2.175420	0.695931	0.666709
C43	C	1.506287	0.121575	0.000044
C44	C	1.839621	0.454909	0.333377
C45	C	2.172954	0.788242	0.666710
C46	C	0.944360	-0.029989	0.000371
C47	C	1.277694	0.303344	0.333704
C48	C	1.611027	0.636678	0.667038
C49	C	1.090943	-0.032500	0.000032
C50	C	1.424276	0.300833	0.333365
C51	C	1.757609	0.634167	0.666698
C52	C	1.064135	-0.169366	-0.083612
C53	C	1.397469	0.163967	0.249721
C54	C	1.730802	0.497300	0.583054
C55	C	0.917636	-0.166213	-0.083673
C56	C	1.250969	0.167121	0.249660
C57	C	1.584302	0.500454	0.582993
C58	C	0.917106	-0.168090	0.082876
C59	C	1.250439	0.165243	0.416209
C60	C	1.583772	0.498576	0.749543
C61	C	1.064075	-0.168941	0.083972
C62	C	1.397409	0.164392	0.417306
C63	C	1.730742	0.497725	0.750639
C64	C	1.731500	-0.117992	0.000038
C65	C	2.064833	0.215341	0.333371
C66	C	2.398166	0.548674	0.666704
C67	C	1.872413	-0.120469	0.000036
C68	C	2.205746	0.212864	0.333369
C69	C	2.539079	0.546198	0.666703
C70	C	1.490093	-0.274633	0.000021
C71	C	1.823427	0.058701	0.333355
C72	C	2.156760	0.392034	0.666688
C73	C	1.492559	-0.366943	0.000014
C74	C	1.825893	-0.033610	0.333348
C75	C	2.159226	0.299723	0.666681
C76	C	1.616226	0.343175	0.000033
C77	C	1.949559	0.676509	0.333366
C78	C	2.282893	1.009842	0.666700
C79	C	1.613899	0.429910	0.000026
C80	C	1.947232	0.763243	0.333359
C81	C	2.280566	1.096577	0.666692
C82	C	1.382612	0.411450	0.000022
C83	C	1.715945	0.744783	0.333356
C84	C	2.049279	1.078117	0.666689
C85	C	1.384940	0.324717	0.000023
C86	C	1.718274	0.658050	0.333357
C87	C	2.051607	0.991384	0.666690
C88	C	1.501751	0.290582	0.000033
C89	C	1.835084	0.623916	0.333366
C90	C	2.168418	0.957249	0.666700
C91	C	1.497096	0.464050	0.000025
C92	C	1.830429	0.797383	0.333358
C93	C	2.163763	1.130716	0.666691
C94	C	1.494572	0.558091	0.000017
C95	C	1.827905	0.891425	0.333350
C96	C	2.161239	1.224758	0.666684
C97	C	1.504275	0.196535	0.000039
C98	C	1.837609	0.529868	0.333373
C99	C	2.170942	0.863201	0.666706
N100	N	1.499444	-0.122681	-0.228142
N101	N	1.832778	0.210652	0.105192
N102	N	2.166111	0.543986	0.438525
C103	C	1.585760	-0.066691	0.453937
C104	C	1.919093	0.266643	0.787270
C105	C	2.252427	0.599976	1.120603
C106	C	1.585764	-0.066689	0.546126
C107	C	1.919097	0.266645	0.879460
C108	C	2.252431	0.599978	1.212793
C109	C	1.413087	-0.178673	0.546122
C110	C	1.746421	0.154660	0.879456
C111	C	2.079754	0.487993	1.212789
C112	C	1.413078	-0.178671	0.453934
C113	C	1.746412	0.154663	0.787268
C114	C	2.079745	0.487996	1.120601
C115	C	1.499422	-0.122680	0.407844
C116	C	1.832755	0.210653	0.741177
C117	C	2.166089	0.543986	1.074511
C118	C	1.499435	-0.122681	0.592222
C119	C	1.832768	0.210652	0.925555
C120	C	2.166102	0.543986	1.258888
C121	C	1.499439	-0.122679	0.692178
C122	C	1.832772	0.210654	1.025511
C123	C	2.166105	0.543987	1.358844
C124	C	1.499417	-0.122681	0.307882
C125	C	1.832750	0.210653	0.641215
C126	C	2.166084	0.543986	0.974548
H127	H	1.134050	0.002489	0.059985
H128	H	1.467383	0.335822	0.393318
H129	H	1.800717	0.669155	0.726652
H130	H	0.916290	0.006515	0.060351
H131	H	1.249623	0.339848	0.393684
H132	H	1.582957	0.673181	0.727017
Cl133	Cl	0.898527	0.026136	-0.091702
Cl134	Cl	1.231860	0.359469	0.241631
Cl135	Cl	1.565193	0.692802	0.574965
H136	H	1.342765	-0.224265	0.416403
H137	H	1.676099	0.109069	0.749736
H138	H	2.009432	0.442402	1.083070
H139	H	0.885980	-0.138187	0.146270
H140	H	1.219313	0.195146	0.479603
H141	H	1.552647	0.528480	0.812937
H142	H	1.133196	0.002734	-0.060020
H143	H	1.466529	0.336067	0.273314
H144	H	1.799862	0.669400	0.606647
Cl145	Cl	0.874807	-0.115472	-0.180186
Cl146	Cl	1.208141	0.217861	0.153147
Cl147	Cl	1.541474	0.551194	0.486480
H148	H	1.087341	-0.236306	0.089017
H149	H	1.420674	0.097027	0.422350
H150	H	1.754008	0.430360	0.755683
Cl151	Cl	0.842107	-0.268806	-0.089544
Cl152	Cl	1.175440	0.064527	0.243790
Cl153	Cl	1.508774	0.397860	0.577123
H154	H	1.656064	-0.021099	0.416412
H155	H	1.989398	0.312235	0.749745
H156	H	2.322731	0.645568	1.083079
Cl157	Cl	1.235773	0.454369	0.000010
Cl158	Cl	1.569106	0.787702	0.333343
Cl159	Cl	1.902439	1.121035	0.666677
H160	H	1.711340	0.315386	0.000039
H161	H	2.044674	0.648719	0.333373
H162	H	2.378007	0.982053	0.666706
Cl163	Cl	1.127867	-0.118703	0.179499
Cl164	Cl	1.461200	0.214630	0.512832
Cl165	Cl	1.794533	0.547964	0.846166
H166	H	1.291715	0.281893	0.000021
H167	H	1.625049	0.615226	0.333354
H168	H	1.958382	0.948560	0.666687
H169	H	1.707116	0.472728	0.000024
H170	H	2.040450	0.806062	0.333357
H171	H	2.373783	1.139395	0.666690
Cl172	Cl	1.097190	-0.274122	-0.088448
Cl173	Cl	1.430523	0.059211	0.244886
Cl174	Cl	1.763856	0.392545	0.578219
Cl175	Cl	1.694305	0.003703	0.604069
Cl176	Cl	2.027639	0.337036	0.937403
Cl177	Cl	2.360972	0.670370	1.270736
H178	H	1.107169	-0.138478	-0.145850
H179	H	1.440503	0.194855	0.187483
H180	H	1.773836	0.528189	0.520816
Cl181	Cl	0.842724	-0.271130	0.083742
Cl182	Cl	1.176057	0.062204	0.417075
Cl183	Cl	1.509390	0.395537	0.750409
Cl184	Cl	1.304551	-0.249061	0.604069
Cl185	Cl	1.637884	0.084272	0.937402
Cl186	Cl	1.971218	0.417605	1.270735
