data_functionalizedCrystal
_audit_creation_method	'MofGen! by Chris Wilmer'
_symmetry_space_group_name_H-M	'P1'
_symmetry_Int_Tables_number	1
_symmetry_cell_setting	triclinic
loop_
_symmetry_equiv_pos_as_xyz
  x,y,z
_cell_length_a	14.971486
_cell_length_b	15.995350
_cell_length_c	14.048226
_cell_angle_alpha	89.995798
_cell_angle_beta	89.998499
_cell_angle_gamma	83.553252
loop_
_atom_site_label
_atom_site_type_symbol
_atom_site_fract_x
_atom_site_fract_y
_atom_site_fract_z
O1	O	1.186822	0.109116	-0.079046
O2	O	0.926407	0.122183	-0.079072
O3	O	1.063733	-0.006231	-0.079057
O4	O	1.049496	0.237530	-0.079061
O5	O	1.063717	-0.006238	0.079264
O6	O	0.926391	0.122176	0.079250
O7	O	1.186806	0.109109	0.079275
Zn8	Zn	1.056596	0.115641	0.104399
Zn9	Zn	1.056617	0.115651	-0.104196
O10	O	1.049480	0.237523	0.079261
C11	C	0.893075	0.121595	0.000086
C12	C	0.793780	0.119844	0.000076
C13	C	0.736468	0.195284	0.000076
C14	C	0.643171	0.193633	0.000090
C15	C	0.607187	0.116542	0.000098
C16	C	0.664505	0.041097	0.000100
C17	C	0.757801	0.042748	0.000093
C18	C	0.470047	0.037660	0.000113
C19	C	0.376745	0.036008	0.000119
C20	C	0.355417	0.188545	0.000111
C21	C	0.448712	0.190197	0.000104
C22	C	0.506025	0.114751	0.000104
C23	C	1.063137	-0.037430	0.000101
C24	C	1.061372	-0.130382	0.000096
C25	C	1.055035	-0.468136	0.000098
C26	C	0.957234	-0.420800	-0.000266
C27	C	0.958999	-0.324108	0.000091
C28	C	1.058178	-0.300572	0.000097
C29	C	1.106408	-0.341606	0.090509
C30	C	1.103951	-0.438244	0.090584
C31	C	1.105990	-0.438591	-0.089456
C32	C	1.105967	-0.341646	-0.090651
C33	C	1.059960	-0.205873	0.000099
C34	C	1.053256	-0.562835	0.000103
C35	C	1.220138	0.109697	0.000116
C36	C	1.319433	0.111448	0.000119
C37	C	1.050077	0.268722	0.000100
C38	C	1.051841	0.361674	0.000099
N39	N	1.056587	0.115634	0.246760
N40	N	1.056633	0.115652	-0.246557
C41	C	1.117414	0.058795	0.296584
C42	C	1.117421	0.058795	0.396242
C43	C	1.056603	0.115637	0.446073
C44	C	0.995769	0.172478	0.396242
C45	C	0.995760	0.172474	0.296586
C46	C	0.995795	0.172484	0.603956
C47	C	0.995806	0.172490	0.703619
C48	C	1.117456	0.058805	0.703612
C49	C	1.117446	0.058801	0.603956
C50	C	1.056614	0.115643	0.554132
H51	H	0.478007	0.252971	0.000089
O52	O	0.337935	-0.047141	0.000139
H53	H	0.295936	-0.051528	0.064670
H54	H	1.178293	-0.326211	-0.096106
H55	H	0.308748	0.249976	0.000115
O56	O	0.905461	-0.445405	-0.086146
H57	H	0.884487	-0.388632	-0.129610
O58	O	1.183037	-0.002508	0.550203
H59	H	1.225333	-0.042040	0.601589
O60	O	0.908431	-0.287240	0.086078
H61	H	0.954329	-0.254421	0.131274
O62	O	0.930210	0.233791	0.757376
H63	H	0.886766	0.198466	0.802799
H64	H	1.068768	-0.456584	0.158165
H65	H	0.596511	0.255064	0.000090
H66	H	0.946246	0.218758	0.436821
O67	O	0.930159	0.233781	0.242839
H68	H	0.887876	0.273315	0.294231
H69	H	0.804464	-0.018683	0.000092
H70	H	1.179272	-0.327407	0.093875
O71	O	0.531868	-0.043711	0.000109
H72	H	0.491174	-0.097596	0.000104
H73	H	0.635200	-0.021672	0.000119
O74	O	1.183079	-0.002501	0.757340
H75	H	1.171702	-0.067795	0.738215
O76	O	0.908762	-0.286501	-0.085747
H77	H	0.941374	-0.313482	-0.151554
O78	O	0.930189	0.233795	0.550211
H79	H	0.887908	0.273330	0.601602
H80	H	1.074021	-0.459160	-0.157983
O81	O	0.905670	-0.446791	0.085134
H82	H	0.949396	-0.493275	0.127839
O83	O	1.199056	-0.480876	0.096047
H84	H	1.246598	-0.432441	0.098630
H85	H	1.072896	-0.313261	0.157786
H86	H	1.166943	0.012511	0.256018
H87	H	0.765759	0.258060	0.000070
H88	H	1.070705	-0.314429	-0.157536
O89	O	1.201504	-0.480568	-0.090271
H90	H	1.212674	-0.522277	-0.027240
H91	H	1.166950	0.012513	0.436809
