data_functionalizedCrystal
_audit_creation_method	'MofGen! by Chris Wilmer'
_symmetry_space_group_name_H-M	'P1'
_symmetry_Int_Tables_number	1
_symmetry_cell_setting	triclinic
loop_
_symmetry_equiv_pos_as_xyz
  x,y,z
_cell_length_a	14.044220
_cell_length_b	10.654550
_cell_length_c	9.730223
_cell_angle_alpha	89.994144
_cell_angle_beta	90.004187
_cell_angle_gamma	88.836890
loop_
_atom_site_label
_atom_site_type_symbol
_atom_site_fract_x
_atom_site_fract_y
_atom_site_fract_z
O1	O	-1.259693	-0.302991	0.114137
O2	O	-0.983652	-0.292057	0.114172
O3	O	-1.128019	-0.115422	0.114149
O4	O	-1.115326	-0.479625	0.114161
O5	O	-1.128017	-0.115407	-0.114431
O6	O	-0.983650	-0.292041	-0.114408
O7	O	-1.259691	-0.302975	-0.114443
Zn8	Zn	-1.121670	-0.297505	-0.150717
Zn9	Zn	-1.121673	-0.297526	0.150447
O10	O	-1.115324	-0.479609	-0.114419
C11	C	-1.127086	-0.068523	-0.000139
C12	C	-1.124298	0.071201	-0.000134
C13	C	-0.948305	-0.287263	-0.000113
C14	C	-0.842986	-0.272988	-0.000100
C15	C	-1.295038	-0.307769	-0.000154
C16	C	-1.400358	-0.322044	-0.000159
C17	C	-0.650153	-0.246889	-0.000128
C18	C	-0.593185	-0.348137	-0.000130
C19	C	-0.485886	-0.333615	-0.000146
C20	C	-0.757461	-0.261409	-0.000112
C21	C	-1.116257	-0.526509	-0.000128
C22	C	-1.119045	-0.666233	-0.000124
N23	N	-1.121675	-0.297491	-0.356254
C24	C	-1.209299	0.142145	-0.000149
C25	C	-1.206673	0.273429	-0.000139
C26	C	-1.034038	0.262814	-0.000105
C27	C	-1.036664	0.131532	-0.000105
C28	C	-1.296932	0.081813	-0.000178
C29	C	-1.381941	0.152758	-0.000195
C30	C	-1.379315	0.284043	-0.000185
C31	C	-1.291681	0.344383	-0.000158
N32	N	-1.121676	-0.297532	0.355983
C33	C	-1.057625	-0.375524	0.571839
C34	C	-1.057627	-0.375549	0.427956
C35	C	-1.185733	-0.219495	0.427901
C36	C	-1.185735	-0.219478	0.571781
C37	C	-0.993565	-0.453537	0.643804
C38	C	-0.929509	-0.531576	0.571896
C39	C	-0.929511	-0.531600	0.428013
C40	C	-0.993569	-0.453585	0.356038
H41	H	-0.624998	-0.445725	-0.000121
H42	H	-0.618342	-0.149310	-0.000139
O43	O	-1.470997	0.360562	-0.000211
H44	H	-1.512905	0.337890	0.092934
H45	H	-0.962690	0.311954	-0.000086
H46	H	-1.299080	-0.025085	-0.000190
H47	H	-0.967449	0.073767	-0.000095
O48	O	-1.476458	0.087689	-0.000218
H49	H	-1.464006	-0.015520	-0.000235
O50	O	-1.288843	0.485984	-0.000150
H51	H	-1.362673	0.525183	-0.000171
H52	H	-1.237891	-0.155938	0.630329
O53	O	-0.860420	-0.615726	0.649507
H54	H	-0.786414	-0.591191	0.621869
O55	O	-0.993567	-0.453510	0.798991
H56	H	-0.938268	-0.520871	0.836956
O57	O	-0.860455	-0.615804	0.350447
H58	H	-0.815919	-0.670051	0.424667
H59	H	-1.237886	-0.155977	0.369289
O60	O	-0.993578	-0.453608	0.200848
H61	H	-0.938276	-0.520975	0.162934
