data_functionalizedCrystal
_audit_creation_method	'MofGen! by Chris Wilmer'
_symmetry_space_group_name_H-M	'P1'
_symmetry_Int_Tables_number	1
_symmetry_cell_setting	triclinic
loop_
_symmetry_equiv_pos_as_xyz
  x,y,z
_cell_length_a	16.109301
_cell_length_b	16.109301
_cell_length_c	26.809956
_cell_angle_alpha	89.985355
_cell_angle_beta	90.017691
_cell_angle_gamma	96.538519
loop_
_atom_site_label
_atom_site_type_symbol
_atom_site_fract_x
_atom_site_fract_y
_atom_site_fract_z
O1	O	-1.103149	0.106883	-0.041443
O2	O	-0.603149	0.606883	0.458557
O3	O	-0.861087	0.120182	-0.041450
O4	O	-0.361087	0.620182	0.458550
O5	O	-0.988768	-0.007499	-0.041449
O6	O	-0.488768	0.492501	0.458551
O7	O	-0.975469	0.234563	-0.041444
O8	O	-0.475469	0.734563	0.458556
O9	O	-0.988722	-0.007534	0.041510
O10	O	-0.488722	0.492466	0.541510
O11	O	-0.861041	0.120147	0.041509
O12	O	-0.361041	0.620147	0.541509
O13	O	-1.103103	0.106848	0.041516
O14	O	-0.603103	0.606848	0.541516
Zn15	Zn	-0.982065	0.113492	0.054684
Zn16	Zn	-0.482065	0.613492	0.554684
Zn17	Zn	-0.982126	0.113538	-0.054618
Zn18	Zn	-0.482126	0.613538	0.445382
O19	O	-0.975423	0.234528	0.041515
O20	O	-0.475423	0.734528	0.541515
C21	C	-0.830089	0.119626	0.000028
C22	C	-0.330089	0.619626	0.500028
C23	C	-0.737794	0.118011	0.000025
C24	C	-0.237794	0.618011	0.500025
C25	C	-1.134101	0.107404	0.000037
C26	C	-0.634101	0.607404	0.500037
C27	C	-1.226397	0.109019	0.000036
C28	C	-0.726397	0.609019	0.500036
C29	C	-0.975984	0.265521	0.000036
C30	C	-0.475984	0.765521	0.500036
C31	C	-0.977600	0.357816	0.000038
C32	C	-0.477600	0.857816	0.500038
C33	C	-0.988206	-0.038491	0.000029
C34	C	-0.488206	0.461509	0.500029
C35	C	-0.986591	-0.130786	0.000024
C36	C	-0.486591	0.369214	0.500024
C37	C	-0.515522	0.190018	0.000033
C38	C	-0.015522	0.690018	0.500033
C39	C	-0.428801	0.188494	0.000036
C40	C	0.071199	0.688494	0.500036
C41	C	-0.448676	0.037006	0.000031
C42	C	0.051324	0.537006	0.500031
C43	C	-0.535394	0.038530	0.000031
C44	C	-0.035394	0.538530	0.500031
C45	C	-0.568815	0.115039	0.000030
C46	C	-0.068815	0.615039	0.500030
C47	C	-0.395376	0.111990	0.000032
C48	C	0.104624	0.611990	0.500032
C49	C	-0.301350	0.110337	0.000036
C50	C	0.198650	0.610337	0.500036
C51	C	-0.662847	0.116693	0.000027
C52	C	-0.162847	0.616693	0.500027
N53	N	-0.982030	0.113460	0.129280
N54	N	-0.482030	0.613460	0.629280
C55	C	-0.905592	0.580088	0.000029
C56	C	-0.405592	1.080088	0.500029
C57	C	-0.907116	0.666809	0.000025
C58	C	-0.407116	1.166809	0.500025
C59	C	-1.058605	0.646934	0.000032
C60	C	-0.558605	1.146934	0.500032
C61	C	-1.057080	0.560216	0.000032
C62	C	-0.557080	1.060216	0.500032
C63	C	-0.980571	0.526795	0.000033
C64	C	-0.480571	1.026795	0.500033
C65	C	-0.983620	0.700234	0.000029
C66	C	-0.483620	1.200234	0.500029
C67	C	-0.985273	0.794260	0.000025
C68	C	-0.485273	1.294260	0.500025
C69	C	-0.978917	0.432763	0.000036
C70	C	-0.478917	0.932763	0.500036
N71	N	-0.982167	0.113563	-0.129214
N72	N	-0.482167	0.613563	0.370786
C73	C	-0.931703	0.063057	0.526171
C74	C	-0.431703	0.563057	1.026171
C75	C	-0.931663	0.063034	0.317293
C76	C	-0.431663	0.563034	0.817293
O77	O	-0.888817	0.020109	0.290299
O78	O	-0.388817	0.520109	0.790299
N79	N	-0.982064	0.113473	0.291159
N80	N	-0.482064	0.613473	0.791159
C81	C	-1.032482	0.163917	0.317247
C82	C	-0.532482	0.663917	0.817247
O83	O	-1.075356	0.206812	0.290226
O84	O	-0.575356	0.706812	0.790226
C85	C	-1.032525	0.163935	0.526124
C86	C	-0.532525	0.663935	1.026124
C87	C	-0.982115	0.113499	0.552256
C88	C	-0.482115	0.613499	1.052256
C89	C	-0.881297	0.012624	0.552302
C90	C	-0.381297	0.512624	1.052302
C91	C	-0.881304	0.012634	0.604519
C92	C	-0.381304	0.512634	1.104519
C93	C	-0.931717	0.063076	0.630603
C94	C	-0.431717	0.563076	1.130603
C95	C	-0.982122	0.113509	0.604472
C96	C	-0.482122	0.613509	1.104472
C97	C	-1.082947	0.214375	0.552211
C98	C	-0.582947	0.714375	1.052211
C99	C	-1.082955	0.214373	0.604434
C100	C	-0.582955	0.714373	1.104434
C101	C	-1.032545	0.163937	0.630565
C102	C	-0.532545	0.663937	1.130565
C103	C	-1.032541	0.163961	0.682773
C104	C	-0.532541	0.663961	1.182773
N105	N	-0.982141	0.113522	0.708907
N106	N	-0.482141	0.613522	1.208907
C107	C	-0.931728	0.063079	0.682822
C108	C	-0.431728	0.563079	1.182822
C109	C	-1.032454	0.163905	0.207584
C110	C	-0.532454	0.663905	0.707584
C111	C	-1.032442	0.163902	0.155365
C112	C	-0.532442	0.663902	0.655365
C113	C	-0.931625	0.063017	0.155414
C114	C	-0.431625	0.563017	0.655414
C115	C	-0.931633	0.063026	0.207634
C116	C	-0.431633	0.563026	0.707634
C117	C	-0.982054	0.113466	0.233718
C118	C	-0.482054	0.613466	0.733718
C119	C	-0.931746	0.063104	0.792480
C120	C	-0.431746	0.563104	1.292480
C121	C	-0.931755	0.063121	0.844701
C122	C	-0.431755	0.563121	1.344701
C123	C	-1.032575	0.164002	0.844647
C124	C	-0.532575	0.664002	1.344647
C125	C	-1.032564	0.163989	0.792431
C126	C	-0.532564	0.663989	1.292431
C127	C	-0.982147	0.113533	0.766349
C128	C	-0.482147	0.613533	1.266349
O129	O	-1.075372	0.206857	0.709800
O130	O	-0.575372	0.706857	1.209800
O131	O	-0.888874	0.020177	0.709853
O132	O	-0.388874	0.520177	1.209853
C133	C	-0.931696	0.063047	0.473954
C134	C	-0.431696	0.563047	0.973954
C135	C	-0.982101	0.113480	0.447823
C136	C	-0.482101	0.613480	0.947823
C137	C	-1.032513	0.163922	0.473908
C138	C	-0.532513	0.663922	0.973908
C139	C	-0.982089	0.113477	0.395604
C140	C	-0.482089	0.613477	0.895604
C141	C	-0.931677	0.063034	0.369519
C142	C	-0.431677	0.563034	0.869519
C143	C	-0.881277	0.012595	0.395653
C144	C	-0.381277	0.512595	0.895653
C145	C	-0.881284	0.012605	0.447870
C146	C	-0.381284	0.512605	0.947870
C147	C	-1.082913	0.214361	0.447773
C148	C	-0.582913	0.714361	0.947773
C149	C	-1.082902	0.214348	0.395557
C150	C	-0.582902	0.714348	0.895557
C151	C	-1.032489	0.163906	0.369472
C152	C	-0.532489	0.663906	0.869472
H153	H	-0.542730	0.252317	0.000035
H154	H	-0.042730	0.752317	0.500035
Br155	Br	-0.356477	0.290256	0.000042
Br156	Br	0.143523	0.790256	0.500042
Br157	Br	-0.801759	0.534734	0.000029
Br158	Br	-0.301759	1.034734	0.500029
H159	H	-0.840235	-0.028466	0.469141
H160	H	-0.340235	0.471534	0.969141
Br161	Br	-1.158845	0.487883	0.000032
Br162	Br	-0.658845	0.987883	0.500032
H163	H	-1.123950	0.255428	0.374285
H164	H	-0.623950	0.755428	0.874285
H165	H	-0.421454	-0.025285	0.000035
H166	H	0.078546	0.474715	0.500035
Br167	Br	-0.607728	-0.063234	0.000033
Br168	Br	-0.107728	0.436766	0.500033
Br169	Br	-1.100988	0.232428	0.756965
Br170	Br	-0.600988	0.732428	1.256965
H171	H	-0.846060	0.710197	0.000021
H172	H	-0.346060	1.210197	0.500021
Br173	Br	-1.151391	0.282828	0.639830
Br174	Br	-0.651391	0.782828	1.139830
H175	H	-1.120896	0.674156	0.000036
H176	H	-0.620896	1.174156	0.500036
Br177	Br	-0.863333	-0.005329	0.880162
Br178	Br	-0.363333	0.494671	1.380162
Br179	Br	-0.863327	-0.005376	0.757091
Br180	Br	-0.363327	0.494624	1.257091
Br181	Br	-0.812856	-0.055857	0.360242
Br182	Br	-0.312856	0.444143	0.860242
H183	H	-0.840258	-0.028440	0.625790
H184	H	-0.340258	0.471560	1.125790
Br185	Br	-0.812864	-0.055836	0.516912
Br186	Br	-0.312864	0.444164	1.016912
H187	H	-0.890584	0.021956	0.228907
H188	H	-0.390584	0.521956	0.728907
Br189	Br	-1.100838	0.232375	0.119907
Br190	Br	-0.600838	0.732375	0.619907
Br191	Br	-0.863208	-0.005440	0.120004
Br192	Br	-0.363208	0.494560	0.620004
Br193	Br	-1.100886	0.232371	0.242976
Br194	Br	-0.600886	0.732371	0.742976
Br195	Br	-1.151342	0.282851	0.516761
Br196	Br	-0.651342	0.782851	1.016761
Br197	Br	-1.100982	0.232463	0.880058
Br198	Br	-0.600982	0.732463	1.380058
H199	H	-1.123967	0.255437	0.469006
H200	H	-0.623967	0.755437	0.969006
