data_functionalizedCrystal
_audit_creation_method	'MofGen! by Chris Wilmer'
_symmetry_space_group_name_H-M	'P1'
_symmetry_Int_Tables_number	1
_symmetry_cell_setting	triclinic
loop_
_symmetry_equiv_pos_as_xyz
  x,y,z
_cell_length_a	15.995350
_cell_length_b	10.654550
_cell_length_c	9.130313
_cell_angle_alpha	90.004369
_cell_angle_beta	89.999877
_cell_angle_gamma	83.988653
loop_
_atom_site_label
_atom_site_type_symbol
_atom_site_fract_x
_atom_site_fract_y
_atom_site_fract_z
O1	O	-1.111924	-0.161873	-0.121675
O2	O	-0.868265	-0.181862	-0.121705
O3	O	-0.995697	0.010945	-0.121680
O4	O	-0.984493	-0.354680	-0.121700
O5	O	-0.995688	0.010951	0.121919
O6	O	-0.868256	-0.181856	0.121894
O7	O	-1.111916	-0.161867	0.121924
Cu8	Cu	-0.990085	-0.171861	0.144152
Cu9	Cu	-0.990096	-0.171868	-0.143932
O10	O	-0.984484	-0.354674	0.121899
C11	C	-0.994870	0.057735	0.000119
C12	C	-0.992409	0.197146	0.000116
C13	C	-0.837061	-0.181033	0.000091
C14	C	-0.744096	-0.178555	0.000079
C15	C	-1.143119	-0.162696	0.000125
C16	C	-1.236084	-0.165174	0.000127
C17	C	-0.406297	-0.169658	0.000110
C18	C	-0.452934	-0.032344	0.000661
C19	C	-0.549639	-0.034822	0.000102
C20	C	-0.573883	-0.174071	0.000096
C21	C	-0.533195	-0.241802	-0.139009
C22	C	-0.436539	-0.238353	-0.139115
C23	C	-0.436206	-0.241183	0.137902
C24	C	-0.533152	-0.241151	0.139731
C25	C	-0.668595	-0.176573	0.000083
C26	C	-0.311585	-0.167161	0.000114
C27	C	-0.985311	-0.401464	0.000097
C28	C	-0.987772	-0.540875	0.000090
N29	N	-0.990084	-0.171856	0.346774
C30	C	-1.067438	0.277612	0.000125
C31	C	-1.065121	0.408602	0.000107
C32	C	-0.912737	0.378649	0.000077
C33	C	-0.915055	0.247661	0.000085
N34	N	-0.990103	-0.171863	-0.346555
C35	C	-1.046530	-0.086517	0.423437
C36	C	-1.046538	-0.086517	0.576774
C37	C	-0.933651	-0.257207	0.576771
C38	C	-0.933640	-0.257200	0.423437
H39	H	-0.577755	0.018417	0.099819
C40	C	-0.871580	-0.351142	0.339103
N41	N	-0.824851	-0.421915	0.275583
C42	C	-0.871565	-0.351077	0.661115
N43	N	-0.824799	-0.421782	0.724642
H44	H	-1.130424	0.236488	0.000147
H45	H	-0.577189	0.018773	-0.099782
H46	H	-1.126218	0.474113	0.000111
C47	C	-0.408115	-0.180525	0.280346
N48	N	-0.386959	-0.134823	0.387627
H49	H	-1.092500	-0.017025	0.639189
H50	H	-0.849758	0.419794	0.000055
C51	C	-0.569630	-0.174318	0.278758
N52	N	-0.597104	-0.123968	0.383472
H53	H	-1.092489	-0.017023	0.361021
H54	H	-0.853953	0.182141	0.000073
C55	C	-0.393762	-0.374543	-0.147680
N56	N	-0.361546	-0.477120	-0.154147
C57	C	-0.427467	0.041812	0.135426
N58	N	-0.408278	0.097668	0.236934
H59	H	-0.433027	0.022288	-0.098541
H60	H	-0.405033	-0.342424	0.138839
H61	H	-0.417947	-0.188965	-0.243095
H62	H	-0.561299	-0.194764	-0.242529
C63	C	-0.553083	-0.380007	-0.146013
N64	N	-0.568066	-0.484103	-0.151287
C65	C	-0.554719	-0.378328	0.151095
N66	N	-0.570968	-0.481651	0.159650
