data_functionalizedCrystal
_audit_creation_method	'MofGen! by Chris Wilmer'
_symmetry_space_group_name_H-M	'P1'
_symmetry_Int_Tables_number	1
_symmetry_cell_setting	triclinic
loop_
_symmetry_equiv_pos_as_xyz
  x,y,z
_cell_length_a	17.077404
_cell_length_b	17.640280
_cell_length_c	17.077396
_cell_angle_alpha	101.225604
_cell_angle_beta	90.019501
_cell_angle_gamma	78.800538
loop_
_atom_site_label
_atom_site_type_symbol
_atom_site_fract_x
_atom_site_fract_y
_atom_site_fract_z
Zn1	Zn	1.263288	-0.314659	0.380745
Zn2	Zn	1.763288	0.185341	0.880745
Zn3	Zn	1.289758	-0.446839	0.222973
Zn4	Zn	1.789758	0.053161	0.722973
Zn5	Zn	1.132026	-0.314687	0.249487
Zn6	Zn	1.632026	0.185313	0.749487
Zn7	Zn	1.158541	-0.446792	0.354206
Zn8	Zn	1.658541	0.053208	0.854206
O9	O	1.210903	-0.380744	0.301853
O10	O	1.710903	0.119256	0.801853
O11	O	1.376648	-0.332201	0.359827
O12	O	1.876648	0.167799	0.859827
O13	O	1.268815	-0.429340	0.116637
O14	O	1.768815	0.070660	0.616637
O15	O	1.127263	-0.204078	0.289102
O16	O	1.627263	0.295922	0.789102
O17	O	1.396095	-0.429313	0.243912
O18	O	1.896095	0.070687	0.743912
O19	O	1.223701	-0.204058	0.385536
O20	O	1.723701	0.295942	0.885536
O21	O	1.152930	-0.332248	0.136117
O22	O	1.652930	0.167752	0.636117
O23	O	1.025694	-0.332203	0.263368
O24	O	1.525694	0.167797	0.763368
O25	O	1.172456	-0.429233	0.467580
O26	O	1.672456	0.070767	0.967580
O27	O	1.045176	-0.429260	0.340305
O28	O	1.545176	0.070740	0.840305
O29	O	1.249413	-0.332155	0.487078
O30	O	1.749413	0.167845	0.987078
O31	O	1.294527	-0.557437	0.218179
O32	O	1.794527	-0.057437	0.718179
O33	O	1.198122	-0.557403	0.314595
O34	O	1.698122	-0.057403	0.814595
C35	C	1.006953	-0.380730	0.301834
C36	C	1.506953	0.119270	0.801834
C37	C	0.919705	-0.380743	0.301841
C38	C	1.419705	0.119257	0.801841
C39	C	0.888895	-0.431357	0.341806
C40	C	1.388895	0.068643	0.841806
C41	C	0.806915	-0.431359	0.341818
C42	C	1.306915	0.068641	0.841818
C43	C	0.755747	-0.380750	0.301860
C44	C	1.255747	0.119250	0.801860
C45	C	0.786562	-0.330130	0.261894
C46	C	1.286562	0.169870	0.761894
C47	C	0.868540	-0.330125	0.261887
C48	C	1.368540	0.169875	0.761887
C49	C	0.615696	-0.330146	0.261910
C50	C	1.115696	0.169854	0.761910
C51	C	0.533712	-0.330151	0.261915
C52	C	1.033712	0.169849	0.761915
C53	C	0.554070	-0.431379	0.341841
C54	C	1.054070	0.068621	0.841841
C55	C	0.636048	-0.431374	0.341834
C56	C	1.136048	0.068626	0.841834
C57	C	0.666858	-0.380755	0.301866
C58	C	1.166858	0.119245	0.801866
C59	C	1.252095	-0.586099	0.260647
C60	C	1.752095	-0.086099	0.760647
C61	C	1.269789	-0.673950	0.243045
C62	C	1.769789	-0.173950	0.743045
C63	C	1.076806	-0.962931	0.435857
C64	C	1.576806	-0.462931	0.935857
C65	C	1.093434	-1.045481	0.419293
C66	C	1.593434	-0.545481	0.919293
C67	C	1.193882	-1.045451	0.318996
C68	C	1.693882	-0.545451	0.818996
C69	C	1.177265	-0.962900	0.335555
C70	C	1.677265	-0.462900	0.835555
C71	C	1.118726	-0.921646	0.393986
C72	C	1.618726	-0.421646	0.893986
C73	C	1.219185	-0.921615	0.293683
C74	C	1.719185	-0.421615	0.793683
C75	C	1.202567	-0.839070	0.310238
C76	C	1.702567	-0.339070	0.810238
C77	C	1.144029	-0.797811	0.368665
C78	C	1.644029	-0.297811	0.868665
C79	C	1.102108	-0.839101	0.410541
C80	C	1.602108	-0.339101	0.910541
C81	C	1.277721	-0.962870	0.235249
C82	C	1.777721	-0.462870	0.735249
C83	C	1.319640	-0.921585	0.193377
C84	C	1.819640	-0.421585	0.693377
C85	C	1.303026	-0.839039	0.209936
C86	C	1.803026	-0.339039	0.709936
C87	C	1.244488	-0.797780	0.268362
C88	C	1.744488	-0.297780	0.768362
C89	C	1.344947	-0.797748	0.168060
C90	C	1.844947	-0.297748	0.668060
C91	C	1.328329	-0.715204	0.184615
C92	C	1.828329	-0.215204	0.684615
C93	C	1.227870	-0.715235	0.284917
C94	C	1.727870	-0.215235	0.784917
C95	C	1.415651	-0.380759	0.301872
C96	C	1.915651	0.119241	0.801872
C97	C	1.502902	-0.380765	0.301880
C98	C	2.002902	0.119235	0.801880
C99	C	1.210939	-0.380686	0.506609
C100	C	1.710939	0.119314	1.006609
C101	C	1.210954	-0.380661	0.593864
C102	C	1.710954	0.119339	1.093864
C103	C	1.169572	-0.174588	0.343237
C104	C	1.669572	0.325412	0.843237
C105	C	1.151959	-0.086736	0.360872
C106	C	1.651959	0.413264	0.860872
C107	C	1.210901	-0.380745	0.097905
C108	C	1.710901	0.119255	0.597905
C109	C	1.210993	-0.380547	0.010695
C110	C	1.710993	0.119453	0.510695
C111	C	1.251027	-0.330109	0.645009
C112	C	1.751027	0.169891	1.145009
C113	C	1.251031	-0.330082	0.726995
C114	C	1.751031	0.169918	1.226995
C115	C	1.210967	-0.380613	0.757833
C116	C	1.710967	0.119387	1.257833
C117	C	1.170889	-0.431168	0.706682
C118	C	1.670889	0.068832	1.206682
C119	C	1.170881	-0.431190	0.624699
C120	C	1.670881	0.068810	1.124699
C121	C	1.170911	-0.431120	0.877562
C122	C	1.670911	0.068880	1.377562
C123	C	1.170921	-0.431100	0.959550
C124	C	1.670921	0.068900	1.459550
C125	C	1.251062	-0.330013	0.979858
C126	C	1.751062	0.169987	1.479858
C127	C	1.251053	-0.330035	0.897874
C128	C	1.751053	0.169965	1.397874
C129	C	1.210977	-0.380591	0.846729
C130	C	1.710977	0.119409	1.346729
H131	H	0.528981	-0.472593	0.374387
H132	H	1.028981	0.027407	0.874387
Cl133	Cl	0.469389	-0.266531	0.211677
Cl134	Cl	0.969389	0.233469	0.711677
H135	H	0.677708	-0.472589	0.374366
H136	H	1.177708	0.027411	0.874366
Cl137	Cl	1.301401	-0.266584	0.606248
Cl138	Cl	1.801401	0.233416	1.106248
H139	H	0.781834	-0.472574	0.374361
H140	H	1.281834	0.027426	0.874361
Cl141	Cl	1.040718	-1.097379	0.471930
Cl142	Cl	1.540718	-0.597379	0.971930
H143	H	0.930551	-0.472571	0.374341
H144	H	1.430551	0.027429	0.874341
H145	H	1.054445	-0.805511	0.458127
H146	H	1.554445	-0.305511	0.958127
H147	H	1.241543	-1.079051	0.271419
H148	H	1.741543	-0.579051	0.771419
H149	H	0.640776	-0.288919	0.229372
H150	H	1.140776	0.211081	0.729372
H151	H	1.291251	-1.030083	0.221774
H152	H	1.791251	-0.530083	0.721774
Cl153	Cl	1.393232	-0.973454	0.119926
Cl154	Cl	1.893232	-0.473454	0.619926
Cl155	Cl	0.907273	-0.266491	0.211646
Cl156	Cl	1.407273	0.233509	0.711646
Cl157	Cl	0.722236	-0.266502	0.211667
Cl158	Cl	1.222236	0.233498	0.711667
H159	H	1.138262	-0.472276	0.835923
H160	H	1.638262	0.027724	1.335923
Cl161	Cl	1.154283	-0.663367	0.358382
Cl162	Cl	1.654283	-0.163367	0.858382
Cl163	Cl	1.381021	-0.663299	0.131968
Cl164	Cl	1.881021	-0.163299	0.631968
H165	H	1.130494	-0.730598	0.382137
H166	H	1.630494	-0.230598	0.882137
H167	H	1.029143	-0.929340	0.483444
H168	H	1.529143	-0.429340	0.983444
H169	H	1.392604	-0.831350	0.120480
H170	H	1.892604	-0.331350	0.620480
H171	H	1.283664	-0.288919	0.768634
H172	H	1.783664	0.211081	1.268634
H173	H	1.138265	-0.472308	0.731798
H174	H	1.638265	0.027692	1.231798
H175	H	1.283682	-0.288892	0.872768
H176	H	1.783682	0.211108	1.372768
H177	H	1.283692	-0.288847	1.021505
H178	H	1.783692	0.211153	1.521505
Cl179	Cl	1.120544	-0.494617	0.998320
Cl180	Cl	1.620544	0.005383	1.498320
Cl181	Cl	1.120499	-0.494742	0.560402
Cl182	Cl	1.620499	0.005258	1.060402
