data_functionalizedCrystal
_audit_creation_method	'MofGen! by Chris Wilmer'
_symmetry_space_group_name_H-M	'P1'
_symmetry_Int_Tables_number	1
_symmetry_cell_setting	triclinic
loop_
_symmetry_equiv_pos_as_xyz
  x,y,z
_cell_length_a	17.699083
_cell_length_b	10.654550
_cell_length_c	16.176319
_cell_angle_alpha	89.994395
_cell_angle_beta	89.998611
_cell_angle_gamma	83.883959
loop_
_atom_site_label
_atom_site_type_symbol
_atom_site_fract_x
_atom_site_fract_y
_atom_site_fract_z
O1	O	1.005088	0.158809	-0.068628
O2	O	0.784841	0.179470	-0.068655
O3	O	0.900029	-0.013688	-0.068638
O4	O	0.889901	0.351967	-0.068646
O5	O	0.900013	-0.013701	0.068855
O6	O	0.784825	0.179458	0.068838
O7	O	1.005072	0.158797	0.068865
Cu8	Cu	0.894947	0.169126	0.081406
Cu9	Cu	0.894966	0.169141	-0.081196
O10	O	0.889885	0.351955	0.068848
C11	C	0.756632	0.178724	0.000088
C12	C	0.672599	0.176503	0.000078
C13	C	0.624699	0.289883	0.000076
C14	C	0.545743	0.287788	0.000086
C15	C	0.514688	0.172313	0.000093
C16	C	0.562594	0.058924	0.000098
C17	C	0.641549	0.061020	0.000093
C18	C	0.244177	0.050470	0.000118
C19	C	0.165216	0.048383	0.000121
C20	C	0.148371	0.277239	0.000112
C21	C	0.227326	0.279334	0.000107
C22	C	0.275225	0.165946	0.000116
C23	C	0.360839	0.168219	0.000106
C24	C	0.429076	0.170039	0.000097
C25	C	0.899277	-0.060479	0.000107
C26	C	0.897052	-0.199884	0.000104
C27	C	0.964873	-0.280557	0.000115
C28	C	0.962778	-0.411541	0.000109
C29	C	0.825036	-0.381166	0.000085
C30	C	0.827132	-0.250185	0.000085
C31	C	1.034794	-0.230256	0.000134
C32	C	1.102620	-0.310930	0.000146
C33	C	1.100525	-0.441914	0.000140
C34	C	1.030603	-0.492224	0.000122
C35	C	1.033282	0.159543	0.000120
C36	C	1.117314	0.161764	0.000125
C37	C	0.890637	0.398746	0.000100
C38	C	0.892861	0.538151	0.000098
N39	N	0.894940	0.169115	0.195771
N40	N	0.894980	0.169142	-0.195561
C41	C	0.945960	0.083619	0.239042
C42	C	0.945964	0.083618	0.325590
C43	C	0.894950	0.169120	0.368863
C44	C	0.843924	0.254619	0.325586
C45	C	0.843917	0.254614	0.239040
C46	C	0.843950	0.254643	0.674614
C47	C	0.843962	0.254644	0.761165
C48	C	0.945997	0.083647	0.761163
C49	C	0.945990	0.083642	0.674618
C50	C	0.894962	0.169136	0.631348
C51	C	0.894957	0.169135	0.537503
C52	C	0.894958	0.169128	0.462706
H53	H	0.252606	0.373366	0.000098
O54	O	1.170555	-0.262123	0.000012
C55	C	1.211957	-0.303379	-0.071183
H56	H	1.171090	-0.330491	-0.120960
H57	H	1.253682	-0.388880	-0.055081
C58	C	1.306215	-0.163023	-0.042326
C59	C	1.256021	-0.196312	-0.103465
H60	H	1.333399	-0.096982	-0.062237
H61	H	1.278324	-0.135231	0.005641
H62	H	1.340979	-0.234283	-0.028913
H63	H	1.221253	-0.125057	-0.116869
H64	H	1.283908	-0.224090	-0.151435
H65	H	0.768109	-0.422140	0.000072
O66	O	0.794327	0.337745	0.803075
C67	C	0.749296	0.413223	0.746326
H68	H	0.748168	0.361737	0.684637
H69	H	0.774347	0.506470	0.737110
C70	C	0.669179	0.502493	0.855886
C71	C	0.667787	0.439253	0.780120
H72	H	0.618901	0.518556	0.876732
H73	H	0.699518	0.451647	0.894119
H74	H	0.690058	0.580192	0.848195
H75	H	0.646918	0.361549	0.787813
H76	H	0.637443	0.490087	0.741889
O77	O	0.532393	-0.053218	-0.000042
C78	C	0.487210	-0.061258	-0.071239
H79	H	0.506224	0.004313	-0.121012
H80	H	0.425108	-0.032102	-0.055139
C81	C	0.472710	-0.278534	-0.042390
C82	C	0.496066	-0.198007	-0.103526
H83	H	0.478169	-0.362888	-0.062305
H84	H	0.503147	-0.273117	0.005578
H85	H	0.420959	-0.254223	-0.028979
H86	H	0.547818	-0.222309	-0.116928
H87	H	0.465637	-0.203431	-0.151498
O88	O	0.995544	0.000441	0.197138
C89	C	1.040588	-0.074999	0.253894
H90	H	1.009556	-0.076347	0.315590
H91	H	1.097023	-0.034340	0.263088
C92	C	1.093592	-0.208855	0.144354
C93	C	1.055475	-0.210519	0.220129
H94	H	1.102779	-0.292448	0.123526
H95	H	1.063248	-0.158027	0.106116
H96	H	1.140617	-0.174966	0.152026
H97	H	1.008448	-0.244393	0.212454
H98	H	1.085812	-0.261356	0.258365
O99	O	0.995426	0.000446	0.367656
C100	C	0.954505	-0.076938	0.417744
H101	H	0.894806	-0.078944	0.391675
H102	H	0.950751	-0.037633	0.483335
C103	C	1.068844	-0.209391	0.451089
C104	C	0.995522	-0.211863	0.419066
H105	H	1.094146	-0.292618	0.451908
H106	H	1.096414	-0.157254	0.417346
H107	H	1.065705	-0.176631	0.505745
H108	H	0.998662	-0.244608	0.364408
H109	H	0.967953	-0.264010	0.452800
O110	O	0.995631	0.000532	0.803069
C111	C	1.040642	-0.074953	0.746315
H112	H	1.041763	-0.023461	0.684620
H113	H	1.015578	-0.168189	0.737115
C114	C	1.120775	-0.164259	0.855859
C115	C	1.122157	-0.101012	0.780087
H116	H	1.171056	-0.180339	0.876691
H117	H	1.090449	-0.113408	0.894096
H118	H	1.099884	-0.241949	0.848182
H119	H	1.143038	-0.023317	0.787766
H120	H	1.152488	-0.151851	0.741851
O121	O	0.794495	0.337760	0.632502
C122	C	0.835429	0.415170	0.582448
H123	H	0.894383	0.365018	0.569469
H124	H	0.841069	0.507965	0.615801
C125	C	0.720478	0.503723	0.516188
C126	C	0.792885	0.442121	0.500242
H127	H	0.694234	0.520353	0.465481
H128	H	0.692899	0.451574	0.549912
H129	H	0.725189	0.581044	0.543985
H130	H	0.788173	0.364794	0.472455
H131	H	0.820462	0.494258	0.466511
H132	H	0.771906	-0.184498	0.000077
O133	O	0.794330	0.337789	0.197131
C134	C	0.749292	0.413237	0.253882
H135	H	0.780334	0.414599	0.315570
H136	H	0.692860	0.372576	0.263098
C137	C	0.696270	0.547070	0.144325
C138	C	0.734398	0.548750	0.220090
H139	H	0.687078	0.630660	0.123480
H140	H	0.726610	0.496237	0.106090
H141	H	0.649247	0.513179	0.152016
H142	H	0.781423	0.582626	0.212396
H143	H	0.704065	0.599593	0.258323
H144	H	0.802384	0.324232	0.360824
H145	H	0.649978	0.383916	0.000069
H146	H	0.506745	0.380114	0.000084
H147	H	0.109361	0.369564	0.000109
H148	H	0.139935	-0.045657	0.000127
H149	H	0.283168	-0.041858	0.000126
H150	H	0.680549	-0.031306	0.000094
H151	H	1.036507	-0.123604	0.000142
H152	H	1.155752	-0.507596	0.000141
H153	H	1.028903	-0.598881	0.000108
H154	H	0.987533	0.014023	0.639387
