data_functionalizedCrystal
_audit_creation_method	'MofGen! by Chris Wilmer'
_symmetry_space_group_name_H-M	'P1'
_symmetry_Int_Tables_number	1
_symmetry_cell_setting	triclinic
loop_
_symmetry_equiv_pos_as_xyz
  x,y,z
_cell_length_a	10.967926
_cell_length_b	13.262508
_cell_length_c	10.065875
_cell_angle_alpha	114.496368
_cell_angle_beta	93.120479
_cell_angle_gamma	81.247908
loop_
_atom_site_label
_atom_site_type_symbol
_atom_site_fract_x
_atom_site_fract_y
_atom_site_fract_z
O1	O	1.602782	0.192336	0.334871
O2	O	1.252572	0.195485	0.253670
O3	O	1.445662	0.033746	0.239052
O4	O	1.409692	0.354075	0.349489
O5	O	1.408835	0.064717	0.468875
O6	O	1.215746	0.226456	0.483493
O7	O	1.565955	0.223307	0.564693
Zn8	Zn	1.385003	0.229799	0.560582
Zn9	Zn	1.433524	0.188993	0.257781
O10	O	1.372865	0.385046	0.579311
C11	C	1.189500	0.208401	0.357124
C12	C	1.056433	0.200732	0.322980
C13	C	0.978030	0.213357	0.426812
C14	C	0.840498	0.205431	0.391525
C15	C	1.428619	0.008107	0.339019
C16	C	1.432687	-0.114432	0.294484
C17	C	1.363851	-0.392332	0.670068
C18	C	1.360019	-0.277199	0.711910
C19	C	1.378186	-0.236502	0.607557
C20	C	1.400186	-0.310948	0.461355
C21	C	1.404009	-0.426091	0.419507
C22	C	1.418344	-0.270261	0.356996
C23	C	1.440343	-0.344708	0.210794
C24	C	1.444166	-0.459839	0.168954
C25	C	1.425999	-0.500537	0.273306
C26	C	1.414520	-0.155118	0.398844
C27	C	1.454678	-0.188878	0.148283
C28	C	1.458510	-0.304010	0.106442
C29	C	1.629027	0.210390	0.461237
C30	C	1.762096	0.218058	0.495372
C31	C	1.389909	0.410685	0.479342
C32	C	1.385842	0.533223	0.523867
N33	N	1.351898	0.257647	0.767238
N34	N	1.466639	0.161136	0.051125
C35	C	1.421998	0.198675	0.829616
C36	C	1.396529	0.220117	0.988751
H37	H	1.396597	-0.094513	0.517881
N38	N	1.482239	-0.384310	-0.051243
H39	H	1.481905	-0.463421	-0.061910
H40	H	1.415546	-0.365686	-0.114056
N41	N	1.467982	-0.540111	0.011272
H42	H	1.401346	-0.521598	-0.051690
H43	H	1.550934	-0.533222	-0.020551
N44	N	1.292048	0.308028	1.074050
H45	H	1.248764	0.344436	1.010559
H46	H	1.231527	0.271771	1.105654
H47	H	1.012727	0.230027	0.541828
H48	H	1.500866	0.132308	0.765208
H49	H	1.429124	-0.594286	0.239247
H50	H	1.545511	0.094765	0.986720
H51	H	0.805809	0.188751	0.276497
H52	H	1.021738	0.184053	0.207960
N53	N	1.247416	0.345546	0.852539
H54	H	1.281300	0.404215	0.941565
H55	H	1.204171	0.381869	0.788940
N56	N	1.474238	-0.144973	0.035734
H57	H	1.548332	-0.103821	0.062914
H58	H	1.488680	-0.209645	-0.063202
N59	N	0.808030	0.240139	0.647738
H60	H	0.899767	0.242669	0.651352
H61	H	0.764151	0.314190	0.718970
N62	N	1.374061	-0.112323	0.652702
H63	H	1.455818	-0.097088	0.629018
H64	H	1.306184	-0.085414	0.598170
N65	N	1.336299	-0.196907	0.869587
H66	H	1.325376	-0.240157	0.929346
H67	H	1.408635	-0.154278	0.907814
H68	H	1.349053	-0.425479	0.755014
