data_functionalizedCrystal
_audit_creation_method	'MofGen! by Chris Wilmer'
_symmetry_space_group_name_H-M	'P1'
_symmetry_Int_Tables_number	1
_symmetry_cell_setting	triclinic
loop_
_symmetry_equiv_pos_as_xyz
  x,y,z
_cell_length_a	12.594517
_cell_length_b	12.594516
_cell_length_c	12.759393
_cell_angle_alpha	89.970826
_cell_angle_beta	89.978044
_cell_angle_gamma	90.015853
loop_
_atom_site_label
_atom_site_type_symbol
_atom_site_fract_x
_atom_site_fract_y
_atom_site_fract_z
Zn1	Zn	1.627274	-0.423684	-0.594097
Zn2	Zn	2.127274	0.076316	-0.094097
Zn3	Zn	1.627162	-0.601704	-0.418425
Zn4	Zn	2.127162	-0.101704	0.081575
Zn5	Zn	1.449275	-0.423739	-0.418426
Zn6	Zn	1.949275	0.076261	0.081574
Zn7	Zn	1.449260	-0.601621	-0.594056
Zn8	Zn	1.949260	-0.101621	-0.094056
O9	O	1.538243	-0.512687	-0.506251
O10	O	2.038243	-0.012687	-0.006251
O11	O	1.776205	-0.447311	-0.570811
O12	O	2.276205	0.052689	-0.070811
O13	O	1.603526	-0.578154	-0.271404
O14	O	2.103526	-0.078154	0.228596
O15	O	1.472940	-0.274786	-0.441747
O16	O	1.972940	0.225214	0.058253
O17	O	1.776123	-0.578101	-0.441745
O18	O	2.276123	-0.078101	0.058255
O19	O	1.603715	-0.274746	-0.570812
O20	O	2.103715	0.225254	-0.070812
O21	O	1.472833	-0.447404	-0.271405
O22	O	1.972833	0.052596	0.228595
O23	O	1.300328	-0.447324	-0.441707
O24	O	1.800328	0.052676	0.058293
O25	O	1.472913	-0.577959	-0.741082
O26	O	1.972913	-0.077959	-0.241082
O27	O	1.300316	-0.578012	-0.570741
O28	O	1.800316	-0.078012	-0.070741
O29	O	1.603700	-0.447230	-0.741113
O30	O	2.103700	0.052770	-0.241113
O31	O	1.603510	-0.750639	-0.441705
O32	O	2.103510	-0.250639	0.058295
O33	O	1.472806	-0.750578	-0.570740
O34	O	1.972806	-0.250578	-0.070740
C35	C	1.261702	-0.512666	-0.506220
C36	C	1.761702	-0.012666	-0.006220
C37	C	1.143396	-0.512682	-0.506232
C38	C	1.643396	-0.012682	-0.006232
C39	C	1.074119	-0.441504	-0.436184
C40	C	1.574119	0.058496	0.063816
C41	C	1.003307	-0.538594	-0.410346
C42	C	1.503307	-0.038594	0.089654
C43	C	1.003409	-0.415640	-0.532088
C44	C	1.503409	0.084360	-0.032088
C45	C	1.074143	-0.609823	-0.480343
C46	C	1.574143	-0.109823	0.019657
C47	C	1.074251	-0.486804	-0.602130
C48	C	1.574251	0.013196	-0.102130
C49	C	1.003472	-0.583961	-0.576328
C50	C	1.503472	-0.083961	-0.076328
C51	C	1.538173	-0.789228	-0.506241
C52	C	2.038173	-0.289228	-0.006241
C53	C	1.538241	-0.907533	-0.506271
C54	C	2.038241	-0.407533	-0.006271
C55	C	1.467144	-0.976792	-0.576404
C56	C	1.967144	-0.476792	-0.076404
C57	C	1.441209	-1.047662	-0.480536
C58	C	1.941209	-0.547662	0.019464
C59	C	1.564272	-1.047462	-0.602156
C60	C	2.064272	-0.547462	-0.102156
C61	C	1.512255	-0.976846	-0.410353
C62	C	2.012255	-0.476846	0.089647
C63	C	1.635363	-0.976639	-0.532037
C64	C	2.135363	-0.476639	-0.032037
C65	C	1.609465	-1.047477	-0.436103
C66	C	2.109465	-0.547477	0.063897
C67	C	1.815864	-0.512709	-0.506283
C68	C	2.315864	-0.012709	-0.006283
C69	C	1.934169	-0.512719	-0.506296
C70	C	2.434169	-0.012719	-0.006296
C71	C	1.538317	-0.512579	-0.780284
C72	C	2.038317	-0.012579	-0.280284
C73	C	1.538349	-0.512534	-0.897061
C74	C	2.038349	-0.012534	-0.397061
C75	C	1.538342	-0.235066	-0.506284
C76	C	2.038342	0.264934	-0.006284
C77	C	1.538384	-0.116761	-0.506299
C78	C	2.038384	0.383239	-0.006299
C79	C	1.470322	-0.444440	-0.951923
C80	C	1.970322	0.055560	-0.451923
C81	C	1.470346	-0.444407	-1.061647
C82	C	1.970346	0.055593	-0.561647
C83	C	1.606435	-0.580565	-1.061638
C84	C	2.106435	-0.080565	-0.561638
C85	C	1.606404	-0.580602	-0.951916
C86	C	2.106404	-0.080602	-0.451916
C87	C	1.538230	-0.512717	-0.233284
C88	C	2.038230	-0.012717	0.266716
C89	C	1.538405	-0.512464	-0.116507
C90	C	2.038405	-0.012464	0.383493
H91	H	0.972148	-0.560505	-0.329274
H92	H	1.472148	-0.060505	0.170726
H93	H	0.972282	-0.333568	-0.553894
H94	H	1.472282	0.166432	-0.053894
H95	H	1.717412	-0.945422	-0.553853
H96	H	2.217412	-0.445422	-0.053853
C97	C	1.395517	-0.369492	-1.121990
C98	C	1.895517	0.130508	-0.621990
N99	N	1.339153	-0.313061	-1.167440
N100	N	1.839153	0.186939	-0.667440
C101	C	1.690770	-1.089152	-0.355903
C102	C	2.190770	-0.589152	0.144097
N103	N	1.752004	-1.120545	-0.295494
N104	N	2.252004	-0.620545	0.204506
C105	C	1.115940	-0.720744	-0.450701
C106	C	1.615940	-0.220744	0.049299
N107	N	1.147424	-0.804287	-0.428369
N108	N	1.647424	-0.304287	0.071631
C109	C	1.681058	-0.655669	-1.121988
C110	C	2.181058	-0.155669	-0.621988
N111	N	1.737182	-0.712322	-1.167442
N112	N	2.237182	-0.212322	-0.667442
C113	C	1.593940	-1.089368	-0.711687
C114	C	2.093940	-0.589368	-0.211687
N115	N	1.616278	-1.120927	-0.794189
N116	N	2.116278	-0.620927	-0.294189
C117	C	1.385774	-0.934850	-0.656407
C118	C	1.885774	-0.434850	-0.156407
N119	N	1.324485	-0.903256	-0.716658
N120	N	1.824485	-0.403256	-0.216658
C121	C	1.681263	-0.655495	-0.891564
C122	C	2.181263	-0.155495	-0.391564
N123	N	1.737649	-0.711897	-0.846107
N124	N	2.237649	-0.211897	-0.346107
H125	H	0.972647	-0.644240	-0.635593
H126	H	1.472647	-0.144240	-0.135593
C127	C	1.116035	-0.360268	-0.356060
C128	C	1.616035	0.139732	0.143940
N129	N	1.147608	-0.299087	-0.295709
N130	N	1.647608	0.200913	0.204291
C131	C	1.116392	-0.457158	-0.711619
C132	C	1.616392	0.042842	-0.211619
N133	N	1.148138	-0.434816	-0.794085
N134	N	1.648138	0.065184	-0.294085
H135	H	1.359141	-1.078882	-0.458766
H136	H	1.859141	-0.578882	0.041234
C137	C	1.482455	-0.935117	-0.300791
C138	C	1.982455	-0.435117	0.199209
N139	N	1.460004	-0.903684	-0.218272
N140	N	1.960004	-0.403684	0.281728
C141	C	1.395450	-0.369571	-0.891587
C142	C	1.895450	0.130429	-0.391587
N143	N	1.339052	-0.313181	-0.846145
N144	N	1.839052	0.186819	-0.346145
