data_functionalizedCrystal
_audit_creation_method	'MofGen! by Chris Wilmer'
_symmetry_space_group_name_H-M	'P1'
_symmetry_Int_Tables_number	1
_symmetry_cell_setting	triclinic
loop_
_symmetry_equiv_pos_as_xyz
  x,y,z
_cell_length_a	18.050591
_cell_length_b	19.121063
_cell_length_c	18.050582
_cell_angle_alpha	87.584968
_cell_angle_beta	90.020922
_cell_angle_gamma	92.465257
loop_
_atom_site_label
_atom_site_type_symbol
_atom_site_fract_x
_atom_site_fract_y
_atom_site_fract_z
Zn1	Zn	1.122676	-0.279734	0.432630
Zn2	Zn	1.117290	-0.397178	0.313729
Zn3	Zn	0.998495	-0.279737	0.308441
Zn4	Zn	0.993148	-0.397141	0.437863
O5	O	1.057903	-0.338447	0.373166
O6	O	1.225886	-0.295327	0.416880
O7	O	1.101515	-0.381616	0.209104
O8	O	1.019460	-0.181452	0.320512
O9	O	1.221929	-0.381613	0.329524
O10	O	1.110695	-0.181449	0.411753
O11	O	1.014237	-0.295332	0.205219
O12	O	0.893862	-0.295296	0.325586
O13	O	1.010347	-0.381550	0.541093
O14	O	0.889934	-0.381552	0.420672
O15	O	1.105510	-0.295291	0.537248
O16	O	1.096331	-0.495458	0.334599
O17	O	1.005124	-0.495430	0.425799
C18	C	0.864952	-0.338421	0.373123
C19	C	0.782406	-0.338427	0.373124
C20	C	0.585072	-0.291466	0.321528
C21	C	0.532763	-0.355526	0.306137
C22	C	0.631274	-0.338448	0.373158
C23	C	0.536500	-0.274410	0.388548
C24	C	0.485288	-0.338463	0.373190
C25	C	0.580051	-0.402542	0.357733
C26	C	0.583794	-0.321383	0.440174
C27	C	0.531506	-0.385487	0.424811
C28	C	0.715373	-0.338439	0.373138
C29	C	0.401191	-0.338480	0.373211
C30	C	1.049583	-0.520928	0.381357
C31	C	1.046092	-0.598994	0.384886
C32	C	1.091975	-0.635661	0.339100
C33	C	1.088695	-0.709012	0.342424
C34	C	1.039529	-0.745696	0.391530
C35	C	0.993644	-0.709024	0.437321
C36	C	0.996928	-0.635674	0.434001
C37	C	1.027241	-0.967166	0.403932
C38	C	1.023960	-1.040521	0.407247
C39	C	1.119012	-1.040504	0.312351
C40	C	1.122288	-0.967153	0.309032
C41	C	1.076406	-0.930487	0.354825
C42	C	1.036174	-0.820673	0.394927
C43	C	1.079765	-0.855512	0.351432
C44	C	1.251607	-0.338474	0.373208
C45	C	1.334152	-0.338485	0.373227
C46	C	1.057933	-0.338416	0.566870
C47	C	1.057946	-0.338403	0.649415
C48	C	1.066275	-0.155254	0.364959
C49	C	1.069843	-0.077188	0.361461
C50	C	1.057917	-0.338428	0.180213
C51	C	1.058057	-0.338243	0.097659
C52	C	1.006237	-0.385246	0.850954
C53	C	1.073218	-0.402419	0.901126
C54	C	1.057985	-0.338349	0.800543
C55	C	0.991042	-0.321157	0.897452
C56	C	1.058017	-0.338299	0.946526
C57	C	1.125000	-0.355556	0.849629
C58	C	1.042780	-0.274264	0.845950
C59	C	1.109809	-0.291412	0.896099
C60	C	1.057966	-0.338380	0.716446
C61	C	1.058044	-0.338268	1.030621
H62	H	0.510374	-0.369971	0.249476
C63	C	0.605706	-0.474725	0.340278
C64	C	0.683306	-0.473862	0.340417
C65	C	0.706967	-0.540340	0.324329
H66	H	0.586992	-0.508188	0.376719
H67	H	0.587839	-0.486937	0.292818
H68	H	0.701165	-0.461659	0.387870
H69	H	0.702039	-0.440413	0.303976
H70	H	0.689100	-0.552552	0.276869
H71	H	0.688248	-0.573798	0.360772
H72	H	0.759621	-0.539762	0.324414
H73	H	0.508190	-0.425270	0.468489
H74	H	1.156368	-1.070365	0.275069
H75	H	0.996142	-0.850549	0.434907
C76	C	0.947922	-0.438252	0.824574
C77	C	0.912112	-0.471627	0.886012
C78	C	0.858399	-0.520467	0.861739
H79	H	0.912629	-0.414902	0.794572
H80	H	0.971075	-0.472103	0.796442
H81	H	0.888958	-0.437781	0.914132
H82	H	0.947385	-0.494991	0.916020
H83	H	0.881552	-0.554318	0.833608
H84	H	0.823111	-0.497111	0.831738
H85	H	0.834100	-0.543123	0.903421
H86	H	0.983931	-1.070387	0.447248
H87	H	0.606202	-0.306918	0.496817
C88	C	0.510968	-0.202131	0.405789
C89	C	0.538186	-0.153154	0.351553
C90	C	0.514692	-0.086561	0.367409
H91	H	0.458324	-0.202664	0.406108
H92	H	0.529227	-0.189642	0.453019
H93	H	0.519924	-0.165639	0.304336
H94	H	0.590828	-0.152598	0.351226
H95	H	0.532951	-0.074072	0.414638
H96	H	0.462048	-0.087102	0.367728
H97	H	0.533161	-0.053321	0.330617
C98	C	1.025734	-0.202028	0.813690
C99	C	1.085449	-0.175719	0.769893
C100	C	1.069768	-0.109174	0.740169
H101	H	0.982309	-0.205297	0.784080
H102	H	1.018028	-0.171457	0.852851
H103	H	1.093147	-0.206282	0.730737
H104	H	1.128881	-0.172433	0.799486
H105	H	1.062062	-0.078603	0.779330
H106	H	1.026342	-0.112450	0.710563
H107	H	1.110285	-0.091312	0.710455
C108	C	1.138448	-0.748974	0.292794
C109	C	1.094628	-0.791232	0.247074
C110	C	1.140466	-0.828088	0.201406
H111	H	1.168270	-0.716753	0.263001
H112	H	1.169439	-0.777543	0.322626
H113	H	1.063650	-0.762664	0.217245
H114	H	1.064808	-0.823465	0.276846
H115	H	1.171457	-0.856658	0.231238
H116	H	1.170285	-0.795863	0.171619
H117	H	1.110741	-0.856769	0.170385
C118	C	0.977328	-0.927491	0.453671
C119	C	0.933550	-0.975319	0.497364
C120	C	0.887547	-0.938793	0.543183
H121	H	1.006906	-0.898833	0.484832
H122	H	0.946229	-0.898934	0.423946
H123	H	0.964645	-1.003863	0.527086
H124	H	0.903957	-1.003978	0.466222
H125	H	0.856448	-0.910237	0.513458
H126	H	0.917131	-0.910136	0.574340
H127	H	0.857834	-0.971239	0.572829
C128	C	0.616489	-0.238557	0.263321
C129	C	0.694037	-0.238781	0.264510
C130	C	0.723004	-0.190048	0.210906
H131	H	0.599070	-0.250743	0.215704
H132	H	0.600963	-0.193155	0.273778
H133	H	0.709557	-0.284172	0.254048
H134	H	0.711476	-0.226588	0.312115
H135	H	0.707478	-0.144646	0.221364
H136	H	0.705580	-0.202238	0.163293
H137	H	0.775623	-0.190188	0.211711
C138	C	0.940379	-0.748940	0.490684
C139	C	0.980513	-0.791010	0.540217
C140	C	0.931467	-0.827796	0.589378
H141	H	0.913502	-0.716677	0.517553
H142	H	0.906767	-0.777632	0.463559
H143	H	1.014112	-0.762320	0.567339
H144	H	1.007387	-0.823285	0.513369
H145	H	0.897855	-0.856488	0.562253
H146	H	0.904593	-0.795528	0.616242
H147	H	0.958690	-0.856349	0.622988
C148	C	0.947027	-0.595988	0.483748
C149	C	0.903253	-0.643812	0.527452
C150	C	0.857273	-0.607280	0.573287
H151	H	0.976619	-0.567336	0.514903
H152	H	0.915924	-0.567426	0.454035
H153	H	0.934352	-0.672362	0.557163
H154	H	0.873646	-0.672465	0.496318
H155	H	0.826170	-0.578718	0.543574
H156	H	0.886871	-0.578629	0.604437
H157	H	0.827562	-0.639723	0.602941
C158	C	1.090413	-0.474593	0.933467
C159	C	1.090876	-0.473428	1.010971
C160	C	1.106715	-0.539900	1.040788
H161	H	1.053623	-0.507939	0.918149
H162	H	1.137643	-0.487123	0.916445
H163	H	1.043652	-0.460906	1.027986
H164	H	1.127666	-0.440096	1.026310
H165	H	1.153946	-0.552431	1.023766
H166	H	1.069923	-0.573241	1.025464
H167	H	1.107038	-0.539117	1.093377
C168	C	1.200462	-0.375143	0.821681
C169	C	1.192419	-0.435926	0.781288
C170	C	1.261916	-0.453998	0.755538
H171	H	1.221099	-0.337953	0.790634
H172	H	1.232422	-0.383373	0.862667
H173	H	1.160470	-0.427693	0.740307
H174	H	1.171793	-0.473130	0.812319
H175	H	1.293876	-0.462229	0.796524
H176	H	1.282548	-0.416804	0.724494
H177	H	1.256469	-0.495245	0.728134
C178	C	1.168352	-0.238595	0.922410
C179	C	1.238296	-0.256893	0.898097
C180	C	1.292246	-0.208264	0.922330
H181	H	1.158045	-0.193198	0.902718
H182	H	1.167819	-0.238602	0.975040
H183	H	1.238828	-0.256879	0.845477
H184	H	1.248627	-0.302282	0.917786
H185	H	1.291713	-0.208270	0.974961
H186	H	1.281932	-0.162870	0.902637
H187	H	1.339710	-0.220676	0.905844
C188	C	0.915581	-0.301835	0.925646
C189	C	0.916793	-0.301465	1.003186
C190	C	0.847288	-0.283684	1.029183
H191	H	0.904344	-0.256641	0.906048
H192	H	0.878847	-0.335229	0.910288
H193	H	0.953516	-0.268072	1.018537
H194	H	0.928018	-0.346651	1.022804
H195	H	0.810554	-0.317078	1.013825
H196	H	0.836057	-0.238491	1.009580
H197	H	0.848099	-0.283436	1.081796
C198	C	1.145430	-0.595963	0.285759
C199	C	1.184924	-0.643778	0.246388
C200	C	1.234183	-0.607236	0.197250
H201	H	1.118405	-0.567386	0.252012
H202	H	1.179092	-0.567324	0.312887
H203	H	1.151267	-0.672404	0.219261
H204	H	1.211965	-0.672356	0.280115
H205	H	1.267845	-0.578597	0.224378
H206	H	1.207151	-0.578660	0.163508
H207	H	1.260990	-0.639672	0.170536
H208	H	1.162323	-0.937286	0.269045
H209	H	1.119799	-0.825642	0.311452
