data_functionalizedCrystal
_audit_creation_method	'MofGen! by Chris Wilmer'
_symmetry_space_group_name_H-M	'P1'
_symmetry_Int_Tables_number	1
_symmetry_cell_setting	triclinic
loop_
_symmetry_equiv_pos_as_xyz
  x,y,z
_cell_length_a	23.532407
_cell_length_b	23.532407
_cell_length_c	10.268362
_cell_angle_alpha	89.986236
_cell_angle_beta	89.999248
_cell_angle_gamma	97.151287
loop_
_atom_site_label
_atom_site_type_symbol
_atom_site_fract_x
_atom_site_fract_y
_atom_site_fract_z
O1	O	0.755260	-0.069135	0.108161
O2	O	1.005260	0.180865	0.358161
O3	O	1.255260	0.430865	0.608161
O4	O	1.505260	0.680865	0.858161
O5	O	0.589396	-0.079138	0.108203
O6	O	0.839396	0.170862	0.358203
O7	O	1.089396	0.420862	0.608203
O8	O	1.339396	0.670862	0.858203
O9	O	0.677329	0.008795	0.108144
O10	O	0.927329	0.258795	0.358144
O11	O	1.177329	0.508795	0.608144
O12	O	1.427329	0.758795	0.858144
O13	O	0.667326	-0.157069	0.108220
O14	O	0.917326	0.092931	0.358220
O15	O	1.167326	0.342931	0.608220
O16	O	1.417326	0.592931	0.858220
O17	O	0.677322	0.008798	-0.108456
O18	O	0.927322	0.258798	0.141544
O19	O	1.177322	0.508798	0.391544
O20	O	1.427322	0.758798	0.641544
O21	O	0.589389	-0.079135	-0.108398
O22	O	0.839389	0.170865	0.141602
O23	O	1.089389	0.420865	0.391602
O24	O	1.339389	0.670865	0.641602
O25	O	0.755252	-0.069132	-0.108439
O26	O	1.005252	0.180868	0.141561
O27	O	1.255252	0.430868	0.391561
O28	O	1.505252	0.680868	0.641561
Cu29	Cu	0.672320	-0.074133	-0.128196
Cu30	Cu	0.922320	0.175867	0.121804
Cu31	Cu	1.172320	0.425867	0.371804
Cu32	Cu	1.422320	0.675867	0.621804
Cu33	Cu	0.672329	-0.074137	0.127960
Cu34	Cu	0.922329	0.175863	0.377960
Cu35	Cu	1.172329	0.425863	0.627960
Cu36	Cu	1.422329	0.675863	0.877960
O37	O	0.667319	-0.157065	-0.108381
O38	O	0.917319	0.092935	0.141619
O39	O	1.167319	0.342935	0.391619
O40	O	1.417319	0.592935	0.641619
C41	C	0.568176	-0.078882	-0.000093
C42	C	0.818176	0.171118	0.249907
C43	C	1.068176	0.421118	0.499907
C44	C	1.318176	0.671118	0.749907
C45	C	0.504959	-0.078116	-0.000078
C46	C	0.754959	0.171884	0.249922
C47	C	1.004959	0.421884	0.499922
C48	C	1.254959	0.671884	0.749922
C49	C	0.105856	-0.125350	-0.000116
C50	C	0.355856	0.124650	0.249884
C51	C	0.605856	0.374650	0.499884
C52	C	0.855856	0.624650	0.749884
C53	C	0.046456	-0.124638	-0.000124
C54	C	0.296456	0.125362	0.249876
C55	C	0.546456	0.375362	0.499876
C56	C	0.796456	0.625362	0.749876
O57	O	0.009711	-0.168424	-0.000152
O58	O	0.259711	0.081576	0.249848
O59	O	0.509711	0.331576	0.499848
O60	O	0.759711	0.581576	0.749848
N61	N	0.023830	-0.072362	-0.000146
N62	N	0.273830	0.177638	0.249854
N63	N	0.523830	0.427638	0.499854
N64	N	0.773830	0.677638	0.749854
C65	C	0.060607	-0.020794	-0.000172
C66	C	0.310607	0.229206	0.249828
C67	C	0.560607	0.479206	0.499828
C68	C	0.810607	0.729206	0.749828
O69	O	0.035908	0.023737	-0.000193
O70	O	0.285908	0.273737	0.249807
O71	O	0.535908	0.523737	0.499807
O72	O	0.785908	0.773737	0.749807
C73	C	0.120006	-0.021506	-0.000173
C74	C	0.370006	0.228494	0.249827
C75	C	0.620006	0.478494	0.499827
C76	C	0.870006	0.728494	0.749827
C77	C	0.142629	-0.073785	-0.000139
C78	C	0.392629	0.176215	0.249861
C79	C	0.642629	0.426215	0.499861
C80	C	0.892629	0.676215	0.749861
C81	C	0.128480	-0.177625	-0.000082
C82	C	0.378480	0.072375	0.249918
C83	C	0.628480	0.322375	0.499918
C84	C	0.878480	0.572375	0.749918
C85	C	0.187876	-0.178336	-0.000072
C86	C	0.437876	0.071664	0.249928
C87	C	0.687876	0.321664	0.499928
C88	C	0.937876	0.571664	0.749928
C89	C	0.224649	-0.126772	-0.000094
C90	C	0.474649	0.123228	0.249906
C91	C	0.724649	0.373228	0.499906
C92	C	0.974649	0.623228	0.749906
C93	C	0.202025	-0.074496	-0.000128
C94	C	0.452025	0.175504	0.249872
C95	C	0.702025	0.425504	0.499872
C96	C	0.952025	0.675504	0.749872
C97	C	0.156783	0.030062	-0.000209
C98	C	0.406783	0.280062	0.249791
C99	C	0.656783	0.530062	0.499791
C100	C	0.906783	0.780062	0.749791
C101	C	0.216185	0.029345	-0.000211
C102	C	0.466185	0.279345	0.249789
C103	C	0.716185	0.529345	0.499789
C104	C	0.966185	0.779345	0.749789
C105	C	0.238808	-0.022934	-0.000176
C106	C	0.488808	0.227066	0.249824
C107	C	0.738808	0.477066	0.499824
C108	C	0.988808	0.727066	0.749824
C109	C	0.298194	-0.023643	-0.000140
C110	C	0.548194	0.226357	0.249860
C111	C	0.798194	0.476357	0.499860
C112	C	1.048194	0.726357	0.749860
N113	N	0.320821	-0.075920	-0.000118
N114	N	0.570821	0.174080	0.249882
N115	N	0.820821	0.424080	0.499882
N116	N	1.070821	0.674080	0.749882
C117	C	0.284048	-0.127484	-0.000095
C118	C	0.534048	0.122516	0.249905
C119	C	0.784048	0.372516	0.499905
C120	C	1.034048	0.622516	0.749905
C121	C	-0.064135	-0.019302	-0.000173
C122	C	0.185865	0.230698	0.249827
C123	C	0.435865	0.480698	0.499827
C124	C	0.685865	0.730698	0.749827
C125	C	-0.123533	-0.018589	-0.000162
C126	C	0.126467	0.231411	0.249838
C127	C	0.376467	0.481411	0.499838
C128	C	0.626467	0.731411	0.749838
C129	C	-0.137680	-0.122434	-0.000116
C130	C	0.112320	0.127566	0.249884
C131	C	0.362320	0.377566	0.499884
C132	C	0.612320	0.627566	0.749884
C133	C	-0.078281	-0.123146	-0.000117
C134	C	0.171719	0.126854	0.249883
C135	C	0.421719	0.376854	0.499883
C136	C	0.671719	0.626854	0.749883
C137	C	-0.041509	-0.071578	-0.000151
C138	C	0.208491	0.178422	0.249849
C139	C	0.458491	0.428422	0.499849
C140	C	0.708491	0.678422	0.749849
C141	C	0.408784	-0.128974	-0.000072
C142	C	0.658784	0.121026	0.249928
C143	C	0.908784	0.371026	0.499928
C144	C	1.158784	0.621026	0.749928
C145	C	0.468186	-0.129680	-0.000056
C146	C	0.718186	0.120320	0.249944
C147	C	0.968186	0.370320	0.499944
C148	C	1.218186	0.620320	0.749944
C149	C	0.482329	-0.025836	-0.000108
C150	C	0.732329	0.224164	0.249892
C151	C	0.982329	0.474164	0.499892
C152	C	1.232329	0.724164	0.749892
C153	C	0.422932	-0.025129	-0.000118
C154	C	0.672932	0.224871	0.249882
C155	C	0.922932	0.474871	0.499882
C156	C	1.172932	0.724871	0.749882
C157	C	0.386160	-0.076702	-0.000104
C158	C	0.636160	0.173298	0.249896
C159	C	0.886160	0.423298	0.499896
C160	C	1.136160	0.673298	0.749896
O161	O	0.334974	0.020119	-0.000118
O162	O	0.584974	0.270119	0.249882
O163	O	0.834974	0.520119	0.499882
O164	O	1.084974	0.770119	0.749882
O165	O	0.308756	-0.172007	-0.000092
O166	O	0.558756	0.077993	0.249908
O167	O	0.808756	0.327993	0.499908
O168	O	1.058756	0.577993	0.749908
C169	C	0.677071	0.030013	-0.000162
C170	C	0.927071	0.280013	0.249838
C171	C	1.177071	0.530013	0.499838
C172	C	1.427071	0.780013	0.749838
C173	C	0.676305	0.093230	-0.000182
C174	C	0.926305	0.343230	0.249818
C175	C	1.176305	0.593230	0.499818
C176	C	1.426305	0.843230	0.749818
C177	C	0.776472	-0.069388	-0.000141
C178	C	1.026472	0.180612	0.249859
C179	C	1.276472	0.430612	0.499859
C180	C	1.526472	0.680612	0.749859
C181	C	0.839689	-0.070154	-0.000146
C182	C	1.089689	0.179846	0.249854
C183	C	1.339689	0.429846	0.499854
C184	C	1.589689	0.679846	0.749854
C185	C	0.667577	-0.178283	-0.000071
C186	C	0.917577	0.071717	0.249929
C187	C	1.167577	0.321717	0.499929
C188	C	1.417577	0.571717	0.749929
C189	C	0.668343	-0.241500	-0.000043
C190	C	0.918343	0.008500	0.249957
C191	C	1.168343	0.258500	0.499957
C192	C	1.418343	0.508500	0.749957
N193	N	0.672317	-0.074130	-0.308362
N194	N	0.922317	0.175870	-0.058362
N195	N	1.172317	0.425870	0.191638
N196	N	1.422317	0.675870	0.441638
C197	C	0.621110	0.359397	-0.000087
C198	C	0.871110	0.609397	0.249913
C199	C	1.121110	0.859397	0.499913
C200	C	1.371110	1.109397	0.749913
C201	C	0.621821	0.299997	-0.000097
C202	C	0.871821	0.549997	0.249903
C203	C	1.121821	0.799997	0.499903
C204	C	1.371821	1.049997	0.749903
O205	O	0.578035	0.263252	-0.000045
O206	O	0.828035	0.513252	0.249955
O207	O	1.078035	0.763252	0.499955
O208	O	1.328035	1.013252	0.749955
N209	N	0.674097	0.277371	-0.000125
N210	N	0.924097	0.527371	0.249875
N211	N	1.174097	0.777371	0.499875
N212	N	1.424097	1.027371	0.749875
C213	C	0.725666	0.314148	-0.000130
C214	C	0.975666	0.564148	0.249870
C215	C	1.225666	0.814148	0.499870
C216	C	1.475666	1.064148	0.749870
O217	O	0.770196	0.289449	-0.000153
O218	O	1.020196	0.539449	0.249847
O219	O	1.270196	0.789449	0.499847
O220	O	1.520196	1.039449	0.749847
C221	C	0.724954	0.373547	-0.000110
C222	C	0.974954	0.623547	0.249890
C223	C	1.224954	0.873547	0.499890
C224	C	1.474954	1.123547	0.749890
C225	C	0.672674	0.396170	-0.000095
C226	C	0.922674	0.646170	0.249905
C227	C	1.172674	0.896170	0.499905
C228	C	1.422674	1.146170	0.749905
C229	C	0.568834	0.382020	-0.000071
C230	C	0.818834	0.632020	0.249929
C231	C	1.068834	0.882020	0.499929
C232	C	1.318834	1.132020	0.749929
C233	C	0.568123	0.441417	-0.000063
C234	C	0.818123	0.691417	0.249937
C235	C	1.068123	0.941417	0.499937
C236	C	1.318123	1.191417	0.749937
C237	C	0.619687	0.478189	-0.000071
C238	C	0.869687	0.728189	0.249929
C239	C	1.119687	0.978189	0.499929
C240	C	1.369687	1.228189	0.749929
C241	C	0.671963	0.455566	-0.000088
C242	C	0.921963	0.705566	0.249912
C243	C	1.171963	0.955566	0.499912
C244	C	1.421963	1.205566	0.749912
C245	C	0.776521	0.410324	-0.000106
C246	C	1.026521	0.660324	0.249894
C247	C	1.276521	0.910324	0.499894
C248	C	1.526521	1.160324	0.749894
C249	C	0.775805	0.469726	-0.000085
C250	C	1.025805	0.719726	0.249915
C251	C	1.275805	0.969726	0.499915
C252	C	1.525805	1.219726	0.749915
C253	C	0.723525	0.492349	-0.000070
C254	C	0.973525	0.742349	0.249930
C255	C	1.223525	0.992349	0.499930
C256	C	1.473525	1.242349	0.749930
C257	C	0.722816	0.551735	-0.000088
C258	C	0.972816	0.801735	0.249912
C259	C	1.222816	1.051735	0.499912
C260	C	1.472816	1.301735	0.749912
N261	N	0.670539	0.574361	-0.000060
N262	N	0.920539	0.824361	0.249940
N263	N	1.170539	1.074361	0.499940
N264	N	1.420539	1.324361	0.749940
C265	C	0.618975	0.537589	-0.000052
C266	C	0.868975	0.787589	0.249948
C267	C	1.118975	1.037589	0.499948
C268	C	1.368975	1.287589	0.749948
C269	C	0.727157	0.189406	-0.000169
C270	C	0.977157	0.439406	0.249831
C271	C	1.227157	0.689406	0.499831
C272	C	1.477157	0.939406	0.749831
C273	C	0.727870	0.130008	-0.000197
C274	C	0.977870	0.380008	0.249803
C275	C	1.227870	0.630008	0.499803
C276	C	1.477870	0.880008	0.749803
C277	C	0.624025	0.115861	-0.000162
C278	C	0.874025	0.365861	0.249838
C279	C	1.124025	0.615861	0.499838
C280	C	1.374025	0.865861	0.749838
C281	C	0.623313	0.175260	-0.000143
C282	C	0.873313	0.425260	0.249857
C283	C	1.123313	0.675260	0.499857
C284	C	1.373313	0.925260	0.749857
C285	C	0.674881	0.212032	-0.000140
C286	C	0.924881	0.462032	0.249860
C287	C	1.174881	0.712032	0.499860
C288	C	1.424881	0.962032	0.749860
C289	C	0.617486	0.662325	-0.000037
C290	C	0.867486	0.912325	0.249963
C291	C	1.117486	1.162325	0.499963
C292	C	1.367486	1.412325	0.749963
C293	C	0.616779	0.721727	-0.000034
C294	C	0.866779	0.971727	0.249966
C295	C	1.116779	1.221727	0.499966
C296	C	1.366779	1.471727	0.749966
C297	C	0.720623	0.735869	-0.000063
C298	C	0.970623	0.985869	0.249937
C299	C	1.220623	1.235869	0.499937
C300	C	1.470623	1.485869	0.749937
C301	C	0.721330	0.676473	-0.000072
C302	C	0.971330	0.926473	0.249928
C303	C	1.221330	1.176473	0.499928
C304	C	1.471330	1.426473	0.749928
C305	C	0.669757	0.639701	-0.000054
C306	C	0.919757	0.889701	0.249946
C307	C	1.169757	1.139701	0.499946
C308	C	1.419757	1.389701	0.749946
O309	O	0.766579	0.588514	-0.000135
O310	O	1.016579	0.838514	0.249865
O311	O	1.266579	1.088514	0.499865
O312	O	1.516579	1.338514	0.749865
O313	O	0.574452	0.562296	-0.000011
O314	O	0.824452	0.812296	0.249989
O315	O	1.074452	1.062296	0.499989
O316	O	1.324452	1.312296	0.749989
C317	C	0.672326	-0.074136	-0.574032
C318	C	0.922326	0.175864	-0.324032
C319	C	1.172326	0.425864	-0.074032
C320	C	1.422326	0.675864	0.175968
C321	C	0.672319	-0.074134	-0.426194
C322	C	0.922319	0.175866	-0.176194
C323	C	1.172319	0.425866	0.073806
C324	C	1.422319	0.675866	0.323806
N325	N	0.672335	-0.074136	0.308125
N326	N	0.922335	0.175864	0.558125
N327	N	1.172335	0.425864	0.808125
N328	N	1.422335	0.675864	1.058125
H329	H	0.206289	-0.220908	-0.000043
H330	H	0.456289	0.029092	0.249957
H331	H	0.706289	0.279092	0.499957
H332	H	0.956289	0.529092	0.749957
H333	H	0.762606	0.765820	-0.000076
H334	H	1.012606	1.015820	0.249924
H335	H	1.262606	1.265820	0.499924
H336	H	1.512606	1.515820	0.749924
H337	H	-0.167632	-0.164421	-0.000104
H338	H	0.082368	0.085579	0.249896
H339	H	0.332368	0.335579	0.499896
H340	H	0.582368	0.585579	0.749896
N341	N	0.832913	0.385941	-0.000099
N342	N	1.082913	0.635941	0.249901
N343	N	1.332913	0.885941	0.499901
N344	N	1.582913	1.135941	0.749901
H345	H	0.835525	0.361604	0.080194
H346	H	1.085525	0.611604	0.330194
H347	H	1.335525	0.861604	0.580194
H348	H	1.585525	1.111604	0.830194
H349	H	0.835502	0.361652	-0.080447
H350	H	1.085502	0.611652	0.169553
H351	H	1.335502	0.861652	0.419553
H352	H	1.585502	1.111652	0.669553
H353	H	0.525552	0.459830	-0.000039
H354	H	0.775552	0.709830	0.249961
H355	H	1.025552	0.959830	0.499961
H356	H	1.275552	1.209830	0.749961
H357	H	0.575489	0.632392	-0.000022
H358	H	0.825489	0.882392	0.249978
H359	H	1.075489	1.132392	0.499978
H360	H	1.325489	1.382392	0.749978
N361	N	0.513214	0.342363	-0.000058
N362	N	0.763214	0.592363	0.249942
N363	N	1.013214	0.842363	0.499942
N364	N	1.263214	1.092363	0.749942
H365	H	0.479995	0.365718	-0.000044
H366	H	0.729995	0.615718	0.249956
H367	H	0.979995	0.865718	0.499956
H368	H	1.229995	1.115718	0.749956
H369	H	0.511241	0.317425	-0.080365
H370	H	0.761241	0.567425	0.169635
H371	H	1.011241	0.817425	0.419635
H372	H	1.261241	1.067425	0.669635
H373	H	0.246123	0.071339	-0.000240
H374	H	0.496123	0.321339	0.249760
H375	H	0.746123	0.571339	0.499760
H376	H	0.996123	0.821339	0.749760
N377	N	0.777716	0.652068	-0.000110
N378	N	1.027716	0.902068	0.249890
N379	N	1.277716	1.152068	0.499890
N380	N	1.527716	1.402068	0.749890
H381	H	0.810273	0.684379	-0.000120
H382	H	1.060273	0.934379	0.249880
H383	H	1.310273	1.184379	0.499880
H384	H	1.560273	1.434379	0.749880
H385	H	0.780277	0.627724	0.080186
H386	H	1.030277	0.877724	0.330186
H387	H	1.280277	1.127724	0.580186
H388	H	1.530277	1.377724	0.830186
H389	H	0.486602	-0.172255	-0.000027
H390	H	0.736602	0.077745	0.249973
H391	H	0.986602	0.327745	0.499973
H392	H	1.236602	0.577745	0.749973
H393	H	0.580742	0.193674	-0.000136
H394	H	0.830742	0.443674	0.249864
H395	H	1.080742	0.693674	0.499864
H396	H	1.330742	0.943674	0.749864
H397	H	0.378852	-0.170970	-0.000065
H398	H	0.628852	0.079030	0.249935
H399	H	0.878852	0.329030	0.499935
H400	H	1.128852	0.579030	0.749935
N401	N	0.088822	-0.233245	-0.000132
N402	N	0.338822	0.016755	0.249868
N403	N	0.588822	0.266755	0.499868
N404	N	0.838822	0.516755	0.749868
H405	H	0.112177	-0.266464	-0.000135
H406	H	0.362177	-0.016464	0.249865
H407	H	0.612177	0.233536	0.499865
H408	H	0.862177	0.483536	0.749865
H409	H	0.063855	-0.235238	0.080145
H410	H	0.313855	0.014762	0.330145
H411	H	0.563855	0.264762	0.580145
H412	H	0.813855	0.514762	0.830145
N413	N	0.568407	0.076192	-0.000155
N414	N	0.818407	0.326192	0.249845
N415	N	1.068407	0.576192	0.499845
N416	N	1.318407	0.826192	0.749845
H417	H	0.576795	0.035132	-0.000166
H418	H	0.826795	0.285132	0.249834
H419	H	1.076795	0.535132	0.499834
H420	H	1.326795	0.785132	0.749834
H421	H	0.545612	0.083471	0.080151
H422	H	0.795612	0.333471	0.330151
H423	H	1.045612	0.583471	0.580151
H424	H	1.295612	0.833471	0.830151
N425	N	-0.053883	-0.179533	-0.000076
N426	N	0.196117	0.070467	0.249924
N427	N	0.446117	0.320467	0.499924
N428	N	0.696117	0.570467	0.749924
H429	H	-0.086197	-0.212087	-0.000056
H430	H	0.163803	0.037913	0.249944
H431	H	0.413803	0.287913	0.499944
H432	H	0.663803	0.537913	0.749944
H433	H	-0.029547	-0.182094	-0.080371
H434	H	0.220453	0.067906	0.169629
H435	H	0.470453	0.317906	0.419629
H436	H	0.720453	0.567906	0.669629
H437	H	0.770441	0.111594	-0.000230
H438	H	1.020441	0.361594	0.249770
H439	H	1.270441	0.611594	0.499770
H440	H	1.520441	0.861594	0.749770
N441	N	0.782780	0.229066	-0.000181
N442	N	1.032780	0.479066	0.249819
N443	N	1.282780	0.729066	0.499819
N444	N	1.532780	0.979066	0.749819
H445	H	0.816001	0.205714	-0.000205
H446	H	1.066001	0.455714	0.249795
H447	H	1.316001	0.705714	0.499795
H448	H	1.566001	0.955714	0.749795
H449	H	0.784744	0.254031	-0.080473
H450	H	1.034744	0.504031	0.169527
H451	H	1.284744	0.754031	0.419527
H452	H	1.534744	1.004031	0.669527
H453	H	0.817799	0.499664	-0.000076
H454	H	1.067799	0.749664	0.249924
H455	H	1.317799	0.999664	0.499924
H456	H	1.567799	1.249664	0.749924
H457	H	-0.141947	0.023982	-0.000170
H458	H	0.108053	0.273982	0.249830
H459	H	0.358053	0.523982	0.499830
H460	H	0.608053	0.773982	0.749830
N461	N	-0.024480	0.036324	-0.000185
N462	N	0.225520	0.286324	0.249815
N463	N	0.475520	0.536324	0.499815
N464	N	0.725520	0.786324	0.749815
H465	H	0.000479	0.038345	0.080109
H466	H	0.250479	0.288345	0.330109
H467	H	0.500479	0.538345	0.580109
H468	H	0.750479	0.788345	0.830109
H469	H	0.000444	0.038319	-0.080532
H470	H	0.250444	0.288319	0.169468
H471	H	0.500444	0.538319	0.419468
H472	H	0.750444	0.788319	0.669468
N473	N	0.132392	0.086450	-0.000253
N474	N	0.382392	0.336450	0.249747
N475	N	0.632392	0.586450	0.499747
N476	N	0.882392	0.836450	0.749747
H477	H	0.164709	0.119002	-0.000278
H478	H	0.414709	0.369002	0.249722
H479	H	0.664709	0.619002	0.499722
H480	H	0.914709	0.869002	0.749722
H481	H	0.108060	0.089007	-0.080557
H482	H	0.358060	0.339007	0.169443
H483	H	0.608060	0.589007	0.419443
H484	H	0.858060	0.839007	0.669443
H485	H	0.574205	0.740143	-0.000028
H486	H	0.824205	0.990143	0.249972
H487	H	1.074205	1.240143	0.499972
H488	H	1.324205	1.490143	0.749972
N489	N	0.398521	0.031253	-0.000143
N490	N	0.648521	0.281253	0.249857
N491	N	0.898521	0.531253	0.499857
N492	N	1.148521	0.781253	0.749857
H493	H	0.411944	0.053829	0.080143
H494	H	0.661944	0.303829	0.330143
H495	H	0.911944	0.553829	0.580143
H496	H	1.161944	0.803829	0.830143
H497	H	0.411962	0.053784	-0.080498
H498	H	0.661962	0.303784	0.169502
H499	H	0.911962	0.553784	0.419502
H500	H	1.161962	0.803784	0.669502
N501	N	0.521994	0.029779	-0.000140
N502	N	0.771994	0.279779	0.249860
N503	N	1.021994	0.529779	0.499860
N504	N	1.271994	0.779779	0.749860
H505	H	0.546955	0.031799	0.080150
H506	H	0.796955	0.281799	0.330150
H507	H	1.046955	0.531799	0.580150
H508	H	1.296955	0.781799	0.830150
H509	H	0.546916	0.031758	-0.080491
H510	H	0.796916	0.281758	0.169509
H511	H	1.046916	0.531758	0.419509
H512	H	1.296916	0.781758	0.669509
