data_functionalizedCrystal
_audit_creation_method	'MofGen! by Chris Wilmer'
_symmetry_space_group_name_H-M	'P1'
_symmetry_Int_Tables_number	1
_symmetry_cell_setting	triclinic
loop_
_symmetry_equiv_pos_as_xyz
  x,y,z
_cell_length_a	16.120530
_cell_length_b	18.050582
_cell_length_c	16.120484
_cell_angle_alpha	92.874938
_cell_angle_beta	90.167327
_cell_angle_gamma	87.088397
loop_
_atom_site_label
_atom_site_type_symbol
_atom_site_fract_x
_atom_site_fract_y
_atom_site_fract_z
Zn1	Zn	1.254423	-0.494362	-0.395664
Zn2	Zn	1.247279	-0.376125	-0.534710
Zn3	Zn	1.115376	-0.363595	-0.388616
Zn4	Zn	1.108276	-0.493682	-0.527617
O5	O	1.181338	-0.431941	-0.461651
O6	O	1.369840	-0.484206	-0.420027
O7	O	1.229763	-0.270538	-0.515349
O8	O	1.139783	-0.375982	-0.273187
O9	O	1.364591	-0.397338	-0.522183
O10	O	1.241940	-0.472056	-0.278365
O11	O	1.132855	-0.261332	-0.408014
O12	O	0.998069	-0.375323	-0.401136
O13	O	1.127681	-0.597697	-0.510094
O14	O	0.992853	-0.470898	-0.503260
O15	O	1.235055	-0.598196	-0.413149
O16	O	1.222878	-0.396679	-0.650133
O17	O	1.120753	-0.483048	-0.644921
C18	C	0.965289	-0.421677	-0.450664
C19	C	0.872861	-0.417305	-0.445984
C20	C	1.181373	-0.625647	-0.461616
C21	C	1.181388	-0.708193	-0.461601
C22	C	0.703634	-0.409328	-0.437419
C23	C	0.659880	-0.454611	-0.485945
C24	C	0.565716	-0.450173	-0.481180
C25	C	0.797806	-0.413765	-0.442184
C26	C	1.123044	-0.907371	-0.514246
C27	C	1.197880	-0.961229	-0.538426
C28	C	1.181432	-0.859322	-0.461540
C29	C	1.106638	-0.952546	-0.437339
C30	C	1.181468	-1.005306	-0.461482
C31	C	1.256306	-0.912097	-0.485761
C32	C	1.165015	-0.903406	-0.384637
C33	C	1.239905	-0.957244	-0.408790
C34	C	1.181410	-0.775224	-0.461575
C35	C	1.181498	-1.089403	-0.461447
C36	C	1.398232	-0.442245	-0.472682
C37	C	1.490659	-0.446636	-0.477383
C38	C	1.170292	-0.441166	-0.677700
C39	C	1.165642	-0.445142	-0.770130
C40	C	1.181355	-0.238989	-0.461629
C41	C	1.181513	-0.156441	-0.461418
C42	C	1.157158	-0.452414	-0.939362
C43	C	1.205667	-0.411487	-0.983108
C44	C	1.200947	-0.415534	-1.077274
C45	C	1.161878	-0.448369	-0.845187
C46	C	1.192451	-0.422697	-0.244760
C47	C	1.197186	-0.418758	-0.152334
H48	H	0.670377	-0.367229	-0.392301
C49	C	0.704803	-0.511467	-0.546925
H50	H	0.763115	-0.507018	-0.542183
H51	H	0.691271	-0.560221	-0.534156
H52	H	0.687748	-0.502220	-0.602070
H53	H	1.319588	-0.894276	-0.506279
H54	H	1.289351	-0.978998	-0.364196
C55	C	1.056398	-0.877800	-0.574540
H56	H	1.068216	-0.897714	-0.629143
H57	H	1.003364	-0.892292	-0.557905
H58	H	1.056514	-0.825146	-0.573781
C59	C	1.216667	-0.995361	-0.626245
H60	H	1.175119	-0.978279	-0.663649
H61	H	1.269411	-0.980897	-0.643781
H62	H	1.217042	-1.047969	-0.625485
H63	H	1.151084	-0.878129	-0.319643
C64	C	1.021174	-0.976748	-0.409716
H65	H	0.979745	-0.959663	-0.447244
H66	H	1.021946	-1.029390	-0.409402
H67	H	1.009097	-0.956107	-0.355465
H68	H	1.250742	-0.373408	-0.949838
H69	H	1.112086	-0.490489	-0.972629
