data_functionalizedCrystal
_audit_creation_method	'MofGen! by Chris Wilmer'
_symmetry_space_group_name_H-M	'P1'
_symmetry_Int_Tables_number	1
_symmetry_cell_setting	triclinic
loop_
_symmetry_equiv_pos_as_xyz
  x,y,z
_cell_length_a	21.295418
_cell_length_b	21.295417
_cell_length_c	21.295411
_cell_angle_alpha	90.021644
_cell_angle_beta	90.043738
_cell_angle_gamma	90.046319
loop_
_atom_site_label
_atom_site_type_symbol
_atom_site_fract_x
_atom_site_fract_y
_atom_site_fract_z
Zn1	Zn	0.962356	-0.250415	0.356234
Zn2	Zn	1.462356	0.249585	0.856234
Zn3	Zn	0.962258	-0.355667	0.250959
Zn4	Zn	1.462258	0.144333	0.750959
Zn5	Zn	0.857079	-0.250445	0.250943
Zn6	Zn	1.357079	0.249555	0.750943
Zn7	Zn	0.857048	-0.355680	0.356155
Zn8	Zn	1.357048	0.144320	0.856155
O9	O	0.909685	-0.303052	0.303573
O10	O	1.409685	0.196948	0.803573
O11	O	1.050432	-0.264360	0.342308
O12	O	1.550432	0.235640	0.842308
O13	O	0.948278	-0.341716	0.162867
O14	O	1.448278	0.158284	0.662867
O15	O	0.871098	-0.162351	0.264937
O16	O	1.371098	0.337649	0.764937
O17	O	1.050361	-0.341688	0.264963
O18	O	1.550361	0.158312	0.764963
O19	O	0.948444	-0.162330	0.342293
O20	O	1.448444	0.337670	0.842293
O21	O	0.871003	-0.264410	0.162856
O22	O	1.371003	0.235590	0.662856
O23	O	0.768985	-0.264422	0.264861
O24	O	1.268985	0.235578	0.764861
O25	O	0.871046	-0.341709	0.444255
O26	O	1.371046	0.158291	0.944255
O27	O	0.768963	-0.341738	0.342160
O28	O	1.268963	0.158262	0.842160
O29	O	0.948415	-0.264372	0.444313
O30	O	1.448415	0.235628	0.944313
O31	O	0.948248	-0.443758	0.264887
O32	O	1.448248	0.056242	0.764887
O33	O	0.870951	-0.443767	0.342175
O34	O	1.370951	0.056233	0.842175
C35	C	0.746134	-0.303085	0.303500
C36	C	1.246134	0.196915	0.803500
C37	C	0.676166	-0.303114	0.303484
C38	C	1.176166	0.196886	0.803484
C39	C	0.643304	-0.343426	0.343674
C40	C	1.143304	0.156574	0.843674
C41	C	0.577561	-0.343410	0.343702
C42	C	1.077561	0.156590	0.843702
C43	C	0.544683	-0.303090	0.303530
C44	C	1.044683	0.196910	0.803530
C45	C	0.577553	-0.262770	0.263337
C46	C	1.077553	0.237230	0.763337
C47	C	0.643294	-0.262783	0.263315
C48	C	1.143294	0.237217	0.763315
N49	N	0.441407	-0.298163	0.248472
N50	N	0.941407	0.201837	0.748472
N51	N	0.378956	-0.298155	0.248495
N52	N	0.878956	0.201845	0.748495
C53	C	0.346608	-0.303050	0.303596
C54	C	0.846608	0.196950	0.803596
N55	N	0.379072	-0.307965	0.358675
N56	N	0.879072	0.192035	0.858675
N57	N	0.441529	-0.307976	0.358650
N58	N	0.941529	0.192024	0.858650
C59	C	0.473398	-0.303072	0.303550
C60	C	0.973398	0.196928	0.803550
C61	C	0.242461	-0.343346	0.343820
C62	C	0.742461	0.156654	0.843820
C63	C	0.176717	-0.343326	0.343849
C64	C	0.676717	0.156674	0.843849
C65	C	0.176710	-0.262690	0.263479
C66	C	0.676710	0.237310	0.763479
C67	C	0.242453	-0.262707	0.263455
C68	C	0.742453	0.237293	0.763455
C69	C	0.275324	-0.303038	0.303625
C70	C	0.775324	0.196962	0.803625
C71	C	0.909603	-0.466603	0.303538
C72	C	1.409603	0.033397	0.803538
C73	C	0.909625	-0.536571	0.303544
C74	C	1.409625	-0.036571	0.803544
C75	C	0.949910	-0.569412	0.263342
C76	C	1.449910	-0.069412	0.763342
C77	C	0.949939	-0.635155	0.263356
C78	C	1.449939	-0.135155	0.763356
C79	C	0.909673	-0.668054	0.303566
C80	C	1.409673	-0.168054	0.803566
C81	C	0.869386	-0.635205	0.343776
C82	C	1.369386	-0.135205	0.843776
C83	C	0.869362	-0.569464	0.343765
C84	C	1.369362	-0.069464	0.843765
N85	N	0.854606	-0.771336	0.308340
N86	N	1.354606	-0.271336	0.808340
N87	N	0.854630	-0.833787	0.308347
N88	N	1.354630	-0.333787	0.808347
C89	C	0.909743	-0.866129	0.303602
C90	C	1.409743	-0.366129	0.803602
N91	N	0.964832	-0.833659	0.298838
N92	N	1.464832	-0.333659	0.798838
N93	N	0.964807	-0.771202	0.298828
N94	N	1.464807	-0.271202	0.798828
C95	C	0.909695	-0.739339	0.303582
C96	C	1.409695	-0.239339	0.803582
C97	C	0.950063	-0.970255	0.263413
C98	C	1.450063	-0.470255	0.763413
C99	C	0.950094	-1.035999	0.263431
C100	C	1.450094	-0.535999	0.763431
C101	C	0.869535	-1.036048	0.343848
C102	C	1.369535	-0.536048	0.843848
C103	C	0.869510	-0.970305	0.343833
C104	C	1.369510	-0.470305	0.843833
C105	C	0.909773	-0.937413	0.303612
C106	C	1.409773	-0.437413	0.803612
C107	C	1.073876	-0.303019	0.303646
C108	C	1.573876	0.196981	0.803646
C109	C	1.143844	-0.303005	0.303677
C110	C	1.643844	0.196995	0.803677
C111	C	0.909738	-0.303038	0.467763
C112	C	1.409738	0.196962	0.967763
C113	C	0.909760	-0.303033	0.537731
C114	C	1.409760	0.196967	1.037731
C115	C	0.909785	-0.138861	0.303622
C116	C	1.409785	0.361139	0.803622
C117	C	0.909828	-0.068893	0.303642
C118	C	1.409828	0.431107	0.803642
C119	C	0.909670	-0.303019	0.140021
C120	C	1.409670	0.196981	0.640021
C121	C	0.909769	-0.302848	0.070054
C122	C	1.409769	0.197152	0.570054
C123	C	0.950044	-0.262761	0.570629
C124	C	1.450044	0.237239	1.070629
C125	C	0.950043	-0.262734	0.636371
C126	C	1.450043	0.237266	1.136371
C127	C	0.909765	-0.302989	0.669214
C128	C	1.409765	0.197011	1.169214
C129	C	0.869473	-0.343263	0.636308
C130	C	1.369473	0.156737	1.136308
C131	C	0.869470	-0.343285	0.570567
C132	C	1.369470	0.156715	1.070567
N133	N	0.904908	-0.358058	0.772428
N134	N	1.404908	0.141942	1.272428
N135	N	0.904914	-0.358036	0.834879
N136	N	1.404914	0.141964	1.334879
C137	C	0.909769	-0.302926	0.867289
C138	C	1.409769	0.197074	1.367289
N139	N	0.914629	-0.247837	0.834888
N140	N	1.414629	0.252163	1.334888
N141	N	0.914627	-0.247860	0.772430
N142	N	1.414627	0.252140	1.272430
C143	C	0.909763	-0.302970	0.740499
C144	C	1.409763	0.197030	1.240499
C145	C	0.950054	-0.262621	0.971472
C146	C	1.450054	0.237379	1.471472
C147	C	0.950049	-0.262593	1.037216
C148	C	1.450049	0.237407	1.537216
C149	C	0.869482	-0.343128	1.037151
C150	C	1.369482	0.156872	1.537151
C151	C	0.869484	-0.343151	0.971409
C152	C	1.369484	0.156849	1.471409
C153	C	0.909773	-0.302898	0.938573
C154	C	1.409773	0.197102	1.438573
H155	H	0.982696	-0.542633	0.230593
H156	H	1.482696	-0.042633	0.730593
C157	C	0.994249	-0.671288	0.219127
C158	C	1.494249	-0.171288	0.719127
H159	H	1.018221	-0.642282	0.195169
H160	H	1.518221	-0.142282	0.695169
H161	H	1.021675	-0.696892	0.243240
H162	H	1.521675	-0.196892	0.743240
H163	H	0.970180	-0.696973	0.191675
H164	H	1.470180	-0.196973	0.691675
H165	H	0.269226	-0.376183	0.376531
H166	H	0.769226	0.123817	0.876531
H167	H	0.982846	-0.229937	0.663162
H168	H	1.482846	0.270063	1.163162
C169	C	0.825243	-1.072226	0.388081
C170	C	1.325243	-0.572226	0.888081
H171	H	0.801249	-1.043248	0.412025
H172	H	1.301249	-0.543248	0.912025
H173	H	0.797837	-1.097919	0.363974
H174	H	1.297837	-0.597919	0.863974
H175	H	0.849325	-1.097825	0.415547
H176	H	1.349325	-0.597825	0.915547
C177	C	0.140569	-0.387680	0.388051
C178	C	0.640569	0.112320	0.888051
H179	H	0.169564	-0.411707	0.411962
H180	H	0.669564	0.088293	0.911962
H181	H	0.114974	-0.363647	0.415538
H182	H	0.614974	0.136353	0.915538
H183	H	0.114873	-0.415064	0.363914
H184	H	0.614873	0.084936	0.863914
H185	H	0.982857	-0.229842	0.944736
H186	H	1.482857	0.270158	1.444736
C187	C	0.140552	-0.218330	0.219298
C188	C	0.640552	0.281670	0.719298
H189	H	0.096692	-0.224096	0.225067
H190	H	0.596692	0.275904	0.725067
H191	H	0.151384	-0.176054	0.228591
H192	H	0.651384	0.323946	0.728591
H193	H	0.151266	-0.227481	0.176977
H194	H	0.651266	0.272519	0.676977
H195	H	0.836676	-0.376038	0.663053
H196	H	1.336676	0.123962	1.163053
C197	C	0.825093	-0.671391	0.388004
C198	C	1.325093	-0.171391	0.888004
H199	H	0.830872	-0.715248	0.382249
H200	H	1.330872	-0.215248	0.882249
H201	H	0.834280	-0.660585	0.430310
H202	H	1.334280	-0.160585	0.930310
H203	H	0.782796	-0.660670	0.378733
H204	H	1.282796	-0.160670	0.878733
C205	C	0.278606	-0.218369	0.219243
C206	C	0.778606	0.281631	0.719243
H207	H	0.322467	-0.224147	0.224986
H208	H	0.822467	0.275853	0.724986
H209	H	0.267776	-0.227515	0.176934
H210	H	0.767776	0.272485	0.676934
H211	H	0.267884	-0.176083	0.228543
H212	H	0.767884	0.323917	0.728543
H213	H	0.836663	-0.376078	0.543782
H214	H	1.336663	0.123922	1.043782
C215	C	0.825044	-0.533337	0.387986
C216	C	1.325044	-0.033337	0.887986
H217	H	0.801064	-0.562344	0.411935
H218	H	1.301064	-0.062344	0.911935
H219	H	0.849099	-0.507645	0.415438
H220	H	1.349099	-0.007645	0.915438
H221	H	0.797615	-0.507740	0.363861
H222	H	1.297615	-0.007740	0.863861
C223	C	0.994364	-0.218292	1.073403
C224	C	1.494364	0.281708	1.573403
H225	H	1.018361	-0.194329	1.044429
H226	H	1.518361	0.305671	1.544429
H227	H	0.970306	-0.190858	1.099032
H228	H	1.470306	0.309142	1.599032
H229	H	1.021777	-0.242366	1.099068
H230	H	1.521777	0.257634	1.599068
C231	C	0.825180	-0.387412	1.073270
C232	C	1.325180	0.112588	1.573270
H233	H	0.830954	-0.381636	1.117136
H234	H	1.330954	0.118364	1.617136
H235	H	0.782889	-0.378217	1.062467
H236	H	1.282889	0.121783	1.562467
H237	H	0.834376	-0.429710	1.062499
H238	H	1.334376	0.070290	1.562499
C239	C	0.994357	-0.934071	0.219180
C240	C	1.494357	-0.434071	0.719180
H241	H	1.018361	-0.963048	0.195245
H242	H	1.518361	-0.463048	0.695245
H243	H	0.970283	-0.908469	0.191715
H244	H	1.470283	-0.408469	0.691715
H245	H	1.021764	-0.908380	0.243295
H246	H	1.521764	-0.408380	0.743295
C247	C	0.825175	-0.387454	0.935220
C248	C	1.325175	0.112546	1.435220
H249	H	0.801189	-0.411429	0.964193
H250	H	1.301189	0.088571	1.464193
H251	H	0.797762	-0.363388	0.909555
H252	H	1.297762	0.136612	1.409555
H253	H	0.849241	-0.414889	0.909591
H254	H	1.349241	0.085111	1.409591
H255	H	0.670063	-0.376266	0.376384
H256	H	1.170063	0.123734	0.876384
C257	C	0.994409	-1.072124	0.219206
C258	C	1.494409	-0.572124	0.719206
H259	H	1.018378	-1.043116	0.195248
H260	H	1.518378	-0.543116	0.695248
H261	H	1.021837	-1.097724	0.243321
H262	H	1.521837	-0.597724	0.743321
H263	H	0.970345	-1.097813	0.191754
H264	H	1.470345	-0.597813	0.691754
H265	H	0.550779	-0.229940	0.230630
H266	H	1.050779	0.270060	0.730630
C267	C	0.541405	-0.387718	0.387948
C268	C	1.041405	0.112282	0.887948
H269	H	0.570398	-0.411730	0.411878
H270	H	1.070398	0.088270	0.911878
H271	H	0.515832	-0.363640	0.415417
H272	H	1.015832	0.136360	0.915417
H273	H	0.515688	-0.415118	0.363854
H274	H	1.015688	0.084882	0.863854
H275	H	0.670050	-0.229954	0.230588
H276	H	1.170050	0.270046	0.730588
H277	H	0.836704	-0.943564	0.376567
H278	H	1.336704	-0.443564	0.876567
C279	C	0.994356	-0.218481	0.534513
C280	C	1.494356	0.281519	1.034513
H281	H	1.018344	-0.194489	0.563525
H282	H	1.518344	0.305511	1.063525
H283	H	1.021767	-0.242562	0.508884
H284	H	1.521767	0.257438	1.008884
H285	H	0.970288	-0.191062	0.508854
H286	H	1.470288	0.308938	1.008854
