data_functionalizedCrystal
_audit_creation_method	'MofGen! by Chris Wilmer'
_symmetry_space_group_name_H-M	'P1'
_symmetry_Int_Tables_number	1
_symmetry_cell_setting	triclinic
loop_
_symmetry_equiv_pos_as_xyz
  x,y,z
_cell_length_a	11.792241
_cell_length_b	19.188925
_cell_length_c	10.868271
_cell_angle_alpha	90.004780
_cell_angle_beta	90.000107
_cell_angle_gamma	83.667982
loop_
_atom_site_label
_atom_site_type_symbol
_atom_site_fract_x
_atom_site_fract_y
_atom_site_fract_z
O1	O	-1.505473	-0.095695	-0.102202
O2	O	-1.174984	-0.105558	-0.102230
O3	O	-1.349769	0.000975	-0.102208
O4	O	-1.330688	-0.202228	-0.102224
O5	O	-1.349755	0.000980	0.102436
O6	O	-1.174970	-0.105554	0.102414
O7	O	-1.505459	-0.095691	0.102443
Zn8	Zn	-1.340212	-0.100622	0.134920
Zn9	Zn	-1.340231	-0.100627	-0.134708
O10	O	-1.330674	-0.202224	0.102421
C11	C	-1.132695	-0.104936	0.000088
C12	C	-1.006709	-0.103082	0.000078
C13	C	-1.349145	0.026992	0.000113
C14	C	-1.347293	0.104507	0.000110
C15	C	-1.547747	-0.096313	0.000121
C16	C	-1.673733	-0.098167	0.000124
C17	C	-1.331298	-0.228241	0.000097
C18	C	-1.333150	-0.305756	0.000091
C19	C	-0.776048	-0.099672	0.000113
C20	C	-0.904405	-0.101567	0.000094
C21	C	-1.437452	0.665767	0.000087
C22	C	-1.439201	0.592934	0.000098
C23	C	-1.336643	0.548580	0.000089
C24	C	-1.232327	0.577065	0.000100
C25	C	-1.230581	0.649897	0.000101
N26	N	-1.262400	0.428319	-0.069573
N27	N	-1.264067	0.359132	-0.069576
C28	C	-1.341900	0.329141	0.000089
N29	N	-1.418022	0.370952	0.069742
N30	N	-1.416358	0.440145	0.069740
C31	C	-1.338526	0.469605	0.000089
C32	C	-1.448107	0.221691	0.000099
C33	C	-1.449852	0.148856	0.000118
C34	C	-1.242975	0.132988	0.000107
C35	C	-1.241233	0.205822	0.000101
C36	C	-1.343802	0.250169	0.000090
N37	N	-1.340207	-0.100617	0.318934
N38	N	-1.340244	-0.100626	-0.318722
C39	C	-1.340225	-0.100626	0.569940
C40	C	-1.340211	-0.100623	0.430263
H41	H	-1.520971	0.701870	0.000086
H42	H	-1.148824	0.540948	0.000096
C43	C	-1.126491	0.237148	0.000090
N44	N	-1.040062	0.260741	0.000083
C45	C	-1.115835	0.681222	0.000097
N46	N	-1.029407	0.704817	0.000089
H47	H	-1.531625	0.257800	0.000091
C48	C	-1.564599	0.117532	0.000118
N49	N	-1.651029	0.093939	0.000118
H50	H	-1.159471	0.096876	0.000110
H51	H	-1.524139	0.569743	0.000095
