data_functionalizedCrystal
_audit_creation_method	'MofGen! by Chris Wilmer'
_symmetry_space_group_name_H-M	'P1'
_symmetry_Int_Tables_number	1
_symmetry_cell_setting	triclinic
loop_
_symmetry_equiv_pos_as_xyz
  x,y,z
_cell_length_a	14.519731
_cell_length_b	12.996460
_cell_length_c	10.723024
_cell_angle_alpha	89.995205
_cell_angle_beta	84.078361
_cell_angle_gamma	89.993791
loop_
_atom_site_label
_atom_site_type_symbol
_atom_site_fract_x
_atom_site_fract_y
_atom_site_fract_z
O1	O	1.224694	-0.085566	0.163703
O2	O	1.724694	0.414434	0.663703
O3	O	0.956318	-0.085568	0.182938
O4	O	1.456318	0.414432	0.682938
O5	O	1.096696	-0.085563	-0.008313
O6	O	1.596696	0.414437	0.491687
O7	O	1.084315	-0.085571	0.354954
O8	O	1.584315	0.414429	0.854954
O9	O	1.096680	0.085571	-0.008323
O10	O	1.596680	0.585571	0.491677
O11	O	0.956301	0.085566	0.182928
O12	O	1.456301	0.585566	0.682928
O13	O	1.224677	0.085567	0.163693
O14	O	1.724677	0.585567	0.663693
Cu15	Cu	1.090488	0.101193	0.173310
Cu16	Cu	1.590488	0.601193	0.673310
Cu17	Cu	1.090507	-0.101193	0.173321
Cu18	Cu	1.590507	0.398807	0.673321
O19	O	1.084299	0.085563	0.354944
O20	O	1.584299	0.585563	0.854944
C21	C	0.921945	-0.000001	0.182032
C22	C	1.421945	0.499999	0.682032
C23	C	0.819551	-0.000001	0.179331
C24	C	1.319551	0.499999	0.679331
C25	C	0.736396	-0.000006	0.177137
C26	C	1.236396	0.499994	0.677137
C27	C	0.632073	-0.000006	0.174395
C28	C	1.132073	0.499994	0.674395
C29	C	0.548923	-0.000006	0.172218
C30	C	1.048923	0.499994	0.672218
C31	C	0.444594	-0.000008	0.169476
C32	C	0.944594	0.499992	0.669476
N33	N	1.090481	0.243540	0.173301
N34	N	1.590481	0.743540	0.673301
C35	C	1.090499	0.663354	0.173326
C36	C	1.590499	1.163354	0.673326
C37	C	1.090491	0.546549	0.173324
C38	C	1.590491	1.046549	0.673324
C39	C	1.090490	0.453451	0.173315
C40	C	1.590490	0.953451	0.673315
C41	C	1.090482	0.336638	0.173310
C42	C	1.590482	0.836638	0.673310
C43	C	1.259049	-0.000002	0.164599
C44	C	1.759049	0.499998	0.664599
C45	C	1.361443	-0.000008	0.167300
C46	C	1.861443	0.499992	0.667300
C47	C	1.095787	0.000003	-0.054809
C48	C	1.595787	0.500003	0.445191
C49	C	1.093091	-0.000001	-0.193338
C50	C	1.593091	0.499999	0.306662
N51	N	1.090512	0.756460	0.173325
N52	N	1.590512	1.256460	0.673325
C53	C	1.171640	-0.000002	-0.269047
C54	C	1.671640	0.499998	0.230953
C55	C	1.168855	-0.000006	-0.412225
C56	C	1.668855	0.499994	0.087775
C57	C	1.085208	-0.000005	0.401440
C58	C	1.585208	0.499995	0.901440
C59	C	1.087904	-0.000008	0.539970
C60	C	1.587904	0.499992	1.039970
H61	H	1.240949	0.000004	-0.227866
H62	H	1.740949	0.500004	0.272134
H63	H	1.236099	-0.000002	-0.477280
H64	H	1.736099	0.499998	0.022720
O65	O	0.998818	-0.000000	-0.373882
O66	O	1.498818	0.500000	0.126118
H67	H	0.996013	-0.069753	-0.313877
H68	H	1.496013	0.430247	0.186123
O69	O	1.001280	0.000003	-0.247880
O70	O	1.501280	0.500003	0.252120
H71	H	0.961505	-0.069750	-0.215927
H72	H	1.461505	0.430250	0.284073
