data_functionalizedCrystal
_audit_creation_method	'MofGen! by Chris Wilmer'
_symmetry_space_group_name_H-M	'P1'
_symmetry_Int_Tables_number	1
_symmetry_cell_setting	triclinic
loop_
_symmetry_equiv_pos_as_xyz
  x,y,z
_cell_length_a	19.288864
_cell_length_b	17.666332
_cell_length_c	19.288865
_cell_angle_alpha	89.989547
_cell_angle_beta	96.863755
_cell_angle_gamma	90.023099
loop_
_atom_site_label
_atom_site_type_symbol
_atom_site_fract_x
_atom_site_fract_y
_atom_site_fract_z
O1	O	0.921353	0.063200	-0.086648
O2	O	1.421353	0.563200	0.413352
O3	O	0.719092	0.063149	-0.098336
O4	O	1.219092	0.563149	0.401664
O5	O	0.826067	0.063161	0.008638
O6	O	1.326067	0.563161	0.508638
O7	O	0.814378	0.063188	-0.193622
O8	O	1.314378	0.563188	0.306378
O9	O	0.826048	-0.062736	0.008641
O10	O	1.326048	0.437264	0.508641
O11	O	0.719074	-0.062748	-0.098333
O12	O	1.219074	0.437252	0.401667
O13	O	0.921334	-0.062697	-0.086644
O14	O	1.421334	0.437303	0.413356
Cu15	Cu	0.820202	-0.074218	-0.092489
Cu16	Cu	1.320202	0.425782	0.407511
Cu17	Cu	0.820224	0.074670	-0.092492
Cu18	Cu	1.320224	0.574670	0.407508
O19	O	0.814360	-0.062709	-0.193619
O20	O	1.314360	0.437291	0.306381
C21	C	0.693207	0.000194	-0.097959
C22	C	1.193207	0.500194	0.402041
C23	C	0.616103	0.000174	-0.096830
C24	C	1.116103	0.500174	0.403170
N25	N	0.820192	-0.178937	-0.092486
N26	N	1.320192	0.321063	0.407514
C27	C	0.571407	0.000194	-0.159598
C28	C	1.071407	0.500194	0.340402
C29	C	0.498960	0.000203	-0.158537
C30	C	0.998960	0.500203	0.341463
C31	C	0.471212	0.000206	-0.094705
C32	C	0.971212	0.500206	0.405295
C33	C	0.515918	0.000181	-0.031929
C34	C	1.015918	0.500181	0.468071
C35	C	0.588364	0.000165	-0.032991
C36	C	1.088364	0.500165	0.467009
C37	C	0.362957	0.044332	-0.044527
C38	C	0.862957	0.544332	0.455473
C39	C	0.290512	0.044352	-0.043467
C40	C	0.790512	0.544352	0.456533
C41	C	0.247767	0.000251	-0.091425
C42	C	0.747767	0.500251	0.408575
C43	C	0.277473	-0.043861	-0.140455
C44	C	0.777473	0.456139	0.359545
C45	C	0.349918	-0.043877	-0.141518
C46	C	0.849918	0.456123	0.358482
C47	C	0.392658	0.000222	-0.093546
C48	C	0.892658	0.500222	0.406454
C49	C	0.124514	0.000279	-0.153047
C50	C	0.624514	0.500279	0.346953
C51	C	0.052066	0.000283	-0.151984
C52	C	0.552066	0.500283	0.348016
C53	C	0.069026	0.000269	-0.025374
C54	C	0.569026	0.500269	0.474626
C55	C	0.141473	0.000258	-0.026439
C56	C	0.641473	0.500258	0.473561
C57	C	0.169212	0.000267	-0.090278
C58	C	0.669212	0.500267	0.409722
C59	C	0.862179	-0.218523	-0.134509
C60	C	1.362179	0.281477	0.365491
C61	C	0.862190	-0.297771	-0.134507
C62	C	1.362190	0.202229	0.365493
C63	C	0.820201	-0.337429	-0.092490
C64	C	1.320201	0.162571	0.407510
C65	C	0.778211	-0.297833	-0.050457
C66	C	1.278211	0.202167	0.449543
C67	C	0.778206	-0.218587	-0.050455
C68	C	1.278206	0.281413	0.449545
N69	N	0.759369	-0.461885	-0.090783
N70	N	1.259369	0.038115	0.409217
N71	N	0.759375	-0.537165	-0.090789
N72	N	1.259375	-0.037165	0.409211
C73	C	0.820214	-0.576193	-0.092492
C74	C	1.320214	-0.076193	0.407508
N75	N	0.881046	-0.537097	-0.094203
N76	N	1.381046	-0.037097	0.405797
N77	N	0.881039	-0.461810	-0.094200
N78	N	1.381039	0.038190	0.405800
C79	C	0.820202	-0.423358	-0.092487
C80	C	1.320202	0.076642	0.407513
C81	C	0.862217	-0.701709	-0.134516
C82	C	1.362217	-0.201709	0.365484
C83	C	0.862229	-0.780958	-0.134509
C84	C	1.362229	-0.280958	0.365491
C85	C	0.778244	-0.781019	-0.050463
C86	C	1.278244	-0.281019	0.449537
C87	C	0.778237	-0.701771	-0.050466
C88	C	1.278237	-0.201771	0.449534
C89	C	0.820223	-0.662121	-0.092496
C90	C	1.320223	-0.162121	0.407504
C91	C	0.947220	0.000260	-0.087022
C92	C	1.447220	0.500260	0.412978
C93	C	1.024324	0.000285	-0.088151
C94	C	1.524324	0.500285	0.411849
C95	C	0.825682	0.000210	0.034516
C96	C	1.325682	0.500210	0.534516
C97	C	0.824553	0.000203	0.111620
C98	C	1.324553	0.500203	0.611620
N99	N	0.820241	0.179389	-0.092490
N100	N	1.320241	0.679389	0.407510
C101	C	0.814745	0.000244	-0.219497
C102	C	1.314745	0.500244	0.280503
C103	C	0.815874	0.000255	-0.296601
C104	C	1.315874	0.500255	0.203399
C105	C	0.887321	0.000215	0.156316
C106	C	1.387321	0.500215	0.656316
C107	C	0.886260	0.000227	0.228763
C108	C	1.386260	0.500227	0.728763
C109	C	0.822428	0.000211	0.256511
C110	C	1.322428	0.500211	0.756511
C111	C	0.759652	0.000204	0.211805
C112	C	1.259652	0.500204	0.711805
C113	C	0.760714	0.000200	0.139359
C114	C	1.260714	0.500200	0.639359
C115	C	0.772242	-0.043900	0.364799
C116	C	1.272242	0.456100	0.864799
C117	C	0.771182	-0.043901	0.437244
C118	C	1.271182	0.456099	0.937244
C119	C	0.819148	0.000228	0.479956
C120	C	1.319148	0.500228	0.979956
C121	C	0.868186	0.044346	0.450217
C122	C	1.368186	0.544346	0.950217
C123	C	0.869249	0.044342	0.377772
C124	C	1.369249	0.544342	0.877772
C125	C	0.821269	0.000216	0.335065
C126	C	1.321269	0.500216	0.835065
C127	C	0.880770	0.000253	0.603209
C128	C	1.380770	0.500253	1.103209
C129	C	0.879707	0.000270	0.675657
C130	C	1.379707	0.500270	1.175657
C131	C	0.753097	0.000239	0.658697
C132	C	1.253097	0.500239	1.158697
C133	C	0.754162	0.000230	0.586250
C134	C	1.254162	0.500230	1.086250
C135	C	0.818001	0.000234	0.558511
C136	C	1.318001	0.500234	1.058511
H137	H	0.593987	0.000203	-0.211580
H138	H	1.093987	0.500203	0.288420
H139	H	0.707679	0.000193	0.234401
H140	H	1.207679	0.500193	0.734401
H141	H	0.709599	0.000190	0.102967
H142	H	1.209599	0.500190	0.602967
H143	H	0.397755	0.080249	-0.005472
H144	H	0.897755	0.580249	0.494528
H145	H	0.624756	0.000149	0.018124
H146	H	1.124756	0.500149	0.518124
H147	H	0.242670	-0.079773	-0.179507
H148	H	0.742670	0.420227	0.320493
H149	H	0.907245	0.080280	0.484993
H150	H	1.407245	0.580280	0.984993
H151	H	0.909176	0.080267	0.353561
H152	H	1.409176	0.580267	0.853561
H153	H	0.177866	0.000245	0.024674
H154	H	0.677866	0.500245	0.524674
H155	H	0.493322	0.000194	0.020044
H156	H	0.993322	0.500194	0.520044
H157	H	0.744014	-0.186357	-0.016234
H158	H	1.244014	0.313643	0.483766
H159	H	0.939303	0.000221	0.133736
H160	H	1.439303	0.500221	0.633736
H161	H	0.462561	0.000217	-0.209652
H162	H	0.962561	0.500217	0.290348
H163	H	0.896370	-0.186245	-0.168731
H164	H	1.396370	0.313755	0.331269
H165	H	0.374102	-0.079796	-0.181437
H166	H	0.874102	0.420204	0.318563
H167	H	0.015674	0.000295	-0.203099
H168	H	0.515674	0.500295	0.296901
H169	H	0.147101	0.000275	-0.205028
H170	H	0.647101	0.500275	0.294972
H171	H	0.744024	-0.330128	-0.016245
H172	H	1.244024	0.169872	0.483755
H173	H	0.930822	0.000284	0.712049
H174	H	1.430822	0.500284	1.212049
H175	H	0.932751	0.000260	0.580622
H176	H	1.432751	0.500260	1.080622
H177	H	0.703049	0.000216	0.549857
H178	H	1.203049	0.500216	1.049857
H179	H	0.701123	0.000230	0.681288
H180	H	1.201123	0.500230	1.181288
H181	H	0.896404	-0.669424	-0.168739
H182	H	1.396404	-0.169424	0.331261
H183	H	0.744056	-0.813308	-0.016250
H184	H	1.244056	-0.313308	0.483750
H185	H	0.046435	0.000318	0.026600
H186	H	0.546435	0.500318	0.526600
H187	H	0.731249	-0.079820	0.461451
H188	H	1.231249	0.420180	0.961451
H189	H	0.266331	0.080274	-0.003547
H190	H	0.766331	0.580274	0.496453
H191	H	0.733180	-0.079839	0.330028
H192	H	1.233180	0.420161	0.830028
H193	H	0.896426	-0.813188	-0.168728
H194	H	1.396426	-0.313188	0.331272
H195	H	0.937375	0.000240	0.265162
H196	H	1.437375	0.500240	0.765162
H197	H	0.744044	-0.669540	-0.016248
H198	H	1.244044	-0.169540	0.483752
H199	H	0.896382	-0.330009	-0.168730
H200	H	1.396382	0.169991	0.331270
