data_functionalizedCrystal
_audit_creation_method	'MofGen! by Chris Wilmer'
_symmetry_space_group_name_H-M	'P1'
_symmetry_Int_Tables_number	1
_symmetry_cell_setting	triclinic
loop_
_symmetry_equiv_pos_as_xyz
  x,y,z
_cell_length_a	10.654550
_cell_length_b	10.654550
_cell_length_c	9.130313
_cell_angle_alpha	89.996647
_cell_angle_beta	89.999724
_cell_angle_gamma	84.484917
loop_
_atom_site_label
_atom_site_type_symbol
_atom_site_fract_x
_atom_site_fract_y
_atom_site_fract_z
O1	O	1.667839	0.176399	-0.121686
O2	O	1.302361	0.193205	-0.121712
O3	O	1.493503	0.002063	-0.121693
O4	O	1.476697	0.367541	-0.121705
O5	O	1.493490	0.002057	0.121906
O6	O	1.302348	0.193199	0.121886
O7	O	1.667826	0.176393	0.121913
Cu8	Cu	1.485086	0.184796	0.144142
Cu9	Cu	1.485101	0.184802	-0.143942
O10	O	1.476684	0.367535	0.121894
C11	C	1.255556	0.191968	0.000084
C12	C	1.116113	0.188276	0.000073
C13	C	1.036627	0.300818	0.000074
C14	C	0.905607	0.297341	0.000100
C15	C	0.933570	0.068772	0.000118
C16	C	1.064588	0.072250	0.000103
C17	C	1.492263	-0.044738	0.000104
C18	C	1.488571	-0.184181	0.000099
C19	C	1.601112	-0.263667	0.000112
C20	C	1.597636	-0.394688	0.000101
C21	C	1.369066	-0.366725	0.000072
C22	C	1.372544	-0.235706	0.000072
C23	C	1.733075	-0.279813	0.000135
C24	C	1.729599	-0.410834	0.000125
C25	C	1.714631	0.177630	0.000114
C26	C	1.854074	0.181322	0.000114
C27	C	1.477924	0.414336	0.000093
C28	C	1.481616	0.553779	0.000089
N29	N	1.485084	0.184790	0.346765
N30	N	1.485113	0.184798	-0.346564
C31	C	1.569751	0.100188	0.423425
C32	C	1.569763	0.100189	0.576762
C33	C	1.400437	0.269404	0.576765
C34	C	1.400420	0.269396	0.423431
H35	H	1.129309	-0.019401	0.000107
H36	H	1.274601	-0.408693	0.000048
C37	C	1.250217	-0.149616	0.000119
C38	C	1.147868	-0.222787	0.000137
C39	C	1.035157	-0.143524	0.000200
H40	H	1.246656	-0.097895	-0.084806
H41	H	1.246740	-0.097946	0.085101
H42	H	1.151343	-0.274435	-0.084837
H43	H	1.151387	-0.274506	0.085056
H44	H	1.031680	-0.091854	0.085182
H45	H	1.031609	-0.091806	-0.084727
H46	H	0.965700	-0.193158	0.000225
H47	H	0.891602	-0.025693	0.000151
C48	C	1.801877	-0.240894	-0.135908
C49	C	1.840488	-0.348072	-0.219126
C50	C	1.903853	-0.312266	-0.344464
H51	H	1.873608	-0.200151	-0.107775
H52	H	1.746923	-0.184656	-0.192633
H53	H	1.895439	-0.404288	-0.162412
H54	H	1.768782	-0.388828	-0.247297
H55	H	1.848899	-0.256029	-0.401189
H56	H	1.975578	-0.271522	-0.316317
H57	H	1.930048	-0.384978	-0.400950
H58	H	1.078574	0.395294	0.000061
C59	C	1.308437	0.361397	0.340452
C60	C	1.234325	0.435523	0.440408
C61	C	1.149589	0.520290	0.364022
H62	H	1.255646	0.315870	0.280647
H63	H	1.354028	0.414164	0.280651
H64	H	1.188737	0.382763	0.500183
H65	H	1.287081	0.481078	0.500216
H66	H	1.195180	0.573058	0.304221
H67	H	1.096808	0.474752	0.304220
H68	H	1.099302	0.570602	0.431829
C69	C	1.788838	-0.232508	0.140641
C70	C	1.822296	-0.334731	0.233691
C71	C	1.873519	-0.291183	0.363215
H72	H	1.728163	-0.175019	0.187785
H73	H	1.861584	-0.191131	0.118236
H74	H	1.749560	-0.376088	0.256098
H75	H	1.882982	-0.392230	0.186593
H76	H	1.946265	-0.249806	0.340810
H77	H	1.812838	-0.233694	0.410345
H78	H	1.896237	-0.360535	0.426359
H79	H	0.840894	0.388984	0.000103
H80	H	1.769485	-0.456474	-0.105052
H81	H	1.779315	-0.452596	0.102072
H82	H	1.638687	0.031295	0.361008
H83	H	1.638704	0.031297	0.639175
H84	H	1.331508	0.338290	0.639201
