data_functionalizedCrystal
_audit_creation_method	'MofGen! by Chris Wilmer'
_symmetry_space_group_name_H-M	'P1'
_symmetry_Int_Tables_number	1
_symmetry_cell_setting	triclinic
loop_
_symmetry_equiv_pos_as_xyz
  x,y,z
_cell_length_a	10.654550
_cell_length_b	11.792241
_cell_length_c	9.130313
_cell_angle_alpha	89.998583
_cell_angle_beta	89.996220
_cell_angle_gamma	84.339159
loop_
_atom_site_label
_atom_site_type_symbol
_atom_site_fract_x
_atom_site_fract_y
_atom_site_fract_z
O1	O	1.667383	0.159415	-0.121920
O2	O	1.301862	0.174603	-0.121897
O3	O	1.493493	0.001859	-0.121899
O4	O	1.475752	0.332159	-0.121918
O5	O	1.493490	0.001864	0.121700
O6	O	1.301859	0.174608	0.121702
O7	O	1.667381	0.159419	0.121678
Cu8	Cu	1.484620	0.167014	0.143933
Cu9	Cu	1.484623	0.167008	-0.144151
O10	O	1.475750	0.332164	0.121680
C11	C	1.255066	0.173490	-0.000095
C12	C	1.115632	0.170154	-0.000085
C13	C	1.035858	0.271863	-0.000113
C14	C	0.904847	0.268721	-0.000138
C15	C	0.933394	0.062152	-0.000114
C16	C	1.064404	0.065295	-0.000079
C17	C	1.019376	0.391124	-0.000133
C18	C	0.888364	0.387982	-0.000158
C19	C	1.492377	-0.040432	-0.000100
C20	C	1.489042	-0.166454	-0.000101
C21	C	1.482908	-0.397180	-0.000125
C22	C	1.486316	-0.268787	-0.000112
C23	C	1.714177	0.160532	-0.000127
C24	C	1.853611	0.163869	-0.000146
C25	C	1.476865	0.374455	-0.000122
C26	C	1.480201	0.500476	-0.000130
N27	N	1.484627	0.167017	0.346555
N28	N	1.484625	0.166996	-0.346774
C29	C	1.569503	0.090552	0.423206
C30	C	1.569500	0.090539	0.576543
C31	C	1.399740	0.243465	0.576564
C32	C	1.399739	0.243472	0.423230
C33	C	1.667516	0.002265	0.423195
C34	C	1.667513	0.002251	0.576532
H35	H	0.846505	0.432916	-0.102114
N36	N	1.313012	0.321569	0.344955
N37	N	1.237226	0.389819	0.413437
H38	H	1.175968	0.444976	0.358156
H39	H	0.842589	0.424026	0.105008
N40	N	1.640907	-0.107160	0.370952
N41	N	1.636403	-0.125674	0.236348
H42	H	1.617608	-0.202952	0.199448
N43	N	1.313037	0.321546	0.654911
N44	N	1.313041	0.321524	0.791815
H45	H	1.251805	0.376670	0.847149
H46	H	1.758622	0.029909	0.375629
H47	H	1.637233	-0.080191	0.624086
N48	N	1.064038	0.438809	-0.132005
N49	N	1.141467	0.380792	-0.211380
H50	H	1.173025	0.414487	-0.304498
N51	N	1.788511	0.026656	0.628730
N52	N	1.830366	0.118658	0.595669
H53	H	1.915817	0.135895	0.632536
N54	N	1.145873	-0.038609	-0.000023
N55	N	1.100113	-0.132220	-0.000016
H56	H	1.157650	-0.205607	0.000025
N57	N	0.881042	-0.044944	-0.000098
N58	N	0.764069	-0.047738	-0.000118
H59	H	0.727095	-0.123376	-0.000106
H60	H	1.048574	0.437769	0.101816
