data_functionalizedCrystal
_audit_creation_method	'MofGen! by Chris Wilmer'
_symmetry_space_group_name_H-M	'P1'
_symmetry_Int_Tables_number	1
_symmetry_cell_setting	triclinic
loop_
_symmetry_equiv_pos_as_xyz
  x,y,z
_cell_length_a	10.654544
_cell_length_b	10.654545
_cell_length_c	7.088929
_cell_angle_alpha	83.718243
_cell_angle_beta	96.263084
_cell_angle_gamma	84.485139
loop_
_atom_site_label
_atom_site_type_symbol
_atom_site_fract_x
_atom_site_fract_y
_atom_site_fract_z
O1	O	1.655060	0.189199	-0.159025
O2	O	1.289582	0.206005	-0.159017
O3	O	1.480723	0.014863	-0.159020
O4	O	1.463919	0.380341	-0.159022
O5	O	1.506267	-0.010740	0.158955
O6	O	1.315125	0.180402	0.158958
O7	O	1.680604	0.163597	0.158950
Cu8	Cu	1.500197	0.169662	0.187988
Cu9	Cu	1.469989	0.199940	-0.188054
O10	O	1.489462	0.354739	0.158953
C11	C	1.255556	0.191970	-0.000029
C12	C	1.116113	0.188277	-0.000026
C13	C	1.143936	0.160379	0.346640
C14	C	1.092338	0.144700	0.519967
C15	C	0.961318	0.141230	0.519958
C16	C	0.881894	0.153437	0.346604
C17	C	0.933492	0.169116	0.173278
C18	C	1.064515	0.172589	0.173305
C19	C	0.905670	0.197005	-0.173384
C20	C	1.036688	0.200484	-0.173380
C21	C	0.826245	0.209212	-0.346738
C22	C	0.877842	0.224900	-0.520069
C23	C	1.008870	0.228372	-0.520053
C24	C	1.088286	0.216164	-0.346707
C25	C	1.492261	-0.044736	-0.000036
C26	C	1.488567	-0.184179	-0.000047
C27	C	1.460734	-0.156275	-0.346713
C28	C	1.445087	-0.207832	-0.520045
C29	C	1.441618	-0.338851	-0.520047
C30	C	1.453793	-0.418316	-0.346698
C31	C	1.469440	-0.366758	-0.173366
C32	C	1.472911	-0.235735	-0.173383
C33	C	1.497264	-0.394661	0.173295
C34	C	1.500742	-0.263643	0.173302
C35	C	1.509439	-0.474125	0.346644
C36	C	1.525095	-0.422569	0.519980
C37	C	1.528565	-0.291542	0.519975
C38	C	1.516389	-0.212086	0.346634
C39	C	1.714629	0.177632	-0.000042
C40	C	1.854071	0.181325	-0.000057
C41	C	1.477924	0.414338	-0.000035
C42	C	1.481617	0.553781	-0.000037
N43	N	1.521453	0.148365	0.452475
N44	N	1.448742	0.221226	-0.452542
H45	H	1.157020	0.134758	0.661108
H46	H	1.194970	0.218997	-0.346677
C47	C	0.904558	0.123983	0.710625
N48	N	0.861807	0.110995	0.854235
C49	C	1.346931	0.323226	0.437159
N50	N	1.270243	0.400053	0.354069
C51	C	1.065617	0.245617	-0.710731
N52	N	1.108354	0.258607	-0.854353
H53	H	1.596823	0.072864	0.534130
H54	H	1.534998	-0.487277	0.661106
C55	C	1.431707	-0.120414	-0.710720
N56	N	1.421631	-0.054574	-0.854336
C57	C	1.288061	0.164207	0.346665
N58	N	1.396618	0.167089	0.346689
C59	C	0.737771	0.149609	0.346606
N60	N	0.629215	0.146728	0.346605
C61	C	1.464584	-0.012153	-0.346726
N62	N	1.467492	0.096400	-0.346741
H63	H	0.719565	0.206376	-0.346733
H64	H	1.506606	-0.580806	0.346630
C65	C	0.790470	0.238322	-0.710737
N66	N	0.724655	0.248434	-0.854351
C67	C	1.424410	-0.395567	-0.710719
N68	N	1.411452	-0.438285	-0.854334
H69	H	1.450952	-0.524995	-0.346716
C70	C	1.545776	-0.234840	0.710658
N71	N	1.558742	-0.192137	0.854286
H72	H	1.519219	-0.105402	0.346613
