data_functionalizedCrystal
_audit_creation_method	'MofGen! by Chris Wilmer'
_symmetry_space_group_name_H-M	'P1'
_symmetry_Int_Tables_number	1
_symmetry_cell_setting	triclinic
loop_
_symmetry_equiv_pos_as_xyz
  x,y,z
_cell_length_a	6.394989
_cell_length_b	17.699083
_cell_length_c	16.776229
_cell_angle_alpha	90.001114
_cell_angle_beta	90.003593
_cell_angle_gamma	84.890363
loop_
_atom_site_label
_atom_site_type_symbol
_atom_site_fract_x
_atom_site_fract_y
_atom_site_fract_z
O1	O	-0.264131	-1.006774	-0.066171
O2	O	-0.298495	-0.786746	-0.066197
O3	O	0.022767	-0.899883	-0.066184
O4	O	-0.585393	-0.893637	-0.066184
O5	O	0.022786	-0.899868	0.066392
O6	O	-0.298476	-0.786731	0.066380
O7	O	-0.264112	-1.006758	0.066405
Zn8	Zn	-0.281290	-0.896742	0.087442
Zn9	Zn	-0.281316	-0.896763	-0.087233
O10	O	-0.585374	-0.893621	0.066393
C11	C	-0.297254	-0.758529	0.000088
C12	C	-0.293560	-0.674473	0.000078
C13	C	-0.265353	-1.034976	0.000119
C14	C	-0.269047	-1.119031	0.000123
N15	N	-0.281271	-0.896733	0.206653
C16	C	0.100592	-0.898640	0.000101
C17	C	0.336808	-0.894866	0.000100
N18	N	-0.281319	-0.896777	-0.206444
C19	C	-0.482134	-0.627777	0.000079
C20	C	-0.478651	-0.548798	0.000089
C21	C	-0.286591	-0.516517	0.000093
C22	C	-0.098003	-0.563220	0.000095
C23	C	-0.101488	-0.642197	0.000091
C24	C	-0.083942	-0.244713	0.000115
C25	C	-0.080470	-0.165730	0.000117
C26	C	-0.461104	-0.151314	0.000113
C27	C	-0.464590	-0.230291	0.000109
C28	C	-0.276002	-0.276987	0.000115
C29	C	-0.279782	-0.362625	0.000105
C30	C	-0.282810	-0.430881	0.000097
C31	C	-0.139075	-0.946847	0.248376
C32	C	-0.139073	-0.946851	0.331828
C33	C	-0.281280	-0.896745	0.373556
C34	C	-0.423483	-0.846626	0.331828
C35	C	-0.423473	-0.846619	0.248377
C36	C	-0.423524	-0.846654	0.668375
C37	C	-0.423527	-0.846667	0.751831
C38	C	-0.139124	-0.946886	0.751826
C39	C	-0.139114	-0.946879	0.668375
C40	C	-0.281309	-0.896758	0.626654
C41	C	-0.281307	-0.896753	0.536166
C42	C	-0.281294	-0.896753	0.464043
H43	H	-0.638531	-0.654053	0.000075
O44	O	-0.561859	-0.797946	0.627978
C45	C	-0.843880	-0.698511	0.636797
C46	C	-0.687354	-0.753647	0.682650
H47	H	-0.945354	-0.662670	0.680980
H48	H	-0.948255	-0.732134	0.597739
H49	H	-0.753791	-0.659873	0.597717
H50	H	-0.777272	-0.792297	0.721774
H51	H	-0.582981	-0.719977	0.721658
O52	O	-0.561545	-0.798025	0.372483
C53	C	-0.687537	-0.753590	0.501043
C54	C	-0.531094	-0.808681	0.455103
H55	H	-0.662942	-0.762175	0.567849
H56	H	-0.854840	-0.765042	0.484684
H57	H	-0.660547	-0.692722	0.484597
H58	H	-0.557891	-0.869570	0.471524
H59	H	-0.363845	-0.797163	0.471466
H60	H	-0.023285	-0.987656	0.365798
O61	O	0.081554	-0.687639	-0.000019
C62	C	0.298577	-0.785144	-0.068728
C63	C	0.091179	-0.733739	-0.068698
H64	H	0.306446	-0.822417	-0.124258
H65	H	0.306493	-0.822533	-0.013284
H66	H	0.436415	-0.748493	-0.068687
H67	H	-0.046776	-0.770331	-0.068767
H68	H	0.083447	-0.696345	-0.124138
O69	O	-0.000772	-0.995578	0.627965
C70	C	0.281256	-1.095013	0.636769
C71	C	0.124721	-1.039891	0.682631
H72	H	0.382728	-1.130866	0.680947
H73	H	0.385632	-1.061377	0.597731
H74	H	0.191175	-1.133640	0.597668
H75	H	0.214631	-1.001251	0.721776
H76	H	0.020346	-1.073574	0.721619
H77	H	-0.023334	-0.987695	0.785804
H78	H	-0.539333	-0.805862	0.785805
H79	H	-0.023283	-0.987652	0.214406
O80	O	-0.644443	-0.106030	0.000221
C81	C	-0.968664	-0.069517	0.068922
C82	C	-0.761144	-0.120853	0.068894
H83	H	-1.063055	-0.081472	0.124446
H84	H	-1.063344	-0.081498	0.013472
H85	H	-0.933145	-0.007530	0.068890
H86	H	-0.796472	-0.182858	0.068954
H87	H	-0.666525	-0.108807	0.124339
H88	H	-0.539261	-0.805811	0.214407
H89	H	0.069618	-0.282724	0.000121
O90	O	0.106056	-0.134336	-0.000015
C91	C	0.330837	-0.053495	-0.068664
C92	C	0.119562	-0.089013	-0.068622
H93	H	0.341807	-0.016831	-0.124119
H94	H	0.465113	-0.100405	-0.068710
H95	H	0.341940	-0.016911	-0.013155
H96	H	0.108255	-0.125590	-0.124121
H97	H	-0.014613	-0.042067	-0.068535
H98	H	-0.620984	-0.256569	0.000102
O99	O	-0.661893	-0.503471	-0.000055
C100	C	-0.986224	-0.467019	-0.068722
C101	C	-0.778747	-0.518380	-0.068669
H102	H	-1.080779	-0.479066	-0.124182
H103	H	-0.950886	-0.405012	-0.068766
H104	H	-1.080673	-0.478994	-0.013219
H105	H	-0.684195	-0.506473	-0.124163
H106	H	-0.814232	-0.580372	-0.068584
H107	H	0.058376	-0.536930	0.000110
