data_functionalizedCrystal
_audit_creation_method	'MofGen! by Chris Wilmer'
_symmetry_space_group_name_H-M	'P1'
_symmetry_Int_Tables_number	1
_symmetry_cell_setting	triclinic
loop_
_symmetry_equiv_pos_as_xyz
  x,y,z
_cell_length_a	18.215405
_cell_length_b	13.897449
_cell_length_c	18.215399
_cell_angle_alpha	89.979342
_cell_angle_beta	90.027541
_cell_angle_gamma	89.977435
loop_
_atom_site_label
_atom_site_type_symbol
_atom_site_fract_x
_atom_site_fract_y
_atom_site_fract_z
Zn1	Zn	-0.292995	-1.474648	0.416134
Zn2	Zn	0.207005	-0.974648	0.916134
Zn3	Zn	-0.416066	-1.474534	0.293069
Zn4	Zn	0.083934	-0.974534	0.793069
Zn5	Zn	-0.293018	-1.313343	0.293080
Zn6	Zn	0.206982	-0.813343	0.793080
Zn7	Zn	-0.416024	-1.313305	0.416092
Zn8	Zn	0.083976	-0.813305	0.916092
O9	O	-0.354526	-1.393957	0.354594
O10	O	0.145474	-0.893957	0.854594
O11	O	-0.309329	-1.609614	0.399822
O12	O	0.190671	-1.109614	0.899822
O13	O	-0.399771	-1.453120	0.190086
O14	O	0.100229	-0.953120	0.690086
O15	O	-0.190031	-1.334804	0.309425
O16	O	0.309969	-0.834804	0.809425
O17	O	-0.399749	-1.609531	0.309407
O18	O	0.100251	-1.109531	0.809407
O19	O	-0.190014	-1.453314	0.399833
O20	O	0.309986	-0.953314	0.899833
O21	O	-0.309368	-1.334694	0.190094
O22	O	0.190632	-0.834694	0.690094
O23	O	-0.309327	-1.178356	0.309384
O24	O	0.190673	-0.678356	0.809384
O25	O	-0.399677	-1.334739	0.519082
O26	O	0.100323	-0.834739	1.019082
O27	O	-0.399699	-1.178328	0.399761
O28	O	0.100301	-0.678328	0.899761
O29	O	-0.309288	-1.453277	0.519113
O30	O	0.190712	-0.953277	1.019113
O31	O	-0.519045	-1.453083	0.309366
O32	O	-0.019045	-0.953083	0.809366
O33	O	-0.519014	-1.334628	0.399750
O34	O	-0.019014	-0.834628	0.899750
C35	C	-0.354511	-1.143343	0.354570
C36	C	0.145489	-0.643343	0.854570
C37	C	-0.354523	-1.036129	0.354577
C38	C	0.145477	-0.536129	0.854577
C39	C	-0.354521	-0.839834	0.354591
C40	C	0.145479	-0.339834	0.854591
C41	C	-0.354520	-0.949066	0.354581
C42	C	0.145480	-0.449066	0.854581
C43	C	-0.545732	-1.393865	0.354568
C44	C	-0.045732	-0.893865	0.854568
C45	C	-0.627531	-1.393914	0.354582
C46	C	-0.127531	-0.893914	0.854582
C47	C	-0.815655	-1.455651	0.401721
C48	C	-0.315655	-0.955651	0.901721
C49	C	-0.892514	-1.455686	0.401735
C50	C	-0.392514	-0.955686	0.901735
C51	C	-0.892644	-1.332383	0.307512
C52	C	-0.392644	-0.832383	0.807512
C53	C	-0.815787	-1.332344	0.307502
C54	C	-0.315787	-0.832344	0.807502
C55	C	-0.777294	-1.393983	0.354606
C56	C	-0.277294	-0.893983	0.854606
C57	C	-0.931011	-1.394057	0.354629
C58	C	-0.431011	-0.894057	0.854629
C59	C	-1.014344	-1.394095	0.354644
C60	C	-0.514344	-0.894095	0.854644
C61	C	-0.693956	-1.393945	0.354592
C62	C	-0.193956	-0.893945	0.854592
C63	C	-0.162573	-1.394076	0.354635
C64	C	0.337427	-0.894076	0.854635
C65	C	-0.080774	-1.394127	0.354653
C66	C	0.419226	-0.894127	0.854653
C67	C	-0.354475	-1.394016	0.546547
C68	C	0.145525	-0.894016	1.046547
C69	C	-0.354453	-1.394041	0.628346
C70	C	0.145547	-0.894041	1.128346
C71	C	-0.354536	-0.645550	0.354611
C72	C	0.145464	-0.145550	0.854611
C73	C	-0.354528	-0.752764	0.354600
C74	C	0.145472	-0.252764	0.854600
C75	C	-0.354523	-1.393954	0.163387
C76	C	0.145477	-0.893954	0.663387
C77	C	-0.354338	-1.394116	0.081589
C78	C	0.145662	-0.894116	0.581589
C79	C	-0.307344	-1.455786	0.816557
C80	C	0.192656	-0.955786	1.316557
C81	C	-0.307323	-1.455798	0.893416
C82	C	0.192677	-0.955798	1.393416
C83	C	-0.401449	-1.332364	0.893372
C84	C	0.098551	-0.832364	1.393372
C85	C	-0.401466	-1.332349	0.816515
C86	C	0.098534	-0.832349	1.316515
C87	C	-0.354415	-1.394065	0.778109
C88	C	0.145585	-0.894065	1.278109
C89	C	-0.354376	-1.394092	0.931825
C90	C	0.145624	-0.894092	1.431825
C91	C	-0.354353	-1.394104	1.015159
C92	C	0.145647	-0.894104	1.515159
C93	C	-0.354437	-1.394052	0.694770
C94	C	0.145563	-0.894052	1.194770
H95	H	-0.923744	-1.505900	0.440102
H96	H	-0.423744	-1.005900	0.940102
C97	C	-0.452508	-1.265472	0.935204
C98	C	0.047492	-0.765472	1.435204
C99	C	-0.442434	-1.278713	1.010742
C100	C	0.057566	-0.778713	1.510742
C101	C	-0.489465	-1.217117	1.049299
C102	C	0.010535	-0.717117	1.549299
H103	H	-0.441785	-1.200626	0.922691
H104	H	0.058215	-0.700626	1.422691
H105	H	-0.501974	-1.279567	0.922639
H106	H	-0.001974	-0.779567	1.422639
H107	H	-0.392979	-1.264611	1.023302
H108	H	0.107021	-0.764611	1.523302
H109	H	-0.453162	-1.343546	1.023278
H110	H	0.046838	-0.843546	1.523278
H111	H	-0.538931	-1.231213	1.036734
H112	H	-0.038931	-0.731213	1.536734
H113	H	-0.478738	-1.152275	1.036779
H114	H	0.021262	-0.652275	1.536779
H115	H	-0.482642	-1.226100	1.100555
H116	H	0.017358	-0.726100	1.600555
C117	C	-0.934571	-1.265577	0.256395
C118	C	-0.434571	-0.765577	0.756395
C119	C	-1.010090	-1.278829	0.266470
C120	C	-0.510090	-0.778829	0.766470
C121	C	-1.048734	-1.217315	0.219383
C122	C	-0.548734	-0.717315	0.719383
H123	H	-0.922098	-1.200711	0.267066
H124	H	-0.422098	-0.700711	0.767066
H125	H	-0.922037	-1.279740	0.206942
H126	H	-0.422037	-0.779740	0.706942
H127	H	-1.022620	-1.264659	0.315912
H128	H	-0.522620	-0.764659	0.815912
H129	H	-1.022585	-1.343682	0.255793
H130	H	-0.522585	-0.843682	0.755793
H131	H	-1.036200	-1.231478	0.169930
H132	H	-0.536200	-0.731478	0.669930
H133	H	-1.036255	-1.152453	0.230059
H134	H	-0.536255	-0.652453	0.730059
H135	H	-1.099977	-1.226304	0.226208
H136	H	-0.599977	-0.726304	0.726208
C137	C	-0.774265	-1.265349	0.256265
C138	C	-0.274265	-0.765349	0.756265
C139	C	-0.824424	-1.211400	0.214998
C140	C	-0.324424	-0.711400	0.714998
C141	C	-0.786201	-1.149685	0.167788
C142	C	-0.286201	-0.649685	0.667788
H143	H	-0.744289	-1.223200	0.284302
H144	H	-0.244289	-0.723200	0.784302
H145	H	-0.744295	-1.302238	0.224185
H146	H	-0.244295	-0.802238	0.724185
H147	H	-0.854381	-1.174514	0.247074
H148	H	-0.354381	-0.674514	0.747074
H149	H	-0.854401	-1.253524	0.186946
H150	H	-0.354401	-0.753524	0.686946
H151	H	-0.756231	-1.186574	0.135708
H152	H	-0.256231	-0.686574	0.635708
H153	H	-0.756226	-1.107542	0.195831
H154	H	-0.256226	-0.607542	0.695831
H155	H	-0.820227	-1.113079	0.139778
H156	H	-0.320227	-0.613079	0.639778
H157	H	-0.439797	-1.282081	0.785210
H158	H	0.060203	-0.782081	1.285210
H159	H	-0.269030	-1.506037	0.785289
H160	H	0.230970	-1.006037	1.285289
H161	H	-0.268992	-1.506056	0.924717
H162	H	0.231008	-1.006056	1.424717
H163	H	-0.784316	-1.505840	0.440077
H164	H	-0.284316	-1.005840	0.940077
