data_functionalizedCrystal
_audit_creation_method	'MofGen! by Chris Wilmer'
_symmetry_space_group_name_H-M	'P1'
_symmetry_Int_Tables_number	1
_symmetry_cell_setting	triclinic
loop_
_symmetry_equiv_pos_as_xyz
  x,y,z
_cell_length_a	17.019311
_cell_length_b	14.044220
_cell_length_c	13.101018
_cell_angle_alpha	93.664400
_cell_angle_beta	97.229490
_cell_angle_gamma	91.718376
loop_
_atom_site_label
_atom_site_type_symbol
_atom_site_fract_x
_atom_site_fract_y
_atom_site_fract_z
O1	O	1.063533	-0.109790	0.179065
O2	O	1.563533	0.390210	0.679065
O3	O	0.834006	-0.126423	0.158814
O4	O	1.334006	0.373577	0.658814
O5	O	0.945324	0.019854	0.168625
O6	O	1.445324	0.519854	0.668625
O7	O	0.952215	-0.256067	0.169253
O8	O	1.452215	0.243933	0.669253
O9	O	0.937328	0.009350	-0.002510
O10	O	1.437328	0.509350	0.497490
O11	O	0.826010	-0.136928	-0.012322
O12	O	1.326010	0.363072	0.487678
O13	O	1.055537	-0.120294	0.007930
O14	O	1.555537	0.379706	0.507930
Zn15	Zn	0.939504	-0.130279	-0.029367
Zn16	Zn	1.439504	0.369721	0.470633
Zn17	Zn	0.950039	-0.116439	0.196111
Zn18	Zn	1.450039	0.383561	0.696111
O19	O	0.944219	-0.266572	-0.001882
O20	O	1.444219	0.233428	0.498118
C21	C	0.800456	-0.131251	0.070639
C22	C	1.300456	0.368749	0.570639
C23	C	0.712400	-0.129974	0.062869
C24	C	1.212400	0.370026	0.562869
C25	C	0.214152	-0.123070	0.014248
C26	C	0.714152	0.376930	0.514248
C27	C	0.296890	-0.124269	0.021551
C28	C	0.796890	0.375731	0.521551
C29	C	0.342619	-0.119136	0.118489
C30	C	0.842619	0.380864	0.618489
C31	C	0.305605	-0.112812	0.208131
C32	C	0.805605	0.387188	0.708131
C33	C	0.222868	-0.111619	0.200828
C34	C	0.722868	0.388381	0.700828
C35	C	0.592649	-0.122457	0.145208
C36	C	1.092649	0.377543	0.645208
C37	C	0.675391	-0.123647	0.152504
C38	C	1.175391	0.376353	0.652504
C39	C	0.666671	-0.135106	-0.034077
C40	C	1.166671	0.364894	0.465923
C41	C	0.583933	-0.133907	-0.041372
C42	C	1.083933	0.366093	0.458628
C43	C	0.546926	-0.127589	0.048270
C44	C	1.046926	0.372411	0.548270
C45	C	0.427191	-0.120359	0.125956
C46	C	0.927191	0.379641	0.625956
C47	C	0.462356	-0.126372	0.040802
C48	C	0.962356	0.373628	0.540802
C49	C	0.938310	0.049896	0.082791
C50	C	1.438310	0.549896	0.582791
C51	C	0.929313	0.155061	0.081996
C52	C	1.429313	0.655061	0.581996
C53	C	1.089087	-0.115467	0.096107
C54	C	1.589087	0.384533	0.596107
C55	C	1.177144	-0.116743	0.103883
C56	C	1.677144	0.383257	0.603883
C57	C	0.951234	-0.296614	0.083955
C58	C	1.451234	0.203386	0.583955
C59	C	0.960231	-0.401778	0.084756
C60	C	1.460231	0.098222	0.584756
N61	N	0.932319	-0.139724	-0.183249
N62	N	1.432319	0.360276	0.316751
C63	C	0.912866	0.347613	0.080560
C64	C	1.412866	0.847613	0.580560
C65	C	0.976674	0.405676	0.086193
C66	C	1.476674	0.905676	0.586193
C67	C	0.967523	0.512818	0.085393
C68	C	1.467523	1.012818	0.585393
C69	C	0.922016	0.240460	0.081359
C70	C	1.422016	0.740460	0.581359
C71	C	0.967000	-0.094133	-0.440102
C72	C	1.467000	0.405867	0.059898
C73	C	0.922551	-0.152574	-0.393147
C74	C	1.422551	0.347426	0.106853
C75	C	0.927988	-0.145422	-0.276349
C76	C	1.427988	0.354578	0.223651
C77	C	0.961564	-0.101283	-0.556911
C78	C	1.461564	0.398717	-0.056911
N79	N	0.957230	-0.106986	0.349993
N80	N	1.457230	0.393014	0.849993
H81	H	0.327019	-0.129418	-0.051440
H82	H	0.827019	0.370582	0.448560
C83	C	0.182159	-0.104657	0.299434
C84	C	0.682159	0.395343	0.799434
N85	N	0.151498	-0.099414	0.373708
N86	N	0.651498	0.400586	0.873708
C87	C	0.829785	0.389162	0.073216
C88	C	1.329785	0.889162	0.573216
N89	N	0.767209	0.420467	0.067676
N90	N	1.267209	0.920467	0.567676
C91	C	0.163858	-0.128719	-0.092393
C92	C	0.663858	0.371281	0.407607
N93	N	0.125978	-0.132980	-0.172718
N94	N	0.625978	0.367020	0.327282
H95	H	0.546707	-0.138067	-0.120310
H96	H	1.046707	0.361933	0.379690
C97	C	0.707385	-0.142096	-0.132677
C98	C	1.207385	0.357904	0.367323
N99	N	0.738050	-0.147376	-0.206946
N100	N	1.238050	0.352624	0.293054
H101	H	0.712622	-0.119475	0.231447
H102	H	1.212622	0.380525	0.731447
C103	C	0.865635	-0.227433	-0.457340
C104	C	1.365635	0.272567	0.042660
N105	N	0.822771	-0.283819	-0.505694
N106	N	1.322771	0.216181	-0.005694
C107	C	1.023914	-0.019281	-0.375910
C108	C	1.523914	0.480719	0.124090
N109	N	1.066780	0.037099	-0.327549
N110	N	1.566780	0.537099	0.172451
H111	H	1.038179	0.374923	0.091688
H112	H	1.538179	0.874923	0.591688
H113	H	0.464432	-0.116177	0.204884
H114	H	0.964432	0.383823	0.704884
H115	H	0.562528	-0.117308	0.218201
H116	H	1.062528	0.382692	0.718201
H117	H	0.342843	-0.108638	0.287061
H118	H	0.842843	0.391362	0.787061
H119	H	0.425120	-0.130557	-0.038125
H120	H	0.925120	0.369443	0.461875
