data_functionalizedCrystal
_audit_creation_method	'MofGen! by Chris Wilmer'
_symmetry_space_group_name_H-M	'P1'
_symmetry_Int_Tables_number	1
_symmetry_cell_setting	triclinic
loop_
_symmetry_equiv_pos_as_xyz
  x,y,z
_cell_length_a	23.532361
_cell_length_b	23.532407
_cell_length_c	9.482900
_cell_angle_alpha	99.270833
_cell_angle_beta	80.775783
_cell_angle_gamma	82.839173
loop_
_atom_site_label
_atom_site_type_symbol
_atom_site_fract_x
_atom_site_fract_y
_atom_site_fract_z
O1	O	0.764194	0.060050	-0.120760
O2	O	0.598330	0.070078	-0.120797
O3	O	0.686261	-0.017867	-0.120751
O4	O	0.676262	0.147994	-0.120807
O5	O	0.668400	0.000068	0.121032
O6	O	0.580468	0.088013	0.120986
O7	O	0.746333	0.077984	0.121023
Cu8	Cu	0.661769	0.084636	0.143081
Cu9	Cu	0.682893	0.063426	-0.142856
O10	O	0.658401	0.165929	0.120977
C11	C	0.568183	0.078794	0.000090
C12	C	0.504965	0.078037	0.000077
C13	C	0.677076	-0.030115	0.000144
C14	C	0.676309	-0.093331	0.000155
C15	C	0.241457	0.064958	-0.131709
C16	C	0.300857	0.065673	-0.131713
O17	O	0.339863	0.057709	-0.243798
N18	N	0.320826	0.075811	0.000083
C19	C	0.281393	0.085228	0.131892
O20	O	0.303833	0.093916	0.243995
C21	C	0.221994	0.084509	0.131895
C22	C	0.202028	0.074377	0.000090
C23	C	0.221490	0.054826	-0.263503
C24	C	0.162094	0.054113	-0.263499
C25	C	0.122665	0.063531	-0.131700
C26	C	0.142632	0.073664	0.000094
C27	C	0.182563	0.093923	0.263702
C28	C	0.123161	0.093202	0.263693
C29	C	0.103195	0.083070	0.131888
C30	C	0.043807	0.082369	0.131897
N31	N	0.023837	0.072231	0.000101
C32	C	0.063266	0.062813	-0.131698
C33	C	0.406134	0.086736	0.131877
C34	C	0.465531	0.087459	0.131877
C35	C	0.484991	0.067903	-0.131729
C36	C	0.425593	0.067184	-0.131727
C37	C	0.386165	0.076599	0.000081
C38	C	-0.061471	0.061315	-0.131679
C39	C	-0.120873	0.060605	-0.131663
C40	C	-0.140328	0.080158	0.131942
C41	C	-0.080931	0.080872	0.131927
C42	C	-0.041503	0.071447	0.000105
O43	O	0.004768	0.090326	0.243925
O44	O	0.040819	0.054119	-0.243782
C45	C	0.723549	-0.492447	0.000086
C46	C	0.722838	-0.551848	0.000075
O47	O	0.766628	-0.588603	0.000031
N48	N	0.670561	-0.574467	0.000064
C49	C	0.618993	-0.537681	0.000050
O50	O	0.574462	-0.562374	0.000039
C51	C	0.619705	-0.478282	0.000051
C52	C	0.671984	-0.455667	0.000076
C53	C	0.775824	-0.469831	0.000110
C54	C	0.776534	-0.410434	0.000124
C55	C	0.724969	-0.373653	0.000114
C56	C	0.672694	-0.396270	0.000090
C57	C	0.568138	-0.441499	0.000026
C58	C	0.568855	-0.382097	0.000026
C59	C	0.621134	-0.359481	0.000051
C60	C	0.621840	-0.300092	0.000094
N61	N	0.674116	-0.277473	0.000105
C62	C	0.725681	-0.314254	0.000115
C63	C	0.617502	-0.662424	0.000046
C64	C	0.616788	-0.721821	0.000055
C65	C	0.720634	-0.735984	0.000077
C66	C	0.721346	-0.676585	0.000078
C67	C	0.669779	-0.639806	0.000056
C68	C	0.727169	-0.189515	0.000145
C69	C	0.727874	-0.130112	0.000165
C70	C	0.624029	-0.115955	0.000135
C71	C	0.623323	-0.175352	0.000123
C72	C	0.674898	-0.212132	0.000123
O73	O	0.578073	-0.263302	0.000132
O74	O	0.770206	-0.289554	0.000107
C75	C	0.776480	0.069268	0.000132
C76	C	0.839698	0.070024	0.000136
C77	C	0.667587	0.178177	0.000078
C78	C	0.668354	0.241392	0.000058
N79	N	0.646917	0.099554	0.344193
N80	N	0.697750	0.048504	-0.343968
C81	C	0.678508	0.067823	0.416409
C82	C	0.666154	0.080239	0.583820
H83	H	-0.029374	0.053642	-0.239021
H84	H	-0.172442	0.087829	0.239249
H85	H	0.629958	0.116597	0.645925
H86	H	0.770447	-0.111702	0.000189
H87	H	0.733942	0.012142	0.593927
H88	H	0.253588	0.047154	-0.370836
O89	O	0.777215	-0.225280	0.000345
C90	C	0.770669	-0.250772	0.125581
H91	H	0.722399	-0.250437	0.167309
H92	H	0.790081	-0.224872	0.213281
C93	C	0.861785	-0.314473	0.036297
C94	C	0.802500	-0.314065	0.087541
H95	H	0.881422	-0.353513	0.012836
H96	H	0.866197	-0.297297	-0.048075
H97	H	0.877954	-0.292886	0.109388
H98	H	0.786330	-0.335645	0.014444
H99	H	0.798086	-0.331245	0.171900
H100	H	0.580750	-0.193764	0.000143
H101	H	0.819105	-0.392027	0.000138
O102	O	0.518782	-0.346298	0.000202
C103	C	0.506822	-0.302244	0.125447
H104	H	0.548922	-0.296397	0.167215
H105	H	0.474448	-0.315146	0.213117
C106	C	0.428910	-0.251774	0.036107
C107	C	0.480619	-0.244588	0.087400
H108	H	0.412745	-0.216209	0.012642
H109	H	0.436966	-0.281455	-0.048270
H110	H	0.401938	-0.262527	0.109175
H111	H	0.507592	-0.233842	0.014327
H112	H	0.472567	-0.214904	0.171765
O113	O	0.201966	0.103857	0.391700
C114	C	0.229023	0.154177	0.399593
H115	H	0.211945	0.182901	0.324799
H116	H	0.278177	0.140941	0.364198
C117	C	0.236224	0.152946	0.648924
C118	C	0.215245	0.188227	0.557070
H119	H	0.227728	0.173948	0.746064
H120	H	0.217997	0.119043	0.643606
H121	H	0.277185	0.141918	0.619410
H122	H	0.174284	0.199248	0.586573
H123	H	0.233465	0.222132	0.562397
O124	O	0.603703	0.142863	0.418440
C125	C	0.562174	0.119149	0.506473
H126	H	0.583329	0.076087	0.529130
H127	H	0.524380	0.111300	0.447916
C128	C	0.513300	0.214909	0.623305
C129	C	0.539285	0.162022	0.651142
H130	H	0.499180	0.241355	0.712541
H131	H	0.541278	0.230886	0.563991
H132	H	0.481809	0.208360	0.574504
H133	H	0.570780	0.168570	0.699926
H134	H	0.511312	0.146047	0.710467
H135	H	-0.137126	0.052356	-0.238999
H136	H	0.714698	0.031463	0.354300
O137	O	0.573999	-0.080144	0.000059
C138	C	0.585840	-0.022867	0.000106
H139	H	0.633944	-0.024240	-0.045645
H140	H	0.575010	0.002923	0.116101
C141	C	0.489346	0.008403	-0.038541
C142	C	0.548426	0.006716	-0.094745
H143	H	0.466265	0.026652	-0.097044
H144	H	0.481367	-0.030186	-0.038567
H145	H	0.480329	0.029893	0.058121
H146	H	0.557444	-0.014780	-0.191398
H147	H	0.556406	0.045302	-0.094738
H148	H	0.145843	0.045860	-0.370828
O149	O	0.517358	-0.463449	-0.000266
C150	C	0.495200	-0.453885	-0.125485
H151	H	0.532249	-0.448193	-0.212985
H152	H	0.461155	-0.412885	-0.097186
C153	C	0.421433	-0.513500	-0.074828
C154	C	0.466939	-0.506514	-0.182302
H155	H	0.403998	-0.545962	-0.109872
H156	H	0.436360	-0.519942	0.009538
H157	H	0.393068	-0.479330	-0.051255
H158	H	0.495306	-0.540681	-0.205859
H159	H	0.452016	-0.500079	-0.266673
H160	H	0.409341	0.058933	-0.239054
H161	H	0.517105	0.060233	-0.239047
H162	H	0.481780	0.095719	0.239206
H163	H	0.374033	0.094410	0.239218
O164	O	0.084936	0.102385	0.391866
C165	C	0.115305	0.111466	0.508185
H166	H	0.158038	0.127142	0.469531
H167	H	0.124867	0.068851	0.548719
C168	C	0.025349	0.138521	0.680180
C169	C	0.077833	0.157779	0.632708
H170	H	0.002235	0.167087	0.756996
H171	H	0.004889	0.132401	0.601815
H172	H	0.033326	0.103009	0.713948
H173	H	0.069856	0.193287	0.598924
H174	H	0.098291	0.163906	0.711071
O175	O	0.565999	-0.743794	0.000301
C176	C	0.553233	-0.768464	0.125494
H177	H	0.576446	-0.748102	0.213031
H178	H	0.568730	-0.817484	0.097176
C179	C	0.458484	-0.781710	0.074740
C180	C	0.486991	-0.756697	0.182259
H181	H	0.417623	-0.774455	0.109753
H182	H	0.467086	-0.765092	-0.009608
H183	H	0.471405	-0.822558	0.051151
H184	H	0.474076	-0.715850	0.205833
H185	H	0.478386	-0.773309	0.266613
H186	H	0.762621	-0.765943	0.000080
O187	O	0.567347	-0.626773	0.000110
C188	C	0.521062	-0.659482	0.000065
H189	H	0.532402	-0.700507	0.045837
H190	H	0.513589	-0.672221	-0.115933
C191	C	0.451350	-0.572200	0.038661
C192	C	0.465276	-0.622585	0.094891
H193	H	0.416937	-0.549440	0.097149
H194	H	0.482533	-0.550163	0.038686
H195	H	0.445126	-0.582823	-0.058003
H196	H	0.471506	-0.611962	0.191546
H197	H	0.434092	-0.644620	0.094885
H198	H	-0.064675	0.089133	0.239253
H199	H	0.817817	-0.499773	0.000112
H200	H	0.763916	-0.658176	0.000098
