data_functionalizedCrystal
_audit_creation_method	'MofGen! by Chris Wilmer'
_symmetry_space_group_name_H-M	'P1'
_symmetry_Int_Tables_number	1
_symmetry_cell_setting	triclinic
loop_
_symmetry_equiv_pos_as_xyz
  x,y,z
_cell_length_a	10.540514
_cell_length_b	10.540539
_cell_length_c	10.868271
_cell_angle_alpha	89.997005
_cell_angle_beta	89.995175
_cell_angle_gamma	84.520326
loop_
_atom_site_label
_atom_site_type_symbol
_atom_site_fract_x
_atom_site_fract_y
_atom_site_fract_z
O1	O	1.685905	0.178749	-0.102331
O2	O	1.316488	0.195638	-0.102330
O3	O	1.509625	0.002486	-0.102329
O4	O	1.492769	0.371900	-0.102332
O5	O	1.509609	0.002478	0.102316
O6	O	1.316472	0.195630	0.102315
O7	O	1.685889	0.178741	0.102313
Zn8	Zn	1.501178	0.187184	0.134806
Zn9	Zn	1.501199	0.187194	-0.134822
O10	O	1.492753	0.371893	0.102313
C11	C	1.269177	0.194374	-0.000007
C12	C	1.128227	0.190605	-0.000007
C13	C	1.057522	0.328745	-0.000011
C14	C	0.910908	0.324871	-0.000481
C15	C	0.935899	0.115482	-0.116648
C16	C	1.082438	0.120336	-0.116740
C17	C	1.082822	0.118283	0.115988
C18	C	0.935844	0.116950	0.117514
C19	C	1.508353	-0.044821	-0.000009
C20	C	1.504571	-0.185769	-0.000016
C21	C	1.359652	-0.369182	-0.000474
C22	C	1.363486	-0.222564	-0.000014
C23	C	1.572458	-0.247437	0.116846
C24	C	1.567643	-0.393981	0.116945
C25	C	1.570531	-0.394491	-0.115775
C26	C	1.571830	-0.247509	-0.117320
C27	C	1.733201	0.180004	-0.000012
C28	C	1.874151	0.183774	-0.000020
C29	C	1.494025	0.419199	-0.000010
C30	C	1.497807	0.560147	-0.000012
N31	N	1.501173	0.187177	0.318820
N32	N	1.501215	0.187192	-0.318836
C33	C	1.501193	0.187192	0.569826
C34	C	1.501178	0.187187	0.430148
H35	H	0.869183	0.378361	-0.084578
C36	C	0.878342	0.178722	-0.234355
N37	N	0.834969	0.226341	-0.323009
C38	C	0.880442	0.184362	0.234082
N39	N	0.838703	0.235137	0.321879
C40	C	0.905748	-0.024518	-0.122070
N41	N	0.883034	-0.129967	-0.126152
H42	H	1.114310	0.164264	0.204415
H43	H	1.672436	-0.441726	-0.116561
H44	H	1.087756	0.383966	-0.083524
H45	H	1.110669	0.170221	-0.204255
C46	C	1.504790	-0.192227	-0.234116
N47	N	1.454282	-0.150593	-0.322086
H48	H	1.086055	0.384780	0.083612
C49	C	1.508848	-0.437100	-0.235435
N50	N	1.462374	-0.469192	-0.325557
H51	H	1.525287	-0.204836	0.203811
C52	C	1.147296	-0.016747	-0.123470
N53	N	1.196141	-0.119996	-0.128550
H54	H	0.868238	0.378585	0.083103
H55	H	0.911658	0.014104	0.124904
H56	H	1.130079	0.016390	0.117114
H57	H	1.304141	-0.399388	0.082860
H58	H	1.310068	-0.179953	-0.083785
C59	C	1.284358	-0.407822	-0.113681
N60	N	1.227644	-0.436938	-0.198949
H61	H	1.309680	-0.180807	0.083898
C62	C	1.499830	-0.432077	0.234953
N63	N	1.448747	-0.460763	0.323836
C64	C	1.710799	-0.214810	-0.126850
N65	N	1.815476	-0.190186	-0.134017
C66	C	1.704715	-0.458800	0.124126
N67	N	1.807957	-0.507616	0.129542
H68	H	1.676067	-0.225092	0.121191
