data_functionalizedCrystal
_audit_creation_method	'MofGen! by Chris Wilmer'
_symmetry_space_group_name_H-M	'P1'
_symmetry_Int_Tables_number	1
_symmetry_cell_setting	triclinic
loop_
_symmetry_equiv_pos_as_xyz
  x,y,z
_cell_length_a	27.732048
_cell_length_b	11.026607
_cell_length_c	9.482944
_cell_angle_alpha	98.185432
_cell_angle_beta	100.500946
_cell_angle_gamma	95.614336
loop_
_atom_site_label
_atom_site_type_symbol
_atom_site_fract_x
_atom_site_fract_y
_atom_site_fract_z
O1	O	0.210265	1.623192	0.120961
O2	O	0.187254	1.270317	0.120956
O3	O	0.129347	1.457710	0.120931
O4	O	0.268172	1.435799	0.120986
O5	O	0.112980	1.424074	-0.120867
O6	O	0.170887	1.236681	-0.120843
O7	O	0.193898	1.589556	-0.120837
Cu8	Cu	0.180898	1.410047	-0.142918
Cu9	Cu	0.200254	1.449826	0.143036
O10	O	0.251805	1.402163	-0.120812
C11	C	0.174825	1.208368	0.000055
C12	C	0.162170	1.073890	0.000052
C13	C	0.197113	0.999432	0.000067
C14	C	0.184034	0.860442	0.000064
C15	C	0.103115	1.440432	0.000028
C16	C	0.049335	1.439045	0.000016
C17	C	-0.280295	1.541072	0.000092
C18	C	-0.482415	1.535935	0.000112
O19	O	-0.505272	1.629231	0.000177
N20	N	-0.511539	1.424816	0.000109
C21	C	-0.490129	1.314974	0.000110
O22	O	-0.519538	1.220345	0.000123
C23	C	-0.288009	1.320115	0.000101
C24	C	-0.258888	1.431239	0.000089
C25	C	-0.251174	1.652188	0.000082
C26	C	-0.200648	1.653470	0.000069
C27	C	-0.179241	1.543636	0.000066
C28	C	-0.208362	1.432521	0.000076
C29	C	-0.266599	1.210277	0.000113
C30	C	-0.216065	1.211572	0.000114
C31	C	-0.186945	1.322696	0.000102
C32	C	-0.136429	1.323970	0.000060
N33	N	-0.107305	1.435089	0.000063
C34	C	-0.128711	1.544922	0.000066
C35	C	-0.596246	1.312283	0.000113
C36	C	-0.646776	1.310997	0.000113
C37	C	-0.639058	1.531958	0.000117
C38	C	-0.588528	1.533241	0.000106
C39	C	-0.567122	1.423402	0.000116
C40	C	-0.022602	1.547606	0.000037
C41	C	0.027928	1.548878	0.000018
C42	C	0.020207	1.327919	0.000022
C43	C	-0.030320	1.326645	0.000033
C44	C	-0.051722	1.436500	0.000046
O45	O	-0.113539	1.230726	0.000011
O46	O	-0.099292	1.639542	0.000085
C47	C	-0.330821	1.539790	0.000105
C48	C	-0.359942	1.428675	0.000115
C49	C	-0.338535	1.318842	0.000112
C50	C	-0.410472	1.427389	0.000115
C51	C	-0.431878	1.537222	0.000117
C52	C	-0.402754	1.648341	0.000120
C53	C	-0.352228	1.649623	0.000107
C54	C	-0.367659	1.207723	0.000109
C55	C	-0.418185	1.206449	0.000120
C56	C	-0.439592	1.316282	0.000123
C57	C	0.278037	1.419442	0.000094
C58	C	0.331818	1.420831	0.000115
C59	C	0.206327	1.651506	0.000066
C60	C	0.218982	1.785985	0.000079
N61	N	0.167285	1.382078	-0.344043
C62	C	0.196237	1.441568	-0.416232
C63	C	0.184907	1.418307	-0.583653
N64	N	0.213864	1.477805	0.344161
H65	H	0.122575	1.034745	0.000074
H66	H	0.151728	1.350154	-0.645791
Br67	Br	0.269160	1.591416	-0.552289
H68	H	-0.420192	1.737770	0.000116
Br69	Br	0.111984	1.268495	-0.447603
Br70	Br	-0.280215	1.801268	0.000087
H71	H	0.236711	1.038582	0.000074
H72	H	-0.040021	1.637061	0.000053
Br73	Br	0.118028	0.795205	0.000021
H74	H	-0.564821	1.623729	0.000098
Br75	Br	-0.306107	1.059456	0.000134
Br76	Br	0.284986	0.851211	0.000077
H77	H	0.051636	1.639372	0.000005
H78	H	-0.176941	1.743959	0.000065
Br79	Br	-0.668119	1.681018	0.000124
H80	H	-0.670483	1.220506	0.000097
H81	H	-0.578822	1.222833	0.000120
H82	H	-0.198639	1.122126	0.000123
Br83	Br	0.251531	1.555172	-0.312672
H84	H	-0.054034	1.236153	0.000002
Br85	Br	0.049268	1.178867	0.000018
H86	H	-0.328522	1.740112	0.000098
Br87	Br	-0.457701	1.055621	0.000125
H88	H	-0.350235	1.118281	0.000110
