data_functionalizedCrystal
_audit_creation_method	'MofGen! by Chris Wilmer'
_symmetry_space_group_name_H-M	'P1'
_symmetry_Int_Tables_number	1
_symmetry_cell_setting	triclinic
loop_
_symmetry_equiv_pos_as_xyz
  x,y,z
_cell_length_a	19.121275
_cell_length_b	19.121063
_cell_length_c	17.640968
_cell_angle_alpha	81.648500
_cell_angle_beta	80.698590
_cell_angle_gamma	89.926756
loop_
_atom_site_label
_atom_site_type_symbol
_atom_site_fract_x
_atom_site_fract_y
_atom_site_fract_z
Zn1	Zn	1.135485	-0.255341	-0.404632
Zn2	Zn	1.107167	-0.393901	-0.280449
Zn3	Zn	0.994943	-0.271763	-0.280001
Zn4	Zn	1.015275	-0.365650	-0.415652
O5	O	1.063218	-0.321664	-0.345183
O6	O	1.229002	-0.278672	-0.383734
O7	O	1.071920	-0.396395	-0.171647
O8	O	1.016929	-0.172305	-0.291734
O9	O	1.208197	-0.380471	-0.292497
O10	O	1.120184	-0.160240	-0.383300
O11	O	0.989470	-0.306660	-0.171318
O12	O	0.900366	-0.279267	-0.302419
O13	O	1.051582	-0.332321	-0.522932
O14	O	0.915304	-0.348245	-0.402082
O15	O	1.139899	-0.251278	-0.514835
O16	O	1.091635	-0.487433	-0.303183
O17	O	1.024123	-0.466677	-0.402517
C18	C	0.882613	-0.312473	-0.353398
C19	C	0.805353	-0.308554	-0.356932
C20	C	1.057034	-0.502277	-0.354110
C21	C	1.054457	-0.579542	-0.357953
C22	C	0.758209	-0.359655	-0.311013
C23	C	0.685617	-0.355972	-0.314343
C24	C	0.660169	-0.301184	-0.363590
C25	C	0.707318	-0.250080	-0.409515
C26	C	0.779910	-0.253767	-0.406188
C27	C	0.441532	-0.287406	-0.376020
C28	C	0.368934	-0.283722	-0.379341
C29	C	0.347237	-0.389615	-0.284171
C30	C	0.419831	-0.393294	-0.280845
C31	C	0.466975	-0.342193	-0.326773
C32	C	0.585967	-0.297416	-0.366994
C33	C	0.541175	-0.345964	-0.323372
C34	C	1.088439	-0.626620	-0.308080
C35	C	1.086020	-0.699218	-0.311698
C36	C	1.049616	-0.724738	-0.365185
C37	C	1.015633	-0.677654	-0.415064
C38	C	1.018056	-0.605057	-0.411449
C39	C	1.040543	-0.943395	-0.378689
C40	C	1.038120	-1.015998	-0.382298
C41	C	1.108509	-1.037557	-0.278933
C42	C	1.110925	-0.964958	-0.275319
C43	C	1.076946	-0.917880	-0.325200
C44	C	1.047141	-0.798945	-0.368883
C45	C	1.079425	-0.843674	-0.321506
C46	C	1.244527	-0.330891	-0.336936
C47	C	1.321790	-0.334823	-0.333422
C48	C	1.101167	-0.286817	-0.547867
C49	C	1.117339	-0.271967	-0.634239
C50	C	1.069447	-0.140343	-0.336237
C51	C	1.072102	-0.063075	-0.332425
C52	C	0.940641	-0.434110	-0.939382
C53	C	0.955852	-0.420149	-1.020541
C54	C	1.047809	-0.335765	-1.012100
C55	C	1.032604	-0.349717	-0.930939
C56	C	0.979020	-0.398891	-0.894587
C57	C	1.070982	-0.314498	-0.886144
C58	C	1.055780	-0.328452	-0.804990
C59	C	1.002200	-0.377625	-0.768632
C60	C	0.963818	-0.412845	-0.813433
C61	C	1.124570	-0.265329	-0.922498
C62	C	1.162948	-0.230109	-0.877702
C63	C	1.147743	-0.244059	-0.796547
C64	C	1.094163	-0.293232	-0.760189
C65	C	1.186125	-0.208839	-0.751746
C66	C	1.170923	-0.222793	-0.670592
C67	C	1.078961	-0.307186	-0.679035
C68	C	1.025457	-0.356327	-0.143283
C69	C	1.009427	-0.370987	-0.056896
H70	H	0.647234	-0.397583	-0.276951
C71	C	0.898080	-0.554407	-0.921729
C72	C	0.881753	-0.488173	-0.899402
H73	H	0.861733	-0.587785	-0.897039
H74	H	0.901621	-0.551139	-0.976463
H75	H	0.941955	-0.569222	-0.906814
H76	H	0.837881	-0.473356	-0.914323
H77	H	0.878205	-0.491441	-0.844656
C78	C	1.028064	-1.014001	-0.516515
C79	C	0.998109	-1.044054	-0.441100
H80	H	1.003366	-1.031328	-0.552812
H81	H	1.024638	-0.964034	-0.521503
H82	H	1.076503	-1.026271	-0.526377
H83	H	0.949671	-1.031780	-0.431235
H84	H	1.001528	-1.094033	-0.436109
C85	C	1.252320	-0.148091	-0.861205
C86	C	1.221846	-0.176058	-0.917664
H87	H	1.288683	-0.114723	-0.885876
H88	H	1.217016	-0.125404	-0.829623
H89	H	1.271939	-0.185180	-0.829832
H90	H	1.202222	-0.138969	-0.949033
H91	H	1.257156	-0.198745	-0.949259
C92	C	0.834597	-0.459176	-0.300926
C93	C	0.786181	-0.419879	-0.256880
H94	H	0.851867	-0.496354	-0.267505
H95	H	0.811705	-0.478562	-0.337340
H96	H	0.873061	-0.429261	-0.327792
H97	H	0.747714	-0.449793	-0.230018
H98	H	0.809073	-0.400493	-0.220452
H99	H	0.308846	-0.431219	-0.246781
C100	C	1.045935	-0.418699	-0.650235
C101	C	0.985487	-0.392964	-0.679426
H102	H	1.035616	-0.428164	-0.595163
H103	H	1.059847	-0.461011	-0.670257
H104	H	1.083335	-0.384369	-0.665477
H105	H	0.948088	-0.427298	-0.664187
H106	H	0.971565	-0.350648	-0.659395
C107	C	0.960071	-0.497473	-1.116863
C108	C	0.913659	-0.458860	-1.069784
H109	H	0.934022	-0.521373	-1.147260
H110	H	0.994151	-0.466191	-1.150124
H111	H	0.983508	-0.531050	-1.085129
H112	H	0.890226	-0.425278	-1.101518
H113	H	0.879566	-0.490145	-1.036519
C114	C	0.951764	-0.855234	-0.389587
C115	C	1.003188	-0.891648	-0.433507
H116	H	0.928705	-0.823282	-0.423432
H117	H	0.917912	-0.888064	-0.358334
H118	H	0.973803	-0.829650	-0.357220
H119	H	0.981147	-0.917236	-0.465871
H120	H	1.037045	-0.858814	-0.464775
H121	H	0.565239	-0.252808	-0.407089
H122	H	0.440545	-0.437907	-0.240742
C123	C	1.157775	-0.655229	-0.206275
C124	C	1.128456	-0.598573	-0.249283
H125	H	1.182484	-0.637913	-0.169981
H126	H	1.120993	-0.687156	-0.179314
H127	H	1.189739	-0.679033	-0.240366
H128	H	1.096488	-0.574771	-0.215193
H129	H	1.165242	-0.566633	-0.276246
H130	H	1.229758	-0.168808	-0.781356
C131	C	1.174952	-0.787214	-0.300940
C132	C	1.123502	-0.750896	-0.256936
H133	H	1.198134	-0.819094	-0.267148
H134	H	1.152916	-0.812863	-0.333244
H135	H	1.208706	-0.754315	-0.332262
H136	H	1.089745	-0.783795	-0.225618
H137	H	1.145539	-0.725246	-0.224618
H138	H	1.017498	-0.819731	-0.412431
H139	H	1.202174	-0.194113	-0.634118
C140	C	1.180275	-0.993561	-0.173525
C141	C	1.150953	-0.936908	-0.216533
H142	H	1.204990	-0.976242	-0.137236
H143	H	1.143495	-1.025486	-0.146557
H144	H	1.212236	-1.017368	-0.207616
H145	H	1.118988	-0.913103	-0.182442
H146	H	1.187737	-0.904970	-0.243503
C147	C	1.022744	-0.740807	-0.524083
C148	C	0.975616	-0.705706	-0.473858
H149	H	0.998035	-0.758127	-0.560376
H150	H	1.059519	-0.708873	-0.551046
H151	H	1.042632	-0.779233	-0.494888
H152	H	0.955733	-0.667276	-0.503052
H153	H	0.938829	-0.737642	-0.446892
C154	C	0.397671	-0.179429	-0.473101
C155	C	0.340962	-0.223501	-0.433486
H156	H	0.380401	-0.142257	-0.506529
H157	H	0.420556	-0.160034	-0.436686
H158	H	0.430512	-0.206107	-0.502966
H159	H	0.308124	-0.196824	-0.403617
H160	H	0.318066	-0.242897	-0.469906
C161	C	1.161789	-0.312370	-1.041210
C162	C	1.141282	-0.249988	-1.011704
H163	H	1.172102	-0.302898	-1.096282
H164	H	1.202789	-0.329827	-1.021401
H165	H	1.124377	-0.346687	-1.025967
H166	H	1.178696	-0.215672	-1.026942
H167	H	1.100277	-0.232521	-1.031521
C168	C	0.948237	-0.591034	-0.513983
C169	C	0.980704	-0.553306	-0.466272
H170	H	0.925177	-0.559085	-0.547828
H171	H	0.983129	-0.615739	-0.543760
H172	H	0.914378	-0.623860	-0.482715
H173	H	1.014567	-0.520484	-0.497540
H174	H	0.945809	-0.528590	-0.436493
C175	C	0.543078	-0.264057	-0.476365
C176	C	0.493342	-0.231231	-0.426500
H177	H	0.575062	-0.229372	-0.507533
H178	H	0.568626	-0.297204	-0.446564
H179	H	0.519276	-0.287848	-0.508824
H180	H	0.517144	-0.207444	-0.394037
H181	H	0.467791	-0.198071	-0.456304
H182	H	0.686594	-0.205474	-0.449616
C183	C	0.921256	-0.533142	-0.795780
C184	C	0.904930	-0.466908	-0.773453
H185	H	0.884909	-0.566520	-0.771089
H186	H	0.924797	-0.529873	-0.850514
H187	H	0.965131	-0.547956	-0.780865
H188	H	0.861057	-0.452091	-0.788374
H189	H	0.901381	-0.470175	-0.718707
H190	H	1.091440	-0.295730	-1.041709
H191	H	0.818294	-0.212155	-0.443580
H192	H	1.136174	-1.075894	-0.238323
C193	C	0.617564	-0.445481	-0.313286
C194	C	0.569148	-0.406184	-0.269241
H195	H	0.634840	-0.482654	-0.279864
H196	H	0.594670	-0.464875	-0.349694
H197	H	0.656024	-0.415564	-0.340161
H198	H	0.530685	-0.436100	-0.242371
H199	H	0.592042	-0.386790	-0.232819
H200	H	1.035311	-0.347211	-0.649435
H201	H	1.109069	-0.822893	-0.277959
