data_functionalizedCrystal
_audit_creation_method	'MofGen! by Chris Wilmer'
_symmetry_space_group_name_H-M	'P1'
_symmetry_Int_Tables_number	1
_symmetry_cell_setting	triclinic
loop_
_symmetry_equiv_pos_as_xyz
  x,y,z
_cell_length_a	17.699083
_cell_length_b	16.109301
_cell_length_c	16.776229
_cell_angle_alpha	89.991926
_cell_angle_beta	90.001114
_cell_angle_gamma	96.627752
loop_
_atom_site_label
_atom_site_type_symbol
_atom_site_fract_x
_atom_site_fract_y
_atom_site_fract_z
O1	O	1.004229	-0.105139	0.066179
O2	O	1.337562	0.228194	0.399512
O3	O	1.670895	0.561527	0.732846
O4	O	0.783870	-0.118818	0.066205
O5	O	1.117203	0.214515	0.399539
O6	O	1.450536	0.547848	0.732872
O7	O	0.900103	0.009063	0.066183
O8	O	1.233436	0.342396	0.399517
O9	O	1.566769	0.675729	0.732850
O10	O	0.887996	-0.233020	0.066201
O11	O	1.221329	0.100313	0.399534
O12	O	1.554662	0.433646	0.732868
O13	O	0.900087	0.009070	-0.066393
O14	O	1.233420	0.342404	0.266940
O15	O	1.566754	0.675737	0.600274
O16	O	0.783854	-0.118811	-0.066371
O17	O	1.117188	0.214523	0.266962
O18	O	1.450521	0.547856	0.600296
O19	O	1.004213	-0.105132	-0.066398
O20	O	1.337546	0.228202	0.266936
O21	O	1.670880	0.561535	0.600269
Zn22	Zn	0.894031	-0.111970	-0.087434
Zn23	Zn	1.227365	0.221363	0.245900
Zn24	Zn	1.560698	0.554697	0.579233
Zn25	Zn	0.894052	-0.111980	0.087242
Zn26	Zn	1.227385	0.221353	0.420575
Zn27	Zn	1.560718	0.554687	0.753908
O28	O	0.887980	-0.233012	-0.066375
O29	O	1.221314	0.100321	0.266958
O30	O	1.554647	0.433654	0.600291
C31	C	0.755664	-0.118324	-0.000080
C32	C	1.088998	0.215009	0.333254
C33	C	1.422331	0.548342	0.666587
C34	C	0.671644	-0.116854	-0.000070
C35	C	1.004977	0.216479	0.333264
C36	C	1.338311	0.549813	0.666597
C37	C	0.899604	0.040040	-0.000105
C38	C	1.232938	0.373374	0.333228
C39	C	1.566271	0.706707	0.666561
C40	C	0.898134	0.132333	-0.000106
C41	C	1.231467	0.465667	0.333227
C42	C	1.564801	0.799000	0.666560
N43	N	0.894023	-0.111962	-0.206645
N44	N	1.227356	0.221371	0.126688
N45	N	1.560690	0.554704	0.460022
C46	C	0.623130	-0.191917	-0.000064
C47	C	0.956464	0.141416	0.333269
C48	C	1.289797	0.474749	0.666602
C49	C	0.544185	-0.190531	-0.000075
C50	C	0.877518	0.142803	0.333258
C51	C	1.210852	0.476136	0.666592
C52	C	0.513755	-0.114080	-0.000085
C53	C	0.847088	0.219254	0.333248
C54	C	1.180422	0.552587	0.666582
C55	C	0.562275	-0.039011	-0.000093
C56	C	0.895608	0.294323	0.333241
C57	C	1.228942	0.627656	0.666574
C58	C	0.641219	-0.040398	-0.000088
C59	C	0.974552	0.292935	0.333246
C60	C	1.307886	0.626269	0.666579
C61	C	0.243904	-0.033414	-0.000113
C62	C	0.577237	0.299920	0.333221
C63	C	0.910571	0.633253	0.666554
C64	C	0.164954	-0.032032	-0.000115
C65	C	0.498287	0.301301	0.333218
C66	C	0.831621	0.634635	0.666552
C67	C	0.146870	-0.183546	-0.000100
C68	C	0.480204	0.149787	0.333234
C69	C	0.813537	0.483121	0.666567
C70	C	0.225814	-0.184934	-0.000095
C71	C	0.559147	0.148400	0.333238
C72	C	0.892481	0.481733	0.666572
C73	C	0.274327	-0.109865	-0.000107
C74	C	0.607660	0.223468	0.333226
C75	C	0.940994	0.556802	0.666560
C76	C	0.359928	-0.111369	-0.000097
C77	C	0.693262	0.221964	0.333236
C78	C	1.026595	0.555297	0.666570
C79	C	0.428155	-0.112575	-0.000089
C80	C	0.761489	0.220759	0.333244
C81	C	1.094822	0.554092	0.666578
C82	C	1.032419	-0.105626	-0.000111
C83	C	1.365752	0.227708	0.333223
C84	C	1.699085	0.561041	0.666556
C85	C	1.116439	-0.107096	-0.000115
C86	C	1.449772	0.226237	0.333218
C87	C	1.783105	0.559571	0.666551
C88	C	0.888478	-0.263990	-0.000085
C89	C	1.221812	0.069343	0.333248
C90	C	1.555145	0.402676	0.666582
C91	C	0.889949	-0.356283	-0.000079
C92	C	1.223282	-0.022950	0.333254
C93	C	1.556615	0.310383	0.666588
C94	C	0.963686	0.354719	-0.000101
C95	C	1.297019	0.688052	0.333232
C96	C	1.630352	1.021385	0.666565
C97	C	0.962298	0.441437	-0.000095
C98	C	1.295632	0.774770	0.333239
C99	C	1.628965	1.108103	0.666572
C100	C	0.824392	0.421325	-0.000081
C101	C	1.157725	0.754658	0.333252
C102	C	1.491059	1.087991	0.666585
C103	C	0.825780	0.334608	-0.000082
C104	C	1.159113	0.667942	0.333251
C105	C	1.492447	1.001275	0.666584
C106	C	0.895429	0.301308	-0.000096
C107	C	1.228763	0.634641	0.333237
C108	C	1.562096	0.967975	0.666570
C109	C	0.892654	0.474742	-0.000089
C110	C	1.225987	0.808076	0.333245
C111	C	1.559320	1.141409	0.666578
C112	C	0.891149	0.568766	-0.000081
C113	C	1.224482	0.902099	0.333252
C114	C	1.557815	1.235432	0.666585
C115	C	0.896934	0.207278	-0.000102
C116	C	1.230268	0.540612	0.333231
C117	C	1.563601	0.873945	0.666564
C118	C	0.945507	-0.055360	-0.248372
C119	C	1.278840	0.277974	0.084962
C120	C	1.612173	0.611307	0.418295
C121	C	0.945511	-0.055359	-0.331824
C122	C	1.278844	0.277974	0.001509
C123	C	1.612177	0.611308	0.334843
C124	C	0.894034	-0.111965	-0.373548
C125	C	1.227368	0.221368	-0.040214
C126	C	1.560701	0.554701	0.293119
C127	C	0.842545	-0.168571	-0.331815
C128	C	1.175879	0.164763	0.001518
C129	C	1.509212	0.498096	0.334852
C130	C	0.842538	-0.168567	-0.248364
C131	C	1.175871	0.164767	0.084969
C132	C	1.509205	0.498100	0.418302
C133	C	0.842573	-0.168587	-0.668362
C134	C	1.175906	0.164746	-0.335029
C135	C	1.509239	0.498080	-0.001696
C136	C	0.842585	-0.168588	-0.751819
C137	C	1.175919	0.164745	-0.418485
C138	C	1.509252	0.498078	-0.085152
C139	C	0.945545	-0.055379	-0.751822
C140	C	1.278879	0.277954	-0.418489
C141	C	1.612212	0.611287	-0.085155
C142	C	0.945538	-0.055375	-0.668371
C143	C	1.278871	0.277958	-0.335038
C144	C	1.612205	0.611291	-0.001705
C145	C	0.894047	-0.111977	-0.626646
C146	C	1.227380	0.221356	-0.293312
C147	C	1.560713	0.554689	0.040021
C148	C	0.894042	-0.111976	-0.536157
C149	C	1.227375	0.221357	-0.202824
C150	C	1.560708	0.554690	0.130509
C151	C	0.894042	-0.111971	-0.464035
C152	C	1.227376	0.221362	-0.130701
C153	C	1.560709	0.554696	0.202632
N154	N	0.894066	-0.111981	0.206453
N155	N	1.227399	0.221352	0.539786
N156	N	1.560733	0.554686	0.873119
H157	H	0.647900	-0.254172	-0.000056
H158	H	0.981233	0.079161	0.333278
H159	H	1.314566	0.412494	0.666611
Cl160	Cl	0.777810	-0.239725	-0.195909
Cl161	Cl	1.111143	0.093609	0.137425
Cl162	Cl	1.444477	0.426942	0.470758
Cl163	Cl	1.010233	0.015800	-0.384282
Cl164	Cl	1.343567	0.349134	-0.050949
Cl165	Cl	1.676900	0.682467	0.282385
Cl166	Cl	0.483199	-0.284901	-0.000063
Cl167	Cl	0.816532	0.048433	0.333270
Cl168	Cl	1.149866	0.381766	0.666603
H169	H	0.140182	0.030227	-0.000124
H170	H	0.473515	0.363561	0.333209
H171	H	0.806848	0.696894	0.666543
Cl172	Cl	1.051244	0.312858	-0.000117
Cl173	Cl	1.384578	0.646191	0.333216
Cl174	Cl	1.717911	0.979525	0.666549
H175	H	0.250585	-0.247188	-0.000083
H176	H	0.583919	0.086146	0.333250
H177	H	0.917252	0.419479	0.666583
H178	H	0.767686	0.448449	-0.000071
H179	H	1.101019	0.781782	0.333262
H180	H	1.434353	1.115115	0.666595
H181	H	0.770194	0.291119	-0.000076
H182	H	1.103527	0.624452	0.333257
H183	H	1.436861	0.957785	0.666591
H184	H	1.017880	0.484921	-0.000097
H185	H	1.351213	0.818254	0.333236
H186	H	1.684546	1.151587	0.666570
H187	H	0.987457	-0.009284	-0.634402
H188	H	1.320791	0.324049	-0.301069
H189	H	1.654124	0.657383	0.032264
Cl190	Cl	0.777845	-0.239745	-0.615913
Cl191	Cl	1.111179	0.093589	-0.282580
Cl192	Cl	1.444512	0.426922	0.050754
Cl193	Cl	1.010227	0.015803	-0.195928
Cl194	Cl	1.343561	0.349137	0.137406
Cl195	Cl	1.676894	0.682470	0.470739
H196	H	0.987470	-0.009288	-0.785804
H197	H	1.320804	0.324045	-0.452470
H198	H	1.654137	0.657378	-0.119137
Cl199	Cl	0.524020	0.057100	-0.000110
Cl200	Cl	0.857354	0.390433	0.333223
Cl201	Cl	1.190687	0.723766	0.666557
H202	H	0.800664	-0.214686	-0.785789
H203	H	1.133998	0.118648	-0.452456
H204	H	1.467331	0.451981	-0.119122
H205	H	0.107361	-0.244671	-0.000094
H206	H	0.440694	0.088663	0.333239
H207	H	0.774028	0.421996	0.666572
Cl208	Cl	0.777827	-0.239731	-0.384266
Cl209	Cl	1.111161	0.093603	-0.050933
Cl210	Cl	1.444494	0.426936	0.282401
H211	H	0.283394	0.027712	-0.000123
H212	H	0.616728	0.361046	0.333210
H213	H	0.950061	0.694379	0.666544
H214	H	0.680719	0.020726	-0.000092
H215	H	1.014052	0.354060	0.333242
H216	H	1.347385	0.687393	0.666575
