data_functionalizedCrystal
_audit_creation_method	'MofGen! by Chris Wilmer'
_symmetry_space_group_name_H-M	'P1'
_symmetry_Int_Tables_number	1
_symmetry_cell_setting	triclinic
loop_
_symmetry_equiv_pos_as_xyz
  x,y,z
_cell_length_a	14.472310
_cell_length_b	16.109301
_cell_length_c	16.109301
_cell_angle_alpha	83.461481
_cell_angle_beta	90.002494
_cell_angle_gamma	90.010306
loop_
_atom_site_label
_atom_site_type_symbol
_atom_site_fract_x
_atom_site_fract_y
_atom_site_fract_z
O1	O	-0.076785	-1.103143	-0.106861
O2	O	0.423215	-0.603143	0.393139
O3	O	-0.076801	-0.861081	-0.120161
O4	O	0.423199	-0.361081	0.379839
O5	O	-0.076783	-0.988761	0.007520
O6	O	0.423217	-0.488761	0.507520
O7	O	-0.076803	-0.975462	-0.234542
O8	O	0.423197	-0.475462	0.265458
O9	O	0.076899	-0.988729	0.007512
O10	O	0.576899	-0.488729	0.507512
O11	O	0.076881	-0.861048	-0.120168
O12	O	0.576881	-0.361048	0.379832
O13	O	0.076897	-1.103110	-0.106869
O14	O	0.576897	-0.603110	0.393131
Cu15	Cu	0.090921	-0.982076	-0.113519
Cu16	Cu	0.590921	-0.482076	0.386481
Cu17	Cu	-0.090825	-0.982115	-0.113510
Cu18	Cu	0.409175	-0.482115	0.386490
O19	O	0.076879	-0.975429	-0.234550
O20	O	0.576879	-0.475429	0.265450
C21	C	0.000039	-0.830090	-0.119626
C22	C	0.500039	-0.330090	0.380374
C23	C	0.000033	-0.737794	-0.118011
C24	C	0.500033	-0.237794	0.381989
N25	N	0.218752	-0.982055	-0.113525
N26	N	0.718752	-0.482055	0.386475
N27	N	-0.218656	-0.982143	-0.113498
N28	N	0.281344	-0.482143	0.386502
C29	C	0.592844	-0.982114	-0.113507
C30	C	1.092844	-0.482114	0.386493
C31	C	0.553668	-0.913565	-0.181597
C32	C	1.053668	-0.413565	0.318403
C33	C	0.446580	-0.913723	-0.181846
C34	C	0.946580	-0.413723	0.318154
C35	C	0.407252	-0.982084	-0.113516
C36	C	0.907252	-0.482084	0.386484
C37	C	0.446093	-1.068828	-0.132440
C38	C	0.946093	-0.568828	0.367560
C39	C	0.553215	-1.068443	-0.132924
C40	C	1.053215	-0.568443	0.367076
C41	C	0.553379	-0.964692	-0.026291
C42	C	1.053379	-0.464692	0.473709
C43	C	0.446251	-0.962702	-0.026873
C44	C	0.946251	-0.462702	0.473127
C45	C	0.302364	-0.982072	-0.113519
C46	C	0.802364	-0.482072	0.386481
C47	C	0.697732	-0.982131	-0.113506
C48	C	1.197732	-0.482131	0.386494
C49	C	0.000058	-0.988206	0.038491
C50	C	0.500058	-0.488206	0.538491
C51	C	0.000059	-0.986591	0.130786
C52	C	0.500059	-0.486591	0.630786
C53	C	0.000055	-1.134101	-0.107404
C54	C	0.500055	-0.634101	0.392596
C55	C	0.000055	-1.226397	-0.109019
C56	C	0.500055	-0.726397	0.390981
C57	C	0.000038	-0.515522	-0.190018
C58	C	0.500038	-0.015522	0.309982
C59	C	0.000044	-0.428801	-0.188494
C60	C	0.500044	0.071199	0.311506
C61	C	0.000053	-0.448676	-0.037006
C62	C	0.500053	0.051324	0.462994
C63	C	0.000053	-0.535394	-0.038530
C64	C	0.500053	-0.035394	0.461470
C65	C	0.000041	-0.568815	-0.115039
C66	C	0.500041	-0.068815	0.384961
C67	C	0.000047	-0.395376	-0.111990
C68	C	0.500047	0.104624	0.388010
C69	C	0.000053	-0.301350	-0.110337
C70	C	0.500053	0.198650	0.389663
C71	C	0.000036	-0.662847	-0.116693
C72	C	0.500036	-0.162847	0.383307
C73	C	0.000036	-0.975984	-0.265521
C74	C	0.500036	-0.475984	0.234479
C75	C	0.000028	-0.977600	-0.357816
C76	C	0.500028	-0.477600	0.142184
C77	C	0.000049	-1.058599	0.353059
C78	C	0.500049	-0.558599	0.853059
C79	C	0.000042	-1.057075	0.439779
C80	C	0.500042	-0.557075	0.939779
C81	C	0.000036	-0.905586	0.419905
C82	C	0.500036	-0.405586	0.919905
C83	C	0.000037	-0.907111	0.333186
C84	C	0.500037	-0.407111	0.833186
C85	C	0.000048	-0.983620	0.299766
C86	C	0.500048	-0.483620	0.799766
C87	C	0.000040	-0.980571	0.473205
C88	C	0.500040	-0.480571	0.973205
C89	C	0.000031	-0.978918	0.567231
C90	C	0.500031	-0.478918	1.067231
C91	C	0.000055	-0.985273	0.205734
C92	C	0.500055	-0.485273	0.705734
H93	H	0.420321	-0.849244	-0.170574
H94	H	0.920321	-0.349244	0.329426
H95	H	0.578186	-1.083799	-0.196529
H96	H	1.078186	-0.583799	0.303471
H97	H	0.579127	-1.121043	-0.085284
H98	H	1.079127	-0.621043	0.414716
H99	H	0.000028	-0.843295	0.447127
H100	H	0.500028	-0.343295	0.947127
H101	H	0.000033	-0.846050	0.289792
H102	H	0.500033	-0.346050	0.789792
Br103	Br	0.000065	-1.162431	0.307705
Br104	Br	0.500065	-0.662431	0.807705
Br105	Br	0.000044	-0.356477	-0.290256
Br106	Br	0.500044	0.143523	0.209744
Br107	Br	0.000038	-1.158837	0.512103
Br108	Br	0.500038	-0.658837	1.012103
Br109	Br	0.403640	-1.155881	-0.051977
Br110	Br	0.903640	-0.655881	0.448023
Br111	Br	0.000065	-0.403314	0.066823
Br112	Br	0.500065	0.096686	0.566823
H113	H	0.419252	-1.084551	-0.195320
H114	H	0.919252	-0.584551	0.304680
Br115	Br	0.000025	-0.560876	-0.293851
Br116	Br	0.500025	-0.060876	0.206149
H117	H	0.579453	-0.848877	-0.170512
H118	H	1.079453	-0.348877	0.329488
H119	H	0.580573	-0.924534	-0.245955
H120	H	1.080573	-0.424534	0.254045
Br121	Br	0.403839	-0.932223	-0.289732
Br122	Br	0.903839	-0.432223	0.210268
H123	H	0.580444	-0.902813	-0.008088
H124	H	1.080444	-0.402813	0.491912
Br125	Br	0.401652	-1.040524	0.061537
Br126	Br	0.901652	-0.540524	0.561537
Br127	Br	0.403945	-0.856347	-0.002932
Br128	Br	0.903945	-0.356347	0.497068
H129	H	0.578712	-1.014681	0.024379
H130	H	1.078712	-0.514681	0.524379
H131	H	0.000058	-0.578788	0.022530
H132	H	0.500058	-0.078788	0.522530
