data_functionalizedCrystal
_audit_creation_method	'MofGen! by Chris Wilmer'
_symmetry_space_group_name_H-M	'P1'
_symmetry_Int_Tables_number	1
_symmetry_cell_setting	triclinic
loop_
_symmetry_equiv_pos_as_xyz
  x,y,z
_cell_length_a	19.188930
_cell_length_b	15.944551
_cell_length_c	15.021413
_cell_angle_alpha	89.996935
_cell_angle_beta	90.021167
_cell_angle_gamma	83.321759
loop_
_atom_site_label
_atom_site_type_symbol
_atom_site_fract_x
_atom_site_fract_y
_atom_site_fract_z
O1	O	-0.926420	-0.104855	-0.074320
O2	O	-0.593087	0.228479	0.259013
O3	O	-0.259753	0.561812	0.592346
O4	O	-0.723145	-0.118971	-0.074259
O5	O	-0.389812	0.214362	0.259074
O6	O	-0.056478	0.547695	0.592407
O7	O	-0.830333	0.010383	-0.074283
O8	O	-0.497000	0.343716	0.259050
O9	O	-0.163667	0.677049	0.592383
O10	O	-0.819231	-0.234209	-0.074296
O11	O	-0.485898	0.099125	0.259037
O12	O	-0.152565	0.432458	0.592371
O13	O	-0.830316	0.010364	0.073781
O14	O	-0.496983	0.343697	0.407114
O15	O	-0.163650	0.677031	0.740447
O16	O	-0.723128	-0.118990	0.073805
O17	O	-0.389795	0.214343	0.407138
O18	O	-0.056461	0.547677	0.740471
O19	O	-0.926403	-0.104873	0.073744
O20	O	-0.593069	0.228460	0.407077
O21	O	-0.259736	0.561794	0.740411
Zn22	Zn	-0.824763	-0.111934	0.097283
Zn23	Zn	-0.491429	0.221399	0.430616
Zn24	Zn	-0.158096	0.554732	0.763949
Zn25	Zn	-0.824785	-0.111910	-0.097798
Zn26	Zn	-0.491452	0.221423	0.235535
Zn27	Zn	-0.158118	0.554757	0.568868
O28	O	-0.819214	-0.234227	0.073768
O29	O	-0.485881	0.099106	0.407101
O30	O	-0.152548	0.432440	0.740435
C31	C	-0.697124	-0.118524	-0.000219
C32	C	-0.363791	0.214810	0.333114
C33	C	-0.030458	0.548143	0.666447
C34	C	-0.619616	-0.117151	-0.000196
C35	C	-0.286283	0.216182	0.333137
C36	C	0.047050	0.549515	0.666471
C37	C	-0.952423	-0.105321	-0.000298
C38	C	-0.619090	0.228012	0.333035
C39	C	-0.285757	0.561346	0.666369
C40	C	-1.029932	-0.106693	-0.000327
C41	C	-0.696598	0.226640	0.333006
C42	C	-0.363265	0.559973	0.666340
C43	C	-0.574889	-0.193052	-0.000214
C44	C	-0.241555	0.140281	0.333119
C45	C	0.091778	0.473615	0.666453
C46	C	-0.502061	-0.191763	-0.000224
C47	C	-0.168728	0.141571	0.333110
C48	C	0.164605	0.474904	0.666443
C49	C	-0.473965	-0.114568	-0.000233
C50	C	-0.140632	0.218765	0.333100
C51	C	0.192701	0.552098	0.666433
C52	C	-0.518703	-0.038658	-0.000210
C53	C	-0.185369	0.294676	0.333123
C54	C	0.147964	0.628009	0.666456
C55	C	-0.591528	-0.039949	-0.000192
C56	C	-0.258195	0.293384	0.333142
C57	C	0.075138	0.626717	0.666475
N58	N	-0.365838	-0.055557	-0.050659
N59	N	-0.032505	0.277777	0.282675
N60	N	0.300828	0.611110	0.616008
N61	N	-0.296657	-0.054335	-0.050678
N62	N	0.036677	0.278998	0.282655
N63	N	0.370010	0.612332	0.615988
C64	C	-0.254547	-0.110673	-0.000288
C65	C	0.078787	0.222661	0.333046
C66	C	0.412120	0.555994	0.666379
N67	N	-0.284230	-0.168291	0.050112
N68	N	0.049103	0.165042	0.383446
N69	N	0.382436	0.498376	0.716779
N70	N	-0.353418	-0.169515	0.050128
N71	N	-0.020085	0.163818	0.383461
N72	N	0.313248	0.497152	0.716795
C73	C	-0.394999	-0.113160	-0.000253
C74	C	-0.061666	0.220174	0.333080
C75	C	0.271668	0.553507	0.666414
C76	C	-0.130851	-0.185181	-0.000315
C77	C	0.202483	0.148153	0.333019
C78	C	0.535816	0.481486	0.666352
C79	C	-0.058023	-0.183888	-0.000319
C80	C	0.275311	0.149445	0.333014
C81	C	0.608644	0.482778	0.666348
C82	C	-0.074666	-0.030781	-0.000315
C83	C	0.258668	0.302552	0.333019
C84	C	0.592001	0.635885	0.666352
C85	C	-0.147492	-0.032076	-0.000302
C86	C	0.185841	0.301257	0.333032
C87	C	0.519174	0.634591	0.666365
C88	C	-0.175580	-0.109278	-0.000306
C89	C	0.157753	0.224055	0.333028
C90	C	0.491087	0.557389	0.666361
C91	C	-0.829864	0.041666	-0.000251
C92	C	-0.496531	0.374999	0.333082
C93	C	-0.163197	0.708332	0.666416
C94	C	-0.828482	0.134906	-0.000250
C95	C	-0.495149	0.468240	0.333083
C96	C	-0.161816	0.801573	0.666417
C97	C	-0.819684	-0.265510	-0.000266
C98	C	-0.486350	0.067823	0.333067
C99	C	-0.153017	0.401157	0.666400
C100	C	-0.821066	-0.358751	-0.000273
C101	C	-0.487732	-0.025418	0.333060
C102	C	-0.154399	0.307916	0.666394
N103	N	-0.824752	-0.111951	0.230420
N104	N	-0.491419	0.221383	0.563754
N105	N	-0.158086	0.554716	0.897087
C106	C	-0.758739	0.349502	-0.000242
C107	C	-0.425406	0.682836	0.333092
C108	C	-0.092073	1.016169	0.666425
C109	C	-0.791117	0.410631	0.072753
C110	C	-0.457784	0.743965	0.406087
C111	C	-0.124450	1.077298	0.739420
C112	C	-0.825983	0.305623	-0.000256
C113	C	-0.492649	0.638956	0.333077
C114	C	-0.159316	0.972290	0.666410
C115	C	-0.791150	0.410633	-0.073226
C116	C	-0.457816	0.743967	0.260107
C117	C	-0.124483	1.077300	0.593440
C118	C	-0.823563	0.470527	-0.000266
C119	C	-0.490230	0.803860	0.333067
C120	C	-0.156896	1.137193	0.666401
C121	C	-0.858379	0.365524	0.072799
C122	C	-0.525046	0.698857	0.406132
C123	C	-0.191712	1.032191	0.739466
C124	C	-0.858402	0.365519	-0.073246
C125	C	-0.525069	0.698853	0.260087
C126	C	-0.191736	1.032186	0.593420
C127	C	-0.890829	0.426631	-0.000234
C128	C	-0.557496	0.759965	0.333100
C129	C	-0.224162	1.093298	0.666433
C130	C	-0.827374	0.210626	-0.000250
C131	C	-0.494041	0.543959	0.333084
C132	C	-0.160708	0.877292	0.666417
C133	C	-0.822176	0.565522	-0.000266
C134	C	-0.488843	0.898856	0.333067
C135	C	-0.155510	1.232189	0.666401
N136	N	-0.824801	-0.111887	-0.230936
N137	N	-0.491468	0.221446	0.102398
N138	N	-0.158134	0.554779	0.435731
C139	C	-0.775181	-0.171736	0.470115
C140	C	-0.441848	0.161598	0.803448
C141	C	-0.108514	0.494931	1.136781
C142	C	-0.838271	-0.187807	0.529429
C143	C	-0.504938	0.145527	0.862763
C144	C	-0.171604	0.478860	1.196096
C145	C	-0.824770	-0.111929	0.412027
C146	C	-0.491437	0.221404	0.745361
C147	C	-0.158104	0.554737	1.078694
C148	C	-0.761697	-0.095877	0.529455
C149	C	-0.428364	0.237456	0.862788
C150	C	-0.095031	0.570789	1.196121
C151	C	-0.824782	-0.111911	0.587451
C152	C	-0.491449	0.221422	0.920785
C153	C	-0.158115	0.554756	1.254118
C154	C	-0.887892	-0.128038	0.470035
C155	C	-0.554559	0.205295	0.803369
C156	C	-0.221225	0.538629	1.136702
C157	C	-0.811277	-0.036076	0.470056
C158	C	-0.477944	0.297258	0.803389
C159	C	-0.144610	0.630591	1.136722
C160	C	-0.874413	-0.052114	0.529343
C161	C	-0.541079	0.281219	0.862676
C162	C	-0.207746	0.614552	1.196010
C163	C	-0.824763	-0.111942	0.310970
C164	C	-0.491429	0.221391	0.644303
C165	C	-0.158096	0.554724	0.977637
C166	C	-0.824797	-0.111898	0.688507
C167	C	-0.491463	0.221436	1.021840
C168	C	-0.158130	0.554769	1.355173
H169	H	-0.597753	-0.255916	-0.000219
H170	H	-0.264419	0.077418	0.333114
H171	H	0.068914	0.410751	0.666448
H172	H	-0.465637	-0.253572	-0.000236
H173	H	-0.132304	0.079761	0.333098
H174	H	0.201030	0.413095	0.666431
F175	F	-0.488800	0.043498	-0.000216
F176	F	-0.155467	0.376831	0.333117
F177	F	0.177867	0.710164	0.666450
H178	H	-0.051791	0.032072	-0.000378
H179	H	0.281543	0.365405	0.332956
H180	H	0.614876	0.698739	0.666289
H181	H	-0.708353	-0.082309	0.555557
H182	H	-0.375020	0.251025	0.888890
H183	H	-0.041686	0.584358	1.222223
H184	H	-0.762707	0.430611	-0.134942
H185	H	-0.429374	0.763945	0.198392
H186	H	-0.096040	1.097278	0.531725
H187	H	-0.941248	-0.141684	0.444045
H188	H	-0.607915	0.191649	0.777378
H189	H	-0.274582	0.524983	1.110712
H190	H	-0.021605	-0.245698	-0.000328
H191	H	0.311728	0.087635	0.333005
H192	H	0.645061	0.420968	0.666338
H193	H	-0.627946	0.021860	-0.000178
H194	H	-0.294613	0.355194	0.333156
H195	H	0.038720	0.688527	0.666489
F196	F	-0.685785	0.305695	-0.000129
F197	F	-0.352452	0.639028	0.333204
F198	F	-0.019118	0.972361	0.666538
H199	H	-0.733287	-0.222353	0.444109
H200	H	-0.399954	0.110981	0.777442
H201	H	-0.066620	0.444314	1.110775
F202	F	-0.929291	0.014006	0.563127
F203	F	-0.595957	0.347340	0.896460
F204	F	-0.262624	0.680673	1.229793
F205	F	-0.195097	0.048709	-0.000287
F206	F	0.138236	0.382043	0.333046
F207	F	0.471570	0.715376	0.666380
H208	H	-0.153721	-0.248043	-0.000305
H209	H	0.179612	0.085290	0.333028
H210	H	0.512946	0.418623	0.666361
H211	H	-0.762669	0.430626	0.134481
H212	H	-0.429335	0.763959	0.467815
H213	H	-0.096002	1.097292	0.801148
F214	F	-0.895516	0.339528	0.153548
F215	F	-0.562182	0.672861	0.486881
F216	F	-0.228849	1.006195	0.820214
H217	H	-0.946693	0.459999	-0.000209
H218	H	-0.613360	0.793332	0.333124
H219	H	-0.280026	1.126666	0.666458
H220	H	-0.886826	0.345503	-0.134978
H221	H	-0.553493	0.678836	0.198356
H222	H	-0.220160	1.012170	0.531689
F223	F	-0.853203	-0.271641	0.563518
F224	F	-0.519870	0.061692	0.896851
F225	F	-0.186536	0.395026	1.230185
H226	H	-0.799834	0.028043	0.443955
H227	H	-0.466501	0.361377	0.777289
H228	H	-0.133168	0.694710	1.110622
