data_functionalizedCrystal
_audit_creation_method	'MofGen! by Chris Wilmer'
_symmetry_space_group_name_H-M	'P1'
_symmetry_Int_Tables_number	1
_symmetry_cell_setting	triclinic
loop_
_symmetry_equiv_pos_as_xyz
  x,y,z
_cell_length_a	19.188933
_cell_length_b	19.188924
_cell_length_c	13.101039
_cell_angle_alpha	93.348752
_cell_angle_beta	86.655175
_cell_angle_gamma	83.143767
loop_
_atom_site_label
_atom_site_type_symbol
_atom_site_fract_x
_atom_site_fract_y
_atom_site_fract_z
O1	O	0.929993	0.083310	-0.085185
O2	O	1.429993	0.583310	0.414815
O3	O	0.726682	0.095043	-0.085195
O4	O	1.226682	0.595043	0.414805
O5	O	0.834207	-0.012479	-0.085177
O6	O	1.334207	0.487521	0.414823
O7	O	0.822469	0.190832	-0.085202
O8	O	1.322469	0.690832	0.414798
O9	O	0.826492	-0.004752	0.085251
O10	O	1.326492	0.495248	0.585251
O11	O	0.718967	0.102770	0.085234
O12	O	1.218967	0.602770	0.585234
O13	O	0.922278	0.091038	0.085244
O14	O	1.422278	0.591038	0.585244
Zn15	Zn	0.819398	0.098131	0.112298
Zn16	Zn	1.319398	0.598131	0.612298
Zn17	Zn	0.829563	0.087950	-0.112249
Zn18	Zn	1.329563	0.587950	0.387751
O19	O	0.814754	0.198559	0.085226
O20	O	1.314754	0.698559	0.585226
C21	C	0.696814	0.098526	0.000018
C22	C	1.196814	0.598526	0.500018
C23	C	0.619310	0.097385	0.000015
C24	C	1.119310	0.597385	0.500015
C25	C	0.070259	0.085028	-0.092874
C26	C	0.570259	0.585028	0.407126
C27	C	0.143084	0.086096	-0.092878
C28	C	0.643084	0.586096	0.407122
C29	C	0.175295	0.090845	0.000022
C30	C	0.675295	0.590845	0.500022
C31	C	0.134679	0.094509	0.092934
C32	C	0.634679	0.594509	0.592934
C33	C	0.061857	0.093434	0.092935
C34	C	0.561857	0.593434	0.592935
N35	N	0.281184	0.135399	0.069167
N36	N	0.781184	0.635399	0.569167
N37	N	0.350362	0.136422	0.069160
N38	N	0.850362	0.636422	0.569160
C39	C	0.394704	0.094083	0.000024
C40	C	0.894704	0.594083	0.500024
N41	N	0.367254	0.050692	-0.069120
N42	N	0.867254	0.550692	0.430880
N43	N	0.298069	0.049672	-0.069115
N44	N	0.798069	0.549672	0.430885
C45	C	0.254258	0.092011	0.000031
C46	C	0.754258	0.592011	0.500031
C47	C	0.514277	0.091573	-0.092886
C48	C	1.014277	0.591573	0.407114
C49	C	0.587103	0.092637	-0.092886
C50	C	1.087103	0.592637	0.407114
C51	C	0.578695	0.101057	0.092928
C52	C	1.078695	0.601057	0.592928
C53	C	0.505872	0.099986	0.092925
C54	C	1.005872	0.599986	0.592925
C55	C	0.473666	0.095247	0.000016
C56	C	0.973666	0.595247	0.500016
C57	C	0.829970	-0.034626	0.000038
C58	C	1.329970	0.465374	0.500038
C59	C	0.828831	-0.112131	0.000040
C60	C	1.328831	0.387869	0.500040
C61	C	0.832505	-0.152742	-0.092860
C62	C	1.332505	0.347258	0.407140
C63	C	0.831425	-0.225565	-0.092868
C64	C	1.331425	0.274435	0.407132
C65	C	0.826686	-0.257776	0.000030
C66	C	1.326686	0.242224	0.500030
C67	C	0.823008	-0.217155	0.092943
C68	C	1.323008	0.282845	0.592943
C69	C	0.824080	-0.144332	0.092948
C70	C	1.324080	0.355668	0.592948
N71	N	0.861604	-0.374304	0.069174
N72	N	1.361604	0.125696	0.569174
N73	N	0.860586	-0.443483	0.069163
N74	N	1.360586	0.056517	0.569163
C75	C	0.823452	-0.477185	0.000020
C76	C	1.323452	0.022815	0.500020
N77	N	0.787383	-0.439098	-0.069127
N78	N	1.287383	0.060902	0.430873
N79	N	0.788404	-0.369913	-0.069118
N80	N	1.288404	0.130087	0.430882
C81	C	0.825522	-0.336739	0.000035
C82	C	1.325522	0.163261	0.500035
C83	C	0.825955	-0.596760	-0.092896
C84	C	1.325955	-0.096760	0.407104
C85	C	0.824871	-0.669583	-0.092900
C86	C	1.324871	-0.169583	0.407100
C87	C	0.816460	-0.661173	0.092914
C88	C	1.316460	-0.161173	0.592914
C89	C	0.817537	-0.588350	0.092916
C90	C	1.317537	-0.088350	0.592916
C91	C	0.822288	-0.556148	0.000008
C92	C	1.322288	-0.056148	0.500008
C93	C	0.952147	0.087554	0.000028
C94	C	1.452147	0.587554	0.500028
C95	C	1.029651	0.088695	0.000025
C96	C	1.529651	0.588695	0.500025
C97	C	0.818991	0.220707	0.000009
C98	C	1.318991	0.720707	0.500009
C99	C	0.820130	0.298211	-0.000000
C100	C	1.320130	0.798211	0.500000
N101	N	0.812466	0.105079	0.265545
N102	N	1.312466	0.605079	0.765545
N103	N	0.836500	0.080996	-0.265496
N104	N	1.336500	0.580996	0.234504
C105	C	0.803035	0.114538	0.474586
C106	C	1.303035	0.614538	0.974586
C107	C	0.845929	0.071539	0.525469
C108	C	1.345929	0.571539	1.025469
C109	C	0.840681	0.076803	0.641787
C110	C	1.340681	0.576803	1.141787
C111	C	0.808282	0.109275	0.358258
C112	C	1.308282	0.609275	0.858258
H113	H	0.472808	0.102975	0.168574
H114	H	0.972808	0.602975	0.668574
H115	H	0.886593	0.030775	0.481673
H116	H	1.386593	0.530775	0.981673
N117	N	0.835174	-0.267068	-0.187760
N118	N	1.335174	0.232932	0.312240
N119	N	0.786311	-0.302057	-0.208497
N120	N	1.286311	0.197943	0.291503
H121	H	0.788958	-0.331368	-0.275514
H122	H	1.288958	0.168632	0.224486
N123	N	0.167579	0.099384	0.187826
N124	N	0.667579	0.599384	0.687826
N125	N	0.150042	0.151292	0.250019
N126	N	0.650042	0.651292	0.750019
H127	H	0.173279	0.154736	0.317039
H128	H	0.673279	0.654736	0.817039
N129	N	0.818160	-0.250064	0.187828
N130	N	1.318160	0.249936	0.687828
N131	N	0.817203	-0.315084	0.187812
N132	N	1.317203	0.184916	0.687812
H133	H	0.813776	-0.338326	0.254827
H134	H	1.313776	0.161674	0.754827
H135	H	0.028793	0.096423	0.168587
H136	H	0.528793	0.596423	0.668587
H137	H	0.762374	0.155300	0.518377
H138	H	1.262374	0.655300	1.018377
H139	H	0.044043	0.081166	-0.168528
H140	H	0.544043	0.581166	0.331472
N141	N	0.828615	-0.711058	-0.187811
N142	N	1.328615	-0.211058	0.312189
N143	N	0.832854	-0.682293	-0.270750
N144	N	1.332854	-0.182293	0.229250
H145	H	0.835498	-0.711585	-0.337784
H146	H	1.335498	-0.211585	0.162216
N147	N	0.184564	0.082346	-0.187785
N148	N	0.684564	0.582346	0.312215
N149	N	0.155801	0.078111	-0.270730
N150	N	0.655801	0.578111	0.229270
H151	H	0.185095	0.075462	-0.337760
H152	H	0.685095	0.575462	0.162240
H153	H	0.836371	-0.126528	-0.168513
H154	H	1.336371	0.373472	0.331487
N155	N	0.481386	0.086727	-0.187795
N156	N	0.981386	0.586727	0.312205
N157	N	0.517657	0.083445	-0.270737
N158	N	1.017657	0.583445	0.229263
H159	H	0.494431	0.080021	-0.337769
H160	H	0.994431	0.580021	0.162231
H161	H	0.812595	-0.687397	0.168554
H162	H	1.312595	-0.187397	0.668554
H163	H	0.604922	0.104921	0.168569
H164	H	1.104922	0.604921	0.668569
N165	N	0.628576	0.088881	-0.187795
N166	N	1.128576	0.588881	0.312205
N167	N	0.599809	0.084648	-0.270737
N168	N	1.099809	0.584648	0.229263
H169	H	0.629100	0.081995	-0.337769
H170	H	1.129100	0.581995	0.162231
N171	N	0.830805	-0.563848	-0.187783
N172	N	1.330805	-0.063848	0.312217
N173	N	0.881548	-0.530739	-0.208504
N174	N	1.381548	-0.030739	0.291496
H175	H	0.884973	-0.507494	-0.275517
H176	H	1.384973	-0.007494	0.224483
N177	N	0.820323	-0.102855	0.187858
N178	N	1.320323	0.397145	0.687858
N179	N	0.816085	-0.131618	0.270799
N180	N	1.316085	0.368382	0.770799
H181	H	0.813432	-0.102324	0.337832
H182	H	1.313432	0.397676	0.837832
N183	N	0.813786	-0.546873	0.187822
N184	N	1.313786	-0.046873	0.687822
N185	N	0.809551	-0.575638	0.270762
N186	N	1.309551	-0.075638	0.770762
H187	H	0.806899	-0.546345	0.337796
H188	H	1.306899	-0.046345	0.837796
