data_functionalizedCrystal
_audit_creation_method	'MofGen! by Chris Wilmer'
_symmetry_space_group_name_H-M	'P1'
_symmetry_Int_Tables_number	1
_symmetry_cell_setting	triclinic
loop_
_symmetry_equiv_pos_as_xyz
  x,y,z
_cell_length_a	15.297979
_cell_length_b	15.297510
_cell_length_c	12.759393
_cell_angle_alpha	99.643819
_cell_angle_beta	99.711079
_cell_angle_gamma	69.201025
loop_
_atom_site_label
_atom_site_type_symbol
_atom_site_fract_x
_atom_site_fract_y
_atom_site_fract_z
Zn1	Zn	1.357854	0.124374	0.893286
Zn2	Zn	1.330802	0.279938	0.743477
Zn3	Zn	1.202300	0.151312	0.691633
Zn4	Zn	1.175353	0.306741	0.893120
O5	O	1.266577	0.215591	0.805379
O6	O	1.484421	0.122520	0.895180
O7	O	1.313713	0.262932	0.589581
O8	O	1.245533	0.017587	0.696756
O9	O	1.464546	0.236812	0.785115
O10	O	1.359818	-0.002204	0.844909
O11	O	1.219303	0.168431	0.551492
O12	O	1.068570	0.194420	0.696595
O13	O	1.199606	0.282493	1.040160
O14	O	1.048772	0.308613	0.844626
O15	O	1.333688	0.148509	1.040283
O16	O	1.287583	0.413645	0.784954
O17	O	1.173375	0.433337	0.894896
C18	C	1.024923	0.257349	0.764967
C19	C	0.921539	0.275235	0.747708
C20	C	0.862636	0.343050	0.682172
C21	C	0.765501	0.359857	0.665961
C22	C	0.727260	0.308846	0.715278
C23	C	0.786164	0.241025	0.780810
C24	C	0.883307	0.224221	0.797029
C25	C	0.747931	0.190018	0.830135
C26	C	0.806835	0.122197	0.895667
C27	C	0.903969	0.105396	0.911882
C28	C	0.942210	0.156407	0.862565
C29	C	0.650787	0.206821	0.813916
C30	C	0.671458	0.087993	0.928774
C31	C	0.768593	0.071186	0.944984
C32	C	1.224645	0.457233	0.845560
C33	C	1.206791	0.560594	0.862799
C34	C	1.394518	0.810780	0.682645
C35	C	1.411292	0.713668	0.666442
C36	C	1.360169	0.675394	0.715530
C37	C	1.292268	0.734243	0.780823
C38	C	1.275487	0.831366	0.797020
C39	C	1.241137	0.695980	0.829906
C40	C	1.173236	0.754830	0.895198
C41	C	1.156459	0.851943	0.911393
C42	C	1.207582	0.890216	0.862305
C43	C	1.257918	0.598858	0.813709
C44	C	1.138887	0.619444	0.928084
C45	C	1.122113	0.716556	0.944286
C46	C	1.509175	0.173671	0.845949
C47	C	1.612555	0.155808	0.863237
C48	C	1.266659	0.215486	1.079408
C49	C	1.266693	0.215441	1.196182
C50	C	1.308690	0.973003	0.765078
C51	C	1.326614	0.869630	0.747930
C52	C	1.266561	0.215620	0.532414
C53	C	1.266752	0.215371	0.415626
C54	C	1.336519	0.145669	1.251110
C55	C	1.336547	0.145632	1.360832
C56	C	1.196920	0.285147	1.360690
C57	C	1.196889	0.285180	1.250969
C58	C	1.406324	0.075930	1.196324
C59	C	1.476156	0.006153	1.251252
C60	C	1.476184	0.006115	1.360974
C61	C	1.406380	0.075855	1.415768
H62	H	0.602837	0.262042	0.760561
O63	O	1.449663	0.852072	0.629737
H64	H	1.400406	0.903595	0.576693
H65	H	0.640323	0.046457	0.968933
H66	H	1.140018	0.341983	1.206241
H67	H	0.893782	0.384579	0.642030
O68	O	1.083214	0.915415	0.981804
H69	H	1.080128	0.989377	0.984810
O70	O	1.189484	0.994964	0.879766
H71	H	1.255218	1.008373	0.917042
H72	H	1.140088	0.341926	1.405312
O73	O	0.622495	0.326956	0.697783
H74	H	0.587961	0.382677	0.643920
H75	H	1.021305	0.142723	0.875757
H76	H	1.466575	0.665757	0.613280
H77	H	1.313203	0.550951	0.760546
O78	O	1.378264	0.570651	0.698071
H79	H	1.434075	0.536158	0.644433
O80	O	1.551444	-0.069059	1.192159
H81	H	1.518024	-0.109167	1.127338
O82	O	0.967504	0.032256	0.982571
H83	H	1.019961	-0.022756	0.935145
O84	O	1.048863	0.780033	1.014689
H85	H	1.045780	0.853994	1.017692
O86	O	0.701971	0.432989	0.595272
H87	H	0.744881	0.465628	0.563691
O88	O	1.083743	0.578178	0.981042
H89	H	1.106826	0.500759	0.958821
O90	O	1.406288	0.075970	1.077980
H91	H	1.466552	0.015753	1.049108
H92	H	1.533039	-0.050706	1.405692
H93	H	1.406399	0.075810	1.505108
H94	H	0.816566	0.015966	0.998341
