data_functionalizedCrystal
_audit_creation_method	'MofGen! by Chris Wilmer'
_symmetry_space_group_name_H-M	'P1'
_symmetry_Int_Tables_number	1
_symmetry_cell_setting	triclinic
loop_
_symmetry_equiv_pos_as_xyz
  x,y,z
_cell_length_a	19.188933
_cell_length_b	19.188930
_cell_length_c	14.048226
_cell_angle_alpha	90.007371
_cell_angle_beta	90.006708
_cell_angle_gamma	83.145175
loop_
_atom_site_label
_atom_site_type_symbol
_atom_site_fract_x
_atom_site_fract_y
_atom_site_fract_z
O1	O	0.926148	0.087171	0.079140
O2	O	1.426148	0.587171	0.579140
O3	O	0.722837	0.098904	0.079150
O4	O	1.222837	0.598904	0.579150
O5	O	0.830360	-0.008618	0.079126
O6	O	1.330360	0.491382	0.579126
O7	O	0.818625	0.194693	0.079164
O8	O	1.318625	0.694693	0.579164
O9	O	0.830342	-0.008615	-0.079196
O10	O	1.330342	0.491385	0.420804
O11	O	0.722820	0.098907	-0.079171
O12	O	1.222820	0.598907	0.420829
O13	O	0.926131	0.087174	-0.079182
O14	O	1.426131	0.587174	0.420818
Zn15	Zn	0.824472	0.093041	-0.104314
Zn16	Zn	1.324472	0.593041	0.395686
Zn17	Zn	0.824495	0.093037	0.104282
Zn18	Zn	1.324495	0.593037	0.604282
O19	O	0.818608	0.194696	-0.079158
O20	O	1.318608	0.694696	0.420842
C21	C	0.696817	0.098525	-0.000010
C22	C	1.196817	0.598525	0.499990
C23	C	0.619313	0.097384	-0.000007
C24	C	1.119313	0.597384	0.499993
C25	C	0.829971	-0.034628	-0.000038
C26	C	1.329971	0.465372	0.499962
C27	C	0.828830	-0.112132	-0.000046
C28	C	1.328830	0.387868	0.499954
C29	C	0.066067	0.089237	0.086283
C30	C	0.566067	0.589237	0.586283
C31	C	0.138891	0.090305	0.086286
C32	C	0.638891	0.590305	0.586286
C33	C	0.175299	0.090844	-0.000014
C34	C	0.675299	0.590844	0.499986
C35	C	0.138878	0.090297	-0.086325
C36	C	0.638878	0.590297	0.413675
C37	C	0.066056	0.089222	-0.086326
C38	C	0.566056	0.589222	0.413674
N39	N	0.284312	0.132264	-0.064244
N40	N	0.784312	0.632264	0.435756
N41	N	0.353489	0.133286	-0.064237
N42	N	0.853489	0.633286	0.435763
C43	C	0.394707	0.094082	-0.000015
C44	C	0.894707	0.594082	0.499985
N45	N	0.364133	0.053825	0.064214
N46	N	0.864133	0.553825	0.564214
N47	N	0.294949	0.052805	0.064209
N48	N	0.794949	0.552805	0.564209
C49	C	0.254262	0.092009	-0.000022
C50	C	0.754262	0.592009	0.499978
C51	C	0.510084	0.095782	0.086294
C52	C	1.010084	0.595782	0.586294
C53	C	0.582910	0.096846	0.086295
C54	C	1.082910	0.596846	0.586295
C55	C	0.582895	0.096845	-0.086319
C56	C	1.082895	0.596845	0.413681
C57	C	0.510071	0.095774	-0.086317
C58	C	1.010071	0.595774	0.413683
C59	C	0.473669	0.095246	-0.000007
C60	C	0.973669	0.595246	0.499993
C61	C	0.891921	-0.157056	-0.000053
C62	C	1.391921	0.342944	0.499947
C63	C	0.890849	-0.229880	-0.000038
C64	C	1.390849	0.270120	0.499962
C65	C	0.826683	-0.257777	-0.000034
C66	C	1.326683	0.242223	0.499966
C67	C	0.763584	-0.212843	-0.000021
C68	C	1.263584	0.287157	0.499979
C69	C	0.764658	-0.140021	-0.000027
C70	C	1.264658	0.359979	0.499973
N71	N	0.777630	-0.365781	-0.053912
N72	N	1.277630	0.134219	0.446088
N73	N	0.776615	-0.434960	-0.053908
N74	N	1.276615	0.065040	0.446092
C75	C	0.823445	-0.477185	-0.000015
C76	C	1.323445	0.022815	0.499985
N77	N	0.871340	-0.447620	0.053863
N78	N	1.371340	0.052380	0.553863
N79	N	0.872358	-0.378436	0.053855
N80	N	1.372358	0.121564	0.553855
C81	C	0.825512	-0.336739	-0.000027
C82	C	1.325512	0.163261	0.499973
C83	C	0.885378	-0.601073	-0.000005
C84	C	1.385378	-0.101073	0.499995
C85	C	0.884304	-0.673898	0.000017
C86	C	1.384304	-0.173898	0.500017
C87	C	0.757037	-0.656860	0.000024
C88	C	1.257037	-0.156860	0.500024
C89	C	0.758113	-0.584037	0.000012
C90	C	1.258113	-0.084037	0.500012
C91	C	0.822286	-0.556148	-0.000006
C92	C	1.322286	-0.056148	0.499994
C93	C	0.952150	0.087553	-0.000020
C94	C	1.452150	0.587553	0.499980
C95	C	1.029655	0.088694	-0.000017
C96	C	1.529655	0.588694	0.499983
C97	C	0.818997	0.220705	0.000008
C98	C	1.318997	0.720705	0.500008
C99	C	0.820137	0.298210	0.000022
C100	C	1.320137	0.798210	0.500022
N101	N	0.824462	0.093043	-0.246674
N102	N	1.324462	0.593043	0.253326
C103	C	0.872129	0.045438	-0.703524
C104	C	1.372129	0.545438	-0.203524
C105	C	0.872122	0.045443	-0.603867
C106	C	1.372122	0.545443	-0.103867
C107	C	0.824495	0.093036	-0.554044
C108	C	1.324495	0.593036	-0.054044
C109	C	0.776875	0.140633	-0.603885
C110	C	1.276875	0.640633	-0.103885
C111	C	0.776885	0.140631	-0.703540
C112	C	1.276885	0.640631	-0.203540
C113	C	0.776856	0.140633	-0.396170
C114	C	1.276856	0.640633	0.103830
C115	C	0.776844	0.140634	-0.296508
C116	C	1.276844	0.640634	0.203492
C117	C	0.872093	0.045445	-0.296497
C118	C	1.372093	0.545445	0.203503
C119	C	0.872103	0.045443	-0.396152
C120	C	1.372103	0.545443	0.103848
C121	C	0.824482	0.093038	-0.445986
C122	C	1.324482	0.593038	0.054014
N123	N	0.824511	0.093029	0.246642
N124	N	1.324511	0.593029	0.746642
H125	H	0.036433	0.088805	0.156563
H126	H	0.536433	0.588805	0.656563
H127	H	0.168526	0.090734	-0.156592
H128	H	0.668526	0.590734	0.343408
F129	F	0.471341	0.095217	0.178151
F130	F	0.971341	0.595217	0.678151
F131	F	0.697505	-0.092208	-0.000018
F132	F	1.197505	0.407792	0.499982
H133	H	0.480424	0.095334	-0.156591
H134	H	0.980424	0.595334	0.343409
F135	F	0.958002	-0.277699	-0.000045
F136	F	1.458002	0.222301	0.499955
F137	F	0.953675	-0.571389	-0.000029
F138	F	1.453675	-0.071389	0.499971
H139	H	0.036410	0.088782	-0.156604
H140	H	0.536410	0.588782	0.343396
F141	F	0.726205	0.191286	-0.756575
F142	F	1.226205	0.691286	-0.256575
H143	H	0.910910	0.006679	-0.744083
H144	H	1.410910	0.506679	-0.244083
H145	H	0.910897	0.006691	-0.563293
H146	H	1.410897	0.506691	-0.063293
H147	H	0.935682	-0.710475	0.000016
H148	H	1.435682	-0.210475	0.500016
F149	F	0.922773	-0.005210	-0.243456
F150	F	1.422773	0.494790	0.256544
F151	F	0.922789	-0.005215	-0.449178
F152	F	1.422789	0.494785	0.050822
H153	H	0.738080	0.179392	-0.436741
H154	H	1.238080	0.679392	0.063259
F155	F	0.177651	0.090885	0.178142
F156	F	0.677651	0.590885	0.678142
H157	H	0.738098	0.179388	-0.563313
H158	H	1.238098	0.679388	-0.063313
H159	H	0.612556	0.097283	0.156573
H160	H	1.112556	0.597283	0.656573
H161	H	0.944175	-0.134354	-0.000066
H162	H	1.444175	0.365646	0.499934
H163	H	0.612538	0.097281	-0.156587
H164	H	1.112538	0.597281	0.343413
F165	F	0.695294	-0.242534	-0.000011
F166	F	1.195294	0.257466	0.499989
H167	H	0.706738	-0.547459	0.000013
H168	H	1.206738	-0.047459	0.500013
F169	F	0.688746	-0.686545	0.000033
F170	F	1.188746	-0.186545	0.500033
H171	H	0.738062	0.179390	-0.255947
H172	H	1.238062	0.679390	0.244053
