data_functionalizedCrystal
_audit_creation_method	'MofGen! by Chris Wilmer'
_symmetry_space_group_name_H-M	'P1'
_symmetry_Int_Tables_number	1
_symmetry_cell_setting	triclinic
loop_
_symmetry_equiv_pos_as_xyz
  x,y,z
_cell_length_a	17.699104
_cell_length_b	27.732048
_cell_length_c	16.776229
_cell_angle_alpha	89.988391
_cell_angle_beta	89.991971
_cell_angle_gamma	82.967086
loop_
_atom_site_label
_atom_site_type_symbol
_atom_site_fract_x
_atom_site_fract_y
_atom_site_fract_z
O1	O	1.003529	0.061175	-0.066313
O2	O	0.783083	0.069117	-0.066312
O3	O	0.900153	-0.005226	-0.066297
O4	O	0.886460	0.135518	-0.066328
O5	O	0.900137	-0.005230	0.066279
O6	O	0.783068	0.069112	0.066264
O7	O	1.003514	0.061170	0.066264
Zn8	Zn	0.893288	0.065141	0.087313
Zn9	Zn	0.893309	0.065147	-0.087362
O10	O	0.886444	0.135513	0.066249
C11	C	0.754881	0.068828	-0.000024
C12	C	0.670871	0.067970	-0.000023
C13	C	0.145658	0.106763	-0.000039
C14	C	0.224595	0.107568	-0.000042
C15	C	0.273597	0.063925	-0.000032
C16	C	0.243659	0.019476	-0.000028
C17	C	0.164724	0.018673	-0.000032
C18	C	0.561997	0.022716	-0.000016
C19	C	0.640937	0.023523	-0.000011
C20	C	0.621868	0.111611	-0.000027
C21	C	0.542933	0.110807	-0.000030
C22	C	0.513002	0.066359	-0.000030
C23	C	0.427409	0.065487	-0.000029
C24	C	0.359188	0.064796	-0.000028
C25	C	0.899858	-0.023236	-0.000007
C26	C	0.898992	-0.076894	-0.000000
C27	C	0.962724	-0.415477	-0.000042
C28	C	0.959512	-0.617148	-0.000053
O29	O	1.017790	-0.648192	-0.000088
N30	N	0.890095	-0.636525	-0.000052
C31	C	0.821475	-0.605480	-0.000053
O32	O	0.762358	-0.626589	-0.000061
C33	C	0.824687	-0.403810	-0.000048
C34	C	0.894109	-0.384436	-0.000041
C35	C	1.032140	-0.396103	-0.000035
C36	C	1.032942	-0.345688	-0.000028
C37	C	0.964328	-0.314647	-0.000027
C38	C	0.894911	-0.334021	-0.000034
C39	C	0.756069	-0.372766	-0.000055
C40	C	0.756878	-0.322346	-0.000056
C41	C	0.826300	-0.302972	-0.000048
C42	C	0.827099	-0.252566	-0.000025
N43	N	0.896517	-0.233189	-0.000026
C44	C	0.965131	-0.264230	-0.000027
C45	C	0.819794	-0.711361	-0.000054
C46	C	0.818991	-0.761778	-0.000054
C47	C	0.957028	-0.773442	-0.000055
C48	C	0.957830	-0.723024	-0.000050
C49	C	0.889211	-0.691984	-0.000055
C50	C	0.966810	-0.158355	-0.000012
C51	C	0.967606	-0.107935	-0.000001
C52	C	0.829569	-0.096275	-0.000005
C53	C	0.828773	-0.146690	-0.000011
C54	C	0.897400	-0.177729	-0.000017
O55	O	0.768853	-0.221494	0.000001
O56	O	1.024240	-0.243112	-0.000038
C57	C	0.961922	-0.465892	-0.000049
C58	C	0.892505	-0.485266	-0.000055
C59	C	0.823891	-0.454225	-0.000054
C60	C	0.891702	-0.535683	-0.000055
C61	C	0.960316	-0.566724	-0.000056
C62	C	1.029734	-0.547347	-0.000057
C63	C	1.030536	-0.496933	-0.000050
C64	C	0.754473	-0.473602	-0.000053
C65	C	0.753677	-0.524018	-0.000059
C66	C	0.822291	-0.555058	-0.000060
C67	C	1.031716	0.061459	-0.000027
C68	C	1.115725	0.062318	-0.000033
C69	C	0.886739	0.153523	-0.000043
C70	C	0.887605	0.207181	-0.000055
N71	N	0.893280	0.065136	0.206525
N72	N	0.893323	0.065147	-0.206573
C73	C	0.945134	0.032231	0.248248
C74	C	0.945138	0.032230	0.331700
C75	C	0.893291	0.065138	0.373427
C76	C	0.841432	0.098045	0.331698
C77	C	0.841425	0.098043	0.248247
C78	C	0.841459	0.098055	0.668245
C79	C	0.841472	0.098055	0.751702
C80	C	0.945173	0.032242	0.751698
C81	C	0.945165	0.032240	0.668248
C82	C	0.893304	0.065145	0.626525
C83	C	0.893299	0.065144	0.536037
C84	C	0.893299	0.065141	0.463914
H85	H	0.680834	-0.012018	-0.000005
O86	O	0.532802	-0.020417	-0.000050
C87	C	0.419654	-0.060703	-0.000012
C88	C	0.452618	-0.011818	0.000009
H89	H	0.354821	-0.053768	0.000052
H90	H	0.439835	-0.082267	-0.055504
H91	H	0.439909	-0.082267	0.055462
H92	H	0.432378	0.009786	-0.055428
H93	H	0.432442	0.009709	0.055538
O94	O	0.291151	-0.022963	-0.000058
C95	C	0.301728	-0.110422	0.000001
C96	C	0.247860	-0.062395	0.000014
H97	H	0.266749	-0.142315	0.000076
H98	H	0.339155	-0.112278	-0.055493
H99	H	0.339166	-0.112225	0.055473
H100	H	0.210374	-0.060560	-0.055420
H101	H	0.210485	-0.060559	0.055545
O102	O	0.995514	0.000206	0.792143
C103	C	1.040820	-0.083878	0.817731
C104	C	0.983782	-0.047653	0.771867
H105	H	1.031344	-0.122580	0.801368
H106	H	1.101379	-0.077666	0.801294
H107	H	1.031928	-0.078203	0.884539
H108	H	0.992604	-0.053308	0.705049
H109	H	0.923243	-0.053875	0.788370
H110	H	0.987357	0.005435	0.214279
H111	H	0.762460	-0.777547	-0.000046
H112	H	0.799249	0.124854	0.785674
H113	H	0.140355	-0.017520	-0.000028
O114	O	0.495440	0.153246	-0.000075
C115	C	0.484858	0.240705	-0.000050
C116	C	0.538728	0.192679	-0.000013
H117	H	0.519835	0.272600	0.000017
H118	H	0.447450	0.242565	-0.055548
H119	H	0.447401	0.242503	0.055418
H120	H	0.576233	0.190850	-0.055443
H121	H	0.576084	0.190839	0.055522
O122	O	1.033542	-0.188433	0.000020
C123	C	1.170540	-0.194667	-0.000017
C124	C	1.095023	-0.160550	-0.000042
H125	H	1.220267	-0.172138	-0.000084
H126	H	1.173664	-0.218562	0.055477
H127	H	1.173589	-0.218565	-0.055489
H128	H	1.091923	-0.136621	0.055393
H129	H	1.091930	-0.136688	-0.055572
H130	H	0.699538	-0.388531	-0.000065
H131	H	0.105765	0.142302	-0.000041
O132	O	0.791058	0.130067	0.627847
C133	C	0.688170	0.195329	0.636664
C134	C	0.745222	0.159107	0.682519
H135	H	0.651087	0.218811	0.680847
H136	H	0.720515	0.219485	0.597597
H137	H	0.650636	0.174478	0.597594
H138	H	0.782771	0.179918	0.721633
H139	H	0.712831	0.134951	0.721536
H140	H	0.698598	-0.448333	-0.000054
O141	O	1.100446	-0.326952	-0.000063
C142	C	1.237273	-0.343862	-0.000021
C143	C	1.160875	-0.365139	0.000003
H144	H	1.286150	-0.374726	0.000049
H145	H	1.241163	-0.320561	-0.055517
H146	H	1.241061	-0.320541	0.055449
H147	H	1.157036	-0.388483	-0.055430
H148	H	1.157018	-0.388412	0.055535
H149	H	0.248962	0.143760	-0.000054
O150	O	1.098778	-0.426271	-0.000176
C151	C	1.177998	-0.489968	-0.068825
C152	C	1.102504	-0.455828	-0.068782
H153	H	1.181028	-0.513881	-0.124279
H154	H	1.227770	-0.467475	-0.068873
H155	H	1.181062	-0.513847	-0.013315
H156	H	1.099366	-0.431943	-0.124283
H157	H	1.052768	-0.478350	-0.068693
H158	H	0.646247	0.147804	-0.000030
O159	O	1.025333	-0.704287	-0.000086
C160	C	1.162161	-0.721192	-0.000042
C161	C	1.085765	-0.742472	-0.000015
H162	H	1.211040	-0.752054	0.000033
H163	H	1.166049	-0.697893	-0.055540
H164	H	1.165946	-0.697867	0.055426
H165	H	1.081929	-0.765818	-0.055445
H166	H	1.081909	-0.765743	0.055520
H167	H	1.024140	-0.092164	0.000006
H168	H	1.012896	-0.798725	-0.000056
O169	O	0.753063	-0.681280	-0.000017
C170	C	0.616066	-0.675045	-0.000054
C171	C	0.691582	-0.709163	-0.000083
H172	H	0.566339	-0.697574	-0.000124
H173	H	0.612929	-0.651165	0.055443
H174	H	0.613028	-0.651132	-0.055523
H175	H	0.694670	-0.733107	0.055348
H176	H	0.694686	-0.733009	-0.055617
H177	H	0.700998	-0.297075	-0.000061
H178	H	0.772244	-0.162465	0.000006
O179	O	0.762872	-0.066165	-0.000114
C180	C	0.645182	-0.040727	-0.068843
C181	C	0.720679	-0.074863	-0.068799
H182	H	0.611055	-0.047741	-0.124377
H183	H	0.610919	-0.047770	-0.013404
H184	H	0.657708	-0.001371	-0.068804
H185	H	0.708222	-0.114232	-0.068867
H186	H	0.754920	-0.067779	-0.124234
H187	H	0.987361	0.005436	0.365671
H188	H	0.987386	0.005445	0.634276
O189	O	0.791140	0.129994	0.372353
C190	C	0.745163	0.159150	0.500911
C191	C	0.802170	0.122947	0.454972
H192	H	0.754050	0.153458	0.567717
H193	H	0.754567	0.197869	0.484542
H194	H	0.684626	0.152901	0.484475
H195	H	0.862729	0.129152	0.471384
H196	H	0.792699	0.084241	0.471346
H197	H	1.087066	-0.481164	-0.000044
O198	O	1.096367	-0.577525	-0.000201
C199	C	1.175538	-0.641234	-0.068875
C200	C	1.100063	-0.607076	-0.068814
H201	H	1.178545	-0.665142	-0.124334
H202	H	1.225328	-0.618756	-0.068925
H203	H	1.178595	-0.665118	-0.013371
H204	H	1.096933	-0.583186	-0.124309
H205	H	1.050309	-0.629584	-0.068722
O206	O	0.791027	0.130055	0.207838
C207	C	0.688136	0.195317	0.216643
C208	C	0.745186	0.159097	0.262504
H209	H	0.651049	0.218799	0.260821
H210	H	0.720482	0.219472	0.177576
H211	H	0.650606	0.174464	0.177571
H212	H	0.782732	0.179910	0.301619
H213	H	0.712793	0.134942	0.301521
H214	H	0.697141	-0.539786	-0.000058
