data_functionalizedCrystal
_audit_creation_method	'MofGen! by Chris Wilmer'
_symmetry_space_group_name_H-M	'P1'
_symmetry_Int_Tables_number	1
_symmetry_cell_setting	triclinic
loop_
_symmetry_equiv_pos_as_xyz
  x,y,z
_cell_length_a	8.559649
_cell_length_b	14.519709
_cell_length_c	7.681481
_cell_angle_alpha	95.761118
_cell_angle_beta	94.912730
_cell_angle_gamma	103.270595
loop_
_atom_site_label
_atom_site_type_symbol
_atom_site_fract_x
_atom_site_fract_y
_atom_site_fract_z
O1	O	2.104960	0.021481	-0.146415
O2	O	1.639890	-0.026138	-0.146434
O3	O	1.884761	0.132799	-0.146375
O4	O	1.860089	-0.137455	-0.146474
O5	O	1.914900	0.152401	0.146490
O6	O	1.670030	-0.006536	0.146431
O7	O	2.135100	0.041083	0.146450
Zn8	Zn	1.907350	0.020386	0.192939
Zn9	Zn	1.867640	-0.005440	-0.192923
O10	O	1.890229	-0.117853	0.146391
C11	C	1.595440	-0.019946	-0.000003
C12	C	1.418090	-0.030687	-0.000008
C13	C	1.898682	0.176877	0.000066
C14	C	1.895241	0.279013	0.000093
C15	C	1.882567	0.653002	0.000140
C16	C	1.886086	0.548946	0.000128
C17	C	1.888904	0.466011	0.000118
C18	C	1.892424	0.361948	0.000102
C19	C	2.179549	0.034891	0.000015
C20	C	2.356898	0.045632	0.000008
N21	N	1.934463	0.038013	0.456280
C22	C	1.876314	0.838072	0.000008
C23	C	1.879773	0.735948	0.000157
N24	N	1.840540	-0.023059	-0.456264
H25	H	1.440196	0.119195	0.000034
N26	N	1.713517	-0.105628	0.444121
H27	H	1.735519	-0.167616	0.476084
H28	H	1.716644	-0.103537	0.313416
H29	H	1.334799	-0.104247	-0.000052
H30	H	2.030357	0.100349	0.531509
