data_functionalizedCrystal
_audit_creation_method	'MofGen! by Chris Wilmer'
_symmetry_space_group_name_H-M	'P1'
_symmetry_Int_Tables_number	1
_symmetry_cell_setting	triclinic
loop_
_symmetry_equiv_pos_as_xyz
  x,y,z
_cell_length_a	14.519731
_cell_length_b	11.026607
_cell_length_c	10.065875
_cell_angle_alpha	100.731764
_cell_angle_beta	81.235695
_cell_angle_gamma	96.137435
loop_
_atom_site_label
_atom_site_type_symbol
_atom_site_fract_x
_atom_site_fract_y
_atom_site_fract_z
O1	O	1.260631	0.141444	-0.113493
O2	O	0.995240	0.160157	-0.113495
O3	O	1.105939	-0.025902	-0.113489
O4	O	1.149931	0.327503	-0.113499
O5	O	1.084854	0.009720	0.113499
O6	O	0.974154	0.195778	0.113493
O7	O	1.239545	0.177065	0.113495
Zn8	Zn	1.103502	0.192077	0.149533
Zn9	Zn	1.131283	0.145145	-0.149533
O10	O	1.128846	0.363124	0.113489
C11	C	1.087281	-0.053321	0.000003
C12	C	1.063089	-0.188090	-0.000002
C13	C	0.950193	0.177091	-0.000001
C14	C	0.847380	0.174463	-0.000002
C15	C	1.129889	-0.261745	-0.000003
C16	C	1.104887	-0.401037	-0.000008
C17	C	0.763885	0.172327	-0.000007
C18	C	0.659136	0.169659	-0.000007
C19	C	0.575649	0.167542	-0.000007
C20	C	0.470894	0.164874	-0.000010
C21	C	1.284592	0.160131	-0.000002
C22	C	1.387406	0.162757	-0.000010
C23	C	1.147504	0.390542	-0.000006
C24	C	1.171697	0.525311	-0.000010
N25	N	1.084549	0.224107	0.353638
N26	N	1.150242	0.113105	-0.353638
C27	C	1.124681	0.156281	0.421419
C28	C	1.110103	0.180941	0.578585
H29	H	1.205588	-0.221680	0.000006
H30	H	1.039394	0.300428	0.411962
O31	O	1.210050	0.011991	0.569121
H32	H	1.237223	-0.033947	0.642682
H33	H	1.247412	-0.434649	-0.000112
O34	O	1.050300	0.282067	0.655809
H35	H	0.990874	0.241191	0.720939
O36	O	1.184461	0.055149	0.344159
H37	H	1.243890	0.096018	0.279026
O38	O	0.962810	-0.241138	0.000006
H39	H	0.958908	-0.342217	0.000016
O40	O	1.004603	-0.454078	-0.000000
H41	H	1.000701	-0.555157	0.000009
