data_functionalizedCrystal
_audit_creation_method	'MofGen! by Chris Wilmer'
_symmetry_space_group_name_H-M	'P1'
_symmetry_Int_Tables_number	1
_symmetry_cell_setting	triclinic
loop_
_symmetry_equiv_pos_as_xyz
  x,y,z
_cell_length_a	16.109302
_cell_length_b	10.967953
_cell_length_c	15.186229
_cell_angle_alpha	102.126486
_cell_angle_beta	89.994701
_cell_angle_gamma	84.099760
loop_
_atom_site_label
_atom_site_type_symbol
_atom_site_fract_x
_atom_site_fract_y
_atom_site_fract_z
O1	O	1.104071	0.160393	-0.048926
O2	O	1.604071	0.660393	0.451074
O3	O	0.862127	0.180352	-0.045890
O4	O	1.362127	0.680352	0.454110
O5	O	0.988683	-0.011275	-0.074970
O6	O	1.488683	0.488725	0.425030
O7	O	0.977515	0.352019	-0.019846
O8	O	1.477515	0.852019	0.480154
O9	O	0.988674	-0.011278	0.071487
O10	O	1.488674	0.488722	0.571487
O11	O	0.862118	0.180349	0.100567
O12	O	1.362118	0.680349	0.600567
O13	O	1.104063	0.160390	0.097531
O14	O	1.604063	0.660390	0.597531
Zn15	Zn	0.983089	0.170369	0.122302
Zn16	Zn	1.483089	0.670369	0.622302
Zn17	Zn	0.983100	0.170373	-0.070661
Zn18	Zn	1.483100	0.670373	0.429339
O19	O	0.977507	0.352017	0.126611
O20	O	1.477507	0.852017	0.626611
C21	C	0.831143	0.179542	0.027216
C22	C	1.331143	0.679542	0.527216
C23	C	0.738833	0.177117	0.026851
C24	C	1.238833	0.677117	0.526851
C25	C	0.526455	0.171510	0.105826
C26	C	1.026455	0.671510	0.605826
C27	C	0.439721	0.169219	0.105475
C28	C	0.939721	0.669219	0.605475
C29	C	0.439741	0.169228	-0.054199
C30	C	0.939741	0.669228	0.445801
C31	C	0.526474	0.171510	-0.053849
C32	C	1.026474	0.671510	0.446151
C33	C	0.569828	0.172658	0.026167
C34	C	1.069828	0.672658	0.526167
C35	C	0.396362	0.168084	0.025466
C36	C	0.896362	0.668084	0.525466
C37	C	0.302321	0.165599	0.025085
C38	C	0.802321	0.665599	0.525085
C39	C	0.663874	0.175140	0.026548
C40	C	1.163874	0.675140	0.526548
C41	C	0.987867	-0.057765	-0.008797
C42	C	1.487867	0.442235	0.491203
C43	C	0.985439	-0.196285	-0.029821
C44	C	1.485439	0.303715	0.470179
C45	C	0.981839	-0.401211	0.014958
C46	C	1.481839	0.098789	0.514958
C47	C	0.984351	-0.258044	0.036684
C48	C	1.484351	0.241956	0.536684
C49	C	1.135047	0.161200	0.024422
C50	C	1.635047	0.661200	0.524422
C51	C	1.227356	0.163624	0.024782
C52	C	1.727356	0.663624	0.524782
C53	C	0.978323	0.398506	0.060436
C54	C	1.478323	0.898506	0.560436
C55	C	0.980751	0.537026	0.081454
C56	C	1.480751	1.037026	0.581454
N57	N	0.983088	0.170366	0.253994
N58	N	1.483088	0.670366	0.753994
N59	N	0.983109	0.170366	-0.202355
N60	N	1.483109	0.670366	0.297645
C61	C	1.039146	0.085542	0.466845
C62	C	1.539146	0.585542	0.966845
C63	C	1.039149	0.085539	0.559034
C64	C	1.539149	0.585539	1.059034
C65	C	0.927044	0.255194	0.584789
C66	C	1.427044	0.755194	1.084789
C67	C	0.927038	0.255190	0.492600
C68	C	1.427038	0.755190	0.992600
C69	C	0.983094	0.170365	0.433631
C70	C	1.483094	0.670365	0.933631
C71	C	0.983102	0.170366	0.618008
C72	C	1.483102	0.670366	1.118008
C73	C	0.983105	0.170364	0.717964
C74	C	1.483105	0.670364	1.217964
C75	C	0.983091	0.170366	0.333668
C76	C	1.483091	0.670366	0.833668
H77	H	0.561789	0.172442	-0.118721
H78	H	1.061789	0.672442	0.381279
H79	H	0.561751	0.172444	0.170980
H80	H	1.061751	0.672444	0.670980
Cl81	Cl	0.856563	0.361827	0.450840
Cl82	Cl	1.356563	0.861827	0.950840
H83	H	0.980915	-0.454325	-0.058056
H84	H	1.480915	0.045675	0.441944
H85	H	1.084789	0.016471	0.418833
H86	H	1.584789	0.516471	0.918833
H87	H	0.985283	-0.204936	0.109703
H88	H	1.485283	0.295064	0.609703
Cl89	Cl	0.984007	-0.278269	-0.142558
Cl90	Cl	1.484007	0.221731	0.357442
H91	H	0.981683	-0.409861	0.154468
H92	H	1.481683	0.090139	0.654468
Cl93	Cl	1.109615	-0.021103	0.600785
Cl94	Cl	1.609615	0.478897	1.100785
Cl95	Cl	0.385235	0.167755	-0.154790
Cl96	Cl	0.885235	0.667755	0.345210
H97	H	0.404411	0.168284	0.170341
H98	H	0.904411	0.668284	0.670341
Cl99	Cl	0.856581	0.361830	0.658926
Cl100	Cl	1.356581	0.861830	1.158926
