data_functionalizedCrystal
_audit_creation_method	'MofGen! by Chris Wilmer'
_symmetry_space_group_name_H-M	'P1'
_symmetry_Int_Tables_number	1
_symmetry_cell_setting	triclinic
loop_
_symmetry_equiv_pos_as_xyz
  x,y,z
_cell_length_a	14.044220
_cell_length_b	19.188930
_cell_length_c	12.503572
_cell_angle_alpha	93.506241
_cell_angle_beta	86.164750
_cell_angle_gamma	88.166830
loop_
_atom_site_label
_atom_site_type_symbol
_atom_site_fract_x
_atom_site_fract_y
_atom_site_fract_z
O1	O	1.262485	0.164589	-0.089229
O2	O	0.986542	0.158515	-0.089255
O3	O	1.132475	0.060411	-0.089220
O4	O	1.116552	0.262693	-0.089264
O5	O	1.121500	0.067803	0.089419
O6	O	0.975567	0.165907	0.089384
O7	O	1.251510	0.171980	0.089411
Cu8	Cu	1.112536	0.169618	0.105709
Cu9	Cu	1.125516	0.160877	-0.105553
O10	O	1.105577	0.270084	0.089376
C11	C	0.945752	0.159553	0.000061
C12	C	0.840559	0.151624	0.000052
C13	C	1.126472	0.038063	0.000102
C14	C	1.124923	-0.039541	0.000112
C15	C	0.647956	0.137129	0.000077
C16	C	0.590090	0.193363	0.000069
C17	C	0.482920	0.185298	0.000083
C18	C	0.755137	0.145193	0.000063
C19	C	1.210552	-0.078939	0.000125
C20	C	1.209099	-0.151857	0.000108
C21	C	1.122010	-0.185374	0.000098
C22	C	1.036370	-0.145968	0.000079
C23	C	1.037826	-0.073051	0.000086
N24	N	1.051706	-0.295160	0.060886
N25	N	1.050328	-0.364427	0.060882
C26	C	1.117616	-0.405067	0.000076
N27	N	1.186348	-0.373823	-0.060712
N28	N	1.187729	-0.304548	-0.060704
C29	C	1.120421	-0.264440	0.000091
C30	C	1.201676	-0.523532	0.000069
C31	C	1.200219	-0.596451	0.000045
C32	C	1.027487	-0.590560	0.000028
C33	C	1.028947	-0.517642	0.000041
C34	C	1.116043	-0.484132	0.000067
C35	C	1.292301	0.170943	0.000092
C36	C	1.397493	0.178872	0.000094
C37	C	1.111580	0.292433	0.000051
C38	C	1.113129	0.370037	0.000034
N39	N	1.103414	0.175766	0.254299
N40	N	1.134645	0.154724	-0.254143
C41	C	1.089995	0.184816	0.473411
C42	C	1.148061	0.145676	0.526752
C43	C	1.140595	0.150712	0.648673
C44	C	1.097461	0.179782	0.351478
H45	H	0.621038	0.247564	0.000052
C46	C	1.274994	0.060123	0.537767
C47	C	1.222747	0.095338	0.464799
H48	H	1.321098	0.029046	0.499514
H49	H	1.306380	0.093057	0.581623
H50	H	1.232937	0.034373	0.581637
H51	H	1.264804	0.121092	0.420934
H52	H	1.191360	0.062398	0.420924
H53	H	0.617011	0.082933	0.000094
C54	C	1.354982	-0.509879	-0.091761
C55	C	1.297407	-0.486689	0.000075
H56	H	1.414079	-0.487131	-0.091762
H57	H	1.366372	-0.558938	-0.091759
H58	H	1.323545	-0.499285	-0.154047
H59	H	1.328842	-0.497287	0.062361
H60	H	1.286020	-0.437619	0.000082
H61	H	1.034680	0.222105	0.519305
C62	C	1.381142	-0.092092	0.000146
C63	C	1.306288	-0.042106	0.000142
H64	H	1.440245	-0.069351	0.000149
H65	H	1.373151	-0.117837	0.062436
H66	H	1.380802	-0.122982	-0.062156
H67	H	1.306624	-0.011220	0.062448
H68	H	1.314281	-0.016350	-0.062154
C69	C	1.313315	-0.241070	-0.091704
C70	C	1.303228	-0.195175	0.000128
H71	H	1.371428	-0.267807	-0.091690
H72	H	1.261242	-0.271459	-0.091710
H73	H	1.314130	-0.215066	-0.153992
H74	H	1.302405	-0.221179	0.062417
H75	H	1.355314	-0.164782	0.000144
C76	C	0.957442	-0.255128	0.000078
C77	C	0.940640	-0.182806	0.000074
H78	H	0.898339	-0.277868	0.000078
H79	H	0.996509	-0.270855	-0.062210
H80	H	0.988862	-0.265708	0.062382
H81	H	0.909227	-0.172226	-0.062235
H82	H	0.901557	-0.167074	0.062368
H83	H	0.968095	-0.040973	0.000075
H84	H	1.269952	-0.628529	0.000050
C85	C	0.948558	-0.699716	0.000009
C86	C	0.931756	-0.627393	0.000014
H87	H	0.889454	-0.722455	0.000003
H88	H	0.987626	-0.715439	-0.062280
H89	H	0.979975	-0.710300	0.062312
H90	H	0.900344	-0.616808	-0.062293
H91	H	0.892672	-0.611665	0.062309
H92	H	0.959218	-0.485563	0.000036
