data_functionalizedCrystal
_audit_creation_method	'MofGen! by Chris Wilmer'
_symmetry_space_group_name_H-M	'P1'
_symmetry_Int_Tables_number	1
_symmetry_cell_setting	triclinic
loop_
_symmetry_equiv_pos_as_xyz
  x,y,z
_cell_length_a	19.288864
_cell_length_b	19.288865
_cell_length_c	18.366186
_cell_angle_alpha	89.988521
_cell_angle_beta	89.977106
_cell_angle_gamma	83.136245
loop_
_atom_site_label
_atom_site_type_symbol
_atom_site_fract_x
_atom_site_fract_y
_atom_site_fract_z
O1	O	0.921353	0.086649	-0.060791
O2	O	0.719092	0.098337	-0.060743
O3	O	0.826067	-0.008637	-0.060754
O4	O	0.814378	0.193623	-0.060780
O5	O	0.826049	-0.008643	0.060345
O6	O	0.719074	0.098332	0.060357
O7	O	0.921335	0.086643	0.060308
Zn8	Zn	0.820201	0.092487	0.079559
Zn9	Zn	0.820225	0.092494	-0.079994
O10	O	0.814360	0.193618	0.060319
C11	C	0.693207	0.097959	-0.000187
C12	C	0.616103	0.096830	-0.000167
C13	C	0.571407	0.159598	-0.000187
C14	C	0.498960	0.158537	-0.000195
C15	C	0.471212	0.094705	-0.000198
C16	C	0.515918	0.031929	-0.000174
C17	C	0.588364	0.032991	-0.000159
C18	C	0.362956	0.044527	-0.042642
C19	C	0.290512	0.043468	-0.042662
C20	C	0.247767	0.091425	-0.000241
C21	C	0.277473	0.140454	0.042189
C22	C	0.349918	0.141517	0.042205
C23	C	0.392658	0.093546	-0.000214
C24	C	0.124514	0.153047	-0.000269
C25	C	0.052066	0.151984	-0.000272
C26	C	0.069026	0.025374	-0.000259
C27	C	0.141473	0.026439	-0.000248
C28	C	0.169212	0.090278	-0.000256
C29	C	0.825682	-0.034516	-0.000202
C30	C	0.824553	-0.111620	-0.000195
C31	C	0.887321	-0.156316	-0.000207
C32	C	0.886260	-0.228763	-0.000218
C33	C	0.822428	-0.256511	-0.000203
C34	C	0.759652	-0.211805	-0.000196
C35	C	0.760714	-0.139359	-0.000192
C36	C	0.772242	-0.364800	0.042227
C37	C	0.771182	-0.437245	0.042228
C38	C	0.819148	-0.479956	-0.000219
C39	C	0.868186	-0.450216	-0.042657
C40	C	0.869248	-0.377771	-0.042653
C41	C	0.821269	-0.335065	-0.000208
C42	C	0.880770	-0.603209	-0.000244
C43	C	0.879707	-0.675657	-0.000259
C44	C	0.753097	-0.658697	-0.000230
C45	C	0.754162	-0.586250	-0.000221
C46	C	0.818001	-0.558511	-0.000225
C47	C	0.947220	0.087022	-0.000250
C48	C	1.024324	0.088151	-0.000274
C49	C	0.814745	0.219497	-0.000234
C50	C	0.815874	0.296601	-0.000246
N51	N	0.820190	0.092482	0.188451
N52	N	0.820242	0.092493	-0.188885
C53	C	0.867574	0.045137	0.226546
C54	C	0.867578	0.045134	0.302774
C55	C	0.820206	0.092488	0.340903
C56	C	0.772813	0.139836	0.302799
C57	C	0.772805	0.139834	0.226572
C58	C	0.810907	0.155775	0.461657
C59	C	0.810920	0.155779	0.537882
C60	C	0.820225	0.092496	0.576011
C61	C	0.829533	0.029207	0.537905
C62	C	0.829525	0.029204	0.461679
C63	C	0.820208	0.092496	0.423558
C64	C	0.867617	0.045144	0.696761
C65	C	0.867616	0.045140	0.772990
C66	C	0.772854	0.139849	0.773014
C67	C	0.772851	0.139847	0.696786
C68	C	0.820236	0.092495	0.658664
H69	H	0.242671	0.179506	0.076733
H70	H	0.147101	0.205028	-0.000265
H71	H	0.906198	0.006585	0.665721
H72	H	0.709599	-0.102967	-0.000182
H73	H	0.734269	0.178402	0.665767
C74	C	0.839752	-0.040407	0.419764
H75	H	0.845391	-0.078097	0.453382
H76	H	0.880138	-0.041875	0.389924
H77	H	0.800023	-0.044198	0.390132
C78	C	0.950986	-0.572688	-0.000257
H79	H	0.942630	-0.523141	-0.000243
H80	H	0.976829	-0.588033	-0.042494
H81	H	0.976815	-0.588057	0.041971
H82	H	0.803346	0.207313	0.568901
H83	H	0.046435	-0.026600	-0.000306
H84	H	0.906165	0.006578	0.333797
C85	C	0.382595	0.195438	0.088881
H86	H	0.346766	0.223847	0.114149
H87	H	0.407119	0.223899	0.058299
H88	H	0.414051	0.171828	0.123006
H89	H	0.177866	-0.024674	-0.000236
C90	C	0.637532	-0.036057	-0.000146
H91	H	0.610633	-0.074226	-0.000153
H92	H	0.666126	-0.038277	0.042087
H93	H	0.666164	-0.038268	-0.042379
C94	C	0.920956	-0.497187	-0.089349
H95	H	0.950314	-0.469100	-0.114615
H96	H	0.896537	-0.522225	-0.123463
H97	H	0.948582	-0.529211	-0.058763
H98	H	0.397755	0.005473	-0.077191
H99	H	0.837110	-0.022324	0.568948
H100	H	0.803318	0.207311	0.430619
C101	C	0.682881	-0.689207	-0.000216
H102	H	0.645649	-0.652208	-0.000211
H103	H	0.679826	-0.717127	0.042011
H104	H	0.679843	-0.717102	-0.042455
H105	H	0.930822	-0.712049	-0.000273
C106	C	0.685116	-0.537082	-0.000196
H107	H	0.646947	-0.563981	-0.000183
H108	H	0.682903	-0.508456	-0.042422
H109	H	0.682896	-0.508481	0.042043
C110	C	0.919742	-0.006941	0.814896
H111	H	0.947964	-0.035136	0.781271
H112	H	0.894858	-0.035796	0.844652
H113	H	0.948576	0.017982	0.844609
H114	H	0.266331	0.003548	-0.077215
H115	H	0.731250	-0.461452	0.076779
H116	H	0.734279	0.178402	0.804058
H117	H	0.906156	0.006579	0.195509
C118	C	0.720706	0.191926	0.344738
H119	H	0.727502	0.185153	0.395592
H120	H	0.674374	0.184501	0.332275
H121	H	0.728105	0.238266	0.332227
C122	C	0.720689	0.191921	0.184662
H123	H	0.727470	0.185137	0.133805
H124	H	0.728087	0.238259	0.197142
H125	H	0.674356	0.184494	0.197176
C126	C	0.601917	0.229817	-0.000183
H127	H	0.564917	0.267048	-0.000188
H128	H	0.629852	0.232869	-0.042404
H129	H	0.629797	0.232859	0.042061
C130	C	0.449782	0.227582	-0.000220
H131	H	0.402664	0.217805	-0.000224
H132	H	0.458195	0.253766	-0.042452
H133	H	0.458144	0.253768	0.042013
H134	H	0.733180	-0.330029	0.076796
C135	C	0.689438	-0.242324	-0.000177
H136	H	0.697795	-0.291872	-0.000173
H137	H	0.663608	-0.226960	-0.042400
H138	H	0.663598	-0.226975	0.042065
H139	H	0.493322	-0.020044	-0.000187
C140	C	0.002900	0.221032	-0.000294
H141	H	0.029799	0.259201	-0.000303
H142	H	-0.025737	0.223253	0.041931
H143	H	-0.025690	0.223246	-0.042535
H144	H	0.939303	-0.133736	-0.000212
C145	C	0.955307	-0.277938	-0.000226
H146	H	0.993478	-0.251041	-0.000223
H147	H	0.957535	-0.306546	-0.042455
H148	H	0.957509	-0.306557	0.042010
H149	H	0.909175	-0.353560	-0.077208
