data_functionalizedCrystal
_audit_creation_method	'MofGen! by Chris Wilmer'
_symmetry_space_group_name_H-M	'P1'
_symmetry_Int_Tables_number	1
_symmetry_cell_setting	triclinic
loop_
_symmetry_equiv_pos_as_xyz
  x,y,z
_cell_length_a	14.044191
_cell_length_b	12.503572
_cell_length_c	10.654550
_cell_angle_alpha	86.442489
_cell_angle_beta	88.838354
_cell_angle_gamma	93.837835
loop_
_atom_site_label
_atom_site_type_symbol
_atom_site_fract_x
_atom_site_fract_y
_atom_site_fract_z
O1	O	1.265120	0.089268	0.296375
O2	O	0.989079	0.089281	0.285431
O3	O	1.133445	0.089267	0.108802
O4	O	1.120753	0.089282	0.473004
O5	O	1.122588	-0.089373	0.122110
O6	O	0.978222	-0.089360	0.298739
O7	O	1.254262	-0.089373	0.309682
Cu8	Cu	1.115251	-0.105678	0.305426
Cu9	Cu	1.128091	0.105586	0.289688
O10	O	1.109896	-0.089359	0.486311
C11	C	0.948304	-0.000037	0.287298
C12	C	0.842985	-0.000032	0.273018
N13	N	1.106227	-0.254269	0.316495
C14	C	0.593192	-0.000040	0.348184
C15	C	0.650155	-0.000042	0.246934
C16	C	0.757456	-0.000037	0.261451
C17	C	0.485882	-0.000046	0.333670
C18	C	1.092952	-0.473383	0.332788
C19	C	1.150393	-0.526716	0.262320
C20	C	1.143007	-0.648638	0.271386
C21	C	1.100337	-0.351450	0.323724
C22	C	1.295037	-0.000052	0.307816
C23	C	1.400357	-0.000050	0.322095
C24	C	1.127085	-0.000052	0.068564
C25	C	1.124297	-0.000051	-0.071159
N26	N	1.137122	0.254177	0.278610
C27	C	1.209298	-0.000054	-0.142100
C28	C	1.206673	-0.000041	-0.273386
C29	C	1.034038	-0.000025	-0.262778
C30	C	1.036664	-0.000030	-0.131495
C31	C	1.310588	0.062546	-0.463829
C32	C	1.395592	0.062523	-0.534773
C33	C	1.468847	-0.000083	-0.492191
C34	C	1.457100	-0.062694	-0.378665
C35	C	1.372093	-0.062681	-0.307727
C36	C	1.298843	-0.000049	-0.350310
C37	C	0.932755	-0.062626	0.058951
C38	C	0.847747	-0.062621	0.129892
C39	C	0.774483	-0.000021	0.087314
C40	C	0.786220	0.062573	-0.026214
C41	C	0.871228	0.062568	-0.097156
C42	C	0.944492	-0.000030	-0.054568
C43	C	1.116257	-0.000037	0.526549
C44	C	1.119045	-0.000032	0.666272
H45	H	0.618343	0.000030	0.149343
O46	O	0.635329	-0.000033	0.477443
H47	H	0.615753	0.072778	0.523785
H48	H	1.205118	-0.480808	0.195182
H49	H	1.280654	-0.000069	-0.092979
H50	H	1.038233	-0.519285	0.399924
O51	O	1.359415	-0.130191	-0.185283
H52	H	1.424637	-0.173730	-0.167584
H53	H	1.516750	-0.113682	-0.344011
H54	H	1.538060	-0.000100	-0.549963
O55	O	1.408270	0.130053	-0.657212
H56	H	1.343057	0.173611	-0.674897
H57	H	1.250948	0.113541	-0.498504
O58	O	0.939521	-0.000026	-0.327850
H59	H	0.951972	-0.000039	-0.431057
H60	H	0.880786	0.113552	-0.189589
H61	H	0.726553	0.113525	-0.060901
O62	O	0.835081	-0.130130	0.252346
H63	H	0.900313	-0.173650	0.270051
O64	O	1.011780	-0.130151	0.104870
H65	H	0.989329	-0.173691	0.195719
H66	H	0.705260	-0.000037	0.145078
