data_functionalizedCrystal
_audit_creation_method	'MofGen! by Chris Wilmer'
_symmetry_space_group_name_H-M	'P1'
_symmetry_Int_Tables_number	1
_symmetry_cell_setting	triclinic
loop_
_symmetry_equiv_pos_as_xyz
  x,y,z
_cell_length_a	15.297327
_cell_length_b	12.759395
_cell_length_c	12.759387
_cell_angle_alpha	90.018815
_cell_angle_beta	80.358863
_cell_angle_gamma	99.708038
loop_
_atom_site_label
_atom_site_type_symbol
_atom_site_fract_x
_atom_site_fract_y
_atom_site_fract_z
Zn1	Zn	-0.359066	1.533801	0.666311
Zn2	Zn	-0.509955	1.503252	0.521016
Zn3	Zn	-0.359118	1.358094	0.490658
Zn4	Zn	-0.509888	1.327660	0.696642
O5	O	-0.434506	1.430702	0.593657
O6	O	-0.379088	1.676769	0.647049
O7	O	-0.489996	1.483948	0.369978
O8	O	-0.232866	1.406924	0.488561
O9	O	-0.489945	1.654324	0.540301
O10	O	-0.232827	1.536015	0.617612
O11	O	-0.379177	1.377301	0.347674
O12	O	-0.379111	1.207037	0.517971
O13	O	-0.489831	1.355054	0.839630
O14	O	-0.489881	1.184678	0.669306
O15	O	-0.379022	1.506505	0.817346
O16	O	-0.636191	1.454438	0.569712
O17	O	-0.636142	1.325431	0.698743
C18	C	-0.434495	1.157737	0.593637
C19	C	-0.434512	1.040957	0.593657
C20	C	-0.550044	1.017674	0.751063
C21	C	-0.607816	0.951171	0.829770
C22	C	-0.607827	0.841447	0.829785
C23	C	-0.550057	0.798226	0.751086
C24	C	-0.492285	0.864729	0.672379
C25	C	-0.492282	0.974454	0.672371
C26	C	-0.376750	0.888012	0.514980
C27	C	-0.376743	0.997735	0.514958
C28	C	-0.318980	0.844791	0.436281
C29	C	-0.261211	0.911294	0.357568
C30	C	-0.261203	1.021023	0.357555
C31	C	-0.318970	1.064239	0.436251
C32	C	-0.668900	1.383345	0.640836
C33	C	-0.769175	1.363182	0.661055
C34	C	-1.051810	1.575245	0.449510
C35	C	-0.957597	1.594189	0.430508
C36	C	-0.910487	1.536439	0.488143
C37	C	-0.957599	1.459742	0.564783
C38	C	-1.051822	1.440790	0.583781
C39	C	-0.910498	1.401984	0.622414
C40	C	-0.957610	1.325287	0.699054
C41	C	-1.051823	1.306339	0.718049
C42	C	-1.098934	1.364089	0.660414
C43	C	-0.816276	1.420936	0.603417
C44	C	-0.816287	1.286481	0.737687
C45	C	-0.910500	1.267537	0.756689
C46	C	-0.199197	1.478272	0.546316
C47	C	-0.098922	1.498544	0.526143
C48	C	-0.434413	1.430792	0.867672
C49	C	-0.434374	1.430830	0.984440
C50	C	-0.434518	1.704733	0.593678
C51	C	-0.434523	1.821509	0.593687
C52	C	-0.434534	1.430686	0.320695
C53	C	-0.434320	1.430902	0.203876
C54	C	-0.318970	1.319790	0.961233
C55	C	-0.261250	1.264292	1.004486
C56	C	-0.261217	1.264330	1.114201
C57	C	-0.318913	1.319869	1.180667
C58	C	-0.376632	1.375367	1.137414
C59	C	-0.376657	1.375325	1.027695
C60	C	-0.492039	1.486400	1.160622
C61	C	-0.492069	1.486370	1.050906
C62	C	-0.549735	1.541939	1.227088
C63	C	-0.607452	1.597444	1.183834
C64	C	-0.607481	1.597405	1.074112
C65	C	-0.549789	1.541867	1.007653
H66	H	-0.318990	0.755448	0.436303
Cl67	Cl	-0.549818	1.541817	0.869722
Cl68	Cl	-0.550060	0.660289	0.751120
H69	H	-0.214175	0.876094	0.293502
H70	H	-0.777931	1.239454	0.784617
H71	H	-0.833774	1.551867	0.472666
Cl72	Cl	-0.318969	1.202176	0.436238
H73	H	-0.777926	1.483383	0.541016
Cl74	Cl	-0.318886	1.319893	1.318599
Cl75	Cl	-0.549703	1.541975	1.365018
Cl76	Cl	-0.680451	0.757841	0.928737
Cl77	Cl	-0.969738	1.171120	0.853032
Cl78	Cl	-1.111048	1.209914	0.814392
Cl79	Cl	-0.898377	1.690615	0.334176
H80	H	-0.318983	1.319763	0.871894
H81	H	-0.214151	1.075167	0.293468
H82	H	-1.090176	1.622250	0.402585
H83	H	-1.175650	1.348671	0.675883
H84	H	-0.214277	1.219070	0.950358
H85	H	-0.214218	1.219137	1.149417
H86	H	-0.654426	1.642655	1.237959
Cl87	Cl	-0.680053	1.667170	1.019747
H88	H	-0.654850	0.986374	0.893846
Cl89	Cl	-0.550047	1.155610	0.751038
