data_functionalizedCrystal
_audit_creation_method	'MofGen! by Chris Wilmer'
_symmetry_space_group_name_H-M	'P1'
_symmetry_Int_Tables_number	1
_symmetry_cell_setting	triclinic
loop_
_symmetry_equiv_pos_as_xyz
  x,y,z
_cell_length_a	13.033293
_cell_length_b	13.033855
_cell_length_c	13.032268
_cell_angle_alpha	89.130626
_cell_angle_beta	90.920818
_cell_angle_gamma	89.100772
loop_
_atom_site_label
_atom_site_type_symbol
_atom_site_fract_x
_atom_site_fract_y
_atom_site_fract_z
Zn1	Zn	1.542892	-0.315117	0.747155
Zn2	Zn	1.585157	-0.460671	0.559326
Zn3	Zn	1.391998	-0.309768	0.553913
Zn4	Zn	1.397361	-0.502894	0.704766
O5	O	1.479352	-0.397112	0.641290
O6	O	1.690242	-0.318993	0.742244
O7	O	1.574978	-0.420745	0.416868
O8	O	1.392082	-0.168738	0.595022
O9	O	1.721294	-0.425931	0.604247
O10	O	1.502943	-0.172668	0.736996
O11	O	1.433065	-0.309877	0.412892
O12	O	1.250967	-0.350818	0.553919
O13	O	1.401223	-0.497894	0.852129
O14	O	1.254907	-0.492708	0.664750
O15	O	1.508143	-0.359935	0.883272
O16	O	1.580179	-0.608011	0.563144
O17	O	1.442206	-0.639032	0.669998
C18	C	1.216185	-0.425765	0.604148
C19	C	1.103601	-0.438051	0.588280
C20	C	1.038047	-0.390726	0.649569
C21	C	0.921686	-0.403422	0.633170
C22	C	1.516386	-0.660273	0.612585
C23	C	1.532318	-0.772849	0.600352
C24	C	1.471114	-0.838420	0.647706
C25	C	1.487579	-0.954773	0.635064
C26	C	1.743548	-0.368349	0.678577
C27	C	1.856132	-0.356091	0.694467
C28	C	1.450567	-0.434221	0.905479
C29	C	1.438300	-0.450034	1.018061
C30	C	1.442200	-0.132924	0.670133
C31	C	1.426367	-0.020343	0.682425
C32	C	1.508074	-0.360069	0.378145
C33	C	1.520496	-0.343949	0.265622
C34	C	1.485734	-0.388825	1.083662
C35	C	1.473056	-0.405167	1.200022
H36	H	1.068069	-0.340806	0.714178
C37	C	1.384846	-0.798486	0.714100
C38	C	1.290672	-0.832031	0.675036
C39	C	1.211179	-0.795259	0.736169
H40	H	1.394485	-0.823669	0.782411
H41	H	1.385155	-0.725595	0.713741
H42	H	1.290365	-0.904906	0.675406
H43	H	1.281000	-0.806850	0.606733
H44	H	1.211488	-0.722368	0.735810
H45	H	1.220828	-0.820444	0.804476
H46	H	1.147272	-0.818005	0.709667
H47	H	1.552169	-0.984771	0.585155
H48	H	1.570489	-0.279437	1.235648
H49	H	1.423051	-0.469668	1.229997
C50	C	1.371819	-0.536163	1.058086
C51	C	1.431740	-0.603320	1.119820
C52	C	1.370536	-0.682685	1.156692
H53	H	1.317757	-0.508113	1.097433
H54	H	1.343729	-0.572508	1.001865
H55	H	1.459814	-0.566980	1.176031
H56	H	1.485799	-0.631396	1.080494
H57	H	1.342446	-0.719030	1.100472
H58	H	1.316477	-0.654626	1.196035
H59	H	1.411184	-0.728265	1.198575
H60	H	1.535724	-0.324319	1.053682
H61	H	1.073579	-0.487964	0.523666
C62	C	0.881618	-0.470143	0.547157
C63	C	0.823820	-0.549784	0.588818
C64	C	0.786904	-0.611274	0.509618
H65	H	0.839600	-0.429737	0.501498
H66	H	0.937810	-0.498254	0.510839
H67	H	0.767636	-0.521674	0.625119
H68	H	0.865816	-0.590215	0.634468
H69	H	0.843097	-0.639385	0.473300
H70	H	0.744891	-0.570859	0.463965
H71	H	0.747692	-0.665323	0.537875
H72	H	1.361771	-0.990346	0.732325
C73	C	1.618330	-0.812800	0.533645
C74	C	1.603690	-0.775549	0.433056
C75	C	1.682899	-0.812347	0.371579
H76	H	1.682373	-0.790152	0.559871
H77	H	1.617936	-0.885688	0.533936
H78	H	1.604095	-0.702676	0.432769
H79	H	1.539663	-0.798194	0.406799
H80	H	1.682505	-0.885235	0.371871
H81	H	1.746937	-0.789696	0.397815
H82	H	1.672972	-0.787085	0.303321
H83	H	0.886147	-0.306165	0.759080
