data_functionalizedCrystal
_audit_creation_method	'MofGen! by Chris Wilmer'
_symmetry_space_group_name_H-M	'P1'
_symmetry_Int_Tables_number	1
_symmetry_cell_setting	triclinic
loop_
_symmetry_equiv_pos_as_xyz
  x,y,z
_cell_length_a	8.634740
_cell_length_b	10.723024
_cell_length_c	7.681481
_cell_angle_alpha	84.204337
_cell_angle_beta	96.618670
_cell_angle_gamma	92.519088
loop_
_atom_site_label
_atom_site_type_symbol
_atom_site_fract_x
_atom_site_fract_y
_atom_site_fract_z
O1	O	2.035897	0.417428	-0.146428
O2	O	1.586583	0.383270	-0.146430
O3	O	1.821605	0.219947	-0.146422
O4	O	1.800875	0.580751	-0.146435
O5	O	1.850531	0.199791	0.146436
O6	O	1.615510	0.363114	0.146429
O7	O	2.064823	0.397273	0.146431
Zn8	Zn	1.844759	0.376993	0.192927
Zn9	Zn	1.806647	0.403549	-0.192927
O10	O	1.829802	0.560596	0.146423
C11	C	1.543514	0.365454	-0.000001
C12	C	1.372087	0.342382	-0.000002
C13	C	1.834559	0.163199	0.000005
C14	C	1.830046	0.024133	-0.000001
C15	C	1.961551	-0.035948	-0.000003
C16	C	1.956888	-0.179679	-0.000009
C17	C	2.107892	0.415089	-0.000002
C18	C	2.279318	0.438162	-0.000013
C19	C	1.816847	0.617344	-0.000008
C20	C	1.821359	0.756410	-0.000013
N21	N	1.870781	0.358870	0.456263
N22	N	1.780637	0.421664	-0.456262
H23	H	2.077589	0.019021	0.000008
H24	H	1.962817	0.294783	0.531471
H25	H	2.069468	-0.231356	-0.000003
O26	O	1.340803	0.557122	-0.000248
C27	C	1.276136	0.630204	-0.151953
H28	H	1.159021	0.586318	-0.202529
H29	H	1.258412	0.729244	-0.117850
H30	H	1.358682	0.634149	-0.258151
H31	H	1.688619	0.485757	0.468538
O32	O	1.686913	-0.182082	-0.000248
C33	C	1.585393	-0.204681	-0.151949
H34	H	1.617120	-0.295538	-0.202521
H35	H	1.460081	-0.213216	-0.117842
H36	H	1.596884	-0.123565	-0.258152
O37	O	1.310123	0.223571	-0.000085
C38	C	1.147016	0.226203	-0.000053
H39	H	1.104906	0.323019	-0.055498
H40	H	1.088272	0.152586	-0.085082
H41	H	1.115978	0.205131	0.140443
H42	H	1.714007	-0.030836	-0.000013
