data_functionalizedCrystal
_audit_creation_method	'MofGen! by Chris Wilmer'
_symmetry_space_group_name_H-M	'P1'
_symmetry_Int_Tables_number	1
_symmetry_cell_setting	triclinic
loop_
_symmetry_equiv_pos_as_xyz
  x,y,z
_cell_length_a	15.944551
_cell_length_b	15.995292
_cell_length_c	15.021413
_cell_angle_alpha	89.999974
_cell_angle_beta	89.996540
_cell_angle_gamma	83.483678
loop_
_atom_site_label
_atom_site_type_symbol
_atom_site_fract_x
_atom_site_fract_y
_atom_site_fract_z
O1	O	1.114501	0.107982	-0.073945
O2	O	1.614501	0.607982	0.426055
O3	O	0.869948	0.121296	-0.073968
O4	O	1.369948	0.621296	0.426032
O5	O	0.998935	-0.007252	-0.073943
O6	O	1.498935	0.492748	0.426057
O7	O	0.985514	0.236529	-0.073970
O8	O	1.485514	0.736529	0.426030
O9	O	0.998913	-0.007236	0.074121
O10	O	1.498913	0.492764	0.574121
O11	O	0.869926	0.121312	0.074096
O12	O	1.369926	0.621312	0.574096
O13	O	1.114479	0.107998	0.074119
O14	O	1.614479	0.607998	0.574119
Zn15	Zn	0.992199	0.114657	0.097616
Zn16	Zn	1.492199	0.614657	0.597616
Zn17	Zn	0.992228	0.114636	-0.097465
Zn18	Zn	1.492228	0.614636	0.402535
O19	O	0.985492	0.236545	0.074094
O20	O	1.485492	0.736545	0.574094
C21	C	0.838643	0.120751	0.000061
C22	C	1.338643	0.620751	0.500061
C23	C	0.745397	0.119094	0.000053
C24	C	1.245397	0.619094	0.500053
C25	C	0.998378	-0.038439	0.000090
C26	C	1.498378	0.461561	0.500090
C27	C	0.996740	-0.131392	0.000094
C28	C	1.496740	0.368608	0.500094
N29	N	0.992185	0.114671	0.230754
N30	N	1.492185	0.614671	0.730754
C31	C	0.530563	0.035453	0.000079
C32	C	1.030563	0.535453	0.500079
C33	C	0.469543	0.074285	-0.072928
C34	C	0.969543	0.574285	0.427072
C35	C	0.574672	0.116096	0.000064
C36	C	1.074672	0.616096	0.500064
C37	C	0.469544	0.074320	0.073051
C38	C	0.969544	0.574320	0.573051
C39	C	0.409760	0.113195	0.000078
C40	C	0.909760	0.613195	0.500078
C41	C	0.514881	0.154950	-0.073004
C42	C	1.014881	0.654950	0.426996
C43	C	0.514888	0.154974	0.073041
C44	C	1.014888	0.654974	0.573041
C45	C	0.453886	0.193865	0.000016
C46	C	0.953886	0.693865	0.500016
C47	C	0.669674	0.117766	0.000055
C48	C	1.169674	0.617766	0.500055
C49	C	0.314760	0.111532	0.000081
C50	C	0.814760	0.611532	0.500081
C51	C	1.145784	0.108542	0.000088
C52	C	1.645784	0.608542	0.500088
C53	C	1.239029	0.110199	0.000090
C54	C	1.739029	0.610199	0.500090
C55	C	0.986049	0.267733	0.000059
C56	C	1.486049	0.767733	0.500059
C57	C	0.987687	0.360686	0.000049
C58	C	1.487687	0.860686	0.500049
C59	C	0.993707	0.698425	0.000079
C60	C	1.493707	1.198425	0.500079
C61	C	0.900608	0.675107	0.000398
C62	C	1.400608	1.175107	0.500398
C63	C	0.898838	0.578432	0.000055
C64	C	1.398838	1.078432	0.500055
C65	C	0.990720	0.530869	0.000064
C66	C	1.490720	1.030869	0.500064
C67	C	1.037278	0.559975	-0.084478
C68	C	1.537278	1.059975	0.415522
C69	C	1.038398	0.656765	-0.084539
C70	C	1.538398	1.156765	0.415461
C71	C	1.040274	0.656618	0.083838
C72	C	1.540274	1.156618	0.583838
C73	C	1.036824	0.560125	0.084945
C74	C	1.536824	1.060125	0.584945
C75	C	0.989036	0.436173	0.000054
C76	C	1.489036	0.936173	0.500054
C77	C	0.995393	0.793121	0.000083
C78	C	1.495393	1.293121	0.500083
C79	C	0.933031	0.174580	0.529757
C80	C	1.433031	0.674580	1.029757
C81	C	0.916056	0.099148	0.470404
C82	C	1.416056	0.599148	0.970404
C83	C	0.992217	0.114641	0.587790
C84	C	1.492217	0.614641	1.087790
C85	C	1.009137	0.190086	0.470401
C86	C	1.509137	0.690086	0.970401
C87	C	0.992199	0.114660	0.412366
C88	C	1.492199	0.614660	0.912366
C89	C	0.975204	0.039171	0.529744
C90	C	1.475204	0.539171	1.029744
C91	C	1.068319	0.130159	0.529746
C92	C	1.568319	0.630159	1.029746
C93	C	1.051375	0.054672	0.470421
C94	C	1.551375	0.554672	0.970421
C95	C	0.992225	0.114632	0.688848
C96	C	1.492225	0.614632	1.188848
C97	C	0.992192	0.114661	0.311311
C98	C	1.492192	0.614661	0.811311
N99	N	0.992234	0.114629	0.769397
N100	N	1.492234	0.614629	1.269397
H101	H	0.563913	-0.031474	-0.000004
H102	H	1.063913	0.468526	0.499996
H103	H	1.023468	0.253883	0.444351
H104	H	1.523468	0.753883	0.944351
H105	H	1.011103	0.684874	0.147921
H106	H	1.511103	1.184874	0.647921
Cl107	Cl	0.545946	0.207602	0.168330
Cl108	Cl	1.045946	0.707602	0.668330
H109	H	0.851692	0.086029	0.444332
H110	H	1.351692	0.586029	0.944332
Cl111	Cl	1.143787	0.679240	-0.090428
Cl112	Cl	1.643787	1.179240	0.409572
Cl113	Cl	0.438534	0.021650	0.168345
Cl114	Cl	0.938534	0.521650	0.668345
H115	H	0.864712	0.703105	0.061027
H116	H	1.364712	1.203105	0.561027
H117	H	0.862369	0.559404	0.060651
H118	H	1.362369	1.059404	0.560651
H119	H	0.864932	0.704122	-0.059900
H120	H	1.364932	1.204122	0.440100
H121	H	0.534869	0.189027	-0.134794
H122	H	1.034869	0.689027	0.365206
Cl123	Cl	0.438523	0.021618	-0.168214
Cl124	Cl	0.938523	0.521618	0.331786
Cl125	Cl	0.402659	0.297299	-0.000056
Cl126	Cl	0.902659	0.797299	0.499944
H127	H	1.002924	0.541555	0.147489
H128	H	1.502924	1.041555	0.647489
H129	H	0.862182	0.560026	-0.060666
H130	H	1.362182	1.060026	0.439334
Cl131	Cl	0.987391	0.529006	-0.181636
Cl132	Cl	1.487391	1.029006	0.318364
Cl133	Cl	0.855720	0.252738	0.569985
Cl134	Cl	1.355720	0.752738	1.069985
H135	H	1.103886	0.527156	0.090062
H136	H	1.603886	1.027156	0.590062
Cl137	Cl	1.141668	0.510781	-0.089326
Cl138	Cl	1.641668	1.010781	0.410674
Cl139	Cl	0.988642	0.698172	-0.182122
Cl140	Cl	1.488642	1.198172	0.317878
H141	H	1.108801	0.670617	0.084421
H142	H	1.608801	1.170617	0.584421
H143	H	0.960809	-0.024636	0.555702
H144	H	1.460809	0.475364	1.055702
H145	H	1.101422	0.003937	0.444532
H146	H	1.601422	0.503937	0.944532
H147	H	1.132663	0.143307	0.555835
H148	H	1.632663	0.643307	1.055835
