data_functionalizedCrystal
_audit_creation_method	'MofGen! by Chris Wilmer'
_symmetry_space_group_name_H-M	'P1'
_symmetry_Int_Tables_number	1
_symmetry_cell_setting	triclinic
loop_
_symmetry_equiv_pos_as_xyz
  x,y,z
_cell_length_a	6.817900
_cell_length_b	17.078472
_cell_length_c	9.514088
_cell_angle_alpha	93.258389
_cell_angle_beta	118.843545
_cell_angle_gamma	99.306020
loop_
_atom_site_label
_atom_site_type_symbol
_atom_site_fract_x
_atom_site_fract_y
_atom_site_fract_z
V1	V	-4.196319	-0.111173	-0.500580
O2	O	-4.202103	0.003895	-0.491217
O3	O	-4.125999	-0.219046	-0.496996
O4	O	-4.231301	-0.110098	-0.718973
O5	O	-4.096072	-0.105807	-0.267704
V6	V	-4.671982	-0.097335	-0.472745
O7	O	-4.474817	-0.141529	-0.561637
O8	O	-4.843681	-0.066979	-0.411688
O9	O	-4.519095	0.010538	-0.476328
O10	O	-4.783595	-0.212403	-0.482108
O11	O	-4.889626	-0.102701	-0.705621
O12	O	-4.413793	-0.098410	-0.254352
C13	C	-3.962969	-0.245323	-0.489058
C14	C	-3.987317	-0.333515	-0.487584
C15	C	-4.183141	-0.379010	-0.494897
C16	C	-4.206013	-0.461876	-0.493521
C17	C	-4.033051	-0.499244	-0.484822
C18	C	-3.837215	-0.453742	-0.477514
C19	C	-3.814353	-0.370879	-0.478901
C20	C	-4.081660	-0.746634	-0.479826
C21	C	-4.104535	-0.829503	-0.478434
C22	C	-4.473334	-0.837631	-0.494445
C23	C	-4.450449	-0.754765	-0.495821
C24	C	-4.254621	-0.709272	-0.488522
N25	N	-4.056422	-0.583945	-0.483411
N26	N	-4.231260	-0.624573	-0.489945
C27	C	-4.097291	-0.106349	-0.772209
C28	C	-4.207031	-0.106183	-0.950745
C29	C	-4.345465	0.036811	-0.484262
C30	C	-4.300359	0.125002	-0.485746
C31	C	-4.211142	-0.102162	-0.201108
C32	C	-4.080640	-0.102323	-0.022570
H33	H	-4.365472	-0.498916	-0.499479
Br34	Br	-3.815890	-0.684902	-0.469909
H35	H	-4.399211	-0.109364	-1.025848
H36	H	-4.323980	-0.348591	-0.501965
Br37	Br	-3.548592	-0.309134	-0.468993
H38	H	-3.888480	-0.099152	-0.947478
H39	H	-4.591304	-0.724348	-0.502917
Br40	Br	-3.602486	-0.504455	-0.465723
H41	H	-4.632771	-0.874681	-0.500388
Br42	Br	-3.869797	-0.880217	-0.466648
