data_functionalizedCrystal
_audit_creation_method	'MofGen! by Chris Wilmer'
_symmetry_space_group_name_H-M	'P1'
_symmetry_Int_Tables_number	1
_symmetry_cell_setting	triclinic
loop_
_symmetry_equiv_pos_as_xyz
  x,y,z
_cell_length_a	14.560438
_cell_length_b	14.560438
_cell_length_c	14.560438
_cell_angle_alpha	60.000518
_cell_angle_beta	90.001724
_cell_angle_gamma	59.999939
loop_
_atom_site_label
_atom_site_type_symbol
_atom_site_fract_x
_atom_site_fract_y
_atom_site_fract_z
Zr1	Zr	0.884769	1.005260	-0.120478
O2	O	0.738118	1.196866	-0.267128
O3	O	0.929725	0.813658	-0.075525
O4	O	0.929722	1.005262	-0.267125
O5	O	0.738123	1.005260	0.075614
O6	O	1.080863	1.005259	-0.267121
O7	O	0.738120	1.005262	-0.075527
O8	O	1.080868	0.662514	0.075618
O9	O	0.738118	1.348004	-0.267125
O10	O	1.061693	0.892463	-0.056346
O11	O	0.948900	0.892463	0.056445
O12	O	0.948897	1.118053	-0.169140
O13	O	0.836104	1.118053	-0.056349
Zr14	Zr	1.125825	1.005251	0.120582
Zr15	Zr	1.125821	1.005256	-0.120470
Zr16	Zr	0.884772	1.005256	0.120574
Zr17	Zr	0.884769	1.246308	-0.120474
Zr18	Zr	1.125824	0.764204	0.120577
O19	O	1.080869	1.196854	0.075628
O20	O	1.080863	1.196860	-0.267117
O21	O	0.738123	1.196860	0.075617
O22	O	1.272475	0.813645	0.267232
O23	O	1.272470	0.813652	-0.075513
O24	O	0.929730	0.813652	0.267221
O25	O	1.272470	1.005252	-0.075510
O26	O	1.080871	1.005250	0.267229
O27	O	0.929730	1.005252	0.267224
O28	O	1.272473	1.005249	0.075631
O29	O	0.929723	1.348001	-0.267119
O30	O	1.080871	0.662511	0.267223
O31	O	1.272475	0.662507	0.267229
O32	O	1.272472	0.662511	0.075625
O33	O	0.738121	1.348001	-0.075521
O34	O	0.929726	1.347997	-0.075515
O35	O	1.061696	0.892459	0.169244
O36	O	1.174489	0.892459	0.056453
O37	O	1.061693	1.118048	-0.056342
O38	O	0.948900	1.118048	0.056450
C39	C	1.005296	0.703742	0.000046
C40	C	1.005296	0.601411	0.000044
C41	C	1.064170	0.553335	-0.058832
C42	C	1.064175	0.457176	-0.058821
C43	C	0.946421	0.457181	0.058943
C44	C	0.946424	0.553332	0.058938
C45	C	0.703777	1.005262	0.000042
C46	C	0.601444	1.005263	0.000039
C47	C	0.553359	1.005267	-0.083224
C48	C	0.457213	1.005255	-0.083209
C49	C	0.457243	1.005241	0.083336
C50	C	0.553391	1.005244	0.083325
C51	C	0.553339	1.005281	-0.179381
C52	C	0.457193	1.005269	-0.179366
C53	C	1.306816	1.005250	0.000062
C54	C	1.409149	1.005248	0.000065
C55	C	1.005292	1.005261	-0.301468
C56	C	1.005290	1.005263	-0.403801
C57	C	1.005297	1.306770	0.000058
C58	C	1.005297	1.409101	0.000059
C59	C	0.946421	1.123009	-0.606909
C60	C	0.946411	1.123017	-0.510761
C61	C	1.064174	0.887494	-0.392990
C62	C	1.064176	0.887487	-0.489136
C63	C	1.005301	1.005250	0.301572
C64	C	1.005303	1.005249	0.403905
C65	C	1.306816	0.703736	0.000056
C66	C	1.409149	0.601403	0.000058
C67	C	1.005301	0.703737	0.301566
C68	C	1.005302	0.601404	0.403897
C69	C	1.306821	0.703731	0.301576
C70	C	1.409155	0.601396	0.403910
C71	C	0.703773	1.306781	-0.301472
C72	C	0.601438	1.409116	-0.403806
C73	C	0.703777	1.306775	0.000048
C74	C	0.601445	1.409108	0.000046
C75	C	1.005292	1.306775	-0.301462
C76	C	1.005291	1.409108	-0.403793
C77	C	1.398349	0.553327	-0.058819
C78	C	1.494506	0.457182	-0.058821
C79	C	1.612258	0.457195	0.058938
C80	C	1.516102	0.553345	0.058933
C81	C	1.064180	0.553323	0.510852
C82	C	1.064169	0.457180	0.606999
C83	C	0.946399	0.457202	0.489222
C84	C	0.946405	0.553350	0.393078
C85	C	1.516109	0.553317	0.393114
C86	C	1.612259	0.457171	0.489272
C87	C	1.494488	0.457188	0.607019
C88	C	1.398340	0.553339	0.510862
H89	H	1.112109	0.592477	-0.106785
H90	H	0.898488	0.418024	0.106891
H91	H	1.112109	0.791617	-0.305894
H92	H	1.112117	0.418033	-0.106762
F93	F	0.883765	0.604494	0.121612
H94	H	0.592549	1.005224	0.151132
H95	H	1.311266	0.592465	-0.106771
H96	H	1.112125	0.791587	-0.480323
H97	H	0.474010	0.911992	-0.162564
F98	F	1.483004	0.406022	-0.121488
H99	H	1.699343	0.418029	0.480474
F100	F	1.726090	0.406035	0.121598
F101	F	0.883723	0.406049	0.477719
F102	F	1.482990	0.406032	0.720849
F103	F	1.527600	0.604519	0.121596
F104	F	1.126862	0.604465	0.522370
F105	F	0.883731	1.248354	-0.522277
F106	F	0.406095	1.005218	0.171972
H107	H	1.311247	0.592489	0.519661
F108	F	1.527623	0.604466	0.279291
F109	F	0.883729	0.604529	0.279238
F110	F	0.646523	0.887126	-0.168563
H111	H	0.385887	1.095673	-0.261480
F112	F	1.126832	0.406017	0.720828
H113	H	0.536518	1.098553	-0.255859
H114	H	0.898480	1.218898	-0.693996
