data_functionalizedCrystal
_audit_creation_method	'MofGen! by Chris Wilmer'
_symmetry_space_group_name_H-M	'P1'
_symmetry_Int_Tables_number	1
_symmetry_cell_setting	triclinic
loop_
_symmetry_equiv_pos_as_xyz
  x,y,z
_cell_length_a	13.262533
_cell_length_b	14.044190
_cell_length_c	12.503552
_cell_angle_alpha	86.163821
_cell_angle_beta	77.661589
_cell_angle_gamma	88.648052
loop_
_atom_site_label
_atom_site_type_symbol
_atom_site_fract_x
_atom_site_fract_y
_atom_site_fract_z
O1	O	1.384999	0.146997	-0.315269
O2	O	1.086150	0.155547	-0.227962
O3	O	1.231084	0.013190	-0.270325
O4	O	1.240065	0.289354	-0.272906
O5	O	1.220171	0.023905	-0.445778
O6	O	1.075238	0.166262	-0.403415
O7	O	1.374086	0.157712	-0.490722
Cu8	Cu	1.223665	0.162966	-0.463089
Cu9	Cu	1.236571	0.150293	-0.255595
O10	O	1.229153	0.300069	-0.448359
C11	C	1.042217	0.159439	-0.304448
C12	C	0.927565	0.155061	-0.270954
C13	C	0.580581	0.166097	-0.559100
C14	C	0.688301	0.170215	-0.590574
C15	C	0.748122	0.166427	-0.510672
C16	C	0.700213	0.158520	-0.399290
C17	C	0.592483	0.154409	-0.367813
C18	C	0.760024	0.154738	-0.319385
C19	C	0.712115	0.146832	-0.208003
C20	C	0.604394	0.142720	-0.176531
C21	C	0.544573	0.146509	-0.256433
C22	C	0.867755	0.158850	-0.350862
C23	C	0.879656	0.147161	-0.159575
C24	C	0.771936	0.143043	-0.128101
C25	C	1.221699	-0.016852	-0.356907
C26	C	1.209982	-0.122334	-0.353493
C27	C	1.271662	-0.371274	-0.371470
C28	C	1.188580	-0.315462	-0.347206
C29	C	1.200491	-0.207996	-0.350705
C30	C	1.259752	-0.478750	-0.367972
C31	C	1.418020	0.153820	-0.414234
C32	C	1.532672	0.158197	-0.447720
C33	C	1.238537	0.330111	-0.361775
C34	C	1.250255	0.435593	-0.365182
N35	N	1.214596	0.171878	-0.609030
C36	C	1.258984	0.128260	-0.894438
C37	C	1.201263	0.184989	-0.824242
C38	C	1.208683	0.177692	-0.704488
C39	C	1.251565	0.135555	-1.014204
N40	N	1.245648	0.141374	-0.109656
H41	H	0.835832	0.169781	-0.536305
N42	N	0.720259	0.134511	-0.007971
H43	H	0.642940	0.132480	-0.000161
H44	H	0.738729	0.191335	0.029173
H45	H	1.146274	0.239037	-0.854086
H46	H	0.928362	0.144080	-0.094512
N47	N	0.552724	0.134196	-0.056399
H48	H	0.511247	0.073573	-0.039955
H49	H	0.505395	0.190931	-0.038280
H50	H	1.108505	-0.348389	-0.323806
N51	N	0.919414	0.167378	-0.470988
H52	H	0.901016	0.110561	-0.508197
H53	H	0.996719	0.169440	-0.478720
N54	N	1.377723	-0.327664	-0.402488
H55	H	1.420524	-0.352850	-0.348774
H56	H	1.371209	-0.255968	-0.400644
N57	N	0.739961	0.178747	-0.710700
H58	H	0.721565	0.121930	-0.747911
H59	H	0.817266	0.180811	-0.718431
N60	N	0.516064	0.170195	-0.645271
H61	H	0.440496	0.167733	-0.608419
H62	H	0.534222	0.114069	-0.692461
N63	N	0.428386	0.142062	-0.222496
H64	H	0.397144	0.202020	-0.251596
H65	H	0.407189	0.136449	-0.139812
N66	N	1.331820	0.056681	-0.854898
H67	H	1.404857	0.070365	-0.895717
H68	H	1.312461	-0.009811	-0.868766
