data_functionalizedCrystal
_audit_creation_method	'MofGen! by Chris Wilmer'
_symmetry_space_group_name_H-M	'P1'
_symmetry_Int_Tables_number	1
_symmetry_cell_setting	triclinic
loop_
_symmetry_equiv_pos_as_xyz
  x,y,z
_cell_length_a	14.519709
_cell_length_b	13.339070
_cell_length_c	12.376457
_cell_angle_alpha	75.592262
_cell_angle_beta	101.296542
_cell_angle_gamma	99.654720
loop_
_atom_site_label
_atom_site_type_symbol
_atom_site_fract_x
_atom_site_fract_y
_atom_site_fract_z
O1	O	0.449836	1.362493	-0.093988
O2	O	0.389122	1.067858	-0.093994
O3	O	0.287229	1.222985	-0.093981
O4	O	0.551729	1.207366	-0.094001
O5	O	0.312658	1.184217	0.094028
O6	O	0.414551	1.029090	0.094014
O7	O	0.475265	1.323725	0.094021
Zn8	Zn	0.448945	1.170252	0.123868
Zn9	Zn	0.415442	1.221331	-0.123842
O10	O	0.577158	1.168598	0.094007
C11	C	0.391581	1.010766	0.000009
C12	C	0.361011	0.898410	0.000007
C13	C	0.265399	1.202873	0.000024
C14	C	0.162462	1.200691	0.000024
C15	C	0.472806	1.380817	0.000015
C16	C	0.503374	1.493176	0.000010
C17	C	-0.214481	1.192664	-0.000005
C18	C	-0.109604	1.194893	0.000003
C19	C	-0.026012	1.196677	0.000011
C20	C	0.078871	1.198907	0.000017
C21	C	0.598988	1.188711	0.000000
C22	C	0.701923	1.190894	-0.000008
N23	N	0.471811	1.135400	0.292923
C24	C	0.265683	1.857538	0.000013
C25	C	0.236958	1.751974	0.000010
C26	C	0.303560	1.687269	0.000010
C27	C	0.398891	1.728139	0.000013
C28	C	0.427618	1.833715	0.000006
C29	C	0.465494	1.663446	0.000004
C30	C	0.560825	1.704316	0.000006
C31	C	0.589547	1.809882	0.000001
C32	C	0.522946	1.874587	0.000001
C33	C	0.436768	1.557870	0.000010
C34	C	0.598702	1.534047	0.000004
C35	C	0.627427	1.639611	0.000007
N36	N	0.392570	1.256191	-0.292897
C37	C	0.339472	1.337095	0.647926
C38	C	0.323466	1.361483	0.529588
C39	C	0.360551	1.304964	0.470416
C40	C	0.413644	1.224054	0.529594
C41	C	0.429658	1.199669	0.647943
C42	C	0.450737	1.167538	0.470433
C43	C	0.503831	1.086627	0.529610
C44	C	0.519841	1.062246	0.647948
C45	C	0.482757	1.118765	0.707120
C46	C	0.434723	1.191922	0.352084
C47	C	0.524910	1.054496	0.352100
C48	C	0.540916	1.030108	0.470438
H49	H	0.359149	1.524605	0.000008
H50	H	0.280239	1.427360	0.481411
N51	N	0.595167	0.947479	0.530890
N52	N	0.679016	0.951734	0.517671
H53	H	0.717331	0.893376	0.560365
N54	N	0.344218	1.329881	0.349538
N55	N	0.372391	1.418980	0.296701
H56	H	0.360853	1.436580	0.211326
H57	H	0.309288	1.383111	0.696112
H58	H	0.495785	1.098907	0.803480
H59	H	0.555110	1.008475	0.303923
H60	H	0.391495	1.257800	0.303912
N61	N	0.574078	0.979597	0.708376
N62	N	0.547041	0.888772	0.695173
H63	H	0.585346	0.830400	0.737847
N64	N	0.274205	1.579441	0.000004
N65	N	0.189088	1.542963	0.000003
H66	H	0.168352	1.466805	0.000002
H67	H	0.159340	1.718706	0.000006
N68	N	0.197670	1.923648	-0.000006
N69	N	0.223332	2.017906	-0.000021
H70	H	0.175293	2.064600	-0.000038
N71	N	0.552288	1.982425	-0.000018
N72	N	0.590535	2.040569	-0.079273
H73	H	0.611257	2.116732	-0.079287
N74	N	0.666748	1.467961	0.000034
N75	N	0.734884	1.455440	0.079286
H76	H	0.782938	1.408763	0.079308
H77	H	0.705047	1.672903	0.000008
N78	N	0.686924	1.851619	-0.000021
N79	N	0.746381	1.793844	-0.000026
H80	H	0.815154	1.823318	-0.000044
