data_functionalizedCrystal
_audit_creation_method	'MofGen! by Chris Wilmer'
_symmetry_space_group_name_H-M	'P1'
_symmetry_Int_Tables_number	1
_symmetry_cell_setting	triclinic
loop_
_symmetry_equiv_pos_as_xyz
  x,y,z
_cell_length_a	15.021413
_cell_length_b	16.109301
_cell_length_c	16.109301
_cell_angle_alpha	83.461481
_cell_angle_beta	90.002593
_cell_angle_gamma	89.995406
loop_
_atom_site_label
_atom_site_type_symbol
_atom_site_fract_x
_atom_site_fract_y
_atom_site_fract_z
O1	O	0.073979	-1.103137	-0.106856
O2	O	0.407312	-0.769803	0.226477
O3	O	0.740645	-0.436470	0.559811
O4	O	0.073993	-0.861075	-0.120155
O5	O	0.407326	-0.527741	0.213178
O6	O	0.740660	-0.194408	0.546511
O7	O	0.073976	-0.988755	0.007525
O8	O	0.407310	-0.655422	0.340859
O9	O	0.740643	-0.322089	0.674192
O10	O	0.073995	-0.975456	-0.234537
O11	O	0.407329	-0.642123	0.098797
O12	O	0.740662	-0.308789	0.432130
O13	O	-0.074088	-0.988735	0.007507
O14	O	0.259246	-0.655402	0.340840
O15	O	0.592579	-0.322068	0.674174
O16	O	-0.074071	-0.861054	-0.120174
O17	O	0.259262	-0.527721	0.213160
O18	O	0.592596	-0.194388	0.546493
O19	O	-0.074086	-1.103116	-0.106874
O20	O	0.259248	-0.769783	0.226459
O21	O	0.592581	-0.436450	0.559792
Zn22	Zn	-0.097587	-0.982082	-0.113527
Zn23	Zn	0.235747	-0.648749	0.219806
Zn24	Zn	0.569080	-0.315415	0.553140
Zn25	Zn	0.097494	-0.982109	-0.113503
Zn26	Zn	0.430828	-0.648775	0.219831
Zn27	Zn	0.764161	-0.315442	0.553164
O28	O	-0.074069	-0.975436	-0.234555
O29	O	0.259264	-0.642102	0.098778
O30	O	0.592598	-0.308769	0.432112
C31	C	-0.000037	-0.830090	-0.119626
C32	C	0.333296	-0.496756	0.213708
C33	C	0.666629	-0.163423	0.547041
C34	C	-0.000032	-0.737794	-0.118011
C35	C	0.333301	-0.404461	0.215323
C36	C	0.666635	-0.071128	0.548656
C37	C	-0.000056	-0.988206	0.038491
C38	C	0.333277	-0.654873	0.371824
C39	C	0.666611	-0.321540	0.705158
C40	C	-0.000057	-0.986591	0.130786
C41	C	0.333276	-0.653258	0.464120
C42	C	0.666609	-0.319925	0.797453
N43	N	-0.230724	-0.982070	-0.113543
N44	N	0.102609	-0.648736	0.219791
N45	N	0.435942	-0.315403	0.553124
C46	C	-0.470400	-0.923021	-0.172554
C47	C	-0.137067	-0.589688	0.160779
C48	C	0.196267	-0.256355	0.494112
C49	C	-0.529737	-0.998143	-0.188671
C50	C	-0.196404	-0.664810	0.144663
C51	C	0.136929	-0.331476	0.477996
C52	C	-0.412331	-0.982091	-0.113522
C53	C	-0.078998	-0.648758	0.219811
C54	C	0.254335	-0.315424	0.553145
C55	C	-0.529735	-0.906990	-0.097424
C56	C	-0.196402	-0.573656	0.235909
C57	C	0.136931	-0.240323	0.569242
C58	C	-0.587755	-0.982105	-0.113504
C59	C	-0.254422	-0.648772	0.219830
C60	C	0.078911	-0.315438	0.553163
C61	C	-0.470362	-1.057251	-0.129676
C62	C	-0.137029	-0.723917	0.203658
C63	C	0.196304	-0.390584	0.536991
C64	C	-0.470355	-0.966048	-0.038396
C65	C	-0.137022	-0.632715	0.294937
C66	C	0.196312	-0.299381	0.628270
C67	C	-0.529666	-1.041224	-0.054481
C68	C	-0.196333	-0.707891	0.278853
C69	C	0.137001	-0.374557	0.612186
C70	C	-0.311274	-0.982082	-0.113535
C71	C	0.022059	-0.648749	0.219799
C72	C	0.355393	-0.315415	0.553132
C73	C	-0.688811	-0.982123	-0.113491
C74	C	-0.355477	-0.648789	0.219843
C75	C	-0.022144	-0.315456	0.553176
N76	N	0.230632	-0.982128	-0.113480
N77	N	0.563965	-0.648794	0.219853
N78	N	0.897299	-0.315461	0.553186
C79	C	-0.000053	-1.134101	-0.107404
C80	C	0.333280	-0.800768	0.225929
C81	C	0.666613	-0.467435	0.559263
C82	C	-0.000053	-1.226397	-0.109019
C83	C	0.333281	-0.893063	0.224314
C84	C	0.666614	-0.559730	0.557648
C85	C	-0.000037	-0.515522	-0.190018
C86	C	0.333297	-0.182188	0.143315
C87	C	0.666630	0.151145	0.476648
C88	C	-0.000043	-0.428801	-0.188494
C89	C	0.333291	-0.095468	0.144839
C90	C	0.666624	0.237865	0.478172
C91	C	-0.000051	-0.448676	-0.037006
C92	C	0.333283	-0.115342	0.296328
C93	C	0.666616	0.217991	0.629661
C94	C	-0.000051	-0.535394	-0.038530
C95	C	0.333282	-0.202061	0.294803
C96	C	0.666615	0.131272	0.628136
C97	C	-0.000040	-0.568815	-0.115039
C98	C	0.333294	-0.235482	0.218294
C99	C	0.666627	0.097852	0.551627
C100	C	-0.000045	-0.395376	-0.111990
C101	C	0.333288	-0.062042	0.221343
C102	C	0.666622	0.271291	0.554676
C103	C	-0.000051	-0.301350	-0.110337
C104	C	0.333282	0.031984	0.222996
C105	C	0.666615	0.365317	0.556329
C106	C	-0.000035	-0.662847	-0.116693
C107	C	0.333298	-0.329514	0.216641
C108	C	0.666632	0.003820	0.549974
C109	C	-0.000034	-0.975984	-0.265521
C110	C	0.333299	-0.642651	0.067813
C111	C	0.666632	-0.309318	0.401146
C112	C	-0.000027	-0.977600	-0.357816
C113	C	0.333306	-0.644266	-0.024483
C114	C	0.666639	-0.310933	0.308851
C115	C	-0.000048	-1.058599	0.353059
C116	C	0.333286	-0.725266	0.686392
C117	C	0.666619	-0.391932	1.019725
C118	C	-0.000040	-1.057075	0.439779
C119	C	0.333293	-0.723742	0.773112
C120	C	0.666627	-0.390408	1.106446
C121	C	-0.000035	-0.905586	0.419905
C122	C	0.333299	-0.572253	0.753238
C123	C	0.666632	-0.238919	1.086571
C124	C	-0.000036	-0.907111	0.333186
C125	C	0.333298	-0.573778	0.666519
C126	C	0.666631	-0.240444	0.999853
C127	C	-0.000047	-0.983620	0.299766
C128	C	0.333287	-0.650287	0.633099
C129	C	0.666620	-0.316953	0.966432
C130	C	-0.000038	-0.980571	0.473205
C131	C	0.333295	-0.647238	0.806538
C132	C	0.666629	-0.313904	1.139871
C133	C	-0.000030	-0.978918	0.567231
C134	C	0.333303	-0.645585	0.900564
C135	C	0.666637	-0.312251	1.233897
C136	C	-0.000053	-0.985273	0.205734
C137	C	0.333280	-0.651940	0.539067
C138	C	0.666614	-0.318607	0.872400
H139	H	-0.444378	-0.873118	-0.222517
H140	H	-0.111044	-0.539785	0.110816
H141	H	0.222289	-0.206452	0.444150
F142	F	-0.000058	-1.140026	0.317493
F143	F	0.333275	-0.806693	0.650827
F144	F	0.666608	-0.473360	0.984160
H145	H	-0.000027	-0.843295	0.447127
H146	H	0.333306	-0.509962	0.780460
H147	H	0.666639	-0.176628	1.113793
F148	F	-0.563470	-1.106594	0.010784
F149	F	-0.230137	-0.773260	0.344118
F150	F	0.103196	-0.439927	0.677451
H151	H	-0.000039	-1.118130	0.483168
H152	H	0.333294	-0.784797	0.816501
H153	H	0.666628	-0.451464	1.149834
F154	F	-0.436233	-0.948266	0.044608
F155	F	-0.102900	-0.614932	0.377942
F156	F	0.230433	-0.281599	0.711275
F157	F	-0.563826	-0.823969	-0.079636
F158	F	-0.230493	-0.490635	0.253697
F159	F	0.102840	-0.157302	0.587030
F160	F	-0.000060	-0.592117	0.041277
F161	F	0.333273	-0.258784	0.374610
F162	F	0.666606	0.074550	0.707944
H163	H	-0.000032	-0.846050	0.289792
H164	H	0.333301	-0.512717	0.623126
H165	H	0.666635	-0.179384	0.956459
H166	H	-0.000034	-0.542730	-0.252317
H167	H	0.333299	-0.209396	0.081017
H168	H	0.666633	0.123937	0.414350
H169	H	-0.555820	-1.011725	-0.252195
H170	H	-0.222487	-0.678391	0.081139
H171	H	0.110846	-0.345058	0.414472
F172	F	-0.000059	-0.413100	0.044416
F173	F	0.333274	-0.079766	0.377749
F174	F	0.666608	0.253567	0.711083
H175	H	-0.444392	-1.120782	-0.143359
H176	H	-0.111058	-0.787449	0.189974
H177	H	0.222275	-0.454115	0.523307
F178	F	-0.000041	-0.372086	-0.268298
F179	F	0.333293	-0.038753	0.065036
F180	F	0.666626	0.294581	0.398369
