data_functionalizedCrystal
_audit_creation_method	'MofGen! by Chris Wilmer'
_symmetry_space_group_name_H-M	'P1'
_symmetry_Int_Tables_number	1
_symmetry_cell_setting	triclinic
loop_
_symmetry_equiv_pos_as_xyz
  x,y,z
_cell_length_a	19.077105
_cell_length_b	12.594516
_cell_length_c	19.077174
_cell_angle_alpha	92.277804
_cell_angle_beta	85.483752
_cell_angle_gamma	87.712633
loop_
_atom_site_label
_atom_site_type_symbol
_atom_site_fract_x
_atom_site_fract_y
_atom_site_fract_z
Zn1	Zn	1.093758	-0.517166	-0.441877
Zn2	Zn	1.088960	-0.687708	-0.324000
Zn3	Zn	0.971142	-0.502287	-0.319274
Zn4	Zn	0.975854	-0.687638	-0.437118
O5	O	1.032429	-0.598700	-0.380567
O6	O	1.191772	-0.546045	-0.430210
O7	O	1.069351	-0.656914	-0.224723
O8	O	0.987443	-0.355318	-0.335551
O9	O	1.188248	-0.671341	-0.343607
O10	O	1.077528	-0.366249	-0.425627
O11	O	0.982790	-0.520686	-0.221250
O12	O	0.873116	-0.520618	-0.330936
O13	O	0.995475	-0.671223	-0.536400
O14	O	0.876578	-0.656795	-0.417516
O15	O	1.082098	-0.545977	-0.539896
O16	O	1.073921	-0.836642	-0.338992
O17	O	0.990822	-0.836590	-0.422099
C18	C	0.849268	-0.587085	-0.373197
C19	C	0.770912	-0.582143	-0.370061
C20	C	0.735918	-0.650820	-0.413594
C21	C	0.662294	-0.646162	-0.410651
C22	C	0.623666	-0.572833	-0.364170
C23	C	0.658664	-0.504149	-0.320635
C24	C	0.732287	-0.508802	-0.323583
C25	C	0.403282	-0.551299	-0.350532
C26	C	0.329655	-0.546653	-0.347586
C27	C	0.333290	-0.688665	-0.437603
C28	C	0.406914	-0.693316	-0.440544
C29	C	0.441906	-0.624629	-0.397011
N30	N	0.548410	-0.568073	-0.361159
N31	N	0.517161	-0.629384	-0.400027
C32	C	1.032382	-0.875237	-0.380559
C33	C	1.032428	-0.993547	-0.380581
C34	C	0.987224	-1.062809	-0.425750
C35	C	0.967469	-1.128514	-0.360734
C36	C	1.052247	-1.138645	-0.445610
C37	C	1.012637	-1.057690	-0.315530
C38	C	1.097447	-1.067820	-0.400450
C39	C	1.077715	-1.133492	-0.335392
C40	C	1.216304	-0.610360	-0.387967
C41	C	1.294661	-0.615329	-0.391120
C42	C	1.039847	-0.610252	-0.564442
C43	C	1.043008	-0.615174	-0.642798
C44	C	1.032495	-0.321084	-0.380592
C45	C	1.032523	-0.202781	-0.380603
C46	C	0.999428	-0.546562	-0.677802
C47	C	1.002396	-0.551196	-0.751426
C48	C	1.048948	-0.624438	-0.790045
C49	C	1.092530	-0.693058	-0.755037
C50	C	1.089558	-0.688428	-0.681414
C51	C	1.062665	-0.645895	-1.010428
C52	C	1.065635	-0.650517	-1.084056
C53	C	0.975499	-0.508656	-1.080440
C54	C	0.972535	-0.504028	-1.006816
C55	C	1.016114	-0.572652	-0.971814
N56	N	1.051984	-0.629174	-0.865301
N57	N	1.013074	-0.567920	-0.896559
C58	C	1.025079	-0.587119	-0.197410
C59	C	1.022055	-0.581905	-0.119059
H60	H	0.627207	-0.444438	-0.282793
H61	H	0.633806	-0.702087	-0.446100
H62	H	0.298205	-0.486927	-0.309740
H63	H	0.304791	-0.744585	-0.473046
O64	O	1.137846	-0.764155	-0.792477
C65	C	1.258661	-0.824801	-0.819853
C66	C	1.207416	-0.744238	-0.777401
H67	H	1.314921	-0.808712	-0.807691
H68	H	1.245734	-0.908950	-0.804860
H69	H	1.253265	-0.816337	-0.878481
H70	H	1.212785	-0.752605	-0.718763
H71	H	1.220358	-0.660121	-0.792453
O72	O	1.105077	-0.712585	-0.976545
C73	C	1.194778	-0.853801	-0.987907
C74	C	1.146792	-0.778322	-1.026372
H75	H	1.228506	-0.906984	-1.028175
H76	H	1.230306	-0.805153	-0.954951
H77	H	1.161003	-0.905195	-0.952109
H78	H	1.180511	-0.726911	-1.062206
H79	H	1.111259	-0.827032	-1.059284
O80	O	0.941637	-1.025727	-0.471332
C81	C	0.926880	-0.927453	-0.575378
C82	C	0.978587	-0.969407	-0.523824
H83	H	0.956731	-0.881890	-0.617822
H84	H	0.900598	-0.997180	-0.600923
H85	H	0.885016	-0.872164	-0.545518
H86	H	1.020491	-1.024679	-0.553632
H87	H	1.004815	-0.899628	-0.498279
O88	O	0.437156	-0.484533	-0.308176
C89	C	0.425776	-0.343133	-0.218617
C90	C	0.387321	-0.418707	-0.266535
H91	H	0.385501	-0.289878	-0.184949
H92	H	0.458723	-0.391704	-0.183030
H93	H	0.461582	-0.291817	-0.252441
H94	H	0.351479	-0.470039	-0.232766
H95	H	0.354418	-0.370073	-0.302125
O96	O	0.933063	-0.442048	-1.114360
C97	C	0.814066	-0.384246	-1.132096
C98	C	0.862048	-0.459720	-1.093623
H99	H	0.756641	-0.398523	-1.115356
H100	H	0.825821	-0.298274	-1.118111
H101	H	0.824219	-0.400117	-1.191347
H102	H	0.851922	-0.443945	-1.034364
H103	H	0.850283	-0.545667	-1.107666
O104	O	0.766316	-0.441988	-0.281393
C105	C	0.849110	-0.302971	-0.275396
C106	C	0.810609	-0.378569	-0.323256
H107	H	0.884941	-0.251693	-0.309222
H108	H	0.808886	-0.249689	-0.241681
H109	H	0.882043	-0.351628	-0.239844
H110	H	0.777677	-0.329997	-0.358850
H111	H	0.850869	-0.431854	-0.356922
O112	O	0.927370	-0.432920	-0.969197
C113	C	0.882810	-0.362973	-0.854173
C114	C	0.934002	-0.443538	-0.896691
H115	H	0.888144	-0.371545	-0.795544
H116	H	0.895790	-0.278815	-0.869101
H117	H	0.826556	-0.378966	-0.866404
H118	H	0.990273	-0.427643	-0.884483
H119	H	0.920962	-0.527669	-0.881757
H120	H	0.912529	-1.155368	-0.343946
O121	O	0.992589	-1.015452	-0.249960
C122	C	0.970088	-0.855865	-0.176377
C123	C	0.992790	-0.903560	-0.250668
H124	H	0.970257	-0.765395	-0.176921
H125	H	0.914850	-0.881278	-0.159347
H126	H	1.008401	-0.885627	-0.137847
H127	H	0.954526	-0.873821	-0.289249
H128	H	1.048042	-0.878152	-0.267639
H129	H	1.115981	-1.164331	-0.297157
O130	O	1.162960	-1.035834	-0.420635
C131	C	1.257892	-1.040937	-0.511998
C132	C	1.183690	-1.077218	-0.489224
H133	H	1.274681	-1.074400	-0.567448
H134	H	1.257340	-0.950354	-0.511339
H135	H	1.296613	-1.071260	-0.474037
H136	H	1.144928	-1.046971	-0.527164
H137	H	1.184300	-1.167802	-0.489863
H138	H	1.068972	-1.174034	-0.500595
O139	O	0.954143	-0.475383	-0.640396
C140	C	0.865078	-0.335133	-0.644590
C141	C	0.916323	-0.415706	-0.687034
H142	H	0.834498	-0.286847	-0.682279
H143	H	0.826768	-0.379444	-0.608652
H144	H	0.896074	-0.279407	-0.611410
H145	H	0.885386	-0.471453	-0.720254
H146	H	0.954634	-0.371326	-0.722928
O147	O	0.444542	-0.764506	-0.485641
C148	C	0.559574	-0.834548	-0.530117
C149	C	0.517046	-0.753893	-0.478999
H150	H	0.618201	-0.825980	-0.524775
H151	H	0.544637	-0.918677	-0.517070
H152	H	0.547362	-0.818647	-0.586391
H153	H	0.529236	-0.769696	-0.422708
H154	H	0.531988	-0.669791	-0.492107
H155	H	0.966905	-0.495328	-0.779922
H156	H	1.103547	-0.710161	-1.115498
O157	O	1.131860	-0.755229	-0.647484
C158	C	1.165087	-0.937033	-0.626278
C159	C	1.117153	-0.861496	-0.664758
H160	H	1.153203	-1.022966	-0.640218
H161	H	1.222534	-0.922953	-0.643052
H162	H	1.154975	-0.921091	-0.567028
H163	H	1.127202	-0.877392	-0.724013
H164	H	1.059722	-0.875591	-0.647926
H165	H	0.767365	-0.710536	-0.451442
