data_functionalizedCrystal
_audit_creation_method	'MofGen! by Chris Wilmer'
_symmetry_space_group_name_H-M	'P1'
_symmetry_Int_Tables_number	1
_symmetry_cell_setting	triclinic
loop_
_symmetry_equiv_pos_as_xyz
  x,y,z
_cell_length_a	10.540539
_cell_length_b	10.540510
_cell_length_c	9.616153
_cell_angle_alpha	89.992871
_cell_angle_beta	89.999295
_cell_angle_gamma	95.480599
loop_
_atom_site_label
_atom_site_type_symbol
_atom_site_fract_x
_atom_site_fract_y
_atom_site_fract_z
O1	O	-0.178715	1.685914	-0.115644
O2	O	-0.195611	1.316496	-0.115644
O3	O	-0.002456	1.509633	-0.115646
O4	O	-0.371870	1.492777	-0.115643
O5	O	-0.002460	1.509607	0.115646
O6	O	-0.195615	1.316470	0.115647
O7	O	-0.178719	1.685887	0.115647
Zn8	Zn	-0.187168	1.501174	0.152369
Zn9	Zn	-0.187162	1.501209	-0.152367
O10	O	-0.371874	1.492750	0.115648
C11	C	-0.194354	1.269179	0.000001
C12	C	-0.190587	1.128229	0.000001
C13	C	-0.324771	0.910774	-0.000530
C14	C	-0.328789	1.057370	-0.000000
C15	C	-0.119843	1.083454	0.132076
C16	C	-0.116804	0.936693	0.132178
C17	C	-0.113921	0.936918	-0.130844
C18	C	-0.120476	1.083259	-0.132581
C19	C	-0.419175	1.494028	0.000003
C20	C	-0.560123	1.497810	0.000003
C21	C	-0.743534	1.642729	-0.000532
C22	C	-0.596917	1.638895	0.000000
C23	C	-0.621798	1.429898	0.132078
C24	C	-0.768342	1.434713	0.132177
C25	C	-0.768840	1.431874	-0.130844
C26	C	-0.621858	1.430575	-0.132579
C27	C	0.044845	1.508356	-0.000003
C28	C	0.185793	1.504574	-0.000013
C29	C	-0.179976	1.733204	-0.000002
C30	C	-0.183743	1.874154	-0.000010
N31	N	-0.187171	1.501160	0.360344
N32	N	-0.187149	1.501234	-0.360341
C33	C	-0.290149	1.397529	0.580715
C34	C	-0.290535	1.397757	0.419547
C35	C	-0.217290	1.633885	0.418794
C36	C	-0.218019	1.633320	0.580012
C37	C	-0.053735	1.473387	0.580255
C38	C	-0.054600	1.470341	0.419028
H39	H	-0.378611	0.868831	-0.095249
Br40	Br	-0.201730	1.134857	0.295907
Br41	Br	-0.095664	1.765656	0.354884
Br42	Br	-0.553609	1.513280	-0.295439
H43	H	-0.315354	1.657675	0.617600
Br44	Br	-0.527312	1.728539	0.158079
Br45	Br	-0.454200	1.426986	0.648183
H46	H	-0.378304	0.867256	0.093653
H47	H	-0.010159	0.914764	-0.131737
H48	H	-0.554299	1.692338	-0.094671
H49	H	-0.816322	1.333247	0.138182
Br50	Br	-0.005974	1.315457	0.648102
Br51	Br	-0.581358	1.259184	-0.145981
Br52	Br	-0.815356	1.518327	0.296732
H53	H	-0.384473	1.085762	0.094836
Br54	Br	-0.584570	1.257205	0.140274
H55	H	-0.579214	1.477063	0.230369
H56	H	-0.772105	1.698465	-0.095262
Br57	Br	-0.197393	0.869637	0.296729
H58	H	-0.313525	1.658783	0.378404
H59	H	-0.389517	1.415656	0.380968
Br60	Br	-0.793880	1.735232	0.156441
H61	H	-0.800386	1.477543	-0.230954
Br62	Br	-0.206221	1.131037	-0.295443
H63	H	-0.146021	1.712964	0.619000
Br64	Br	-0.421040	1.106306	-0.157802
H65	H	-0.272414	1.299139	0.380032
Br66	Br	-0.847558	1.262022	-0.132325
Br67	Br	-0.260392	1.232630	0.645360
H68	H	-0.031770	1.372701	0.380828
Br69	Br	0.079291	1.587903	0.351889
Br70	Br	0.074042	1.599412	0.643779
H71	H	-0.013437	0.913697	0.138177
H72	H	-0.157502	0.894381	-0.230950
Br73	Br	0.049742	1.162418	0.140260
Br74	Br	0.047703	1.165032	-0.145876
