data_functionalizedCrystal
_audit_creation_method	'MofGen! by Chris Wilmer'
_symmetry_space_group_name_H-M	'P1'
_symmetry_Int_Tables_number	1
_symmetry_cell_setting	triclinic
loop_
_symmetry_equiv_pos_as_xyz
  x,y,z
_cell_length_a	14.044220
_cell_length_b	10.540539
_cell_length_c	13.101039
_cell_angle_alpha	93.398267
_cell_angle_beta	86.340132
_cell_angle_gamma	88.857185
loop_
_atom_site_label
_atom_site_type_symbol
_atom_site_fract_x
_atom_site_fract_y
_atom_site_fract_z
O1	O	1.264944	0.299850	-0.085096
O2	O	1.764944	0.799850	0.414904
O3	O	0.988901	0.288796	-0.085123
O4	O	1.488901	0.788796	0.414877
O5	O	1.133220	0.110253	-0.085108
O6	O	1.633220	0.610253	0.414892
O7	O	1.120625	0.478393	-0.085111
O8	O	1.620625	0.978393	0.414889
O9	O	1.122866	0.123087	0.085321
O10	O	1.622866	0.623087	0.585321
O11	O	0.978547	0.301630	0.085306
O12	O	1.478547	0.801630	0.585306
O13	O	1.254589	0.312683	0.085332
O14	O	1.754589	0.812683	0.585332
Zn15	Zn	1.114924	0.309194	0.112379
Zn16	Zn	1.614924	0.809194	0.612379
Zn17	Zn	1.128566	0.292285	-0.112169
Zn18	Zn	1.628566	0.792285	0.387831
O19	O	1.110270	0.491226	0.085317
O20	O	1.610270	0.991226	0.585317
C21	C	0.948377	0.290375	0.000088
C22	C	1.448377	0.790375	0.500088
C23	C	0.843054	0.275945	0.000078
C24	C	1.343054	0.775945	0.500078
C25	C	0.650213	0.249565	0.000099
C26	C	1.150213	0.749565	0.500099
C27	C	0.593272	0.351908	0.000102
C28	C	1.093272	0.851908	0.500102
C29	C	0.485969	0.337230	0.000114
C30	C	0.985969	0.837230	0.500114
C31	C	0.757526	0.264241	0.000087
C32	C	1.257526	0.764241	0.500087
C33	C	1.127098	0.069271	0.000105
C34	C	1.627098	0.569271	0.500105
C35	C	1.124273	-0.071963	0.000099
C36	C	1.624273	0.428037	0.500099
C37	C	1.016007	-0.266367	-0.000294
C38	C	1.516007	0.233633	0.499706
C39	C	1.018849	-0.119430	0.000090
C40	C	1.518849	0.380570	0.500090
C41	C	1.169094	-0.121162	0.097427
C42	C	1.669094	0.378838	0.597427
C43	C	1.165492	-0.268064	0.097509
C44	C	1.665492	0.231936	0.597509
C45	C	1.179411	-0.282960	-0.096300
C46	C	1.679411	0.217040	0.403700
C47	C	1.180460	-0.135977	-0.097587
C48	C	1.680460	0.364023	0.402413
C49	C	1.295114	0.311104	0.000119
C50	C	1.795114	0.811104	0.500119
C51	C	1.400437	0.325534	0.000123
C52	C	1.900437	0.825534	0.500123
C53	C	1.116392	0.532208	0.000103
C54	C	1.616392	1.032208	0.500103
C55	C	1.119218	0.673442	0.000102
C56	C	1.619218	1.173442	0.500102
N57	N	1.105620	0.320734	0.265626
N58	N	1.605620	0.820734	0.765626
N59	N	1.137878	0.280737	-0.265416
N60	N	1.637878	0.780737	0.234584
C61	C	1.092962	0.336445	0.474667
C62	C	1.592962	0.836445	0.974667
C63	C	1.150533	0.265029	0.525549
C64	C	1.650533	0.765029	1.025549
C65	C	1.143490	0.273771	0.641867
C66	C	1.643490	0.773771	1.141867
C67	C	1.100004	0.327705	0.358339
C68	C	1.600004	0.827705	0.858339
H69	H	0.625112	0.450550	0.000096
H70	H	1.125112	0.950550	0.500096
H71	H	1.038389	0.404149	0.518459
H72	H	1.538389	0.904149	1.018459
C73	C	0.607208	0.116317	0.000094
C74	C	1.107208	0.616317	0.500094
H75	H	0.539684	0.123809	0.000090
H76	H	1.039684	0.623809	0.500090
H77	H	0.624093	0.075934	0.059519
H78	H	1.124093	0.575934	0.559519
H79	H	0.631299	0.067008	-0.059353
H80	H	1.131299	0.567008	0.440647
C81	C	0.970633	-0.074418	-0.094150
C82	C	1.470633	0.425582	0.405850
H83	H	0.949125	-0.145975	-0.133012
H84	H	1.449125	0.354025	0.366988
H85	H	1.015223	-0.029863	-0.135325
H86	H	1.515223	0.470137	0.364675
H87	H	0.917781	-0.019661	-0.072244
H88	H	1.417781	0.480339	0.427756
C89	C	0.965465	-0.317801	-0.094571
C90	C	1.465465	0.182199	0.405429
H91	H	1.006850	-0.376452	-0.134535
H92	H	1.506850	0.123548	0.365465
H93	H	0.949323	-0.249282	-0.134652
H94	H	1.449323	0.250718	0.365348
H95	H	0.909043	-0.359436	-0.072683
H96	H	1.409043	0.140564	0.427317
C97	C	0.954280	-0.305761	0.093459
C98	C	1.454280	0.194239	0.593459
H99	H	0.991136	-0.358727	0.132843
H100	H	1.491136	0.141273	0.632843
H101	H	0.900783	-0.350868	0.071079
H102	H	1.400783	0.149132	0.571079
H103	H	0.932856	-0.231980	0.134309
H104	H	1.432856	0.268020	0.634309
C105	C	1.139378	-0.337741	-0.195958
C106	C	1.639378	0.162259	0.304042
H107	H	1.176717	-0.310291	-0.253195
H108	H	1.676717	0.189709	0.246805
H109	H	1.075190	-0.308776	-0.198956
H110	H	1.575190	0.191224	0.301044
H111	H	1.141540	-0.427962	-0.197209
H112	H	1.641540	0.072038	0.302791
H113	H	0.974402	-0.076477	0.069968
H114	H	1.474402	0.423523	0.569968
H115	H	1.123576	-0.294577	0.170256
H116	H	1.623576	0.205423	0.670256
C117	C	1.267547	-0.322067	0.103503
C118	C	1.767547	0.177933	0.603503
H119	H	1.311022	-0.254209	0.105886
H120	H	1.811022	0.245791	0.605886
H121	H	1.283846	-0.377374	0.044821
H122	H	1.783846	0.122626	0.544821
H123	H	1.270735	-0.367912	0.163523
H124	H	1.770735	0.132088	0.663523
H125	H	1.246295	-0.090708	0.101053
H126	H	1.746295	0.409292	0.601053
C127	C	1.115534	-0.061084	0.195265
C128	C	1.615534	0.438916	0.695265
H129	H	1.065852	-0.006017	0.177007
H130	H	1.565852	0.493983	0.677007
H131	H	1.158707	-0.013939	0.234648
H132	H	1.658707	0.486061	0.734648
H133	H	1.088977	-0.126245	0.234488
H134	H	1.588977	0.373755	0.734488
H135	H	1.147712	-0.104293	-0.169588
H136	H	1.647712	0.395707	0.330412
C137	C	1.284778	-0.093367	-0.105519
C138	C	1.784778	0.406633	0.394481
H139	H	1.295480	-0.035729	-0.049102
H140	H	1.795480	0.464271	0.450898
H141	H	1.296890	-0.052614	-0.167634
H142	H	1.796890	0.447386	0.332366
H143	H	1.326328	-0.165481	-0.104687
H144	H	1.826328	0.334519	0.395313
C145	C	1.282328	-0.336433	-0.097186
C146	C	1.782328	0.163567	0.402814
H147	H	1.288625	-0.385098	-0.039126
H148	H	1.788625	0.114902	0.460874
H149	H	1.325482	-0.268211	-0.095047
H150	H	1.825482	0.231789	0.404953
H151	H	1.296359	-0.389010	-0.157925
H152	H	1.796359	0.110990	0.342075
H153	H	1.205111	0.197322	0.481752
H154	H	1.705111	0.697322	0.981752
