data_functionalizedCrystal
_audit_creation_method	'MofGen! by Chris Wilmer'
_symmetry_space_group_name_H-M	'P1'
_symmetry_Int_Tables_number	1
_symmetry_cell_setting	triclinic
loop_
_symmetry_equiv_pos_as_xyz
  x,y,z
_cell_length_a	21.606444
_cell_length_b	14.560438
_cell_length_c	14.560438
_cell_angle_alpha	90.001361
_cell_angle_beta	60.000320
_cell_angle_gamma	60.002321
loop_
_atom_site_label
_atom_site_type_symbol
_atom_site_fract_x
_atom_site_fract_y
_atom_site_fract_z
Zr1	Zr	0.677456	-0.120477	0.884743
O2	O	0.806571	-0.267119	0.738096
O3	O	0.548339	-0.075528	0.929700
O4	O	0.677455	-0.267123	0.929699
O5	O	0.677457	0.075614	0.738095
O6	O	0.677457	-0.267120	1.080838
O7	O	0.677455	-0.075525	0.738097
O8	O	0.446492	0.075608	1.080838
O9	O	0.908422	-0.267115	0.738095
O10	O	0.601449	-0.056350	1.061664
O11	O	0.601449	0.056441	0.948870
O12	O	0.753467	-0.169138	0.948870
O13	O	0.753467	-0.056347	0.836076
Zr14	Zr	0.677462	0.120575	1.125789
Zr15	Zr	0.677459	-0.120473	1.125791
Zr16	Zr	0.677459	0.120571	0.884741
Zr17	Zr	0.839897	-0.120469	0.884741
Zr18	Zr	0.515022	0.120567	1.125791
O19	O	0.806579	0.075625	1.080832
O20	O	0.806575	-0.267114	1.080836
O21	O	0.806575	0.075620	0.738093
O22	O	0.548347	0.267217	1.272436
O23	O	0.548343	-0.075522	1.272439
O24	O	0.548343	0.267212	0.929696
O25	O	0.677461	-0.075516	1.272437
O26	O	0.677463	0.267220	1.080833
O27	O	0.677461	0.267218	0.929694
O28	O	0.677463	0.075622	1.272435
O29	O	0.908424	-0.267111	0.929696
O30	O	0.446494	0.267209	1.080836
O31	O	0.446496	0.267212	1.272437
O32	O	0.446494	0.075611	1.272439
O33	O	0.908424	-0.075514	0.738093
O34	O	0.908427	-0.075510	0.929694
O35	O	0.601452	0.169235	1.061662
O36	O	0.601452	0.056444	1.174456
O37	O	0.753469	-0.056343	1.061662
O38	O	0.753469	0.056448	0.948868
C39	C	0.474271	0.000039	1.005269
C40	C	0.405311	0.000036	1.005270
C41	C	0.677456	0.000044	0.703752
C42	C	0.677454	0.000042	0.601420
C43	C	0.677463	0.301563	1.005263
C44	C	0.677464	0.403894	1.005262
C45	C	0.372913	-0.058842	1.064145
C46	C	0.308113	-0.058834	1.064149
C47	C	0.275717	0.000045	1.005271
C48	C	0.308117	0.058930	0.946395
C49	C	0.372911	0.058928	0.946398
C50	C	0.046808	0.058939	0.946381
C51	C	-0.017990	0.058933	0.946380
C52	C	-0.017990	-0.058823	1.064132
C53	C	0.046804	-0.058825	1.064136
C54	C	0.079195	0.000064	1.005265
C55	C	0.149458	0.000057	1.005263
C56	C	0.205460	0.000046	1.005266
C57	C	0.880647	0.000059	1.005263
C58	C	0.949607	0.000062	1.005262
C59	C	0.677456	-0.301466	1.005269
C60	C	0.677454	-0.403797	1.005270
C61	C	0.756814	0.393099	0.946390
C62	C	0.756810	0.489254	0.946390
C63	C	0.598098	0.606996	1.064144
C64	C	0.598103	0.510842	1.064136
C65	C	0.848445	0.325122	0.878410
C66	C	0.848441	0.421277	0.878411
C67	C	0.598104	0.058916	0.612219
C68	C	0.598109	0.058926	0.516064
C69	C	0.756820	-0.058820	0.398315
C70	C	0.756815	-0.058823	0.494469
C71	C	0.506473	0.126892	0.680200
C72	C	0.506478	0.126902	0.584045
C73	C	0.677463	0.000054	1.306780
C74	C	0.677464	0.000055	1.409112
C75	C	0.474275	0.000044	1.306784
C76	C	0.405316	0.000042	1.409116
C77	C	0.474275	0.301553	1.005266
C78	C	0.405316	0.403881	1.005266
C79	C	0.474278	0.301558	1.306781
C80	C	0.405320	0.403888	1.409112
C81	C	0.880640	-0.301461	0.703751
C82	C	0.949598	-0.403790	0.601420
C83	C	0.880644	0.000054	0.703748
C84	C	0.949603	0.000055	0.601416
C85	C	0.880644	-0.301456	1.005266
C86	C	0.949603	-0.403784	1.005266
C87	C	0.372930	-0.058846	1.398296
C88	C	0.308145	-0.058870	1.494439
C89	C	0.275742	0.000001	1.601400
C90	C	0.308133	0.058892	1.612218
C91	C	0.372922	0.058908	1.516076
C92	C	0.372933	0.510823	1.064143
C93	C	0.308148	0.606980	1.064138
C94	C	0.275742	0.596193	1.005264
C95	C	0.308131	0.489240	0.946381
C96	C	0.372919	0.393085	0.946379
C97	C	0.372937	0.393067	1.516055
C98	C	0.308153	0.489207	1.612216
C99	C	0.275749	0.596167	1.601430
C100	C	0.308138	0.606986	1.494476
C101	C	0.372926	0.510846	1.398318
C102	C	0.981989	-0.392969	0.494477
C103	C	1.046793	-0.489110	0.398316
C104	C	1.079201	-0.596070	0.409102
C105	C	1.046807	-0.606888	0.516056
C106	C	0.982008	-0.510749	0.612214
C107	C	0.981995	0.058934	0.612236
C108	C	1.046798	0.058931	0.516093
C109	C	1.079203	0.000056	0.409132
C110	C	1.046809	-0.058829	0.398314
C111	C	0.982011	-0.058833	0.494456
C112	C	0.981988	-0.392960	1.064151
C113	C	1.046774	-0.489099	1.064173
C114	C	1.079177	-0.596060	1.005302
C115	C	1.046785	-0.606881	0.946414
C116	C	0.981997	-0.510744	0.946400
H117	H	0.399290	-0.106793	1.112084
Cl118	Cl	1.087554	-0.741361	0.529596
H119	H	0.073183	-0.106774	1.112075
H120	H	0.955615	0.106884	0.699321
H121	H	0.399277	0.306012	0.898439
Cl122	Cl	0.194291	0.717086	1.005280
Cl123	Cl	0.413621	0.132957	1.529698
H124	H	-0.044366	0.106883	0.898432
H125	H	1.131933	-0.674332	1.005323
Cl126	Cl	0.267377	0.132967	0.872394
Cl127	Cl	0.267380	0.475698	0.872375
Cl128	Cl	0.902766	0.244532	0.739416
H129	H	-0.044373	-0.106770	1.112073
H130	H	0.281741	0.106822	1.699319
Cl131	Cl	0.413656	0.524414	1.138168
Cl132	Cl	0.267391	0.741458	1.480936
H133	H	0.471350	0.216909	0.732357
H134	H	0.222995	0.674441	1.679738
H135	H	0.478042	0.213957	0.575328
Cl136	Cl	1.087553	-0.132833	0.263839
H137	H	0.399284	0.519673	1.311244
Cl138	Cl	0.267441	0.741422	1.138174
H139	H	0.876874	0.274208	0.923272
H140	H	0.399311	0.305984	1.524858
Cl141	Cl	0.941300	-0.524370	0.872352
H142	H	0.883620	0.421274	0.916235
H143	H	0.281788	0.480379	1.699294
H144	H	0.073170	0.106895	0.898449
H145	H	0.955639	-0.106776	0.485630
Cl146	Cl	0.941261	-0.258517	0.480888
H147	H	1.073158	-0.480279	0.311239
Cl148	Cl	1.087539	-0.741355	0.872398
H149	H	0.876885	0.429997	0.791355
Cl150	Cl	1.160662	-0.716921	0.288205
H151	H	0.533489	0.519641	1.112064
H152	H	0.955636	-0.519573	0.699290
H153	H	1.073163	0.106887	0.524923
Cl154	Cl	0.267405	-0.132881	1.138140
Cl155	Cl	0.941265	-0.258507	1.138172
Cl156	Cl	0.856574	-0.132819	0.480887
Cl157	Cl	1.160663	0.000075	0.288277
H158	H	1.073140	-0.480266	1.112125
H159	H	0.399291	0.106869	0.898453
H160	H	0.533486	0.694083	1.112075
H161	H	0.478045	0.082025	0.731109
Cl162	Cl	0.452189	0.068477	0.584016
Cl163	Cl	0.856582	-0.132817	0.263859
H164	H	0.399313	-0.106800	1.311211
H165	H	0.281780	-0.106826	1.485609
H166	H	0.222986	-0.000021	1.679676
