data_functionalizedCrystal
_audit_creation_method	'MofGen! by Chris Wilmer'
_symmetry_space_group_name_H-M	'P1'
_symmetry_Int_Tables_number	1
_symmetry_cell_setting	triclinic
loop_
_symmetry_equiv_pos_as_xyz
  x,y,z
_cell_length_a	10.723023
_cell_length_b	10.723024
_cell_length_c	9.798715
_cell_angle_alpha	90.002227
_cell_angle_beta	89.996758
_cell_angle_gamma	95.532291
loop_
_atom_site_label
_atom_site_type_symbol
_atom_site_fract_x
_atom_site_fract_y
_atom_site_fract_z
O1	O	1.657188	-0.175020	-0.113473
O2	O	2.157188	0.324980	0.386527
O3	O	1.294035	-0.191775	-0.113479
O4	O	1.794035	0.308225	0.386521
O5	O	1.483988	-0.001821	-0.113471
O6	O	1.983988	0.498179	0.386529
O7	O	1.467235	-0.364974	-0.113481
O8	O	1.967235	0.135026	0.386519
O9	O	1.483974	-0.001820	0.113511
O10	O	1.983974	0.498180	0.613511
O11	O	1.294021	-0.191773	0.113503
O12	O	1.794021	0.308227	0.613503
O13	O	1.657174	-0.175019	0.113509
O14	O	2.157174	0.324981	0.613509
Zn15	Zn	1.475595	-0.183396	0.149544
Zn16	Zn	1.975595	0.316604	0.649544
Zn17	Zn	1.475614	-0.183398	-0.149514
Zn18	Zn	1.975614	0.316602	0.350486
O19	O	1.467221	-0.364972	0.113501
O20	O	1.967221	0.135028	0.613501
C21	C	1.247529	-0.190555	0.000012
C22	C	1.747529	0.309445	0.500012
C23	C	1.108974	-0.186908	0.000010
C24	C	1.608974	0.313092	0.500010
C25	C	1.047195	-0.185281	0.117592
C26	C	1.547195	0.314719	0.617592
C27	C	0.903992	-0.181511	0.117593
C28	C	1.403992	0.318489	0.617593
C29	C	1.482762	0.044679	0.000019
C30	C	1.982762	0.544679	0.500019
C31	C	1.479114	0.183233	0.000014
C32	C	1.979114	0.683233	0.500014
C33	C	1.703680	-0.176239	0.000015
C34	C	2.203680	0.323761	0.500015
C35	C	1.842235	-0.179886	0.000009
C36	C	2.342235	0.320114	0.500009
N37	N	1.475592	-0.183394	0.353644
N38	N	1.975592	0.316606	0.853644
C39	C	1.468447	-0.411473	0.000009
C40	C	1.968447	0.088527	0.500009
C41	C	1.472095	-0.550027	0.000004
C42	C	1.972095	-0.050027	0.500004
C43	C	1.585402	0.258216	0.000013
C44	C	2.085402	0.758216	0.500013
C45	C	1.581634	0.401420	0.000008
C46	C	2.081634	0.901420	0.500008
N47	N	1.475627	-0.183390	-0.353614
N48	N	1.975627	0.316610	0.146386
C49	C	1.548357	-0.255755	0.421421
C50	C	2.048357	0.244245	0.921421
C51	C	1.548376	-0.255753	0.578584
C52	C	2.048376	0.244247	1.078584
H53	H	1.100322	-0.186672	0.218258
H54	H	1.600322	0.313328	0.718258
H55	H	1.413313	-0.121439	0.411970
H56	H	1.913313	0.378561	0.911970
F57	F	1.039543	-0.185071	-0.131574
F58	F	1.539543	0.314929	0.368426
F59	F	0.834552	-0.179692	0.249176
F60	F	1.334552	0.320308	0.749176
H61	H	1.679188	0.216394	0.000023
H62	H	2.179188	0.716394	0.500023
H63	H	1.385328	0.225055	0.000003
H64	H	1.885328	0.725055	0.500003
F65	F	1.629773	-0.336727	0.345192
F66	F	2.129773	0.163273	0.845192
F67	F	0.911664	-0.181723	-0.131581
F68	F	1.411664	0.318277	0.368419
F69	F	1.629799	-0.336738	0.654763
F70	F	2.129799	0.163262	1.154763
H71	H	1.672625	0.465852	0.000014
H72	H	2.172625	0.965852	0.500014
H73	H	1.381099	0.385548	0.000014
H74	H	1.881099	0.885548	0.500014
H75	H	1.413321	-0.121442	0.588108
H76	H	1.913321	0.378558	1.088108
