data_functionalizedCrystal
_audit_creation_method	'MofGen! by Chris Wilmer'
_symmetry_space_group_name_H-M	'P1'
_symmetry_Int_Tables_number	1
_symmetry_cell_setting	triclinic
loop_
_symmetry_equiv_pos_as_xyz
  x,y,z
_cell_length_a	18.050590
_cell_length_b	29.839131
_cell_length_c	18.050582
_cell_angle_alpha	90.033130
_cell_angle_beta	89.999233
_cell_angle_gamma	90.024397
loop_
_atom_site_label
_atom_site_type_symbol
_atom_site_fract_x
_atom_site_fract_y
_atom_site_fract_z
Zn1	Zn	1.135256	-0.179012	0.419547
Zn2	Zn	1.135152	-0.254134	0.295334
Zn3	Zn	1.011075	-0.179005	0.295405
Zn4	Zn	1.011008	-0.254101	0.419517
O5	O	1.073123	-0.216563	0.357451
O6	O	1.239167	-0.188994	0.403053
O7	O	1.118677	-0.244179	0.191419
O8	O	1.027620	-0.116138	0.311915
O9	O	1.239090	-0.244186	0.311794
O10	O	1.118855	-0.116144	0.403122
O11	O	1.027519	-0.188981	0.191471
O12	O	0.907142	-0.188950	0.311886
O13	O	1.027506	-0.244130	0.523445
O14	O	0.907093	-0.244123	0.403070
O15	O	1.118790	-0.188962	0.523468
O16	O	1.118612	-0.316997	0.311765
O17	O	1.027404	-0.316973	0.403001
C18	C	0.880171	-0.216532	0.357483
C19	C	0.797625	-0.216530	0.357514
C20	C	0.598169	-0.246619	0.406982
C21	C	0.548784	-0.205656	0.425270
C22	C	0.646495	-0.216555	0.357478
C23	C	0.548798	-0.257541	0.339189
C24	C	0.500510	-0.216583	0.357444
C25	C	0.598197	-0.175570	0.375801
C26	C	0.598215	-0.227483	0.289689
C27	C	0.548852	-0.186492	0.307951
C28	C	0.730593	-0.216540	0.357499
C29	C	0.416413	-0.216594	0.357423
C30	C	1.073010	-0.333286	0.357388
C31	C	1.073029	-0.383220	0.357386
C32	C	1.120619	-0.692831	0.405010
C33	C	1.120699	-0.880504	0.405054
O34	O	1.161051	-0.904742	0.445499
N35	N	1.073249	-0.904005	0.357533
C36	C	1.025772	-0.880585	0.310001
O37	O	0.985409	-0.904880	0.269588
C38	C	1.025688	-0.692912	0.309961
C39	C	1.073147	-0.669414	0.357480
C40	C	1.168073	-0.669333	0.452525
C41	C	1.168055	-0.622417	0.452511
C42	C	1.120583	-0.599000	0.404981
C43	C	1.073129	-0.622499	0.357465
C44	C	0.978208	-0.669493	0.262433
C45	C	0.978190	-0.622572	0.262428
C46	C	1.025648	-0.599074	0.309947
C47	C	1.025639	-0.552166	0.309920
N48	N	1.073089	-0.528665	0.357442
C49	C	1.120561	-0.552082	0.404972
C50	C	1.025820	-0.979115	0.310024
C51	C	1.025842	-1.026033	0.310033
C52	C	1.120769	-1.025949	0.405088
C53	C	1.120750	-0.979031	0.405075
C54	C	1.073270	-0.955614	0.357546
C55	C	1.120521	-0.453557	0.404937
C56	C	1.120501	-0.406637	0.404916
C57	C	1.025572	-0.406725	0.309865
C58	C	1.025594	-0.453640	0.309883
C59	C	1.073071	-0.477055	0.357425
O60	O	0.985303	-0.527900	0.269503
O61	O	1.160907	-0.527779	0.445391
C62	C	1.120636	-0.739747	0.405024
C63	C	1.073182	-0.763245	0.357509
C64	C	1.025710	-0.739828	0.309978
C65	C	1.073204	-0.810163	0.357518
C66	C	1.120676	-0.833580	0.405048
C67	C	1.168126	-0.810079	0.452569
C68	C	1.168108	-0.763164	0.452554
C69	C	0.978260	-0.763329	0.262457
C70	C	0.978282	-0.810244	0.262475
C71	C	1.025754	-0.833661	0.310005
C72	C	1.266828	-0.216594	0.357419
C73	C	1.349374	-0.216607	0.357406
C74	C	1.073152	-0.216543	0.551156
C75	C	1.073164	-0.216535	0.633702
C76	C	1.073257	-0.099385	0.357530
C77	C	1.073314	-0.049450	0.357564
C78	C	1.073137	-0.216550	0.164499
C79	C	1.073268	-0.216432	0.081953
C80	C	1.023562	-0.246494	0.833141
C81	C	1.091315	-0.257483	0.882510
C82	C	1.073201	-0.216500	0.784833
C83	C	1.005485	-0.205498	0.882545
C84	C	1.073230	-0.216468	0.930818
C85	C	1.140990	-0.227511	0.833115
C86	C	1.055114	-0.175507	0.833145
C87	C	1.122914	-0.186481	0.882492
C88	C	1.073183	-0.216520	0.700734
C89	C	1.073256	-0.216448	1.014915
H90	H	1.159150	-0.387506	0.443612
N91	N	0.929715	-0.693481	0.213897
N92	N	0.887327	-0.672558	0.171478
H93	H	0.853070	-0.689499	0.137201
H94	H	1.106631	-0.292136	0.904195
N95	N	0.521537	-0.194061	0.497160
N96	N	0.538248	-0.157166	0.525427
H97	H	0.519005	-0.148978	0.576199
H98	H	0.527095	-0.292191	0.323737
N99	N	0.625468	-0.239086	0.217810
N100	N	0.609671	-0.276263	0.190031
H101	H	0.628919	-0.284462	0.139266
H102	H	0.948207	-0.196207	0.904258
H103	H	1.164953	-0.161103	0.904025
N104	N	1.169268	-1.049866	0.453643
N105	N	1.237798	-1.044602	0.448771
H106	H	1.272047	-1.061494	0.483065
N107	N	1.169020	-0.477463	0.453506
N108	N	1.211383	-0.456469	0.495923
H109	H	1.245638	-0.473352	0.530222
H110	H	0.619805	-0.140910	0.391320
N111	N	0.521865	-0.154574	0.255416
N112	N	0.537857	-0.114026	0.262349
H113	H	0.518797	-0.091482	0.225248
H114	H	1.206698	-0.603288	0.491207
H115	H	0.939637	-0.829373	0.223772
H116	H	1.039779	-0.140864	0.811445
N117	N	1.216570	-0.693241	0.501089
N118	N	1.258930	-0.672246	0.543507
H119	H	1.293187	-0.689128	0.577806
N120	N	1.169237	-0.955032	0.453606
N121	N	1.237769	-0.960248	0.448719
H122	H	1.272016	-0.943302	0.482997
N123	N	0.625342	-0.278447	0.459573
N124	N	0.665809	-0.265778	0.511737
H125	H	0.685001	-0.288253	0.548884
N126	N	0.977373	-1.050026	0.261476
N127	N	0.934994	-1.029107	0.219043
H128	H	0.900759	-1.046050	0.184749
N129	N	0.977312	-0.955207	0.261467
N130	N	0.934953	-0.976200	0.219045
H131	H	0.900695	-0.959317	0.184749
N132	N	0.929680	-0.598661	0.213876
N133	N	0.887312	-0.619651	0.171458
H134	H	0.853052	-0.602765	0.137168
N135	N	0.977154	-0.477653	0.261318
N136	N	0.982150	-0.472445	0.192793
H137	H	0.947943	-0.489405	0.158492
N138	N	0.977096	-0.382793	0.261313
N139	N	0.977093	-0.340902	0.261312
H140	H	0.942856	-0.323999	0.227023
N141	N	1.216593	-0.739171	0.501097
N142	N	1.258972	-0.760093	0.543527
H143	H	1.293218	-0.743151	0.577813
H144	H	0.981623	-0.271892	0.811472
N145	N	1.212865	-0.239213	0.805986
N146	N	1.224446	-0.241128	0.737785
H147	H	1.275207	-0.249392	0.718623
N148	N	1.216629	-0.834004	0.501110
N149	N	1.263978	-0.860177	0.475014
H150	H	1.298230	-0.877076	0.509295
N151	N	0.929758	-0.739420	0.213901
N152	N	0.887398	-0.760413	0.171481
H153	H	0.853142	-0.743529	0.137182
