data_functionalizedCrystal
_audit_creation_method	'MofGen! by Chris Wilmer'
_symmetry_space_group_name_H-M	'P1'
_symmetry_Int_Tables_number	1
_symmetry_cell_setting	triclinic
loop_
_symmetry_equiv_pos_as_xyz
  x,y,z
_cell_length_a	6.817900
_cell_length_b	9.514072
_cell_length_c	16.255661
_cell_angle_alpha	91.323020
_cell_angle_beta	103.488922
_cell_angle_gamma	118.843421
loop_
_atom_site_label
_atom_site_type_symbol
_atom_site_fract_x
_atom_site_fract_y
_atom_site_fract_z
V1	V	-4.111881	-0.223505	-0.264538
O2	O	-4.010606	0.009405	-0.258820
O3	O	-4.146651	-0.441889	-0.263385
O4	O	-4.062356	-0.220653	-0.379613
O5	O	-4.095485	-0.213362	-0.141788
V6	V	-4.584878	-0.195577	-0.249776
O7	O	-4.396230	-0.284767	-0.296919
O8	O	-4.750727	-0.134315	-0.217395
O9	O	-4.326902	0.022807	-0.250929
O10	O	-4.803550	-0.428487	-0.255494
O11	O	-4.718672	-0.205720	-0.372527
O12	O	-4.411196	-0.198429	-0.134702
C13	C	-4.011921	-0.495108	-0.259381
C14	C	-4.121629	-0.673643	-0.259205
C15	C	-3.904393	-0.212897	-0.407640
C16	C	-3.945735	-0.212010	-0.501719
C17	C	-3.852254	-0.201415	-0.724506
C18	C	-4.060779	-0.338160	-0.794390
C19	C	-4.021486	-0.210347	-0.673962
C20	C	-3.886655	-0.072037	-0.771711
C21	C	-4.094639	-0.208733	-0.840341
C22	C	-4.229538	-0.347214	-0.742617
C23	C	-4.055307	-0.080971	-0.719922
C24	C	-4.263983	-0.217754	-0.789787
C25	C	-3.979340	-0.211278	-0.578116
C26	C	-4.136807	-0.207815	-0.936187
C27	C	-4.124977	0.076017	-0.254931
C28	C	-3.994508	0.254551	-0.255112
C29	C	-4.232504	-0.206190	-0.106670
C30	C	-4.170397	-0.207069	-0.012590
H31	H	-4.314425	-0.748769	-0.262605
C32	C	-3.788038	0.171924	-0.833504
C33	C	-3.691532	0.084964	-0.789575
H34	H	-3.667568	0.268839	-0.844534
H35	H	-3.865003	0.198695	-0.799563
H36	H	-3.896967	0.107218	-0.886216
H37	H	-3.582616	0.149666	-0.736860
H38	H	-3.614529	0.058197	-0.823516
H39	H	-3.677935	-0.194685	-0.696005
H40	H	-4.063540	-0.446895	-0.826800
C41	C	-3.672262	-0.480866	-0.251531
C42	C	-3.734247	-0.644049	-0.250511
H43	H	-3.511585	-0.418264	-0.248695
H44	H	-3.700175	-0.441964	-0.203673
H45	H	-3.762968	-0.471701	-0.302926
H46	H	-3.643553	-0.653216	-0.199113
H47	H	-3.706312	-0.682963	-0.298373
C48	C	-4.383882	-0.503857	-0.636369
C49	C	-4.424713	-0.504389	-0.724915
H50	H	-4.504361	-0.600897	-0.625442
H51	H	-4.381678	-0.412632	-0.610178
H52	H	-4.237927	-0.497711	-0.613441
H53	H	-4.570661	-0.510524	-0.747842
H54	H	-4.426940	-0.595640	-0.751116
C55	C	-4.679058	-0.371234	-0.813756
C56	C	-4.499568	-0.227124	-0.828092
H57	H	-4.824498	-0.377025	-0.837412
H58	H	-4.654453	-0.372742	-0.753891
H59	H	-4.679970	-0.461671	-0.840256
H60	H	-4.498645	-0.136686	-0.801587
H61	H	-4.524180	-0.225602	-0.887969
C62	C	-3.835485	0.161917	-0.615355
C63	C	-4.051450	0.065825	-0.676126
H64	H	-3.833090	0.252548	-0.588311
H65	H	-3.714828	0.199126	-0.642968
H66	H	-3.812095	0.099248	-0.573561
H67	H	-4.074833	0.128492	-0.717923
H68	H	-4.172142	0.028617	-0.648511
