data_functionalizedCrystal
_audit_creation_method	'MofGen! by Chris Wilmer'
_symmetry_space_group_name_H-M	'P1'
_symmetry_Int_Tables_number	1
_symmetry_cell_setting	triclinic
loop_
_symmetry_equiv_pos_as_xyz
  x,y,z
_cell_length_a	13.032831
_cell_length_b	21.295418
_cell_length_c	13.032268
_cell_angle_alpha	82.854962
_cell_angle_beta	89.113023
_cell_angle_gamma	82.832798
loop_
_atom_site_label
_atom_site_type_symbol
_atom_site_fract_x
_atom_site_fract_y
_atom_site_fract_z
Zn1	Zn	1.498356	-0.425107	0.780782
Zn2	Zn	1.520071	-0.518893	0.608790
Zn3	Zn	1.348222	-0.398812	0.587026
Zn4	Zn	1.326320	-0.515490	0.758916
O5	O	1.423242	-0.464576	0.683878
O6	O	1.645153	-0.449978	0.776226
O7	O	1.515528	-0.493384	0.461987
O8	O	1.368216	-0.314220	0.612771
O9	O	1.661107	-0.518882	0.649864
O10	O	1.478518	-0.333539	0.755122
O11	O	1.389272	-0.405160	0.445997
O12	O	1.201399	-0.401860	0.591568
O13	O	1.330887	-0.513081	0.905732
O14	O	1.185308	-0.487583	0.717855
O15	O	1.457281	-0.446677	0.921797
O16	O	1.494291	-0.606522	0.628662
O17	O	1.351943	-0.604022	0.738958
C18	C	1.156038	-0.441499	0.649978
C19	C	1.041723	-0.431644	0.635499
C20	C	1.423122	-0.628114	0.683825
C21	C	1.423160	-0.698087	0.683848
C22	C	0.982836	-0.469719	0.691435
C23	C	0.864686	-0.459534	0.676472
C24	C	1.480788	-1.207580	0.758149
C25	C	1.480760	-1.141833	0.758129
C26	C	1.423374	-1.098951	0.683960
C27	C	1.366033	-1.121820	0.609790
C28	C	1.366071	-1.187565	0.609806
N29	N	1.334307	-0.987474	0.664551
N30	N	1.334274	-0.925019	0.664543
C31	C	1.423258	-0.900863	0.683906
N32	N	1.512277	-0.941523	0.703300
N33	N	1.512309	-1.003984	0.703314
C34	C	1.423327	-1.027660	0.683934
C35	C	1.480571	-0.806712	0.758046
C36	C	1.480545	-0.740965	0.758019
C37	C	1.365808	-0.720952	0.609684
C38	C	1.365844	-0.786699	0.609707
C39	C	1.423223	-0.829575	0.683893
C40	C	1.691490	-0.487743	0.717912
C41	C	1.805801	-0.497615	0.732415
C42	C	1.389219	-0.482433	0.952123
C43	C	1.374720	-0.490043	1.066433
C44	C	1.423388	-0.300403	0.683958
C45	C	1.423450	-0.230442	0.683992
C46	C	1.457192	-0.446748	0.416684
C47	C	1.471890	-0.438978	0.302400
C48	C	1.430793	-0.460580	1.125345
C49	C	1.415809	-0.468444	1.243490
H50	H	1.019890	-0.509855	0.750404
H51	H	1.315614	-0.521084	1.103463
C52	C	0.817016	-0.542881	0.910662
C53	C	0.855803	-0.551805	0.812028
H54	H	0.847891	-0.576333	0.959810
H55	H	0.744187	-0.543147	0.911040
H56	H	0.832682	-0.503113	0.928034
H57	H	0.840131	-0.591570	0.794652
H58	H	0.928649	-0.551545	0.811647
C59	C	1.315179	-1.279461	0.543976
C60	C	1.303031	-1.212700	0.528294
H61	H	1.276262	-1.294977	0.493651
H62	H	1.291312	-1.293517	0.611142
H63	H	1.386202	-1.295166	0.537752
H64	H	1.232009	-1.196995	0.534526
H65	H	1.326892	-1.198638	0.461112
H66	H	1.004668	-0.391504	0.576537
H67	H	1.527520	-1.242486	0.818550
C68	C	1.593959	-0.819892	0.904680
C69	C	1.543633	-0.853847	0.839594
H70	H	1.632890	-0.848991	0.955023
H71	H	1.544118	-0.793003	0.938267
H72	H	1.639016	-0.794662	0.864888
H73	H	1.498570	-0.879073	0.879384
H74	H	1.593480	-0.880747	0.806005
C75	C	1.594139	-1.168211	0.904781
C76	C	1.543774	-1.116693	0.839660
H77	H	1.633032	-1.152690	0.955120
H78	H	1.639226	-1.194257	0.865020
H79	H	1.544313	-1.192619	0.938380
H80	H	1.593601	-1.092288	0.806055
H81	H	1.498684	-1.090637	0.879426
C82	C	1.314947	-0.878596	0.543882
C83	C	1.302798	-0.811834	0.528204
H84	H	1.276027	-0.894111	0.493558
H85	H	1.291085	-0.892653	0.611049
H86	H	1.385970	-0.894300	0.537652
H87	H	1.231776	-0.796130	0.534442
H88	H	1.326654	-0.797771	0.461020
C89	C	1.315017	-1.012150	0.543915
C90	C	1.302949	-1.074686	0.528265
H91	H	1.276067	-0.983053	0.493584
H92	H	1.386017	-1.006311	0.537686
H93	H	1.291135	-1.004673	0.611086
H94	H	1.326838	-1.082164	0.461097
H95	H	1.231934	-1.080528	0.534485
C96	C	1.559558	-0.392925	1.152430
C97	C	1.510576	-0.418665	1.075368
H98	H	1.608808	-0.367045	1.121575
H99	H	1.593597	-0.426515	1.199304
H100	H	1.509484	-0.367750	1.188661
H101	H	1.560650	-0.443845	1.039142
H102	H	1.476536	-0.385070	1.028475
C103	C	1.386222	-0.559874	1.362566
C104	C	1.336023	-0.510364	1.293460
H105	H	1.336967	-0.585755	1.393408
H106	H	1.419446	-0.542407	1.414831
H107	H	1.436288	-0.585045	1.326317
H108	H	1.285963	-0.485190	1.329710
H109	H	1.302783	-0.527832	1.241187
H110	H	0.827636	-0.419391	0.617506
H111	H	1.527243	-0.722351	0.818403
C112	C	1.314799	-0.611287	0.543801
C113	C	1.302726	-0.673823	0.528157
H114	H	1.275849	-0.582190	0.493469
H115	H	1.385800	-0.605450	0.537569
H116	H	1.290919	-0.603808	0.610971
H117	H	1.326613	-0.681304	0.460989
H118	H	1.231710	-0.679663	0.534379
H119	H	1.530988	-0.407925	1.265375
