data_functionalizedCrystal
_audit_creation_method	'MofGen! by Chris Wilmer'
_symmetry_space_group_name_H-M	'P1'
_symmetry_Int_Tables_number	1
_symmetry_cell_setting	triclinic
loop_
_symmetry_equiv_pos_as_xyz
  x,y,z
_cell_length_a	23.532407
_cell_length_b	23.532361
_cell_length_c	22.610064
_cell_angle_alpha	89.996103
_cell_angle_beta	89.999397
_cell_angle_gamma	82.839173
loop_
_atom_site_label
_atom_site_type_symbol
_atom_site_fract_x
_atom_site_fract_y
_atom_site_fract_z
O1	O	0.069001	0.755281	-0.049131
O2	O	0.079032	0.589414	-0.049146
O3	O	-0.008916	0.677349	-0.049127
O4	O	0.156949	0.667345	-0.049150
O5	O	-0.008903	0.677333	0.049242
O6	O	0.079045	0.589398	0.049223
O7	O	0.069014	0.755265	0.049238
Zn8	Zn	0.074031	0.672329	0.064849
Zn9	Zn	0.074014	0.672350	-0.064757
O10	O	0.156962	0.667330	0.049219
C11	C	0.078787	0.568189	0.000037
C12	C	0.078032	0.504971	0.000031
C13	C	-0.030126	0.677086	0.000059
C14	C	-0.093343	0.676320	0.000063
C15	C	0.074721	0.231736	-0.053586
C16	C	0.075436	0.291135	-0.053587
O17	O	0.075780	0.321868	-0.099189
N18	N	0.075804	0.320832	0.000034
C19	C	0.075452	0.291128	0.053660
O20	O	0.075830	0.321842	0.099269
C21	C	0.074733	0.231730	0.053661
C22	C	0.074370	0.202035	0.000036
C23	C	0.074358	0.202041	-0.107206
C24	C	0.073644	0.142645	-0.107204
C25	C	0.073294	0.112944	-0.053582
C26	C	0.073657	0.142639	0.000038
C27	C	0.074376	0.202026	0.107287
C28	C	0.073656	0.142624	0.107283
C29	C	0.073294	0.112929	0.053658
C30	C	0.072592	0.053542	0.053662
N31	N	0.072224	0.023845	0.000041
C32	C	0.072575	0.053546	-0.053581
C33	C	0.076961	0.415868	0.053654
C34	C	0.077684	0.475264	0.053654
C35	C	0.077667	0.475268	-0.053594
C36	C	0.076948	0.415870	-0.053593
C37	C	0.076593	0.386171	0.000033
C38	C	0.071076	-0.071190	-0.053573
C39	C	0.070365	-0.130591	-0.053567
C40	C	0.070378	-0.130589	0.053680
C41	C	0.071093	-0.071193	0.053674
C42	C	0.071440	-0.041495	0.000043
O43	O	0.072245	0.022772	0.099240
O44	O	0.072189	0.022825	-0.099182
C45	C	-0.492454	0.723555	0.000035
C46	C	-0.551854	0.722844	0.000030
O47	O	-0.588606	0.766630	0.000013
N48	N	-0.574471	0.670566	0.000026
C49	C	-0.537685	0.618997	0.000020
O50	O	-0.562377	0.574465	0.000016
C51	C	-0.478286	0.619709	0.000021
C52	C	-0.455672	0.671990	0.000031
C53	C	-0.469839	0.775832	0.000045
C54	C	-0.410443	0.776543	0.000050
C55	C	-0.373662	0.724977	0.000046
C56	C	-0.396276	0.672701	0.000037
C57	C	-0.441501	0.568140	0.000011
C58	C	-0.382099	0.568857	0.000011
C59	C	-0.359485	0.621137	0.000021
C60	C	-0.300099	0.621847	0.000038
N61	N	-0.277481	0.674124	0.000043
C62	C	-0.314263	0.725690	0.000047
C63	C	-0.662427	0.617505	0.000019
C64	C	-0.721825	0.616793	0.000023
C65	C	-0.735990	0.720640	0.000032
C66	C	-0.676591	0.721352	0.000032
C67	C	-0.639810	0.669783	0.000023
C68	C	-0.189526	0.727179	0.000059
C69	C	-0.130124	0.727886	0.000067
C70	C	-0.115965	0.624039	0.000055
C71	C	-0.175361	0.623332	0.000050
C72	C	-0.212141	0.674907	0.000050
O73	O	-0.263312	0.578083	0.000054
O74	O	-0.289562	0.770214	0.000043
C75	C	0.178171	0.667592	0.000032
C76	C	0.241388	0.668358	0.000023
C77	C	0.069258	0.776489	0.000054
C78	C	0.070014	0.839708	0.000055
N79	N	0.074042	0.672319	0.153301
N80	N	0.073998	0.672364	-0.153209
C81	C	0.035077	0.711289	0.561951
C82	C	0.035073	0.711292	0.623871
O83	O	0.001951	0.744401	0.655897
N84	N	0.074002	0.672349	0.654838
C85	C	0.112935	0.633397	0.623883
O86	O	0.146047	0.600273	0.655909
C87	C	0.112936	0.633392	0.561964
C88	C	0.074007	0.672341	0.531000
C89	C	-0.003849	0.750235	0.530986
C90	C	-0.003844	0.750232	0.469071
C91	C	0.035087	0.711284	0.438120
C92	C	0.074013	0.672339	0.469084
C93	C	0.151865	0.594438	0.531009
C94	C	0.151863	0.594435	0.469086
C95	C	0.112934	0.633385	0.438122
C96	C	0.112948	0.633388	0.376217
N97	N	0.074018	0.672331	0.345250
C98	C	0.035088	0.711279	0.376201
C99	C	0.112929	0.633410	0.753916
C100	C	0.112932	0.633418	0.815834
C101	C	0.035068	0.711312	0.815818
C102	C	0.035069	0.711307	0.753899
C103	C	0.074000	0.672353	0.722949
C104	C	0.035102	0.711272	0.246173
C105	C	0.035112	0.711267	0.184252
C106	C	0.112973	0.633371	0.184274
C107	C	0.112965	0.633377	0.246190
C108	C	0.074024	0.672330	0.277138
O109	O	0.146051	0.600295	0.344152
O110	O	0.001976	0.744393	0.344167
H111	H	0.070071	-0.154766	-0.097237
H112	H	0.077988	0.499436	0.097321
H113	H	-0.392037	0.819115	0.000056
H114	H	-0.765949	0.762627	0.000032
N115	N	-0.344527	0.516179	-0.000011
N116	N	-0.346418	0.481346	-0.041485
H117	H	-0.319884	0.444143	-0.041501
H118	H	-0.035544	0.781946	0.443863
N119	N	-0.227090	0.779861	0.000076
N120	N	-0.261813	0.791044	0.041544
H121	H	-0.288342	0.828250	0.041561
H122	H	0.144636	0.601691	0.728720
N123	N	-0.507397	0.828515	0.000045
N124	N	-0.487186	0.875182	0.000051
H125	H	-0.513708	0.912393	0.000055
N126	N	-0.744911	0.563384	0.000026
N127	N	-0.712057	0.517350	0.000026
H128	H	-0.728359	0.479628	0.000026
H129	H	-0.658183	0.763923	0.000040
N130	N	0.070023	-0.160927	0.108457
N131	N	0.110255	-0.159780	0.144360
H132	H	0.110001	-0.181206	0.183047
H133	H	0.073372	0.118445	0.150953
H134	H	0.073347	0.118473	-0.150871
H135	H	0.076653	0.391696	-0.097259
N136	N	-0.004680	0.751062	0.277771
N137	N	-0.039430	0.785828	0.250107
H138	H	-0.067524	0.813932	0.272422
N139	N	-0.004715	0.751080	0.847443
N140	N	-0.039971	0.733197	0.881987
H141	H	-0.068071	0.761278	0.904321
H142	H	0.144637	0.601708	0.841041
H143	H	0.183564	0.562721	0.556212
N144	N	0.071427	-0.040868	-0.108361
N145	N	0.071103	-0.067397	-0.156229
H146	H	0.071353	-0.045983	-0.194923
H147	H	-0.632483	0.575509	0.000016
H148	H	-0.459902	0.525567	-0.000001
N149	N	0.152731	0.593601	0.277829
N150	N	0.187987	0.611463	0.312384
H151	H	0.216070	0.583367	0.334726
H152	H	-0.086007	0.582056	0.000054
N153	N	0.074713	0.232365	-0.161990
N154	N	0.074386	0.205834	-0.209856
H155	H	0.074640	0.227246	-0.248552
H156	H	-0.035554	0.781951	0.556182
N157	N	0.191632	0.554638	0.437482
N158	N	0.226383	0.519868	0.465141
H159	H	0.254471	0.491761	0.442822
H160	H	-0.193774	0.580761	0.000058
N161	N	-0.004728	0.751067	0.722282
N162	N	-0.039500	0.785819	0.749932
H163	H	-0.067621	0.813890	0.727605
H164	H	0.003411	0.742986	0.159043
H165	H	0.076678	0.391689	0.097326
N166	N	0.078017	0.505623	-0.108364
N167	N	0.078651	0.558658	-0.108351
H168	H	0.078896	0.580099	-0.147030
N169	N	0.074738	0.232341	0.162070
N170	N	0.074415	0.205805	0.209937
H171	H	0.074666	0.227215	0.248631
H172	H	0.071399	-0.047016	0.097340
N173	N	0.152744	0.593596	0.152651
N174	N	0.188002	0.611461	0.118097
H175	H	0.216089	0.583367	0.095761
N176	N	-0.107035	0.781297	0.000082
N177	N	-0.139887	0.827332	0.000086
H178	H	-0.123583	0.865054	0.000096
