data_functionalizedCrystal
_audit_creation_method	'MofGen! by Chris Wilmer'
_symmetry_space_group_name_H-M	'P1'
_symmetry_Int_Tables_number	1
_symmetry_cell_setting	triclinic
loop_
_symmetry_equiv_pos_as_xyz
  x,y,z
_cell_length_a	21.295418
_cell_length_b	19.077432
_cell_length_c	19.077569
_cell_angle_alpha	94.710891
_cell_angle_beta	87.666701
_cell_angle_gamma	92.257988
loop_
_atom_site_label
_atom_site_type_symbol
_atom_site_fract_x
_atom_site_fract_y
_atom_site_fract_z
Zn1	Zn	0.985757	0.264334	-0.387716
Zn2	Zn	0.985681	0.386957	-0.265095
Zn3	Zn	0.876429	0.269124	-0.269798
Zn4	Zn	0.884520	0.382218	-0.382905
O5	O	0.933097	0.325658	-0.326378
O6	O	1.073837	0.280579	-0.371495
O7	O	0.967770	0.375314	-0.167065
O8	O	0.887577	0.169840	-0.289422
O9	O	1.073781	0.370669	-0.281405
O10	O	0.967900	0.166321	-0.376056
O11	O	0.887503	0.288743	-0.170521
O12	O	0.789412	0.284148	-0.284757
O13	O	0.901368	0.362593	-0.482196
O14	O	0.795357	0.367238	-0.367857
O15	O	0.975746	0.275984	-0.485731
O16	O	0.975616	0.484977	-0.276741
O17	O	0.901293	0.481495	-0.363296
C18	C	0.769544	0.325699	-0.326296
C19	C	0.699576	0.325732	-0.326277
C20	C	0.939468	0.318226	-0.510258
C21	C	0.942183	0.315058	-0.588617
C22	C	0.939342	0.508814	-0.319001
C23	C	0.942072	0.587167	-0.315869
C24	C	0.669821	0.369060	-0.369476
C25	C	0.604079	0.369041	-0.369509
C26	C	0.568094	0.325703	-0.326328
C27	C	0.597857	0.282367	-0.283126
C28	C	0.663598	0.282382	-0.283100
N29	N	0.462509	0.322673	-0.264890
N30	N	0.400058	0.322663	-0.264916
C31	C	0.370021	0.325655	-0.326405
N32	N	0.404794	0.328671	-0.387867
N33	N	0.467251	0.328685	-0.387840
C34	C	0.496809	0.325682	-0.326352
C35	C	0.268981	0.368964	-0.369644
C36	C	0.203237	0.368941	-0.369677
C37	C	0.197017	0.282271	-0.283288
C38	C	0.262759	0.282290	-0.283260
C39	C	0.298737	0.325641	-0.326437
C40	C	1.097289	0.325618	-0.326462
C41	C	1.167257	0.325601	-0.326497
C42	C	0.926845	0.141787	-0.333800
C43	C	0.924181	0.063432	-0.336963
C44	C	0.904630	0.622193	-0.359424
C45	C	0.907198	0.695814	-0.356478
C46	C	0.947211	0.734409	-0.309979
C47	C	0.984655	0.699379	-0.266419
C48	C	0.982083	0.625759	-0.269362
C49	C	0.959052	0.954782	-0.296346
C50	C	0.961622	1.028407	-0.293407
C51	C	0.884165	1.024837	-0.383466
C52	C	0.881599	0.951216	-0.386408
C53	C	0.919040	0.916192	-0.342845
N54	N	0.949839	0.809662	-0.306968
N55	N	0.916409	0.840940	-0.345853
C56	C	0.904734	0.358659	-0.623591
C57	C	0.907290	0.355683	-0.697218
C58	C	0.947292	0.309102	-0.735869
C59	C	0.984745	0.265499	-0.700889
C60	C	0.982192	0.268479	-0.627264
C61	C	0.959084	0.295357	-0.956261
C62	C	0.961634	0.292379	-1.029891
C63	C	0.884179	0.382564	-1.026215
C64	C	0.881627	0.385537	-0.952588
C65	C	0.919082	0.341937	-0.917616
N66	N	0.949905	0.306057	-0.811127
N67	N	0.916472	0.344986	-0.842359
C68	C	0.926785	0.333011	-0.143216
C69	C	0.924185	0.335980	-0.064866
H70	H	0.699110	0.404358	-0.404635
C71	C	0.170845	0.416029	-0.416468
C72	C	0.133192	0.462740	-0.374672
C73	C	0.103335	0.506122	-0.417751
H74	H	0.201619	0.441915	-0.442190
H75	H	0.145347	0.387882	-0.448314
H76	H	0.158688	0.490884	-0.342838
H77	H	0.102406	0.436873	-0.348951
H78	H	0.077837	0.477974	-0.449598
H79	H	0.134113	0.532003	-0.443471
H80	H	0.077779	0.537816	-0.389400
C81	C	0.861392	0.409355	-0.581659
C82	C	0.878110	0.478374	-0.596751
C83	C	0.838207	0.525099	-0.558130
H84	H	0.819141	0.398663	-0.594082
H85	H	0.865244	0.404933	-0.532793
H86	H	0.874253	0.482794	-0.645606
H87	H	0.920355	0.489089	-0.584325
H88	H	0.842059	0.520677	-0.509264
H89	H	0.795959	0.514400	-0.570556
H90	H	0.849548	0.571934	-0.568359
C91	C	1.028015	0.741241	-0.215812
C92	C	1.011301	0.726208	-0.146757
C93	C	1.051227	0.764760	-0.100117
H94	H	1.070259	0.728725	-0.226577
H95	H	1.024183	0.790114	-0.220244
H96	H	1.015139	0.677346	-0.142327
H97	H	0.969064	0.738726	-0.135969
H98	H	1.047395	0.813633	-0.104549
H99	H	1.093468	0.752241	-0.110888
H100	H	1.039889	0.754570	-0.053257
H101	H	1.017319	0.227575	-0.732365
H102	H	1.012571	0.597242	-0.233893
C103	C	0.571880	0.416157	-0.416442
C104	C	0.617459	0.454132	-0.454239
C105	C	0.587824	0.497546	-0.497475
H106	H	0.546420	0.388062	-0.448355
H107	H	0.546326	0.447952	-0.388212
H108	H	0.643003	0.422340	-0.482466
H109	H	0.642922	0.482240	-0.422344
H110	H	0.562269	0.529341	-0.469246
H111	H	0.562364	0.469446	-0.529384
H112	H	0.618745	0.523322	-0.523121
C113	C	0.838257	0.909279	-0.436980
C114	C	0.873954	0.865132	-0.483923
C115	C	0.834050	0.826499	-0.530529
H116	H	0.808899	0.881639	-0.411205
H117	H	0.816338	0.940664	-0.462538
H118	H	0.895862	0.833751	-0.458368
H119	H	0.903310	0.892754	-0.509714
H120	H	0.812131	0.857883	-0.556086
H121	H	0.804693	0.798863	-0.504748
H122	H	0.858264	0.796545	-0.562389
H123	H	0.167719	0.246981	-0.248133
H124	H	0.687824	0.247097	-0.247921
C125	C	0.558681	0.235395	-0.236262
C126	C	0.494738	0.244672	-0.245513
C127	C	0.458632	0.201417	-0.202346
H128	H	0.568146	0.187600	-0.248513
H129	H	0.568092	0.247566	-0.188446
H130	H	0.485332	0.232495	-0.293317
H131	H	0.485254	0.292458	-0.233257
H132	H	0.468043	0.213589	-0.154531
H133	H	0.468103	0.153625	-0.214601
H134	H	0.415243	0.207711	-0.208612
C135	C	0.307938	0.416043	-0.416604
C136	C	0.267805	0.453965	-0.454465
C137	C	0.303667	0.497333	-0.497740
H138	H	0.333667	0.447877	-0.388418
H139	H	0.333754	0.387899	-0.448473
H140	H	0.242000	0.482108	-0.422599
H141	H	0.242075	0.422150	-0.482664
H142	H	0.329484	0.469188	-0.529609
H143	H	0.329395	0.529162	-0.469548
H144	H	0.276443	0.523063	-0.523438
H145	H	0.853682	1.053362	-0.418931
C146	C	0.294951	0.235230	-0.236274
C147	C	0.249369	0.197284	-0.198451
C148	C	0.279001	0.153928	-0.155154
H149	H	0.320518	0.203411	-0.264442
H150	H	0.320400	0.263384	-0.204382
H151	H	0.223932	0.169132	-0.230340
H152	H	0.223801	0.229085	-0.170270
H153	H	0.304450	0.182082	-0.123262
H154	H	0.304567	0.122114	-0.183327
H155	H	0.248079	0.128181	-0.129481
H156	H	0.994210	1.059829	-0.255543
H157	H	0.872050	0.590773	-0.397291
H158	H	0.876797	0.391189	-0.725690
C159	C	1.022875	0.221057	-0.589420
C160	C	1.058441	0.179611	-0.639025
C161	C	1.095923	0.135911	-0.604190
H162	H	1.050277	0.249102	-0.559625
H163	H	0.996768	0.191471	-0.561941
H164	H	1.084546	0.209193	-0.666492
H165	H	1.031056	0.151551	-0.668821
H166	H	1.069816	0.106325	-0.576712
H167	H	1.123321	0.163962	-0.574397
H168	H	1.120055	0.107780	-0.637842
C169	C	0.866521	0.733711	-0.403851
C170	C	0.830944	0.684154	-0.445218
C171	C	0.793469	0.719038	-0.488873
H172	H	0.839127	0.763568	-0.375773
H173	H	0.892633	0.761128	-0.433492
H174	H	0.804835	0.656749	-0.415580
H175	H	0.858322	0.654296	-0.473309
H176	H	0.819580	0.746455	-0.518514
H177	H	0.766078	0.748893	-0.460790
H178	H	0.769329	0.685418	-0.516950
H179	H	0.849063	0.423480	-0.921123
H180	H	0.994206	0.254440	-1.061360
H181	H	0.989539	0.926271	-0.260876
C182	C	0.843594	0.429873	-1.064314
C183	C	0.854401	0.417310	-1.137064
C184	C	0.817032	0.460889	-1.172182
H185	H	0.800507	0.420099	-1.052728
H186	H	0.854009	0.477737	-1.050381
H187	H	0.843981	0.369457	-1.150992
H188	H	0.897480	0.427089	-1.148671
H189	H	0.827447	0.508753	-1.158249
H190	H	0.773947	0.451111	-1.160590
H191	H	0.824364	0.452376	-1.221546
C192	C	0.999770	0.247933	-0.918427
C193	C	1.035332	0.206488	-0.968038
C194	C	1.072813	0.162784	-0.933208
H195	H	1.027174	0.275975	-0.888633
H196	H	0.973663	0.218347	-0.890949
H197	H	1.061437	0.236071	-0.995504
H198	H	1.007944	0.178432	-0.997834
H199	H	1.046706	0.133198	-0.905730
H200	H	1.100214	0.190831	-0.903416
H201	H	1.096942	0.134653	-0.966864
