data_functionalizedCrystal
_audit_creation_method	'MofGen! by Chris Wilmer'
_symmetry_space_group_name_H-M	'P1'
_symmetry_Int_Tables_number	1
_symmetry_cell_setting	triclinic
loop_
_symmetry_equiv_pos_as_xyz
  x,y,z
_cell_length_a	6.817900
_cell_length_b	11.102289
_cell_length_c	16.305550
_cell_angle_alpha	93.871858
_cell_angle_beta	103.455250
_cell_angle_gamma	108.605707
loop_
_atom_site_label
_atom_site_type_symbol
_atom_site_fract_x
_atom_site_fract_y
_atom_site_fract_z
V1	V	-4.052585	-0.176912	-0.263031
O2	O	-4.012740	0.007398	-0.258024
O3	O	-4.029765	-0.349724	-0.261232
O4	O	-4.003658	-0.174675	-0.377748
O5	O	-4.039028	-0.168864	-0.140702
V6	V	-4.532967	-0.154809	-0.248400
O7	O	-4.320734	-0.225396	-0.295127
O8	O	-4.715015	-0.106325	-0.216304
O9	O	-4.332580	0.018004	-0.250199
O10	O	-4.690209	-0.339118	-0.253407
O11	O	-4.663921	-0.162856	-0.370729
O12	O	-4.358687	-0.157046	-0.133683
C13	C	-3.881006	-0.391837	-0.257083
C14	C	-3.943631	-0.533117	-0.256376
C15	C	-4.156117	-0.605981	-0.260253
C16	C	-4.214952	-0.738730	-0.259597
C17	C	-3.848793	-0.725738	-0.251183
C18	C	-3.789964	-0.592993	-0.251846
C19	C	-4.367515	-0.613483	-0.265106
C20	C	-4.426350	-0.746231	-0.264450
C21	C	-3.847703	-0.168542	-0.405710
C22	C	-3.889152	-0.167857	-0.499491
C23	C	-4.039843	-0.165201	-0.840237
C24	C	-3.802622	-0.157314	-0.799308
C25	C	-3.759612	-0.158554	-0.701813
C26	C	-3.965082	-0.166518	-0.671189
C27	C	-4.150803	-0.292033	-0.721815
C28	C	-4.192560	-0.291323	-0.819365
C29	C	-4.077235	-0.048574	-0.794394
C30	C	-4.029158	-0.047581	-0.696551
C31	C	-3.922844	-0.167267	-0.575651
C32	C	-4.082092	-0.164460	-0.935776
C33	C	-4.144682	0.060110	-0.254346
C34	C	-4.061295	0.201389	-0.255058
C35	C	-4.177985	-0.163182	-0.105717
C36	C	-4.115773	-0.163861	-0.011934
H37	H	-4.490572	-0.770966	-0.206823
H38	H	-4.380913	-0.560013	-0.205625
H39	H	-4.465632	-0.594512	-0.326460
O40	O	-3.937434	0.077400	-0.812110
H41	H	-3.966782	0.158103	-0.779097
H42	H	-4.544153	-0.804353	-0.326949
H43	H	-4.108517	-0.380346	-0.705003
O44	O	-3.560785	-0.514408	-0.247674
H45	H	-3.557293	-0.467437	-0.305547
O46	O	-3.574229	-0.039030	-0.655411
H47	H	-3.514555	0.020178	-0.702565
H48	H	-3.682983	-0.066643	-0.811672
O49	O	-3.683054	-0.790316	-0.246297
H50	H	-3.759655	-0.894864	-0.246487
O51	O	-3.759391	-0.268302	-0.841040
H52	H	-3.906129	-0.329060	-0.890802
O53	O	-3.688344	-0.270825	-0.680218
H54	H	-3.684522	-0.324453	-0.739452
H55	H	-4.169561	-0.379613	-0.849746
O56	O	-4.424992	-0.305909	-0.856455
H57	H	-4.507103	-0.313448	-0.804702
O58	O	-4.306060	-0.054733	-0.829924
H59	H	-4.387014	-0.061901	-0.777823
O60	O	-4.355729	-0.305790	-0.696765
H61	H	-4.327309	-0.223117	-0.647845
H62	H	-3.894289	0.045258	-0.662173
O63	O	-4.223908	-0.045487	-0.668249
H64	H	-4.361580	-0.134543	-0.699017
