data_functionalizedCrystal
_audit_creation_method	'MofGen! by Chris Wilmer'
_symmetry_space_group_name_H-M	'P1'
_symmetry_Int_Tables_number	1
_symmetry_cell_setting	triclinic
loop_
_symmetry_equiv_pos_as_xyz
  x,y,z
_cell_length_a	21.295419
_cell_length_b	10.686285
_cell_length_c	10.686551
_cell_angle_alpha	99.084519
_cell_angle_beta	94.395937
_cell_angle_gamma	85.646337
loop_
_atom_site_label
_atom_site_type_symbol
_atom_site_fract_x
_atom_site_fract_y
_atom_site_fract_z
Zn1	Zn	1.005650	-0.449639	0.679093
Zn2	Zn	1.005599	-0.678219	0.450591
Zn3	Zn	0.892880	-0.466052	0.466846
Zn4	Zn	0.907884	-0.661887	0.662786
O5	O	0.953003	-0.563949	0.564829
O6	O	1.093732	-0.479927	0.648804
O7	O	0.984346	-0.663778	0.275116
O8	O	0.901581	-0.286255	0.508628
O9	O	1.093695	-0.647864	0.480924
O10	O	0.984433	-0.274197	0.664565
O11	O	0.901532	-0.507900	0.287058
O12	O	0.806781	-0.492064	0.492815
O13	O	0.927154	-0.620029	0.842580
O14	O	0.817805	-0.635943	0.636772
O15	O	0.998982	-0.464091	0.854561
O16	O	0.998895	-0.853672	0.465112
O17	O	0.927104	-0.841673	0.621011
C18	C	0.964641	-0.893725	0.539556
C19	C	0.969678	-1.034801	0.528786
C20	C	0.789453	-0.564013	0.564789
C21	C	0.719487	-0.564069	0.564799
C22	C	0.686672	-0.476747	0.652330
C23	C	0.620928	-0.476712	0.652337
C24	C	0.588004	-0.564021	0.564826
C25	C	0.620827	-0.651350	0.477279
C26	C	0.686569	-0.651373	0.477266
N27	N	0.488326	-0.675838	0.546418
N28	N	0.425874	-0.675812	0.546438
C29	C	0.389928	-0.563953	0.564859
N30	N	0.418793	-0.452118	0.583283
N31	N	0.481251	-0.452146	0.583270
C32	C	0.516718	-0.564005	0.564830
C33	C	0.285825	-0.476587	0.652402
C34	C	0.220080	-0.476551	0.652401
C35	C	0.219981	-0.651199	0.477349
C36	C	0.285724	-0.651224	0.477345
C37	C	0.318643	-0.563920	0.564878
C38	C	1.117193	-0.563886	0.564870
C39	C	1.187161	-0.563860	0.564888
C40	C	0.964747	-0.538407	0.895916
C41	C	0.969752	-0.527523	1.037006
C42	C	0.941339	-0.232884	0.590229
C43	C	0.936368	-0.091803	0.601053
C44	C	0.941338	-0.589301	0.235037
C45	C	0.936443	-0.599828	0.093975
H46	H	0.903997	-1.032679	0.671164
C47	C	0.183768	-0.747239	0.381084
N48	N	0.156489	-0.819578	0.308573
H49	H	1.002047	-1.093935	0.458662
H50	H	0.312629	-0.405491	0.723670
H51	H	0.312444	-0.722336	0.406073
C52	C	0.584824	-0.380655	0.748638
N53	N	0.557633	-0.308307	0.821175
H54	H	0.713470	-0.405656	0.723605
H55	H	0.904099	-0.670062	1.034812
H56	H	0.594016	-0.722436	0.406026
H57	H	0.713287	-0.722483	0.405986
C58	C	0.183983	-0.380484	0.748695
N59	N	0.156795	-0.308126	0.821228
C60	C	1.013452	-0.432635	1.116938
N61	N	1.046365	-0.361163	1.177144
