data_functionalizedCrystal
_audit_creation_method	'MofGen! by Chris Wilmer'
_symmetry_space_group_name_H-M	'P1'
_symmetry_Int_Tables_number	1
_symmetry_cell_setting	triclinic
loop_
_symmetry_equiv_pos_as_xyz
  x,y,z
_cell_length_a	18.050591
_cell_length_b	18.050590
_cell_length_c	16.959447
_cell_angle_alpha	90.031775
_cell_angle_beta	90.020296
_cell_angle_gamma	90.015000
loop_
_atom_site_label
_atom_site_type_symbol
_atom_site_fract_x
_atom_site_fract_y
_atom_site_fract_z
Zn1	Zn	1.135346	-0.295715	0.447027
Zn2	Zn	1.135277	-0.419917	0.314845
Zn3	Zn	1.011164	-0.295737	0.314850
Zn4	Zn	1.011135	-0.419860	0.446970
O5	O	1.073231	-0.357807	0.380923
O6	O	1.239262	-0.312205	0.429514
O7	O	1.118796	-0.403477	0.204235
O8	O	1.027679	-0.191810	0.332410
O9	O	1.239211	-0.403455	0.332401
O10	O	1.118915	-0.191793	0.429519
O11	O	1.027612	-0.312243	0.204239
O12	O	0.907236	-0.312188	0.332355
O13	O	1.027628	-0.403359	0.557588
O14	O	0.907214	-0.403381	0.429422
O15	O	1.118886	-0.312150	0.557630
O16	O	1.118767	-0.523834	0.332345
O17	O	1.027561	-0.523792	0.429417
C18	C	0.880278	-0.357781	0.380883
C19	C	0.797733	-0.357788	0.380885
C20	C	0.548897	-0.308146	0.328225
C21	C	0.598327	-0.290055	0.400362
C22	C	0.500612	-0.357826	0.380950
C23	C	0.598264	-0.375863	0.308785
C24	C	0.646597	-0.357805	0.380914
C25	C	0.548955	-0.339700	0.453125
C26	C	0.548888	-0.425539	0.361500
C27	C	0.598295	-0.407474	0.433687
C28	C	0.416514	-0.357836	0.380969
C29	C	0.730694	-0.357796	0.380903
C30	C	1.073173	-0.550759	0.380891
C31	C	1.073217	-0.633305	0.380904
C32	C	1.122918	-0.832751	0.328190
C33	C	1.141055	-0.882081	0.400333
C34	C	1.073259	-0.784436	0.380936
C35	C	1.055199	-0.882187	0.308826
C36	C	1.073301	-0.930421	0.380960
C37	C	1.091430	-0.832678	0.453116
C38	C	1.005543	-0.832780	0.361560
C39	C	1.023653	-0.882087	0.433753
C40	C	1.073237	-0.700337	0.380921
C41	C	1.073323	-1.014517	0.380983
C42	C	1.266936	-0.357834	0.380963
C43	C	1.349482	-0.357846	0.380980
C44	C	1.073261	-0.357746	0.587091
C45	C	1.073275	-0.357720	0.674948
C46	C	1.073308	-0.164102	0.380972
C47	C	1.073341	-0.081556	0.380993
C48	C	1.073242	-0.357815	0.175557
C49	C	1.073373	-0.357632	0.087700
C50	C	1.025849	-0.405130	1.046404
C51	C	1.120877	-0.310153	1.046443
C52	C	1.120857	-0.310169	0.963897
C53	C	1.073334	-0.357666	0.922601
C54	C	1.025830	-0.405148	0.963851
C55	C	1.168366	-0.262693	0.922641
C56	C	1.168348	-0.262708	0.840090
C57	C	1.120820	-0.310202	0.798793
C58	C	1.073314	-0.357685	0.840047
C59	C	1.025790	-0.405183	0.798751
C60	C	0.978280	-0.452663	0.840005
C61	C	0.978302	-0.452643	0.922553
C62	C	1.120798	-0.310222	0.716244
C63	C	1.025771	-0.405202	0.716198
H64	H	0.619846	-0.449478	0.478311
H65	H	0.527210	-0.266111	0.283707
H66	H	1.159483	-0.271567	0.682659
H67	H	1.207062	-0.224028	0.956271
H68	H	0.620030	-0.232780	0.416812
H69	H	0.939624	-0.491301	0.956149
H70	H	1.164928	-0.811088	0.283632
H71	H	0.527156	-0.482796	0.345038
H72	H	0.527384	-0.324368	0.514156
H73	H	1.198339	-0.903739	0.416737
H74	H	0.948275	-0.811106	0.345135
H75	H	0.619926	-0.391127	0.247771
H76	H	1.106666	-0.811024	0.514162
H77	H	1.207034	-0.224046	0.806509
H78	H	1.039906	-0.903934	0.247833
H79	H	0.981676	-0.903613	0.478420
H80	H	0.939589	-0.491339	0.806370
H81	H	0.987064	-0.443874	0.682580
H82	H	0.987165	-0.443784	1.079996
H83	H	1.159573	-0.271487	1.080071
