data_functionalizedCrystal
_audit_creation_method	'MofGen! by Chris Wilmer'
_symmetry_space_group_name_H-M	'P1'
_symmetry_Int_Tables_number	1
_symmetry_cell_setting	triclinic
loop_
_symmetry_equiv_pos_as_xyz
  x,y,z
_cell_length_a	14.044220
_cell_length_b	10.489741
_cell_length_c	13.101039
_cell_angle_alpha	93.396862
_cell_angle_beta	86.340132
_cell_angle_gamma	88.864026
loop_
_atom_site_label
_atom_site_type_symbol
_atom_site_fract_x
_atom_site_fract_y
_atom_site_fract_z
O1	O	1.264971	0.301301	-0.085104
O2	O	0.988928	0.290194	-0.085130
O3	O	1.133230	0.110787	-0.085110
O4	O	1.120668	0.480707	-0.085124
O5	O	1.122877	0.123682	0.085318
O6	O	0.978574	0.303089	0.085298
O7	O	1.254618	0.314196	0.085324
Zn8	Zn	1.114952	0.310690	0.112370
Zn9	Zn	1.128593	0.293700	-0.112176
O10	O	1.110315	0.493603	0.085305
C11	C	0.948404	0.291780	0.000081
C12	C	0.843079	0.277280	0.000071
C13	C	0.650236	0.250773	0.000092
C14	C	0.593304	0.353611	0.000093
C15	C	0.486000	0.338862	0.000105
C16	C	0.757551	0.265520	0.000080
C17	C	1.127105	0.069607	0.000103
C18	C	1.124266	-0.072311	0.000101
C19	C	1.032451	-0.149765	0.000085
C20	C	1.070719	-0.231130	0.084119
C21	C	1.080948	-0.243816	-0.083910
C22	C	1.162568	-0.151801	0.084204
C23	C	1.172789	-0.164485	-0.083900
C24	C	1.211123	-0.245814	0.000155
C25	C	1.295142	0.312609	0.000111
C26	C	1.400466	0.327109	0.000114
C27	C	1.116441	0.534783	0.000089
C28	C	1.119280	0.676700	0.000084
N29	N	1.105649	0.322285	0.265618
N30	N	1.137903	0.282095	-0.265424
C31	C	1.092993	0.338073	0.474659
C32	C	1.150557	0.266311	0.525542
C33	C	1.143515	0.275096	0.641860
C34	C	1.100034	0.329290	0.358331
H35	H	0.618389	0.151662	0.000101
O36	O	0.631452	0.471763	0.000011
C37	C	0.731652	0.460383	0.000015
H38	H	0.756040	0.360911	-0.032222
H39	H	0.754307	0.475867	0.081768
C40	C	0.747606	0.683575	-0.027275
C41	C	0.777560	0.561406	-0.066877
H42	H	0.775926	0.745894	-0.068533
H43	H	0.680099	0.691245	-0.027274
H44	H	0.766487	0.696461	0.040852
H45	H	0.758669	0.548516	-0.134997
H46	H	0.845066	0.553737	-0.066891
H47	H	0.956955	-0.107764	0.000162
O48	O	1.224121	-0.128992	-0.168676
C49	C	1.165814	-0.053675	-0.226268
H50	H	1.104466	-0.008883	-0.174186
H51	H	1.135909	-0.116210	-0.290234
C52	C	1.300740	-0.002445	-0.337092
C53	C	1.225395	0.052577	-0.273122
H54	H	1.337492	0.063092	-0.365998
H55	H	1.340023	-0.053192	-0.298294
H56	H	1.275808	-0.054557	-0.390389
H57	H	1.250329	0.104674	-0.219820
H58	H	1.186118	0.103335	-0.311913
H59	H	1.027554	-0.260706	0.155157
O60	O	1.039610	-0.291728	-0.168638
C61	C	0.945409	-0.242590	-0.168310
H62	H	0.938486	-0.149118	-0.119114
H63	H	0.893751	-0.314471	-0.135520
C64	C	0.930146	-0.332885	-0.339125
C65	C	0.921645	-0.218075	-0.278708
H66	H	0.915485	-0.317768	-0.407223
H67	H	0.993609	-0.365994	-0.339345
H68	H	0.887097	-0.392774	-0.311788
H69	H	0.964702	-0.158194	-0.306038
H70	H	0.858188	-0.184955	-0.278495
H71	H	1.205129	0.198277	0.481747
H72	H	1.197063	-0.111651	0.155329
O73	O	1.301262	-0.295570	0.000395
C74	C	1.343918	-0.248271	0.089100
H75	H	1.285939	-0.216510	0.150739
H76	H	1.389808	-0.163421	0.069859
C77	C	1.478055	-0.393135	0.053017
C78	C	1.406843	-0.354136	0.128726
H79	H	1.516874	-0.458434	0.077458
H80	H	1.449319	-0.424999	-0.006748
H81	H	1.516286	-0.322417	0.036989
H82	H	1.368606	-0.424850	0.144742
H83	H	1.435574	-0.322286	0.188494
H84	H	1.038426	0.406105	0.518448
