data_functionalizedCrystal
_audit_creation_method	'MofGen! by Chris Wilmer'
_symmetry_space_group_name_H-M	'P1'
_symmetry_Int_Tables_number	1
_symmetry_cell_setting	triclinic
loop_
_symmetry_equiv_pos_as_xyz
  x,y,z
_cell_length_a	13.339070
_cell_length_b	13.339070
_cell_length_c	13.448316
_cell_angle_alpha	89.996829
_cell_angle_beta	89.993568
_cell_angle_gamma	115.629294
loop_
_atom_site_label
_atom_site_type_symbol
_atom_site_fract_x
_atom_site_fract_y
_atom_site_fract_z
O1	O	1.496811	0.550530	-0.082718
O2	O	1.182002	0.478270	-0.082713
O3	O	1.303276	0.356995	-0.082712
O4	O	1.375536	0.671805	-0.082719
O5	O	1.303252	0.356979	0.082672
O6	O	1.181978	0.478254	0.082671
O7	O	1.496787	0.550514	0.082666
Cu8	Cu	1.339380	0.514382	0.097769
Cu9	Cu	1.339409	0.514401	-0.097816
O10	O	1.375512	0.671788	0.082665
C11	C	1.140874	0.466056	-0.000021
C12	C	1.018360	0.429672	-0.000019
C13	C	0.732973	0.712571	-0.000041
C14	C	0.848081	0.746759	-0.000046
C15	C	0.890657	0.667490	-0.000039
C16	C	0.818112	0.554028	-0.000028
C17	C	0.702992	0.519837	-0.000031
C18	C	0.860676	0.474756	-0.000028
C19	C	0.788132	0.361294	-0.000017
C20	C	0.673023	0.327109	-0.000020
C21	C	0.630448	0.406377	-0.000027
C22	C	0.975796	0.508947	-0.000025
C23	C	0.945816	0.316213	-0.000015
C24	C	0.830707	0.282025	-0.000010
C25	C	1.291058	0.315872	-0.000021
C26	C	1.254675	0.193358	-0.000025
C27	C	1.537574	-0.092030	-0.000028
C28	C	1.571761	0.023079	-0.000020
C29	C	1.492492	0.065654	-0.000021
C30	C	1.379030	-0.006890	-0.000031
C31	C	1.344839	-0.122010	-0.000032
C32	C	1.299758	0.035674	-0.000025
C33	C	1.186296	-0.036871	-0.000035
C34	C	1.152111	-0.151979	-0.000037
C35	C	1.231380	-0.194555	-0.000035
C36	C	1.333949	0.150794	-0.000024
C37	C	1.141215	0.120813	-0.000028
C38	C	1.107028	0.005705	-0.000037
C39	C	1.537914	0.562728	-0.000029
C40	C	1.660428	0.599111	-0.000037
C41	C	1.387730	0.712912	-0.000028
C42	C	1.424114	0.835426	-0.000031
N43	N	1.339368	0.514370	0.235333
N44	N	1.339427	0.514407	-0.235381
C45	C	1.393100	0.460707	0.287374
C46	C	1.393107	0.460708	0.391477
C47	C	1.339387	0.514380	0.443538
C48	C	1.285648	0.568044	0.391490
C49	C	1.285635	0.568036	0.287388
C50	C	1.285681	0.568060	0.608470
C51	C	1.285695	0.568071	0.712578
C52	C	1.393152	0.460732	0.712559
C53	C	1.393139	0.460724	0.608458
C54	C	1.339402	0.514390	0.556417
H55	H	0.984385	0.695333	-0.000045
H56	H	1.241949	0.611774	0.754961
H57	H	1.014645	-0.053377	-0.000044
O58	O	1.233376	0.620016	0.442170
C59	C	1.089921	0.601205	0.559694
C60	C	1.149037	0.542210	0.502380
H61	H	1.021705	0.538321	0.608371
H62	H	1.152677	0.669372	0.608479
H63	H	1.051567	0.639594	0.504597
H64	H	1.187392	0.503755	0.557405
H65	H	1.086235	0.474101	0.453580
H66	H	1.426331	0.209849	-0.000016
H67	H	1.241879	0.611732	0.245018
O68	O	0.691666	0.789602	-0.000229
C69	C	0.682121	0.943906	-0.085900
C70	C	0.728954	0.856703	-0.085819
H71	H	0.712269	0.998194	-0.155081
H72	H	0.587382	0.900032	-0.085968
H73	H	0.712103	0.998098	-0.016659
H74	H	0.699056	0.802485	-0.155048
H75	H	0.823689	0.900647	-0.085698
H76	H	1.436850	0.417007	0.244993
H77	H	1.034852	0.601328	-0.000030
H78	H	1.602102	-0.126707	-0.000019
H79	H	0.907140	0.839139	-0.000063
H80	H	0.536718	0.378547	-0.000022
H81	H	0.613959	0.234721	-0.000022
H82	H	1.076667	0.155477	-0.000024
O83	O	0.987106	0.239159	-0.000182
C84	C	0.996675	0.084860	-0.085826
C85	C	0.949852	0.172071	-0.085768
H86	H	0.966555	0.030582	-0.155004
H87	H	1.091414	0.128726	-0.085886
H88	H	0.966657	0.030659	-0.016581
H89	H	0.979786	0.226299	-0.155001
H90	H	0.855117	0.128135	-0.085656
O91	O	1.445413	0.408584	0.441875
C92	C	1.551973	0.302098	0.430870
C93	C	1.492793	0.361104	0.373672
H94	H	1.590275	0.263675	0.375753
H95	H	1.620204	0.364920	0.479558
H96	H	1.489174	0.233945	0.479657
H97	H	1.555507	0.429252	0.324831
H98	H	1.424544	0.298213	0.325047
H99	H	1.436888	0.417027	0.566070
O100	O	1.445266	0.408434	0.762993
C101	C	1.456022	0.235587	0.794890
C102	C	1.396917	0.294669	0.737691
H103	H	1.416940	0.143594	0.774470
H104	H	1.547997	0.274560	0.774378
H105	H	1.446836	0.244865	0.878232
H106	H	1.406016	0.285412	0.654336
H107	H	1.304966	0.255684	0.758286
H108	H	1.241917	0.611757	0.566102
H109	H	0.771625	0.189642	-0.000009
H110	H	1.520335	0.159382	-0.000014
H111	H	1.664142	0.082137	-0.000010
H112	H	1.203550	-0.288284	-0.000046
H113	H	1.059723	-0.211043	-0.000037
