data_functionalizedCrystal
_audit_creation_method	'MofGen! by Chris Wilmer'
_symmetry_space_group_name_H-M	'P1'
_symmetry_Int_Tables_number	1
_symmetry_cell_setting	triclinic
loop_
_symmetry_equiv_pos_as_xyz
  x,y,z
_cell_length_a	19.077241
_cell_length_b	19.077068
_cell_length_c	19.077569
_cell_angle_alpha	90.064237
_cell_angle_beta	85.478241
_cell_angle_gamma	94.707771
loop_
_atom_site_label
_atom_site_type_symbol
_atom_site_fract_x
_atom_site_fract_y
_atom_site_fract_z
Zn1	Zn	-1.085293	0.218632	0.450432
Zn2	Zn	-1.075731	0.341260	0.337269
Zn3	Zn	-0.962290	0.228491	0.328191
Zn4	Zn	-0.962626	0.341212	0.450371
O5	O	-1.021485	0.282399	0.391566
O6	O	-1.182836	0.230793	0.439246
O7	O	-1.056541	0.330447	0.237572
O8	O	-0.982467	0.128689	0.340633
O9	O	-1.175812	0.320887	0.356105
O10	O	-1.072836	0.121445	0.430443
O11	O	-0.973196	0.247596	0.230903
O12	O	-0.863522	0.247550	0.340573
O13	O	-0.983041	0.320805	0.548871
O14	O	-0.863770	0.330365	0.430338
O15	O	-1.073163	0.230746	0.548916
O16	O	-1.056867	0.439748	0.356046
O17	O	-0.973769	0.439713	0.439141
C18	C	-0.838025	0.290022	0.384464
C19	C	-0.759540	0.293300	0.381444
C20	C	-0.726326	0.248001	0.423383
C21	C	-0.652581	0.251078	0.420538
C22	C	-0.612051	0.299457	0.375758
C23	C	-0.645271	0.344758	0.333814
C24	C	-0.719014	0.341678	0.336655
C25	C	-0.391109	0.313690	0.362608
C26	C	-0.317360	0.316769	0.359771
C27	C	-0.324676	0.223087	0.446495
C28	C	-0.398420	0.220014	0.449335
C29	C	-0.431633	0.265312	0.407389
N30	N	-0.536672	0.302605	0.372851
N31	N	-0.507011	0.262161	0.410293
C32	C	-1.014337	0.465267	0.398588
C33	C	-1.011345	0.543496	0.401618
C34	C	-1.029206	0.274671	0.575146
C35	C	-1.032496	0.271377	0.653376
C36	C	-0.205661	0.274742	0.398689
C37	C	-0.284146	0.271470	0.401711
C38	C	-1.028681	0.098815	0.384532
C39	C	-1.031747	0.020582	0.381535
C40	C	-1.053240	0.580239	0.359817
C41	C	-1.050430	0.653743	0.362671
C42	C	-1.005721	0.690501	0.407324
C43	C	-0.963824	0.653752	0.449129
C44	C	-0.966638	0.580250	0.446278
C45	C	-0.992664	0.910331	0.420489
C46	C	-0.989852	0.983838	0.423336
C47	C	-1.076460	0.983824	0.336878
C48	C	-1.079267	0.910320	0.334028
C49	C	-1.037372	0.873577	0.375837
N50	N	-1.002846	0.765634	0.410241
N51	N	-1.040252	0.798446	0.372923
C52	C	-1.013837	0.290044	0.208699
C53	C	-1.010691	0.293134	0.130467
C54	C	-0.987121	0.316715	0.690107
C55	C	-0.990218	0.313621	0.763613
C56	C	-1.038688	0.265184	0.800388
C57	C	-1.084068	0.219844	0.763652
C58	C	-1.080973	0.222942	0.690147
C59	C	-1.052977	0.250892	1.020226
C60	C	-1.056066	0.247795	1.093736
C61	C	-0.962217	0.341574	1.093692
C62	C	-0.959124	0.344665	1.020186
C63	C	-1.004507	0.299328	0.983457
N64	N	-1.041853	0.262018	0.875523
N65	N	-1.001344	0.302497	0.908323
H66	H	-0.418142	0.350576	0.328453
H67	H	-1.117922	0.186023	0.660242
O68	O	-0.946517	1.019621	0.466756
C69	C	-0.986975	1.058489	0.515452
H70	H	-1.039044	1.068276	0.493166
H71	H	-0.956625	1.111000	0.525747
H72	H	-0.997971	1.027622	0.566820
H73	H	-0.297626	0.186207	0.480645
H74	H	-1.115673	0.880393	0.297669
O75	O	-1.103120	0.200652	1.129381
C76	C	-1.089680	0.131896	1.108147
H77	H	-1.060354	0.133808	1.053668
H78	H	-1.141775	0.098328	1.106403
H79	H	-1.056043	0.107954	1.147199
H80	H	-0.932523	0.550334	0.480318
H81	H	-0.919666	0.384118	0.990250
O82	O	-1.117262	1.019430	0.296309
C83	C	-1.188964	0.997833	0.313790
H84	H	-1.193581	0.943255	0.338835
H85	H	-1.218633	0.996127	0.264151
H86	H	-1.212659	1.036653	0.352517
O87	O	-0.951889	0.874756	0.461114
C88	C	-0.911833	0.922964	0.501141
H89	H	-0.906203	0.976688	0.474249
H90	H	-0.857313	0.903777	0.505618
H91	H	-0.939590	0.927409	0.555922
O92	O	-0.918168	0.385716	1.129299
C93	C	-0.930110	0.455980	1.114637
H94	H	-0.954952	0.458558	1.062374
H95	H	-0.877807	0.489766	1.111361
H96	H	-0.967226	0.476435	1.158320
O97	O	-0.765588	0.200944	0.466901
C98	C	-0.720454	0.161635	0.503320
H99	H	-0.666768	0.162561	0.472373
H100	H	-0.744242	0.104982	0.509613
H101	H	-0.713857	0.185573	0.557423
O102	O	-0.920378	0.689346	0.492568
C103	C	-0.883992	0.641152	0.528839
H104	H	-0.915023	0.587425	0.530386
H105	H	-0.877935	0.660352	0.584818
H106	H	-0.829595	0.636707	0.500647
H107	H	-0.947644	0.356150	0.660170
H108	H	-0.431415	0.180621	0.485803
O109	O	-0.946066	0.357690	0.799182
C110	C	-0.902631	0.401113	0.750963
H111	H	-0.899113	0.374592	0.697367
H112	H	-0.847596	0.410034	0.770337
H113	H	-0.926060	0.453826	0.746195
H114	H	-0.625541	0.214192	0.454691
H115	H	-1.089931	0.213975	0.990330
O116	O	-0.605977	0.391848	0.290356
C117	C	-0.621897	0.460625	0.309024
H118	H	-0.676525	0.458749	0.338197
H119	H	-0.621044	0.494143	0.259483
H120	H	-0.580996	0.484599	0.344488
O121	O	-1.131055	0.172721	0.799398
C122	C	-1.094426	0.127149	0.838629
H123	H	-1.038051	0.126045	0.814159
H124	H	-1.122124	0.071887	0.838373
H125	H	-1.093484	0.146663	0.895078
O126	O	-0.278094	0.363788	0.316208
C127	C	-0.323221	0.403122	0.279807
H128	H	-0.376809	0.372194	0.278328
H129	H	-0.299275	0.413770	0.223807
H130	H	-0.330067	0.455208	0.307849
H131	H	-0.746056	0.378564	0.302503
O132	O	-1.096732	0.544642	0.316424
C133	C	-1.133093	0.592840	0.280129
H134	H	-1.134723	0.643905	0.311087
H135	H	-1.189234	0.569559	0.273992
H136	H	-1.104727	0.604030	0.225960
O137	O	-1.091303	0.689400	0.322223
C138	C	-1.136933	0.728210	0.365821
H139	H	-1.144282	0.703523	0.420570
H140	H	-1.190254	0.727709	0.342647
H141	H	-1.113160	0.784778	0.369500
