data_functionalizedCrystal
_audit_creation_method	'MofGen! by Chris Wilmer'
_symmetry_space_group_name_H-M	'P1'
_symmetry_Int_Tables_number	1
_symmetry_cell_setting	triclinic
loop_
_symmetry_equiv_pos_as_xyz
  x,y,z
_cell_length_a	19.288864
_cell_length_b	8.559649
_cell_length_c	17.766277
_cell_angle_alpha	89.994756
_cell_angle_beta	89.976791
_cell_angle_gamma	76.457456
loop_
_atom_site_label
_atom_site_type_symbol
_atom_site_fract_x
_atom_site_fract_y
_atom_site_fract_z
O1	O	0.910987	0.199405	-0.062829
O2	O	0.707328	0.226304	-0.062777
O3	O	0.827100	-0.019877	-0.062807
O4	O	0.791215	0.445585	-0.062799
O5	O	0.827082	-0.019889	0.062381
O6	O	0.707310	0.226291	0.062411
O7	O	0.910969	0.199392	0.062359
Cu8	Cu	0.809138	0.212841	0.073816
Cu9	Cu	0.809160	0.212855	-0.074234
O10	O	0.791197	0.445573	0.062389
C11	C	0.681488	0.225432	-0.000176
C12	C	0.604519	0.222834	-0.000157
C13	C	0.552314	0.367282	-0.000166
C14	C	0.479994	0.364841	-0.000174
C15	C	0.459883	0.217944	-0.000188
C16	C	0.512099	0.073477	-0.000175
C17	C	0.584417	0.075922	-0.000159
C18	C	0.357630	0.102471	-0.044075
C19	C	0.285312	0.100032	-0.044095
C20	C	0.236829	0.210396	-0.000234
C21	C	0.260670	0.323227	0.043638
C22	C	0.332989	0.325672	0.043654
C23	C	0.381467	0.215276	-0.000205
C24	C	0.106205	0.352207	-0.000251
C25	C	0.033884	0.349760	-0.000255
C26	C	0.065991	0.058393	-0.000263
C27	C	0.138310	0.060844	-0.000252
C28	C	0.158412	0.207756	-0.000250
C29	C	0.829811	-0.079432	-0.000215
C30	C	0.837906	-0.256871	-0.000221
C31	C	0.936810	0.200264	-0.000243
C32	C	1.013778	0.202862	-0.000268
C33	C	0.788487	0.505129	-0.000205
C34	C	0.780392	0.682567	-0.000203
N35	N	0.809128	0.212829	0.177946
N36	N	0.809176	0.212854	-0.178364
C37	C	0.862176	0.103874	0.217320
C38	C	0.862180	0.103866	0.296122
C39	C	0.809142	0.212842	0.335547
C40	C	0.756085	0.321806	0.296164
C41	C	0.756078	0.321800	0.217364
C42	C	0.792272	0.358486	0.460389
C43	C	0.792284	0.358494	0.539188
C44	C	0.809160	0.212861	0.578593
C45	C	0.826039	0.067213	0.539190
C46	C	0.826032	0.067207	0.460390
C47	C	0.809144	0.212860	0.420993
C48	C	0.862215	0.103889	0.703413
C49	C	0.862215	0.103879	0.782216
C50	C	0.756123	0.321833	0.782257
C51	C	0.756120	0.321828	0.703455
C52	C	0.809170	0.212858	0.664038
H53	H	0.352397	0.417538	0.079378
O54	O	0.704513	0.427535	0.820510
C55	C	0.578706	0.521974	0.844643
C56	C	0.637087	0.402153	0.801284
H57	H	0.524178	0.501517	0.829103
H58	H	0.587759	0.503266	0.907738
H59	H	0.580963	0.649936	0.829149
H60	H	0.634864	0.274144	0.816716
H61	H	0.628014	0.421001	0.738201
O62	O	0.775843	0.500110	0.577343
C63	C	0.742395	0.789022	0.569022
C64	C	0.760985	0.628754	0.525720
H65	H	0.730392	0.893074	0.527304
H66	H	0.693618	0.793308	0.605923
H67	H	0.789469	0.799328	0.605906
H68	H	0.713956	0.618343	0.488796
H69	H	0.809786	0.624538	0.488867
O70	O	0.571964	0.509847	-0.000208
C71	C	0.669143	0.642752	-0.000175
C72	C	0.646987	0.481187	-0.000135
H73	H	0.729800	0.619637	-0.000100
H74	H	0.647082	0.714100	-0.052589
H75	H	0.646940	0.714140	0.052193
H76	H	0.669182	0.409669	-0.052468
H77	H	0.669038	0.409961	0.052314
O78	O	0.913774	-0.002126	0.665234
C79	C	1.019024	-0.218243	0.673509
C80	C	0.960667	-0.098294	0.716837
H81	H	1.056961	-0.296003	0.715210
H82	H	0.993328	-0.298031	0.636654
H83	H	1.050015	-0.149403	0.636577
H84	H	0.929656	-0.167003	0.753810
H85	H	0.986406	-0.018507	0.753643
O86	O	0.704493	0.427724	0.334341
C87	C	0.599285	0.643950	0.326066
C88	C	0.657666	0.524065	0.282739
H89	H	0.561419	0.721895	0.284365
H90	H	0.568214	0.575220	0.362961
H91	H	0.625038	0.723566	0.362959
H92	H	0.631973	0.444418	0.245806
H93	H	0.688732	0.592895	0.245892
H94	H	0.724959	-0.233537	-0.000187
O95	O	0.904081	-0.356793	-0.000336
C96	C	1.016331	-0.441521	-0.065245
C97	C	0.941418	-0.328245	-0.065199
H98	H	1.046534	-0.418503	-0.117689
H99	H	1.046615	-0.418434	-0.012899
H100	H	1.011281	-0.571581	-0.065201
H101	H	0.946402	-0.198144	-0.065269
H102	H	0.911161	-0.351471	-0.117540
O103	O	0.188935	-0.079622	-0.000284
C104	C	0.213146	-0.368871	-0.000248
C105	C	0.155739	-0.209906	-0.000232
H106	H	0.186329	-0.474247	-0.000190
H107	H	0.247827	-0.375115	-0.052645
H108	H	0.247787	-0.374927	0.052138
H109	H	0.121049	-0.203744	-0.052583
H110	H	0.121109	-0.203728	0.052199
H111	H	0.712926	0.410556	0.671395
O112	O	0.262280	-0.009719	-0.086727
C113	C	0.294351	-0.230801	-0.173766
C114	C	0.320530	-0.106614	-0.125508
H115	H	0.341430	-0.309150	-0.205145
H116	H	0.269037	-0.309506	-0.135853
H117	H	0.253188	-0.165595	-0.216069
H118	H	0.361716	-0.171687	-0.083200
H119	H	0.345802	-0.027914	-0.163468
H120	H	0.626924	-0.041708	-0.000151
H121	H	0.778518	0.477086	0.428311
H122	H	0.437481	0.482471	-0.000180
H123	H	0.221196	0.413096	0.079355
H124	H	0.122573	0.471832	-0.000239
H125	H	-0.008622	0.467392	-0.000259
H126	H	0.049617	-0.061214	-0.000321
H127	H	0.397100	0.012596	-0.079796
H128	H	0.905371	0.015140	0.185229
H129	H	0.905379	0.015138	0.328186
O130	O	0.492653	-0.069318	-0.000291
C131	C	0.497965	-0.319042	-0.065183
C132	C	0.520049	-0.157395	-0.065139
H133	H	0.520092	-0.390284	-0.117615
H134	H	0.520094	-0.390517	-0.012825
H135	H	0.437308	-0.295938	-0.065162
H136	H	0.580699	-0.180353	-0.065187
H137	H	0.497868	-0.085971	-0.117493
H138	H	0.839773	-0.051384	0.428312
O139	O	0.842308	-0.074240	0.577487
C140	C	0.802608	-0.247107	0.666509
C141	C	0.784081	-0.086882	0.623172
H142	H	0.755549	-0.257365	0.703468
H143	H	0.814632	-0.351255	0.624840
H144	H	0.851388	-0.251270	0.703343
H145	H	0.735291	-0.082563	0.586337
H146	H	0.772102	0.017191	0.664881
H147	H	0.905411	0.015146	0.814275
H148	H	0.712880	0.410526	0.185305
