data_functionalizedCrystal
_audit_creation_method	'MofGen! by Chris Wilmer'
_symmetry_space_group_name_H-M	'P1'
_symmetry_Int_Tables_number	1
_symmetry_cell_setting	triclinic
loop_
_symmetry_equiv_pos_as_xyz
  x,y,z
_cell_length_a	12.645331
_cell_length_b	12.645330
_cell_length_c	16.625539
_cell_angle_alpha	90.026386
_cell_angle_beta	90.020779
_cell_angle_gamma	90.011625
loop_
_atom_site_label
_atom_site_type_symbol
_atom_site_fract_x
_atom_site_fract_y
_atom_site_fract_z
Zn1	Zn	1.620749	-0.422066	0.455925
Zn2	Zn	1.620652	-0.599352	0.321096
Zn3	Zn	1.443469	-0.422100	0.321105
Zn4	Zn	1.443461	-0.599285	0.455886
O5	O	1.532082	-0.510701	0.388503
O6	O	1.769083	-0.445598	0.438052
O7	O	1.597111	-0.575882	0.208265
O8	O	1.467030	-0.273748	0.339009
O9	O	1.769012	-0.575849	0.338994
O10	O	1.597276	-0.273724	0.438060
O11	O	1.466936	-0.445655	0.208271
O12	O	1.295121	-0.445590	0.338971
O13	O	1.467015	-0.575734	0.568723
O14	O	1.295114	-0.575767	0.437994
O15	O	1.597268	-0.445532	0.568752
O16	O	1.597103	-0.747691	0.338957
O17	O	1.466921	-0.747641	0.437986
C18	C	1.256653	-0.510676	0.388480
C19	C	1.138823	-0.510691	0.388489
C20	C	0.971227	-0.428420	0.326537
C21	C	1.093787	-0.428632	0.326264
C22	C	1.094313	-0.622364	0.365276
C23	C	0.971715	-0.621915	0.364853
C24	C	0.971667	-0.482351	0.473892
C25	C	1.094273	-0.479856	0.473418
C26	C	1.532029	-0.786131	0.388484
C27	C	1.532104	-0.903961	0.388503
C28	C	1.613869	-1.071512	0.326077
C29	C	1.614136	-0.948951	0.326230
C30	C	1.562400	-0.948345	0.473495
C31	C	1.563049	-1.070943	0.473164
C32	C	1.420009	-1.071286	0.366773
C33	C	1.420547	-0.948681	0.364867
C34	C	1.808588	-0.510727	0.388527
C35	C	1.926418	-0.510738	0.388537
C36	C	1.532151	-0.510622	0.598812
C37	C	1.532181	-0.510588	0.688433
C38	C	1.532165	-0.234196	0.388540
C39	C	1.532200	-0.116366	0.388555
C40	C	1.532075	-0.510703	0.179012
C41	C	1.532251	-0.510438	0.089391
C42	C	1.532230	-0.510470	1.016609
C43	C	1.532213	-0.510506	0.925300
C44	C	1.532206	-0.510530	0.852524
C45	C	1.532188	-0.510565	0.761210
H46	H	0.943074	-0.645988	0.302454
H47	H	1.124973	-0.646851	0.303547
H48	H	1.595151	-1.101063	0.262872
Br49	Br	1.582463	-0.898936	0.221205
Br50	Br	1.142785	-0.342894	0.502605
H51	H	1.123069	-0.447395	0.263012
H52	H	1.123486	-0.685337	0.409016
Br53	Br	1.751628	-1.122728	0.349818
Br54	Br	0.922109	-0.289974	0.350524
Br55	Br	1.752633	-0.899929	0.350247
H56	H	1.123880	-0.345822	0.340814
Br57	Br	1.382462	-0.900345	0.260619
Br58	Br	0.919796	-0.459318	0.221735
Br59	Br	0.922305	-0.727604	0.436831
H60	H	0.940762	-0.402340	0.495002
Br61	Br	1.145367	-0.572502	0.554534
Br62	Br	0.923375	-0.582282	0.550888
Br63	Br	1.699729	-1.118475	0.503916
H64	H	1.506170	-1.100610	0.521319
Br65	Br	1.466266	-0.899787	0.553165
Br66	Br	1.697538	-0.897036	0.504765
Br67	Br	1.374086	-1.122969	0.265275
H68	H	1.356414	-0.918066	0.407037
H69	H	1.359159	-1.100293	0.412279
