data_functionalizedCrystal
_audit_creation_method	'MofGen! by Chris Wilmer'
_symmetry_space_group_name_H-M	'P1'
_symmetry_Int_Tables_number	1
_symmetry_cell_setting	triclinic
loop_
_symmetry_equiv_pos_as_xyz
  x,y,z
_cell_length_a	21.395364
_cell_length_b	14.908579
_cell_length_c	21.395355
_cell_angle_alpha	86.717056
_cell_angle_beta	89.975448
_cell_angle_gamma	86.663015
loop_
_atom_site_label
_atom_site_type_symbol
_atom_site_fract_x
_atom_site_fract_y
_atom_site_fract_z
Zn1	Zn	0.943506	0.358914	-0.368658
Zn2	Zn	0.937377	0.509758	-0.269931
Zn3	Zn	0.838720	0.358953	-0.263896
Zn4	Zn	0.832658	0.509774	-0.374672
O5	O	0.888065	0.434350	-0.319289
O6	O	1.030372	0.378900	-0.355570
O7	O	0.924261	0.489764	-0.181453
O8	O	0.857722	0.232700	-0.272751
O9	O	1.025869	0.489725	-0.283036
O10	O	0.934709	0.232671	-0.349719
O11	O	0.851778	0.378968	-0.177019
O12	O	0.750237	0.378983	-0.278582
O13	O	0.847390	0.489753	-0.461552
O14	O	0.745783	0.489791	-0.359969
O15	O	0.928830	0.378916	-0.457133
O16	O	0.918383	0.636009	-0.288868
O17	O	0.841446	0.636021	-0.365820
C18	C	0.725276	0.434394	-0.319274
C19	C	0.655633	0.434434	-0.319283
C20	C	0.625283	0.376822	-0.357117
C21	C	0.559849	0.376798	-0.357118
C22	C	0.524766	0.434402	-0.319293
C23	C	0.555123	0.492019	-0.281451
C24	C	0.620557	0.492034	-0.281446
C25	C	0.417792	0.515649	-0.317514
C26	C	0.352360	0.515634	-0.317524
C27	C	0.322947	0.434353	-0.319305
C28	C	0.358975	0.353083	-0.321089
C29	C	0.424408	0.353099	-0.321084
C30	C	0.453814	0.434391	-0.319294
C31	C	0.221646	0.376710	-0.357142
C32	C	0.156211	0.376684	-0.357139
C33	C	0.151486	0.491913	-0.281476
C34	C	0.216920	0.491930	-0.281475
C35	C	0.251997	0.434330	-0.319312
C36	C	0.878609	0.668749	-0.328665
C37	C	0.874621	0.769027	-0.332697
C38	C	0.947323	0.957384	-0.260208
C39	C	0.943578	1.051604	-0.263994
C40	C	0.863389	1.051686	-0.344059
C41	C	0.867134	0.957467	-0.340273
C42	C	0.909102	0.910319	-0.298345
C43	C	0.912843	0.816098	-0.294556
C44	C	0.832658	0.816182	-0.374624
C45	C	0.828913	0.910402	-0.378410
C46	C	1.051490	0.434306	-0.319306
C47	C	1.121132	0.434288	-0.319313
C48	C	0.888118	0.434332	-0.482712
C49	C	0.888140	0.434324	-0.552353
C50	C	0.897571	1.199035	-0.309899
C51	C	0.901612	1.098758	-0.305918
C52	C	0.930544	0.376609	-0.582766
C53	C	0.930545	0.376570	-0.648200
C54	C	0.888148	0.434262	-0.683219
C55	C	0.845735	0.491982	-0.652798
C56	C	0.845732	0.492012	-0.587365
C57	C	0.879923	0.515497	-0.790143
C58	C	0.879931	0.515468	-0.855575
C59	C	0.888155	0.434167	-0.885036
C60	C	0.896385	0.352893	-0.849057
C61	C	0.896381	0.352924	-0.783624
C62	C	0.888147	0.434235	-0.754170
C63	C	0.930563	0.376405	-0.986400
C64	C	0.930559	0.376365	-1.051835
C65	C	0.845752	0.491784	-1.056432
C66	C	0.845753	0.491817	-0.990998
C67	C	0.888161	0.434128	-0.955986
C68	C	0.888051	0.434303	-0.156500
C69	C	0.888160	0.434057	-0.086849
H70	H	0.250207	0.329802	-0.387947
H71	H	0.947014	0.777712	-0.260414
N72	N	0.992578	0.906525	-0.214982
H73	H	1.016221	0.950639	-0.191394
H74	H	1.023118	0.867368	-0.238939
H75	H	0.903080	0.286747	-0.754333
H76	H	0.974703	1.089921	-0.232940
H77	H	0.645266	0.538951	-0.250636
N78	N	0.449513	0.603323	-0.315593
H79	H	0.476692	0.602034	-0.276929
H80	H	0.416724	0.654753	-0.314492
H81	H	0.535133	0.329879	-0.387926
N82	N	0.799985	0.554262	-0.554566
H83	H	0.807105	0.618716	-0.568544
H84	H	0.806433	0.545456	-0.507809
N85	N	0.113657	0.554047	-0.240677
H86	H	0.125597	0.539940	-0.195361
H87	H	0.067612	0.545267	-0.246470
H88	H	0.241631	0.538848	-0.250669
N89	N	0.976285	0.314316	-0.681010
H90	H	1.020484	0.328329	-0.670202
H91	H	0.969798	0.323080	-0.727764
N92	N	0.517291	0.554156	-0.240654
H93	H	0.529228	0.540049	-0.195339
H94	H	0.471245	0.545381	-0.246450
H95	H	0.903083	0.286690	-0.873043
H96	H	0.453739	0.286926	-0.322535
N97	N	0.976267	0.314374	-0.544996
H98	H	1.003820	0.351035	-0.519325
H99	H	1.003088	0.277809	-0.574230
H100	H	0.811213	0.538952	-0.681314
N101	N	0.818131	1.102545	-0.389281
H102	H	0.821561	1.169374	-0.385892
H103	H	0.774039	1.086162	-0.378826
N104	N	0.800007	0.554053	-0.958189
H105	H	0.773144	0.590590	-0.990300
H106	H	0.823810	0.595816	-0.932718
N107	N	0.783650	0.961255	-0.423631
H108	H	0.787077	1.028085	-0.420243
H109	H	0.739561	0.944866	-0.413172
H110	H	0.801534	0.777851	-0.405676
H111	H	0.131502	0.329764	-0.387947
H112	H	0.965091	0.329426	-0.957892
H113	H	0.653838	0.329919	-0.387926
H114	H	0.335028	0.286896	-0.322540
H115	H	0.323031	0.581809	-0.316073
H116	H	0.965089	0.329361	-1.076596
N117	N	0.800017	0.554004	-1.094192
H118	H	0.806452	0.545226	-1.140259
H119	H	0.807163	0.618441	-1.085345
N120	N	0.871058	0.603121	-0.894379
H121	H	0.905651	0.643496	-0.884623
H122	H	0.829246	0.633755	-0.884193
H123	H	0.873059	0.581685	-0.766161
