data_functionalizedCrystal
_audit_creation_method	'MofGen! by Chris Wilmer'
_symmetry_space_group_name_H-M	'P1'
_symmetry_Int_Tables_number	1
_symmetry_cell_setting	triclinic
loop_
_symmetry_equiv_pos_as_xyz
  x,y,z
_cell_length_a	19.805407
_cell_length_b	18.215405
_cell_length_c	18.215407
_cell_angle_alpha	89.985182
_cell_angle_beta	90.011037
_cell_angle_gamma	89.975115
loop_
_atom_site_label
_atom_site_type_symbol
_atom_site_fract_x
_atom_site_fract_y
_atom_site_fract_z
Zn1	Zn	1.034686	0.293106	0.416118
Zn2	Zn	1.534686	0.793106	0.916118
Zn3	Zn	1.034621	0.416144	0.293046
Zn4	Zn	1.534621	0.916144	0.793046
Zn5	Zn	0.921517	0.293095	0.293064
Zn6	Zn	1.421517	0.793095	0.793064
Zn7	Zn	0.921467	0.416135	0.416069
Zn8	Zn	1.421467	0.916135	0.916069
O9	O	0.978073	0.354620	0.354574
O10	O	1.478073	0.854620	0.854574
O11	O	1.129394	0.309435	0.399805
O12	O	1.629394	0.809435	0.899805
O13	O	1.019611	0.399820	0.190064
O14	O	1.519611	0.899820	0.690064
O15	O	0.936578	0.190113	0.309415
O16	O	1.436578	0.690113	0.809415
O17	O	1.129346	0.399830	0.309385
O18	O	1.629346	0.899830	0.809385
O19	O	1.019722	0.190120	0.399822
O20	O	1.519722	0.690120	0.899822
O21	O	0.936514	0.309417	0.190077
O22	O	1.436514	0.809417	0.690077
O23	O	0.826794	0.309409	0.309368
O24	O	1.326794	0.809409	0.809368
O25	O	0.936492	0.399816	0.519060
O26	O	1.436492	0.899816	1.019060
O27	O	0.826757	0.399806	0.399739
O28	O	1.326757	0.899806	0.899739
O29	O	1.019673	0.309427	0.519096
O30	O	1.519673	0.809427	1.019096
O31	O	1.019562	0.519127	0.309338
O32	O	1.519562	1.019127	0.809338
O33	O	0.936429	0.519121	0.399722
O34	O	1.436429	1.019121	0.899722
C35	C	0.978001	0.545826	0.354539
C36	C	1.478001	1.045826	0.854539
C37	C	0.978033	0.627625	0.354548
C38	C	1.478033	1.127625	0.854548
C39	C	0.802217	0.354606	0.354551
C40	C	1.302217	0.854606	0.854551
C41	C	0.726985	0.354618	0.354558
C42	C	1.226985	0.854618	0.854558
C43	C	0.978084	0.354622	0.546527
C44	C	1.478084	0.854622	1.046527
C45	C	0.978089	0.354623	0.628326
C46	C	1.478089	0.854623	1.128326
C47	C	0.691639	0.401758	0.401538
C48	C	1.191639	0.901758	0.901538
C49	C	0.620951	0.401760	0.401549
C50	C	1.120951	0.901760	0.901549
C51	C	0.585609	0.354624	0.354574
C52	C	1.085609	0.854624	0.854574
C53	C	0.620960	0.307478	0.307592
C54	C	1.120960	0.807478	0.807592
C55	C	0.691647	0.307473	0.307586
C56	C	1.191647	0.807473	0.807586
C57	C	0.335886	0.307494	0.307616
C58	C	0.835886	0.807494	0.807616
C59	C	0.265194	0.307504	0.307624
C60	C	0.765194	0.807504	0.807624
C61	C	0.265190	0.401780	0.401579
C62	C	0.765190	0.901780	0.901579
C63	C	0.335877	0.401776	0.401573
C64	C	0.835877	0.901776	0.901573
C65	C	0.371222	0.354628	0.354594
C66	C	0.871222	0.854628	0.854594
C67	C	0.447870	0.354626	0.354584
C68	C	0.947870	0.854626	0.854584
C69	C	0.508962	0.354628	0.354580
C70	C	1.008962	0.854628	0.854580
C71	C	1.154615	0.354635	0.354599
C72	C	1.654615	0.854635	0.854599
C73	C	1.229847	0.354641	0.354609
C74	C	1.729847	0.854641	0.854609
C75	C	0.978163	0.162667	0.354626
C76	C	1.478163	0.662667	0.854626
C77	C	0.978201	0.080868	0.354648
C78	C	1.478201	0.580868	0.854648
C79	C	1.021422	0.815798	0.307572
C80	C	1.521422	1.315798	0.807572
C81	C	1.021452	0.892657	0.307590
C82	C	1.521452	1.392657	0.807590
C83	C	0.934810	0.892690	0.401630
C84	C	1.434810	1.392690	0.901630
C85	C	0.934784	0.815833	0.401615
C86	C	1.434784	1.315833	0.901615
C87	C	0.978089	0.777389	0.354582
C88	C	1.478089	1.277389	0.854582
C89	C	0.978145	0.931105	0.354614
C90	C	1.478145	1.431105	0.854614
C91	C	0.978178	1.014438	0.354634
C92	C	1.478178	1.514438	0.854634
C93	C	0.978057	0.694050	0.354563
C94	C	1.478057	1.194050	0.854563
C95	C	1.021388	0.307565	0.816540
C96	C	1.521388	0.807565	1.316540
C97	C	1.021385	0.307565	0.893399
C98	C	1.521385	0.807565	1.393399
C99	C	0.934768	0.401692	0.893350
C100	C	1.434768	0.901692	1.393350
C101	C	0.934769	0.401688	0.816493
C102	C	1.434769	0.901688	1.316493
C103	C	0.978083	0.354625	0.778090
C104	C	1.478083	0.854625	1.278090
C105	C	0.978078	0.354629	0.931806
C106	C	1.478078	0.854629	1.431806
C107	C	0.978074	0.354629	1.015139
C108	C	1.478074	0.854629	1.515139
C109	C	0.978087	0.354624	0.694751
C110	C	1.478087	0.854624	1.194751
C111	C	0.978061	0.354634	1.163368
C112	C	1.478061	0.854634	1.663368
C113	C	0.978072	0.354632	1.081569
C114	C	1.478072	0.854632	1.581569
H115	H	0.592175	0.440147	0.439804
H116	H	1.092175	0.940147	0.939804
C117	C	1.068290	0.256376	0.935181
C118	C	1.568290	0.756376	1.435181
C119	C	1.029983	0.209191	0.979291
C120	C	1.529983	0.709191	1.479291
C121	C	1.073169	0.162015	1.017782
C122	C	1.573169	0.662015	1.517782
H123	H	1.097782	0.284441	0.965225
H124	H	1.597782	0.784441	1.465225
H125	H	1.094070	0.228306	0.901321
H126	H	1.594070	0.728306	1.401321
H127	H	1.004215	0.237258	1.013147
H128	H	1.504215	0.737258	1.513147
H129	H	1.000493	0.181110	0.949265
H130	H	1.500493	0.681110	1.449265
H131	H	1.098949	0.133945	0.983921
H132	H	1.598949	0.633945	1.483921
H133	H	1.102659	0.190085	1.047821
H134	H	1.602659	0.690085	1.547821
H135	H	1.047184	0.129990	1.047709
H136	H	1.547184	0.629990	1.547709
H137	H	0.364649	0.440161	0.439822
H138	H	0.864649	0.940161	0.939822
H139	H	0.899497	0.784558	0.439900
H140	H	1.399497	1.284558	0.939900
C141	C	0.374337	0.256429	0.256562
C142	C	0.874337	0.756429	0.756562
C143	C	0.414907	0.298017	0.209322
C144	C	0.914907	0.798017	0.709322
C145	C	0.450345	0.250998	0.162284
C146	C	0.950345	0.750998	0.662284
H147	H	0.343238	0.228346	0.228517
H148	H	0.843238	0.728346	0.728517
H149	H	0.401968	0.224413	0.284746
H150	H	0.901968	0.724413	0.784746
H151	H	0.387278	0.330020	0.181141
H152	H	0.887278	0.830020	0.681141
H153	H	0.446018	0.326098	0.237346
H154	H	0.946018	0.826098	0.737346
H155	H	0.477976	0.218982	0.190468
H156	H	0.977976	0.718982	0.690468
H157	H	0.419241	0.222918	0.134244
H158	H	0.919241	0.722918	0.634244
H159	H	0.477880	0.279208	0.130231
H160	H	0.977880	0.779208	0.630231
C161	C	0.887900	0.934527	0.452729
C162	C	1.387900	1.434527	0.952729
C163	C	0.926203	0.978613	0.499934
C164	C	1.426203	1.478613	0.999934
C165	C	0.883010	1.017168	0.547009
C166	C	1.383010	1.517168	1.047009
H167	H	0.862073	0.900728	0.480796
H168	H	1.362073	1.400728	0.980796
H169	H	0.858451	0.964588	0.424569
H170	H	1.358451	1.464588	0.924569
H171	H	0.955641	0.948554	0.528091
H172	H	1.455641	1.448554	1.028091
H173	H	0.952029	1.012425	0.471887
H174	H	1.452029	1.512425	0.971887
H175	H	0.853561	1.047230	0.518849
H176	H	1.353561	1.547230	1.018849
H177	H	0.857185	0.983364	0.575071
H178	H	1.357185	1.483364	1.075071
H179	H	0.908992	1.047090	0.579038
H180	H	1.408992	1.547090	1.079038
H181	H	0.236404	0.440168	0.439835
H182	H	0.736404	0.940168	0.939835
C183	C	0.887821	0.452762	0.935179
C184	C	1.387821	0.952762	1.435179
C185	C	0.897101	0.442709	1.010718
C186	C	1.397101	0.942709	1.510718
C187	C	0.853872	0.489751	1.049272
C188	C	1.353872	0.989751	1.549272
H189	H	0.842321	0.442036	0.922666
H190	H	1.342321	0.942036	1.422666
H191	H	0.897712	0.502224	0.922612
H192	H	1.397712	1.002224	1.422612
H193	H	0.887206	0.393258	1.023280
H194	H	1.387206	0.893258	1.523280
H195	H	0.942593	0.453440	1.023253
H196	H	1.442593	0.953440	1.523253
H197	H	0.863763	0.539213	1.036705
H198	H	1.363763	1.039213	1.536705
H199	H	0.808375	0.479021	1.036753
H200	H	1.308375	0.979021	1.536753
H201	H	0.860167	0.482941	1.100529
H202	H	1.360167	0.982941	1.600529
H203	H	0.592179	0.269096	0.269348
H204	H	1.092179	0.769096	0.769348
C205	C	0.887834	0.452909	0.774779
C206	C	1.387834	0.952909	1.274779
C207	C	0.902551	0.525727	0.793437
C208	C	1.402551	1.025727	1.293437
C209	C	0.859335	0.572928	0.755017
C210	C	1.359335	1.072928	1.255017
H211	H	0.842336	0.442236	0.787335
H212	H	1.342336	0.942236	1.287335
H213	H	0.894043	0.446213	0.723499
H214	H	1.394043	0.946213	1.223499
H215	H	0.896336	0.532420	0.844706
H216	H	1.396336	1.032420	1.344706
H217	H	0.948041	0.536423	0.780879
H218	H	1.448041	1.036423	1.280879
H219	H	0.865545	0.566232	0.703737
H220	H	1.365545	1.066232	1.203737
H221	H	0.813840	0.562248	0.767576
H222	H	1.313840	1.062248	1.267576
H223	H	0.869319	0.622340	0.767666
H224	H	1.369319	1.122340	1.267666
H225	H	0.720409	0.440144	0.439788
H226	H	1.220409	0.940144	0.939788
C227	C	1.068524	0.934225	0.256467
C228	C	1.568524	1.434225	0.756467
C229	C	1.106428	0.884104	0.215264
C230	C	1.606428	1.384104	0.715264
C231	C	1.149794	0.922369	0.168154
C232	C	1.649794	1.422369	0.668154
H233	H	1.098067	0.964170	0.284572
H234	H	1.598067	1.464170	0.784572
H235	H	1.042680	0.964230	0.224341
H236	H	1.542680	1.464230	0.724341
H237	H	1.132270	0.854112	0.247386
H238	H	1.632270	1.354112	0.747386
H239	H	1.076903	0.854158	0.187144
H240	H	1.576903	1.354158	0.687144
H241	H	1.123950	0.952374	0.136029
H242	H	1.623950	1.452374	0.636029
H243	H	1.179333	0.952313	0.196266
H244	H	1.679333	1.452313	0.696266
H245	H	1.175513	0.888368	0.140188
H246	H	1.675513	1.388368	0.640188
C247	C	1.068434	0.256384	0.774977
C248	C	1.568434	0.756384	1.274977
C249	C	1.106344	0.215157	0.825105
C250	C	1.606344	0.715157	1.325105
C251	C	1.149682	0.167992	0.786846
C252	C	1.649682	0.667992	1.286846
H253	H	1.097975	0.284451	0.744990
H254	H	1.597975	0.784451	1.244990
H255	H	1.042570	0.224277	0.745015
H256	H	1.542570	0.724277	1.245015
H257	H	1.132206	0.247260	0.855054
H258	H	1.632206	0.747260	1.355054
H259	H	1.076821	0.187075	0.855093
H260	H	1.576821	0.687075	1.355093
H261	H	1.123818	0.135885	0.756885
H262	H	1.623818	0.635885	1.256885
H263	H	1.179219	0.196064	0.756861
H264	H	1.679219	0.696064	1.256861
H265	H	1.175405	0.140008	0.820852
H266	H	1.675405	0.640008	1.320852
H267	H	0.720424	0.269083	0.269333
H268	H	1.220424	0.769083	0.769333
H269	H	0.236421	0.269115	0.269372
H270	H	0.736421	0.769115	0.769372
H271	H	1.056684	0.784498	0.269276
H272	H	1.556684	1.284498	0.769276
