data_functionalizedCrystal
_audit_creation_method	'MofGen! by Chris Wilmer'
_symmetry_space_group_name_H-M	'P1'
_symmetry_Int_Tables_number	1
_symmetry_cell_setting	triclinic
loop_
_symmetry_equiv_pos_as_xyz
  x,y,z
_cell_length_a	6.817900
_cell_length_b	17.982959
_cell_length_c	10.773894
_cell_angle_alpha	96.506974
_cell_angle_beta	96.645922
_cell_angle_gamma	102.451857
loop_
_atom_site_label
_atom_site_type_symbol
_atom_site_fract_x
_atom_site_fract_y
_atom_site_fract_z
V1	V	-3.943879	-0.102609	-0.389451
V2	V	-3.443879	0.397391	0.110549
O3	O	-3.938325	0.007812	-0.381502
O4	O	-3.438325	0.507812	0.118498
O5	O	-3.890812	-0.206227	-0.387303
O6	O	-3.390812	0.293773	0.112697
O7	O	-3.861680	-0.099767	-0.559069
O8	O	-3.361680	0.400233	-0.059069
O9	O	-3.967659	-0.099386	-0.208547
O10	O	-3.467659	0.400614	0.291453
V11	V	-4.432491	-0.089551	-0.367751
V12	V	-3.932491	0.410449	0.132249
O13	O	-4.193973	-0.131254	-0.437053
O14	O	-3.693973	0.368746	0.062947
O15	O	-4.632593	-0.060907	-0.320150
O16	O	-4.132593	0.439093	0.179850
O17	O	-4.262351	0.014067	-0.369899
O18	O	-3.762351	0.514067	0.130101
O19	O	-4.555442	-0.199972	-0.375700
O20	O	-4.055442	0.300028	0.124300
O21	O	-4.526107	-0.092774	-0.548656
O22	O	-4.026107	0.407226	-0.048656
O23	O	-4.291483	-0.092393	-0.198133
O24	O	-3.791483	0.407607	0.301867
C25	C	-3.735771	-0.231527	-0.381292
C26	C	-3.235771	0.268473	0.118708
C27	C	-3.773445	-0.316228	-0.380667
C28	C	-3.273445	0.183772	0.119333
C29	C	-3.971817	-0.359856	-0.386614
C30	C	-3.471817	0.140144	0.113386
C31	C	-4.007205	-0.439442	-0.386034
C32	C	-3.507205	0.060558	0.113966
C33	C	-3.844216	-0.475398	-0.379497
C34	C	-3.344216	0.024602	0.120503
C35	C	-3.645828	-0.431764	-0.373553
C36	C	-3.145828	0.068236	0.126447
C37	C	-3.610444	-0.352180	-0.374142
C38	C	-3.110444	0.147820	0.125858
C39	C	-3.788521	-0.752717	-0.371177
C40	C	-3.288521	-0.252717	0.128823
C41	C	-3.823921	-0.832306	-0.370584
C42	C	-3.323921	-0.332306	0.129416
C43	C	-4.185282	-0.839979	-0.383068
C44	C	-3.685282	-0.339979	0.116932
C45	C	-4.149898	-0.760395	-0.383657
C46	C	-3.649898	-0.260395	0.116343
C47	C	-3.951516	-0.716769	-0.377720
C48	C	-3.451516	-0.216769	0.122280
C49	C	-3.913147	-0.630473	-0.378352
C50	C	-3.413147	-0.130473	0.121648
C51	C	-3.882580	-0.561692	-0.378856
C52	C	-3.382580	-0.061692	0.121144
C53	C	-3.698609	-0.095725	-0.600395
C54	C	-3.198609	0.404275	-0.100395
C55	C	-3.712655	-0.094086	-0.739062
C56	C	-3.212655	0.405914	-0.239062
C57	C	-3.890602	-0.096926	-0.806939
C58	C	-3.390602	0.403074	-0.306939
C59	C	-3.905123	-0.095233	-0.950258
C60	C	-3.405123	0.404767	-0.450258
C61	C	-4.080734	0.039363	-0.375906
C62	C	-3.580734	0.539363	0.124094
C63	C	-4.022297	0.124063	-0.376540
C64	C	-3.522297	0.624063	0.123460
C65	C	-4.117897	-0.096438	-0.156800
C66	C	-3.617897	0.403562	0.343200
C67	C	-4.083090	-0.098072	-0.018132
C68	C	-3.583090	0.401928	0.481868
H69	H	-3.626990	-0.717205	-0.366335
H70	H	-3.126990	-0.217205	0.133665
H71	H	-4.104545	-0.330586	-0.391925
H72	H	-3.604545	0.169414	0.108075
H73	H	-3.763511	-0.091543	-0.998244
H74	H	-3.263511	0.408457	-0.498244
H75	H	-4.346818	-0.875510	-0.387904
H76	H	-3.846818	-0.375510	0.112096
H77	H	-4.168736	-0.474962	-0.390878
H78	H	-3.668736	0.025038	0.109122
H79	H	-4.282623	-0.731124	-0.388974
H80	H	-3.782623	-0.231124	0.111026
H81	H	-3.691185	-0.861579	-0.365269
H82	H	-3.191185	-0.361579	0.134731
H83	H	-3.513123	-0.461046	-0.368238
H84	H	-3.013123	0.038954	0.131762
H85	H	-3.448912	-0.316659	-0.369304
H86	H	-2.948912	0.183341	0.130696
H87	H	-4.224703	-0.101760	-0.970148
H88	H	-3.724703	0.398240	-0.470148
H89	H	-4.032196	-0.100605	-0.758945
H90	H	-3.532196	0.399395	-0.258945
H91	H	-3.571056	-0.090397	-0.787053
H92	H	-3.071056	0.409603	-0.287053
