data_functionalizedCrystal
_audit_creation_method	'MofGen! by Chris Wilmer'
_symmetry_space_group_name_H-M	'P1'
_symmetry_Int_Tables_number	1
_symmetry_cell_setting	triclinic
loop_
_symmetry_equiv_pos_as_xyz
  x,y,z
_cell_length_a	12.827893
_cell_length_b	16.120444
_cell_length_c	12.827885
_cell_angle_alpha	92.864671
_cell_angle_beta	89.980728
_cell_angle_gamma	92.926656
loop_
_atom_site_label
_atom_site_type_symbol
_atom_site_fract_x
_atom_site_fract_y
_atom_site_fract_z
Zn1	Zn	1.576496	-0.331863	-0.611900
Zn2	Zn	1.567494	-0.471299	-0.446006
Zn3	Zn	1.401735	-0.331905	-0.437177
Zn4	Zn	1.392831	-0.471238	-0.620702
O5	O	1.484639	-0.401576	-0.528946
O6	O	1.721538	-0.350369	-0.589906
O7	O	1.545465	-0.452851	-0.298601
O8	O	1.432411	-0.215233	-0.452976
O9	O	1.714924	-0.452811	-0.468024
O10	O	1.560808	-0.215203	-0.581344
O11	O	1.423683	-0.350438	-0.292114
O12	O	1.254319	-0.350379	-0.461510
O13	O	1.417235	-0.452706	-0.765768
O14	O	1.247777	-0.452746	-0.596345
O15	O	1.552174	-0.350309	-0.759301
O16	O	1.536831	-0.587957	-0.476558
O17	O	1.408506	-0.587912	-0.604907
C18	C	1.213130	-0.401561	-0.528925
C19	C	1.096976	-0.401574	-0.528942
C20	C	1.048458	-0.350972	-0.589358
C21	C	0.928407	-0.350985	-0.589377
C22	C	1.470754	-0.618184	-0.542668
C23	C	1.464909	-0.710850	-0.548574
C24	C	1.515214	-0.921795	-0.498537
C25	C	1.454258	-0.880507	-0.559366
C26	C	1.460186	-0.786101	-0.553359
C27	C	1.509287	-1.016209	-0.504542
C28	C	1.757208	-0.401592	-0.528968
C29	C	1.873361	-0.401599	-0.528977
C30	C	1.484715	-0.401496	-0.801511
C31	C	1.484748	-0.401462	-0.917663
C32	C	1.498607	-0.184122	-0.515193
C33	C	1.504559	-0.091456	-0.509333
C34	C	1.551527	-0.350783	-0.966247
C35	C	1.551562	-0.350746	-1.086295
C36	C	1.484627	-0.401596	-0.257438
C37	C	1.484812	-0.401395	-0.141272
H38	H	0.886670	-0.307666	-0.641105
H39	H	0.915091	-0.444928	-0.477256
N40	N	1.413067	-0.455830	-1.088875
N41	N	1.350309	-0.503444	-1.140510
H42	H	1.299637	-0.541888	-1.103499
H43	H	1.049637	-0.444904	-0.477230
H44	H	1.608670	-0.307418	-0.918966
H45	H	1.571847	-0.886246	-0.441951
N46	N	1.383184	-0.925088	-0.630350
N47	N	1.325863	-0.886322	-0.687536
H48	H	1.275664	-0.917809	-0.737664
H49	H	1.608738	-0.307360	-1.128089
N50	N	1.107837	-0.296597	-0.654214
N51	N	1.172139	-0.243473	-0.614118
H52	H	1.214075	-0.205068	-0.659922
H53	H	1.427595	-0.444818	-0.964942
