data_functionalizedCrystal
_audit_creation_method	'MofGen! by Chris Wilmer'
_symmetry_space_group_name_H-M	'P1'
_symmetry_Int_Tables_number	1
_symmetry_cell_setting	triclinic
loop_
_symmetry_equiv_pos_as_xyz
  x,y,z
_cell_length_a	10.654554
_cell_length_b	10.654558
_cell_length_c	7.681481
_cell_angle_alpha	84.202971
_cell_angle_beta	95.780682
_cell_angle_gamma	84.487485
loop_
_atom_site_label
_atom_site_type_symbol
_atom_site_fract_x
_atom_site_fract_y
_atom_site_fract_z
O1	O	1.656077	0.188207	-0.146371
O2	O	1.290598	0.205008	-0.146386
O3	O	1.481736	0.013869	-0.146371
O4	O	1.464939	0.379347	-0.146387
O5	O	1.505261	-0.009711	0.146489
O6	O	1.314124	0.181429	0.146473
O7	O	1.679602	0.164627	0.146488
Zn8	Zn	1.500598	0.169284	0.192979
Zn9	Zn	1.469602	0.200352	-0.192877
O10	O	1.488464	0.355767	0.146473
C11	C	1.255563	0.191984	0.000042
C12	C	1.116119	0.188290	0.000036
C13	C	0.905615	0.297362	0.000047
C14	C	1.036635	0.300835	0.000033
C15	C	1.064576	0.072266	0.000034
C16	C	0.933556	0.068796	0.000035
C17	C	0.826138	0.409913	0.000062
C18	C	0.877672	0.525937	0.000061
C19	C	1.008693	0.529410	0.000047
C20	C	1.088179	0.416859	0.000035
C21	C	1.492263	-0.044719	0.000057
C22	C	1.488567	-0.184161	0.000052
C23	C	1.499651	-0.262528	0.159687
C24	C	1.496189	-0.393550	0.159679
C25	C	1.470551	-0.367825	-0.159612
C26	C	1.474023	-0.236807	-0.159603
C27	C	1.514195	-0.209882	0.319341
C28	C	1.525279	-0.288250	0.478989
C29	C	1.521817	-0.419272	0.478982
C30	C	1.507270	-0.471926	0.319327
C31	C	1.714637	0.177652	0.000057
C32	C	1.854080	0.181347	0.000051
C33	C	1.477937	0.414355	0.000041
C34	C	1.481632	0.553798	0.000035
N35	N	1.521761	0.148081	0.456315
N36	N	1.448449	0.221545	-0.456213
H37	H	1.050647	0.623884	0.000030
H38	H	1.530854	-0.483077	0.608975
H39	H	1.129303	-0.019367	0.000026
H40	H	1.194861	0.419699	-0.000013
C41	C	0.876865	-0.058828	0.000042
N42	N	0.834164	-0.154956	0.000042
C43	C	1.461823	-0.150598	-0.335210
N44	N	1.452635	-0.085665	-0.467482
H45	H	0.812946	0.617573	0.000057
C46	C	1.518009	-0.065757	0.319364
N47	N	1.520881	0.042798	0.319379
H48	H	1.537133	-0.245371	0.608975
H49	H	1.504462	-0.578616	0.319334
H50	H	1.596612	0.073100	0.531526
C51	C	1.347340	0.322842	0.442191
N52	N	1.271181	0.399139	0.365658
C53	C	1.454537	-0.425750	-0.335221
N54	N	1.442469	-0.469377	-0.467492
C55	C	0.682012	0.406103	0.000075
N56	N	0.573456	0.403232	0.000085
