data_functionalizedCrystal
_audit_creation_method	'MofGen! by Chris Wilmer'
_symmetry_space_group_name_H-M	'P1'
_symmetry_Int_Tables_number	1
_symmetry_cell_setting	triclinic
loop_
_symmetry_equiv_pos_as_xyz
  x,y,z
_cell_length_a	17.038278
_cell_length_b	17.019294
_cell_length_c	11.892095
_cell_angle_alpha	90.016651
_cell_angle_beta	85.819118
_cell_angle_gamma	87.243447
loop_
_atom_site_label
_atom_site_type_symbol
_atom_site_fract_x
_atom_site_fract_y
_atom_site_fract_z
O1	O	1.043084	0.165762	-0.110145
O2	O	1.543084	0.665762	0.389855
O3	O	0.815442	0.163057	-0.109882
O4	O	1.315442	0.663057	0.390118
O5	O	0.935023	0.050558	-0.098925
O6	O	1.435023	0.550558	0.401075
O7	O	0.923503	0.278261	-0.121101
O8	O	1.423503	0.778261	0.378899
O9	O	0.925052	0.059922	0.088170
O10	O	1.425052	0.559922	0.588170
O11	O	0.805471	0.172421	0.077214
O12	O	1.305471	0.672421	0.577214
O13	O	1.033114	0.175126	0.076951
O14	O	1.533114	0.675126	0.576951
Zn15	Zn	0.917709	0.175261	0.106788
Zn16	Zn	1.417709	0.675261	0.606788
Zn17	Zn	0.930846	0.162922	-0.139719
Zn18	Zn	1.430846	0.662922	0.360281
O19	O	0.913533	0.287625	0.065995
O20	O	1.413533	0.787625	0.565995
C21	C	0.781318	0.165278	-0.016094
C22	C	1.281318	0.665278	0.483906
C23	C	0.694493	0.157934	-0.015380
C24	C	1.194493	0.657934	0.484620
C25	C	0.203886	0.112818	-0.010990
C26	C	0.703886	0.612818	0.489010
C27	C	0.285466	0.119724	-0.011656
C28	C	0.785466	0.619724	0.488344
C29	C	0.317221	0.194062	-0.018901
C30	C	0.817221	0.694062	0.481099
C31	C	0.267391	0.261498	-0.025469
C32	C	0.767391	0.761498	0.474531
C33	C	0.185813	0.254591	-0.024795
C34	C	0.685813	0.754591	0.475205
C35	C	0.563084	0.218463	-0.021274
C36	C	1.063084	0.718463	0.478726
C37	C	0.644669	0.225365	-0.021950
C38	C	1.144669	0.725365	0.478050
C39	C	0.662738	0.083590	-0.008136
C40	C	1.162738	0.583590	0.491864
C41	C	0.581158	0.076690	-0.007469
C42	C	1.081158	0.576690	0.492531
C43	C	0.531335	0.144126	-0.014031
C44	C	1.031335	0.644126	0.485969
C45	C	0.400609	0.201123	-0.019585
C46	C	0.900609	0.701123	0.480415
C47	C	0.447948	0.137064	-0.013339
C48	C	0.947948	0.637064	0.486661
C49	C	0.929404	0.025961	-0.002529
C50	C	1.429404	0.525961	0.497471
C51	C	0.927507	-0.061281	0.005961
C52	C	1.427507	0.438719	0.505961
C53	C	0.932053	-0.107368	-0.092036
C54	C	1.432053	0.392632	0.407964
C55	C	0.930266	-0.189341	-0.084056
C56	C	1.430266	0.310659	0.415944
C57	C	0.923938	-0.225226	0.021922
C58	C	1.423938	0.274774	0.521922
C59	C	0.919390	-0.179133	0.119926
C60	C	1.419390	0.320867	0.619926
C61	C	0.921172	-0.097161	0.111945
C62	C	1.421172	0.402839	0.611945
C63	C	0.918282	-0.472472	0.051122
C64	C	1.418282	0.027528	0.551122
C65	C	0.916503	-0.554450	0.059095
C66	C	1.416503	-0.054450	0.559095
C67	C	0.927377	-0.564652	-0.144887
C68	C	1.427377	-0.064652	0.355113
C69	C	0.929163	-0.482678	-0.152859
C70	C	1.429163	0.017322	0.347141
C71	C	0.924610	-0.436592	-0.054855
C72	C	1.424610	0.063408	0.445145
C73	C	0.922114	-0.309015	0.030081
C74	C	1.422114	0.190985	0.530081
C75	C	0.926429	-0.352804	-0.063016
C76	C	1.426429	0.147196	0.436984
C77	C	1.067238	0.172905	-0.016839
C78	C	1.567238	0.672905	0.483161
C79	C	1.154063	0.180249	-0.017561
C80	C	1.654063	0.680249	0.482439
C81	C	0.919151	0.312222	-0.030405
C82	C	1.419151	0.812222	0.469595
C83	C	0.921048	0.399464	-0.038901
C84	C	1.421048	0.899464	0.461099
N85	N	0.908750	0.183681	0.275022
N86	N	1.408750	0.683681	0.775022
N87	N	0.939812	0.154496	-0.307952
N88	N	1.439812	0.654496	0.192048
C89	C	1.002157	0.095859	0.520223
C90	C	1.502157	0.595859	1.020223
C91	C	0.995900	0.101750	0.637991
C92	C	1.495900	0.601750	1.137991
C93	C	0.889975	0.201352	0.628329
C94	C	1.389975	0.701352	1.128329
C95	C	0.896232	0.195460	0.510561
C96	C	1.396232	0.695460	1.010561
C97	C	0.952326	0.142713	0.456512
C98	C	1.452326	0.642713	0.956512
C99	C	0.958586	0.136825	0.338741
C100	C	1.458586	0.636825	0.838741
C101	C	0.852658	0.236422	0.329082
C102	C	1.352658	0.736422	0.829082
C103	C	0.846401	0.242314	0.446850
C104	C	1.346401	0.742314	0.946850
H105	H	0.426474	0.261650	-0.025487
H106	H	0.926474	0.761650	0.474513
H107	H	1.047835	0.052915	0.476215
H108	H	1.547835	0.552915	0.976215
C109	C	0.340269	0.045544	-0.004428
C110	C	0.840269	0.545544	0.495572
N111	N	0.381546	-0.010332	0.001017
N112	N	0.881546	0.489668	0.501017
H113	H	0.914590	-0.434959	0.130924
H114	H	1.414590	0.065041	0.630924
H115	H	0.800729	0.285258	0.490870
H116	H	1.300729	0.785258	0.990870
C117	C	0.912424	-0.218609	0.236503
C118	C	1.412424	0.281391	0.736503
N119	N	0.907179	-0.248342	0.324311
N120	N	1.407179	0.251658	0.824311
C121	C	0.916173	-0.046466	0.219749
C122	C	1.416173	0.453534	0.719749
N123	N	0.912407	-0.008283	0.300951
N124	N	1.412407	0.491717	0.800951
H125	H	0.812085	0.274576	0.277194
H126	H	1.312085	0.774576	0.777194
C127	C	1.050716	0.050205	0.708069
C128	C	1.550716	0.550205	1.208069
N129	N	1.092004	0.011376	0.760853
N130	N	1.592004	0.511376	1.260853
H131	H	0.931576	-0.323583	-0.149302
H132	H	1.431576	0.176417	0.350698
C133	C	0.909539	-0.593921	0.175684
C134	C	1.409539	-0.093921	0.675684
N135	N	0.904295	-0.623651	0.263495
N136	N	1.404295	-0.123651	0.763495
H137	H	0.916965	-0.338242	0.116369
H138	H	1.416965	0.161758	0.616369
H139	H	0.937210	-0.078157	-0.178335
H140	H	1.437210	0.421843	0.321665
H141	H	0.933971	-0.226861	-0.163856
H142	H	1.433971	0.273139	0.336144
H143	H	0.178038	0.052283	-0.005098
H144	H	0.678038	0.552283	0.494902
H145	H	0.931082	-0.602183	-0.224677
H146	H	1.431082	-0.102183	0.275323
H147	H	1.004262	0.093878	0.294736
H148	H	1.504262	0.593878	0.794736
H149	H	0.934316	-0.453467	-0.239158
H150	H	1.434316	0.046533	0.260842
H151	H	0.555309	0.016156	-0.001570
H152	H	1.055309	0.516156	0.498430
C153	C	0.717549	0.009416	-0.000900
C154	C	1.217549	0.509416	0.499100
N155	N	0.758832	-0.046454	0.004557
N156	N	1.258832	0.453546	0.504557
C157	C	0.131007	0.328771	-0.032026
C158	C	0.631007	0.828771	0.467974
N159	N	0.089728	0.384646	-0.037469
N160	N	0.589728	0.884646	0.462531
H161	H	0.670520	0.285903	-0.027834
H162	H	1.170520	0.785903	0.472166
C163	C	0.508288	0.292647	-0.028477
C164	C	1.008288	0.792647	0.471523
N165	N	0.467012	0.348527	-0.033897
N166	N	0.967012	0.848527	0.466103
C167	C	0.302325	0.343271	-0.033435
C168	C	0.802325	0.843271	0.466565
N169	N	0.328636	0.404864	-0.039438
N170	N	0.828636	0.904864	0.460562
H171	H	0.422090	0.076538	-0.007453
H172	H	0.922090	0.576538	0.492547
C173	C	0.828259	0.259350	0.687805
C174	C	1.328259	0.759350	1.187805
N175	N	0.781768	0.303029	0.732604
N176	N	1.281768	0.803029	1.232604
