data_functionalizedCrystal
_audit_creation_method	'MofGen! by Chris Wilmer'
_symmetry_space_group_name_H-M	'P1'
_symmetry_Int_Tables_number	1
_symmetry_cell_setting	triclinic
loop_
_symmetry_equiv_pos_as_xyz
  x,y,z
_cell_length_a	14.044191
_cell_length_b	14.044220
_cell_length_c	13.101039
_cell_angle_alpha	86.326400
_cell_angle_beta	86.330719
_cell_angle_gamma	86.809673
loop_
_atom_site_label
_atom_site_type_symbol
_atom_site_fract_x
_atom_site_fract_y
_atom_site_fract_z
O1	O	1.272353	-0.235014	0.085170
O2	O	0.995680	-0.226702	0.085183
O3	O	1.129864	-0.092522	0.085167
O4	O	1.138169	-0.369195	0.085187
O5	O	1.139495	-0.082882	-0.085264
O6	O	1.005311	-0.217063	-0.085248
O7	O	1.281984	-0.225375	-0.085261
Zn8	Zn	1.145177	-0.219688	-0.112314
Zn9	Zn	1.132487	-0.232389	0.112236
O10	O	1.147800	-0.359555	-0.085244
C11	C	0.964873	-0.218246	-0.000031
C12	C	0.858730	-0.207399	-0.000026
N13	N	1.123827	-0.241050	0.265486
C14	C	1.131044	-0.052080	-0.000049
C15	C	1.120199	0.054063	-0.000050
C16	C	0.613272	-0.264499	-0.000032
C17	C	0.664397	-0.187583	-0.000036
C18	C	0.772534	-0.198611	-0.000031
C19	C	0.505125	-0.253472	-0.000038
C20	C	1.312790	-0.233831	-0.000044
C21	C	1.418933	-0.244679	-0.000042
C22	C	1.146620	-0.399997	-0.000026
C23	C	1.157464	-0.506140	-0.000019
C24	C	1.100372	0.248400	-0.000034
C25	C	1.177287	0.299528	-0.000034
C26	C	1.166255	0.407664	-0.000026
C27	C	1.111403	0.140254	-0.000043
N28	N	1.153844	-0.211020	-0.265563
C29	C	1.112036	-0.252833	0.474530
C30	C	1.165632	-0.199240	0.525399
C31	C	1.159071	-0.205796	0.641718
C32	C	1.118596	-0.246278	0.358200
H33	H	0.626950	-0.113454	0.000031
O34	O	0.658081	-0.352868	0.000028
C35	C	0.808298	-0.444558	-0.000007
C36	C	0.757658	-0.344429	-0.000056
H37	H	0.888815	-0.437768	-0.000097
H38	H	0.782806	-0.489059	0.071341
H39	H	0.790754	-0.480978	-0.071309
H40	H	0.775178	-0.307927	0.071198
H41	H	0.783154	-0.299998	-0.071451
O42	O	1.051434	-0.313356	0.526942
C43	C	0.989626	-0.375211	0.692359
C44	C	1.058284	-0.306619	0.633115
H45	H	0.995156	-0.369803	0.778210
H46	H	0.913246	-0.355110	0.671417
H47	H	1.009698	-0.451559	0.671297
H48	H	1.038300	-0.230249	0.654145
H49	H	1.134646	-0.326803	0.654062
O50	O	1.011862	0.292904	0.000014
C51	C	0.842270	0.274682	-0.000056
C52	C	0.942447	0.224144	-0.000082
H53	H	0.786122	0.219114	-0.000155
H54	H	0.829176	0.317111	0.071288
H55	H	0.837360	0.325253	-0.071362
H56	H	0.947429	0.173527	0.071176
H57	H	0.955497	0.181776	-0.071474
O58	O	1.226191	-0.138494	0.473259
C59	C	1.269843	0.024614	0.440112
C60	C	1.201214	-0.044077	0.499246
H61	H	1.249662	0.100966	0.461085
H62	H	1.346213	0.004602	0.461151
H63	H	1.264420	0.019124	0.354257
H64	H	1.206552	-0.038623	0.585116
H65	H	1.124873	-0.024045	0.478123
H66	H	1.251417	0.262083	0.000031
