data_functionalizedCrystal
_audit_creation_method	'MofGen! by Chris Wilmer'
_symmetry_space_group_name_H-M	'P1'
_symmetry_Int_Tables_number	1
_symmetry_cell_setting	triclinic
loop_
_symmetry_equiv_pos_as_xyz
  x,y,z
_cell_length_a	13.897449
_cell_length_b	15.297510
_cell_length_c	13.897431
_cell_angle_alpha	80.393127
_cell_angle_beta	89.950255
_cell_angle_gamma	80.290206
loop_
_atom_site_label
_atom_site_type_symbol
_atom_site_fract_x
_atom_site_fract_y
_atom_site_fract_z
Zn1	Zn	1.408580	0.358652	-0.611717
Zn2	Zn	1.908580	0.858652	-0.111717
Zn3	Zn	1.380441	0.509632	-0.478343
Zn4	Zn	1.880441	1.009632	0.021657
Zn5	Zn	1.247158	0.358814	-0.450465
Zn6	Zn	1.747158	0.858814	0.049535
Zn7	Zn	1.219332	0.509454	-0.639563
Zn8	Zn	1.719332	1.009454	-0.139563
O9	O	1.313878	0.434138	-0.545022
O10	O	1.813878	0.934138	-0.045022
O11	O	1.539828	0.378686	-0.594038
O12	O	2.039828	0.878686	-0.094038
O13	O	1.362629	0.489768	-0.339689
O14	O	1.862629	0.989768	0.160311
O15	O	1.291992	0.232563	-0.448535
O16	O	1.791992	0.732563	0.051465
O17	O	1.519154	0.489611	-0.496048
O18	O	2.019154	0.989611	0.003952
O19	O	1.410589	0.232444	-0.567006
O20	O	1.910589	0.732444	-0.067006
O21	O	1.264706	0.378963	-0.319207
O22	O	1.764706	0.878963	0.180793
O23	O	1.108486	0.378790	-0.475536
O24	O	1.608486	0.878790	0.024464
O25	O	1.244568	0.489307	-0.770824
O26	O	1.744568	0.989307	-0.270824
O27	O	1.088043	0.489464	-0.614465
O28	O	1.588043	0.989464	-0.114465
O29	O	1.383608	0.378513	-0.750366
O30	O	1.883608	0.878513	-0.250366
O31	O	1.335648	0.635838	-0.523049
O32	O	1.835648	1.135838	-0.023049
O33	O	1.217282	0.635707	-0.641497
O34	O	1.717282	1.135707	-0.141497
C35	C	1.270419	0.668502	-0.588341
C36	C	1.770419	1.168502	-0.088341
C37	C	1.251915	0.768764	-0.606905
C38	C	1.751915	1.268764	-0.106905
C39	C	1.063266	0.434126	-0.544998
C40	C	1.563266	0.934126	-0.044998
C41	C	0.956049	0.434142	-0.545014
C42	C	1.456049	0.934142	-0.045014
C43	C	1.446477	1.051533	-0.412724
C44	C	1.946477	1.551533	0.087276
C45	C	1.463861	0.957332	-0.395277
C46	C	1.963861	1.457332	0.104723
C47	C	1.410876	0.910185	-0.448183
C48	C	1.910876	1.410185	0.051817
C49	C	1.340503	0.957249	-0.518538
C50	C	1.840503	1.457249	-0.018538
C51	C	1.323112	1.051459	-0.535982
C52	C	1.823112	1.551459	-0.035982
C53	C	1.287511	0.910111	-0.571440
C54	C	1.787511	1.410111	-0.071440
C55	C	1.217138	0.957175	-0.641795
C56	C	1.717138	1.457175	-0.141795
C57	C	1.199750	1.051376	-0.659236
C58	C	1.699750	1.551376	-0.159236
C59	C	1.252735	1.098523	-0.606331
C60	C	1.752735	1.598523	-0.106331
C61	C	1.304903	0.815901	-0.553997
C62	C	1.804903	1.315901	-0.053997
C63	C	1.181538	0.815827	-0.677254
C64	C	1.681538	1.315827	-0.177254
C65	C	1.164154	0.910028	-0.694701
C66	C	1.664154	1.410028	-0.194701
C67	C	0.759753	0.434146	-0.545040
C68	C	1.259753	0.934146	-0.045040
C69	C	0.868986	0.434141	-0.545022
C70	C	1.368986	0.934141	-0.045022
C71	C	1.565468	0.434151	-0.545047
C72	C	2.065468	0.934151	-0.045047
C73	C	1.672681	0.434156	-0.545057
C74	C	2.172681	0.934156	-0.045057
C75	C	1.314123	0.433872	-0.796566
C76	C	1.814123	0.933872	-0.296566
C77	C	1.314227	0.433759	-0.903759
C78	C	1.814227	0.933759	-0.403759
C79	C	1.357524	1.198859	-0.501565
C80	C	1.857524	1.698859	-0.001565
C81	C	1.376100	1.098597	-0.483073
C82	C	1.876100	1.598597	0.016927
C83	C	1.313701	0.434338	-0.294444
C84	C	1.813701	0.934338	0.205556
C85	C	1.313831	0.434197	-0.187204
C86	C	1.813831	0.934197	0.312796
C87	C	1.313954	0.434068	-0.100111
C88	C	1.813954	0.934068	0.399889
C89	C	1.314108	0.433899	0.009152
C90	C	1.814108	0.933899	0.509152
H91	H	1.362201	0.777590	-0.496713
H92	H	1.862201	1.277590	0.003287
H93	H	1.138392	0.777441	-0.720333
H94	H	1.638392	1.277441	-0.220333
H95	H	1.238586	1.175229	-0.620534
H96	H	1.738586	1.675229	-0.120534
H97	H	1.106855	0.948361	-0.751985
H98	H	1.606855	1.448361	-0.251985
N99	N	1.428642	0.813962	-0.430349
N100	N	1.928642	1.313962	0.069651
N101	N	1.491477	0.771952	-0.367532
N102	N	1.991477	1.271952	0.132468
H103	H	1.504030	0.703990	-0.354935
H104	H	2.004030	1.203990	0.145065
N105	N	1.535739	0.909275	-0.323410
N106	N	2.035739	1.409275	0.176590
N107	N	1.583040	0.951376	-0.276178
N108	N	2.083040	1.451376	0.223822
H109	H	1.633809	0.917436	-0.225418
H110	H	2.133809	1.417436	0.274582
H111	H	1.142436	1.089693	-0.716513
H112	H	1.642436	1.589693	-0.216513
H113	H	1.489603	1.089928	-0.369650
H114	H	1.989603	1.589928	0.130350
