data_functionalizedCrystal
_audit_creation_method	'MofGen! by Chris Wilmer'
_symmetry_space_group_name_H-M	'P1'
_symmetry_Int_Tables_number	1
_symmetry_cell_setting	triclinic
loop_
_symmetry_equiv_pos_as_xyz
  x,y,z
_cell_length_a	12.759401
_cell_length_b	12.645330
_cell_length_c	12.759393
_cell_angle_alpha	89.971026
_cell_angle_beta	89.979062
_cell_angle_gamma	90.019217
loop_
_atom_site_label
_atom_site_type_symbol
_atom_site_fract_x
_atom_site_fract_y
_atom_site_fract_z
Zn1	Zn	1.606245	-0.421945	-0.594031
Zn2	Zn	1.606126	-0.599246	-0.418356
Zn3	Zn	1.430543	-0.422001	-0.418366
Zn4	Zn	1.430526	-0.599172	-0.593993
O5	O	1.518360	-0.510591	-0.506187
O6	O	1.753250	-0.445472	-0.570739
O7	O	1.582793	-0.575788	-0.271336
O8	O	1.453907	-0.273647	-0.441689
O9	O	1.753163	-0.575734	-0.441671
O10	O	1.582994	-0.273605	-0.570749
O11	O	1.453793	-0.445568	-0.271344
O12	O	1.283520	-0.445496	-0.441652
O13	O	1.453878	-0.575607	-0.741019
O14	O	1.283507	-0.575662	-0.570684
O15	O	1.582977	-0.445400	-0.741047
O16	O	1.582776	-0.747583	-0.441634
O17	O	1.453763	-0.747529	-0.570674
C18	C	1.245393	-0.510578	-0.506166
C19	C	1.128616	-0.510598	-0.506182
C20	C	1.518283	-0.786021	-0.506172
C21	C	1.518347	-0.903851	-0.506201
C22	C	1.073775	-0.578479	-0.573263
C23	C	0.964051	-0.578483	-0.573284
C24	C	0.964019	-0.442722	-0.439133
C25	C	1.073741	-0.442714	-0.439118
C26	C	1.437519	-1.071424	-0.587630
C27	C	1.437106	-0.948865	-0.587368
C28	C	1.488371	-0.948453	-0.395479
C29	C	1.487878	-1.071052	-0.395973
C30	C	1.629644	-1.070935	-0.534596
C31	C	1.628962	-0.948328	-0.537017
C32	C	1.792393	-0.510605	-0.506208
C33	C	1.909170	-0.510610	-0.506217
C34	C	1.518439	-0.510489	-0.780220
C35	C	1.518472	-0.510446	-0.896997
C36	C	1.518466	-0.234086	-0.506224
C37	C	1.518511	-0.116255	-0.506241
C38	C	1.585699	-0.442636	-0.951875
C39	C	1.585717	-0.442590	-1.061599
C40	C	1.451278	-0.578173	-1.061557
C41	C	1.451255	-0.578213	-0.951835
C42	C	1.518342	-0.510616	-0.233219
C43	C	1.518512	-0.510360	-0.116443
H44	H	0.919404	-0.633756	-0.627910
C45	C	1.377297	-0.652801	-0.891456
C46	C	1.422765	-0.736053	-0.816007
C47	C	1.348805	-0.810629	-0.755625
C48	C	1.229376	-0.801954	-0.770691
C49	C	1.183901	-0.718699	-0.846144
C50	C	1.257861	-0.644123	-0.906526
H51	H	1.511179	-0.742478	-0.804851
H52	H	1.382469	-0.872260	-0.699770
H53	H	1.174626	-0.857160	-0.725993
H54	H	1.095487	-0.712275	-0.857300
H55	H	1.224197	-0.582492	-0.962380
H56	H	1.118394	-0.387431	-0.384493
C57	C	0.903653	-0.368062	-0.365357
C58	C	0.782963	-0.368072	-0.365364
C59	C	0.722600	-0.293412	-0.291584
C60	C	0.782927	-0.218742	-0.217796
C61	C	0.903624	-0.218729	-0.217786
C62	C	0.963987	-0.293389	-0.291567
H63	H	0.738299	-0.423349	-0.419989
H64	H	0.633252	-0.293422	-0.291591
H65	H	0.738243	-0.163475	-0.163179
H66	H	0.948288	-0.163452	-0.163162
H67	H	1.053335	-0.293379	-0.291560
C68	C	1.462420	-0.908136	-0.698291
C69	C	1.559260	-0.837793	-0.716599
C70	C	1.584562	-0.797082	-0.827534
C71	C	1.513024	-0.826714	-0.920161
C72	C	1.416178	-0.897060	-0.901856
C73	C	1.390876	-0.937771	-0.790922
H74	H	1.612222	-0.815855	-0.648028
H75	H	1.656255	-0.745007	-0.841084
H76	H	1.531754	-0.796577	-1.002282
H77	H	1.363216	-0.918998	-0.970427
H78	H	1.319183	-0.989846	-0.777372
C79	C	1.462623	-1.111146	-0.698909
C80	C	1.462955	-1.230597	-0.722330
C81	C	1.488066	-1.270325	-0.833612
C82	C	1.512846	-1.190602	-0.921471
C83	C	1.512516	-1.071144	-0.898052
C84	C	1.487404	-1.031415	-0.786771
H85	H	1.444611	-1.289619	-0.657289
H86	H	1.488311	-1.358757	-0.850947
H87	H	1.531435	-1.220011	-1.003848
H88	H	1.530860	-1.012121	-0.963094
H89	H	1.487160	-0.942984	-0.769435
C90	C	1.377350	-0.652723	-1.121882
C91	C	1.377375	-0.652688	-1.242572
C92	C	1.303448	-0.727242	-1.302894
C93	C	1.229497	-0.801831	-1.242526
C94	C	1.229469	-0.801868	-1.121829
C95	C	1.303396	-0.727314	-1.061507
H96	H	1.432121	-0.597471	-1.287266
H97	H	1.303469	-0.727214	-1.392242
H98	H	1.174772	-0.857020	-1.287180
H99	H	1.174724	-0.857085	-1.077135
H100	H	1.303375	-0.727342	-0.972159
C101	C	1.326909	-1.113171	-0.562587
C102	C	1.309880	-1.187719	-0.468637
C103	C	1.199272	-1.229471	-0.443593
C104	C	1.105693	-1.196675	-0.512499
C105	C	1.122719	-1.122123	-0.606456
C106	C	1.233327	-1.080371	-0.631500
H107	H	1.379156	-1.212000	-0.417622
H108	H	1.186669	-1.284659	-0.374039
H109	H	1.023815	-1.227582	-0.493960
H110	H	1.053444	-1.097842	-0.657470
H111	H	1.245931	-1.025183	-0.701053
H112	H	1.640459	-0.387371	-1.106276
C113	C	1.325807	-0.909364	-0.561986
C114	C	1.237026	-0.989375	-0.541885
C115	C	1.125722	-0.949875	-0.516500
C116	C	1.103199	-0.830364	-0.511215
C117	C	1.191981	-0.750346	-0.531317
C118	C	1.303285	-0.789846	-0.556702
H119	H	1.253698	-1.077850	-0.545797
H120	H	1.060000	-1.009110	-0.501619
H121	H	1.020805	-0.801124	-0.492424
H122	H	1.175310	-0.661871	-0.527406
H123	H	1.369008	-0.730611	-0.571583
H124	H	1.406639	-1.099747	-0.371952
C125	C	1.565528	-0.909068	-0.311309
C126	C	1.656869	-0.835772	-0.342210
C127	C	1.734027	-0.796385	-0.258042
C128	C	1.719843	-0.830293	-0.142973
C129	C	1.628497	-0.903593	-0.112066
C130	C	1.551340	-0.942980	-0.196234
H131	H	1.667373	-0.810667	-0.427396
H132	H	1.801647	-0.742123	-0.280922
H133	H	1.776960	-0.801136	-0.080666
H134	H	1.617994	-0.928698	-0.026879
H135	H	1.483720	-0.997242	-0.173354
C136	C	1.666589	-1.112584	-0.641816
C137	C	1.679658	-1.232313	-0.659493
C138	C	1.716590	-1.273963	-0.766717
C139	C	1.740453	-1.195884	-0.856264
C140	C	1.727384	-1.076148	-0.838590
C141	C	1.690452	-1.034498	-0.731366
H142	H	1.661993	-1.290118	-0.593202
H143	H	1.726264	-1.362600	-0.779800
H144	H	1.767792	-1.226716	-0.935637
H145	H	1.745049	-1.018343	-0.904880
H146	H	1.680777	-0.945861	-0.718283
H147	H	1.118451	-0.633752	-0.627873
H148	H	1.544308	-1.100712	-0.333264
C149	C	1.714748	-0.906931	-0.462729
C150	C	1.806815	-0.841753	-0.506626
C151	C	1.892582	-0.800357	-0.432311
C152	C	1.886282	-0.824139	-0.314097
C153	C	1.794211	-0.889320	-0.270194
C154	C	1.708444	-0.930716	-0.344510
H155	H	1.811482	-0.824146	-0.594140
H156	H	1.960739	-0.752106	-0.464811
H157	H	1.949772	-0.793495	-0.259084
H158	H	1.789544	-0.906927	-0.182680
H159	H	1.640287	-0.978967	-0.312009
H160	H	1.407979	-0.917846	-0.371023
H161	H	1.651567	-0.919171	-0.618502
H162	H	1.689984	-1.099926	-0.475316
H163	H	1.640429	-0.387452	-0.907229
