data_functionalizedCrystal
_audit_creation_method	'MofGen! by Chris Wilmer'
_symmetry_space_group_name_H-M	'P1'
_symmetry_Int_Tables_number	1
_symmetry_cell_setting	triclinic
loop_
_symmetry_equiv_pos_as_xyz
  x,y,z
_cell_length_a	14.908571
_cell_length_b	18.050589
_cell_length_c	14.909241
_cell_angle_alpha	93.322478
_cell_angle_beta	96.789245
_cell_angle_gamma	86.724558
loop_
_atom_site_label
_atom_site_type_symbol
_atom_site_fract_x
_atom_site_fract_y
_atom_site_fract_z
Zn1	Zn	1.413308	-0.334777	0.591538
Zn2	Zn	1.404449	-0.465749	0.440176
Zn3	Zn	1.253204	-0.334795	0.431470
Zn4	Zn	1.261888	-0.452143	0.582777
O5	O	1.333212	-0.396866	0.511490
O6	O	1.538799	-0.357838	0.578770
O7	O	1.377044	-0.454079	0.312353
O8	O	1.274515	-0.230871	0.452726
O9	O	1.532290	-0.454062	0.467565
O10	O	1.392143	-0.230858	0.570328
O11	O	1.265925	-0.357868	0.305956
O12	O	1.127690	-0.344675	0.444231
O13	O	1.289316	-0.430872	0.710608
O14	O	1.134070	-0.430890	0.555396
O15	O	1.400563	-0.344644	0.717045
O16	O	1.385465	-0.567866	0.459070
O17	O	1.280726	-0.557870	0.563838
C18	C	1.098037	-0.386308	0.497918
C19	C	0.997429	-0.381809	0.492134
C20	C	0.815059	-0.463283	0.596864
C21	C	0.720529	-0.459057	0.591432
C22	C	0.713838	-0.369128	0.475843
C23	C	0.808368	-0.373354	0.481275
C24	C	0.858975	-0.420434	0.541787
C25	C	0.953506	-0.424663	0.547214
C26	C	0.946813	-0.334730	0.431629
C27	C	0.852284	-0.330505	0.426197
C28	C	1.333102	-0.589814	0.511469
C29	C	1.333139	-0.672360	0.511495
C30	C	1.276241	-0.866405	0.568450
C31	C	1.249408	-0.918557	0.484582
C32	C	1.333229	-0.823494	0.511512
C33	C	1.360107	-0.918425	0.595392
C34	C	1.333314	-0.969482	0.511536
C35	C	1.306350	-0.874559	0.427598
C36	C	1.417091	-0.874422	0.538465
C37	C	1.390286	-0.926555	0.454542
C38	C	1.333178	-0.739394	0.511500
C39	C	1.333365	-1.053581	0.511539
C40	C	1.569306	-0.407465	0.525116
C41	C	1.669915	-0.411982	0.530922
C42	C	1.346897	-0.386238	0.747588
C43	C	1.352728	-0.381710	0.848199
C44	C	1.333349	-0.203165	0.511533
C45	C	1.333407	-0.120621	0.511551
C46	C	1.319633	-0.407401	0.276314
C47	C	1.313977	-0.411728	0.175714
C48	C	1.247847	-0.463006	1.030557
C49	C	1.253323	-0.458753	1.125090
C50	C	1.369161	-0.368955	1.131799
C51	C	1.363685	-0.373208	1.037267
C52	C	1.303024	-0.420234	0.986649
C53	C	1.297544	-0.424483	0.892114
C54	C	1.413386	-0.334690	0.898825
C55	C	1.418863	-0.330437	0.993358
H56	H	0.811066	-0.292172	0.376933
N57	N	1.196956	-0.502429	1.169955
N58	N	1.201849	-0.498624	1.254359
H59	H	1.162039	-0.529472	1.286047
N60	N	1.431126	-0.320939	1.183527
N61	N	1.436012	-0.317158	1.267930
H62	H	1.479778	-0.283248	1.304465
N63	N	1.505985	-0.849959	0.567105
N64	N	1.519428	-0.806798	0.635431
H65	H	1.582210	-0.789519	0.655670
N66	N	1.215704	-0.833486	0.628773
N67	N	1.227798	-0.846838	0.710777
H68	H	1.185044	-0.823587	0.753377
N69	N	1.160492	-0.943007	0.455996
N70	N	1.146446	-1.010815	0.450793
H71	H	1.083648	-1.028081	0.430608
H72	H	1.283569	-0.855288	0.356647
N73	N	1.388571	-0.942711	0.684370
N74	N	1.344332	-0.921761	0.748220
H75	H	1.364427	-0.938911	0.811062
H76	H	1.248142	-0.462766	0.850901
H77	H	1.438513	-0.952655	0.406342
H78	H	0.684777	-0.493948	0.636284
H79	H	0.982580	-0.299841	0.386779
N80	N	1.480814	-0.282389	1.045052
N81	N	1.530068	-0.244198	1.005833
H82	H	1.573820	-0.210259	1.042339
N83	N	1.005189	-0.472760	0.609021
N84	N	0.965962	-0.511014	0.658191
H85	H	1.002459	-0.544984	0.701846
N86	N	0.866744	-0.511384	0.658664
N87	N	0.827521	-0.549647	0.707829
H88	H	0.864022	-0.583621	0.751476
H89	H	1.198438	-0.501282	0.989342
N90	N	1.469738	-0.290993	0.853959
N91	N	1.464835	-0.294789	0.769555
H92	H	1.504627	-0.263926	0.737866
H93	H	0.672617	-0.330793	0.426583
