data_functionalizedCrystal
_audit_creation_method	'MofGen! by Chris Wilmer'
_symmetry_space_group_name_H-M	'P1'
_symmetry_Int_Tables_number	1
_symmetry_cell_setting	triclinic
loop_
_symmetry_equiv_pos_as_xyz
  x,y,z
_cell_length_a	17.077404
_cell_length_b	10.686285
_cell_length_c	17.077396
_cell_angle_alpha	85.608118
_cell_angle_beta	89.980499
_cell_angle_gamma	85.631810
loop_
_atom_site_label
_atom_site_type_symbol
_atom_site_fract_x
_atom_site_fract_y
_atom_site_fract_z
Zn1	Zn	1.224115	-0.502339	-0.419935
Zn2	Zn	1.234129	-0.713359	-0.278625
Zn3	Zn	1.092848	-0.502383	-0.288680
Zn4	Zn	1.102918	-0.713284	-0.409853
O5	O	1.163502	-0.607841	-0.349273
O6	O	1.335290	-0.530344	-0.401201
O7	O	1.215364	-0.685422	-0.170110
O8	O	1.101856	-0.325802	-0.314519
O9	O	1.342648	-0.685379	-0.297382
O10	O	1.198297	-0.325769	-0.410951
O11	O	1.111566	-0.530419	-0.177497
O12	O	0.984337	-0.530347	-0.304743
O13	O	1.119018	-0.685252	-0.521039
O14	O	0.991734	-0.685295	-0.393768
O15	O	1.208061	-0.530271	-0.528447
O16	O	1.225128	-0.889924	-0.287606
O17	O	1.128728	-0.889869	-0.384018
C18	C	0.959553	-0.607818	-0.349253
C19	C	0.872305	-0.607839	-0.349261
C20	C	0.835193	-0.688642	-0.395530
C21	C	0.753212	-0.688645	-0.395542
C22	C	0.708346	-0.607850	-0.349281
C23	C	0.745463	-0.527038	-0.303011
C24	C	0.827441	-0.527030	-0.303003
C25	C	0.574594	-0.527063	-0.303028
C26	C	0.492610	-0.527072	-0.303035
C27	C	0.500365	-0.688678	-0.395568
C28	C	0.582344	-0.688670	-0.395560
C29	C	0.619455	-0.607859	-0.349288
C30	C	1.179129	-0.935681	-0.333644
C31	C	1.185885	-1.075932	-0.326983
C32	C	1.368248	-0.607865	-0.349294
C33	C	1.455498	-0.607875	-0.349303
C34	C	1.163545	-0.607748	-0.554022
C35	C	1.163564	-0.607709	-0.641274
C36	C	1.147836	-0.278722	-0.364981
C37	C	1.141160	-0.138470	-0.371675
C38	C	1.209930	-0.527004	-0.686123
C39	C	1.209937	-0.526962	-0.768105
C40	C	1.163582	-0.607632	-0.805237
C41	C	1.117211	-0.688341	-0.760382
C42	C	1.117200	-0.688375	-0.678402
C43	C	1.117239	-0.688265	-0.931256
C44	C	1.117251	-0.688232	-1.013242
C45	C	1.209976	-0.526851	-1.020959
C46	C	1.209965	-0.526886	-0.938979
C47	C	1.163595	-0.607596	-0.894130
C48	C	1.163500	-0.607843	-0.145325
C49	C	1.163617	-0.607527	-0.058091
H50	H	0.871718	-0.754439	-0.433198
O51	O	1.237750	-1.139862	-0.275184
C52	C	1.336781	-1.126202	-0.176366
C53	C	1.278066	-1.053646	-0.234981
H54	H	1.369404	-1.056528	-0.143858
H55	H	1.303743	-1.187954	-0.132332
H56	H	1.380704	-1.187852	-0.209560
H57	H	1.234128	-0.991927	-0.201853
H58	H	1.311156	-0.991973	-0.279013
O59	O	0.863371	-0.448505	-0.257980
C60	C	0.847030	-0.288173	-0.166230
C61	C	0.806242	-0.377063	-0.217167
H62	H	0.800859	-0.230370	-0.133231
H63	H	0.888126	-0.345959	-0.122316
H64	H	0.882309	-0.222317	-0.205483
H65	H	0.770922	-0.442936	-0.177976
H66	H	0.765192	-0.319197	-0.261087
O67	O	1.072299	-0.766837	-0.796480
C68	C	1.069855	-0.937106	-0.880942
C69	C	1.120811	-0.848304	-0.840094
H70	H	1.109055	-1.002976	-0.916227
H71	H	1.036730	-0.994886	-0.834834
H72	H	1.026043	-0.879125	-0.922049
H73	H	1.164666	-0.906187	-0.798991
H74	H	1.153881	-0.790520	-0.886244
H75	H	1.097701	-1.084717	-0.415034
O76	O	1.254980	-0.448520	-0.650183
C77	C	1.346982	-0.288496	-0.666497
C78	C	1.295988	-0.377299	-0.707297
H79	H	1.380164	-0.230910	-0.712654
H80	H	1.307831	-0.222445	-0.631285
H81	H	1.390748	-0.346468	-0.625336
H82	H	1.252216	-0.319429	-0.748496
H83	H	1.335188	-0.443354	-0.742459
O84	O	1.254856	-0.448419	-0.811707
C85	C	1.257315	-0.278039	-0.912413
C86	C	1.206352	-0.366905	-0.863078
H87	H	1.218123	-0.212130	-0.953969
H88	H	1.290423	-0.220304	-0.871824
H89	H	1.301143	-0.335968	-0.948008
H90	H	1.162482	-0.309074	-0.827477
H91	H	1.173300	-0.424644	-0.903708
H92	H	1.247716	-0.461204	-0.908748
O93	O	0.464361	-0.767357	-0.440425
C94	C	0.449565	-0.982077	-0.468092
C95	C	0.490386	-0.893115	-0.417233
H96	H	0.470603	-1.083769	-0.449371
H97	H	0.383262	-0.968310	-0.460145
H98	H	0.464649	-0.959993	-0.532458
H99	H	0.475365	-0.915144	-0.352848
H100	H	0.556679	-0.906898	-0.425247
H101	H	1.079503	-0.753918	-1.043473
O102	O	0.717290	-0.767271	-0.440497
C103	C	0.733633	-0.927541	-0.532289
C104	C	0.774415	-0.838572	-0.481403
H105	H	0.779799	-0.985192	-0.565387
H106	H	0.698408	-0.993524	-0.493068
H107	H	0.692488	-0.869695	-0.576129
H108	H	0.815598	-0.896316	-0.437557
H109	H	0.809590	-0.772586	-0.520673
H110	H	0.456080	-0.461267	-0.265375
H111	H	0.618873	-0.754467	-0.433225
H112	H	0.604807	-0.461247	-0.265356
O113	O	1.254938	-0.448471	-1.064642
C114	C	1.296068	-0.376913	-1.194357
C115	C	1.245102	-0.465718	-1.144979
H116	H	1.288146	-0.390846	-1.259318
H117	H	1.277430	-0.275150	-1.183144
H118	H	1.360410	-0.399064	-1.177153
H119	H	1.180747	-0.443681	-1.162154
H120	H	1.263807	-0.567455	-1.156198
O121	O	0.701853	-0.448730	-0.257984
C122	C	0.608390	-0.431535	-0.152885
C123	C	0.657749	-0.520363	-0.203810
H124	H	0.572707	-0.489414	-0.109085
H125	H	0.648962	-0.373797	-0.119756
H126	H	0.566917	-0.365615	-0.192158
H127	H	0.699226	-0.586360	-0.164593
H128	H	0.617130	-0.578013	-0.236946
O129	O	1.072105	-0.766497	-0.887668
C130	C	0.966949	-0.783546	-0.794250
C131	C	1.017987	-0.694796	-0.843581
H132	H	0.923194	-0.725613	-0.758581
H133	H	0.933769	-0.841175	-0.834843
H134	H	1.006144	-0.849571	-0.752763
H135	H	0.978849	-0.628694	-0.885073
H136	H	1.051174	-0.637256	-0.802942
O137	O	1.072262	-0.766963	-0.634854
C138	C	1.044359	-0.981609	-0.599544
C139	C	1.095317	-0.892752	-0.648891
H140	H	1.062969	-1.083326	-0.610887
H141	H	1.052327	-0.967881	-0.534559
H142	H	0.980009	-0.959384	-0.616696
H143	H	1.159686	-0.914922	-0.631807
H144	H	1.087282	-0.906496	-0.713863
