data_functionalizedCrystal
_audit_creation_method	'MofGen! by Chris Wilmer'
_symmetry_space_group_name_H-M	'P1'
_symmetry_Int_Tables_number	1
_symmetry_cell_setting	triclinic
loop_
_symmetry_equiv_pos_as_xyz
  x,y,z
_cell_length_a	11.169417
_cell_length_b	11.169416
_cell_length_c	11.169409
_cell_angle_alpha	89.971970
_cell_angle_beta	90.019824
_cell_angle_gamma	89.986033
loop_
_atom_site_label
_atom_site_type_symbol
_atom_site_fract_x
_atom_site_fract_y
_atom_site_fract_z
Zn1	Zn	1.834939	0.477682	0.678579
Zn2	Zn	2.168273	0.811015	1.011912
Zn3	Zn	2.501606	1.144348	1.345245
Zn4	Zn	1.834819	0.678422	0.477911
Zn5	Zn	2.168152	1.011756	0.811244
Zn6	Zn	2.501486	1.345089	1.144577
Zn7	Zn	1.634225	0.477755	0.477913
Zn8	Zn	1.967559	0.811088	0.811246
Zn9	Zn	2.300892	1.144422	1.144580
Zn10	Zn	1.634223	0.678325	0.678556
Zn11	Zn	1.967556	1.011658	1.011889
Zn12	Zn	2.300890	1.344991	1.345222
O13	O	1.734552	0.578046	0.578239
O14	O	2.067885	0.911379	0.911573
O15	O	2.401218	1.244713	1.244906
O16	O	2.002873	0.504321	0.651968
O17	O	2.336206	0.837654	0.985302
O18	O	2.669540	1.170987	1.318635
O19	O	1.808161	0.651875	0.309961
O20	O	2.141494	0.985208	0.643294
O21	O	2.474827	1.318542	0.976628
O22	O	1.660902	0.309796	0.504542
O23	O	1.994235	0.643129	0.837876
O24	O	2.327568	0.976462	1.171209
O25	O	2.002785	0.651804	0.504538
O26	O	2.336118	0.985137	0.837872
O27	O	2.669451	1.318471	1.171205
O28	O	1.808365	0.309742	0.651971
O29	O	2.141699	0.643075	0.985304
O30	O	2.475032	0.976408	1.318637
O31	O	1.660785	0.504445	0.309963
O32	O	1.994118	0.837779	0.643296
O33	O	2.327452	1.171112	0.976630
O34	O	1.466275	0.504351	0.504520
O35	O	1.799609	0.837684	0.837853
O36	O	2.132942	1.171017	1.171187
O37	O	1.660898	0.651637	0.846508
O38	O	1.994231	0.984971	1.179842
O39	O	2.327565	1.318304	1.513175
O40	O	1.466274	0.651708	0.651931
O41	O	1.799607	0.985042	0.985264
O42	O	2.132940	1.318375	1.318598
O43	O	1.808363	0.504226	0.846525
O44	O	2.141697	0.837559	1.179859
O45	O	2.475030	1.170893	1.513192
O46	O	1.808158	0.846359	0.504516
O47	O	2.141492	1.179692	0.837849
O48	O	2.474825	1.513026	1.171183
O49	O	1.660781	0.846287	0.651929
O50	O	1.994115	1.179621	0.985262
O51	O	2.327448	1.512954	1.318596
C52	C	1.422727	0.578028	0.578224
C53	C	1.756060	0.911361	0.911557
C54	C	2.089394	1.244694	1.244891
C55	C	1.289327	0.578049	0.578246
C56	C	1.622660	0.911382	0.911579
C57	C	1.955994	1.244716	1.244913
C58	C	1.734489	0.889871	0.578246
C59	C	2.067823	1.223204	0.911579
C60	C	2.401156	1.556537	1.244912
C61	C	1.734572	1.023271	0.578289
C62	C	2.067906	1.356604	0.911622
C63	C	2.401239	1.689937	1.244955
C64	C	2.047594	0.578065	0.578256
C65	C	2.380927	0.911398	0.911589
C66	C	2.714261	1.244732	1.244922
C67	C	2.180994	0.578073	0.578263
C68	C	2.514327	0.911407	0.911596
C69	C	2.847661	1.244740	1.244929
C70	C	1.734644	0.577913	0.891282
C71	C	2.067977	0.911246	1.224615
C72	C	2.401311	1.244579	1.557949
C73	C	1.734683	0.577856	1.024682
C74	C	2.068017	0.911189	1.358015
C75	C	2.401350	1.244523	1.691349
C76	C	1.734635	1.265004	0.578272
C77	C	2.067969	1.598337	0.911605
C78	C	2.401302	1.931670	1.244939
C79	C	1.734640	1.131604	0.578317
C80	C	2.067973	1.464937	0.911651
C81	C	2.401307	1.798270	1.244984
C82	C	1.734529	0.578092	0.266415
C83	C	2.067862	0.911425	0.599748
C84	C	2.401196	1.244759	0.933081
C85	C	1.734722	0.577811	0.133015
C86	C	2.068056	0.911144	0.466349
C87	C	2.401389	1.244477	0.799682
