data_functionalizedCrystal
_audit_creation_method	'MofGen! by Chris Wilmer'
_symmetry_space_group_name_H-M	'P1'
_symmetry_Int_Tables_number	1
_symmetry_cell_setting	triclinic
loop_
_symmetry_equiv_pos_as_xyz
  x,y,z
_cell_length_a	15.297475
_cell_length_b	13.897448
_cell_length_c	15.298159
_cell_angle_alpha	80.336326
_cell_angle_beta	88.366721
_cell_angle_gamma	80.320483
loop_
_atom_site_label
_atom_site_type_symbol
_atom_site_fract_x
_atom_site_fract_y
_atom_site_fract_z
Zn1	Zn	1.253282	-0.750942	0.726578
Zn2	Zn	1.278590	-0.889795	0.580102
Zn3	Zn	1.132197	-0.696701	0.554825
Zn4	Zn	1.106787	-0.880349	0.701225
O5	O	1.192714	-0.804447	0.640682
O6	O	1.379214	-0.796014	0.728336
O7	O	1.280396	-0.845433	0.454179
O8	O	1.148302	-0.568928	0.577641
O9	O	1.397808	-0.898028	0.620721
O10	O	1.237263	-0.608779	0.703827
O11	O	1.172842	-0.703568	0.435608
O12	O	1.006251	-0.694409	0.553057
O13	O	1.104994	-0.881930	0.827158
O14	O	0.987583	-0.829335	0.660616
O15	O	1.212624	-0.786855	0.845785
O16	O	1.255757	-1.023509	0.596137
O17	O	1.129534	-1.016570	0.685126
C18	C	0.965135	-0.754962	0.601343
C19	C	0.867772	-0.733819	0.584534
C20	C	0.554600	-0.955568	0.760820
C21	C	0.646077	-0.975440	0.776610
C22	C	0.701505	-0.915036	0.728593
C23	C	0.665447	-0.834757	0.664782
C24	C	0.573961	-0.814888	0.648985
C25	C	0.720866	-0.774356	0.616758
C26	C	0.684808	-0.694078	0.552947
C27	C	0.593330	-0.674212	0.537154
C28	C	0.537902	-0.734615	0.585171
C29	C	0.812352	-0.794226	0.632555
C30	C	0.831713	-0.653546	0.520720
C31	C	0.740236	-0.633674	0.504930
C32	C	1.192654	-1.055043	0.640646
C33	C	1.192704	-1.162271	0.640674
C34	C	1.192787	-1.358595	0.640744
C35	C	1.192738	-1.249346	0.640707
C36	C	1.421182	-0.854125	0.680176
C37	C	1.518541	-0.875295	0.697006
C38	C	1.153151	-0.839389	0.869141
C39	C	1.136292	-0.854279	0.966496
C40	C	1.192794	-0.552880	0.640742
C41	C	1.192829	-0.445677	0.640768
C42	C	1.312925	-0.698260	1.279718
C43	C	1.328770	-0.684272	1.188249
C44	C	1.280652	-0.726772	1.132806
C45	C	1.216686	-0.783263	1.168842
C46	C	1.200843	-0.797258	1.260321
C47	C	1.168571	-0.825771	1.113409
C48	C	1.104604	-0.882262	1.149444
C49	C	1.088765	-0.896254	1.240914
C50	C	1.136883	-0.853754	1.296357
C51	C	1.184413	-0.811776	1.021930
C52	C	1.072332	-0.910775	1.002532
C53	C	1.056486	-0.924762	1.094002
C54	C	1.232113	-0.769656	1.413111
C55	C	1.248964	-0.754755	1.315754
H56	H	0.563976	-0.608852	0.485186
H57	H	0.509464	-1.004745	0.799903
O58	O	1.020403	-0.956582	0.942735
H59	H	0.973262	-0.998214	0.983159
H60	H	0.775990	-0.931220	0.741453
O61	O	0.851243	-0.880792	0.701387
H62	H	0.836291	-0.950343	0.683221
H63	H	0.463412	-0.718438	0.572320
O64	O	0.701346	-0.547112	0.436082
H65	H	0.628425	-0.543459	0.433158
H66	H	0.876843	-0.604362	0.481619
O67	O	1.253403	-0.750853	0.983069
H68	H	1.221439	-0.686883	0.934623
H69	H	1.380854	-0.638280	1.158916
O70	O	1.297730	-0.711680	1.034147
H71	H	1.350286	-0.665250	1.018402
H72	H	1.004404	-0.970757	1.123355
O73	O	1.364797	-0.652394	1.339508
H74	H	1.343022	-0.671603	1.409166
O75	O	1.119787	-0.868842	1.395016
H76	H	1.163994	-0.829796	1.427510
O77	O	0.684970	-1.062011	0.845436
H78	H	0.631060	-1.100669	0.876180
H79	H	1.036686	-0.942262	1.270252
