data_functionalizedCrystal
_audit_creation_method	'MofGen! by Chris Wilmer'
_symmetry_space_group_name_H-M	'P1'
_symmetry_Int_Tables_number	1
_symmetry_cell_setting	triclinic
loop_
_symmetry_equiv_pos_as_xyz
  x,y,z
_cell_length_a	18.878441
_cell_length_b	14.560438
_cell_length_c	14.560438
_cell_angle_alpha	90.000844
_cell_angle_beta	59.999585
_cell_angle_gamma	60.002360
loop_
_atom_site_label
_atom_site_type_symbol
_atom_site_fract_x
_atom_site_fract_y
_atom_site_fract_z
Zr1	Zr	0.775356	-0.120507	0.884739
O2	O	0.923129	-0.267148	0.738090
O3	O	0.627579	-0.075557	0.929697
O4	O	0.775354	-0.267154	0.929694
O5	O	0.775356	0.075587	0.738094
O6	O	0.775356	-0.267155	1.080832
O7	O	0.775354	-0.075551	0.738093
O8	O	0.511014	0.075576	1.080838
O9	O	1.039698	-0.267145	0.738088
O10	O	0.688364	-0.056384	1.061662
O11	O	0.688364	0.056410	0.948869
O12	O	0.862350	-0.169170	0.948865
O13	O	0.862350	-0.056377	0.836073
Zr14	Zr	0.775362	0.120539	1.125789
Zr15	Zr	0.775359	-0.120509	1.125787
Zr16	Zr	0.775359	0.120541	0.884741
Zr17	Zr	0.961270	-0.120502	0.884736
Zr18	Zr	0.589447	0.120533	1.125792
O19	O	0.923138	0.075589	1.080831
O20	O	0.923133	-0.267151	1.080829
O21	O	0.923133	0.075591	0.738092
O22	O	0.627588	0.267180	1.272438
O23	O	0.627584	-0.075560	1.272436
O24	O	0.627584	0.267182	0.929699
O25	O	0.775361	-0.075555	1.272434
O26	O	0.775363	0.267185	1.080835
O27	O	0.775361	0.267187	0.929696
O28	O	0.775363	0.075583	1.272435
O29	O	1.039701	-0.267146	0.929689
O30	O	0.511017	0.267178	1.080839
O31	O	0.511019	0.267176	1.272440
O32	O	0.511017	0.075575	1.272439
O33	O	1.039701	-0.075544	0.738089
O34	O	1.039703	-0.075545	0.929690
O35	O	0.688367	0.169202	1.061663
O36	O	0.688367	0.056408	1.174455
O37	O	0.862353	-0.056378	1.061659
O38	O	0.862353	0.056415	0.948867
C39	C	0.542808	0.000009	1.005268
C40	C	0.463882	0.000006	1.005269
C41	C	0.775355	0.000018	0.703750
C42	C	0.775353	0.000019	0.601418
C43	C	0.775363	0.301530	1.005266
C44	C	0.775364	0.403861	1.005266
C45	C	0.426803	-0.058872	1.064143
C46	C	0.352639	-0.058863	1.064147
C47	C	0.315560	0.000018	1.005270
C48	C	0.352643	0.058903	0.946395
C49	C	0.426800	0.058901	0.946398
C50	C	0.198076	0.058902	0.946390
C51	C	0.123914	0.058903	0.946385
C52	C	0.123914	-0.058862	1.064140
C53	C	0.198072	-0.058864	1.064143
C54	C	0.235151	0.000020	1.005265
C55	C	1.007909	0.000023	1.005260
C56	C	1.086835	0.000025	1.005259
C57	C	0.775355	-0.301499	1.005262
C58	C	0.775353	-0.403830	1.005262
C59	C	0.866181	0.393066	0.946389
C60	C	0.866176	0.489221	0.946384
C61	C	0.684529	0.606963	1.064141
C62	C	0.684535	0.510809	1.064139
C63	C	0.684536	0.058888	0.612219
C64	C	0.684541	0.058889	0.516064
C65	C	0.866188	-0.058858	0.398312
C66	C	0.866182	-0.058852	0.494466
C67	C	0.775363	0.000014	1.306778
C68	C	0.775364	0.000013	1.409110
C69	C	0.542812	0.000007	1.306782
C70	C	0.463888	0.000003	1.409115
C71	C	0.542812	0.301523	1.005269
C72	C	0.463888	0.403852	1.005271
C73	C	0.542816	0.301521	1.306784
C74	C	0.463893	0.403849	1.409117
C75	C	1.007902	-0.301489	0.703744
C76	C	1.086825	-0.403818	0.601411
C77	C	1.007906	0.000025	0.703746
C78	C	1.086830	0.000028	0.601413
C79	C	1.007906	-0.301492	1.005259
C80	C	1.086830	-0.403821	1.005257
C81	C	0.426822	-0.058884	1.398294
C82	C	0.352675	-0.058910	1.494437
C83	C	0.315589	-0.000040	1.601400
C84	C	0.352661	0.058849	1.612218
C85	C	0.426813	0.058868	1.516076
C86	C	0.426825	0.510793	1.064149
C87	C	0.352678	0.606951	1.064147
C88	C	0.315589	0.596166	1.005272
C89	C	0.352659	0.489213	0.946387
C90	C	0.426810	0.393058	0.946384
C91	C	0.426830	0.393026	1.516060
C92	C	0.352684	0.489165	1.612222
C93	C	0.315597	0.596126	1.601438
C94	C	0.352667	0.606946	1.494484
C95	C	0.426817	0.510809	1.398324
C96	C	1.123897	-0.392995	0.494468
C97	C	1.198066	-0.489134	0.398306
C98	C	1.235157	-0.596094	0.409090
C99	C	1.198081	-0.606915	0.516044
C100	C	1.123919	-0.510777	0.612204
C101	C	1.123903	0.058906	0.612234
C102	C	1.198071	0.058905	0.516091
C103	C	1.235159	0.000032	0.409128
C104	C	1.198083	-0.058853	0.398310
C105	C	1.123922	-0.058858	0.494452
C106	C	1.123895	-0.392999	1.064143
C107	C	1.198043	-0.489139	1.064163
C108	C	1.235129	-0.596099	1.005290
C109	C	1.198057	-0.606918	0.946402
C110	C	1.123905	-0.510780	0.946389
H111	H	0.456992	-0.106825	1.112082
Cl112	Cl	0.570355	0.524382	1.138154
Cl113	Cl	0.222376	0.716976	1.722337
Cl114	Cl	0.306031	0.741420	1.480946
H115	H	0.457017	-0.106837	1.311209
H116	H	0.322508	0.480335	1.699300
Cl117	Cl	1.328389	-0.716944	0.288191
Cl118	Cl	1.077318	-0.132875	0.480829
H119	H	1.093701	-0.305911	0.485666
Cl120	Cl	1.244717	-0.741389	0.529582
H121	H	0.255209	-0.000063	1.679676
Cl122	Cl	0.306081	-0.132943	1.480811
H123	H	1.093711	-0.305915	1.112084
H124	H	0.457015	0.305942	1.524862
H125	H	1.228220	-0.480307	1.112115
Cl126	Cl	0.473395	0.524434	1.263885
H127	H	0.322448	-0.106805	1.112088
Cl128	Cl	0.980366	-0.132866	0.263855
Cl129	Cl	0.306016	0.132943	0.872395
H130	H	1.228240	-0.480301	0.311229
Cl131	Cl	1.328390	0.000052	0.288274
Cl132	Cl	0.980352	0.475643	0.872351
Cl133	Cl	1.328353	-0.716949	1.005314
H134	H	0.093720	-0.106807	1.112080
H135	H	0.610580	0.694050	1.112075
Cl136	Cl	1.244699	-0.741391	0.872383
H137	H	1.093735	-0.519603	0.699279
Cl138	Cl	1.077327	-0.524404	0.872341
H139	H	0.610578	0.106837	0.699300
Cl140	Cl	0.077301	0.132928	0.872369
Cl141	Cl	0.244688	0.132929	0.872371
Cl142	Cl	0.244692	-0.132898	1.138150
Cl143	Cl	0.306024	0.132858	1.746694
H144	H	0.456992	0.106842	0.898453
Cl145	Cl	0.980365	0.258621	0.872373
Cl146	Cl	0.570365	0.132905	0.529648
Cl147	Cl	0.473387	0.258621	0.872365
Cl148	Cl	0.980362	-0.132858	0.480887
Cl149	Cl	1.077298	0.132921	0.746690
Cl150	Cl	0.222368	0.717060	1.005290
Cl151	Cl	0.473393	0.132915	1.529699
H152	H	1.228245	0.106860	0.524921
H153	H	1.228292	-0.106786	0.311208
H154	H	0.457015	0.519596	1.112092
Cl155	Cl	0.306088	0.741391	1.138184
H156	H	0.322450	0.480448	0.898453
