data_functionalizedCrystal
_audit_creation_method	'MofGen! by Chris Wilmer'
_symmetry_space_group_name_H-M	'P1'
_symmetry_Int_Tables_number	1
_symmetry_cell_setting	triclinic
loop_
_symmetry_equiv_pos_as_xyz
  x,y,z
_cell_length_a	17.038272
_cell_length_b	14.971486
_cell_length_c	13.448316
_cell_angle_alpha	90.006811
_cell_angle_beta	90.000953
_cell_angle_gamma	87.362843
loop_
_atom_site_label
_atom_site_type_symbol
_atom_site_fract_x
_atom_site_fract_y
_atom_site_fract_z
O1	O	-1.037595	-0.194251	-0.082569
O2	O	-0.704262	0.139083	0.250765
O3	O	-0.370929	0.472416	0.584098
O4	O	-0.809961	-0.191166	-0.082598
O5	O	-0.476628	0.142167	0.250736
O6	O	-0.143294	0.475501	0.584069
O7	O	-0.929879	-0.062965	-0.082575
O8	O	-0.596546	0.270368	0.250758
O9	O	-0.263213	0.603702	0.584091
O10	O	-0.917677	-0.322452	-0.082591
O11	O	-0.584344	0.010882	0.250742
O12	O	-0.251010	0.344215	0.584076
O13	O	-0.929864	-0.062955	0.082808
O14	O	-0.596531	0.270378	0.416142
O15	O	-0.263198	0.603711	0.749475
O16	O	-0.809946	-0.191157	0.082786
O17	O	-0.476613	0.142177	0.416119
O18	O	-0.143279	0.475510	0.749453
O19	O	-1.037580	-0.194241	0.082815
O20	O	-0.704247	0.139092	0.416149
O21	O	-0.370914	0.472426	0.749482
Cu22	Cu	-0.923762	-0.192698	0.097901
Cu23	Cu	-0.590428	0.140635	0.431235
Cu24	Cu	-0.257095	0.473969	0.764568
Cu25	Cu	-0.923779	-0.192709	-0.097684
Cu26	Cu	-0.590446	0.140624	0.235649
Cu27	Cu	-0.257113	0.473957	0.568983
O28	O	-0.917662	-0.322442	0.082793
O29	O	-0.584329	0.010891	0.416126
O30	O	-0.250995	0.344225	0.749459
C31	C	-0.780822	-0.188356	0.000090
C32	C	-0.447489	0.144977	0.333424
C33	C	-0.114155	0.478311	0.666757
C34	C	-0.694019	-0.179986	0.000079
C35	C	-0.360686	0.153347	0.333413
C36	C	-0.027353	0.486680	0.666746
C37	C	-0.929326	-0.029595	0.000116
C38	C	-0.595993	0.303739	0.333450
C39	C	-0.262659	0.637072	0.666783
C40	C	-0.927691	0.069825	0.000115
C41	C	-0.594357	0.403158	0.333448
C42	C	-0.261024	0.736491	0.666782
C43	C	-1.066719	-0.197051	0.000125
C44	C	-0.733386	0.136282	0.333458
C45	C	-0.400053	0.469616	0.666791
C46	C	-1.153522	-0.205421	0.000129
C47	C	-0.820189	0.127913	0.333463
C48	C	-0.486855	0.461246	0.666796
C49	C	-0.643995	-0.256830	0.000076
C50	C	-0.310661	0.076503	0.333409
C51	C	0.022672	0.409837	0.666742
C52	C	-0.562435	-0.248961	0.000090
C53	C	-0.229101	0.084373	0.333423
C54	C	0.104232	0.417706	0.666756
C55	C	-0.530901	-0.164246	0.000101
C56	C	-0.197568	0.169087	0.333434
C57	C	0.135765	0.502420	0.666767
C58	C	-0.580933	-0.087397	0.000108
C59	C	-0.247599	0.245937	0.333441
C60	C	0.085734	0.579270	0.666774
C61	C	-0.662491	-0.095267	0.000101
C62	C	-0.329157	0.238066	0.333434
C63	C	0.004176	0.571399	0.666767
C64	C	-0.285111	-0.136442	0.000129
C65	C	0.048222	0.196892	0.333462
C66	C	0.381556	0.530225	0.666796
C67	C	-0.203547	-0.128577	0.000133
C68	C	0.129787	0.204756	0.333466
C69	C	0.463120	0.538090	0.666800
C70	C	-0.185054	-0.290142	0.000117
C71	C	0.148279	0.043192	0.333450
C72	C	0.481612	0.376525	0.666784
C73	C	-0.266615	-0.298005	0.000104
C74	C	0.066718	0.035329	0.333437
C75	C	0.400052	0.368662	0.666771
C76	C	-0.316639	-0.221155	0.000116
C77	C	0.016694	0.112178	0.333450
C78	C	0.350028	0.445512	0.666783
C79	C	-0.447535	-0.156200	0.000112
C80	C	-0.114201	0.177133	0.333445
C81	C	0.219132	0.510466	0.666779
C82	C	-0.400004	-0.229202	0.000112
C83	C	-0.066671	0.104132	0.333445
C84	C	0.266662	0.437465	0.666779
C85	C	-0.918215	-0.355812	0.000099
C86	C	-0.584882	-0.022479	0.333432
C87	C	-0.251548	0.310854	0.666766
C88	C	-0.919850	-0.455232	0.000094
C89	C	-0.586517	-0.121899	0.333427
C90	C	-0.253184	0.211435	0.666760
N91	N	-0.923755	-0.192690	0.235466
N92	N	-0.590421	0.140644	0.568799
N93	N	-0.257088	0.473977	0.902132
C94	C	-0.998140	0.121776	0.000125
C95	C	-0.664806	0.455109	0.333458
C96	C	-0.331473	0.788442	0.666792
C97	C	-0.996598	0.215190	0.000115
C98	C	-0.663265	0.548524	0.333448
C99	C	-0.329932	0.881857	0.666781
C100	C	-0.924607	0.256653	0.000102
C101	C	-0.591274	0.589986	0.333435
C102	C	-0.257941	0.923319	0.666768
C103	C	-0.854153	0.204695	0.000089
C104	C	-0.520820	0.538028	0.333422
C105	C	-0.187487	0.871362	0.666756
C106	C	-0.855695	0.111282	0.000092
C107	C	-0.522362	0.444615	0.333426
C108	C	-0.189029	0.777949	0.666759
C109	C	-0.850944	0.399398	0.000085
C110	C	-0.517611	0.732731	0.333418
C111	C	-0.184277	1.066065	0.666752
C112	C	-0.849402	0.492817	0.000084
C113	C	-0.516068	0.826151	0.333417
C114	C	-0.182735	1.159484	0.666751
C115	C	-0.991847	0.503306	0.000108
C116	C	-0.658514	0.836640	0.333441
C117	C	-0.325180	1.169973	0.666774
C118	C	-0.993389	0.409893	0.000111
C119	C	-0.660056	0.743227	0.333444
C120	C	-0.326722	1.076560	0.666777
C121	C	-0.922935	0.357942	0.000100
C122	C	-0.589601	0.691275	0.333433
C123	C	-0.256268	1.024609	0.666766
N124	N	-0.923793	-0.192711	-0.235248
N125	N	-0.590459	0.140623	0.098085
N126	N	-0.257126	0.473956	0.431418
C127	C	-0.976871	-0.135949	0.287516
C128	C	-0.643538	0.197385	0.620849
C129	C	-0.310204	0.530718	0.954183
C130	C	-0.976876	-0.135948	0.391619
C131	C	-0.643543	0.197385	0.724953
C132	C	-0.310209	0.530718	1.058286
C133	C	-0.923768	-0.192694	0.443670
C134	C	-0.590434	0.140639	0.777004
C135	C	-0.257101	0.473972	1.110337
C136	C	-0.870646	-0.249438	0.391613
C137	C	-0.537312	0.083895	0.724946
C138	C	-0.203979	0.417229	1.058279
C139	C	-0.870638	-0.249433	0.287511
C140	C	-0.537304	0.083900	0.620845
C141	C	-0.203971	0.417234	0.954178
C142	C	-0.870667	-0.249446	0.608593
C143	C	-0.537334	0.083888	0.941926
C144	C	-0.204001	0.417221	1.275259
C145	C	-0.870676	-0.249452	0.712701
C146	C	-0.537343	0.083881	1.046035
C147	C	-0.204010	0.417215	1.379368
C148	C	-0.976906	-0.135961	0.712701
C149	C	-0.643572	0.197373	1.046034
C150	C	-0.310239	0.530706	1.379367
C151	C	-0.976898	-0.135956	0.608599
C152	C	-0.643564	0.197377	0.941933
C153	C	-0.310231	0.530711	1.275266
C154	C	-0.923777	-0.192701	0.556549
C155	C	-0.590443	0.140632	0.889882
C156	C	-0.257110	0.473966	1.223216
H157	H	-0.669662	-0.325813	0.000066
H158	H	-0.336329	0.007520	0.333399
H159	H	-0.002995	0.340853	0.666733
Cl160	Cl	-0.767127	0.045972	0.000076
Cl161	Cl	-0.433794	0.379305	0.333409
Cl162	Cl	-0.100461	0.712639	0.666743
Cl163	Cl	-1.080419	0.568616	0.000116
Cl164	Cl	-0.747085	0.901949	0.333449
Cl165	Cl	-0.413752	1.235282	0.666783
H166	H	-0.795537	0.238461	0.000072
H167	H	-0.462204	0.571794	0.333406
H168	H	-0.128870	0.905128	0.666739
H169	H	-1.020121	-0.089743	0.245143
H170	H	-0.686788	0.243590	0.578476
H171	H	-0.353455	0.576923	0.911810
Cl172	Cl	-0.803882	-0.320782	0.543162
Cl173	Cl	-0.470549	0.012551	0.876495
Cl174	Cl	-0.137216	0.345885	1.209829
H175	H	-1.053965	0.257485	0.000125
H176	H	-0.720632	0.590818	0.333458
H177	H	-0.387298	0.924152	0.666791
H178	H	-0.425682	-0.298176	0.000108
H179	H	-0.092349	0.035158	0.333442
H180	H	0.240984	0.368491	0.666775
H181	H	-0.555252	-0.018421	0.000131
H182	H	-0.221918	0.314913	0.333464
H183	H	0.111415	0.648246	0.666797
H184	H	-0.421851	-0.087226	0.000149
H185	H	-0.088518	0.246108	0.333483
H186	H	0.244816	0.579441	0.666816
H187	H	-1.020146	-0.089754	0.566220
H188	H	-0.686813	0.243580	0.899553
H189	H	-0.353479	0.576913	1.232886
H190	H	-1.052010	0.376138	0.000128
H191	H	-0.718677	0.709471	0.333462
H192	H	-0.385344	1.042804	0.666795
Cl193	Cl	-1.088648	0.069661	0.000151
Cl194	Cl	-0.755314	0.402994	0.333485
Cl195	Cl	-0.421981	0.736328	0.666818
H196	H	-0.827429	-0.295659	0.755076
H197	H	-0.494096	0.037674	1.088409
H198	H	-0.160762	0.371007	1.421743
Cl199	Cl	-0.163906	-0.022071	0.000169
Cl200	Cl	0.169427	0.311262	0.333503
Cl201	Cl	0.502760	0.644596	0.666836
Cl202	Cl	-0.803876	-0.320773	0.457046
Cl203	Cl	-0.470543	0.012560	0.790379
Cl204	Cl	-0.137209	0.345894	1.123713
H205	H	-1.020127	-0.089745	0.433998
H206	H	-0.686793	0.243589	0.767332
H207	H	-0.353460	0.576922	1.100665
H208	H	-0.790780	0.526573	0.000089
H209	H	-0.457447	0.859906	0.333423
H210	H	-0.124114	1.193240	0.666756
Cl211	Cl	-0.762371	0.334089	0.000071
Cl212	Cl	-0.429038	0.667422	0.333404
Cl213	Cl	-0.095704	1.000756	0.666738
H214	H	-0.292283	-0.366988	0.000084
H215	H	0.041050	-0.033654	0.333417
H216	H	0.374384	0.299679	0.666750
Cl217	Cl	-0.803857	-0.320765	0.222078
Cl218	Cl	-0.470523	0.012568	0.555411
Cl219	Cl	-0.137190	0.345902	0.888744
H220	H	-0.521707	-0.311535	0.000085
H221	H	-0.188374	0.021798	0.333419
H222	H	0.144959	0.355131	0.666752
H223	H	-0.325831	-0.073865	0.000140
H224	H	0.007502	0.259469	0.333473
H225	H	0.340835	0.592802	0.666806
Cl226	Cl	-1.043687	-0.064627	0.778139
Cl227	Cl	-0.710353	0.268706	1.111472
Cl228	Cl	-0.377020	0.602040	1.444805
H229	H	-0.144317	-0.352708	0.000109
H230	H	0.189017	-0.019374	0.333443
H231	H	0.522350	0.313959	0.666776
H232	H	-0.703221	-0.032692	0.000103
H233	H	-0.369887	0.300641	0.333436
H234	H	-0.036554	0.633974	0.666770
