data_functionalizedCrystal
_audit_creation_method	'MofGen! by Chris Wilmer'
_symmetry_space_group_name_H-M	'P1'
_symmetry_Int_Tables_number	1
_symmetry_cell_setting	triclinic
loop_
_symmetry_equiv_pos_as_xyz
  x,y,z
_cell_length_a	14.044220
_cell_length_b	16.992695
_cell_length_c	15.455313
_cell_angle_alpha	87.152573
_cell_angle_beta	92.919879
_cell_angle_gamma	91.928550
loop_
_atom_site_label
_atom_site_type_symbol
_atom_site_fract_x
_atom_site_fract_y
_atom_site_fract_z
O1	O	-1.276013	-0.186891	-0.072039
O2	O	-0.999526	-0.180033	-0.072061
O3	O	-1.136661	-0.069242	-0.072043
O4	O	-1.138878	-0.297682	-0.072057
O5	O	-1.128817	-0.075549	0.072218
O6	O	-0.991682	-0.186340	0.072200
O7	O	-1.268169	-0.193198	0.072222
Cu8	Cu	-1.129209	-0.190345	0.085383
Cu9	Cu	-1.138486	-0.182886	-0.085222
O10	O	-1.131034	-0.303989	0.072204
C11	C	-1.129887	-0.042984	0.000087
C12	C	-1.121378	0.044656	0.000086
C13	C	-0.960062	-0.180184	0.000067
C14	C	-0.854158	-0.171230	0.000058
C15	C	-1.307633	-0.193047	0.000092
C16	C	-1.413537	-0.202001	0.000095
C17	C	-0.660256	-0.154861	0.000077
C18	C	-0.607433	-0.218367	0.000076
C19	C	-0.499539	-0.209259	0.000087
C20	C	-0.768160	-0.163967	0.000066
C21	C	-1.137808	-0.330247	0.000072
C22	C	-1.146317	-0.417886	0.000067
N23	N	-1.122691	-0.195591	0.205378
C24	C	-1.203475	0.089154	0.000093
C25	C	-1.195475	0.171500	0.000084
C26	C	-1.105377	0.209347	0.000074
C27	C	-1.023275	0.164843	0.000064
C28	C	-1.031276	0.082498	0.000067
C29	C	-1.072216	0.455265	0.000060
C30	C	-1.064220	0.537615	0.000060
C31	C	-1.236421	0.544267	0.000078
C32	C	-1.244414	0.461920	0.000086
C33	C	-1.162312	0.417424	0.000071
N34	N	-1.097198	0.293518	0.000068
N35	N	-1.170493	0.333254	0.000072
N36	N	-1.145011	-0.177634	-0.205217
C37	C	-1.180974	-0.148544	0.250779
C38	C	-1.176054	-0.152519	0.341587
C39	C	-1.112856	-0.203546	0.386991
C40	C	-1.054567	-0.250595	0.341583
C41	C	-1.059482	-0.246615	0.250777
C42	C	-1.091637	-0.220704	0.658569
C43	C	-1.086728	-0.224682	0.749381
C44	C	-1.208215	-0.126604	0.749379
C45	C	-1.213129	-0.122632	0.658572
C46	C	-1.154836	-0.169678	0.613172
N47	N	-1.107828	-0.207613	0.479810
N48	N	-1.159860	-0.165607	0.520354
H49	H	-0.624450	-0.093656	0.000085
N50	N	-0.652350	-0.295154	0.000040
N51	N	-0.640657	-0.339117	-0.060781
H52	H	-0.672384	-0.393346	-0.060812
H53	H	-1.005362	0.419045	0.000048
N54	N	-1.277668	-0.070503	0.612182
N55	N	-1.282045	-0.066955	0.531107
H56	H	-1.327628	-0.030139	0.498342
H57	H	-1.255673	-0.088300	0.786352
N58	N	-1.295502	0.050486	0.000094
N59	N	-1.302638	-0.023036	0.000095
H60	H	-1.367634	-0.050344	0.000092
H61	H	-1.317781	0.431111	0.000094
N62	N	-0.931233	0.203487	0.000070
N63	N	-0.857940	0.163744	0.000070
H64	H	-0.792932	0.191033	0.000080
N65	N	-0.990008	-0.302708	0.387972
N66	N	-0.985627	-0.306256	0.469047
H67	H	-0.940032	-0.343063	0.501810
N68	N	-1.279324	0.216964	0.000113
N69	N	-1.272172	0.290485	0.000115
H70	H	-1.331393	0.322596	0.000137
H71	H	-1.303264	0.580505	0.000088
N72	N	-1.032107	-0.268754	0.612184
N73	N	-0.973806	-0.237360	0.561525
H74	H	-0.931762	-0.271298	0.528759
H75	H	-1.035261	-0.266237	0.786345
H76	H	-0.964424	0.046269	0.000061
N77	N	-1.245518	-0.096418	0.204391
N78	N	-1.249899	-0.092867	0.123316
H79	H	-1.295482	-0.056050	0.090554
N80	N	-0.999937	-0.294675	0.204411
N81	N	-0.943513	-0.340232	0.244958
H82	H	-0.901453	-0.374174	0.212213
N83	N	-0.972175	0.576263	0.000066
N84	N	-0.898877	0.536526	0.000063
H85	H	-0.833871	0.563820	0.000074
N86	N	-1.235592	-0.104452	0.387950
N87	N	-1.292017	-0.058898	0.347400
H88	H	-1.334068	-0.024947	0.380143
