data_functionalizedCrystal
_audit_creation_method	'MofGen! by Chris Wilmer'
_symmetry_space_group_name_H-M	'P1'
_symmetry_Int_Tables_number	1
_symmetry_cell_setting	triclinic
loop_
_symmetry_equiv_pos_as_xyz
  x,y,z
_cell_length_a	19.288859
_cell_length_b	19.288864
_cell_length_c	18.366186
_cell_angle_alpha	90.029997
_cell_angle_beta	89.992480
_cell_angle_gamma	83.134987
loop_
_atom_site_label
_atom_site_type_symbol
_atom_site_fract_x
_atom_site_fract_y
_atom_site_fract_z
O1	O	0.921337	0.086632	0.060599
O2	O	0.719076	0.098326	0.060602
O3	O	0.826051	-0.008651	0.060555
O4	O	0.814362	0.193609	0.060645
O5	O	0.826069	-0.008665	-0.060544
O6	O	0.719094	0.098312	-0.060498
O7	O	0.921355	0.086619	-0.060501
Zn8	Zn	0.820228	0.092463	-0.079726
Zn9	Zn	0.820204	0.092481	0.079827
O10	O	0.814380	0.193596	-0.060454
C11	C	0.693209	0.097943	0.000051
C12	C	0.616105	0.096816	0.000050
C13	C	0.052064	0.151959	0.000076
C14	C	0.124511	0.153025	0.000080
C15	C	0.169217	0.090255	0.000051
C16	C	0.141472	0.026416	0.000036
C17	C	0.069027	0.025353	0.000039
C18	C	0.290494	0.043438	-0.042399
C19	C	0.362938	0.044504	-0.042407
C20	C	0.392663	0.093533	0.000045
C21	C	0.349935	0.141508	0.042494
C22	C	0.277489	0.140444	0.042498
C23	C	0.247773	0.091402	0.000048
C24	C	0.498955	0.158523	0.000070
C25	C	0.571403	0.159586	0.000078
C26	C	0.588364	0.032976	0.000027
C27	C	0.515917	0.031915	0.000025
C28	C	0.471216	0.094691	0.000043
C29	C	0.825684	-0.034535	-0.000005
C30	C	0.824555	-0.111638	-0.000035
C31	C	0.947223	0.087001	0.000051
C32	C	1.024327	0.088128	0.000057
N33	N	0.820249	0.092451	-0.188618
C34	C	0.814747	0.219479	0.000107
C35	C	0.815876	0.296583	0.000142
C36	C	0.753108	0.341280	0.000128
C37	C	0.754169	0.413727	0.000111
C38	C	0.818001	0.441474	0.000094
C39	C	0.880778	0.396766	0.000112
C40	C	0.879715	0.324321	0.000136
C41	C	0.868187	0.549718	-0.042372
C42	C	0.869247	0.622162	-0.042400
C43	C	0.821281	0.664919	0.000024
C44	C	0.772244	0.635224	0.042467
C45	C	0.771181	0.562779	0.042491
C46	C	0.819161	0.520028	0.000069
C47	C	0.759659	0.788173	-0.000007
C48	C	0.760722	0.860621	-0.000018
C49	C	0.887333	0.843658	-0.000025
C50	C	0.886267	0.771211	-0.000006
C51	C	0.822429	0.743473	-0.000000
N52	N	0.820188	0.092488	0.188718
C53	C	0.862096	0.134589	0.226842
C54	C	0.862101	0.134589	0.303070
C55	C	0.820206	0.092476	0.341171
C56	C	0.778290	0.050373	0.303038
C57	C	0.778281	0.050379	0.226812
C58	C	0.818620	0.029823	0.461898
C59	C	0.818634	0.029816	0.538123
C60	C	0.820230	0.092457	0.576279
C61	C	0.821826	0.155108	0.538200
C62	C	0.821817	0.155114	0.461974
C63	C	0.820211	0.092465	0.423826
C64	C	0.862145	0.134562	0.697057
C65	C	0.862145	0.134564	0.773286
C66	C	0.778338	0.050341	0.773253
C67	C	0.778334	0.050345	0.697025
C68	C	0.820241	0.092455	0.658932
H69	H	0.242703	0.179506	0.077063
C70	C	0.923186	0.654820	-0.089082
H71	H	0.951609	0.618980	-0.114333
H72	H	0.899598	0.686270	-0.123209
H73	H	0.951640	0.679348	-0.058496
C74	C	0.823562	0.224024	0.420090
H75	H	0.824508	0.261334	0.453726
H76	H	0.864110	0.220781	0.390338
H77	H	0.783129	0.232477	0.390373
C78	C	0.732205	0.004048	0.344943
H79	H	0.707240	-0.021021	0.311317
H80	H	0.760825	-0.027949	0.374651
H81	H	0.700105	0.032544	0.374704
C82	C	0.816877	-0.039095	0.580002
H83	H	0.815911	-0.076400	0.546362
H84	H	0.857301	-0.047561	0.609722
H85	H	0.776321	-0.035843	0.609750
H86	H	0.733182	0.670036	0.077008
C87	C	0.485400	-0.038298	0.000000
H88	H	0.435852	-0.029942	0.000013
H89	H	0.500760	-0.064145	-0.042239
H90	H	0.500754	-0.064123	0.042227
C91	C	0.382625	0.195419	0.089223
H92	H	0.431892	0.189171	0.083158
H93	H	0.364611	0.241209	0.074349
H94	H	0.371553	0.189119	0.139002
H95	H	0.709607	0.897014	-0.000025
C96	C	0.948761	0.275148	0.000150
H97	H	0.938986	0.228029	0.000171
H98	H	0.974956	0.283502	-0.042082
H99	H	0.974935	0.283570	0.042384
C100	C	0.732183	0.004064	0.184874
H101	H	0.707233	-0.021020	0.218480
H102	H	0.700080	0.032558	0.155161
H103	H	0.760803	-0.027932	0.155114
C104	C	0.950993	0.427280	0.000091
H105	H	0.988225	0.390281	0.000108
H106	H	0.954046	0.455154	-0.042149
H107	H	0.954032	0.455223	0.042317
C108	C	0.908185	0.180914	0.184943
H109	H	0.933140	0.205993	0.218570
H110	H	0.940283	0.152428	0.155179
H111	H	0.879558	0.212915	0.155238
C112	C	0.816865	-0.039085	0.419930
H113	H	0.817082	-0.030109	0.369079
H114	H	0.856699	-0.070678	0.432392
H115	H	0.775719	-0.058973	0.432420
C116	C	0.908234	0.180883	0.655148
H117	H	0.902234	0.174850	0.604290
H118	H	0.895093	0.228427	0.667670
H119	H	0.955815	0.167937	0.667623
H120	H	0.177877	-0.024691	0.000014
H121	H	0.939306	0.866248	0.000014
H122	H	0.015673	0.203077	0.000094
C123	C	0.038515	-0.044864	0.000011
H124	H	0.075514	-0.082097	-0.000009
H125	H	0.010598	-0.047905	0.042238
H126	H	0.010615	-0.047915	-0.042227
H127	H	0.707677	0.765587	-0.000006
H128	H	0.147099	0.205005	0.000089
C129	C	0.955311	0.722039	0.000006
H130	H	0.945537	0.674920	0.000030
H131	H	0.981506	0.730390	-0.042226
H132	H	0.981484	0.730464	0.042239
H133	H	0.266299	0.003509	-0.076970
H134	H	0.823126	0.206117	0.569265
H135	H	0.731255	0.538604	0.077050
C136	C	0.920977	0.502685	-0.089008
H137	H	0.913334	0.455285	-0.082901
H138	H	0.915080	0.515317	-0.138804
H139	H	0.967095	0.508430	-0.074067
H140	H	0.896227	0.168875	0.334116
C141	C	0.908246	0.180877	0.815223
H142	H	0.933206	0.205949	0.781616
H143	H	0.879634	0.212871	0.844985
H144	H	0.940351	0.152375	0.844933
H145	H	0.397721	0.005443	-0.076976
C146	C	0.732251	0.004018	0.815152
H147	H	0.707288	-0.021054	0.781526
H148	H	0.760869	-0.027978	0.844864
H149	H	0.700148	0.032514	0.844910
C150	C	0.449782	0.227572	0.000105
H151	H	0.476680	0.265742	0.000130
H152	H	0.421171	0.229788	-0.042122
H153	H	0.421167	0.229789	0.042344
C154	C	0.682889	0.310772	0.000143
H155	H	0.645658	0.347773	0.000139
H156	H	0.679847	0.282827	-0.042076
H157	H	0.679836	0.282901	0.042390
H158	H	0.744211	0.016059	0.665985
H159	H	0.593984	0.211567	0.000100
H160	H	0.624763	-0.018132	0.000009
C161	C	0.685122	0.462904	0.000092
H162	H	0.646951	0.436008	0.000095
H163	H	0.682895	0.491555	0.042311
H164	H	0.682918	0.491479	-0.042155
