data_functionalizedCrystal
_audit_creation_method	'MofGen! by Chris Wilmer'
_symmetry_space_group_name_H-M	'P1'
_symmetry_Int_Tables_number	1
_symmetry_cell_setting	triclinic
loop_
_symmetry_equiv_pos_as_xyz
  x,y,z
_cell_length_a	17.699083
_cell_length_b	14.472310
_cell_length_c	17.699083
_cell_angle_alpha	89.998025
_cell_angle_beta	96.716985
_cell_angle_gamma	90.006988
loop_
_atom_site_label
_atom_site_type_symbol
_atom_site_fract_x
_atom_site_fract_y
_atom_site_fract_z
O1	O	1.004086	0.076713	-0.095706
O2	O	1.504086	0.576713	0.404294
O3	O	0.783707	0.076744	-0.108158
O4	O	1.283707	0.576744	0.391842
O5	O	0.900123	0.076719	0.008257
O6	O	1.400123	0.576719	0.508257
O7	O	0.887670	0.076738	-0.212121
O8	O	1.387670	0.576738	0.287879
O9	O	0.900093	-0.076963	0.008250
O10	O	1.400093	0.423037	0.508250
O11	O	0.783677	-0.076938	-0.108165
O12	O	1.283677	0.423062	0.391835
O13	O	1.004056	-0.076969	-0.095713
O14	O	1.504056	0.423031	0.404287
Cu15	Cu	0.893864	-0.090986	-0.101940
Cu16	Cu	1.393864	0.409014	0.398060
Cu17	Cu	0.893899	0.090761	-0.101932
Cu18	Cu	1.393899	0.590761	0.398068
O19	O	0.887640	-0.076944	-0.212128
O20	O	1.387640	0.423056	0.287872
C21	C	0.755495	-0.000093	-0.107716
C22	C	1.255495	0.499907	0.392284
C23	C	0.671477	-0.000082	-0.106377
C24	C	1.171477	0.499918	0.393623
N25	N	0.893845	-0.218817	-0.101945
N26	N	1.393845	0.281183	0.398055
C27	C	0.622856	-0.000077	-0.174710
C28	C	1.122856	0.499923	0.325290
C29	C	0.543913	-0.000089	-0.173448
C30	C	1.043913	0.499911	0.326552
C31	C	0.513592	-0.000100	-0.103852
C32	C	1.013592	0.499900	0.396148
C33	C	0.562219	-0.000108	-0.035513
C34	C	1.062219	0.499892	0.464487
C35	C	0.641161	-0.000102	-0.036776
C36	C	1.141161	0.499898	0.463224
C37	C	0.243856	-0.000131	-0.030418
C38	C	0.743856	0.499869	0.469582
C39	C	0.164908	-0.000134	-0.029160
C40	C	0.664908	0.499866	0.470840
C41	C	0.146608	-0.000118	-0.167090
C42	C	0.646608	0.499882	0.332910
C43	C	0.225550	-0.000112	-0.168353
C44	C	0.725550	0.499888	0.331647
C45	C	0.274170	-0.000125	-0.100015
C46	C	0.774170	0.499875	0.399985
C47	C	0.359769	-0.000114	-0.101384
C48	C	0.859769	0.499886	0.398616
C49	C	0.427995	-0.000104	-0.102481
C50	C	0.927995	0.499896	0.397519
C51	C	0.893898	-0.592908	-0.101929
C52	C	1.393898	-0.092908	0.398071
C53	C	0.831399	-0.553729	-0.164012
C54	C	1.331399	-0.053729	0.335988
C55	C	0.831542	-0.446641	-0.164238
C56	C	1.331542	0.053359	0.335762
C57	C	0.893871	-0.407317	-0.101937
C58	C	1.393871	0.092683	0.398063
C59	C	0.972811	-0.446163	-0.119040
C60	C	1.472811	0.053837	0.380960
C61	C	0.972460	-0.553285	-0.119481
C62	C	1.472460	-0.053285	0.380519
C63	C	0.878163	-0.553441	-0.022557
C64	C	1.378163	-0.053441	0.477443
C65	C	0.876351	-0.446313	-0.023090
C66	C	1.376351	0.053687	0.476910
C67	C	0.893860	-0.302429	-0.101940
C68	C	1.393860	0.197571	0.398060
C69	C	0.893914	-0.697796	-0.101927
C70	C	1.393914	-0.197796	0.398073
C71	C	1.032268	-0.000130	-0.096156
C72	C	1.532268	0.499870	0.403844
C73	C	1.116286	-0.000135	-0.097494
C74	C	1.616286	0.499865	0.402506
C75	C	0.899662	-0.000122	0.036451
C76	C	1.399662	0.499878	0.536451
C77	C	0.898323	-0.000122	0.120469
C78	C	1.398323	0.499878	0.620469
N79	N	0.893925	0.218592	-0.101920
N80	N	1.393925	0.718592	0.398080
C81	C	0.888102	-0.000101	-0.240322
C82	C	1.388102	0.499899	0.259678
C83	C	0.889440	-0.000095	-0.324340
C84	C	1.389440	0.499905	0.175660
C85	C	0.966656	-0.000133	0.169090
C86	C	1.466656	0.499867	0.669090
C87	C	0.965394	-0.000124	0.248033
C88	C	1.465394	0.499876	0.748033
C89	C	0.895798	-0.000112	0.278354
C90	C	1.395798	0.499888	0.778354
C91	C	0.827459	-0.000098	0.229727
C92	C	1.327459	0.499902	0.729727
C93	C	0.828722	-0.000100	0.150785
C94	C	1.328722	0.499900	0.650785
C95	C	0.822364	-0.000090	0.548090
C96	C	1.322364	0.499910	1.048090
C97	C	0.821106	-0.000091	0.627038
C98	C	1.321106	0.499909	1.127038
C99	C	0.959036	-0.000114	0.645338
C100	C	1.459036	0.499886	1.145338
C101	C	0.960299	-0.000116	0.566396
C102	C	1.460299	0.499884	1.066396
C103	C	0.891961	-0.000098	0.517776
C104	C	1.391961	0.499902	1.017776
C105	C	0.893330	-0.000105	0.432177
C106	C	1.393330	0.499895	0.932177
C107	C	0.894427	-0.000111	0.363951
C108	C	1.394427	0.499889	0.863951
H109	H	0.647537	-0.000067	-0.231384
H110	H	1.147537	0.499933	0.268616
H111	H	0.107012	-0.000112	-0.222734
H112	H	0.607012	0.499888	0.277266
H113	H	1.021038	-0.000135	0.287618
H114	H	1.521038	0.499865	0.787618
O115	O	0.529522	-0.000127	0.039555
O116	O	1.029522	0.499873	0.539555
H117	H	0.494003	0.062512	0.043439
H118	H	0.994003	0.562512	0.543439
H119	H	0.773078	-0.000091	0.111198
H120	H	1.273078	0.499909	0.611198
H121	H	0.140225	-0.000144	0.027517
H122	H	0.640225	0.499856	0.527517
H123	H	0.841292	-0.580636	-0.222584
H124	H	1.341292	-0.080636	0.277416
O125	O	1.032749	-0.000126	0.697777
O126	O	1.532749	0.499874	1.197777
H127	H	1.020183	-0.000113	0.757765
H128	H	1.520183	0.499887	1.257765
O129	O	0.752391	-0.000094	0.262423
O130	O	1.252391	0.499906	0.762423
H131	H	0.762991	-0.000108	0.325485
H132	H	1.262991	0.499892	0.825485
H133	H	1.023330	-0.000148	0.144409
H134	H	1.523330	0.499852	0.644409
O135	O	1.035888	-0.412427	-0.060735
O136	O	1.535888	0.087573	0.439265
H137	H	1.011585	-0.367502	-0.018850
H138	H	1.511585	0.132498	0.481150
O139	O	1.035362	-0.000116	0.533690
O140	O	1.535362	0.499884	1.033690
H141	H	1.082669	-0.000109	0.580763
H142	H	1.582669	0.499891	1.080763
O143	O	0.746038	-0.000070	0.659745
O144	O	1.246038	0.499930	1.159745
H145	H	0.698730	-0.000048	0.612675
H146	H	1.198730	0.499952	1.112675
O147	O	1.035905	-0.587621	-0.061857
O148	O	1.535905	-0.087621	0.438143
H149	H	1.075918	-0.630093	-0.091046
H150	H	1.575918	-0.130093	0.408954
H151	H	0.250232	-0.000099	-0.225025
H152	H	0.750232	0.499901	0.274975
H153	H	0.680748	-0.000106	0.018868
H154	H	1.180748	0.499894	0.518868
H155	H	0.987035	-0.419324	-0.176260
H156	H	1.487035	0.080676	0.323740
O157	O	0.932755	-0.410864	0.040956
O158	O	1.432755	0.089136	0.540956
H159	H	0.902097	-0.371790	0.081919
H160	H	1.402097	0.128210	0.581919
O161	O	0.753809	-0.411840	-0.150784
O162	O	1.253809	0.088160	0.349216
H163	H	0.715775	-0.471523	-0.144061
H164	H	1.215775	0.028477	0.355939
H165	H	0.772526	-0.579510	-0.154013
H166	H	1.272526	-0.079510	0.345987
O167	O	0.296293	-0.000144	0.043286
O168	O	0.796293	0.499856	0.543286
H169	H	0.261944	-0.000145	0.091890
H170	H	0.761944	0.499855	0.591890
H171	H	0.504328	-0.000083	-0.229092
H172	H	1.004328	0.499917	0.270908
H173	H	0.766718	-0.000075	0.508512
H174	H	1.266718	0.499925	1.008512
H175	H	0.841575	-0.421004	-0.223141
H176	H	1.341575	0.078996	0.276859
H177	H	0.986348	-0.578258	-0.177362
H178	H	1.486348	-0.078258	0.322638
H179	H	0.821858	-0.580502	-0.006075
H180	H	1.321858	-0.080502	0.493925
H181	H	0.818282	-0.420924	-0.010106
H182	H	1.318282	0.079076	0.489894
H183	H	0.923743	-0.578777	0.023642
H184	H	1.423743	-0.078777	0.523642
