data_functionalizedCrystal
_audit_creation_method	'MofGen! by Chris Wilmer'
_symmetry_space_group_name_H-M	'P1'
_symmetry_Int_Tables_number	1
_symmetry_cell_setting	triclinic
loop_
_symmetry_equiv_pos_as_xyz
  x,y,z
_cell_length_a	18.101398
_cell_length_b	18.101395
_cell_length_c	12.759393
_cell_angle_alpha	89.966555
_cell_angle_beta	89.987570
_cell_angle_gamma	90.026661
loop_
_atom_site_label
_atom_site_type_symbol
_atom_site_fract_x
_atom_site_fract_y
_atom_site_fract_z
Zn1	Zn	1.132141	-0.294874	-0.593797
Zn2	Zn	1.132031	-0.418735	-0.418112
Zn3	Zn	1.008294	-0.294903	-0.418155
Zn4	Zn	1.008250	-0.418668	-0.593772
O5	O	1.070179	-0.356795	-0.505959
O6	O	1.235759	-0.311320	-0.570485
O7	O	1.115589	-0.402349	-0.271096
O8	O	1.024786	-0.191266	-0.441484
O9	O	1.235678	-0.402321	-0.441409
O10	O	1.115776	-0.191245	-0.570527
O11	O	1.024680	-0.311369	-0.271129
O12	O	0.904655	-0.311304	-0.441459
O13	O	1.024712	-0.402207	-0.740796
O14	O	0.904623	-0.402235	-0.570484
O15	O	1.115734	-0.311255	-0.740815
O16	O	1.115547	-0.522359	-0.441385
O17	O	1.024606	-0.522310	-0.570441
C18	C	0.877768	-0.356766	-0.505974
C19	C	0.795454	-0.356771	-0.506005
C20	C	0.496363	-0.356815	-0.505961
C21	C	0.527693	-0.414302	-0.586739
C22	C	0.613311	-0.414122	-0.587071
C23	C	0.644746	-0.356794	-0.505983
C24	C	0.613692	-0.278789	-0.536237
C25	C	0.528047	-0.279134	-0.536811
C26	C	0.527907	-0.376645	-0.394734
C27	C	0.613557	-0.378356	-0.395329
C28	C	0.728605	-0.356777	-0.505993
C29	C	0.412504	-0.356826	-0.505953
C30	C	1.070080	-0.549206	-0.505928
C31	C	1.070105	-0.631520	-0.505950
C32	C	1.070268	-0.930611	-0.506007
C33	C	1.013183	-0.899285	-0.587407
C34	C	1.012911	-0.813667	-0.587153
C35	C	1.070187	-0.782228	-0.505980
C36	C	1.049054	-0.813386	-0.395258
C37	C	1.048686	-0.899031	-0.395745
C38	C	1.148610	-0.898958	-0.534353
C39	C	1.148150	-0.813307	-0.536782
C40	C	1.070143	-0.698369	-0.505957
C41	C	1.070310	-1.014470	-0.506021
C42	C	1.263341	-0.356825	-0.505945
C43	C	1.345655	-0.356838	-0.505939
C44	C	1.070231	-0.356720	-0.779993
C45	C	1.070253	-0.356689	-0.896769
C46	C	1.070298	-0.163633	-0.506013
C47	C	1.070349	-0.081319	-0.506036
C48	C	1.117654	-0.309326	-0.951643
C49	C	1.117672	-0.309299	-1.061367
C50	C	1.022884	-0.404004	-1.061334
C51	C	1.022864	-0.404027	-0.951612
C52	C	1.165043	-0.261987	-0.896800
C53	C	1.212449	-0.214621	-0.951674
C54	C	1.212467	-0.214594	-1.061398
C55	C	1.165079	-0.261934	-1.116248
C56	C	1.070170	-0.356816	-0.232992
C57	C	1.070291	-0.356639	-0.116216
H58	H	0.634955	-0.339526	-0.331911
Cl59	Cl	0.496624	-0.311999	-0.301808
H60	H	0.507324	-0.234767	-0.480674
Cl61	Cl	1.272064	-0.155052	-1.130379
Cl62	Cl	0.963318	-0.463515	-1.130290
Cl63	Cl	1.178356	-0.932217	-0.656883
H64	H	0.633817	-0.401001	-0.669483
H65	H	1.026133	-0.792598	-0.669252
H66	H	1.165036	-0.262005	-0.807457
H67	H	1.165088	-0.261900	-1.205593
H68	H	0.508089	-0.262316	-0.618123
H69	H	1.251027	-0.176075	-0.907007
H70	H	0.634306	-0.471967	-0.568110
Cl71	Cl	0.495858	-0.503904	-0.557803
Cl72	Cl	0.644891	-0.466984	-0.360104
Cl73	Cl	0.645132	-0.210862	-0.448241
H74	H	1.191140	-0.919216	-0.475066
H75	H	0.992392	-0.791999	-0.370813
H76	H	0.635160	-0.261668	-0.616665
H77	H	0.984254	-0.442582	-0.906933
Cl78	Cl	0.494525	-0.462957	-0.352274
H79	H	1.026274	-0.919828	-0.669773
Cl80	Cl	0.924075	-0.932624	-0.558808
Cl81	Cl	0.494472	-0.394319	-0.713239
H82	H	0.954842	-0.793241	-0.568377
H83	H	0.991418	-0.919072	-0.371730
Cl84	Cl	1.110085	-0.931033	-0.298908
Cl85	Cl	1.111225	-0.781951	-0.299062
H86	H	1.164086	-0.792939	-0.618267
H87	H	1.192931	-0.791902	-0.481814
