data_functionalizedCrystal
_audit_creation_method	'MofGen! by Chris Wilmer'
_symmetry_space_group_name_H-M	'P1'
_symmetry_Int_Tables_number	1
_symmetry_cell_setting	triclinic
loop_
_symmetry_equiv_pos_as_xyz
  x,y,z
_cell_length_a	16.625548
_cell_length_b	16.625546
_cell_length_c	18.215399
_cell_angle_alpha	89.970824
_cell_angle_beta	89.980331
_cell_angle_gamma	90.023536
loop_
_atom_site_label
_atom_site_type_symbol
_atom_site_fract_x
_atom_site_fract_y
_atom_site_fract_z
Zn1	Zn	1.232673	-0.320987	-0.416106
Zn2	Zn	1.232579	-0.455827	-0.293037
Zn3	Zn	1.097837	-0.321015	-0.293054
Zn4	Zn	1.097806	-0.455784	-0.416063
O5	O	1.165224	-0.388403	-0.354565
O6	O	1.345493	-0.338880	-0.399792
O7	O	1.214679	-0.437974	-0.190055
O8	O	1.115776	-0.208179	-0.309403
O9	O	1.345424	-0.437947	-0.309374
O10	O	1.214840	-0.208158	-0.399808
O11	O	1.115685	-0.338928	-0.190068
O12	O	0.985001	-0.338886	-0.309360
O13	O	1.115722	-0.437873	-0.519053
O14	O	0.984977	-0.437900	-0.399734
O15	O	1.214809	-0.338838	-0.519085
O16	O	1.214648	-0.568654	-0.309332
O17	O	1.115631	-0.568622	-0.399718
C18	C	0.955733	-0.388392	-0.354545
C19	C	0.866112	-0.388406	-0.354553
C20	C	0.537936	-0.388411	-0.354585
C21	C	0.629245	-0.388408	-0.354574
C22	C	0.702021	-0.388409	-0.354568
C23	C	0.793335	-0.388405	-0.354558
C24	C	1.165147	-0.597894	-0.354534
C25	C	1.165188	-0.687515	-0.354546
C26	C	1.165329	-1.015691	-0.354622
C27	C	1.165287	-0.924382	-0.354603
C28	C	1.165258	-0.851606	-0.354584
C29	C	1.165218	-0.760292	-0.354565
C30	C	1.375533	-0.388415	-0.354586
C31	C	1.465154	-0.388420	-0.354595
C32	C	1.165273	-0.388348	-0.546518
C33	C	1.165294	-0.388324	-0.628317
C34	C	1.165322	-0.178094	-0.354612
C35	C	1.165364	-0.088473	-0.354632
C36	C	1.216907	-0.336708	-0.816529
C37	C	1.216916	-0.336685	-0.893388
C38	C	1.113738	-0.439815	-0.893343
C39	C	1.113725	-0.439834	-0.816486
C40	C	1.165314	-0.388282	-0.778081
C41	C	1.165336	-0.388239	-0.931797
C42	C	1.165346	-0.388214	-1.015131
C43	C	1.165303	-0.388305	-0.694742
C44	C	1.165221	-0.388400	-0.163359
C45	C	1.165356	-0.388197	-0.081560
H46	H	1.258912	-0.294729	-0.785262
H47	H	1.258927	-0.294687	-0.924689
H48	H	1.071738	-0.481788	-0.924622
C49	C	1.056963	-0.496565	-0.774190
C50	C	0.993665	-0.461628	-0.721357
C51	C	0.936900	-0.518352	-0.679062
C52	C	0.943433	-0.610013	-0.689601
C53	C	1.006733	-0.644955	-0.742436
C54	C	1.063498	-0.588231	-0.784731
H55	H	0.988826	-0.393771	-0.713554
H56	H	0.890041	-0.492485	-0.639950
H57	H	0.901412	-0.652004	-0.658292
H58	H	1.011572	-0.712812	-0.750239
H59	H	1.110357	-0.614098	-0.823843
