data_functionalizedCrystal
_audit_creation_method	'MofGen! by Chris Wilmer'
_symmetry_space_group_name_H-M	'P1'
_symmetry_Int_Tables_number	1
_symmetry_cell_setting	triclinic
loop_
_symmetry_equiv_pos_as_xyz
  x,y,z
_cell_length_a	17.699077
_cell_length_b	16.992700
_cell_length_c	16.176319
_cell_angle_alpha	89.986229
_cell_angle_beta	89.993140
_cell_angle_gamma	86.973874
loop_
_atom_site_label
_atom_site_type_symbol
_atom_site_fract_x
_atom_site_fract_y
_atom_site_fract_z
O1	O	1.010252	0.099123	-0.068749
O2	O	1.343586	0.432457	0.264584
O3	O	1.676919	0.765790	0.597918
O4	O	0.790677	0.112027	-0.068755
O5	O	1.124010	0.445361	0.264579
O6	O	1.457343	0.778694	0.597912
O7	O	0.899585	-0.008566	-0.068731
O8	O	1.232918	0.324768	0.264602
O9	O	1.566252	0.658101	0.597936
O10	O	0.901344	0.219716	-0.068773
O11	O	1.234677	0.553050	0.264561
O12	O	1.568010	0.886383	0.597894
O13	O	0.899569	-0.008573	0.068762
O14	O	1.232902	0.324760	0.402096
O15	O	1.566235	0.658093	0.735429
O16	O	0.790660	0.112020	0.068738
O17	O	1.123993	0.445353	0.402072
O18	O	1.457327	0.778686	0.735405
O19	O	1.010236	0.099116	0.068744
O20	O	1.343569	0.432449	0.402078
O21	O	1.676902	0.765782	0.735411
Cu22	Cu	0.900446	0.105567	0.081296
Cu23	Cu	1.233780	0.438900	0.414629
Cu24	Cu	1.567113	0.772234	0.747962
Cu25	Cu	0.900466	0.105576	-0.081306
Cu26	Cu	1.233799	0.438909	0.252027
Cu27	Cu	1.567133	0.772243	0.585361
O28	O	0.901327	0.219709	0.068720
O29	O	1.234660	0.553042	0.402054
O30	O	1.567994	0.886375	0.735387
C31	C	0.762442	0.111562	-0.000009
C32	C	1.095776	0.444895	0.333325
C33	C	1.429109	0.778229	0.666658
C34	C	0.678338	0.110177	-0.000010
C35	C	1.011671	0.443510	0.333323
C36	C	1.345005	0.776844	0.666657
C37	C	0.638821	0.109520	0.074939
C38	C	0.972154	0.442854	0.408272
C39	C	1.305488	0.776187	0.741605
C40	C	0.559797	0.108207	0.074940
C41	C	0.893130	0.441540	0.408273
C42	C	1.226463	0.774873	0.741606
C43	C	0.520290	0.107555	-0.000008
C44	C	0.853624	0.440889	0.333325
C45	C	1.186957	0.774222	0.666658
C46	C	0.559813	0.108210	-0.074963
C47	C	0.893146	0.441543	0.258371
C48	C	1.226480	0.774877	0.591704
C49	C	0.638836	0.109518	-0.074963
C50	C	0.972170	0.442851	0.258370
C51	C	1.305503	0.776185	0.591704
C52	C	0.241121	0.102934	-0.074963
C53	C	0.574455	0.436267	0.258370
C54	C	0.907788	0.769601	0.591703
C55	C	0.162092	0.101628	-0.074957
C56	C	0.495426	0.434961	0.258376
C57	C	0.828759	0.768295	0.591709
C58	C	0.162082	0.101623	0.074939
C59	C	0.495415	0.434956	0.408273
C60	C	0.828748	0.768289	0.741606
C61	C	0.241105	0.102931	0.074939
C62	C	0.574438	0.436264	0.408273
C63	C	0.907772	0.769597	0.741606
C64	C	0.280621	0.103581	-0.000015
C65	C	0.613954	0.436914	0.333319
C66	C	0.947288	0.770248	0.666652
C67	C	0.366308	0.105004	-0.000015
C68	C	0.699642	0.438337	0.333318
C69	C	1.032975	0.771670	0.666652
C70	C	0.434604	0.106138	-0.000009
C71	C	0.767938	0.439472	0.333324
C72	C	1.101271	0.772805	0.666658
C73	C	0.897312	-0.037778	0.000019
C74	C	1.230646	0.295556	0.333353
C75	C	1.563979	0.628889	0.666686
C76	C	0.890556	-0.124809	0.000030
C77	C	1.223889	0.208524	0.333363
C78	C	1.557223	0.541858	0.666697
C79	C	0.845159	-0.613681	-0.000047
C80	C	1.178492	-0.280348	0.333287
C81	C	1.511826	0.052986	0.666620
C82	C	0.851513	-0.531907	-0.000038
C83	C	1.184846	-0.198573	0.333295
C84	C	1.518180	0.134760	0.666628
C85	C	0.923065	-0.500501	-0.000025
C86	C	1.256399	-0.167168	0.333308
C87	C	1.589732	0.166165	0.666641
C88	C	0.988268	-0.550875	-0.000029
C89	C	1.321601	-0.217542	0.333305
C90	C	1.654934	0.115792	0.666638
C91	C	0.981913	-0.632648	-0.000043
C92	C	1.315246	-0.299314	0.333290
C93	C	1.648579	0.034019	0.666624
C94	C	0.949403	-0.256955	0.000012
C95	C	1.282737	0.076378	0.333346
C96	C	1.616070	0.409712	0.666679
C97	C	0.955753	-0.175176	0.000029
C98	C	1.289087	0.158157	0.333362
C99	C	1.622420	0.491491	0.666696
C100	C	0.818998	-0.156213	0.000018
C101	C	1.152331	0.177120	0.333351
C102	C	1.485665	0.510453	0.666684
C103	C	0.812649	-0.237988	0.000009
C104	C	1.145983	0.095345	0.333342
C105	C	1.479316	0.428678	0.666675
C106	C	0.877852	-0.288355	0.000001
C107	C	1.211185	0.044978	0.333334
C108	C	1.544518	0.378312	0.666667
N109	N	0.929562	-0.416915	-0.000014
N110	N	1.262895	-0.083582	0.333319
N111	N	1.596229	0.249751	0.666652
N112	N	0.871354	-0.371939	-0.000016
N113	N	1.204688	-0.038606	0.333317
N114	N	1.538021	0.294727	0.666650
C115	C	1.038470	0.099581	-0.000004
C116	C	1.371803	0.432914	0.333330
C117	C	1.705136	0.766248	0.666663
C118	C	1.122574	0.100966	-0.000008
C119	C	1.455908	0.434299	0.333325
C120	C	1.789241	0.767632	0.666659
C121	C	0.903600	0.248921	-0.000032
C122	C	1.236933	0.582254	0.333302
C123	C	1.570267	0.915587	0.666635
C124	C	0.910356	0.335952	-0.000048
C125	C	1.243690	0.669285	0.333286
C126	C	1.577023	1.002618	0.666619
N127	N	0.900438	0.105560	0.195661
N128	N	1.233772	0.438893	0.528994
N129	N	1.567105	0.772227	0.862327
N130	N	0.900480	0.105577	-0.195671
N131	N	1.233813	0.438910	0.137662
N132	N	1.567146	0.772243	0.470995
C133	C	0.948680	0.052183	0.238936
C134	C	1.282013	0.385517	0.572269
C135	C	1.615346	0.718850	0.905602
C136	C	0.948684	0.052182	0.325483
C137	C	1.282017	0.385516	0.658816
C138	C	1.615350	0.718849	0.992149
C139	C	0.900449	0.105563	0.368753
C140	C	1.233782	0.438896	0.702087
C141	C	1.567116	0.772229	1.035420
C142	C	0.852202	0.158942	0.325473
C143	C	1.185536	0.492275	0.658806
C144	C	1.518869	0.825609	0.992139
C145	C	0.852195	0.158939	0.238927
C146	C	1.185528	0.492272	0.572260
C147	C	1.518862	0.825605	0.905594
C148	C	0.852229	0.158957	0.674501
C149	C	1.185562	0.492290	1.007834
C150	C	1.518896	0.825623	1.341167
C151	C	0.852241	0.158958	0.761052
C152	C	1.185575	0.492291	1.094386
C153	C	1.518908	0.825624	1.427719
C154	C	0.948717	0.052201	0.761056
C155	C	1.282051	0.385534	1.094390
C156	C	1.615384	0.718867	1.427723
C157	C	0.948710	0.052197	0.674511
C158	C	1.282044	0.385530	1.007844
C159	C	1.615377	0.718864	1.341178
C160	C	0.900461	0.105573	0.631238
C161	C	1.233794	0.438907	0.964571
C162	C	1.567128	0.772240	1.297904
C163	C	0.900456	0.105573	0.537393
C164	C	1.233790	0.438906	0.870727
C165	C	1.567123	0.772239	1.204060
C166	C	0.900457	0.105568	0.462596
C167	C	1.233790	0.438901	0.795929
C168	C	1.567124	0.772235	1.129263
H169	H	0.273267	0.103465	0.135970
H170	H	0.606600	0.436798	0.469303
H171	H	0.939933	0.770132	0.802637
H172	H	0.754384	-0.263552	-0.000012
H173	H	1.087717	0.069781	0.333322
H174	H	1.421051	0.403115	0.666655
N175	N	1.032930	-0.141299	0.000055
N176	N	1.366264	0.192034	0.333389
N177	N	1.699597	0.525368	0.666722
H178	H	1.038626	-0.107765	-0.050899
H179	H	1.371960	0.225569	0.282434
H180	H	1.705293	0.558902	0.615768
H181	H	1.038542	-0.107859	0.051072
H182	H	1.371875	0.225474	0.384406
H183	H	1.705208	0.558807	0.717739
N184	N	1.019725	-0.311273	0.000014
N185	N	1.353059	0.022061	0.333347
N186	N	1.686392	0.355394	0.666681
H187	H	1.066016	-0.278967	0.000031
H188	H	1.399349	0.054367	0.333364
H189	H	1.732682	0.387700	0.666698
H190	H	1.020054	-0.345630	0.050980
H191	H	1.353388	-0.012297	0.384313
H192	H	1.686721	0.321036	0.717647
N193	N	0.517172	0.107496	0.155775
N194	N	0.850505	0.440829	0.489109
N195	N	1.183838	0.774162	0.822442
H196	H	0.554222	0.107555	0.203255
H197	H	0.887555	0.440888	0.536588
H198	H	1.220889	0.774221	0.869921
H199	H	0.481563	0.155817	0.159282
H200	H	0.814897	0.489151	0.492615
H201	H	1.148230	0.822484	0.825948
H202	H	0.129898	0.101090	0.135971
H203	H	0.463232	0.434423	0.469304
H204	H	0.796565	0.767756	0.802637
H205	H	0.129929	0.101097	-0.135993
H206	H	0.463262	0.434430	0.197340
H207	H	0.796595	0.767764	0.530674
N208	N	0.283737	0.103629	-0.155802
N209	N	0.617070	0.436962	0.177531
N210	N	0.950404	0.770296	0.510864
H211	H	0.246716	0.103019	-0.203279
H212	H	0.580050	0.436352	0.130054
H213	H	0.913383	0.769686	0.463388
H214	H	0.313328	0.152751	-0.159085
H215	H	0.646662	0.486085	0.174249
H216	H	0.979995	0.819418	0.507582
N217	N	1.000731	-0.005375	0.627834
N218	N	1.334065	0.327959	0.961167
N219	N	1.667398	0.661292	1.294501
H220	H	1.054990	0.003581	0.642877
H221	H	1.388323	0.336914	0.976211
H222	H	1.721656	0.670247	1.309544
H223	H	0.988589	-0.060982	0.642931
H224	H	1.321922	0.272351	0.976264
H225	H	1.655256	0.605685	1.309598
H226	H	0.527641	0.107674	-0.135987
H227	H	0.860974	0.441007	0.197346
H228	H	1.194308	0.774341	0.530680
H229	H	0.671010	0.110054	-0.135994
H230	H	1.004343	0.443387	0.197339
H231	H	1.337677	0.776721	0.530673
N232	N	0.767984	-0.647551	-0.000051
N233	N	1.101317	-0.314218	0.333283
N234	N	1.434651	0.019116	0.666616
H235	H	0.727647	-0.603232	-0.000049
H236	H	1.060980	-0.269899	0.333284
H237	H	1.394313	0.063435	0.666617
H238	H	0.762376	-0.681049	-0.051026
H239	H	1.095709	-0.347716	0.282308
H240	H	1.429042	-0.014382	0.615641
H241	H	0.812944	0.202419	0.639274
H242	H	1.146277	0.535752	0.972608
H243	H	1.479611	0.869086	1.305941
N244	N	0.781193	-0.477581	-0.000039
N245	N	1.114527	-0.144248	0.333294
N246	N	1.447860	0.189085	0.666628
H247	H	0.734902	-0.509885	-0.000044
H248	H	1.068235	-0.176551	0.333289
H249	H	1.401568	0.156782	0.666623
H250	H	0.780844	-0.443257	0.050936
H251	H	1.114177	-0.109924	0.384269
H252	H	1.447511	0.223410	0.717603
N253	N	0.800204	0.216526	0.807723
N254	N	1.133537	0.549860	1.141056
N255	N	1.466871	0.883193	1.474390
H256	H	0.807533	0.208428	0.869115
H257	H	1.140867	0.541762	1.202449
H258	H	1.474200	0.875095	1.535782
H259	H	0.812296	0.272136	0.792578
H260	H	1.145629	0.605470	1.125911
H261	H	1.478963	0.938803	1.459244
N262	N	0.748676	-0.101891	0.000038
N263	N	1.082010	0.231442	0.333371
N264	N	1.415343	0.564776	0.666704
H265	H	0.763556	-0.045322	0.000053
H266	H	1.096889	0.288011	0.333386
H267	H	1.430223	0.621344	0.666719
H268	H	0.717710	-0.112020	-0.050934
H269	H	1.051043	0.221314	0.282399
H270	H	1.384376	0.554647	0.615732
N271	N	1.065444	-0.517007	-0.000007
N272	N	1.398777	-0.183674	0.333327
N273	N	1.732110	0.149660	0.666660
H274	H	1.059578	-0.457561	0.000010
H275	H	1.392911	-0.124228	0.333343
H276	H	1.726244	0.209105	0.666677
H277	H	1.094172	-0.535467	0.050968
H278	H	1.427505	-0.202133	0.384302
H279	H	1.760839	0.131200	0.717635
N280	N	0.800171	0.216513	0.372138
N281	N	1.133504	0.549846	0.705472
N282	N	1.466838	0.883179	1.038805
H283	H	0.807496	0.208418	0.433532
H284	H	1.140829	0.541751	0.766865
H285	H	1.474163	0.875084	1.100198
H286	H	0.812270	0.272120	0.356990
H287	H	1.145603	0.605453	0.690323
H288	H	1.478937	0.938787	1.023657
H289	H	1.035004	-0.673657	-0.000047
H290	H	1.368337	-0.340323	0.333286
H291	H	1.701670	-0.006990	0.666619
N292	N	1.000709	-0.005387	0.192268
N293	N	1.334043	0.327946	0.525601
N294	N	1.667376	0.661279	0.858934
H295	H	1.031269	-0.039202	0.232818
H296	H	1.364603	0.294132	0.566152
H297	H	1.697936	0.627465	0.899485
H298	H	0.969642	-0.040012	0.156376
H299	H	1.302975	0.293322	0.489710
H300	H	1.636308	0.626655	0.823043
H301	H	0.987965	0.008719	0.360717
H302	H	1.321298	0.342052	0.694050
H303	H	1.654632	0.675385	1.027383
H304	H	0.812911	0.202402	0.203694
H305	H	1.146244	0.535736	0.537027
H306	H	1.479578	0.869069	0.870360
N307	N	0.681428	0.110231	0.155777
N308	N	1.014761	0.443564	0.489110
N309	N	1.348095	0.776898	0.822443
H310	H	0.644400	0.109615	0.203256
H311	H	0.977733	0.442948	0.536589
H312	H	1.311067	0.776281	0.869922
H313	H	0.717417	0.062191	0.159053
H314	H	1.050751	0.395525	0.492386
H315	H	1.384084	0.728858	0.825719
N316	N	1.000759	-0.005373	0.807729
N317	N	1.334092	0.327960	1.141063
N318	N	1.667426	0.661294	1.474396
H319	H	0.993446	0.002724	0.869122
H320	H	1.326779	0.336057	1.202455
H321	H	1.660112	0.669391	1.535788
H322	H	0.988659	-0.060982	0.792618
H323	H	1.321992	0.272352	1.125952
H324	H	1.655326	0.605685	1.459285
