data_functionalizedCrystal
_audit_creation_method	'MofGen! by Chris Wilmer'
_symmetry_space_group_name_H-M	'P1'
_symmetry_Int_Tables_number	1
_symmetry_cell_setting	triclinic
loop_
_symmetry_equiv_pos_as_xyz
  x,y,z
_cell_length_a	14.908520
_cell_length_b	10.685972
_cell_length_c	10.686551
_cell_angle_alpha	98.409768
_cell_angle_beta	89.137942
_cell_angle_gamma	82.077935
loop_
_atom_site_label
_atom_site_type_symbol
_atom_site_fract_x
_atom_site_fract_y
_atom_site_fract_z
Zn1	Zn	-0.202254	-1.980592	-0.881887
Zn2	Zn	0.297746	-1.480592	-0.381887
Zn3	Zn	-0.365687	-1.951887	-0.681854
Zn4	Zn	0.134313	-1.451887	-0.181854
Zn5	Zn	-0.227358	-1.750132	-0.655225
Zn6	Zn	0.272642	-1.250132	-0.155225
Zn7	Zn	-0.365595	-1.756017	-0.877753
Zn8	Zn	0.134405	-1.256017	-0.377753
O9	O	-0.290224	-1.859657	-0.774180
O10	O	0.209776	-1.359657	-0.274180
O11	O	-0.213466	-2.155205	-0.868227
O12	O	0.286534	-1.655205	-0.368227
O13	O	-0.357882	-1.910648	-0.501479
O14	O	0.142118	-1.410648	-0.001479
O15	O	-0.097777	-1.790253	-0.675878
O16	O	0.402223	-1.290253	-0.175878
O17	O	-0.333540	-2.134115	-0.721264
O18	O	0.166460	-1.634115	-0.221264
O19	O	-0.079333	-1.959571	-0.842406
O20	O	0.420667	-1.459571	-0.342406
O21	O	-0.256252	-1.762419	-0.481914
O22	O	0.243748	-1.262419	0.018086
O23	O	-0.256163	-1.572492	-0.671869
O24	O	0.243837	-1.072492	-0.171869
O25	O	-0.333383	-1.800284	-1.055145
O26	O	0.166617	-1.300284	-0.555145
O27	O	-0.357725	-1.576816	-0.835360
O28	O	0.142275	-1.076816	-0.335360
O29	O	-0.213377	-1.965278	-1.058182
O30	O	0.286623	-1.465278	-0.558182
O31	O	-0.491926	-1.916355	-0.717255
O32	O	0.008074	-1.416355	-0.217255
O33	O	-0.491858	-1.772450	-0.861181
O34	O	0.008142	-1.272450	-0.361181
C35	C	-0.309659	-1.528392	-0.750277
C36	C	0.190341	-1.028392	-0.250277
C37	C	-0.317993	-1.386676	-0.740083
C38	C	0.182007	-0.886676	-0.240083
C39	C	-0.524624	-1.841963	-0.791689
C40	C	-0.024624	-1.341963	-0.291689
C41	C	-0.624892	-1.834513	-0.799230
C42	C	-0.124892	-1.334513	-0.299230
C43	C	-0.813298	-1.970541	-0.663673
C44	C	-0.313298	-1.470541	-0.163673
C45	C	-0.907508	-1.963545	-0.670755
C46	C	-0.407508	-1.463545	-0.170755
C47	C	-0.907525	-1.813534	-0.820482
C48	C	-0.407525	-1.313534	-0.320482
C49	C	-0.813314	-1.820530	-0.813400
C50	C	-0.313314	-1.320530	-0.313400
C51	C	-0.766204	-1.899034	-0.734991
C52	C	-0.266204	-1.399034	-0.234991
C53	C	-0.671992	-1.906022	-0.727904
C54	C	-0.171992	-1.406022	-0.227904
C55	C	-0.672010	-1.756019	-0.877636
C56	C	-0.172010	-1.256019	-0.377636
C57	C	-0.766220	-1.749023	-0.884718
C58	C	-0.266220	-1.249023	-0.384718
C59	C	-0.054904	-1.877458	-0.756633
C60	C	0.445096	-1.377458	-0.256633
C61	C	0.045375	-1.885043	-0.749155
C62	C	0.545375	-1.385043	-0.249155
C63	C	-0.270569	-1.886639	-1.103799
C64	C	0.229431	-1.386639	-0.603799
C65	C	-0.262194	-1.898138	-1.244263
C66	C	0.237806	-1.398138	-0.744263
C67	C	-0.270707	-1.192216	-0.798171
C68	C	0.229293	-0.692216	-0.298171
C69	C	-0.262376	-1.333933	-0.808378
C70	C	0.237624	-0.833933	-0.308378
C71	C	-0.309732	-1.832858	-0.445844
C72	C	0.190268	-1.332858	0.054156
C73	C	-0.317839	-1.821626	-0.305379
C74	C	0.182161	-1.321626	0.194621
H75	H	-0.633637	-1.969941	-0.664056
H76	H	-0.133637	-1.469941	-0.164056
O77	O	-0.190846	-1.417714	-0.896164
O78	O	0.309154	-0.917714	-0.396164
H79	H	-0.223936	-1.480597	-0.967713
H80	H	0.276064	-0.980597	-0.467713
H81	H	-0.945848	-2.021776	-0.612683
H82	H	-0.445848	-1.521776	-0.112683
O83	O	-0.389522	-1.302886	-0.652286
O84	O	0.110478	-0.802886	-0.152286
H85	H	-0.385072	-1.200991	-0.657785
H86	H	0.114928	-0.700991	-0.157785
H87	H	-0.371889	-1.747328	-1.250245
H88	H	0.128111	-1.247328	-0.750245
O89	O	-0.190579	-1.996550	-1.317284
O90	O	0.309421	-1.496550	-0.817284
H91	H	-0.195004	-1.990430	-1.419850
H92	H	0.304996	-1.490430	-0.919850
H93	H	-0.774941	-2.034453	-0.599820
H94	H	-0.274941	-1.534453	-0.099820
H95	H	-0.945897	-1.749629	-0.884327
H96	H	-0.445897	-1.249629	-0.384327
H97	H	-0.804590	-1.685111	-0.948559
H98	H	-0.304590	-1.185111	-0.448559
H99	H	-0.633656	-1.697789	-0.935705
H100	H	-0.133656	-1.197789	-0.435705
