data_functionalizedCrystal
_audit_creation_method	'MofGen! by Chris Wilmer'
_symmetry_space_group_name_H-M	'P1'
_symmetry_Int_Tables_number	1
_symmetry_cell_setting	triclinic
loop_
_symmetry_equiv_pos_as_xyz
  x,y,z
_cell_length_a	19.902436
_cell_length_b	14.560438
_cell_length_c	14.560438
_cell_angle_alpha	59.996693
_cell_angle_beta	89.997627
_cell_angle_gamma	60.003397
loop_
_atom_site_label
_atom_site_type_symbol
_atom_site_fract_x
_atom_site_fract_y
_atom_site_fract_z
Zr1	Zr	0.647247	1.005420	-0.120695
O2	O	0.539966	1.197013	-0.267338
O3	O	0.680134	0.813816	-0.075732
O4	O	0.680132	1.005428	-0.267348
O5	O	0.539972	1.005400	0.075419
O6	O	0.790697	1.005446	-0.267366
O7	O	0.539969	1.005402	-0.075722
O8	O	0.790702	0.662688	0.075401
O9	O	0.539967	1.348157	-0.267348
O10	O	0.776675	0.892643	-0.056579
O11	O	0.694163	0.892628	0.056229
O12	O	0.694160	1.118225	-0.169375
O13	O	0.611648	1.118210	-0.056567
Zr14	Zr	0.823592	1.005444	0.120329
Zr15	Zr	0.823587	1.005448	-0.120723
Zr16	Zr	0.647252	1.005416	0.120358
Zr17	Zr	0.647249	1.246477	-0.120710
Zr18	Zr	0.823590	0.764387	0.120345
O19	O	0.790705	1.197048	0.075367
O20	O	0.790698	1.197054	-0.267378
O21	O	0.539973	1.197008	0.075407
O22	O	0.930873	0.813851	0.266973
O23	O	0.930866	0.813857	-0.075772
O24	O	0.680141	0.813811	0.267013
O25	O	0.930867	1.005465	-0.075784
O26	O	0.790707	1.005437	0.266983
O27	O	0.680142	1.005419	0.267001
O28	O	0.930870	1.005462	0.075356
O29	O	0.680134	1.348180	-0.267370
O30	O	0.790705	0.662685	0.267005
O31	O	0.930872	0.662707	0.266983
O32	O	0.930868	0.662711	0.075378
O33	O	0.539971	1.348154	-0.075744
O34	O	0.680137	1.348177	-0.075766
O35	O	0.776679	0.892639	0.169010
O36	O	0.859191	0.892654	0.056202
O37	O	0.776676	1.118237	-0.056594
O38	O	0.694164	1.118222	0.056214
C39	C	0.735418	0.703907	-0.000163
C40	C	0.735417	0.601572	-0.000157
C41	C	0.674503	0.636777	-0.083429
C42	C	0.674506	0.540637	-0.083458
C43	C	0.796342	0.374087	0.083069
C44	C	0.796342	0.470227	0.083092
C45	C	0.514845	1.005397	-0.000147
C46	C	0.439985	1.005385	-0.000135
C47	C	0.167936	1.005449	-0.000198
C48	C	0.248479	0.863147	0.070617
C49	C	0.326382	0.863058	0.071015
C50	C	0.302903	1.005416	-0.000167
C51	C	0.248785	1.076084	0.051721
C52	C	0.171223	1.075175	0.052239
C53	C	0.170080	1.078100	-0.122931
C54	C	0.248958	1.075426	-0.122737
C55	C	0.379178	1.005405	-0.000150
C56	C	0.091660	1.005464	-0.000211
C57	C	0.955994	1.005468	-0.000218
C58	C	1.030854	1.005480	-0.000230
C59	C	0.735414	1.005437	-0.301702
C60	C	0.735412	1.005439	-0.404035
C61	C	0.735421	1.306958	-0.000202
C62	C	0.735422	1.409293	-0.000209
C63	C	0.692341	1.123189	-0.510990
C64	C	0.692351	1.123183	-0.607138
C65	C	0.778503	0.887667	-0.489364
C66	C	0.778498	0.887674	-0.393218
C67	C	0.735425	1.005427	0.301337
C68	C	0.735427	1.005425	0.403670
C69	C	0.955992	0.703942	-0.000199
C70	C	1.030852	0.601619	-0.000204
C71	C	0.735423	0.703902	0.301356
C72	C	0.735425	0.601565	0.403696
C73	C	0.955997	0.703937	0.301321
C74	C	1.030860	0.601613	0.403648
C75	C	0.514842	1.306927	-0.301686
C76	C	0.439979	1.409252	-0.404014
C77	C	0.514847	1.306922	-0.000167
C78	C	0.439987	1.409245	-0.000161
C79	C	0.735416	1.306963	-0.301721
C80	C	0.735414	1.409300	-0.404061
C81	C	1.022935	0.553561	-0.059087
C82	C	1.093267	0.457431	-0.059115
C83	C	1.171516	0.409355	-0.000252
C84	C	1.179432	0.457422	0.058633
C85	C	1.109100	0.553557	0.058654
C86	C	1.109093	0.553568	0.392818
C87	C	1.179441	0.457436	0.488956
C88	C	1.171553	0.409345	0.595924
C89	C	1.093311	0.457399	0.606752
C90	C	1.022965	0.553535	0.510615
C91	C	0.361746	1.457308	-0.393183
C92	C	0.291398	1.553470	-0.489321
C93	C	0.299286	1.601566	-0.596289
C94	C	0.377528	1.553506	-0.607118
C95	C	0.447874	1.457353	-0.510980
C96	C	0.447904	1.457313	0.058712
C97	C	0.377572	1.553470	0.058713
C98	C	0.299323	1.601550	-0.000153
C99	C	0.291407	1.553478	-0.059034
C100	C	0.361739	1.457330	-0.059041
C101	C	0.778497	0.553491	0.510646
C102	C	0.778489	0.457344	0.606801
C103	C	0.692335	0.457349	0.489042
C104	C	0.692339	0.553501	0.392889
H105	H	0.365768	0.807632	0.036196
H106	H	0.355281	1.418196	-0.106979
Br107	Br	1.119860	0.618760	0.138582
Br108	Br	0.185205	1.618740	-0.138915
Br109	Br	1.267032	0.278872	0.726387
Br110	Br	0.351018	1.392052	-0.248025
H111	H	0.845950	0.441549	0.150905
Br112	Br	0.388219	1.618791	-0.752297
H113	H	0.511612	1.418173	0.106656
Br114	Br	1.082620	0.392118	0.751932
Br115	Br	0.836942	0.392111	0.751948
Br116	Br	0.554046	1.392138	-0.525699
Br117	Br	0.836970	0.618718	0.525314
Br118	Br	0.633865	0.392113	0.474386
Br119	Br	0.215829	1.250551	-0.030109
Br120	Br	0.633873	1.283011	-0.525672
Br121	Br	1.082505	0.392215	-0.139033
Br122	Br	0.633898	1.282993	-0.752291
H123	H	0.250173	0.807289	0.035996
H124	H	0.657260	0.592647	0.305800
H125	H	0.624890	0.743721	-0.151209
H126	H	0.845944	0.267137	0.150847
Br127	Br	0.075461	1.252825	-0.211284
H128	H	0.624904	0.569315	-0.151268
H129	H	0.249228	0.807571	0.160609
H130	H	0.959266	0.592641	0.519449
H131	H	0.813581	0.791787	-0.480571
Br132	Br	0.391451	0.770065	0.221918
Br133	Br	1.285634	0.392157	0.138517
Br134	Br	1.266959	0.278884	-0.000291
H135	H	1.115532	0.592710	0.305728
H136	H	0.171419	1.024953	0.142554
Br137	Br	0.076156	1.249185	-0.028180
Br138	Br	0.185223	1.618672	-0.474599
H139	H	0.384033	1.592594	0.106665
H140	H	0.286240	1.027003	0.141179
H141	H	0.167090	1.032561	-0.166276
Br142	Br	0.311160	0.989538	-0.187346
H143	H	0.230433	1.179285	-0.179938
H144	H	0.813576	0.791783	-0.306125
Br145	Br	0.916748	0.618791	-0.138986
Br146	Br	1.285616	0.392237	0.474234
H147	H	0.241999	1.679860	-0.674561
H148	H	0.242061	1.679840	-0.000138
