data_functionalizedCrystal
_audit_creation_method	'MofGen! by Chris Wilmer'
_symmetry_space_group_name_H-M	'P1'
_symmetry_Int_Tables_number	1
_symmetry_cell_setting	triclinic
loop_
_symmetry_equiv_pos_as_xyz
  x,y,z
_cell_length_a	15.944551
_cell_length_b	17.038272
_cell_length_c	14.421503
_cell_angle_alpha	90.004327
_cell_angle_beta	89.996859
_cell_angle_gamma	87.305147
loop_
_atom_site_label
_atom_site_type_symbol
_atom_site_fract_x
_atom_site_fract_y
_atom_site_fract_z
O1	O	1.121728	0.100827	-0.077015
O2	O	0.878066	0.113259	-0.077039
O3	O	0.998449	-0.006773	-0.077020
O4	O	1.001345	0.220859	-0.077034
O5	O	0.998429	-0.006755	0.077204
O6	O	0.878046	0.113277	0.077185
O7	O	1.121708	0.100845	0.077208
Cu8	Cu	0.999875	0.107062	0.091278
Cu9	Cu	0.999899	0.107041	-0.091109
O10	O	1.001325	0.220877	0.077189
C11	C	0.846725	0.112752	0.000070
C12	C	0.753369	0.111205	0.000062
C13	C	0.995805	-0.035893	0.000092
C14	C	0.987945	-0.122688	0.000091
C15	C	0.532936	0.033105	0.000085
C16	C	0.474515	0.069363	-0.075958
C17	C	0.582443	0.108405	0.000073
C18	C	0.474519	0.069398	0.076094
C19	C	0.417337	0.105696	0.000088
C20	C	0.525252	0.144684	-0.076033
C21	C	0.525261	0.144709	0.076088
C22	C	0.466862	0.181022	0.000027
C23	C	0.677557	0.109964	0.000063
C24	C	0.322225	0.104143	0.000090
C25	C	1.060103	-0.172781	0.000098
C26	C	1.052713	-0.254334	0.000089
C27	C	0.973165	-0.285792	0.000078
C28	C	0.901002	-0.235693	0.000068
C29	C	0.908393	-0.154142	0.000071
C30	C	0.947056	-0.531558	0.000063
C31	C	0.939671	-0.613115	0.000063
C32	C	1.091383	-0.631751	0.000083
C33	C	1.098766	-0.550197	0.000091
C34	C	1.026603	-0.500105	0.000075
C35	C	0.965610	-0.369152	0.000071
C36	C	1.034159	-0.416747	0.000076
C37	C	1.153049	0.101352	0.000097
C38	C	1.246405	0.102899	0.000100
C39	C	1.003969	0.249997	0.000076
C40	C	1.011829	0.336792	0.000071
N41	N	0.999865	0.107077	0.219560
N42	N	0.999916	0.107021	-0.219390
C43	C	0.944187	0.162555	0.469205
C44	C	1.021171	0.177734	0.531013
C45	C	0.999884	0.107058	0.408721
C46	C	0.922921	0.091897	0.531006
C47	C	0.999895	0.107042	0.591442
C48	C	1.076908	0.122272	0.469169
C49	C	0.978606	0.036405	0.469156
C50	C	1.055642	0.051554	0.530937
C51	C	0.999876	0.107070	0.303460
C52	C	0.999912	0.107030	0.696701
H53	H	0.561807	-0.029389	-0.000006
C54	C	0.834985	0.074579	0.567697
N55	N	0.768749	0.061540	0.595329
H56	H	1.098927	-0.391130	0.000064
C57	C	0.444279	0.026325	-0.162800
N58	N	0.421507	-0.006096	-0.228205
H59	H	1.039179	0.237476	0.558183
H60	H	1.102803	0.004613	0.557872
H61	H	0.547656	0.176539	0.140376
H62	H	0.874891	-0.638725	0.000069
H63	H	0.897141	0.209524	0.442099
C64	C	0.444300	0.026364	0.162943
N65	N	0.421543	-0.006054	0.228354
C66	C	1.147613	-0.138185	0.000110
N67	N	1.213527	-0.112130	0.000115
H68	H	0.438170	0.243580	-0.000020
H69	H	1.163543	-0.524590	0.000100
H70	H	1.111472	-0.295117	0.000097
H71	H	0.849634	-0.113356	0.000064
C72	C	0.813498	-0.270300	0.000064
N73	N	0.747589	-0.296365	0.000068
H74	H	0.900842	-0.394774	0.000065
C75	C	1.170757	-0.686858	0.000091
N76	N	1.230544	-0.728365	0.000093
H77	H	1.142019	0.135160	0.442121
C78	C	0.954245	-0.044277	0.432415
N79	N	0.935888	-0.105047	0.404738
H80	H	0.888296	-0.490782	0.000051
C81	C	0.555333	0.187662	-0.162983
N82	N	0.577992	0.220029	-0.228476
