data_functionalizedCrystal
_audit_creation_method	'MofGen! by Chris Wilmer'
_symmetry_space_group_name_H-M	'P1'
_symmetry_Int_Tables_number	1
_symmetry_cell_setting	triclinic
loop_
_symmetry_equiv_pos_as_xyz
  x,y,z
_cell_length_a	14.044191
_cell_length_b	14.044220
_cell_length_c	13.101039
_cell_angle_alpha	93.667477
_cell_angle_beta	86.337551
_cell_angle_gamma	93.190327
loop_
_atom_site_label
_atom_site_type_symbol
_atom_site_fract_x
_atom_site_fract_y
_atom_site_fract_z
O1	O	1.281976	0.225377	-0.085169
O2	O	1.781976	0.725377	0.414831
O3	O	1.005305	0.217064	-0.085182
O4	O	1.505305	0.717064	0.414818
O5	O	1.139487	0.082885	-0.085166
O6	O	1.639487	0.582885	0.414834
O7	O	1.147794	0.359556	-0.085186
O8	O	1.647794	0.859556	0.414814
O9	O	1.129861	0.092530	0.085263
O10	O	1.629861	0.592530	0.585263
O11	O	0.995679	0.226708	0.085247
O12	O	1.495679	0.726708	0.585247
O13	O	1.272350	0.235022	0.085259
O14	O	1.772350	0.735022	0.585259
Zn15	Zn	1.132486	0.232396	0.112312
Zn16	Zn	1.632486	0.732396	0.612312
Zn17	Zn	1.145169	0.219689	-0.112235
Zn18	Zn	1.645169	0.719689	0.387765
O19	O	1.138168	0.369200	0.085243
O20	O	1.638168	0.869200	0.585243
C21	C	0.964870	0.218250	0.000031
C22	C	1.464870	0.718250	0.500031
C23	C	0.858727	0.207402	0.000026
C24	C	1.358727	0.707402	0.500026
C25	C	1.131038	0.052086	0.000049
C26	C	1.631038	0.552086	0.500049
C27	C	1.120194	-0.054057	0.000050
C28	C	1.620194	0.445943	0.500050
C29	C	0.613268	0.264503	0.000032
C30	C	1.113268	0.764503	0.500032
C31	C	0.664393	0.187587	0.000036
C32	C	1.164393	0.687587	0.500036
C33	C	0.772531	0.198615	0.000031
C34	C	1.272531	0.698615	0.500031
C35	C	0.505121	0.253476	0.000038
C36	C	1.005121	0.753476	0.500038
C37	C	1.100368	-0.248396	0.000034
C38	C	1.600368	0.251604	0.500034
C39	C	1.177283	-0.299524	0.000034
C40	C	1.677283	0.200476	0.500034
C41	C	1.166252	-0.407661	0.000026
C42	C	1.666252	0.092339	0.500026
C43	C	1.111398	-0.140250	0.000043
C44	C	1.611398	0.359750	0.500043
C45	C	1.312785	0.233836	0.000044
C46	C	1.812785	0.733836	0.500044
C47	C	1.418929	0.244683	0.000042
C48	C	1.918929	0.744683	0.500042
C49	C	1.146617	0.400000	0.000026
C50	C	1.646617	0.900000	0.500026
C51	C	1.157462	0.506143	0.000019
C52	C	1.657462	1.006143	0.500019
N53	N	1.123838	0.241069	0.265560
N54	N	1.623838	0.741069	0.765560
N55	N	1.153824	0.211010	-0.265482
N56	N	1.653824	0.711010	0.234518
C57	C	1.112072	0.252876	0.474601
C58	C	1.612072	0.752876	0.974601
C59	C	1.165588	0.199205	0.525483
C60	C	1.665588	0.699205	1.025483
C61	C	1.159041	0.205775	0.641801
C62	C	1.659041	0.705775	1.141801
C63	C	1.118617	0.246308	0.358273
C64	C	1.618617	0.746308	0.858273
H65	H	0.626954	0.113451	-0.000031
H66	H	1.126954	0.613451	0.499969
O67	O	1.011873	-0.292938	0.000168
O68	O	1.511873	0.207062	0.500168
C69	C	0.856790	-0.311873	0.088499
C70	C	1.356790	0.188127	0.588499
C71	C	0.956966	-0.261333	0.088458
C72	C	1.456966	0.238667	0.588458
H73	H	0.812376	-0.286355	0.159884
H74	H	1.312376	0.213645	0.659884
H75	H	0.820296	-0.294352	0.017226
H76	H	1.320296	0.205648	0.517226
H77	H	0.863564	-0.392391	0.088445
H78	H	1.363564	0.107609	0.588445
H79	H	0.950277	-0.180804	0.088548
H80	H	1.450277	0.319196	0.588548
H81	H	0.993423	-0.278932	0.159724
H82	H	1.493423	0.221068	0.659724
O83	O	0.657985	0.352907	-0.000165
O84	O	1.157985	0.852907	0.499835
C85	C	0.771115	0.459046	-0.088457
C86	C	1.271115	0.959046	0.411543
C87	C	0.720510	0.358904	-0.088368
C88	C	1.220510	0.858904	0.411632
H89	H	0.821692	0.463921	-0.159751
H90	H	1.321692	0.963921	0.340249
H91	H	0.715613	0.515266	-0.088529
H92	H	1.215613	1.015266	0.411471
H93	H	0.813552	0.472067	-0.017106
H94	H	1.313552	0.972067	0.482894
H95	H	0.678074	0.345791	-0.159708
H96	H	1.178074	0.845791	0.340292
H97	H	0.776057	0.302737	-0.088243
H98	H	1.276057	0.802737	0.411757
H99	H	1.216322	0.148323	0.481687
H100	H	1.716322	0.648323	0.981687
H101	H	1.251420	-0.262087	-0.000031
H102	H	1.751420	0.237913	0.499969
O103	O	1.051636	0.313564	0.526998
O104	O	1.551636	0.813564	1.026998
C105	C	0.989868	0.375457	0.692400
C106	C	1.489868	0.875457	1.192400
C107	C	1.058362	0.306703	0.633173
C108	C	1.558362	0.806703	1.133173
H109	H	0.995269	0.369919	0.778253
H110	H	1.495269	0.869919	1.278253
H111	H	1.010071	0.451816	0.671451
H112	H	1.510071	0.951816	1.171451
H113	H	0.913499	0.355486	0.671331
H114	H	1.413499	0.855486	1.171331
H115	H	1.134753	0.326587	0.654210
H116	H	1.634753	0.826587	1.154210
H117	H	1.038077	0.230363	0.654127
H118	H	1.538077	0.730363	1.154127
