data_functionalizedCrystal
_audit_creation_method	'MofGen! by Chris Wilmer'
_symmetry_space_group_name_H-M	'P1'
_symmetry_Int_Tables_number	1
_symmetry_cell_setting	triclinic
loop_
_symmetry_equiv_pos_as_xyz
  x,y,z
_cell_length_a	15.297327
_cell_length_b	21.395362
_cell_length_c	21.395356
_cell_angle_alpha	90.042977
_cell_angle_beta	99.650480
_cell_angle_gamma	80.274117
loop_
_atom_site_label
_atom_site_type_symbol
_atom_site_fract_x
_atom_site_fract_y
_atom_site_fract_z
Zn1	Zn	-0.358826	-0.914748	-0.397682
Zn2	Zn	-0.509702	-0.896527	-0.311025
Zn3	Zn	-0.358892	-0.809956	-0.292891
Zn4	Zn	-0.509697	-0.791807	-0.415729
O5	O	-0.434279	-0.853260	-0.354332
O6	O	-0.378815	-1.000011	-0.386223
O7	O	-0.489727	-0.885013	-0.220945
O8	O	-0.232629	-0.839078	-0.291650
O9	O	-0.489663	-0.986625	-0.322557
O10	O	-0.232581	-0.916067	-0.368639
O11	O	-0.378928	-0.821410	-0.207622
O12	O	-0.378922	-0.719868	-0.309150
O13	O	-0.489653	-0.808146	-0.501009
O14	O	-0.489717	-0.706534	-0.399398
O15	O	-0.378809	-0.898469	-0.487750
O16	O	-0.635956	-0.867415	-0.340056
O17	O	-0.635952	-0.790478	-0.416982
C18	C	-0.434327	-0.690466	-0.354265
C19	C	-0.434369	-0.620820	-0.354254
C20	C	-0.668690	-0.825017	-0.382459
C21	C	-0.768972	-0.812992	-0.394513
C22	C	-0.434223	-0.853316	-0.517748
C23	C	-0.434200	-0.853339	-0.587387
C24	C	-1.051533	-0.939462	-0.268395
C25	C	-0.957313	-0.950760	-0.257066
C26	C	-0.910223	-0.916319	-0.291427
C27	C	-0.957362	-0.870578	-0.337118
C28	C	-1.051591	-0.859276	-0.348444
C29	C	-0.910281	-0.836133	-0.371476
C30	C	-0.957420	-0.790392	-0.417167
C31	C	-1.051640	-0.779092	-0.428491
C32	C	-1.098730	-0.813533	-0.394131
C33	C	-0.816052	-0.847435	-0.360150
C34	C	-0.816111	-0.767249	-0.440200
C35	C	-0.910330	-0.755951	-0.451528
C36	C	-0.198953	-0.881630	-0.326109
C37	C	-0.098672	-0.893719	-0.314081
C38	C	-0.434232	-1.016689	-0.354399
C39	C	-0.434212	-1.086332	-0.354428
C40	C	-0.492137	-0.581171	-0.401195
C41	C	-0.492115	-0.515738	-0.401221
C42	C	-0.434334	-0.489956	-0.354294
C43	C	-0.376556	-0.529614	-0.307348
C44	C	-0.376573	-0.595046	-0.307328
C45	C	-0.427079	-0.387103	-0.297018
C46	C	-0.427068	-0.321672	-0.297037
C47	C	-0.434276	-0.288142	-0.354356
C48	C	-0.441513	-0.320050	-0.411659
C49	C	-0.441530	-0.385482	-0.411639
C50	C	-0.434309	-0.419006	-0.354311
C51	C	-0.492022	-0.177543	-0.401329
C52	C	-0.491994	-0.112110	-0.401355
C53	C	-0.376440	-0.125986	-0.307477
C54	C	-0.376463	-0.191419	-0.307457
C55	C	-0.434259	-0.217193	-0.354382
C56	C	-0.376500	-0.820233	-0.613152
C57	C	-0.376483	-0.820233	-0.678586
C58	C	-0.434157	-0.853352	-0.718250
C59	C	-0.491868	-0.886460	-0.692478
C60	C	-0.491889	-0.886454	-0.627047
C61	C	-0.441227	-0.908954	-0.822805
C62	C	-0.441200	-0.908962	-0.888234
C63	C	-0.434096	-0.853369	-0.920064
C64	C	-0.427001	-0.797769	-0.886453
C65	C	-0.427022	-0.797763	-0.821021
C66	C	-0.434140	-0.853361	-0.789201
C67	C	-0.376375	-0.820259	-1.016779
C68	C	-0.376364	-0.820257	-1.082214
C69	C	-0.491744	-0.886491	-1.096105
C70	C	-0.491759	-0.886486	-1.030672
C71	C	-0.434070	-0.853372	-0.991012
C72	C	-0.434270	-0.853248	-0.191543
C73	C	-0.434040	-0.853376	-0.121875
H74	H	-0.777680	-0.884678	-0.322948
H75	H	-0.421210	-0.752501	-0.912366
H76	H	-0.329493	-0.793275	-0.699567
H77	H	-0.446972	-0.954235	-0.915595
H78	H	-0.948724	-0.718708	-0.488730
Br79	Br	-0.298013	-0.091004	-0.243795
H80	H	-0.539079	-0.198530	-0.439541
H81	H	-0.833505	-0.925520	-0.282200
Br82	Br	-0.298210	-0.775290	-0.559331
H83	H	-0.777771	-0.739203	-0.468178
H84	H	-0.329509	-0.508618	-0.269141
H85	H	-1.090018	-0.741839	-0.465689
H86	H	-0.447380	-0.292751	-0.458334
Br87	Br	-0.570392	-0.058299	-0.465071
Br88	Br	-0.298060	-0.245232	-0.243746
H89	H	-0.539198	-0.602152	-0.439407
Br90	Br	-0.570147	-0.931401	-0.746308
H91	H	-0.447421	-0.411459	-0.458297
H92	H	-0.329381	-0.793293	-1.103191
H93	H	-1.089882	-0.967495	-0.240419
H94	H	-0.421181	-0.295697	-0.250379
Br95	Br	-0.450879	-0.984407	-0.779616
H96	H	-0.421247	-0.752491	-0.793658
H97	H	-0.538701	-0.913458	-1.128399
H98	H	-0.421206	-0.414399	-0.250338
Br99	Br	-0.893344	-1.012839	-0.195065
Br100	Br	-0.570517	-0.461919	-0.464933
H101	H	-1.175452	-0.804338	-0.403353
Br102	Br	-0.298166	-0.648859	-0.243618
Br103	Br	-0.570202	-0.931387	-0.592077
H104	H	-0.538742	-0.913447	-1.009694
Br105	Br	-0.298088	-0.775317	-0.962952
