data_functionalizedCrystal
_audit_creation_method	'MofGen! by Chris Wilmer'
_symmetry_space_group_name_H-M	'P1'
_symmetry_Int_Tables_number	1
_symmetry_cell_setting	triclinic
loop_
_symmetry_equiv_pos_as_xyz
  x,y,z
_cell_length_a	18.215407
_cell_length_b	13.031981
_cell_length_c	18.215398
_cell_angle_alpha	82.791416
_cell_angle_beta	89.983001
_cell_angle_gamma	97.189335
loop_
_atom_site_label
_atom_site_type_symbol
_atom_site_fract_x
_atom_site_fract_y
_atom_site_fract_z
Zn1	Zn	1.087906	-0.416214	-0.378821
Zn2	Zn	1.072209	-0.590997	-0.240114
Zn3	Zn	0.964838	-0.416232	-0.255772
Zn4	Zn	0.949204	-0.590937	-0.363149
O5	O	1.018539	-0.503595	-0.309464
O6	O	1.188807	-0.439417	-0.360427
O7	O	1.057940	-0.567846	-0.139204
O8	O	0.994275	-0.269968	-0.285207
O9	O	1.177274	-0.567829	-0.258519
O10	O	1.084693	-0.269955	-0.375610
O11	O	0.979055	-0.439447	-0.150708
O12	O	0.859782	-0.439389	-0.270010
O13	O	0.967629	-0.567727	-0.468215
O14	O	0.848295	-0.567744	-0.348900
O15	O	1.069533	-0.439359	-0.479729
O16	O	1.042780	-0.737250	-0.243323
O17	O	0.952409	-0.737207	-0.333717
C18	C	0.827336	-0.503563	-0.309454
C19	C	0.745536	-0.503574	-0.309465
C20	C	0.563334	-0.436848	-0.362590
C21	C	0.486474	-0.436857	-0.362592
C22	C	0.474494	-0.570371	-0.256348
C23	C	0.551353	-0.570356	-0.256344
C24	C	0.595771	-0.503596	-0.309469
C25	C	0.442052	-0.503620	-0.309475
C26	C	0.358718	-0.503630	-0.309476
C27	C	0.679111	-0.503584	-0.309467
C28	C	0.994215	-0.775153	-0.285136
C29	C	0.983876	-0.891326	-0.274753
C30	C	1.023974	-0.943030	-0.314898
C31	C	1.013290	-1.063102	-0.304167
C32	C	1.210489	-0.503628	-0.309474
C33	C	1.292287	-0.503642	-0.309479
C34	C	1.018588	-0.503535	-0.501422
C35	C	1.018609	-0.503509	-0.583224
C36	C	1.042979	-0.230977	-0.333903
C37	C	1.053394	-0.114803	-0.344318
C38	C	1.059730	-0.570238	-0.842307
C39	C	1.059716	-0.570274	-0.765445
C40	C	0.977562	-0.436579	-0.777407
C41	C	0.977573	-0.436549	-0.854267
C42	C	1.018661	-0.503377	-0.886715
C43	C	1.018636	-0.503443	-0.732993
C44	C	1.018620	-0.503482	-0.649656
C45	C	1.018676	-0.503339	-0.970058
C46	C	1.018540	-0.503579	-0.118259
C47	C	1.018688	-0.503310	-0.036485
H48	H	0.438320	-0.624726	-0.213096
H49	H	0.971043	-1.107724	-0.261855
O50	O	1.099729	-0.635007	-0.873873
C51	C	1.197814	-0.649049	-0.959437
C52	C	1.152583	-0.575575	-0.923736
H53	H	1.240546	-0.601029	-0.999770
H54	H	1.227218	-0.696825	-0.914525
H55	H	1.159118	-0.703705	-0.990484
H56	H	1.191228	-0.520856	-0.892694
H57	H	1.123170	-0.527873	-0.968681
H58	H	1.093158	-0.624719	-0.729291
O59	O	1.103801	-1.061742	-0.394856
C60	C	1.196166	-1.072838	-0.487285
C61	C	1.139096	-1.133059	-0.430091
H62	H	1.224729	-1.130472	-0.515777
H63	H	1.166906	-1.021763	-0.530319
H64	H	1.239154	-1.021684	-0.458057
H65	H	1.096093	-1.184269	-0.459254
H66	H	1.168407	-1.184068	-0.387060
O67	O	0.933535	-0.944716	-0.224283
C68	C	0.876931	-1.113068	-0.167627
C69	C	0.933982	-1.052738	-0.224798
H70	H	0.877262	-1.200414	-0.168036
H71	H	0.891769	-1.091785	-0.110168
H72	H	0.819483	-1.091657	-0.182392
H73	H	0.991450	-1.074116	-0.210103
H74	H	0.919080	-1.074027	-0.282241
H75	H	1.066212	-0.898406	-0.357214
O76	O	0.582744	-0.635299	-0.204707
C77	C	0.562762	-0.767684	-0.099300
C78	C	0.527113	-0.694216	-0.157745
H79	H	0.517802	-0.815322	-0.061306
H80	H	0.593838	-0.822459	-0.128081
H81	H	0.603051	-0.719599	-0.065211
H82	H	0.486791	-0.742217	-0.191851
H83	H	0.496084	-0.639438	-0.128918
H84	H	0.944111	-0.382169	-0.750978
O85	O	0.606397	-0.372047	-0.414288
C86	C	0.634507	-0.321575	-0.544050
C87	C	0.585677	-0.395015	-0.485581
H88	H	0.617783	-0.340133	-0.601703
H89	H	0.626921	-0.237259	-0.538835
H90	H	0.695010	-0.333013	-0.534888
H91	H	0.525156	-0.383670	-0.494705
H92	H	0.593327	-0.479304	-0.490811
H93	H	0.944126	-0.382101	-0.890426
H94	H	0.460068	-0.382502	-0.405848
