data_functionalizedCrystal
_audit_creation_method	'MofGen! by Chris Wilmer'
_symmetry_space_group_name_H-M	'P1'
_symmetry_Int_Tables_number	1
_symmetry_cell_setting	triclinic
loop_
_symmetry_equiv_pos_as_xyz
  x,y,z
_cell_length_a	16.793024
_cell_length_b	16.793047
_cell_length_c	33.586455
_cell_angle_alpha	113.253857
_cell_angle_beta	66.219990
_cell_angle_gamma	112.758327
loop_
_atom_site_label
_atom_site_type_symbol
_atom_site_fract_x
_atom_site_fract_y
_atom_site_fract_z
O1	O	0.005016	-0.570216	-0.583573
O2	O	-0.034529	-0.474528	-0.453458
O3	O	0.114723	-0.474535	-0.528082
O4	O	-0.144235	-0.570209	-0.508949
O5	O	0.108729	-0.346329	-0.530229
O6	O	-0.040523	-0.346322	-0.455605
O7	O	-0.000977	-0.442010	-0.585721
Cu8	Cu	-0.021297	-0.382459	-0.520859
Cu9	Cu	-0.014209	-0.534079	-0.518320
O10	O	-0.150229	-0.442003	-0.511097
C11	C	0.005100	-0.790970	-0.238461
C12	C	0.009223	-0.693065	-0.217557
C13	C	0.003804	-0.645758	-0.241627
C14	C	-0.075059	-0.538459	-0.266316
C15	C	0.049838	-0.422849	-0.250165
C16	C	-0.040584	-0.395375	-0.435637
C17	C	-0.044693	-0.353446	-0.386631
C18	C	-0.039275	-0.401741	-0.363054
C19	C	-0.040566	-0.125547	-0.300731
C20	C	-0.044689	-0.223451	-0.321635
C21	C	-0.039266	-0.270752	-0.297563
C22	C	0.039597	-0.378051	-0.272874
C23	C	-0.085304	-0.493667	-0.289026
C24	C	0.005118	-0.521142	-0.103554
C25	C	0.009231	-0.563064	-0.152559
C26	C	0.003809	-0.514775	-0.176138
C27	C	0.010758	-0.652581	-0.172822
C28	C	0.001010	-0.556371	-0.220792
C29	C	-0.008251	-0.506059	-0.245823
C30	C	-0.046224	-0.263935	-0.366370
C31	C	-0.036476	-0.360146	-0.318399
C32	C	-0.027211	-0.410451	-0.293367
C33	C	0.815184	-0.521162	-0.508596
C34	C	0.717729	-0.563083	-0.506815
C35	C	0.669923	-0.514793	-0.509201
C36	C	0.564072	-0.463272	-0.548285
C37	C	0.445555	-0.498966	-0.486078
C38	C	0.415541	-0.125553	-0.528781
C39	C	0.375032	-0.223457	-0.531493
C40	C	0.423813	-0.270761	-0.529101
C41	C	0.149318	-0.395376	-0.530584
C42	C	0.246774	-0.353455	-0.532364
C43	C	0.294574	-0.401748	-0.529976
C44	C	0.400424	-0.453269	-0.490892
C45	C	0.518948	-0.417572	-0.553101
C46	C	0.548961	-0.790984	-0.510398
C47	C	0.589464	-0.693083	-0.507684
C48	C	0.540690	-0.645776	-0.510078
C49	C	0.678399	-0.652598	-0.506649
C50	C	0.581167	-0.556389	-0.510877
C51	C	0.530434	-0.506073	-0.515170
C52	C	0.286104	-0.263940	-0.532530
C53	C	0.383336	-0.360149	-0.528302
C54	C	0.434062	-0.410467	-0.524008
C55	C	-0.040530	-0.395407	-0.935652
C56	C	-0.044651	-0.353482	-0.886645
C57	C	-0.039242	-0.401770	-0.863061
C58	C	0.039602	-0.453292	-0.810474
C59	C	-0.085288	-0.417587	-0.750981
C60	C	0.005063	-0.791004	-0.738448
C61	C	0.009186	-0.693099	-0.717543
C62	C	0.003779	-0.645796	-0.741620
C63	C	0.005077	-0.521171	-0.603544
C64	C	0.009198	-0.563096	-0.652550
C65	C	0.003786	-0.514804	-0.676131
C66	C	-0.075058	-0.463283	-0.728717
C67	C	0.049835	-0.498991	-0.788214
C68	C	-0.040516	-0.125574	-0.800747
C69	C	-0.044642	-0.223476	-0.821649
C70	C	-0.039232	-0.270782	-0.797575
C71	C	-0.046172	-0.263965	-0.866386
C72	C	-0.036447	-0.360171	-0.818406
C73	C	-0.027197	-0.410486	-0.793373
C74	C	0.010719	-0.652613	-0.672809
C75	C	0.000994	-0.556406	-0.720789
C76	C	-0.008259	-0.506089	-0.745819
O77	O	-0.000965	0.173549	-0.277957
O78	O	-0.040516	-0.085616	-0.325254
O79	O	0.108737	0.059592	-0.327284
O80	O	-0.150219	0.028341	-0.275927
O81	O	0.114753	0.055151	-0.263265
O82	O	-0.034500	-0.090057	-0.261234
O83	O	0.005051	0.169108	-0.213937
Cu84	Cu	-0.014175	0.039120	-0.231740
Cu85	Cu	-0.021290	0.044372	-0.307451
O86	O	-0.144202	0.023900	-0.211907
O87	O	-0.034458	-0.474571	0.046517
O88	O	0.005076	-0.570190	-0.083599
O89	O	-0.144170	-0.570237	-0.008972
O90	O	0.114787	-0.474523	-0.028110
O91	O	-0.150200	-0.442024	-0.011093
O92	O	-0.000954	-0.441976	-0.085720
O93	O	-0.040488	-0.346357	0.044396
Cu94	Cu	-0.021272	-0.382460	-0.020856
Cu95	Cu	-0.014141	-0.534087	-0.018347
O96	O	0.108757	-0.346309	-0.030231
C97	C	-0.850734	0.086244	-0.289716
C98	C	-0.753280	0.087165	-0.312001
C99	C	-0.705462	0.081107	-0.288506
C100	C	-0.599592	0.000085	-0.264184
C101	C	-0.481080	0.121287	-0.283645
C102	C	-0.450996	0.035117	-0.097351
C103	C	-0.410501	0.028587	-0.146852
C104	C	-0.459292	0.034683	-0.169840
C105	C	-0.184802	0.024283	-0.235878
C106	C	-0.282257	0.023363	-0.213592
C107	C	-0.330068	0.029423	-0.237088
C108	C	-0.435938	0.110445	-0.261411
C109	C	-0.554456	-0.010759	-0.241948
C110	C	-0.584541	0.075410	-0.428242
C111	C	-0.625029	0.081943	-0.378743
C112	C	-0.576244	0.075844	-0.355753
C113	C	-0.713963	0.086424	-0.357292
C114	C	-0.616708	0.075351	-0.310510
C115	C	-0.565963	0.065400	-0.286043
C116	C	-0.321573	0.024104	-0.168302
C117	C	-0.418828	0.035176	-0.215083
C118	C	-0.469568	0.045131	-0.239552
O119	O	0.585213	0.169090	-0.504004
O120	O	0.494056	-0.090076	-0.525516
O121	O	0.488081	0.055124	-0.449918
O122	O	0.591189	0.023889	-0.579602
O123	O	0.359978	0.059584	-0.452885
O124	O	0.365953	-0.085616	-0.528483
O125	O	0.457110	0.173550	-0.506971
Cu126	Cu	0.399835	0.044374	-0.517998
Cu127	Cu	0.551332	0.039099	-0.514489
O128	O	0.463086	0.028349	-0.582569
C129	C	0.815354	-0.521094	-0.008709
C130	C	0.717898	-0.563028	-0.006927
C131	C	0.670072	-0.514739	-0.009298
C132	C	0.564182	-0.463204	-0.048354
C133	C	0.445681	-0.498945	0.013847
C134	C	0.415547	-0.125494	-0.028771
C135	C	0.375059	-0.223405	-0.031498
C136	C	0.423859	-0.270708	-0.029121
C137	C	0.149365	-0.395355	-0.030599
C138	C	0.246820	-0.353421	-0.032381
C139	C	0.294640	-0.401713	-0.030008
C140	C	0.400530	-0.453248	0.009048
C141	C	0.519038	-0.417504	-0.053155
C142	C	0.549171	-0.790955	-0.010537
C143	C	0.589653	-0.693047	-0.007809
C144	C	0.540859	-0.645741	-0.010187
C145	C	0.678588	-0.652551	-0.006775
C146	C	0.581317	-0.556344	-0.010973
C147	C	0.530562	-0.506029	-0.015250
C148	C	0.286131	-0.263897	-0.032533
C149	C	0.383402	-0.360104	-0.028335
C150	C	0.434150	-0.410423	-0.024057
O151	O	-0.620614	0.089309	0.052274
O152	O	-0.529507	0.043784	-0.078544
O153	O	-0.523494	0.194833	-0.006033
O154	O	-0.626628	-0.061740	-0.020236
O155	O	-0.395386	0.185419	-0.005549
O156	O	-0.401400	0.034370	-0.078059
O157	O	-0.492507	0.079895	0.052758
Cu158	Cu	-0.435256	0.056273	-0.012607
Cu159	Cu	-0.586758	0.067406	-0.013179
O160	O	-0.498521	-0.071154	-0.019752
C161	C	-0.437537	0.048335	0.402491
C162	C	-0.397043	0.041789	0.352989
C163	C	-0.445822	0.047883	0.329994
C164	C	-0.496646	0.126653	0.277022
C165	C	-0.465894	-0.000633	0.218811
C166	C	-0.837226	0.099430	0.210091
C167	C	-0.739773	0.100339	0.187806
C168	C	-0.691967	0.094287	0.211308
C169	C	-0.571027	0.088563	0.071568
C170	C	-0.611521	0.095108	0.121070
C171	C	-0.562739	0.089011	0.144061
C172	C	-0.511915	0.010241	0.197033
C173	C	-0.542670	0.137531	0.255247
C174	C	-0.171338	0.037467	0.263967
C175	C	-0.268788	0.036555	0.286249
C176	C	-0.316597	0.042611	0.262750
C177	C	-0.308112	0.037305	0.331542
C178	C	-0.405351	0.048369	0.284750
C179	C	-0.456092	0.058317	0.260279
C180	C	-0.700452	0.099593	0.142516
C181	C	-0.603213	0.088528	0.189308
C182	C	-0.552469	0.078578	0.213776
O183	O	-0.040608	-1.085661	-0.825229
O184	O	-0.001018	-0.826491	-0.777938
O185	O	-0.150287	-0.971682	-0.775894
O186	O	0.108661	-0.940470	-0.827272
O187	O	-0.144253	-0.976123	-0.711878
O188	O	0.005016	-0.830932	-0.713922
O189	O	-0.034575	-1.090102	-0.761213
Cu190	Cu	-0.014228	-0.960923	-0.731722
Cu191	Cu	-0.021364	-0.955670	-0.807428
O192	O	0.114695	-0.944911	-0.763256
N193	N	-0.036407	-0.225921	-0.249165
H194	H	-0.039036	-0.161729	-0.239716
H195	H	-0.089781	-0.259822	-0.228626
N196	N	-0.161329	-0.534401	-0.310263
H197	H	-0.197676	-0.594663	-0.304310
H198	H	-0.201751	-0.492883	-0.296637
N199	N	0.103841	-0.447427	-0.856807
H200	H	0.149872	-0.481060	-0.865962
H201	H	0.068765	-0.475061	-0.879601
H202	H	-0.754334	0.089615	-0.376700
N203	N	0.000976	-0.417916	-0.653682
H204	H	-0.053657	-0.414314	-0.626010
H205	H	0.057664	-0.381116	-0.644313
H206	H	0.261721	-0.474856	-0.029430
H207	H	-0.267732	0.034117	0.350946
N208	N	0.232629	-0.211043	-0.033910
H209	H	0.177483	-0.209057	-0.006451
H210	H	0.271558	-0.147708	-0.033850
N211	N	0.000966	-0.417896	-0.153694
H212	H	-0.056948	-0.411522	-0.153071
H213	H	0.003640	-0.399113	-0.121647
N214	N	-0.139285	-0.469118	-0.682381
H215	H	-0.185309	-0.435478	-0.673229
H216	H	-0.171244	-0.534342	-0.683343
H217	H	0.001632	-0.679646	-0.778160
N218	N	0.713668	-0.417853	-0.010064
H219	H	0.677855	-0.378169	0.016894
H220	H	0.777540	-0.399105	-0.008643
N221	N	0.732073	-0.705405	-0.005384
H222	H	0.693159	-0.768726	-0.005388
H223	H	0.787151	-0.707448	-0.032875
N224	N	0.232629	-0.211071	-0.533917
H225	H	0.263889	-0.189466	-0.561995
H226	H	0.169874	-0.250861	-0.534588
N227	N	-0.749070	0.080752	-0.239475
H228	H	-0.804361	0.027654	-0.236935
H229	H	-0.704617	0.076016	-0.227881
H230	H	0.107227	-0.532615	-0.804368
N231	N	-0.268090	0.019886	-0.142594
H232	H	-0.248530	-0.037556	-0.157830
H233	H	-0.212984	0.073351	-0.142347
N234	N	-0.161310	-0.373052	-0.729592
H235	H	-0.197661	-0.383964	-0.698967
H236	H	-0.135336	-0.306175	-0.725736
H237	H	0.413699	-0.532573	-0.457601
N238	N	0.307782	-0.447422	0.041208
H239	H	0.289938	-0.481071	0.063990
H240	H	0.308838	-0.382199	0.057628
H241	H	0.718758	-0.692512	-0.505593
H242	H	-0.048809	-0.224052	-0.886301
N243	N	0.403515	-0.543491	0.051556
H244	H	0.342119	-0.532586	0.069809
H245	H	0.396702	-0.610367	0.038120
H246	H	-0.037138	-0.474881	-0.380005
N247	N	-0.555490	0.040747	-0.146123
H248	H	-0.597092	-0.011949	-0.162473
H249	H	-0.573448	0.039501	-0.113784
H250	H	-0.037104	-0.474911	-0.880014
H251	H	0.468233	-0.679598	-0.011487
N252	N	0.656934	-0.469048	-0.080510
H253	H	0.653087	-0.499302	-0.112564
H254	H	0.699305	-0.406427	-0.078385
H255	H	-0.669612	-0.046576	-0.265443
H256	H	0.550886	-0.383867	-0.081621
N257	N	-0.480036	0.069813	-0.379472
H258	H	-0.455097	0.065833	-0.357728
H259	H	-0.478726	0.014420	-0.406422
N260	N	0.103784	-0.287091	-0.276640
H261	H	0.149804	-0.270019	-0.260438
H262	H	0.135754	-0.289830	-0.309678
H263	H	0.496488	-0.236853	-0.027824
H264	H	0.468064	-0.679625	-0.511379
H265	H	-0.586315	-0.066836	-0.224702
N266	N	-0.466541	0.082948	0.120343
H267	H	-0.448507	0.084219	0.088001
H268	H	-0.425007	0.135657	0.136727
H269	H	-0.518563	-0.039000	0.162804
N270	N	0.125874	-0.382127	-0.228937
H271	H	0.162224	-0.321865	-0.234889
H272	H	0.099916	-0.373705	-0.195146
H273	H	0.550810	-0.383955	-0.581575
H274	H	-0.037089	-0.236932	-0.761035
H275	H	0.013347	-0.692513	-0.652885
H276	H	-0.123560	-0.607102	-0.263443
H277	H	-0.048864	-0.224020	-0.386283
H278	H	-0.518447	0.052455	0.347905
H279	H	-0.434254	-0.059305	0.203012
H280	H	-0.283673	0.042875	0.225734
N281	N	-0.286467	0.029792	-0.286118
H282	H	-0.222597	0.025182	-0.296399
H283	H	-0.322349	-0.023145	-0.305443
N284	N	0.250970	-0.498634	-0.529213
H285	H	0.187104	-0.517462	-0.530659
H286	H	0.286861	-0.538243	-0.556171
H287	H	-0.365918	0.157102	-0.260160
N288	N	0.307679	-0.447417	-0.458738
H289	H	0.289820	-0.481050	-0.435947
H290	H	0.308746	-0.382189	-0.442327
H291	H	-0.489994	0.175891	0.311254
N292	N	-0.584599	0.215234	0.276174
H293	H	-0.571883	0.252053	0.306131
H294	H	-0.557904	0.254368	0.255049
H295	H	0.013390	-0.692483	-0.152899
H296	H	-0.740818	0.102779	0.123104
N297	N	-0.438908	0.195583	-0.306476
H298	H	-0.377514	0.230421	-0.301851
H299	H	-0.432090	0.168547	-0.340007
N300	N	-0.735569	0.093943	0.260341
H301	H	-0.790864	0.040850	0.262884
H302	H	-0.691116	0.089204	0.271933
N303	N	0.000959	-0.690590	-0.290027
H304	H	0.003587	-0.754781	-0.299473
H305	H	-0.056952	-0.690205	-0.292403
H306	H	0.634089	-0.467700	-0.572564
N307	N	0.713535	-0.417914	-0.509977
H308	H	0.731855	-0.381030	-0.481413
H309	H	0.768791	-0.414419	-0.537293
N310	N	0.520019	-0.225940	-0.527384
H311	H	0.538061	-0.161749	-0.528272
H312	H	0.524776	-0.226325	-0.498432
