data_functionalizedCrystal
_audit_creation_method	'MofGen! by Chris Wilmer'
_symmetry_space_group_name_H-M	'P1'
_symmetry_Int_Tables_number	1
_symmetry_cell_setting	triclinic
loop_
_symmetry_equiv_pos_as_xyz
  x,y,z
_cell_length_a	16.120484
_cell_length_b	16.120566
_cell_length_c	16.120297
_cell_angle_alpha	89.874982
_cell_angle_beta	95.614431
_cell_angle_gamma	89.831930
loop_
_atom_site_label
_atom_site_type_symbol
_atom_site_fract_x
_atom_site_fract_y
_atom_site_fract_z
Zn1	Zn	-0.422255	-1.224984	-0.554879
Zn2	Zn	-0.172255	-0.974984	-0.304879
Zn3	Zn	0.077745	-0.724984	-0.054879
Zn4	Zn	0.327745	-0.474984	0.195121
Zn5	Zn	-0.554939	-1.224880	-0.422184
Zn6	Zn	-0.304939	-0.974880	-0.172184
Zn7	Zn	-0.054939	-0.724880	0.077816
Zn8	Zn	0.195061	-0.474880	0.327816
Zn9	Zn	-0.408172	-1.093724	-0.408115
Zn10	Zn	-0.158172	-0.843724	-0.158115
Zn11	Zn	0.091828	-0.593724	0.091885
Zn12	Zn	0.341828	-0.343724	0.341885
Zn13	Zn	-0.554173	-1.078877	-0.554109
Zn14	Zn	-0.304173	-0.828877	-0.304109
Zn15	Zn	-0.054173	-0.578877	-0.054109
Zn16	Zn	0.195827	-0.328877	0.195891
O17	O	-0.484885	-1.155616	-0.484822
O18	O	-0.234885	-0.905616	-0.234822
O19	O	0.015115	-0.655616	0.015178
O20	O	0.265115	-0.405616	0.265178
O21	O	-0.446070	-1.341006	-0.543487
O22	O	-0.196070	-1.091006	-0.293487
O23	O	0.053930	-0.841006	-0.043487
O24	O	0.303930	-0.591006	0.206513
O25	O	-0.529897	-1.213651	-0.303685
O26	O	-0.279897	-0.963651	-0.053685
O27	O	-0.029897	-0.713651	0.196315
O28	O	0.220103	-0.463651	0.446315
O29	O	-0.293409	-1.117393	-0.422018
O30	O	-0.043409	-0.867393	-0.172018
O31	O	0.206591	-0.617393	0.077982
O32	O	0.456591	-0.367393	0.327982
O33	O	-0.543553	-1.340929	-0.445997
O34	O	-0.293553	-1.090929	-0.195997
O35	O	-0.043553	-0.840929	0.054003
O36	O	0.206447	-0.590929	0.304003
O37	O	-0.303756	-1.213829	-0.529845
O38	O	-0.053756	-0.963829	-0.279845
O39	O	0.196244	-0.713829	-0.029845
O40	O	0.446244	-0.463829	0.220155
O41	O	-0.422067	-1.117292	-0.293349
O42	O	-0.172067	-0.867292	-0.043349
O43	O	0.077933	-0.617292	0.206651
O44	O	0.327933	-0.367292	0.456651
O45	O	-0.421324	-0.975719	-0.421271
O46	O	-0.171324	-0.725719	-0.171271
O47	O	0.078676	-0.475719	0.078729
O48	O	0.328676	-0.225719	0.328729
O49	O	-0.542247	-1.092089	-0.670843
O50	O	-0.292247	-0.842089	-0.420843
O51	O	-0.042247	-0.592089	-0.170843
O52	O	0.207753	-0.342089	0.079157
O53	O	-0.528591	-0.964811	-0.528532
O54	O	-0.278591	-0.714811	-0.278532
O55	O	-0.028591	-0.464811	-0.028532
O56	O	0.221409	-0.214811	0.221468
O57	O	-0.445327	-1.199433	-0.671409
O58	O	-0.195327	-0.949433	-0.421409
O59	O	0.054673	-0.699433	-0.171409
O60	O	0.304673	-0.449433	0.078591
O61	O	-0.671468	-1.199255	-0.445250
O62	O	-0.421468	-0.949255	-0.195250
O63	O	-0.171468	-0.699255	0.054750
O64	O	0.078532	-0.449255	0.304750
O65	O	-0.670905	-1.091988	-0.542174
O66	O	-0.420905	-0.841988	-0.292174
O67	O	-0.170905	-0.591988	-0.042174
O68	O	0.079095	-0.341988	0.207826
C69	C	-0.473347	-0.940178	-0.473291
C70	C	-0.223347	-0.690178	-0.223291
C71	C	0.026653	-0.440178	0.026709
C72	C	0.276653	-0.190178	0.276709
C73	C	-0.468432	-0.848011	-0.468379
C74	C	-0.218432	-0.598011	-0.218379
C75	C	0.031568	-0.348011	0.031621
C76	C	0.281568	-0.098011	0.281621
C77	C	-0.701429	-1.144021	-0.495174
C78	C	-0.451429	-0.894021	-0.245174
C79	C	-0.201429	-0.644021	0.004826
C80	C	0.048571	-0.394021	0.254826
C81	C	-0.794074	-1.139134	-0.499635
C82	C	-0.544074	-0.889134	-0.249635
C83	C	-0.294074	-0.639134	0.000365
C84	C	-0.044074	-0.389134	0.250365
C85	C	-0.963697	-1.130217	-0.507797
C86	C	-0.713697	-0.880217	-0.257797
C87	C	-0.463697	-0.630217	-0.007797
C88	C	-0.213697	-0.380217	0.242203
C89	C	-1.005240	-1.181163	-0.461868
C90	C	-0.755240	-0.931163	-0.211868
C91	C	-0.505240	-0.681163	0.038132
C92	C	-0.255240	-0.431163	0.288132
C93	C	-1.099624	-1.176202	-0.466409
C94	C	-0.849624	-0.926202	-0.216409
C95	C	-0.599624	-0.676202	0.033591
C96	C	-0.349624	-0.426202	0.283591
C97	C	-0.869304	-1.135178	-0.503257
C98	C	-0.619304	-0.885178	-0.253257
C99	C	-0.369304	-0.635178	-0.003257
C100	C	-0.119304	-0.385178	0.246743
C101	C	-0.459439	-0.679260	-0.459418
C102	C	-0.209439	-0.429260	-0.209418
C103	C	0.040561	-0.179260	0.040582
C104	C	0.290561	0.070740	0.290582
C105	C	-0.510402	-0.632809	-0.510236
C106	C	-0.260402	-0.382809	-0.260236
C107	C	-0.010402	-0.132809	-0.010236
C108	C	0.239598	0.117191	0.239764
C109	C	-0.505398	-0.538910	-0.505249
C110	C	-0.255398	-0.288910	-0.255249
C111	C	-0.005398	-0.038910	-0.005249
C112	C	0.244602	0.211090	0.244751
C113	C	-0.464442	-0.773167	-0.464403
C114	C	-0.214442	-0.523167	-0.214403
C115	C	0.035558	-0.273167	0.035597
C116	C	0.285558	-0.023167	0.285597
C117	C	-0.267496	-1.167279	-0.474448
C118	C	-0.017496	-0.917279	-0.224448
C119	C	0.232504	-0.667279	0.025552
C120	C	0.482504	-0.417279	0.275552
C121	C	-0.174858	-1.172249	-0.470027
C122	C	0.075142	-0.922249	-0.220027
C123	C	0.325142	-0.672249	0.029973
C124	C	0.575142	-0.422249	0.279973
C125	C	-0.495272	-1.144117	-0.702213
C126	C	-0.245272	-0.894117	-0.452213
C127	C	0.004728	-0.644117	-0.202213
C128	C	0.254728	-0.394117	0.047787
C129	C	-0.499699	-1.139216	-0.794853
C130	C	-0.249699	-0.889216	-0.544853
C131	C	0.000301	-0.639216	-0.294853
C132	C	0.250301	-0.389216	-0.044853
C133	C	-0.496470	-0.371896	-0.496384
C134	C	-0.246470	-0.121896	-0.246384
C135	C	0.003530	0.128104	0.003616
C136	C	0.253530	0.378104	0.253616
C137	C	-0.501412	-0.464063	-0.501277
C138	C	-0.251412	-0.214063	-0.251277
C139	C	-0.001412	0.035937	-0.001277
C140	C	0.248588	0.285937	0.248723
C141	C	-0.507761	-1.130240	-0.964463
C142	C	-0.257761	-0.880240	-0.714463
C143	C	-0.007761	-0.630240	-0.464463
C144	C	0.242239	-0.380240	-0.214463
C145	C	-0.461767	-1.181169	-1.006028
C146	C	-0.211767	-0.931169	-0.756028
C147	C	0.038233	-0.681169	-0.506028
C148	C	0.288233	-0.431169	-0.256028
C149	C	-0.466253	-1.176175	-1.100406
C150	C	-0.216253	-0.926175	-0.850406
C151	C	0.033747	-0.676175	-0.600406
C152	C	0.283747	-0.426175	-0.350406
C153	C	-0.503276	-1.135233	-0.870078
C154	C	-0.253276	-0.885233	-0.620078
C155	C	-0.003276	-0.635233	-0.370078
C156	C	0.246724	-0.385233	-0.120078
C157	C	-0.474480	-1.167122	-0.268275
C158	C	-0.224480	-0.917122	-0.018275
C159	C	0.025520	-0.667122	0.231725
C160	C	0.275520	-0.417122	0.481725
C161	C	-0.469827	-1.172196	-0.175634
C162	C	-0.219827	-0.922196	0.074366
C163	C	0.030173	-0.672196	0.324366
C164	C	0.280173	-0.422196	0.574366
H165	H	-0.969921	-1.228505	-0.419135
H166	H	-0.719921	-0.978505	-0.169135
H167	H	-0.469921	-0.728505	0.080865
H168	H	-0.219921	-0.478505	0.330865
O169	O	-1.010476	-1.067497	-0.564382
O170	O	-0.760476	-0.817497	-0.314382
O171	O	-0.510476	-0.567497	-0.064382
O172	O	-0.260476	-0.317497	0.185618
H173	H	-1.054110	-1.100281	-0.610666
H174	H	-0.804110	-0.850281	-0.360666
H175	H	-0.554110	-0.600281	-0.110666
H176	H	-0.304110	-0.350281	0.139334
H177	H	-0.557789	-0.663561	-0.557488
H178	H	-0.307789	-0.413561	-0.307488
H179	H	-0.057789	-0.163561	-0.057488
H180	H	0.192211	0.086439	0.192512
O181	O	-0.396673	-0.638543	-0.396820
O182	O	-0.146673	-0.388543	-0.146820
O183	O	0.103327	-0.138543	0.103180
O184	O	0.353327	0.111457	0.353180
H185	H	-0.408612	-0.657805	-0.332930
H186	H	-0.158612	-0.407805	-0.082930
H187	H	0.091388	-0.157805	0.167070
H188	H	0.341388	0.092195	0.417070
H189	H	-0.419021	-1.228521	-0.970734
H190	H	-0.169021	-0.978521	-0.720734
H191	H	0.080979	-0.728521	-0.470734
H192	H	0.330979	-0.478521	-0.220734
O193	O	-0.564382	-1.067518	-1.011204
O194	O	-0.314382	-0.817518	-0.761204
O195	O	-0.064382	-0.567518	-0.511204
O196	O	0.185618	-0.317518	-0.261204
H197	H	-0.559065	-1.073397	-1.079071
H198	H	-0.309065	-0.823397	-0.829071
H199	H	-0.059065	-0.573397	-0.579071
H200	H	0.190935	-0.323397	-0.329071
