data_functionalizedCrystal
_audit_creation_method	'MofGen! by Chris Wilmer'
_symmetry_space_group_name_H-M	'P1'
_symmetry_Int_Tables_number	1
_symmetry_cell_setting	triclinic
loop_
_symmetry_equiv_pos_as_xyz
  x,y,z
_cell_length_a	15.944551
_cell_length_b	15.944551
_cell_length_c	14.421503
_cell_angle_alpha	90.003141
_cell_angle_beta	90.003340
_cell_angle_gamma	96.501262
loop_
_atom_site_label
_atom_site_type_symbol
_atom_site_fract_x
_atom_site_fract_y
_atom_site_fract_z
O1	O	0.108320	-1.114529	-0.077017
O2	O	0.121677	-0.869980	-0.077040
O3	O	-0.007276	-0.998933	-0.077020
O4	O	0.237273	-0.985576	-0.077038
O5	O	-0.007257	-0.998911	0.077204
O6	O	0.121696	-0.869958	0.077183
O7	O	0.108340	-1.114508	0.077206
Cu8	Cu	0.115020	-0.992231	0.091277
Cu9	Cu	0.114997	-0.992256	-0.091110
O10	O	0.237293	-0.985555	0.077186
C11	C	0.121132	-0.838675	0.000069
C12	C	0.119470	-0.745429	0.000060
C13	C	-0.038561	-0.998367	0.000092
C14	C	-0.131807	-0.996705	0.000093
N15	N	0.115035	-0.992219	0.219558
C16	C	-0.346663	-0.912801	0.000072
C17	C	-0.407671	-0.951753	0.076117
C18	C	-0.302533	-0.993698	0.000085
C19	C	-0.407674	-0.951793	-0.075935
C20	C	-0.467445	-0.990787	0.000074
C21	C	-0.362312	-1.032672	0.076193
C22	C	-0.362308	-1.032701	-0.075927
C23	C	-0.423298	-1.071711	0.000136
C24	C	-0.207530	-0.995372	0.000092
C25	C	-0.562446	-0.989119	0.000073
C26	C	0.268577	-0.986120	0.000072
C27	C	0.361823	-0.987782	0.000066
C28	C	0.108885	-1.145813	0.000096
C29	C	0.110547	-1.239059	0.000098
C30	C	0.035565	-0.530572	0.000084
C31	C	0.074518	-0.469563	-0.075959
C32	C	0.116462	-0.574703	0.000071
C33	C	0.074556	-0.469564	0.076093
C34	C	0.113551	-0.409790	0.000086
C35	C	0.155437	-0.514922	-0.076035
C36	C	0.155464	-0.514929	0.076086
C37	C	0.194476	-0.453937	0.000024
C38	C	0.118137	-0.669705	0.000062
C39	C	0.111883	-0.314789	0.000089
N40	N	0.114975	-0.992275	-0.219392
C41	C	0.174636	-0.932581	0.469202
C42	C	0.190943	-1.008481	0.531011
C43	C	0.115015	-0.992240	0.408719
C44	C	0.098727	-0.916359	0.531005
C45	C	0.114997	-0.992253	0.591441
C46	C	0.131360	-1.068178	0.469167
C47	C	0.039111	-0.976007	0.469156
C48	C	0.055386	-1.051961	0.530936
C49	C	0.115027	-0.992231	0.303458
C50	C	0.114985	-0.992270	0.696700
H51	H	-0.427771	-0.917527	0.140401
O52	O	-0.431762	-0.911088	-0.152660
C53	C	-0.487645	-0.966759	-0.205712
H54	H	-0.518610	-1.019230	-0.159233
H55	H	-0.451154	-0.995412	-0.263404
C56	C	-0.518123	-0.853538	-0.305602
C57	C	-0.556159	-0.917980	-0.248513
H58	H	-0.560384	-0.823450	-0.332008
H59	H	-0.480471	-0.816032	-0.269863
H60	H	-0.487715	-0.877426	-0.353671
H61	H	-0.586557	-0.894091	-0.200439
H62	H	-0.593818	-0.955481	-0.284246
H63	H	0.189660	-0.535052	0.140373
O64	O	0.148014	-1.144761	0.437043
C65	C	0.227799	-1.161852	0.469335
H66	H	0.244813	-1.123301	0.534603
H67	H	0.277296	-1.144133	0.413542
C68	C	0.204208	-1.303885	0.411645
C69	C	0.225102	-1.256541	0.491814
H70	H	0.202547	-1.362294	0.425508
H71	H	0.150457	-1.292370	0.389887
H72	H	0.245459	-1.289110	0.365159
H73	H	0.183846	-1.271309	0.538294
H74	H	0.278847	-1.268061	0.513581
O75	O	-0.044497	-0.570416	-0.000118
C76	C	-0.056655	-0.621844	-0.079606
H77	H	0.007036	-0.638056	-0.105733
H78	H	-0.088480	-0.586624	-0.136037
C79	C	-0.191206	-0.683786	-0.022819
C80	C	-0.112981	-0.703704	-0.054905
H81	H	-0.225954	-0.734279	-0.007585
H82	H	-0.183018	-0.649136	0.030732
H83	H	-0.217717	-0.654434	-0.069850
H84	H	-0.086467	-0.733045	-0.007870
H85	H	-0.121166	-0.738361	-0.108448
H86	H	-0.342314	-1.066850	0.140554
H87	H	-0.342186	-1.066897	-0.140214
O88	O	-0.037399	-0.959438	0.436752
C89	C	-0.054325	-0.879339	0.468223
H90	H	0.007599	-0.839473	0.485603
H91	H	-0.095620	-0.887016	0.532876
C92	C	-0.176737	-0.884287	0.370440
C93	C	-0.100680	-0.835321	0.391779
H94	H	-0.205335	-0.857135	0.323289
H95	H	-0.165337	-0.938253	0.349240
H96	H	-0.211139	-0.890681	0.424324
H97	H	-0.066275	-0.828936	0.337899
H98	H	-0.112076	-0.781353	0.412969
H99	H	0.225096	-0.882181	0.442096
H100	H	0.261683	-0.420779	-0.000023
H101	H	0.084959	-0.852183	0.558170
H102	H	0.004956	-1.102474	0.557872
O103	O	0.267448	-1.024900	0.563591
C104	C	0.266130	-1.025413	0.661345
H105	H	0.198197	-1.039103	0.686556
H106	H	0.294419	-0.961205	0.688451
C107	C	0.401677	-1.077398	0.666492
C108	C	0.318242	-1.094220	0.697457
H109	H	0.433825	-1.119839	0.688769
H110	H	0.402567	-1.077050	0.600633
H111	H	0.425240	-1.023890	0.689082
H112	H	0.294677	-1.147722	0.674857
H113	H	0.317349	-1.094579	0.763313
O114	O	-0.462827	-1.151900	0.000355
C115	C	-0.439686	-1.194220	0.080625
H116	H	-0.417773	-1.145989	0.136402
H117	H	-0.386200	-1.233333	0.063212
C118	C	-0.543171	-1.312001	0.047974
C119	C	-0.516264	-1.252764	0.116485
H120	H	-0.590406	-1.348117	0.070093
H121	H	-0.558760	-1.283491	-0.006107
H122	H	-0.498593	-1.344586	0.033470
H123	H	-0.560839	-1.220173	0.130979
H124	H	-0.500685	-1.281269	0.170569
O125	O	0.033557	-0.445631	-0.152580
C126	C	-0.050186	-0.485050	-0.152318
H127	H	-0.069671	-0.503291	-0.078319
H128	H	-0.054593	-0.544131	-0.197386
C129	C	-0.085459	-0.401258	-0.281998
C130	C	-0.109392	-0.423655	-0.191111
H131	H	-0.121981	-0.363390	-0.305931
H132	H	-0.029039	-0.374703	-0.282178
H133	H	-0.089132	-0.450498	-0.319543
H134	H	-0.105709	-0.374418	-0.153565
H135	H	-0.165814	-0.450202	-0.190926
O136	O	0.033620	-0.445702	0.152761
C137	C	-0.050134	-0.485095	0.152461
H138	H	-0.054165	-0.544501	0.107948
H139	H	-0.093699	-0.439847	0.122780
C140	C	-0.072375	-0.436036	0.307027
C141	C	-0.077325	-0.509003	0.252362
H142	H	-0.089151	-0.450781	0.368651
H143	H	-0.015950	-0.409493	0.307229
H144	H	-0.108680	-0.398336	0.282283
H145	H	-0.041014	-0.546697	0.277100
H146	H	-0.133745	-0.535553	0.252167
O147	O	0.196157	-0.538918	-0.152790
C148	C	0.197218	-0.627216	-0.151879
H149	H	0.143303	-0.657408	-0.106810
H150	H	0.259939	-0.642966	-0.122485
C151	C	0.252700	-0.624524	-0.306823
C152	C	0.186476	-0.661607	-0.251475
H153	H	0.246078	-0.645739	-0.368258
H154	H	0.251989	-0.565036	-0.307436
H155	H	0.304961	-0.637652	-0.282317
H156	H	0.134218	-0.648470	-0.275974
H157	H	0.187178	-0.721094	-0.250868
H158	H	-0.313356	-0.845652	0.000141
