data_functionalizedCrystal
_audit_creation_method	'MofGen! by Chris Wilmer'
_symmetry_space_group_name_H-M	'P1'
_symmetry_Int_Tables_number	1
_symmetry_cell_setting	triclinic
loop_
_symmetry_equiv_pos_as_xyz
  x,y,z
_cell_length_a	13.897449
_cell_length_b	12.759399
_cell_length_c	12.759393
_cell_angle_alpha	89.969069
_cell_angle_beta	89.980637
_cell_angle_gamma	90.016396
loop_
_atom_site_label
_atom_site_type_symbol
_atom_site_fract_x
_atom_site_fract_y
_atom_site_fract_z
Zn1	Zn	1.474707	-0.418179	-0.594035
Zn2	Zn	1.474612	-0.593895	-0.418354
Zn3	Zn	1.313400	-0.418235	-0.418369
Zn4	Zn	1.313385	-0.593821	-0.593989
O5	O	1.394026	-0.506032	-0.506187
O6	O	1.609676	-0.441496	-0.570744
O7	O	1.453193	-0.570647	-0.271335
O8	O	1.334843	-0.271206	-0.441696
O9	O	1.609606	-0.570594	-0.441672
O10	O	1.453355	-0.271166	-0.570758
O11	O	1.334751	-0.441590	-0.271345
O12	O	1.178416	-0.441518	-0.441652
O13	O	1.334818	-0.570467	-0.741017
O14	O	1.178405	-0.570521	-0.570680
O15	O	1.453341	-0.441424	-0.741050
O16	O	1.453179	-0.740906	-0.441627
O17	O	1.334726	-0.740852	-0.570666
C18	C	1.393967	-0.779000	-0.506163
C19	C	1.394030	-0.895776	-0.506188
C20	C	1.143412	-0.506018	-0.506163
C21	C	1.036198	-0.506038	-0.506178
C22	C	1.455778	-0.950632	-0.439074
C23	C	1.455840	-1.060356	-0.439109
C24	C	1.332397	-1.060359	-0.573375
C25	C	1.332340	-0.950637	-0.573344
C26	C	1.569695	-1.210232	-0.401723
C27	C	1.631436	-1.265091	-0.334593
C28	C	1.646278	-1.229551	-0.232083
C29	C	1.599367	-1.139153	-0.196682
C30	C	1.537620	-1.084299	-0.263807
C31	C	1.522795	-1.119838	-0.366332
C32	C	1.218484	-0.800759	-0.610720
C33	C	1.156731	-0.745904	-0.677840
C34	C	1.141878	-0.781442	-0.780352
C35	C	1.188773	-0.871844	-0.815749
C36	C	1.250526	-0.926699	-0.748628
C37	C	1.265380	-0.891153	-0.646118
C38	C	0.839903	-0.506041	-0.506205
C39	C	0.949135	-0.506036	-0.506187
C40	C	1.645619	-0.506047	-0.506212
C41	C	1.752833	-0.506054	-0.506222
C42	C	1.394088	-0.505931	-0.780220
C43	C	1.394115	-0.505888	-0.896997
C44	C	1.394112	-0.231999	-0.506234
C45	C	1.394148	-0.115222	-0.506254
C46	C	1.332421	-0.573050	-0.951843
C47	C	1.332455	-0.573011	-1.061567
C48	C	1.455880	-0.438640	-1.061590
C49	C	1.455850	-0.438685	-0.951867
C50	C	1.297992	-0.696852	-1.211500
C51	C	1.236283	-0.764004	-1.266350
C52	C	1.142148	-0.780141	-1.230733
C53	C	1.109703	-0.729111	-1.140268
C54	C	1.171407	-0.661952	-1.085424
C55	C	1.265555	-0.645834	-1.121039
C56	C	1.490304	-0.314843	-0.801933
C57	C	1.552003	-0.247677	-0.747086
C58	C	1.646140	-0.231528	-0.782701
C59	C	1.678581	-0.282540	-0.873169
C60	C	1.616881	-0.349706	-0.928016
C61	C	1.522746	-0.365856	-0.892393
C62	C	1.394019	-0.506057	-0.233219
C63	C	1.394179	-0.505804	-0.116443
H64	H	1.506011	-0.905967	-0.384392
Cl65	Cl	1.254816	-0.657538	-0.882867
Cl66	Cl	1.170103	-0.916525	-0.944625
H67	H	1.091591	-0.736770	-0.834999
Cl68	Cl	1.064573	-0.864560	-1.299690
Cl69	Cl	1.723702	-0.147083	-0.713753
Cl70	Cl	1.097744	-0.632280	-0.633325
Cl71	Cl	1.618019	-1.094487	-0.067799
Cl72	Cl	1.478643	-0.970667	-0.219311
H73	H	1.230580	-0.771809	-0.527248
Cl74	Cl	1.309482	-1.040348	-0.793129
H75	H	1.144990	-0.620401	-1.011772
H76	H	1.696550	-1.274224	-0.177425
H77	H	1.262708	-0.805552	-1.340007
H78	H	1.033045	-0.742246	-1.111284
Cl79	Cl	1.416343	-0.676584	-1.256273
Cl80	Cl	1.690408	-1.378729	-0.379096
Cl81	Cl	1.533482	-0.354157	-1.130577
H82	H	1.557625	-1.239171	-0.485198
Cl83	Cl	1.511218	-0.183546	-0.633353
H84	H	1.282170	-1.105040	-0.628050
H85	H	1.413651	-0.327990	-0.772923
Cl86	Cl	1.657664	-0.413830	-1.041754
H87	H	1.755232	-0.269385	-0.902173
