data_functionalizedCrystal
_audit_creation_method	'MofGen! by Chris Wilmer'
_symmetry_space_group_name_H-M	'P1'
_symmetry_Int_Tables_number	1
_symmetry_cell_setting	triclinic
loop_
_symmetry_equiv_pos_as_xyz
  x,y,z
_cell_length_a	12.759401
_cell_length_b	29.839131
_cell_length_c	29.839126
_cell_angle_alpha	89.970347
_cell_angle_beta	89.977178
_cell_angle_gamma	90.035390
loop_
_atom_site_label
_atom_site_type_symbol
_atom_site_fract_x
_atom_site_fract_y
_atom_site_fract_z
Zn1	Zn	1.606150	-0.178895	-0.253946
Zn2	Zn	1.605968	-0.254013	-0.178806
Zn3	Zn	1.430439	-0.178898	-0.178833
Zn4	Zn	1.430378	-0.253999	-0.253912
O5	O	1.518234	-0.216451	-0.216374
O6	O	1.753147	-0.188865	-0.243982
O7	O	1.582633	-0.244056	-0.115943
O8	O	1.453849	-0.116031	-0.188822
O9	O	1.753014	-0.244053	-0.188777
O10	O	1.582943	-0.116029	-0.244008
O11	O	1.453673	-0.188869	-0.115962
O12	O	1.283410	-0.188856	-0.188789
O13	O	1.453745	-0.244030	-0.316783
O14	O	1.283365	-0.244032	-0.243949
O15	O	1.582884	-0.188851	-0.316809
O16	O	1.582574	-0.316878	-0.188743
O17	O	1.453569	-0.316868	-0.243923
C18	C	1.245267	-0.216443	-0.216368
C19	C	1.128490	-0.216450	-0.216376
C20	C	1.073632	-0.245227	-0.245051
C21	C	0.963908	-0.245233	-0.245055
C22	C	0.963909	-0.187684	-0.187708
C23	C	1.073631	-0.187677	-0.187706
C24	C	1.128490	-0.274001	-0.273721
C25	C	1.073632	-0.302780	-0.302398
C26	C	0.963908	-0.302786	-0.302402
C27	C	0.909042	-0.274012	-0.273731
C28	C	1.518074	-0.333174	-0.216336
C29	C	1.518101	-0.383108	-0.216335
C30	C	1.585439	-0.692716	-0.245150
C31	C	1.585553	-0.880389	-0.245177
O32	O	1.642648	-0.904623	-0.269649
N33	N	1.518412	-0.903893	-0.216424
C34	C	1.451234	-0.880477	-0.187664
O35	O	1.394122	-0.904775	-0.163212
C36	C	1.451115	-0.692805	-0.187640
C37	C	1.518268	-0.669303	-0.216392
C38	C	1.652585	-0.669214	-0.273900
C39	C	1.652559	-0.622298	-0.273891
C40	C	1.585388	-0.598885	-0.245133
C41	C	1.518242	-0.622387	-0.216383
C42	C	1.383932	-0.669389	-0.158882
C43	C	1.383907	-0.622468	-0.158880
C44	C	1.451059	-0.598966	-0.187632
C45	C	1.451046	-0.552058	-0.187615
N46	N	1.518186	-0.528554	-0.216369
C47	C	1.585358	-0.551967	-0.245127
C48	C	1.451302	-0.979007	-0.187678
C49	C	1.451333	-1.025925	-0.187684
C50	C	1.585651	-1.025834	-0.245198
C51	C	1.585625	-0.978915	-0.245190
C52	C	1.518443	-0.955503	-0.216432
C53	C	1.585300	-0.453441	-0.245107
C54	C	1.585272	-0.406522	-0.245094
C55	C	1.450951	-0.406617	-0.187582
C56	C	1.450983	-0.453533	-0.187593
C57	C	1.518161	-0.476944	-0.216359
O58	O	1.393972	-0.527795	-0.163160
O59	O	1.642445	-0.527661	-0.269583
C60	C	1.585464	-0.739631	-0.245159
C61	C	1.518318	-0.763133	-0.216409
C62	C	1.451147	-0.739720	-0.187651
C63	C	1.518349	-0.810051	-0.216415
C64	C	1.585520	-0.833465	-0.245173
C65	C	1.652660	-0.809960	-0.273927
C66	C	1.652635	-0.763045	-0.273918
C67	C	1.384006	-0.763225	-0.158897
C68	C	1.384038	-0.810140	-0.158908
C69	C	1.451209	-0.833554	-0.187667
C70	C	1.792267	-0.216460	-0.216381
C71	C	1.909044	-0.216464	-0.216383
C72	C	1.518328	-0.216439	-0.333553
C73	C	1.518368	-0.216433	-0.383487
C74	C	1.518423	-0.099273	-0.216422
C75	C	1.518504	-0.049339	-0.216442
C76	C	1.585504	-0.245109	-0.740067
C77	C	1.585506	-0.245140	-0.552394
O78	O	1.642576	-0.269592	-0.528123
N79	N	1.518363	-0.216411	-0.528932
C80	C	1.451211	-0.187675	-0.552392
O81	O	1.394095	-0.163243	-0.528130
C82	C	1.451205	-0.187646	-0.740064
C83	C	1.518359	-0.216374	-0.763523
C84	C	1.652652	-0.273834	-0.763527
C85	C	1.652655	-0.273824	-0.810442
C86	C	1.585510	-0.245089	-0.833898
C87	C	1.518362	-0.216364	-0.810439
C88	C	1.384048	-0.158912	-0.763522
C89	C	1.384051	-0.158909	-0.810443
C90	C	1.451205	-0.187636	-0.833903
C91	C	1.451220	-0.187619	-0.880810
N92	N	1.518362	-0.216347	-0.904272
C93	C	1.585507	-0.245083	-0.880816
C94	C	1.451221	-0.187691	-0.453861
C95	C	1.451223	-0.187698	-0.406943
C96	C	1.585517	-0.245164	-0.406949
C97	C	1.585519	-0.245155	-0.453868
C98	C	1.518363	-0.216420	-0.477323
C99	C	1.585509	-0.245060	-0.979342
C100	C	1.585509	-0.245046	-1.026262
C101	C	1.451212	-0.187582	-1.026252
C102	C	1.451215	-0.187594	-0.979336
C103	C	1.518367	-0.216336	-0.955882
O104	O	1.394171	-0.163183	-0.905110
O105	O	1.642598	-0.269518	-0.905086
C106	C	1.585501	-0.245119	-0.693152
C107	C	1.518353	-0.216393	-0.669692
C108	C	1.451208	-0.187658	-0.693148
C109	C	1.518356	-0.216400	-0.622774
C110	C	1.585501	-0.245135	-0.599318
C111	C	1.652643	-0.273864	-0.622780
C112	C	1.652646	-0.273854	-0.669696
C113	C	1.384066	-0.158929	-0.669687
C114	C	1.384070	-0.158941	-0.622771
C115	C	1.451214	-0.187676	-0.599315
C116	C	1.518200	-0.216432	-0.099652
C117	C	1.518364	-0.216311	-0.049718
H118	H	1.217833	-0.274000	-0.273720
H119	H	1.639996	-0.472497	-0.268534
H120	H	1.329250	-0.688516	-0.135469
H121	H	1.396662	-1.045057	-0.164266
Br122	Br	1.148089	-0.148621	-0.148791
Br123	Br	1.148089	-0.341823	-0.341311
H124	H	0.919246	-0.326216	-0.325755
Br125	Br	0.889449	-0.148638	-0.148799
H126	H	1.396547	-0.164185	-1.045358
Br127	Br	1.743787	-0.312844	-0.701526
H128	H	1.707283	-0.688272	-0.297322
H129	H	1.707237	-0.603166	-0.297305
Br130	Br	1.743825	-0.841745	-0.312954
Br131	Br	1.676418	-0.374629	-0.284115
H132	H	0.819697	-0.274015	-0.273741
H133	H	1.640305	-0.959783	-0.268602
H134	H	1.707330	-0.297236	-0.744434
H135	H	1.640345	-1.044905	-0.268614
Br136	Br	1.359796	-0.374833	-0.148553
H137	H	1.329306	-0.744165	-0.135479
H138	H	1.329387	-0.135543	-0.603674
Br139	Br	1.360112	-0.947240	-0.148648
Br140	Br	1.292724	-0.590697	-0.119849
Br141	Br	1.359863	-0.485429	-0.148565
Br142	Br	1.743775	-0.731156	-0.312940
H143	H	1.640201	-0.268547	-0.472965
Br144	Br	1.292899	-0.842030	-0.119881
Br145	Br	1.676655	-0.284035	-1.058097
Br146	Br	1.676643	-0.284068	-0.947519
Br147	Br	1.743785	-0.312819	-0.842273
H148	H	1.640191	-0.268560	-0.387843
Br149	Br	1.360100	-0.148701	-0.375111
H150	H	1.396531	-0.164291	-0.472954
H151	H	1.329362	-0.135520	-0.744430
Br152	Br	1.292911	-0.119907	-0.842273
Br153	Br	1.360092	-0.148600	-0.947497
H154	H	1.707319	-0.297259	-0.603674
H155	H	1.329386	-0.135530	-0.688780
