data_functionalizedCrystal
_audit_creation_method	'MofGen! by Chris Wilmer'
_symmetry_space_group_name_H-M	'P1'
_symmetry_Int_Tables_number	1
_symmetry_cell_setting	triclinic
loop_
_symmetry_equiv_pos_as_xyz
  x,y,z
_cell_length_a	17.917603
_cell_length_b	14.560438
_cell_length_c	14.560438
_cell_angle_alpha	90.000844
_cell_angle_beta	63.034974
_cell_angle_gamma	57.012187
loop_
_atom_site_label
_atom_site_type_symbol
_atom_site_fract_x
_atom_site_fract_y
_atom_site_fract_z
Zr1	Zr	0.818639	-0.166381	0.930594
O2	O	0.974662	-0.321764	0.792684
O3	O	0.662614	-0.112688	0.966812
O4	O	0.818638	-0.313027	0.975548
O5	O	0.818640	0.029713	0.783949
O6	O	0.818640	-0.313028	1.126686
O7	O	0.818638	-0.121425	0.783948
O8	O	0.539541	0.045343	1.111059
O9	O	1.097739	-0.328658	0.799575
O10	O	0.726792	-0.097110	1.102371
O11	O	0.726792	0.015683	0.989579
O12	O	0.910490	-0.220191	0.999864
O13	O	0.910490	-0.107397	0.887072
Zr14	Zr	0.818646	0.074665	1.171643
Zr15	Zr	0.818642	-0.166383	1.171642
Zr16	Zr	0.818642	0.074667	0.930595
Zr17	Zr	1.014932	-0.177375	0.941585
Zr18	Zr	0.622353	0.085659	1.160651
O19	O	0.974671	0.020972	1.135425
O20	O	0.974667	-0.321767	1.135423
O21	O	0.974667	0.020975	0.792686
O22	O	0.662623	0.230049	1.309553
O23	O	0.662618	-0.112690	1.309551
O24	O	0.662618	0.230052	0.966814
O25	O	0.818645	-0.121429	1.318288
O26	O	0.818647	0.221312	1.126689
O27	O	0.818645	0.221313	0.975551
O28	O	0.818647	0.029709	1.318289
O29	O	1.097741	-0.328659	0.991177
O30	O	0.539544	0.236944	1.111060
O31	O	0.539546	0.236942	1.302661
O32	O	0.539544	0.045341	1.302660
O33	O	1.097741	-0.137057	0.799577
O34	O	1.097744	-0.137058	0.991178
O35	O	0.726795	0.128475	1.102373
O36	O	0.726795	0.015682	1.215165
O37	O	0.910493	-0.107399	1.112658
O38	O	0.910493	0.005395	0.999866
C39	C	0.573110	-0.032106	1.037369
C40	C	0.489778	-0.027439	1.032703
C41	C	0.818638	-0.045855	0.749604
C42	C	0.818637	-0.045855	0.647273
C43	C	0.818647	0.255656	1.051120
C44	C	0.818648	0.357987	1.051121
C45	C	0.337209	-0.018916	1.024177
C46	C	0.300072	-0.072797	1.078057
C47	C	0.215177	-0.068055	1.073313
C48	C	0.422111	-0.023657	1.028920
C49	C	1.064175	-0.059610	1.064868
C50	C	1.147507	-0.064277	1.069534
C51	C	0.818638	-0.347372	1.051117
C52	C	0.818637	-0.449703	1.051116
C53	C	0.914535	0.341819	0.997615
C54	C	0.914530	0.437974	0.997609
C55	C	0.722743	0.566463	1.104623
C56	C	0.722749	0.470309	1.104622
C57	C	0.722750	0.018388	0.652702
C58	C	0.722755	0.018388	0.556547
C59	C	0.914542	-0.110106	0.449538
C60	C	0.914536	-0.110099	0.545691
C61	C	0.818647	-0.045860	1.352633
C62	C	0.818648	-0.045861	1.454964
C63	C	0.573114	-0.032109	1.338884
C64	C	0.489784	-0.027442	1.436549
C65	C	0.573114	0.269408	1.037371
C66	C	0.489784	0.376406	1.032705
C67	C	0.573118	0.269406	1.338886
C68	C	0.489789	0.376403	1.436551
C69	C	1.064167	-0.361121	0.763351
C70	C	1.147496	-0.468119	0.665686
C71	C	1.064171	-0.059607	0.763353
C72	C	1.147501	-0.064274	0.665688
C73	C	1.064171	-0.361124	1.064866
C74	C	1.147501	-0.468122	1.069532
C75	C	0.450649	-0.084137	1.423536
C76	C	0.372363	-0.079776	1.515294
C77	C	0.333206	-0.018712	1.620064
C78	C	0.372348	0.037984	1.633074
C79	C	0.450639	0.033616	1.541318
C80	C	0.450653	0.485540	1.089391
C81	C	0.372366	0.586085	1.085004
C82	C	0.333207	0.577494	1.023936
C83	C	0.372345	0.468349	0.967243
C84	C	0.450636	0.367806	0.971625
C85	C	0.450657	0.367773	1.541303
C86	C	0.372372	0.468299	1.633080
C87	C	0.333215	0.577454	1.620103
C88	C	0.372354	0.586081	1.515341
C89	C	0.450644	0.485556	1.423566
C90	C	1.186637	-0.459489	0.560935
C91	C	1.264947	-0.560017	0.469159
C92	C	1.304108	-0.669172	0.482136
C93	C	1.264963	-0.677799	0.586898
C94	C	1.186660	-0.577273	0.678672
C95	C	1.186644	-0.007589	0.678701
C96	C	1.264952	-0.011978	0.586944
C97	C	1.304111	-0.073046	0.482175
C98	C	1.264965	-0.129737	0.469164
C99	C	1.186664	-0.125354	0.560920
C100	C	1.186636	-0.459494	1.130609
C101	C	1.264923	-0.560020	1.135015
C102	C	1.304079	-0.669174	1.078335
C103	C	1.264937	-0.677800	1.017255
C104	C	1.186646	-0.577275	1.012857
H105	H	0.332037	-0.122488	1.127747
H106	H	0.269456	-0.015162	1.694769
Cl107	Cl	1.035079	0.417641	0.930328
Cl108	Cl	0.234781	0.703904	1.018441
Cl109	Cl	1.035094	0.200618	0.930352
Cl110	Cl	0.602191	0.099157	0.780400
Cl111	Cl	1.314120	-0.549150	1.211799
H112	H	0.340450	0.461371	0.917522
Cl113	Cl	0.602190	0.707670	1.171883
H114	H	1.154766	0.042146	0.764001
Cl115	Cl	0.323167	-0.151052	1.498913
Cl116	Cl	1.314200	-0.206497	0.337446
Cl117	Cl	1.314202	-0.815031	0.603194
Cl118	Cl	1.137468	-0.588143	0.936054
Cl119	Cl	1.035094	-0.190869	0.321833
H120	H	0.305247	0.030770	0.974490
Cl121	Cl	0.602206	0.099160	0.563380
H122	H	0.482528	0.492557	1.139120
H123	H	0.340508	0.674946	1.131174
Cl124	Cl	0.499874	0.230562	1.557646
Cl125	Cl	1.137458	-0.196614	0.544541
H126	H	1.296805	-0.552969	0.383866
H127	H	1.154767	-0.370624	1.176766
Cl128	Cl	1.402507	-0.795540	1.083872
Cl129	Cl	0.323107	0.114752	1.764792
Cl130	Cl	0.602195	0.490637	1.171885
Cl131	Cl	1.035090	-0.190861	0.538865
H132	H	0.482530	-0.133876	1.338236
H133	H	0.482492	0.079791	1.551928
H134	H	0.482486	0.278948	0.925467
Cl135	Cl	0.323179	0.457427	1.764767
H136	H	0.269466	0.659298	1.694840
Cl137	Cl	0.323115	0.723314	1.499045
Cl138	Cl	0.499822	0.496426	1.291882
Cl139	Cl	1.137422	-0.322278	0.544592
H140	H	1.367867	-0.751017	0.407399
H141	H	1.154792	-0.584313	0.763962
Cl142	Cl	1.314143	0.059304	0.603326
Cl143	Cl	1.402546	-0.078541	0.366834
H144	H	1.296830	-0.766687	0.971109
