data_functionalizedCrystal
_audit_creation_method	'MofGen! by Chris Wilmer'
_symmetry_space_group_name_H-M	'P1'
_symmetry_Int_Tables_number	1
_symmetry_cell_setting	triclinic
loop_
_symmetry_equiv_pos_as_xyz
  x,y,z
_cell_length_a	12.645331
_cell_length_b	12.645330
_cell_length_c	13.897441
_cell_angle_alpha	90.028464
_cell_angle_beta	90.019944
_cell_angle_gamma	90.011625
loop_
_atom_site_label
_atom_site_type_symbol
_atom_site_fract_x
_atom_site_fract_y
_atom_site_fract_z
Zn1	Zn	1.620740	-0.422045	0.545424
Zn2	Zn	2.120740	0.077955	1.045424
Zn3	Zn	1.620646	-0.599337	0.384128
Zn4	Zn	2.120646	-0.099337	0.884128
Zn5	Zn	1.443463	-0.422085	0.384138
Zn6	Zn	1.943463	0.077915	0.884138
Zn7	Zn	1.443452	-0.599263	0.545377
Zn8	Zn	1.943452	-0.099263	1.045377
O9	O	1.532075	-0.510682	0.464767
O10	O	2.032075	-0.010682	0.964767
O11	O	1.769075	-0.445577	0.524043
O12	O	2.269075	0.054423	1.024043
O13	O	1.597107	-0.575872	0.249148
O14	O	2.097107	-0.075872	0.749148
O15	O	1.467023	-0.273732	0.405557
O16	O	1.967023	0.226268	0.905557
O17	O	1.769005	-0.575833	0.405540
O18	O	2.269005	-0.075833	0.905540
O19	O	1.597268	-0.273703	0.524052
O20	O	2.097268	0.226297	1.024052
O21	O	1.466932	-0.445646	0.249155
O22	O	1.966932	0.054354	0.749155
O23	O	1.295114	-0.445574	0.405512
O24	O	1.795114	0.054426	0.905512
O25	O	1.467004	-0.575707	0.680365
O26	O	1.967004	-0.075707	1.180365
O27	O	1.295106	-0.575746	0.523973
O28	O	1.795106	-0.075746	1.023973
O29	O	1.597257	-0.445505	0.680399
O30	O	2.097257	0.054495	1.180399
O31	O	1.597096	-0.747675	0.405495
O32	O	2.097096	-0.247675	0.905495
O33	O	1.466913	-0.747620	0.523963
O34	O	1.966913	-0.247620	1.023963
C35	C	1.256645	-0.510657	0.464739
C36	C	1.756645	-0.010657	0.964739
C37	C	1.138815	-0.510672	0.464750
C38	C	1.638815	-0.010672	0.964750
C39	C	1.532022	-0.786112	0.464744
C40	C	2.032022	-0.286112	0.964744
C41	C	1.532096	-0.903942	0.464766
C42	C	2.032096	-0.403942	0.964766
C43	C	0.971221	-0.428404	0.390637
C44	C	1.471221	0.071596	0.890637
C45	C	1.093781	-0.428617	0.390310
C46	C	1.593781	0.071383	0.890310
C47	C	1.094306	-0.622347	0.436981
C48	C	1.594306	-0.122347	0.936981
C49	C	0.971708	-0.621897	0.436475
C50	C	1.471708	-0.121897	0.936475
C51	C	0.971658	-0.482328	0.566918
C52	C	1.471658	0.017672	1.066918
C53	C	1.094264	-0.479833	0.566351
C54	C	1.594264	0.020167	1.066351
C55	C	1.613863	-1.071496	0.390086
C56	C	2.113863	-0.571496	0.890086
C57	C	1.614129	-0.948936	0.390269
C58	C	2.114129	-0.448936	0.890269
C59	C	1.562391	-0.948322	0.566444
C60	C	2.062391	-0.448322	1.066444
C61	C	1.563040	-1.070920	0.566047
C62	C	2.063040	-0.570920	1.066047
C63	C	1.420002	-1.071268	0.438772
C64	C	1.920002	-0.571268	0.938772
C65	C	1.420540	-0.948664	0.436491
C66	C	1.920540	-0.448664	0.936491
C67	C	1.808580	-0.510709	0.464795
C68	C	2.308580	-0.010709	0.964795
C69	C	1.926410	-0.510720	0.464808
C70	C	2.426410	-0.010720	0.964808
C71	C	1.532140	-0.510593	0.716360
C72	C	2.032140	-0.010593	1.216360
C73	C	1.532168	-0.510556	0.823574
C74	C	2.032168	-0.010556	1.323574
C75	C	1.532157	-0.234177	0.464811
C76	C	2.032157	0.265823	0.964811
C77	C	1.532192	-0.116347	0.464830
C78	C	2.032192	0.383653	0.964830
C79	C	1.532071	-0.510695	0.214152
C80	C	2.032071	-0.010695	0.714152
C81	C	1.532249	-0.510434	0.106939
C82	C	2.032249	-0.010434	0.606939
C83	C	1.532189	-0.510526	0.910644
C84	C	2.032189	-0.010526	1.410644
C85	C	1.532220	-0.510478	1.019876
C86	C	2.032220	-0.010478	1.519876
H87	H	1.123873	-0.345806	0.407716
H88	H	1.623873	0.154194	0.907716
H89	H	1.645045	-1.099434	0.588120
H90	H	2.145045	-0.599434	1.088120
H91	H	0.942682	-0.542283	0.622182
H92	H	1.442682	-0.042283	1.122182
H93	H	0.940753	-0.402316	0.592172
H94	H	1.440753	0.097684	1.092172
H95	H	1.504716	-0.919174	0.623625
H96	H	2.004716	-0.419174	1.123625
C97	C	0.931660	-0.707563	0.506267
C98	C	1.431660	-0.207563	1.006267
N99	N	0.901501	-0.772089	0.558830
N100	N	1.401501	-0.272089	1.058830
C101	C	1.725517	-1.113031	0.413094
C102	C	2.225517	-0.613031	0.913094
N103	N	1.809612	-1.144326	0.430421
N104	N	2.309612	-0.644326	0.930421
C105	C	1.135674	-0.554928	0.645003
C106	C	1.635674	-0.054928	1.145003
N107	N	1.166860	-0.611500	0.704241
N108	N	1.666860	-0.111500	1.204241
H109	H	1.697225	-0.919529	0.407505
H110	H	2.197225	-0.419529	0.907505
H111	H	1.356406	-0.918047	0.486939
H112	H	1.856406	-0.418047	0.986939
C113	C	1.486179	-1.110999	0.643856
C114	C	1.986179	-0.610999	1.143856
N115	N	1.428296	-1.141182	0.702466
N116	N	1.928296	-0.641182	1.202466
C117	C	1.337793	-1.110458	0.512311
C118	C	1.837793	-0.610458	1.012311
N119	N	1.275881	-1.139981	0.567704
N120	N	1.775881	-0.639981	1.067704
C121	C	1.671931	-0.906741	0.596757
C122	C	2.171931	-0.406741	1.096757
N123	N	1.754439	-0.875425	0.619584
N124	N	2.254439	-0.375425	1.119584
H125	H	1.392453	-1.102279	0.365920
H126	H	1.892453	-0.602279	0.865920
H127	H	1.595146	-1.101051	0.314474
H128	H	2.095146	-0.601051	0.814474
C129	C	1.389670	-0.909480	0.335411
C130	C	1.889670	-0.409480	0.835411
N131	N	1.366419	-0.879956	0.259278
N132	N	1.866419	-0.379956	0.759278
C133	C	1.588484	-0.908403	0.288426
C134	C	2.088484	-0.408403	0.788426
N135	N	1.569158	-0.877878	0.211715
N136	N	2.069158	-0.377878	0.711715
C137	C	1.133730	-0.707423	0.507660
C138	C	1.633730	-0.207423	1.007660
N139	N	1.163430	-0.771503	0.560895
N140	N	1.663430	-0.271503	1.060895
H141	H	0.941749	-0.345344	0.407856
H142	H	1.441749	0.154656	0.907856
H143	H	0.940379	-0.446961	0.315414
H144	H	1.440379	0.053039	0.815414
H145	H	1.124968	-0.646837	0.363134
H146	H	1.624968	-0.146837	0.863134
C147	C	1.133346	-0.453974	0.288086
C148	C	1.633346	0.046026	0.788086
N149	N	1.163146	-0.473078	0.211087
N150	N	1.663146	0.026922	0.711087
H151	H	0.943068	-0.645974	0.361827
H152	H	1.443068	-0.145974	0.861827
H153	H	1.123359	-0.397653	0.587291
H154	H	1.623359	0.102347	1.087291
