data_functionalizedCrystal
_audit_creation_method	'MofGen! by Chris Wilmer'
_symmetry_space_group_name_H-M	'P1'
_symmetry_Int_Tables_number	1
_symmetry_cell_setting	triclinic
loop_
_symmetry_equiv_pos_as_xyz
  x,y,z
_cell_length_a	27.732048
_cell_length_b	14.586319
_cell_length_c	16.109301
_cell_angle_alpha	89.994786
_cell_angle_beta	83.052068
_cell_angle_gamma	90.001999
loop_
_atom_site_label
_atom_site_type_symbol
_atom_site_fract_x
_atom_site_fract_y
_atom_site_fract_z
O1	O	0.641341	-0.076125	0.098925
O2	O	1.141341	0.423875	0.598925
O3	O	0.500610	-0.076153	0.113967
O4	O	1.000610	0.423847	0.613967
O5	O	0.574841	-0.076129	-0.014633
O6	O	1.074841	0.423871	0.485367
O7	O	0.567109	-0.076149	0.227525
O8	O	1.067109	0.423851	0.727525
O9	O	0.574836	0.076352	-0.014634
O10	O	1.074836	0.576352	0.485366
O11	O	0.500605	0.076327	0.113965
O12	O	1.000605	0.576327	0.613965
O13	O	0.641335	0.076356	0.098923
O14	O	1.141335	0.576356	0.598923
Cu15	Cu	0.570970	0.090264	0.106444
Cu16	Cu	1.070970	0.590264	0.606444
Cu17	Cu	0.570976	-0.090062	0.106446
Cu18	Cu	1.070976	0.409938	0.606446
O19	O	0.567104	0.076331	0.227523
O20	O	1.067104	0.576331	0.727523
C21	C	0.482599	0.000084	0.113650
C22	C	0.982599	0.500084	0.613650
C23	C	0.428940	0.000073	0.112700
C24	C	0.928940	0.500073	0.612700
N25	N	0.570969	0.217096	0.106442
N26	N	1.070969	0.717096	0.606442
N27	N	0.570980	-0.216894	0.106442
N28	N	1.070980	0.283106	0.606442
C29	C	0.090418	0.000107	0.182708
C30	C	0.590418	0.500107	0.682708
C31	C	-0.111256	0.000115	0.179181
C32	C	0.388744	0.500115	0.679181
O33	O	-0.142244	0.000150	0.243198
O34	O	0.357756	0.500150	0.743198
N35	N	-0.130699	0.000120	0.102926
N36	N	0.369301	0.500120	0.602926
C37	C	-0.099720	0.000129	0.027548
C38	C	0.400280	0.500129	0.527548
O39	O	-0.120885	0.000143	-0.037392
O40	O	0.379115	0.500143	0.462608
C41	C	0.101954	0.000127	0.031077
C42	C	0.601954	0.500127	0.531077
C43	C	0.121393	0.000113	0.107336
C44	C	0.621393	0.500113	0.607336
C45	C	0.109859	0.000094	0.258961
C46	C	0.609859	0.500094	0.758961
C47	C	0.160274	0.000087	0.259842
C48	C	0.660274	0.500087	0.759842
C49	C	0.191250	0.000093	0.184470
C50	C	0.691250	0.500093	0.684470
C51	C	0.171809	0.000106	0.108217
C52	C	0.671809	0.500106	0.608217
C53	C	0.132932	0.000142	-0.044300
C54	C	0.632932	0.500142	0.455700
C55	C	0.183353	0.000144	-0.043411
C56	C	0.683353	0.500144	0.456589
C57	C	0.202793	0.000130	0.032848
C58	C	0.702793	0.500130	0.532848
C59	C	0.253200	0.000105	0.033726
C60	C	0.753200	0.500105	0.533726
N61	N	0.272643	0.000100	0.109981
N62	N	0.772643	0.500100	0.609981
C63	C	0.241668	0.000094	0.185353
C64	C	0.741668	0.500094	0.685353
C65	C	-0.205602	0.000128	0.025701
C66	C	0.294398	0.500128	0.525701
C67	C	-0.256020	0.000127	0.024819
C68	C	0.243980	0.500127	0.524819
C69	C	-0.267553	0.000115	0.176451
C70	C	0.232447	0.500115	0.676451
C71	C	-0.217134	0.000110	0.177333
C72	C	0.282866	0.500110	0.677333
C73	C	-0.186159	0.000123	0.101956
C74	C	0.313841	0.500123	0.601956
C75	C	0.347545	0.000078	0.187197
C76	C	0.847545	0.500078	0.687197
C77	C	0.397965	0.000067	0.188072
C78	C	0.897965	0.500067	0.688072
C79	C	0.409494	0.000084	0.036440
C80	C	0.909494	0.500084	0.536440
C81	C	0.359077	0.000090	0.035565
C82	C	0.859077	0.500090	0.535565
C83	C	0.328104	0.000090	0.110950
C84	C	0.828104	0.500090	0.610950
O85	O	0.284216	0.000081	-0.030257
O86	O	0.784216	0.500081	0.469743
O87	O	0.262842	0.000101	0.250283
O88	O	0.762842	0.500101	0.750283
C89	C	0.040003	0.000114	0.181827
C90	C	0.540003	0.500114	0.681827
C91	C	0.020562	0.000127	0.105574
C92	C	0.520562	0.500127	0.605574
C93	C	0.051537	0.000133	0.030202
C94	C	0.551537	0.500133	0.530202
C95	C	-0.029856	0.000126	0.104692
C96	C	0.470144	0.500126	0.604692
C97	C	-0.060831	0.000120	0.180064
C98	C	0.439169	0.500120	0.680064
C99	C	-0.041388	0.000115	0.256318
C100	C	0.458612	0.500115	0.756318
C101	C	0.009027	0.000108	0.257199
C102	C	0.509027	0.500108	0.757199
C103	C	0.032095	0.000138	-0.046052
C104	C	0.532095	0.500138	0.453948
C105	C	-0.018322	0.000144	-0.046927
C106	C	0.481678	0.500144	0.453073
C107	C	-0.049297	0.000138	0.028445
C108	C	0.450703	0.500138	0.528445
C109	C	0.659346	0.000117	0.099240
C110	C	1.159346	0.500117	0.599240
C111	C	0.713005	0.000121	0.100191
C112	C	1.213005	0.500121	0.600191
C113	C	0.574526	0.000112	-0.045605
C114	C	1.074526	0.500112	0.454395
C115	C	0.573586	0.000113	-0.137888
C116	C	1.073586	0.500113	0.362112
C117	C	0.603849	0.452113	0.049517
C118	C	1.103849	0.952113	0.549517
C119	C	0.603851	0.548094	0.049515
C120	C	1.103851	1.048094	0.549515
C121	C	0.538096	0.548082	0.163370
C122	C	1.038096	1.048082	0.663370
C123	C	0.538093	0.452103	0.163367
C124	C	1.038093	0.952103	0.663367
C125	C	0.570972	0.404121	0.106442
C126	C	1.070972	0.904121	0.606442
C127	C	0.570977	0.596081	0.106442
C128	C	1.070977	1.096081	0.606442
C129	C	0.570978	0.700149	0.106440
C130	C	1.070978	1.200149	0.606440
C131	C	0.570971	0.300047	0.106442
C132	C	1.070971	0.800047	0.606442
C133	C	0.615450	0.000107	-0.360679
C134	C	1.115450	0.500107	0.139321
C135	C	0.614564	0.000099	-0.447388
C136	C	1.114564	0.500099	0.052612
C137	C	0.526492	0.000085	-0.426424
C138	C	1.026492	0.500085	0.073576
C139	C	0.527378	0.000086	-0.339716
C140	C	1.027378	0.500086	0.160284
C141	C	0.571859	0.000102	-0.306846
C142	C	1.071859	0.500102	0.193154
C143	C	0.570086	0.000093	-0.480263
C144	C	1.070086	0.500093	0.019737
C145	C	0.569125	0.000084	-0.574277
C146	C	1.069125	0.500084	-0.074277
C147	C	0.572820	0.000108	-0.212826
C148	C	1.072820	0.500108	0.287174
C149	C	0.567420	0.000089	0.258495
C150	C	1.067420	0.500089	0.758495
C151	C	0.568359	0.000081	0.350779
C152	C	1.068359	0.500081	0.850779
H153	H	0.413790	0.000055	0.250174
H154	H	0.913790	0.500055	0.750174
H155	H	0.650061	0.000101	-0.491216
H156	H	1.150061	0.500101	0.008784
H157	H	0.491878	0.000079	-0.295882
H158	H	0.991878	0.500079	0.204118
H159	H	0.343249	0.000088	-0.026532
H160	H	0.843249	0.500088	0.473468
H161	H	0.630622	0.587167	0.003161
H162	H	1.130622	1.087167	0.503161
O163	O	0.439638	-0.000030	-0.036718
O164	O	0.939638	0.499970	0.463282
C165	C	0.503242	-0.079035	-0.123736
C166	C	1.003242	0.420965	0.376264
C167	C	0.469138	-0.079018	-0.040847
C168	C	0.969138	0.420982	0.459153
H169	H	0.527095	-0.142899	-0.127110
H170	H	1.027095	0.357101	0.372890
H171	H	0.527169	-0.015264	-0.127112
H172	H	1.027169	0.484736	0.372888
H173	H	0.480682	-0.078979	-0.178383
H174	H	0.980682	0.421021	0.321617
H175	H	0.491660	-0.079106	0.013847
H176	H	0.991660	0.420894	0.513847
H177	H	0.445209	-0.142783	-0.037544
H178	H	0.945209	0.357217	0.462456
O179	O	0.658615	0.000152	-0.328609
O180	O	1.158615	0.500152	0.171391
C181	C	0.699016	0.000099	-0.204325
C182	C	1.199016	0.500099	0.295675
C183	C	0.650098	0.000073	-0.240528
C184	C	1.150098	0.500073	0.259472
H185	H	0.692147	0.000015	-0.133108
H186	H	1.192147	0.500015	0.366892
H187	H	0.720566	0.063927	-0.226489
H188	H	1.220566	0.563927	0.273511
H189	H	0.720555	-0.063699	-0.226588
H190	H	1.220555	0.436301	0.273412
H191	H	0.628519	0.063827	-0.218283
H192	H	1.128519	0.563827	0.281717
H193	H	0.628585	-0.063798	-0.218369
H194	H	1.128585	0.436202	0.281631
O195	O	0.506136	0.405619	0.218749
O196	O	1.006136	0.905619	0.718749
C197	C	0.440897	0.415728	0.331643
C198	C	0.940897	0.915728	0.831643
C199	C	0.477068	0.468484	0.268990
C200	C	0.977068	0.968484	0.768990
H201	H	0.417379	0.466531	0.372268
H202	H	0.917379	0.966531	0.872268
H203	H	0.461732	0.370809	0.372985
H204	H	0.961732	0.870809	0.872985
H205	H	0.416779	0.370775	0.296014
H206	H	0.916779	0.870775	0.796014
H207	H	0.501196	0.513487	0.304552
H208	H	1.001196	1.013487	0.804552
H209	H	0.456204	0.513346	0.227649
H210	H	0.956204	1.013346	0.727649
H211	H	0.176097	0.000075	0.321940
H212	H	0.676097	0.500075	0.821940
O213	O	0.483327	0.000119	-0.458494
O214	O	0.983327	0.500119	0.041506
C215	C	0.442928	0.000064	-0.582780
C216	C	0.942928	0.500064	-0.082780
C217	C	0.491846	0.000042	-0.546575
C218	C	0.991846	0.500042	-0.046575
H219	H	0.449798	-0.000018	-0.653998
H220	H	0.949798	0.499982	-0.153998
H221	H	0.421379	0.063889	-0.560627
H222	H	0.921379	0.563889	-0.060627
H223	H	0.421388	-0.063737	-0.560509
H224	H	0.921388	0.436263	-0.060509
H225	H	0.513426	0.063800	-0.568830
H226	H	1.013426	0.563800	-0.068830
H227	H	0.513358	-0.063825	-0.568724
H228	H	1.013358	0.436175	-0.068724
H229	H	-0.034144	0.000148	-0.109031
H230	H	0.465856	0.500148	0.390969
H231	H	0.322331	0.000081	0.248584
H232	H	0.822331	0.500081	0.748584
H233	H	-0.201309	0.000104	0.239430
H234	H	0.298691	0.500104	0.739430
O235	O	0.079794	-0.000078	0.332207
O236	O	0.579794	0.499922	0.832207
C237	C	0.054548	-0.079076	0.461558
C238	C	0.554548	0.420924	0.961558
C239	C	0.088611	-0.078995	0.378623
C240	C	0.588611	0.421005	0.878623
H241	H	0.061672	-0.142864	0.499117
H242	H	0.561672	0.357136	0.999117
H243	H	0.015161	-0.079137	0.447897
H244	H	0.515161	0.420863	0.947897
H245	H	0.061618	-0.015241	0.499085
H246	H	0.561618	0.484759	0.999085
H247	H	0.081585	-0.142820	0.341056
H248	H	0.581585	0.357180	0.841056
H249	H	0.127987	-0.078887	0.392343
H250	H	0.627987	0.421113	0.892343
O251	O	-0.297695	-0.000009	0.249616
O252	O	0.202305	0.499991	0.749616
C253	C	-0.361302	-0.079026	0.336640
C254	C	0.138698	0.420974	0.836640
C255	C	-0.327199	-0.078997	0.253749
C256	C	0.172801	0.421003	0.753749
H257	H	-0.385157	-0.142890	0.340018
H258	H	0.114843	0.357110	0.840018
H259	H	-0.385226	-0.015256	0.340016
H260	H	0.114774	0.484744	0.840016
H261	H	-0.338740	-0.078981	0.391286
H262	H	0.161260	0.421019	0.891286
H263	H	-0.349723	-0.079075	0.199057
H264	H	0.150277	0.420925	0.699057
H265	H	-0.303274	-0.142762	0.250447
H266	H	0.196726	0.357238	0.750447
H267	H	-0.271843	0.000124	-0.037279
H268	H	0.228157	0.500124	0.462721
H269	H	-0.180386	0.000139	-0.035684
H270	H	0.319614	0.500139	0.464316
H271	H	0.630621	0.413048	0.003164
H272	H	1.130621	0.913048	0.503164
H273	H	0.117113	0.000154	-0.106398
H274	H	0.617113	0.500154	0.393602
H275	H	0.208571	0.000156	-0.104794
H276	H	0.708571	0.500156	0.395206
H277	H	0.024850	0.000098	0.319297
H278	H	0.524850	0.500098	0.819297
H279	H	-0.066617	0.000107	0.317688
H280	H	0.433383	0.500107	0.817688
H281	H	0.057310	0.000145	-0.107431
H282	H	0.557310	0.500145	0.392569
O283	O	0.506209	0.594836	0.218638
O284	O	1.006209	1.094836	0.718638
C285	C	0.477055	0.742692	0.269073
C286	C	0.977055	1.242692	0.769073
C287	C	0.513200	0.689861	0.206447
C288	C	1.013200	1.189861	0.706447
H289	H	0.482688	0.819529	0.259227
H290	H	0.982688	1.319529	0.759227
H291	H	0.483342	0.723877	0.335607
H292	H	0.983342	1.223877	0.835607
H293	H	0.438348	0.723772	0.258709
H294	H	0.938348	1.223772	0.758709
H295	H	0.551922	0.708753	0.216734
H296	H	1.051922	1.208753	0.716734
H297	H	0.506871	0.708681	0.139934
H298	H	1.006871	1.208681	0.639934
