data_functionalizedCrystal
_audit_creation_method	'MofGen! by Chris Wilmer'
_symmetry_space_group_name_H-M	'P1'
_symmetry_Int_Tables_number	1
_symmetry_cell_setting	triclinic
loop_
_symmetry_equiv_pos_as_xyz
  x,y,z
_cell_length_a	12.827893
_cell_length_b	12.759394
_cell_length_c	12.827885
_cell_angle_alpha	89.968776
_cell_angle_beta	89.980728
_cell_angle_gamma	90.014808
loop_
_atom_site_label
_atom_site_type_symbol
_atom_site_fract_x
_atom_site_fract_y
_atom_site_fract_z
Zn1	Zn	1.597674	-0.418216	-0.590838
Zn2	Zn	1.597569	-0.593932	-0.416094
Zn3	Zn	1.422915	-0.418268	-0.416112
Zn4	Zn	1.422902	-0.593854	-0.590794
O5	O	1.510265	-0.506068	-0.503460
O6	O	1.743896	-0.441537	-0.567669
O7	O	1.574363	-0.570684	-0.269860
O8	O	1.446146	-0.271240	-0.439316
O9	O	1.743819	-0.570634	-0.439285
O10	O	1.574541	-0.271202	-0.567686
O11	O	1.446045	-0.441624	-0.269873
O12	O	1.276677	-0.441548	-0.439273
O13	O	1.446124	-0.570501	-0.737036
O14	O	1.276668	-0.570551	-0.567611
O15	O	1.574528	-0.441461	-0.737069
O16	O	1.574350	-0.740943	-0.439243
O17	O	1.446023	-0.740885	-0.567594
C18	C	1.238755	-0.506047	-0.503440
C19	C	1.122602	-0.506064	-0.503456
C20	C	1.070840	-0.569998	-0.566864
C21	C	0.950790	-0.570017	-0.566882
C22	C	1.510202	-0.779035	-0.503434
C23	C	1.510271	-0.895812	-0.503458
C24	C	1.643999	-0.895818	-0.369906
C25	C	1.710890	-0.950682	-0.303143
C26	C	1.710951	-1.060404	-0.303171
C27	C	1.644116	-1.115264	-0.369973
C28	C	1.577225	-1.060400	-0.436736
C29	C	1.577169	-0.950676	-0.436698
C30	C	1.443504	-1.060393	-0.570292
C31	C	1.443436	-0.950672	-0.570260
C32	C	1.376670	-1.115253	-0.637094
C33	C	1.309772	-1.060389	-0.703854
C34	C	1.309712	-0.950661	-0.703822
C35	C	1.376545	-0.895808	-0.637024
C36	C	1.782835	-0.506089	-0.503480
C37	C	1.898988	-0.506098	-0.503489
C38	C	1.510336	-0.505967	-0.776030
C39	C	1.510366	-0.505924	-0.892183
C40	C	1.510356	-0.232034	-0.503508
C41	C	1.510395	-0.115257	-0.503528
C42	C	1.573912	-0.442058	-0.943984
C43	C	1.573944	-0.442012	-1.064034
C44	C	1.510254	-0.506092	-0.231950
C45	C	1.510426	-0.505839	-0.115797
H46	H	1.078041	-0.451337	-0.449188
C47	C	1.644116	-0.776691	-0.369750
C48	C	1.716975	-0.740390	-0.296977
C49	C	1.717123	-0.630657	-0.296812
H50	H	1.576734	-0.751814	-0.351583
H51	H	1.662197	-0.751755	-0.437174
H52	H	1.698889	-0.765316	-0.229568
H53	H	1.784368	-0.765239	-0.315128
H54	H	1.735203	-0.605720	-0.364236
H55	H	1.649737	-0.605789	-0.278647
H56	H	1.766563	-0.606012	-0.247444
H57	H	1.255365	-1.105065	-0.758243
C58	C	1.376847	-1.234380	-0.637326
C59	C	1.403510	-1.270576	-0.736841
C60	C	1.403696	-1.380309	-0.737091
H61	H	1.309467	-1.259405	-0.619278
H62	H	1.426286	-1.259240	-0.588045
H63	H	1.354073	-1.245727	-0.786106
H64	H	1.470891	-1.245580	-0.754909
H65	H	1.453135	-1.405169	-0.687811
H66	H	1.336314	-1.405324	-0.719040
H67	H	1.421796	-1.404882	-0.804608
H68	H	1.765425	-1.105074	-0.248811
C69	C	1.236976	-0.891288	-0.776355
C70	C	1.178450	-0.962821	-0.834841
C71	C	1.111426	-0.908169	-0.901663
H72	H	1.276793	-0.848411	-0.821997
H73	H	1.191376	-0.848578	-0.736361
H74	H	1.224044	-1.005512	-0.874833
H75	H	1.138611	-1.005700	-0.789227
H76	H	1.065826	-0.865460	-0.861669
H77	H	1.151252	-0.865294	-0.947298
H78	H	1.071701	-0.956695	-0.941347
H79	H	0.943496	-0.451362	-0.449197
C80	C	1.376290	-0.776681	-0.637103
C81	C	1.303390	-0.740370	-0.709850
C82	C	1.303120	-0.630636	-0.709940
H83	H	1.443644	-0.751660	-0.655254
H84	H	1.358182	-0.751895	-0.569662
H85	H	1.321503	-0.765145	-0.777276
H86	H	1.236025	-0.765362	-0.691716
H87	H	1.285013	-0.605850	-0.642499
H88	H	1.370478	-0.605626	-0.728089
H89	H	1.253652	-0.605985	-0.759291
C90	C	1.130193	-0.642838	-0.639410
C91	C	1.103791	-0.620094	-0.742873
C92	C	1.158455	-0.687164	-0.809735
H93	H	1.112391	-0.713468	-0.624154
H94	H	1.202995	-0.633116	-0.629850
H95	H	1.031006	-0.629825	-0.752429
H96	H	1.121597	-0.549476	-0.758163
H97	H	1.231256	-0.677441	-0.800174
H98	H	1.140648	-0.757790	-0.794469
H99	H	1.140556	-0.671735	-0.879942
H100	H	1.628287	-0.387411	-0.899456
H101	H	1.628351	-0.387338	-1.108582
C102	C	1.437739	-0.578831	-0.951357
C103	C	1.379090	-0.637742	-0.880302
C104	C	1.312163	-0.704907	-0.934771
H105	H	1.477632	-0.624647	-0.993936
H106	H	1.392213	-0.538605	-0.993916
H107	H	1.424611	-0.677965	-0.837761
H108	H	1.339176	-0.591954	-0.837720
H109	H	1.266637	-0.664682	-0.977330
H110	H	1.352065	-0.750717	-0.977349
H111	H	1.272356	-0.744880	-0.886569
C112	C	0.891257	-0.642892	-0.639232
C113	C	0.784021	-0.628397	-0.624892
C114	C	0.729145	-0.695503	-0.691534
H115	H	0.908952	-0.713521	-0.623899
H116	H	0.909067	-0.627600	-0.709508
H117	H	0.766217	-0.643696	-0.554632
H118	H	0.766294	-0.557782	-0.640233
H119	H	0.746956	-0.680211	-0.761810
H120	H	0.746849	-0.766128	-0.676195
H121	H	0.656380	-0.685671	-0.681820
C122	C	1.783384	-0.891251	-0.230444
C123	C	1.760702	-0.918069	-0.127042
C124	C	1.827471	-0.863356	-0.060046
H125	H	1.773833	-0.818032	-0.239843
H126	H	1.853620	-0.909183	-0.245731
H127	H	1.690483	-0.900130	-0.111760
H128	H	1.770259	-0.991279	-0.117611
H129	H	1.897707	-0.881288	-0.075333
H130	H	1.817914	-0.790139	-0.069454
H131	H	1.812097	-0.881551	0.010119
C132	C	1.644305	-1.234391	-0.369821
C133	C	1.717177	-1.270696	-0.297043
C134	C	1.717370	-1.380430	-0.296866
H135	H	1.662395	-1.259268	-0.437219
H136	H	1.576910	-1.259324	-0.351650
H137	H	1.784558	-1.245773	-0.315219
H138	H	1.699104	-1.245848	-0.229634
H139	H	1.649974	-1.405364	-0.278696
H140	H	1.735457	-1.405296	-0.364268
H141	H	1.766805	-1.405077	-0.247481
H142	H	1.456024	-0.560524	-1.071256
