data_functionalizedCrystal
_audit_creation_method	'MofGen! by Chris Wilmer'
_symmetry_space_group_name_H-M	'P1'
_symmetry_Int_Tables_number	1
_symmetry_cell_setting	triclinic
loop_
_symmetry_equiv_pos_as_xyz
  x,y,z
_cell_length_a	16.109301
_cell_length_b	23.532407
_cell_length_c	14.586319
_cell_angle_alpha	89.991566
_cell_angle_beta	89.999213
_cell_angle_gamma	83.155079
loop_
_atom_site_label
_atom_site_type_symbol
_atom_site_fract_x
_atom_site_fract_y
_atom_site_fract_z
O1	O	1.102555	0.073202	-0.076192
O2	O	0.860422	0.082312	-0.076208
O3	O	0.988790	-0.005148	-0.076183
O4	O	0.974187	0.160662	-0.076217
O5	O	0.988781	-0.005149	0.076298
O6	O	0.860413	0.082311	0.076273
O7	O	1.102546	0.073201	0.076289
Cu8	Cu	0.981479	0.077756	0.090204
Cu9	Cu	0.981489	0.077757	-0.090123
O10	O	0.974178	0.160660	0.076264
C11	C	0.829445	0.081942	0.000031
C12	C	0.737159	0.080836	0.000026
C13	C	0.514498	0.130160	0.000026
C14	C	0.427786	0.129116	0.000032
C15	C	0.448476	0.025348	0.000050
C16	C	0.535187	0.026393	0.000050
C17	C	0.568195	0.078801	0.000034
C18	C	0.394773	0.076712	0.000039
C19	C	0.300755	0.075580	0.000046
C20	C	0.662218	0.079933	0.000029
C21	C	0.988414	-0.026366	0.000060
C22	C	0.987296	-0.089587	0.000067
C23	C	1.056249	-0.488436	0.000021
C24	C	1.055210	-0.547840	0.000014
O25	O	1.119130	-0.584349	-0.000015
N26	N	0.978895	-0.570748	0.000010
C27	C	0.903614	-0.534248	0.000003
O28	O	0.838607	-0.559187	-0.000002
C29	C	0.904654	-0.474845	0.000004
C30	C	0.980973	-0.451941	0.000018
C31	C	1.132562	-0.465531	0.000034
C32	C	1.133601	-0.406131	0.000043
C33	C	1.058325	-0.369636	0.000039
C34	C	0.982012	-0.392541	0.000026
C35	C	0.829373	-0.438346	-0.000009
C36	C	0.830419	-0.378940	-0.000009
C37	C	0.906739	-0.356036	0.000004
C38	C	0.907774	-0.296645	0.000031
N39	N	0.984089	-0.273738	0.000035
C40	C	1.059365	-0.310233	0.000039
C41	C	0.901437	-0.658998	0.000001
C42	C	0.900396	-0.718400	0.000007
C43	C	1.051993	-0.731988	0.000016
C44	C	1.053032	-0.672585	0.000017
C45	C	0.977752	-0.636091	0.000005
C46	C	1.061539	-0.185488	0.000058
C47	C	1.062571	-0.126082	0.000071
C48	C	0.910975	-0.112499	0.000057
C49	C	0.909943	-0.171900	0.000049
C50	C	0.985232	-0.208394	0.000047
O51	O	0.843888	-0.260102	0.000057
O52	O	1.124361	-0.285285	0.000032
C53	C	1.133523	0.073570	0.000048
C54	C	1.225809	0.074677	0.000047
C55	C	0.974554	0.181878	0.000019
C56	C	0.975672	0.245100	0.000006
N57	N	0.981477	0.077754	0.217035
N58	N	0.981497	0.077754	-0.216954
C59	C	1.038338	0.039040	0.452053
C60	C	1.038340	0.039039	0.548034
C61	C	0.924631	0.116470	0.548021
C62	C	0.924625	0.116468	0.452042
C63	C	0.981483	0.077754	0.404060
C64	C	0.981491	0.077754	0.596021
C65	C	0.981494	0.077753	0.700088
C66	C	0.981480	0.077754	0.299986
H67	H	0.421590	-0.017320	0.000069
H68	H	0.384069	0.170939	0.000028
H69	H	1.084634	0.007516	0.412989
H70	H	0.878324	0.147994	0.412964
H71	H	0.878340	0.147991	0.587098
H72	H	0.578910	-0.015433	0.000059
C73	C	1.144357	-0.225625	0.000063
C74	C	1.207017	-0.223066	0.079255
C75	C	1.289833	-0.263203	0.079267
C76	C	1.309988	-0.305899	0.000088
C77	C	1.247326	-0.308460	-0.079110
C78	C	1.164510	-0.268323	-0.079122
H79	H	1.192098	-0.191458	0.137874
H80	H	1.336220	-0.261307	0.137895
H81	H	1.371294	-0.335611	0.000097
H82	H	1.262245	-0.340068	-0.137728
H83	H	1.118124	-0.270220	-0.137750
C84	C	1.215375	-0.505669	0.000045
C85	C	1.235508	-0.548378	0.079231
C86	C	1.318328	-0.588512	0.079251
C87	C	1.381014	-0.585936	0.000085
C88	C	1.360882	-0.543225	-0.079107
C89	C	1.278063	-0.503092	-0.079127
H90	H	1.189103	-0.550287	0.137839
H91	H	1.333230	-0.620129	0.137874
H92	H	1.442322	-0.615645	0.000099
H93	H	1.407287	-0.541317	-0.137716
H94	H	1.263160	-0.471474	-0.137751
C95	C	0.550809	0.187807	0.000018
C96	C	0.491739	0.244301	0.000016
C97	C	0.528046	0.301950	0.000012
C98	C	0.623424	0.303104	0.000010
C99	C	0.682499	0.246607	0.000012
C100	C	0.646192	0.188959	0.000017
H101	H	0.421130	0.243449	0.000017
H102	H	0.484314	0.343772	0.000010
H103	H	0.650301	0.345778	0.000007
H104	H	0.753108	0.247459	0.000011
H105	H	0.689924	0.147136	0.000018
C106	C	1.134800	-0.772140	0.000012
C107	C	1.154924	-0.814859	0.079186
C108	C	1.237726	-0.855012	0.079183
C109	C	1.300403	-0.852444	0.000007
C110	C	1.280281	-0.809723	-0.079173
C111	C	1.197479	-0.769571	-0.079170
H112	H	1.108525	-0.816761	0.137803
H113	H	1.252622	-0.886637	0.137798
H114	H	1.361698	-0.882167	0.000005
H115	H	1.326680	-0.807821	-0.137789
H116	H	1.182583	-0.737945	-0.137784
C117	C	1.100883	-0.003546	0.600828
C118	C	1.163429	-0.046123	0.548047
C119	C	1.225974	-0.088710	0.600841
C120	C	1.225972	-0.088719	0.706414
C121	C	1.163424	-0.046140	0.759201
C122	C	1.100879	-0.003553	0.706407
H123	H	1.163432	-0.046118	0.469890
H124	H	1.272276	-0.120230	0.561764
H125	H	1.272271	-0.120244	0.745495
H126	H	1.163421	-0.046145	0.837358
H127	H	1.054577	0.027967	0.745484
C128	C	0.818621	-0.618856	0.000005
C129	C	0.755946	-0.621416	-0.079173
C130	C	0.673131	-0.581278	-0.079169
C131	C	0.652990	-0.538581	0.000012
C132	C	0.715667	-0.536020	0.079196
C133	C	0.798482	-0.576158	0.079192
H134	H	0.770854	-0.653024	-0.137793
H135	H	0.626734	-0.583174	-0.137787
H136	H	0.591686	-0.508868	0.000015
H137	H	0.700759	-0.504411	0.137816
H138	H	0.844879	-0.574262	0.137810
H139	H	1.115179	-0.653941	0.000027
H140	H	1.124722	-0.107437	0.000084
H141	H	1.195748	-0.387488	0.000050
H142	H	0.838249	-0.737043	0.000012
C143	C	0.747607	-0.338796	-0.000018
C144	C	0.727477	-0.296079	-0.079195
C145	C	0.644667	-0.255937	-0.079201
C146	C	0.581986	-0.258510	-0.000030
C147	C	0.602114	-0.301228	0.079153
C148	C	0.684924	-0.341371	0.079159
H149	H	0.773879	-0.294173	-0.137808
H150	H	0.629767	-0.224314	-0.137818
H151	H	0.520684	-0.228794	-0.000034
H152	H	0.555712	-0.303135	0.137766
H153	H	0.699824	-0.372994	0.137776
C154	C	0.828176	-0.072346	0.000046
C155	C	0.765515	-0.074895	-0.079148
C156	C	0.682716	-0.034740	-0.079169
C157	C	0.662579	0.007964	0.000004
C158	C	0.725242	0.010515	0.079203
C159	C	0.808040	-0.029641	0.079224
H160	H	0.780420	-0.106509	-0.137762
H161	H	0.636329	-0.036628	-0.137798
H162	H	0.601286	0.037690	-0.000012
H163	H	0.710336	0.042128	0.137817
H164	H	0.854427	-0.027752	0.137853
H165	H	0.767225	-0.456984	-0.000026
H166	H	0.847797	-0.190549	0.000064
