data_functionalizedCrystal
_audit_creation_method	'MofGen! by Chris Wilmer'
_symmetry_space_group_name_H-M	'P1'
_symmetry_Int_Tables_number	1
_symmetry_cell_setting	triclinic
loop_
_symmetry_equiv_pos_as_xyz
  x,y,z
_cell_length_a	12.645331
_cell_length_b	18.050590
_cell_length_c	12.645324
_cell_angle_alpha	89.962529
_cell_angle_beta	89.977038
_cell_angle_gamma	90.017531
loop_
_atom_site_label
_atom_site_type_symbol
_atom_site_fract_x
_atom_site_fract_y
_atom_site_fract_z
Zn1	Zn	1.620728	-0.295623	-0.599404
Zn2	Zn	1.620606	-0.419837	-0.422127
Zn3	Zn	1.443442	-0.295663	-0.422149
Zn4	Zn	1.443422	-0.419774	-0.599342
O5	O	1.532049	-0.357724	-0.510755
O6	O	1.769059	-0.312110	-0.575905
O7	O	1.597062	-0.403409	-0.273782
O8	O	1.467018	-0.191733	-0.445697
O9	O	1.768969	-0.403370	-0.445660
O10	O	1.597270	-0.191704	-0.575926
O11	O	1.466900	-0.312179	-0.273798
O12	O	1.295092	-0.312117	-0.445637
O13	O	1.466984	-0.403262	-0.747698
O14	O	1.295077	-0.403300	-0.575820
O15	O	1.597250	-0.312049	-0.747743
O16	O	1.597043	-0.523753	-0.445599
O17	O	1.466866	-0.523707	-0.575799
C18	C	1.256620	-0.357707	-0.510725
C19	C	1.138790	-0.357717	-0.510737
C20	C	1.531968	-0.550677	-0.510713
C21	C	1.532030	-0.633222	-0.510731
C22	C	0.971199	-0.300090	-0.429290
C23	C	1.093759	-0.300239	-0.428931
C24	C	1.094267	-0.435953	-0.480211
C25	C	0.971669	-0.435638	-0.479655
C26	C	0.971641	-0.337853	-0.623024
C27	C	1.094247	-0.336106	-0.622400
C28	C	1.602967	-0.832671	-0.440027
C29	C	1.628868	-0.881993	-0.536780
C30	C	1.532090	-0.784353	-0.510773
C31	C	1.506297	-0.882112	-0.414063
C32	C	1.532150	-0.930338	-0.510805
C33	C	1.558041	-0.832588	-0.607577
C34	C	1.435425	-0.832702	-0.484795
C35	C	1.461289	-0.882002	-0.581614
C36	C	1.532058	-0.700254	-0.510753
C37	C	1.532182	-1.014434	-0.510836
C38	C	1.808555	-0.357743	-0.510787
C39	C	1.926385	-0.357750	-0.510800
C40	C	1.532129	-0.357644	-0.787261
C41	C	1.532163	-0.357609	-0.905091
C42	C	1.532160	-0.164019	-0.510821
C43	C	1.532207	-0.081473	-0.510849
C44	C	1.614432	-0.300393	-1.072684
C45	C	1.614168	-0.300187	-0.950124
C46	C	1.420481	-0.336341	-0.949572
C47	C	1.420980	-0.335906	-1.072171
C48	C	1.560668	-0.436177	-1.072278
C49	C	1.563112	-0.435782	-0.949672
C50	C	1.532031	-0.357751	-0.235326
C51	C	1.532203	-0.357576	-0.117496
H52	H	1.123861	-0.242224	-0.448066
H53	H	0.940746	-0.281799	-0.650783
C54	C	1.324988	-0.803418	-0.455049
C55	C	1.228385	-0.823991	-0.523089
C56	C	1.117948	-0.794706	-0.493330
C57	C	1.104113	-0.744847	-0.395530
C58	C	1.200719	-0.724272	-0.327484
C59	C	1.311156	-0.753557	-0.357243
H60	H	1.238624	-0.860902	-0.595492
H61	H	1.046435	-0.809938	-0.543703
H62	H	1.022361	-0.723168	-0.373501
H63	H	1.190480	-0.687361	-0.255081
H64	H	1.382669	-0.738325	-0.306870
C65	C	1.133322	-0.318010	-0.316588
C66	C	1.252845	-0.321679	-0.293907
C67	C	1.292407	-0.339452	-0.181559
C68	C	1.212447	-0.353556	-0.091892
C69	C	1.092916	-0.349888	-0.114571
C70	C	1.053354	-0.332115	-0.226919
H71	H	1.312044	-0.311237	-0.360285
H72	H	1.380892	-0.342167	-0.164770
H73	H	1.241733	-0.366713	-0.008725
H74	H	1.033718	-0.360329	-0.048193
H75	H	0.964869	-0.329399	-0.243708
C76	C	1.739335	-0.911249	-0.566498
C77	C	1.835584	-0.891772	-0.497310
C78	C	1.946053	-0.921021	-0.527022
C79	C	1.960273	-0.969749	-0.625923
C80	C	1.864021	-0.989228	-0.695118
C81	C	1.753552	-0.959978	-0.665406
H82	H	1.825059	-0.855698	-0.424092
H83	H	2.017304	-0.906601	-0.475799
H84	H	2.042049	-0.991401	-0.647918
H85	H	1.874545	-1.025301	-0.768336
H86	H	1.682300	-0.974399	-0.716629
C87	C	1.335392	-0.389717	-1.112224
C88	C	1.318387	-0.400294	-1.231845
C89	C	1.232795	-0.454098	-1.271893
C90	C	1.164207	-0.497325	-1.192320
C91	C	1.181211	-0.486749	-1.072692
C92	C	1.266803	-0.432945	-1.032644
H93	H	1.369161	-0.368294	-1.290756
H94	H	1.220208	-0.461927	-1.360450
H95	H	1.100847	-0.537154	-1.221966
H96	H	1.130437	-0.518750	-1.013781
H97	H	1.279390	-0.425116	-0.944087
C98	C	0.932961	-0.458425	-0.368822
C99	C	0.864071	-0.404972	-0.303583
C100	C	0.825370	-0.427756	-0.192746
C101	C	0.855559	-0.503994	-0.147150
C102	C	0.924452	-0.557452	-0.212391
C103	C	0.963153	-0.534667	-0.323227
H104	H	0.841721	-0.348531	-0.337335
H105	H	0.774371	-0.388183	-0.144451
H106	H	0.826910	-0.520861	-0.065102
H107	H	0.946802	-0.613892	-0.178638
H108	H	1.014152	-0.574241	-0.371522
H109	H	0.942024	-0.480055	-0.536434
C110	C	1.476780	-0.911495	-0.303560
C111	C	1.546115	-0.892035	-0.207418
C112	C	1.516608	-0.921414	-0.096913
C113	C	1.417764	-0.970254	-0.082551
C114	C	1.348423	-0.989718	-0.178696
C115	C	1.377930	-0.960338	-0.289201
H116	H	1.619291	-0.855878	-0.218047
H117	H	1.567939	-0.907006	-0.025740
H118	H	1.395921	-0.992003	-0.000748
H119	H	1.275248	-1.025874	-0.168067
H120	H	1.326599	-0.974746	-0.360374
C121	C	0.929497	-0.317648	-0.317612
C122	C	0.863304	-0.259802	-0.257414
C123	C	0.821587	-0.277362	-0.145741
C124	C	0.846064	-0.352768	-0.094266
C125	C	0.912260	-0.410618	-0.154464
C126	C	0.953976	-0.393058	-0.266137
H127	H	0.845182	-0.203978	-0.295518
H128	H	0.772584	-0.234537	-0.101178
H129	H	0.815183	-0.365767	-0.011599
H130	H	0.930382	-0.466443	-0.116359
H131	H	1.002979	-0.435884	-0.310699
H132	H	1.123436	-0.480063	-0.537715
H133	H	1.640683	-0.455540	-1.103261
H134	H	1.124922	-0.453115	-0.399050
H135	H	1.696982	-0.313507	-0.920051
H136	H	1.124904	-0.375039	-0.686380
H137	H	1.645300	-0.451820	-0.920599
H138	H	1.396851	-0.278450	-1.100788
H139	H	1.395909	-0.279525	-0.918885
C140	C	1.589345	-0.222174	-1.114382
C141	C	1.494598	-0.210048	-1.188869
C142	C	1.469528	-0.131833	-1.230597
C143	C	1.539206	-0.065744	-1.197837
C144	C	1.633960	-0.077867	-1.123346
C145	C	1.659030	-0.156082	-1.081618
H146	H	1.443012	-0.258973	-1.213124
H147	H	1.399385	-0.122859	-1.285740
H148	H	1.520649	-0.007845	-1.228726
H149	H	1.685546	-0.028942	-1.099091
H150	H	1.729173	-0.165056	-1.026475
C151	C	0.932490	-0.394586	-0.705071
C152	C	0.866206	-0.368668	-0.800285
C153	C	0.827048	-0.425404	-0.882320
C154	C	0.854173	-0.508058	-0.869139
C155	C	0.920461	-0.533980	-0.773921
C156	C	0.959619	-0.477244	-0.691887
H157	H	0.846122	-0.307479	-0.810045
H158	H	0.777977	-0.406215	-0.952807
H159	H	0.825186	-0.550057	-0.929866
H160	H	0.940544	-0.595169	-0.764161
H161	H	1.008690	-0.496434	-0.621400
C162	C	1.683961	-0.803400	-0.359289
C163	C	1.698127	-0.719370	-0.343785
C164	C	1.779122	-0.690097	-0.263055
C165	C	1.845951	-0.744853	-0.197827
C166	C	1.831787	-0.828888	-0.213328
C167	C	1.750792	-0.858161	-0.294059
H168	H	1.648654	-0.678832	-0.392073
H169	H	1.789607	-0.627889	-0.251580
H170	H	1.905908	-0.723183	-0.138065
H171	H	1.881259	-0.869426	-0.165041
H172	H	1.740307	-0.920369	-0.305533
H173	H	1.579800	-0.810927	-0.689446
H174	H	1.357546	-0.376710	-0.920400
H175	H	1.697520	-0.313546	-1.102175
H176	H	1.401376	-0.903525	-0.641525
H177	H	1.595321	-0.241961	-0.920819
H178	H	1.507573	-0.480680	-0.919013
H179	H	0.941737	-0.241901	-0.448220
H180	H	1.123352	-0.278533	-0.645418
C181	C	1.479769	-0.493742	-1.111428
C182	C	1.412756	-0.537593	-1.031212
C183	C	1.331856	-0.595151	-1.070369
C184	C	1.317968	-0.608858	-1.189743
C185	C	1.384983	-0.565006	-1.269967
C186	C	1.465884	-0.507448	-1.230809
H187	H	1.423035	-0.527447	-0.942837
H188	H	1.282247	-0.627613	-1.010982
H189	H	1.258081	-0.651466	-1.218730
H190	H	1.374705	-0.575152	-1.358341
H191	H	1.515492	-0.474986	-1.290197
