data_functionalizedCrystal
_audit_creation_method	'MofGen! by Chris Wilmer'
_symmetry_space_group_name_H-M	'P1'
_symmetry_Int_Tables_number	1
_symmetry_cell_setting	triclinic
loop_
_symmetry_equiv_pos_as_xyz
  x,y,z
_cell_length_a	17.699083
_cell_length_b	17.699103
_cell_length_c	17.766277
_cell_angle_alpha	89.988671
_cell_angle_beta	89.996667
_cell_angle_gamma	83.287038
loop_
_atom_site_label
_atom_site_type_symbol
_atom_site_fract_x
_atom_site_fract_y
_atom_site_fract_z
O1	O	1.004088	0.095711	-0.062497
O2	O	0.783710	0.108164	-0.062523
O3	O	0.900117	-0.008251	-0.062495
O4	O	0.887681	0.212126	-0.062525
O5	O	0.900097	-0.008256	0.062694
O6	O	0.783690	0.108158	0.062666
O7	O	1.004067	0.095706	0.062692
Cu8	Cu	0.893877	0.101931	0.074109
Cu9	Cu	0.893901	0.101938	-0.073941
O10	O	0.887660	0.212120	0.062664
C11	C	0.899659	-0.036450	0.000102
C12	C	0.898315	-0.120468	0.000108
C13	C	0.755503	0.107715	0.000068
C14	C	0.671485	0.106376	0.000059
C15	C	0.890101	-0.636176	-0.068183
C16	C	0.891364	-0.557232	-0.068176
C17	C	0.891982	-0.517777	0.000069
C18	C	0.891346	-0.557270	0.068311
C19	C	0.890089	-0.636213	0.068304
C20	C	0.896416	-0.238904	0.068343
C21	C	0.897671	-0.159956	0.068346
C22	C	0.897691	-0.159923	-0.068136
C23	C	0.896434	-0.238866	-0.068144
C24	C	0.895802	-0.278353	0.000098
C25	C	0.894434	-0.363952	0.000090
C26	C	0.893344	-0.432178	0.000078
C27	C	0.622869	0.174709	0.000050
C28	C	0.543925	0.173447	0.000060
C29	C	0.513600	0.103851	0.000074
C30	C	0.562222	0.035513	0.000085
C31	C	0.641164	0.036776	0.000081
C32	C	0.243859	0.030418	0.000104
C33	C	0.164910	0.029160	0.000107
C34	C	0.146620	0.167088	0.000084
C35	C	0.225562	0.168351	0.000079
C36	C	0.274177	0.100014	0.000095
C37	C	0.359777	0.101383	0.000085
C38	C	0.428002	0.102480	0.000078
C39	C	1.032275	0.096155	0.000099
C40	C	1.116293	0.097493	0.000103
C41	C	0.888119	0.240320	0.000066
C42	C	0.889463	0.324337	0.000055
N43	N	0.893865	0.101926	0.178240
N44	N	0.893918	0.101938	-0.178071
C45	C	0.945427	0.050403	0.217639
C46	C	0.945431	0.050399	0.296441
C47	C	0.893881	0.101932	0.335840
C48	C	0.842310	0.153459	0.296431
C49	C	0.842302	0.153456	0.217631
C50	C	0.883843	0.170880	0.460668
C51	C	0.883856	0.170884	0.539467
C52	C	0.893901	0.101941	0.578887
C53	C	0.903950	0.032991	0.539498
C54	C	0.903942	0.032988	0.460698
C55	C	0.893884	0.101941	0.421286
C56	C	0.945471	0.050410	0.703732
C57	C	0.945470	0.050405	0.782535
C58	C	0.842352	0.153471	0.782524
C59	C	0.842349	0.153469	0.703723
C60	C	0.893913	0.101939	0.664331
H61	H	0.889591	-0.668293	-0.123756
H62	H	0.987455	0.008445	0.814615
C63	C	0.892056	-0.513799	-0.143241
C64	C	0.957579	-0.533352	-0.199543
C65	C	0.958270	-0.489920	-0.274612
C66	C	0.893438	-0.426935	-0.293379
C67	C	0.827911	-0.407379	-0.237075
C68	C	0.827220	-0.450811	-0.162006
H69	H	1.005576	-0.579980	-0.185652
H70	H	1.006778	-0.504397	-0.316292
H71	H	0.893950	-0.394785	-0.348950
H72	H	0.779914	-0.360752	-0.250966
H73	H	0.778712	-0.436334	-0.120326
C74	C	0.915015	-0.042867	0.582826
C75	C	0.988314	-0.097822	0.571965
C76	C	0.999390	-0.173682	0.615286
C77	C	0.937166	-0.194588	0.669467
C78	C	0.863862	-0.139631	0.680330
C79	C	0.852786	-0.063771	0.637010
H80	H	1.034381	-0.082347	0.531854
H81	H	1.053655	-0.214364	0.607244
H82	H	0.945365	-0.250744	0.701536
H83	H	0.817795	-0.155106	0.720441
H84	H	0.798521	-0.023089	0.645052
C85	C	0.785604	0.210147	0.339766
C86	C	0.785646	0.210190	0.426444
C87	C	0.728936	0.266878	0.469777
C88	C	0.672184	0.323522	0.426434
C89	C	0.672140	0.323481	0.339752
C90	C	0.728850	0.266793	0.296418
H91	H	0.827660	0.168257	0.458533
H92	H	0.728969	0.266909	0.533945
H93	H	0.630203	0.365486	0.458512
H94	H	0.630126	0.365414	0.307662
H95	H	0.728817	0.266763	0.232250
H96	H	0.504345	0.229090	0.000052
C97	C	0.898395	-0.116487	-0.143206
C98	C	0.964960	-0.070925	-0.161968
C99	C	0.965662	-0.027490	-0.237035
C100	C	0.899798	-0.029618	-0.293339
C101	C	0.833228	-0.075182	-0.274579
C102	C	0.832527	-0.118616	-0.199512
H103	H	1.013721	-0.069348	-0.120287
H104	H	1.014942	0.006239	-0.250922
H105	H	0.900318	0.002535	-0.348908
H106	H	0.784468	-0.076758	-0.316260
H107	H	0.783247	-0.152346	-0.185624
C108	C	0.872802	0.246726	0.582791
C109	C	0.861735	0.322562	0.539435
C110	C	0.850679	0.398405	0.582757
C111	C	0.850691	0.398413	0.669434
C112	C	0.861759	0.322574	0.712795
C113	C	0.872814	0.246731	0.669473
H114	H	0.861726	0.322558	0.475267
H115	H	0.842487	0.454546	0.550658
H116	H	0.842507	0.454557	0.701504
H117	H	0.861768	0.322578	0.776963
H118	H	0.881007	0.190590	0.701571
H119	H	0.250248	0.225023	0.000065
H120	H	0.875649	0.227025	0.428579
H121	H	0.107027	0.222732	0.000075
C122	C	0.898358	-0.116554	0.143420
C123	C	0.832488	-0.118714	0.199720
C124	C	0.833175	-0.075312	0.274789
C125	C	0.899731	-0.029750	0.293559
C126	C	0.965606	-0.027589	0.237258
C127	C	0.964920	-0.070990	0.162188
H128	H	0.783214	-0.152443	0.185827
H129	H	0.784409	-0.076912	0.316467
H130	H	0.900240	0.002379	0.349130
H131	H	1.014880	0.006141	0.251151
H132	H	1.013685	-0.069390	0.120511
H133	H	0.895902	-0.271045	0.123910
C134	C	0.528865	-0.041044	0.000102
C135	C	0.547261	-0.097767	0.065120
C136	C	0.513906	-0.174325	0.065135
C137	C	0.462153	-0.194160	0.000133
C138	C	0.443754	-0.137435	-0.064889
C139	C	0.477109	-0.060877	-0.064905
H140	H	0.585574	-0.083085	0.113243
H141	H	0.527526	-0.216315	0.113270
H142	H	0.437461	-0.250832	0.000145
H143	H	0.405441	-0.152117	-0.113012
H144	H	0.463489	-0.018886	-0.113039
C145	C	0.131551	-0.047401	0.000128
C146	C	0.149943	-0.104119	0.065150
C147	C	0.116582	-0.180675	0.065171
C148	C	0.064830	-0.200512	0.000169
C149	C	0.046436	-0.143792	-0.064858
C150	C	0.079796	-0.067236	-0.064879
H151	H	0.188255	-0.089436	0.113273
H152	H	0.130199	-0.222662	0.113308
H153	H	0.040135	-0.257183	0.000184
H154	H	0.008123	-0.158475	-0.112981
H155	H	0.066179	-0.025249	-0.113016
H156	H	0.891855	-0.525140	0.123878
C157	C	0.694646	-0.038391	0.000089
C158	C	0.691337	-0.095462	0.065106
C159	C	0.744818	-0.170631	0.065118
C160	C	0.801608	-0.188729	0.000114
C161	C	0.804919	-0.131656	-0.064907
C162	C	0.751438	-0.056487	-0.064920
H163	H	0.649295	-0.082067	0.113230
H164	H	0.742366	-0.212880	0.113252
H165	H	0.841198	-0.244373	0.000124
H166	H	0.846961	-0.145052	-0.113032
H167	H	0.753890	-0.014238	-0.113054
C168	C	0.914981	-0.042853	0.417371
C169	C	0.988268	-0.097836	0.428201
C170	C	0.999302	-0.173678	0.384876
C171	C	0.937049	-0.194537	0.330720
C172	C	0.863757	-0.139552	0.319887
C173	C	0.852723	-0.063710	0.363213
H174	H	1.034356	-0.082397	0.468293
H175	H	1.053557	-0.214382	0.392895
H176	H	0.945216	-0.250680	0.298648
H177	H	0.817669	-0.154992	0.279796
H178	H	0.798467	-0.023007	0.355194
H179	H	0.987455	0.008449	0.671658
C180	C	0.785644	0.210157	0.825855
C181	C	0.785700	0.210211	0.912532
C182	C	0.728989	0.266896	0.955868
C183	C	0.672222	0.323527	0.912527
C184	C	0.672163	0.323475	0.825845
C185	C	0.728875	0.266790	0.782509
H186	H	0.827725	0.168288	0.944621
H187	H	0.729032	0.266934	1.020036
H188	H	0.630240	0.365488	0.944607
H189	H	0.630139	0.365398	0.793757
H190	H	0.728831	0.266752	0.718341
H191	H	0.283432	-0.025227	0.000118
H192	H	0.895926	-0.270986	-0.123716
C193	C	0.889378	-0.679655	0.143364
C194	C	0.823841	-0.660110	0.199652
C195	C	0.823131	-0.703552	0.274714
C196	C	0.887957	-0.766539	0.293487
C197	C	0.953499	-0.786088	0.237198
C198	C	0.954210	-0.742645	0.162136
H199	H	0.775848	-0.613480	0.185756
H200	H	0.774612	-0.689081	0.316383
H201	H	0.887431	-0.798698	0.349052
H202	H	1.001492	-0.832717	0.251094
H203	H	1.002728	-0.757116	0.120467
H204	H	0.987411	0.008442	0.185569
H205	H	0.647553	0.231382	0.000038
H206	H	0.987420	0.008441	0.328526
H207	H	0.800366	0.195427	0.671641
H208	H	0.800313	0.195413	0.185552
