data_functionalizedCrystal
_audit_creation_method	'MofGen! by Chris Wilmer'
_symmetry_space_group_name_H-M	'P1'
_symmetry_Int_Tables_number	1
_symmetry_cell_setting	triclinic
loop_
_symmetry_equiv_pos_as_xyz
  x,y,z
_cell_length_a	11.026607
_cell_length_b	14.853567
_cell_length_c	10.065875
_cell_angle_alpha	98.805381
_cell_angle_beta	79.302338
_cell_angle_gamma	96.110474
loop_
_atom_site_label
_atom_site_type_symbol
_atom_site_fract_x
_atom_site_fract_y
_atom_site_fract_z
O1	O	1.628533	0.367252	-0.113466
O2	O	1.275155	0.324252	-0.113471
O3	O	1.461284	0.216045	-0.113472
O4	O	1.442404	0.475459	-0.113464
O5	O	1.425792	0.236785	0.113517
O6	O	1.239663	0.344992	0.113518
O7	O	1.593041	0.387992	0.113524
Zn8	Zn	1.410717	0.369785	0.149560
Zn9	Zn	1.457479	0.342459	-0.149507
O10	O	1.406912	0.496199	0.113525
C11	C	1.212185	0.326689	0.000023
C12	C	1.077432	0.303041	0.000021
C13	C	1.003736	0.368337	0.000022
C14	C	0.864461	0.343897	0.000019
C15	C	1.442683	0.192688	0.000018
C16	C	1.440122	0.092190	0.000007
C17	C	1.318718	-0.339931	0.000031
C18	C	1.539843	-0.325531	0.000034
C19	C	1.542254	-0.231109	0.000026
C20	C	1.432895	-0.191094	0.000022
C21	C	1.321126	-0.245500	0.000027
C22	C	1.654020	-0.176694	0.000035
C23	C	1.656436	-0.082266	0.000029
C24	C	1.547077	-0.042250	0.000016
C25	C	1.435303	-0.096663	0.000019
C26	C	1.325944	-0.056648	0.000015
C27	C	1.214170	-0.111060	0.000008
C28	C	1.211767	-0.205484	0.000014
C29	C	1.549480	0.052174	0.000010
C30	C	1.328352	0.037783	0.000011
C31	C	1.656012	0.385555	0.000027
C32	C	1.790767	0.409202	0.000020
C33	C	1.425514	0.519556	0.000031
C34	C	1.428077	0.620053	0.000034
N35	N	1.378812	0.388434	0.353666
N36	N	1.489394	0.323804	-0.353613
C37	C	1.446371	0.348941	0.421444
C38	C	1.421825	0.363303	0.578612
H39	H	1.037421	0.229043	-0.000017
C40	C	1.208047	0.081791	0.000003
N41	N	1.117432	0.114938	-0.000002
C42	C	1.319125	0.423345	0.657399
N43	N	1.241773	0.468568	0.716743
H44	H	1.227715	-0.384238	0.000020
H45	H	1.747449	-0.037972	0.000032
H46	H	0.830774	0.483203	0.000032
C47	C	1.549041	0.288880	0.342652
N48	N	1.626369	0.243634	0.283308
H49	H	1.125130	-0.078466	0.000015
C50	C	1.276117	0.448474	0.432458
N51	N	1.198764	0.493696	0.491803
C52	C	1.088822	-0.265341	0.000035
N53	N	0.996219	-0.310428	0.000062
C54	C	0.810414	0.243926	0.000016
N55	N	0.769703	0.168628	0.000012
H56	H	1.628875	-0.358117	0.000048
C57	C	1.774304	-0.220716	0.000049
N58	N	1.864906	-0.253878	0.000057
H59	H	1.640484	0.096473	0.000025
C60	C	1.592096	0.263763	0.567603
N61	N	1.669453	0.218543	0.508262
C62	C	1.057788	0.468304	0.000030
N63	N	1.098499	0.543601	0.000036
