data_functionalizedCrystal
_audit_creation_method	'MofGen! by Chris Wilmer'
_symmetry_space_group_name_H-M	'P1'
_symmetry_Int_Tables_number	1
_symmetry_cell_setting	triclinic
loop_
_symmetry_equiv_pos_as_xyz
  x,y,z
_cell_length_a	19.805407
_cell_length_b	16.625539
_cell_length_c	19.805405
_cell_angle_alpha	89.968169
_cell_angle_beta	90.023727
_cell_angle_gamma	89.980237
loop_
_atom_site_label
_atom_site_type_symbol
_atom_site_fract_x
_atom_site_fract_y
_atom_site_fract_z
Zn1	Zn	1.034749	-0.455872	-0.269510
Zn2	Zn	1.534749	0.044128	0.230490
Zn3	Zn	1.034660	-0.321031	-0.382704
Zn4	Zn	1.534660	0.178969	0.117296
Zn5	Zn	0.921560	-0.321055	-0.269529
Zn6	Zn	1.421560	0.178945	0.230471
Zn7	Zn	0.921527	-0.455823	-0.382658
Zn8	Zn	1.421527	0.044177	0.117342
O9	O	0.978124	-0.388445	-0.326100
O10	O	1.478124	0.111555	0.173900
O11	O	1.129453	-0.437996	-0.284537
O12	O	1.629453	0.062004	0.215463
O13	O	1.019633	-0.208202	-0.367718
O14	O	1.519633	0.291798	0.132282
O15	O	0.936625	-0.338969	-0.174810
O16	O	1.436625	0.161031	0.325190
O17	O	1.129388	-0.338929	-0.367700
O18	O	1.629388	0.161071	0.132300
O19	O	1.019785	-0.438019	-0.174796
O20	O	1.519785	0.061981	0.325204
O21	O	0.936539	-0.208219	-0.284569
O22	O	1.436539	0.291781	0.215431
O23	O	0.826839	-0.338921	-0.284524
O24	O	1.326839	0.161079	0.215476
O25	O	0.936570	-0.568662	-0.367621
O26	O	1.436570	-0.068662	0.132379
O27	O	0.826815	-0.437935	-0.367639
O28	O	1.326815	0.062065	0.132361
O29	O	1.019753	-0.568698	-0.284493
O30	O	1.519753	-0.068698	0.215507
O31	O	1.019601	-0.338881	-0.477414
O32	O	1.519601	0.161119	0.022586
O33	O	0.936483	-0.437912	-0.477380
O34	O	1.436483	0.062088	0.022620
C35	C	0.802268	-0.388426	-0.326079
C36	C	1.302268	0.111574	0.173921
C37	C	0.727036	-0.388436	-0.326086
C38	C	1.227036	0.111564	0.173914
C39	C	0.691726	-0.440099	-0.282860
C40	C	1.191726	0.059901	0.217140
C41	C	0.621038	-0.440102	-0.282864
C42	C	1.121038	0.059898	0.217136
C43	C	0.585660	-0.388446	-0.326097
C44	C	1.085660	0.111554	0.173903
C45	C	0.620975	-0.336778	-0.369325
C46	C	1.120975	0.163222	0.130675
C47	C	0.691662	-0.336771	-0.369318
C48	C	1.191662	0.163229	0.130682
C49	C	0.335901	-0.336802	-0.369356
C50	C	0.835901	0.163198	0.130644
C51	C	0.265209	-0.336815	-0.369361
C52	C	0.765209	0.163185	0.130639
C53	C	0.265277	-0.440133	-0.282901
C54	C	0.765277	0.059867	0.217099
C55	C	0.335965	-0.440127	-0.282894
C56	C	0.835965	0.059873	0.217106
C57	C	0.371273	-0.388456	-0.326119
C58	C	0.871273	0.111544	0.173881
C59	C	0.447921	-0.388452	-0.326114
C60	C	0.947921	0.111548	0.173886
C61	C	0.509013	-0.388453	-0.326106
C62	C	1.009013	0.111547	0.173894
C63	C	0.978168	-0.598754	-0.326050
C64	C	1.478168	-0.098754	0.173950
C65	C	0.978186	-0.688375	-0.326028
C66	C	1.478186	-0.188375	0.173972
C67	C	0.978218	-1.016551	-0.325952
C68	C	1.478218	-0.516551	0.174048
C69	C	0.978207	-0.925243	-0.325976
C70	C	1.478207	-0.425243	0.174024
C71	C	0.978202	-0.852466	-0.325991
C72	C	1.478202	-0.352466	0.174009
C73	C	0.978191	-0.761152	-0.326013
C74	C	1.478191	-0.261152	0.173987
C75	C	1.154666	-0.388465	-0.326122
C76	C	1.654666	0.111535	0.173878
C77	C	1.229898	-0.388474	-0.326131
C78	C	1.729898	0.111526	0.173869
C79	C	0.978048	-0.388406	-0.501956
C80	C	1.478048	0.111594	-0.001956
C81	C	0.978077	-0.388416	-0.577188
C82	C	1.478077	0.111584	-0.077188
C83	C	0.978119	-0.178954	-0.326102
C84	C	1.478119	0.321046	0.173898
C85	C	0.978231	-0.089334	-0.325932
C86	C	1.478231	0.410666	0.174068
C87	C	1.021399	-0.336905	-0.612528
C88	C	1.521399	0.163095	-0.112528
C89	C	1.021427	-0.336923	-0.683216
C90	C	1.521427	0.163077	-0.183216
C91	C	0.978130	-0.388449	-0.718564
C92	C	1.478130	0.111551	-0.218564
C93	C	0.934807	-0.439966	-0.683219
C94	C	1.434807	0.060034	-0.183219
C95	C	0.934782	-0.439951	-0.612532
C96	C	1.434782	0.060049	-0.112532
C97	C	0.934907	-0.440026	-0.968293
C98	C	1.434907	0.059974	-0.468293
C99	C	0.934933	-0.440034	-1.038985
C100	C	1.434933	0.059966	-0.538985
C101	C	1.021552	-0.336997	-1.038976
C102	C	1.521552	0.163003	-0.538976
C103	C	1.021527	-0.336983	-0.968289
C104	C	1.521527	0.163017	-0.468289
C105	C	0.978206	-0.388502	-0.932951
C106	C	1.478206	0.111498	-0.432951
C107	C	0.978177	-0.388484	-0.856303
C108	C	1.478177	0.111516	-0.356303
C109	C	0.978156	-0.388464	-0.795211
C110	C	1.478156	0.111536	-0.295211
C111	C	0.978219	-0.388502	-0.149557
C112	C	1.478219	0.111498	0.350443
C113	C	0.978259	-0.388526	-0.074325
C114	C	1.478259	0.111474	0.425675
H115	H	0.720410	-0.294701	-0.404517
H116	H	1.220410	0.205299	0.095483
H117	H	0.236407	-0.294747	-0.404569
H118	H	0.736407	0.205253	0.095431
H119	H	0.899677	-0.481999	-1.067763
H120	H	1.399677	0.018001	-0.567763
C121	C	0.582824	-0.496283	-0.235906
C122	C	1.082824	0.003717	0.264094
C123	C	0.628936	-0.541537	-0.198058
C124	C	1.128936	-0.041537	0.301942
C125	C	0.593758	-0.593307	-0.154797
C126	C	1.093758	-0.093307	0.345203
H127	H	0.555247	-0.465596	-0.206323
H128	H	1.055247	0.034404	0.293677
H129	H	0.555266	-0.531403	-0.261823
H130	H	1.055266	-0.031403	0.238177
H131	H	0.656482	-0.506422	-0.172143
H132	H	1.156482	-0.006422	0.327857
H133	H	0.656514	-0.572240	-0.227624
H134	H	1.156514	-0.072240	0.272376
H135	H	0.566200	-0.628427	-0.180714
H136	H	1.066200	-0.128427	0.319286
H137	H	0.566182	-0.562614	-0.125218
H138	H	1.066182	-0.062614	0.374782
H139	H	0.625039	-0.624023	-0.129117
H140	H	1.125039	-0.124023	0.370883
H141	H	1.056653	-0.294943	-0.583752
H142	H	1.556653	0.205057	-0.083752
H143	H	0.364641	-0.294729	-0.404553
H144	H	0.864641	0.205271	0.095447
H145	H	0.720526	-0.482166	-0.247656
H146	H	1.220526	0.017834	0.252344
C147	C	0.887979	-0.496054	-0.929900
C148	C	1.387979	0.003946	-0.429900
C149	C	0.926258	-0.547790	-0.889272
C150	C	1.426258	-0.047790	-0.389272
C151	C	0.883048	-0.599424	-0.853901
C152	C	1.383048	-0.099424	-0.353901
H153	H	0.858478	-0.465269	-0.902311
H154	H	1.358478	0.034731	-0.402311
H155	H	0.862209	-0.526783	-0.961059
H156	H	1.362209	-0.026783	-0.461059
H157	H	0.952016	-0.517065	-0.858116
H158	H	1.452016	-0.017065	-0.358116
H159	H	0.955758	-0.578593	-0.916844
H160	H	1.455758	-0.078593	-0.416844
H161	H	0.857278	-0.630153	-0.885060
H162	H	1.357278	-0.130153	-0.385060
H163	H	0.853549	-0.568632	-0.826315
H164	H	1.353549	-0.068632	-0.326315
H165	H	0.909014	-0.634538	-0.826335
H166	H	1.409014	-0.134538	-0.326335
H167	H	0.592164	-0.294715	-0.404524
H168	H	1.092164	0.205285	0.095476
H169	H	0.364766	-0.482193	-0.247691
H170	H	0.864766	0.017807	0.252309
C171	C	1.068486	-0.280904	-0.721462
C172	C	1.568486	0.219096	-0.221462
C173	C	1.106382	-0.235758	-0.675377
C174	C	1.606382	0.264242	-0.175377
C175	C	1.149735	-0.184136	-0.710584
C176	C	1.649735	0.315864	-0.210584
H177	H	1.098036	-0.311693	-0.748998
H178	H	1.598036	0.188307	-0.248998
H179	H	1.042634	-0.245709	-0.749065
H180	H	1.542634	0.254291	-0.249065
H181	H	1.132232	-0.270949	-0.647786
H182	H	1.632232	0.229051	-0.147786
H183	H	1.076850	-0.204953	-0.647840
H184	H	1.576850	0.295047	-0.147840
H185	H	1.123883	-0.148941	-0.738187
H186	H	1.623883	0.351059	-0.238187
H187	H	1.179280	-0.214931	-0.738118
H188	H	1.679280	0.285069	-0.238118
H189	H	1.175448	-0.153493	-0.679321
H190	H	1.675448	0.346507	-0.179321
C191	C	0.226819	-0.496142	-0.235989
C192	C	0.726819	0.003858	0.264011
C193	C	0.157342	-0.485079	-0.245231
C194	C	0.657342	0.014921	0.254769
C195	C	0.121896	-0.536652	-0.202025
C196	C	0.621896	-0.036652	0.297975
H197	H	0.238338	-0.550326	-0.245911
H198	H	0.738338	-0.050326	0.254089
H199	H	0.238377	-0.484433	-0.190484
H200	H	0.738377	0.015567	0.309516
H201	H	0.145789	-0.496793	-0.290726
H202	H	0.645789	0.003207	0.209274
H203	H	0.145803	-0.430905	-0.235304
H204	H	0.645803	0.069095	0.264696
H205	H	0.133454	-0.524943	-0.156519
H206	H	0.633454	-0.024943	0.343481
H207	H	0.133421	-0.590833	-0.211950
H208	H	0.633421	-0.090833	0.288050
H209	H	0.074752	-0.529148	-0.208285
H210	H	0.574752	-0.029148	0.291715
H211	H	0.899506	-0.481898	-0.583760
H212	H	1.399506	0.018102	-0.083760
C213	C	0.887883	-0.496045	-0.721560
C214	C	1.387883	0.003955	-0.221560
C215	C	0.902591	-0.575835	-0.704321
C216	C	1.402591	-0.075835	-0.204321
C217	C	0.859383	-0.627517	-0.739632
C218	C	1.359383	-0.127517	-0.239632
H219	H	0.842383	-0.484302	-0.710046
H220	H	1.342383	0.015698	-0.210046
H221	H	0.894107	-0.488729	-0.768727
H222	H	1.394107	0.011271	-0.268727
H223	H	0.896361	-0.583148	-0.657165
H224	H	1.396361	-0.083148	-0.157165
H225	H	0.948083	-0.587604	-0.715836
H226	H	1.448083	-0.087604	-0.215836
H227	H	0.865607	-0.620202	-0.786799
H228	H	1.365607	-0.120202	-0.286799
H229	H	0.813885	-0.615767	-0.728116
H230	H	1.313885	-0.115767	-0.228116
H231	H	0.869360	-0.681661	-0.727945
H232	H	1.369360	-0.181661	-0.227945
H233	H	1.056781	-0.295023	-0.939511
H234	H	1.556781	0.204977	-0.439511
H235	H	1.056828	-0.295050	-1.067757
H236	H	1.556828	0.204950	-0.567757
