data_functionalizedCrystal
_audit_creation_method	'MofGen! by Chris Wilmer'
_symmetry_space_group_name_H-M	'P1'
_symmetry_Int_Tables_number	1
_symmetry_cell_setting	triclinic
loop_
_symmetry_equiv_pos_as_xyz
  x,y,z
_cell_length_a	17.019311
_cell_length_b	17.038274
_cell_length_c	15.500227
_cell_angle_alpha	86.974526
_cell_angle_beta	83.285249
_cell_angle_gamma	92.755014
loop_
_atom_site_label
_atom_site_type_symbol
_atom_site_fract_x
_atom_site_fract_y
_atom_site_fract_z
O1	O	1.060553	-0.092007	-0.150969
O2	O	0.830926	-0.105565	-0.133866
O3	O	0.944373	0.015022	-0.142292
O4	O	0.947106	-0.212594	-0.142543
O5	O	0.937487	0.007733	0.002108
O6	O	0.824040	-0.112854	0.010534
O7	O	1.053667	-0.099296	-0.006569
Cu8	Cu	0.938225	-0.106741	0.015167
Cu9	Cu	0.946368	-0.098121	-0.155602
O10	O	0.940219	-0.219883	0.001857
C11	C	0.797957	-0.108838	-0.059466
C12	C	0.709977	-0.107722	-0.052912
C13	C	0.212194	-0.101636	-0.011897
C14	C	0.294860	-0.102684	-0.018057
C15	C	0.339947	-0.099229	-0.099851
C16	C	0.302364	-0.094734	-0.175490
C17	C	0.219699	-0.093691	-0.169329
C18	C	0.589729	-0.102184	-0.122390
C19	C	0.672400	-0.103225	-0.128545
C20	C	0.664890	-0.111177	0.028888
C21	C	0.582224	-0.110129	0.035042
C22	C	0.544648	-0.105637	-0.040597
C23	C	0.424445	-0.100298	-0.106149
C24	C	0.460150	-0.104574	-0.034298
C25	C	0.938447	0.040494	-0.069903
C26	C	0.931040	0.127252	-0.069338
C27	C	0.999041	0.177678	-0.074395
C28	C	0.992077	0.259196	-0.073872
C29	C	0.917110	0.290287	-0.068286
C30	C	0.849105	0.239855	-0.063231
C31	C	0.856070	0.158339	-0.063760
C32	C	0.892503	0.535931	-0.066428
C33	C	0.885543	0.617454	-0.065897
C34	C	1.028516	0.636789	-0.076539
C35	C	1.035474	0.555270	-0.077063
C36	C	0.967469	0.504846	-0.072013
C37	C	0.909990	0.373612	-0.067749
C38	C	0.974590	0.421523	-0.072556
C39	C	1.086636	-0.096023	-0.080970
C40	C	1.174616	-0.097138	-0.087530
N41	N	0.932502	-0.112803	0.135277
C42	C	0.946143	0.754643	-0.070496
C43	C	0.953544	0.667879	-0.070954
N44	N	0.952096	-0.092052	-0.275713
C45	C	0.980593	-0.061725	0.176982
C46	C	0.976273	-0.066317	0.267876
C47	C	0.923866	-0.121991	0.317063
C48	C	0.875770	-0.173072	0.275352
C49	C	0.880086	-0.168475	0.184460
C50	C	0.908316	-0.138536	0.591685
C51	C	0.904005	-0.143130	0.682582
C52	C	1.004508	-0.036374	0.675100
C53	C	1.008823	-0.031785	0.584207
C54	C	0.960724	-0.082863	0.542504
C55	C	0.919451	-0.126688	0.409971
C56	C	0.965136	-0.078162	0.449598
H57	H	0.339080	-0.091925	-0.242088
H58	H	0.175489	-0.104453	0.054708
H59	H	0.461164	-0.097483	-0.172746
H60	H	1.023272	-0.016392	0.136940
H61	H	0.861327	-0.188470	0.722627
H62	H	1.035629	0.396206	-0.077123
H63	H	0.848952	0.398935	-0.063199
C64	C	0.179046	-0.088767	-0.251547
C65	C	0.236224	-0.085945	-0.324499
C66	C	0.198807	-0.081404	-0.400255
H67	H	0.143997	-0.133757	-0.252327
H68	H	0.149936	-0.042598	-0.252677
H69	H	0.265321	-0.132109	-0.323370
H70	H	0.271276	-0.040957	-0.323748
H71	H	0.169697	-0.035234	-0.401384
H72	H	0.163758	-0.126395	-0.401026
H73	H	0.237596	-0.079481	-0.449761
H74	H	0.423437	-0.107391	0.032298
H75	H	0.709108	-0.100417	-0.195155
H76	H	0.559145	-0.098524	-0.183981
C77	C	0.856240	-0.194037	0.546299
C78	C	0.904109	-0.239050	0.490697
C79	C	0.856165	-0.290185	0.448864
H80	H	0.824406	-0.227924	0.588518
H81	H	0.823087	-0.164297	0.513403
H82	H	0.937248	-0.268787	0.523591
H83	H	0.935943	-0.205183	0.448462
H84	H	0.823012	-0.260445	0.415968
H85	H	0.824333	-0.324067	0.491089
H86	H	0.888636	-0.320727	0.411128
C87	C	0.335514	-0.107530	0.064162
C88	C	0.278337	-0.110307	0.137111
C89	C	0.315758	-0.114763	0.212868
H90	H	0.364637	-0.153676	0.065365
H91	H	0.370553	-0.062509	0.064869
H92	H	0.243311	-0.155324	0.136403
H93	H	0.249211	-0.064166	0.135936
H94	H	0.350797	-0.069742	0.213576
H95	H	0.344879	-0.160910	0.214063
H96	H	0.276970	-0.116641	0.262373
H97	H	1.096520	0.529963	-0.081611
H98	H	0.876782	-0.172021	0.450026
C99	C	0.767643	0.273458	-0.057209
C100	C	0.709582	0.211848	-0.052919
C101	C	0.634530	0.242771	-0.047380
H102	H	0.759438	0.302306	-0.006431
H103	H	0.764318	0.307373	-0.107154
H104	H	0.712905	0.177947	-0.002978
H105	H	0.717761	0.182995	-0.103691
H106	H	0.631205	0.276686	-0.097325
H107	H	0.626333	0.271618	0.003398
H108	H	0.595128	0.200975	-0.044477
H109	H	1.047450	0.300250	-0.077988
C110	C	0.533161	-0.113988	0.123788
C111	C	0.481089	-0.180848	0.132228
C112	C	0.435870	-0.184414	0.213963
H113	H	0.567278	-0.116857	0.168038
H114	H	0.503680	-0.068186	0.129249
H115	H	0.510567	-0.226638	0.126776
H116	H	0.446956	-0.177994	0.087998
H117	H	0.406388	-0.138612	0.219424
H118	H	0.469992	-0.187280	0.258206
H119	H	0.400528	-0.229773	0.219698
C120	C	1.028592	-0.010827	0.312991
C121	C	1.075434	0.038893	0.250460
C122	C	1.123653	0.090013	0.291986
H123	H	0.996341	0.019877	0.350750
H124	H	1.061791	-0.040584	0.345810
H125	H	1.042239	0.068648	0.217656
H126	H	1.107702	0.008212	0.212698
H127	H	1.156852	0.060256	0.324804
H128	H	1.091395	0.120711	0.329744
H129	H	1.155446	0.123749	0.249565
C130	C	1.080508	0.144081	-0.080512
C131	C	1.138569	0.205695	-0.084855
C132	C	1.213628	0.174779	-0.090508
H133	H	1.083912	0.110157	-0.030608
H134	H	1.088638	0.115246	-0.131320
H135	H	1.130442	0.234516	-0.034053
H136	H	1.135191	0.239623	-0.134758
H137	H	1.221758	0.145944	-0.141315
H138	H	1.217024	0.140855	-0.040602
H139	H	1.253032	0.216579	-0.093463
H140	H	1.051497	0.013549	0.544160
H141	H	1.083882	0.677854	-0.080653
C142	C	0.804078	0.651061	-0.059881
C143	C	0.746013	0.589457	-0.055599
C144	C	0.670964	0.620387	-0.050069
H145	H	0.795871	0.679909	-0.009104
H146	H	0.800761	0.684978	-0.109828
H147	H	0.749327	0.555554	-0.005657
H148	H	0.754194	0.560604	-0.106371
H149	H	0.667647	0.654304	-0.100016
H150	H	0.662765	0.649234	0.000709
H151	H	0.631558	0.578594	-0.047171
H152	H	1.043667	0.005212	0.709063
H153	H	0.833095	-0.218401	0.315406
C154	C	0.782276	0.103558	-0.058449
C155	C	0.785635	0.059956	-0.132745
C156	C	0.717663	0.009493	-0.127893
H157	H	0.779550	0.068745	-0.008134
H158	H	0.736611	0.133722	-0.055091
H159	H	0.831287	0.029795	-0.136095
H160	H	0.788349	0.094749	-0.183072
H161	H	0.671999	0.039657	-0.124534
H162	H	0.714943	-0.025315	-0.077575
H163	H	0.719930	-0.020091	-0.178304
C164	C	0.705800	-0.115936	0.110933
C165	C	0.757427	-0.049535	0.111681
C166	C	0.795134	-0.053901	0.187245
H167	H	0.667199	-0.117810	0.160594
H168	H	0.734975	-0.162065	0.112013
H169	H	0.728254	-0.003419	0.110610
H170	H	0.796043	-0.047648	0.062037
H171	H	0.824309	-0.100030	0.188325
H172	H	0.756527	-0.055777	0.236901
H173	H	0.830173	-0.008853	0.187759
C174	C	0.827838	-0.224030	0.139336
C175	C	0.781034	-0.273787	0.201862
C176	C	0.732897	-0.324980	0.160328
H177	H	0.794609	-0.194353	0.106495
H178	H	0.860170	-0.254696	0.101596
H179	H	0.748705	-0.243125	0.239588
H180	H	0.814243	-0.303481	0.234706
H181	H	0.765229	-0.355645	0.122587
H182	H	0.699673	-0.295296	0.127488
H183	H	0.701140	-0.358750	0.202744
H184	H	0.837128	0.494884	-0.062316
H185	H	1.007803	-0.032829	0.409548
