data_functionalizedCrystal
_audit_creation_method	'MofGen! by Chris Wilmer'
_symmetry_space_group_name_H-M	'P1'
_symmetry_Int_Tables_number	1
_symmetry_cell_setting	triclinic
loop_
_symmetry_equiv_pos_as_xyz
  x,y,z
_cell_length_a	18.050589
_cell_length_b	15.297475
_cell_length_c	18.050582
_cell_angle_alpha	80.321138
_cell_angle_beta	89.981795
_cell_angle_gamma	80.331321
loop_
_atom_site_label
_atom_site_type_symbol
_atom_site_fract_x
_atom_site_fract_y
_atom_site_fract_z
Zn1	Zn	-0.492498	1.379108	-0.616076
Zn2	Zn	-0.616666	1.378999	-0.491880
Zn3	Zn	-0.470984	1.228258	-0.470446
Zn4	Zn	-0.595116	1.228195	-0.594581
O5	O	-0.543816	1.303640	-0.543246
O6	O	-0.526991	1.505337	-0.617567
O7	O	-0.597356	1.358984	-0.385110
O8	O	-0.369924	1.248340	-0.489790
O9	O	-0.618217	1.505257	-0.526321
O10	O	-0.385730	1.359169	-0.596784
O11	O	-0.490324	1.248235	-0.369362
O12	O	-0.469428	1.102006	-0.468946
O13	O	-0.581489	1.248233	-0.701360
O14	O	-0.560628	1.101960	-0.560148
O15	O	-0.506095	1.359108	-0.717152
O16	O	-0.717721	1.358923	-0.505478
O17	O	-0.701889	1.248128	-0.580932
C18	C	-0.510355	1.069249	-0.509889
C19	C	-0.496059	0.968976	-0.495637
C20	C	-0.736753	1.303531	-0.543218
C21	C	-0.819303	1.303567	-0.543243
C22	C	-0.646002	0.686326	-0.645112
C23	C	-0.659440	0.780537	-0.658501
C24	C	-0.618595	0.827652	-0.617786
C25	C	-0.564311	0.780545	-0.563680
C26	C	-0.550876	0.686324	-0.550286
C27	C	-0.523470	0.827650	-0.522960
C28	C	-0.469186	0.780543	-0.468854
C29	C	-0.455753	0.686332	-0.455462
C30	C	-0.496597	0.639217	-0.496177
C31	C	-0.536905	0.921871	-0.536354
C32	C	-0.441780	0.921870	-0.441528
C33	C	-0.428342	0.827658	-0.428139
C34	C	-1.010180	1.243376	-0.584265
C35	C	-1.056477	1.221391	-0.513371
C36	C	-0.970446	1.303656	-0.543265
C37	C	-1.071238	1.325685	-0.614173
C38	C	-1.116444	1.303740	-0.543292
C39	C	-1.015650	1.281628	-0.472329
C40	C	-1.030412	1.385960	-0.573182
C41	C	-1.076691	1.364006	-0.502245
C42	C	-0.886341	1.303605	-0.543250
C43	C	-1.200547	1.303790	-0.543300
C44	C	-0.350129	1.303774	-0.543293
C45	C	-0.267592	1.303831	-0.543314
C46	C	-0.543788	1.303675	-0.736956
C47	C	-0.543776	1.303690	-0.819504
C48	C	-0.577408	1.538946	-0.576733
C49	C	-0.591722	1.639219	-0.591003
C50	C	-0.584714	1.243443	-1.010374
C51	C	-0.614612	1.325749	-1.071472
C52	C	-0.543726	1.303735	-0.970641
C53	C	-0.513814	1.221474	-1.056631
C54	C	-0.543678	1.303771	-1.116631
C55	C	-0.573666	1.386084	-1.030659
C56	C	-0.472828	1.281754	-1.015805
C57	C	-0.502708	1.364117	-1.076889
C58	C	-0.543755	1.303713	-0.886540
C59	C	-0.543649	1.303802	-1.200732
C60	C	-0.543798	1.303657	-0.350296
C61	C	-0.543625	1.303817	-0.267773
H62	H	-0.581103	0.960216	-0.580409
H63	H	-0.991418	1.262949	-0.412346
H64	H	-0.629540	0.904363	-0.628691
H65	H	-0.412903	1.263116	-0.991434
O66	O	-0.461332	1.424954	-1.111358
C67	C	-0.414400	1.492851	-1.228258
C68	C	-0.461264	1.423909	-1.189317
H69	H	-0.414343	1.492044	-1.291296
H70	H	-0.354218	1.474690	-1.204525
H71	H	-0.439991	1.562913	-1.217781
H72	H	-0.435738	1.353823	-1.199779
H73	H	-0.521442	1.442148	-1.213055
O74	O	-0.975774	1.182410	-0.625546
C75	C	-0.990839	1.070190	-0.700788
C76	C	-1.029898	1.139187	-0.654049
H77	H	-1.034583	1.035239	-0.723859
H78	H	-0.947859	1.018033	-0.663688
H79	H	-0.961158	1.106270	-0.749465
H80	H	-1.059621	1.103184	-0.605369
H81	H	-1.072837	1.191340	-0.691200
O82	O	-1.070736	1.138467	-0.483182
C83	C	-1.165067	1.045822	-0.448843
C84	C	-1.149028	1.139783	-0.483022
H85	H	-1.228364	1.046850	-0.448716
H86	H	-1.141248	1.026555	-0.388719
H87	H	-1.137450	0.994477	-0.483841
H88	H	-1.176642	1.191191	-0.448083
H89	H	-1.172831	1.158973	-0.543153
O90	O	-0.686136	1.348082	-1.100464
C91	C	-0.798972	1.459441	-1.119451
C92	C	-0.717991	1.434263	-1.086569
H93	H	-0.824746	1.529128	-1.108243
H94	H	-0.833922	1.408019	-1.091850
H95	H	-0.798181	1.459837	-1.182658
H96	H	-0.718711	1.433878	-1.023365
H97	H	-0.683075	1.485691	-1.114228
O98	O	-0.712169	0.826154	-0.711107
C99	C	-0.805136	0.816208	-0.803714
C100	C	-0.745426	0.764434	-0.744168
H101	H	-0.832052	0.766329	-0.830449
H102	H	-0.777424	0.860326	-0.848926
H103	H	-0.850176	0.860308	-0.775805
H104	H	-0.700369	0.720285	-0.772010
H105	H	-0.773193	0.720372	-0.698961
O106	O	-1.111095	1.424964	-0.460957
C107	C	-1.202325	1.559284	-0.460226
C108	C	-1.163405	1.490334	-0.507079
H109	H	-1.244637	1.612143	-0.497492
H110	H	-1.158413	1.593359	-0.436382
H111	H	-1.232775	1.523349	-0.412097
H112	H	-1.132957	1.526200	-0.555243
H113	H	-1.207352	1.456262	-0.530867
O114	O	-0.626080	1.182683	-0.975750
C115	C	-0.671984	1.114093	-0.858563
C116	C	-0.625098	1.182911	-0.897676
H117	H	-0.671218	1.114269	-0.795436
H118	H	-0.647097	1.044097	-0.869713
H119	H	-0.732397	1.133015	-0.881598
H120	H	-0.564677	1.164074	-0.874665
H121	H	-0.650046	1.252890	-0.886530
O122	O	-0.483525	1.138491	-1.070670
C123	C	-0.375044	1.020724	-1.056945
C124	C	-0.409238	1.114718	-1.041015
H125	H	-0.314984	1.001466	-1.032963
H126	H	-0.374745	1.021671	-1.120232
H127	H	-0.410116	0.969417	-1.029388
H128	H	-0.374195	1.166077	-1.068525
H129	H	-0.409550	1.113696	-0.977719
H130	H	-0.485657	0.562502	-0.485280
H131	H	-0.599012	1.455687	-1.018956
H132	H	-0.679256	0.647957	-0.678252
O133	O	-1.016234	1.468954	-0.603249
C134	C	-0.962073	1.597116	-0.583467
C135	C	-0.978096	1.503142	-0.549308
H136	H	-0.931222	1.624778	-0.539877
H137	H	-1.017394	1.644238	-0.601146
H138	H	-0.925691	1.591874	-0.634696
H139	H	-1.014454	1.508298	-0.498056
H140	H	-0.922746	1.456057	-0.531683
O141	O	-0.402976	0.640711	-0.402897
C142	C	-0.310074	0.650655	-0.310224
C143	C	-0.369809	0.702430	-0.369744
H144	H	-0.283253	0.700532	-0.283392
H145	H	-0.264959	0.606601	-0.338089
H146	H	-0.337831	0.606489	-0.265087
H147	H	-0.342119	0.746644	-0.414898
H148	H	-0.414917	0.746427	-0.341824
O149	O	-0.375666	0.781994	-0.375488
C150	C	-0.335347	0.753077	-0.245113
C151	C	-0.395045	0.804862	-0.304665
H152	H	-0.351002	0.771533	-0.187836
H153	H	-0.278117	0.771649	-0.260835
H154	H	-0.332751	0.677652	-0.242576
H155	H	-0.397709	0.880299	-0.307233
H156	H	-0.452245	0.786215	-0.288919
H157	H	-1.095547	1.344283	-0.674129
O158	O	-0.402143	0.967765	-0.402063
C159	C	-0.380716	1.112913	-0.380641
C160	C	-0.425639	1.061042	-0.425397
H161	H	-0.399707	1.188336	-0.399478
H162	H	-0.318207	1.094489	-0.391165
H163	H	-0.391013	1.094305	-0.318098
H164	H	-0.415404	1.079622	-0.487953
H165	H	-0.488133	1.079470	-0.414809
