data_functionalizedCrystal
_audit_creation_method	'MofGen! by Chris Wilmer'
_symmetry_space_group_name_H-M	'P1'
_symmetry_Int_Tables_number	1
_symmetry_cell_setting	triclinic
loop_
_symmetry_equiv_pos_as_xyz
  x,y,z
_cell_length_a	10.654554
_cell_length_b	10.654550
_cell_length_c	9.730223
_cell_angle_alpha	89.998384
_cell_angle_beta	90.000354
_cell_angle_gamma	95.514176
loop_
_atom_site_label
_atom_site_type_symbol
_atom_site_fract_x
_atom_site_fract_y
_atom_site_fract_z
O1	O	-1.667831	0.176420	-0.114296
O2	O	-1.302353	0.193220	-0.114298
O3	O	-1.493495	0.002081	-0.114287
O4	O	-1.476689	0.367559	-0.114307
O5	O	-1.493493	0.002086	0.114293
O6	O	-1.302351	0.193225	0.114282
O7	O	-1.667828	0.176425	0.114284
Zn8	Zn	-1.485089	0.184826	0.150575
Zn9	Zn	-1.485092	0.184819	-0.150589
O10	O	-1.476687	0.367564	0.114273
C11	C	-1.255554	0.191988	-0.000008
C12	C	-1.116111	0.188294	-0.000008
C13	C	-1.714627	0.177657	-0.000009
C14	C	-1.854070	0.181351	-0.000017
N15	N	-1.485096	0.184829	0.356112
C16	C	-0.905602	0.297367	-0.000017
C17	C	-1.036624	0.300839	-0.000018
C18	C	-1.064571	0.072269	-0.000012
C19	C	-0.933552	0.068799	-0.000022
C20	C	-0.889469	0.429330	-0.000014
C21	C	-1.020490	0.432802	-0.000015
C22	C	-1.477922	0.414360	-0.000019
C23	C	-1.481613	0.553803	-0.000027
C24	C	-1.492260	-0.044714	0.000003
C25	C	-1.488568	-0.184158	0.000002
C26	C	-1.369072	0.633287	-0.000015
C27	C	-1.372549	0.764308	-0.000005
C28	C	-1.601118	0.736348	-0.000015
C29	C	-1.597640	0.605330	-0.000034
C30	C	-1.237110	0.649430	-0.000003
C31	C	-1.240586	0.780451	0.000006
N32	N	-1.485095	0.184806	-0.356125
C33	C	-1.569756	0.100222	0.428043
C34	C	-1.569753	0.100207	0.571926
C35	C	-1.400426	0.269417	0.571934
C36	C	-1.400424	0.269426	0.428054
C37	C	-1.667519	0.002533	0.428039
C38	C	-1.667516	0.002518	0.571922
H39	H	-0.891601	-0.025672	-0.000040
H40	H	-1.764027	0.024038	0.610972
Br41	Br	-1.167074	0.590007	0.164484
H42	H	-1.695583	0.778318	-0.000044
Br43	Br	-1.151084	0.600511	-0.159435
Br44	Br	-1.285506	0.384231	0.330430
H45	H	-1.331488	0.338293	0.630525
Br46	Br	-1.079898	0.502838	-0.164514
Br47	Br	-1.616644	-0.149513	0.646307
Br48	Br	-1.631783	-0.158356	0.362941
H49	H	-1.049850	0.484394	0.095654
Br50	Br	-1.157727	0.850036	0.159451
Br51	Br	-1.172445	-0.080473	-0.000021
Br52	Br	-0.819879	0.512209	-0.159446
H53	H	-1.758703	0.033123	0.383411
H54	H	-1.200712	0.826110	-0.098685
Br55	Br	-0.813367	0.495784	0.164470
H56	H	-1.689282	0.540618	-0.000060
