data_functionalizedCrystal
_audit_creation_method	'MofGen! by Chris Wilmer'
_symmetry_space_group_name_H-M	'P1'
_symmetry_Int_Tables_number	1
_symmetry_cell_setting	triclinic
loop_
_symmetry_equiv_pos_as_xyz
  x,y,z
_cell_length_a	19.077212
_cell_length_b	17.638516
_cell_length_c	19.076919
_cell_angle_alpha	77.040002
_cell_angle_beta	90.114942
_cell_angle_gamma	103.941131
loop_
_atom_site_label
_atom_site_type_symbol
_atom_site_fract_x
_atom_site_fract_y
_atom_site_fract_z
Zn1	Zn	1.003732	-0.291675	0.490846
Zn2	Zn	1.503732	0.208325	0.990846
Zn3	Zn	0.984286	-0.420436	0.395527
Zn4	Zn	1.484286	0.079564	0.895527
Zn5	Zn	0.891026	-0.291252	0.368548
Zn6	Zn	1.391026	0.208748	0.868548
Zn7	Zn	0.860100	-0.431153	0.510107
Zn8	Zn	1.360100	0.068847	1.010107
O9	O	0.934786	-0.358629	0.441257
O10	O	1.434786	0.141371	0.941257
O11	O	1.100292	-0.304448	0.481431
O12	O	1.600292	0.195552	0.981431
O13	O	0.976719	-0.398637	0.292815
O14	O	1.476719	0.101363	0.792815
O15	O	0.927058	-0.178873	0.365420
O16	O	1.427058	0.321127	0.865420
O17	O	1.086005	-0.399048	0.411401
O18	O	1.586005	0.100952	0.911401
O19	O	1.009862	-0.179184	0.455271
O20	O	1.509862	0.320816	0.955271
O21	O	0.908202	-0.303727	0.272993
O22	O	1.408202	0.196273	0.772993
O23	O	0.787784	-0.314119	0.384097
O24	O	1.287784	0.185881	0.884097
O25	O	0.874349	-0.417314	0.606686
O26	O	1.374349	0.082686	1.106686
O27	O	0.765063	-0.416903	0.488100
O28	O	1.265063	0.083097	0.988100
O29	O	0.979874	-0.314840	0.592535
O30	O	1.479874	0.185160	1.092535
O31	O	0.946731	-0.534294	0.430079
O32	O	1.446731	-0.034294	0.930079
O33	O	0.855493	-0.542168	0.514260
O34	O	1.355493	-0.042168	1.014260
C35	C	0.750718	-0.366629	0.435261
C36	C	1.250718	0.133371	0.935261
C37	C	0.671968	-0.370071	0.432716
C38	C	1.171968	0.129929	0.932716
C39	C	0.227892	-0.394727	0.414490
C40	C	0.727892	0.105273	0.914490
C41	C	0.301887	-0.391488	0.416876
C42	C	0.801887	0.108512	0.916876
C43	C	0.346306	-0.340703	0.454617
C44	C	0.846306	0.159297	0.954617
C45	C	0.316727	-0.293148	0.489970
C46	C	0.816727	0.206852	0.989970
C47	C	0.242735	-0.296383	0.487580
C48	C	0.742735	0.203617	0.987580
C49	C	0.568397	-0.325751	0.465679
C50	C	1.068397	0.174249	0.965679
C51	C	0.642394	-0.322521	0.468068
C52	C	1.142394	0.177479	0.968068
C53	C	0.627549	-0.420861	0.394972
C54	C	1.127549	0.079139	0.894972
C55	C	0.553555	-0.424095	0.392589
C56	C	1.053555	0.075905	0.892589
C57	C	0.523983	-0.376537	0.427939
C58	C	1.023983	0.123463	0.927939
N59	N	0.421940	-0.337393	0.457058
N60	N	0.921940	0.162607	0.957058
N61	N	0.448351	-0.379843	0.425494
N62	N	0.948351	0.120157	0.925494
C63	C	0.895665	-0.567384	0.477203
C64	C	1.395665	-0.067384	0.977203
C65	C	0.878992	-0.656688	0.492607
C66	C	1.378992	-0.156688	0.992607
C67	C	1.061869	-0.929763	0.324305
C68	C	1.561869	-0.429763	0.824305
C69	C	1.046190	-1.013679	0.338791
C70	C	1.546190	-0.513679	0.838791
C71	C	0.951110	-1.021923	0.426374
C72	C	1.451110	-0.521923	0.926374
C73	C	0.966779	-0.938006	0.411894
C74	C	1.466779	-0.438006	0.911894
C75	C	1.022160	-0.891932	0.360859
C76	C	1.522160	-0.391932	0.860859
C77	C	0.927070	-0.900175	0.448448
C78	C	1.427070	-0.400175	0.948448
C79	C	0.942741	-0.816265	0.433971
C80	C	1.442741	-0.316265	0.933971
C81	C	0.998120	-0.770186	0.382941
C82	C	1.498120	-0.270186	0.882941
C83	C	1.037831	-0.808023	0.346383
C84	C	1.537831	-0.308023	0.846383
C85	C	0.871693	-0.946250	0.499486
C86	C	1.371693	-0.446250	0.999486
C87	C	0.831984	-0.908419	0.536040
C88	C	1.331984	-0.408419	1.036040
C89	C	0.847651	-0.824508	0.521560
C90	C	1.347651	-0.324508	1.021560
C91	C	0.903031	-0.778429	0.470529
C92	C	1.403031	-0.278429	0.970529
C93	C	0.807941	-0.786671	0.558118
C94	C	1.307941	-0.286671	1.058118
C95	C	0.823611	-0.702762	0.543641
C96	C	1.323611	-0.202762	1.043641
C97	C	0.918701	-0.694519	0.456053
C98	C	1.418701	-0.194519	0.956053
C99	C	1.119573	-0.350599	0.447277
C100	C	1.619573	0.149401	0.947277
C101	C	1.198318	-0.347177	0.449842
C102	C	1.698318	0.152823	0.949842
C103	C	0.925831	-0.367319	0.626034
C104	C	1.425831	0.132681	1.126034
C105	C	0.922015	-0.371022	0.704774
C106	C	1.422015	0.128978	1.204774
C107	C	0.974079	-0.149060	0.405187
C108	C	1.474079	0.350940	0.905187
C109	C	0.990823	-0.059753	0.389816
C110	C	1.490823	0.440247	0.889816
C111	C	0.943758	-0.349914	0.257191
C112	C	1.443758	0.150086	0.757191
C113	C	0.947754	-0.345978	0.178416
C114	C	1.447754	0.154022	0.678416
C115	C	0.975161	-0.319412	0.734401
C116	C	1.475161	0.180588	1.234401
C117	C	0.971567	-0.322889	0.808385
C118	C	1.471567	0.177111	1.308385
C119	C	0.914829	-0.377981	0.852743
C120	C	1.414829	0.122019	1.352743
C121	C	0.861678	-0.429593	0.823112
C122	C	1.361678	0.070407	1.323112
C123	C	0.865270	-0.426112	0.749128
C124	C	1.365270	0.073888	1.249128
C125	C	0.898194	-0.394109	1.074801
C126	C	1.398194	0.105891	1.574801
C127	C	0.894608	-0.397589	1.148790
C128	C	1.394608	0.102411	1.648790
C129	C	1.004496	-0.290883	1.134058
C130	C	1.504496	0.209117	1.634058
C131	C	1.008085	-0.287410	1.060074
C132	C	1.508085	0.212590	1.560074
C133	C	0.954932	-0.339019	1.030449
C134	C	1.454932	0.160981	1.530449
N135	N	0.911156	-0.381537	0.928367
N136	N	1.411156	0.118463	1.428367
N137	N	0.958603	-0.335458	0.954824
N138	N	1.458603	0.164542	1.454824
H139	H	0.678559	-0.281160	0.498800
H140	H	1.178559	0.218840	0.998800
N141	N	0.833412	-0.456999	1.196648
N142	N	1.333412	0.043001	1.696648
H143	H	0.834263	-0.513329	1.194021
H144	H	1.334263	-0.013329	1.694021
H145	H	0.785790	-0.446038	1.179955
H146	H	1.285790	0.053962	1.679955
H147	H	0.651634	-0.459580	0.366192
H148	H	1.151634	0.040420	0.866192
H149	H	1.082922	-0.770508	0.304819
H150	H	1.582922	-0.270508	0.804819
H151	H	0.762855	-0.824197	0.599675
H152	H	1.262855	-0.324197	1.099675
H153	H	0.821987	-0.468131	0.725006
H154	H	1.321987	0.031869	1.225006
H155	H	0.963793	-0.657004	0.414489
H156	H	1.463793	-0.157004	0.914489
N157	N	1.036363	-0.260000	0.686562
N158	N	1.536363	0.240000	1.186562
H159	H	1.016050	-0.222572	0.648512
H160	H	1.516050	0.277428	1.148512
H161	H	1.064534	-0.289853	0.662615
H162	H	1.564534	0.210147	1.162615
H163	H	1.014845	-0.280864	0.832503
H164	H	1.514845	0.219136	1.332503
N165	N	0.772249	-0.958112	0.591077
N166	N	1.272249	-0.458112	1.091077
H167	H	0.783485	-0.945379	0.639535
H168	H	1.283485	-0.445379	1.139535
H169	H	0.768373	-1.016992	0.594641
H170	H	1.268373	-0.516992	1.094641
H171	H	0.218658	-0.257660	0.516365
H172	H	0.718658	0.242340	1.016365
H173	H	1.106961	-0.892248	0.282742
H174	H	1.606961	-0.392248	0.782742
H175	H	1.047769	-0.248864	1.158187
H176	H	1.547769	0.251136	1.658187
H177	H	1.054288	-0.242550	1.023962
H178	H	1.554288	0.257450	1.523962
N179	N	0.840849	-0.449746	1.042848
N180	N	1.340849	0.050254	1.542848
H181	H	0.804359	-0.485167	1.082175
H182	H	1.304359	0.014833	1.582175
H183	H	0.864177	-0.484243	1.019478
H184	H	1.364177	0.015757	1.519478
N185	N	1.089021	-1.054472	0.299347
N186	N	1.589021	-0.554472	0.799347
H187	H	1.055337	-1.089032	0.271569
H188	H	1.555337	-0.589032	0.771569
H189	H	1.113940	-1.089128	0.335265
H190	H	1.613940	-0.589128	0.835265
N191	N	0.179985	-0.449508	0.373787
N192	N	0.679985	0.050492	0.873787
H193	H	0.209951	-0.479137	0.351753
H194	H	0.709951	0.020863	0.851753
H195	H	0.157000	-0.416546	0.334419
H196	H	0.657000	0.083454	0.834419
N197	N	0.333787	-0.442768	0.378740
N198	N	0.833787	0.057232	0.878740
H199	H	0.294420	-0.475433	0.354471
H200	H	0.794420	0.024567	0.854471
H201	H	0.356129	-0.480013	0.414922
H202	H	0.856129	0.019987	0.914922
N203	N	0.780788	-0.661951	0.583068
N204	N	1.280788	-0.161951	1.083068
H205	H	0.743326	-0.703870	0.617594
H206	H	1.243326	-0.203870	1.117594
H207	H	0.755920	-0.627247	0.547138
H208	H	1.255920	-0.127247	1.047138
N209	N	0.536522	-0.274445	0.503801
N210	N	1.036522	0.225555	1.003801
H211	H	0.544606	-0.288826	0.556980
H212	H	1.044606	0.211174	1.056980
H213	H	0.482920	-0.284204	0.496507
H214	H	0.982920	0.215796	0.996507
N215	N	1.015030	-0.679683	0.367319
N216	N	1.515030	-0.179683	0.867319
H217	H	1.029439	-0.661152	0.412854
H218	H	1.529439	-0.161152	0.912854
H219	H	0.970820	-0.661083	0.349174
H220	H	1.470820	-0.161083	0.849174
N221	N	0.800469	-0.488997	0.870947
N222	N	1.300469	0.011003	1.370947
H223	H	0.806255	-0.483370	0.922311
H224	H	1.306255	0.016630	1.422311
H225	H	0.801350	-0.545299	0.868257
H226	H	1.301350	-0.045299	1.368257
N227	N	0.854782	-1.036753	0.515092
N228	N	1.354782	-0.536753	1.015092
H229	H	0.813676	-1.060200	0.552969
H230	H	1.313676	-0.560200	1.052969
H231	H	0.899008	-1.055356	0.533178
H232	H	1.399008	-0.555356	1.033178
N233	N	0.505648	-0.478868	0.351879
N234	N	1.005648	0.021132	0.851879
H235	H	0.535612	-0.508498	0.329843
H236	H	1.035612	-0.008498	0.829843
H237	H	0.482665	-0.445901	0.312512
H238	H	0.982665	0.054099	0.812512
H239	H	0.352900	-0.251794	0.520697
H240	H	0.852900	0.248206	1.020697
H241	H	0.906021	-1.059447	0.467929
H242	H	1.406021	-0.559447	0.967929
