data_functionalizedCrystal
_audit_creation_method	'MofGen! by Chris Wilmer'
_symmetry_space_group_name_H-M	'P1'
_symmetry_Int_Tables_number	1
_symmetry_cell_setting	triclinic
loop_
_symmetry_equiv_pos_as_xyz
  x,y,z
_cell_length_a	23.096457
_cell_length_b	23.096457
_cell_length_c	23.096457
_cell_angle_alpha	90.011518
_cell_angle_beta	60.008701
_cell_angle_gamma	60.000185
loop_
_atom_site_label
_atom_site_type_symbol
_atom_site_fract_x
_atom_site_fract_y
_atom_site_fract_z
Zr1	Zr	0.633740	0.557763	-0.075976
O2	O	0.754526	0.465295	-0.168417
O3	O	0.512954	0.586107	-0.047641
O4	O	0.633742	0.586081	-0.168427
O5	O	0.633736	0.465344	0.047651
O6	O	0.633743	0.681361	-0.168430
O7	O	0.633738	0.465321	-0.047631
O8	O	0.417676	0.681407	0.047634
O9	O	0.849804	0.465298	-0.168413
O10	O	0.562636	0.669304	-0.035555
O11	O	0.562634	0.598215	0.035556
O12	O	0.704846	0.598184	-0.106654
O13	O	0.704844	0.527095	-0.035543
Zr14	Zr	0.633740	0.709760	0.075983
Zr15	Zr	0.633742	0.709724	-0.075981
Zr16	Zr	0.633737	0.557799	0.075988
Zr17	Zr	0.785697	0.557767	-0.075969
Zr18	Zr	0.481782	0.709756	0.075976
O19	O	0.754526	0.681416	0.047648
O20	O	0.754529	0.681365	-0.168425
O21	O	0.754522	0.465347	0.047656
O22	O	0.512954	0.802227	0.168424
O23	O	0.512958	0.802176	-0.047649
O24	O	0.512950	0.586158	0.168432
O25	O	0.633743	0.802179	-0.047644
O26	O	0.633738	0.681442	0.168434
O27	O	0.633736	0.586161	0.168437
O28	O	0.633742	0.802202	0.047638
O29	O	0.849806	0.586087	-0.168418
O30	O	0.417674	0.681436	0.168425
O31	O	0.417676	0.802225	0.168420
O32	O	0.417678	0.802196	0.047629
O33	O	0.849802	0.465326	-0.047622
O34	O	0.849804	0.586115	-0.047627
O35	O	0.562634	0.669338	0.106661
O36	O	0.562636	0.740428	0.035551
O37	O	0.704846	0.669308	-0.035549
O38	O	0.704844	0.598218	0.035562
C39	C	0.443664	0.633757	-0.000004
C40	C	0.379154	0.633755	-0.000007
C41	C	0.633737	0.443681	0.000011
C42	C	0.633736	0.379170	0.000013
C43	C	0.633743	0.633716	-0.190080
C44	C	0.633744	0.633701	-0.254593
C45	C	0.348855	0.670858	-0.037129
C46	C	0.288232	0.670865	-0.037123
C47	C	0.257924	0.633755	-0.000005
C48	C	0.288228	0.596650	0.037124
C49	C	0.348843	0.596650	0.037123
N50	N	0.195527	0.573349	-0.005150
N51	N	0.137946	0.573351	-0.005153
C52	C	0.075292	0.633754	0.000001
N53	N	0.072401	0.694155	0.005145
N54	N	0.129989	0.694152	0.005144
C55	C	0.192196	0.633751	0.000000
C56	C	-0.020742	0.670868	-0.037116
C57	C	-0.081369	0.670877	-0.037105
C58	C	-0.081367	0.596655	0.037138
C59	C	-0.020747	0.596653	0.037132
C60	C	0.009564	0.633758	0.000001
C61	C	0.823815	0.633766	0.000012
C62	C	0.888325	0.633768	0.000014
C63	C	0.559506	0.385988	0.037119
C64	C	0.559505	0.325372	0.037122
C65	C	0.633737	0.257939	0.000005
C66	C	0.707977	0.251123	-0.037103
C67	C	0.707976	0.311739	-0.037099
N68	N	0.688994	0.135130	-0.060404
N69	N	0.688989	0.077551	-0.060406
C70	C	0.633745	0.075306	-0.000007
N71	N	0.578492	0.132823	0.060393
N72	N	0.578494	0.190408	0.060394
C73	C	0.633747	0.192208	-0.000003
C74	C	0.559509	0.016401	0.037106
C75	C	0.559511	-0.044217	0.037111
C76	C	0.707985	-0.118466	-0.037121
C77	C	0.707981	-0.057848	-0.037119
C78	C	0.633741	0.009583	-0.000008
C79	C	0.633743	0.823842	-0.000003
C80	C	0.633744	0.888353	-0.000006
C81	C	0.707974	0.596581	-0.322009
C82	C	0.707975	0.596599	-0.382626
C83	C	0.633742	0.633727	-0.375821
C84	C	0.559503	0.670856	-0.308392
C85	C	0.559504	0.670843	-0.247778
N86	N	0.578486	0.628604	-0.443379
N87	N	0.578490	0.628613	-0.500963
C88	C	0.633735	0.633771	-0.558447
N89	N	0.688988	0.638907	-0.556178
N90	N	0.688986	0.638894	-0.498590
C91	C	0.633733	0.633746	-0.441543
C92	C	0.707971	0.596668	-0.691593
C93	C	0.707969	0.596692	-0.752209
C94	C	0.559495	0.670944	-0.677974
C95	C	0.559499	0.670926	-0.617360
C96	C	0.633739	0.633784	-0.624174
C97	C	0.633737	0.633806	0.190087
C98	C	0.633736	0.633822	0.254600
C99	C	0.443668	0.823837	-0.000011
C100	C	0.379159	0.888347	-0.000017
C101	C	0.443661	0.633802	0.190079
C102	C	0.379150	0.633815	0.254589
C103	C	0.443664	0.823882	0.190072
C104	C	0.379154	0.888407	0.254580
C105	C	0.823815	0.443641	-0.190065
C106	C	0.888325	0.379115	-0.254573
C107	C	0.823812	0.443686	0.000019
C108	C	0.888321	0.379176	0.000024
C109	C	0.823819	0.633721	-0.190072
C110	C	0.888329	0.633707	-0.254582
C111	C	0.348865	0.881515	-0.037141
C112	C	0.288260	0.942124	-0.037160
C113	C	0.257947	1.009562	-0.000050
C114	C	0.288247	1.016392	0.037076
C115	C	0.348854	0.955785	0.037091
C116	C	0.348855	0.670948	0.322006
C117	C	0.288249	0.670958	0.382626
C118	C	0.257934	0.633839	0.375827
C119	C	0.288235	0.596703	0.308403
C120	C	0.348845	0.596689	0.247784
C121	C	0.348861	0.955823	0.247754
C122	C	0.288256	1.016458	0.308360
C123	C	0.257941	1.009674	0.375791
C124	C	0.288240	0.942250	0.382615
C125	C	0.348848	0.881618	0.322010
C126	C	0.918626	0.311699	-0.247747
C127	C	0.979250	0.251065	-0.308353
C128	C	1.009568	0.257849	-0.375784
C129	C	0.979265	0.325272	-0.382608
C130	C	0.918646	0.385905	-0.322003
C131	C	0.918621	0.386007	0.037142
C132	C	0.979242	0.325399	0.037145
C133	C	1.009558	0.257960	0.000032
C134	C	0.979255	0.251131	-0.037091
C135	C	0.918639	0.311738	-0.037097
C136	C	0.918625	0.670833	-0.247760
C137	C	0.979232	0.670834	-0.308368
C138	C	1.009546	0.633705	-0.375797
C139	C	0.979245	0.596578	-0.382618
C140	C	0.918635	0.596582	-0.322010
H141	H	0.263558	0.701080	-0.067353
N142	N	0.381527	0.556622	0.077161
H143	H	0.442370	0.519262	0.043119
H144	H	0.370927	0.590719	0.114509
H145	H	0.373512	0.961357	0.067326
N146	N	1.011964	0.332580	-0.455340
H147	H	0.983574	0.384488	-0.450475
H148	H	1.072811	0.309041	-0.482100
N149	N	0.381525	0.556599	0.175084
H150	H	0.335283	0.576047	0.169402
H151	H	0.424547	0.562203	0.137733
H152	H	0.263557	1.071309	0.067290
H153	H	0.499058	0.071307	0.067339
H154	H	0.263546	0.566435	0.067347
H155	H	0.893970	0.306166	-0.067322
N156	N	0.381515	0.808903	0.329371
H157	H	0.406660	0.803230	0.356152
H158	H	0.335222	0.803290	0.356131
N159	N	1.074939	0.192447	-0.441146
H160	H	1.089550	0.206969	-0.484902
H161	H	1.125187	0.163302	-0.441100
H162	H	0.003936	0.701084	-0.067347
H163	H	0.373530	0.701174	0.327556
N164	N	0.381544	0.963150	0.175030
H165	H	0.353150	1.015063	0.179913
H166	H	0.442391	0.939610	0.148262
N167	N	0.885928	0.710884	-0.175035
H168	H	0.932170	0.691424	-0.169351
H169	H	0.860764	0.762800	-0.169407
N170	N	0.255575	0.934752	-0.077195
H171	H	0.266131	0.958226	-0.114558
H172	H	0.283984	0.882820	-0.100648
H173	H	0.893944	0.306162	-0.192847
N174	N	0.788050	-0.191192	-0.077149
H175	H	0.791364	-0.218005	-0.114503
H176	H	0.835030	-0.186253	-0.100612
H177	H	0.263585	0.701201	0.437519
H178	H	0.499061	-0.038659	0.067332
H179	H	1.003913	0.196172	-0.302783
N180	N	0.192561	0.633859	0.441211
H181	H	0.177972	0.663019	0.484949
H182	H	0.142305	0.654968	0.441178
H183	H	0.263544	0.566482	0.302877
N184	N	0.255582	1.089172	0.300991
H185	H	0.283980	1.084263	0.249076
H186	H	0.194735	1.115947	0.324522
N187	N	0.885965	0.458617	-0.329369
H188	H	0.914372	0.453707	-0.381284
H189	H	0.825121	0.485384	-0.305849
H190	H	0.893943	0.440914	0.067369
H191	H	0.768418	0.566466	-0.807105
N192	N	1.011904	0.710881	-0.301003
H193	H	0.983505	0.734395	-0.249089
H194	H	1.072751	0.676801	-0.324533
N195	N	0.192570	1.075074	0.441155
H196	H	0.177982	1.118809	0.426592
H197	H	0.142312	1.075050	0.470302
N198	N	0.479427	0.710998	-0.670624
H199	H	0.490688	0.705376	-0.719253
H200	H	0.447007	0.691511	-0.643836
N201	N	1.011917	0.332775	0.077187
H202	H	0.983505	0.384694	0.100701
H203	H	1.001373	0.309249	0.114503
N204	N	0.192578	1.074929	-0.000070
H205	H	0.177990	1.060361	-0.029221
H206	H	0.142320	1.104089	0.050215
H207	H	1.058915	0.208616	0.000042
H208	H	0.263548	0.936738	0.437525
H209	H	1.003948	0.196214	-0.067308
H210	H	0.499053	0.701150	-0.562465
N211	N	1.074911	0.633712	-0.441164
H212	H	1.089497	0.662868	-0.426604
H213	H	1.125172	0.583420	-0.470315
N214	N	0.788044	-0.065198	-0.077151
H215	H	0.835071	-0.117113	-0.100668
H216	H	0.791271	-0.041670	-0.114464
N217	N	0.788043	0.556557	-0.455348
H218	H	0.820490	0.504627	-0.461037
H219	H	0.776709	0.562256	-0.492669
N220	N	1.011945	0.556533	-0.455346
H221	H	1.054940	0.562166	-0.492700
H222	H	1.037057	0.504623	-0.460963
N223	N	-0.114057	0.710902	-0.077141
H224	H	-0.085653	0.734404	-0.100663
H225	H	-0.103514	0.676811	-0.114450
H226	H	0.768426	0.566340	-0.327564
H227	H	0.893975	0.566346	-0.327574
H228	H	0.373545	0.826609	-0.067370
H229	H	-0.106044	0.566440	0.067360
N230	N	0.381547	0.710877	-0.077174
H231	H	0.353149	0.734384	-0.100690
H232	H	0.371000	0.748202	-0.043097
H233	H	0.003926	0.566437	0.067357
N234	N	0.479436	0.458715	0.077142
H235	H	0.432411	0.453833	0.100648
H236	H	0.476193	0.485493	0.114462
H237	H	0.499056	0.330924	0.067339
H238	H	0.768425	0.306181	-0.067314
N239	N	0.788044	0.178395	-0.077131
H240	H	0.776781	0.141029	-0.071504
H241	H	0.820466	0.172772	-0.129037
H242	H	0.499062	0.701087	-0.302856
H243	H	0.499055	0.701071	-0.192882
H244	H	0.768422	0.566426	-0.697143
