data_functionalizedCrystal
_audit_creation_method	'MofGen! by Chris Wilmer'
_symmetry_space_group_name_H-M	'P1'
_symmetry_Int_Tables_number	1
_symmetry_cell_setting	triclinic
loop_
_symmetry_equiv_pos_as_xyz
  x,y,z
_cell_length_a	19.188931
_cell_length_b	18.266242
_cell_length_c	14.044190
_cell_angle_alpha	90.010750
_cell_angle_beta	91.831540
_cell_angle_gamma	89.992421
loop_
_atom_site_label
_atom_site_type_symbol
_atom_site_fract_x
_atom_site_fract_y
_atom_site_fract_z
O1	O	-0.933786	0.060864	0.118314
O2	O	-0.600453	0.394197	0.451647
O3	O	-0.267119	0.727530	0.784980
O4	O	-0.731503	0.060872	0.134239
O5	O	-0.398169	0.394205	0.467573
O6	O	-0.064836	0.727539	0.800906
O7	O	-0.829605	0.060854	-0.011696
O8	O	-0.496272	0.394187	0.321638
O9	O	-0.162939	0.727520	0.654971
O10	O	-0.835683	0.060882	0.264249
O11	O	-0.502350	0.394215	0.597582
O12	O	-0.169016	0.727549	0.930915
O13	O	-0.829587	-0.060908	-0.011703
O14	O	-0.496253	0.272425	0.321630
O15	O	-0.162920	0.605758	0.654964
O16	O	-0.731484	-0.060890	0.134232
O17	O	-0.398151	0.272443	0.467565
O18	O	-0.064817	0.605777	0.800899
O19	O	-0.933767	-0.060898	0.118306
O20	O	-0.600434	0.272435	0.451640
O21	O	-0.267101	0.605768	0.784973
Zn22	Zn	-0.832623	-0.080227	0.126268
Zn23	Zn	-0.499289	0.253107	0.459601
Zn24	Zn	-0.165956	0.586440	0.792935
Zn25	Zn	-0.832647	0.080200	0.126278
Zn26	Zn	-0.499314	0.413533	0.459611
Zn27	Zn	-0.165981	0.746867	0.792944
O28	O	-0.835664	-0.060880	0.264241
O29	O	-0.502331	0.272453	0.597575
O30	O	-0.168998	0.605787	0.930908
C31	C	-0.705449	-0.000008	0.133720
C32	C	-0.372116	0.333325	0.467053
C33	C	-0.038782	0.666658	0.800386
C34	C	-0.627845	-0.000006	0.132171
C35	C	-0.294511	0.333327	0.465504
C36	C	0.038822	0.666661	0.798838
C37	C	-0.073886	0.066358	0.121123
C38	C	0.259448	0.399691	0.454456
C39	C	0.592781	0.733025	0.787790
C40	C	-0.146804	0.066361	0.122572
C41	C	0.186530	0.399694	0.455906
C42	C	0.519863	0.733028	0.789239
C43	C	-0.183257	-0.000011	0.123297
C44	C	0.150076	0.333322	0.456631
C45	C	0.483409	0.666655	0.789964
C46	C	-0.146788	-0.066391	0.122548
C47	C	0.186545	0.266942	0.455882
C48	C	0.519878	0.600275	0.789215
C49	C	-0.073872	-0.066392	0.121090
C50	C	0.259461	0.266941	0.454423
C51	C	0.592795	0.600274	0.787756
N52	N	-0.295898	-0.049409	0.179509
N53	N	0.037435	0.283924	0.512842
N54	N	0.370768	0.617257	0.846176
N55	N	-0.365166	-0.049404	0.180897
N56	N	-0.031832	0.283929	0.514230
N57	N	0.301501	0.617263	0.847564
C58	C	-0.402950	-0.000012	0.127691
C59	C	-0.069616	0.333321	0.461024
C60	C	0.263717	0.666654	0.794357
N61	N	-0.368849	0.049385	0.073056
N62	N	-0.035516	0.382718	0.406390
N63	N	0.297817	0.716052	0.739723
N64	N	-0.299576	0.049382	0.071672
N65	N	0.033758	0.382715	0.405006
N66	N	0.367091	0.716048	0.738339
C67	C	-0.262323	-0.000018	0.124879
C68	C	0.071011	0.333316	0.458212
C69	C	0.404344	0.666649	0.791545
C70	C	-0.518476	0.066367	0.130004
C71	C	-0.185143	0.399700	0.463338
C72	C	0.148190	0.733033	0.796671
C73	C	-0.591396	0.066367	0.131448
C74	C	-0.258062	0.399700	0.464781
C75	C	0.075271	0.733034	0.798114
C76	C	-0.591379	-0.066387	0.131434
C77	C	-0.258045	0.266946	0.464767
C78	C	0.075288	0.600280	0.798100
C79	C	-0.518461	-0.066385	0.129981
C80	C	-0.185128	0.266948	0.463314
C81	C	0.148206	0.600281	0.796647
C82	C	-0.482014	-0.000006	0.129270
C83	C	-0.148681	0.333327	0.462604
C84	C	0.184653	0.666660	0.795937
N85	N	-0.832611	-0.189713	0.126261
N86	N	-0.499278	0.143620	0.459594
N87	N	-0.165944	0.476953	0.792927
C88	C	-0.876068	-0.228030	0.061672
C89	C	-0.542735	0.105303	0.395006
C90	C	-0.209402	0.438636	0.728339
C91	C	-0.876073	-0.304675	0.061668
C92	C	-0.542739	0.028658	0.395001
C93	C	-0.209406	0.361991	0.728334
C94	C	-0.832627	-0.343000	0.126268
C95	C	-0.499294	-0.009667	0.459601
C96	C	-0.165960	0.323666	0.792935
C97	C	-0.789161	-0.304674	0.190861
C98	C	-0.455828	0.028659	0.524195
C99	C	-0.122494	0.361993	0.857528
C100	C	-0.789153	-0.228031	0.190858
C101	C	-0.455820	0.105303	0.524191
C102	C	-0.122486	0.438636	0.857524
N103	N	-0.828966	-0.463324	0.210156
N104	N	-0.495633	-0.129991	0.543490
N105	N	-0.162300	0.203343	0.876823
N106	N	-0.828978	-0.536132	0.210157
N107	N	-0.495645	-0.202799	0.543490
N108	N	-0.162311	0.130535	0.876824
C109	C	-0.832647	-0.573923	0.126282
C110	C	-0.499314	-0.240589	0.459615
C111	C	-0.165981	0.092744	0.792949
N112	N	-0.836318	-0.536155	0.042403
N113	N	-0.502985	-0.202822	0.375737
N114	N	-0.169652	0.130512	0.709070
N115	N	-0.836310	-0.463340	0.042404
N116	N	-0.502977	-0.130007	0.375737
N117	N	-0.169644	0.203326	0.709070
C118	C	-0.832630	-0.426107	0.126279
C119	C	-0.499297	-0.092774	0.459612
C120	C	-0.165964	0.240559	0.792946
C121	C	-0.876112	-0.695347	0.061683
C122	C	-0.542778	-0.362014	0.395017
C123	C	-0.209445	-0.028680	0.728350
C124	C	-0.876111	-0.771993	0.061678
C125	C	-0.542778	-0.438660	0.395011
C126	C	-0.209444	-0.105327	0.728344
C127	C	-0.789203	-0.771991	0.190879
C128	C	-0.455870	-0.438657	0.524213
C129	C	-0.122536	-0.105324	0.857546
C130	C	-0.789200	-0.695346	0.190877
C131	C	-0.455867	-0.362012	0.524210
C132	C	-0.122533	-0.028679	0.857544
C133	C	-0.832658	-0.657028	0.126280
C134	C	-0.499325	-0.323695	0.459613
C135	C	-0.165991	0.009638	0.792947
C136	C	0.040179	-0.000016	0.118827
C137	C	0.373513	0.333317	0.452161
C138	C	0.706846	0.666650	0.785494
C139	C	-0.037425	-0.000013	0.120380
C140	C	0.295908	0.333320	0.453713
C141	C	0.629242	0.666653	0.787046
C142	C	-0.826937	-0.000029	-0.047003
C143	C	-0.493604	0.333304	0.286330
C144	C	-0.160271	0.666637	0.619664
C145	C	-0.819006	-0.000036	-0.152196
C146	C	-0.485673	0.333298	0.181137
C147	C	-0.152340	0.666631	0.514471
N148	N	-0.832664	0.189687	0.126277
N149	N	-0.499331	0.523020	0.459611
N150	N	-0.165997	0.856354	0.792944
C151	C	-0.860754	-0.000009	-0.402655
C152	C	-0.527421	0.333325	-0.069322
C153	C	-0.194088	0.666658	0.264011
C154	C	-0.804519	-0.000011	-0.344793
C155	C	-0.471185	0.333322	-0.011460
C156	C	-0.137852	0.666655	0.321873
C157	C	-0.812582	-0.000025	-0.237622
C158	C	-0.479248	0.333308	0.095711
C159	C	-0.145915	0.666642	0.429044
C160	C	-0.852692	0.000005	-0.509836
C161	C	-0.519359	0.333338	-0.176503
C162	C	-0.186026	0.666672	0.156830
C163	C	-0.838333	0.000005	0.299549
C164	C	-0.504999	0.333338	0.632882
C165	C	-0.171666	0.666671	0.966215
C166	C	-0.846263	0.000016	0.404742
C167	C	-0.512930	0.333349	0.738075
C168	C	-0.179597	0.666682	1.071408
H169	H	-0.044186	-0.120441	0.120488
H170	H	0.289147	0.212892	0.453821
H171	H	0.622480	0.546225	0.787155
H172	H	-0.911496	-0.664148	0.009081
H173	H	-0.578162	-0.330814	0.342415
H174	H	-0.244829	0.002519	0.675748
H175	H	-0.488800	0.120417	0.129423
H176	H	-0.155466	0.453750	0.462756
H177	H	0.177867	0.787083	0.796090
H178	H	-0.621081	0.120417	0.132046
H179	H	-0.287748	0.453750	0.465379
H180	H	0.045586	0.787083	0.798712
H181	H	-0.753826	-0.803194	0.243475
H182	H	-0.420493	-0.469861	0.576808
H183	H	-0.087159	-0.136527	0.910141
H184	H	-0.753786	-0.335882	0.243459
H185	H	-0.420452	-0.002549	0.576792
H186	H	-0.087119	0.330785	0.910125
H187	H	-0.753764	-0.196832	0.243454
H188	H	-0.420430	0.136501	0.576788
H189	H	-0.087097	0.469834	0.910121
H190	H	-0.914951	-0.000018	-0.371706
H191	H	-0.581617	0.333315	-0.038373
H192	H	-0.248284	0.666648	0.294960
H193	H	-0.911453	-0.196835	0.009071
H194	H	-0.578119	0.136499	0.342405
H195	H	-0.244786	0.469832	0.675738
H196	H	-0.488774	-0.120432	0.129379
H197	H	-0.155441	0.212901	0.462712
H198	H	0.177892	0.546234	0.796045
H199	H	-0.044215	0.120409	0.120541
H200	H	0.289118	0.453742	0.453874
H201	H	0.622452	0.787076	0.787208
H202	H	-0.911497	-0.803191	0.009077
H203	H	-0.578163	-0.469858	0.342410
H204	H	-0.244830	-0.136525	0.675743
H205	H	-0.176495	0.120410	0.123183
H206	H	0.156838	0.453743	0.456516
H207	H	0.490171	0.787077	0.789849
H208	H	-0.753816	-0.664146	0.243475
H209	H	-0.420482	-0.330813	0.576808
H210	H	-0.087149	0.002521	0.910141
H211	H	-0.750318	-0.000005	-0.375744
H212	H	-0.416985	0.333328	-0.042411
H213	H	-0.083651	0.666662	0.290922
H214	H	-0.621059	-0.120429	0.132020
H215	H	-0.287725	0.212905	0.465354
H216	H	0.045608	0.546238	0.798687
H217	H	-0.911462	-0.335879	0.009070
H218	H	-0.578129	-0.002545	0.342403
H219	H	-0.244795	0.330788	0.675737
H220	H	-0.176474	-0.120432	0.123137
H221	H	0.156860	0.212901	0.456470
H222	H	0.490193	0.546235	0.789804
