data_functionalizedCrystal
_audit_creation_method	'MofGen! by Chris Wilmer'
_symmetry_space_group_name_H-M	'P1'
_symmetry_Int_Tables_number	1
_symmetry_cell_setting	triclinic
loop_
_symmetry_equiv_pos_as_xyz
  x,y,z
_cell_length_a	16.120530
_cell_length_b	16.120444
_cell_length_c	21.395355
_cell_angle_alpha	87.118536
_cell_angle_beta	92.920957
_cell_angle_gamma	90.168401
loop_
_atom_site_label
_atom_site_type_symbol
_atom_site_fract_x
_atom_site_fract_y
_atom_site_fract_z
Zn1	Zn	1.254507	-0.395721	0.417087
Zn2	Zn	1.247338	-0.534754	0.317334
Zn3	Zn	1.115436	-0.388658	0.306761
Zn4	Zn	1.108356	-0.527674	0.416515
O5	O	1.181409	-0.461702	0.364424
O6	O	1.369921	-0.420083	0.408518
O7	O	1.229803	-0.515381	0.228252
O8	O	1.139847	-0.273230	0.317211
O9	O	1.364655	-0.522230	0.335230
O10	O	1.242021	-0.278419	0.398266
O11	O	1.132895	-0.408045	0.220485
O12	O	0.998131	-0.401180	0.316656
O13	O	1.127781	-0.510163	0.504270
O14	O	0.992930	-0.503315	0.397291
O15	O	1.235157	-0.413218	0.504690
O16	O	1.222939	-0.650180	0.334676
O17	O	1.120830	-0.644978	0.407543
C18	C	0.965358	-0.450713	0.355765
C19	C	0.872929	-0.446032	0.352076
C20	C	0.703701	-0.437467	0.345346
C21	C	0.659954	-0.485998	0.383550
C22	C	0.565790	-0.481232	0.379806
C23	C	0.797874	-0.442232	0.349089
C24	C	1.170361	-0.677752	0.372209
C25	C	1.165710	-0.770183	0.375564
C26	C	1.205738	-0.983149	0.347165
C27	C	1.157235	-0.939411	0.381696
C28	C	1.161952	-0.845244	0.378283
C29	C	1.201022	-1.077325	0.350577
C30	C	1.398304	-0.472734	0.373118
C31	C	1.490732	-0.477435	0.376822
C32	C	1.181479	-0.461688	0.527850
C33	C	1.181509	-0.461683	0.597492
C34	C	1.192523	-0.244809	0.356623
C35	C	1.197260	-0.152382	0.353299
C36	C	1.181390	-0.461657	0.201634
C37	C	1.181534	-0.461437	0.131990
C38	C	1.237417	-0.411201	0.630425
C39	C	1.237418	-0.411165	0.695859
C40	C	1.181518	-0.461626	0.728358
C41	C	1.125599	-0.512112	0.695417
C42	C	1.125594	-0.512140	0.629984
C43	C	1.171123	-0.536167	0.834468
C44	C	1.171134	-0.536140	0.899901
C45	C	1.181528	-0.461539	0.930176
C46	C	1.191929	-0.386962	0.895012
C47	C	1.191924	-0.386991	0.829579
C48	C	1.181517	-0.461601	0.799310
C49	C	1.237440	-0.411014	1.034060
C50	C	1.237435	-0.410976	1.099495
C51	C	1.125620	-0.511930	1.099053
C52	C	1.125621	-0.511960	1.033619
C53	C	1.181536	-0.461503	1.001127
H54	H	0.670437	-0.392343	0.309827
C55	C	1.096344	-0.984365	0.425092
N56	N	1.050481	-1.018228	0.457774
H57	H	1.080063	-0.553247	0.603170
H58	H	1.250801	-0.949875	0.315041
H59	H	0.693220	-0.531125	0.419072
C60	C	1.159691	-0.618175	0.938575
N61	N	1.151071	-0.679966	0.967703
C62	C	1.064106	-0.567615	0.731168
N63	N	1.017784	-0.609419	0.758095
H64	H	1.282946	-0.370114	0.603973
C65	C	1.064130	-0.567440	1.134799
N66	N	1.017813	-0.609250	1.161726
C67	C	1.298929	-0.355634	0.732092
N68	N	1.345261	-0.313810	0.759382
H69	H	1.200391	-0.326268	0.800950
H70	H	1.200394	-0.326215	0.919660
H71	H	1.080099	-0.553073	1.006805
H72	H	1.282964	-0.369924	1.007603
H73	H	1.282961	-0.369863	1.126308
C74	C	1.159704	-0.618242	0.801173
N75	N	1.151109	-0.680060	0.776096
