data_functionalizedCrystal
_audit_creation_method	'MofGen! by Chris Wilmer'
_symmetry_space_group_name_H-M	'P1'
_symmetry_Int_Tables_number	1
_symmetry_cell_setting	triclinic
loop_
_symmetry_equiv_pos_as_xyz
  x,y,z
_cell_length_a	16.109301
_cell_length_b	16.109302
_cell_length_c	14.586319
_cell_angle_alpha	89.996326
_cell_angle_beta	89.998857
_cell_angle_gamma	83.461823
loop_
_atom_site_label
_atom_site_type_symbol
_atom_site_fract_x
_atom_site_fract_y
_atom_site_fract_z
O1	O	1.103131	0.106867	-0.076190
O2	O	1.603131	0.606867	0.423810
O3	O	0.861069	0.120166	-0.076203
O4	O	1.361069	0.620166	0.423797
O5	O	0.988749	-0.007514	-0.076190
O6	O	1.488749	0.492486	0.423810
O7	O	0.975451	0.234547	-0.076202
O8	O	1.475451	0.734547	0.423798
O9	O	0.988740	-0.007516	0.076291
O10	O	1.488740	0.492484	0.576291
O11	O	0.861060	0.120164	0.076278
O12	O	1.361060	0.620164	0.576278
O13	O	1.103122	0.106865	0.076291
O14	O	1.603122	0.606865	0.576291
Cu15	Cu	0.982091	0.113515	0.090207
Cu16	Cu	1.482091	0.613515	0.590207
Cu17	Cu	0.982101	0.113517	-0.090119
Cu18	Cu	1.482101	0.613517	0.409881
O19	O	0.975442	0.234546	0.076279
O20	O	1.475442	0.734546	0.576279
C21	C	0.830090	0.119626	0.000036
C22	C	1.330090	0.619626	0.500036
C23	C	0.737795	0.118011	0.000031
C24	C	1.237795	0.618011	0.500031
C25	C	0.988206	-0.038490	0.000050
C26	C	1.488206	0.461510	0.500050
C27	C	0.986590	-0.130785	0.000048
C28	C	1.486590	0.369215	0.500048
C29	C	0.428797	0.188494	0.000044
C30	C	0.928797	0.688494	0.500044
C31	C	0.515517	0.190020	0.000038
C32	C	1.015517	0.690020	0.500038
C33	C	0.535390	0.038531	0.000034
C34	C	1.035390	0.538531	0.500034
C35	C	0.448671	0.037007	0.000033
C36	C	0.948671	0.537007	0.500033
C37	C	0.395376	0.111991	0.000042
C38	C	0.895376	0.611991	0.500042
C39	C	0.568815	0.115041	0.000038
C40	C	1.068815	0.615041	0.500038
C41	C	0.662841	0.116694	0.000032
C42	C	1.162841	0.616694	0.500032
C43	C	0.301344	0.110338	0.000046
C44	C	0.801344	0.610338	0.500046
C45	C	1.134102	0.107405	0.000050
C46	C	1.634102	0.607405	0.500050
C47	C	1.226397	0.109020	0.000049
C48	C	1.726397	0.609020	0.500049
N49	N	0.982089	0.113512	0.217039
N50	N	1.482089	0.613512	0.717039
C51	C	0.975986	0.265521	0.000037
C52	C	1.475986	0.765521	0.500037
C53	C	0.977601	0.357817	0.000032
C54	C	1.477601	0.857817	0.500032
C55	C	0.981341	0.570159	-0.083079
C56	C	1.481341	1.070159	0.416921
C57	C	0.982867	0.656879	-0.083077
C58	C	1.482867	1.156879	0.416923
C59	C	0.982853	0.656866	0.083166
C60	C	1.482853	1.156866	0.583166
C61	C	0.981333	0.570147	0.083163
C62	C	1.481333	1.070147	0.583163
C63	C	0.980572	0.526796	0.000038
C64	C	1.480572	1.026796	0.500038
C65	C	0.983619	0.700235	0.000043
C66	C	1.483619	1.200235	0.500043
C67	C	0.985274	0.794261	0.000045
C68	C	1.485274	1.294261	0.500045
C69	C	0.978919	0.432764	0.000035
C70	C	1.478919	0.932764	0.500035
N71	N	0.982109	0.113512	-0.216951
N72	N	1.482109	0.613512	0.283049
C73	C	1.038645	0.056994	0.452051
C74	C	1.538645	0.556994	0.952051
C75	C	1.038647	0.056992	0.548032
C76	C	1.538647	0.556992	1.048032
C77	C	0.925548	0.170033	0.548031
C78	C	1.425548	0.670033	1.048031
C79	C	0.925542	0.170030	0.452051
C80	C	1.425542	0.670030	0.952051
C81	C	0.982095	0.113512	0.404064
C82	C	1.482095	0.613512	0.904064
C83	C	0.982103	0.113513	0.596025
C84	C	1.482103	0.613513	1.096025
C85	C	0.982105	0.113511	0.700092
C86	C	1.482105	0.613511	1.200092
C87	C	0.982092	0.113512	0.299990
C88	C	1.482092	0.613512	0.799990
H89	H	0.385406	0.249551	0.000051
H90	H	0.885406	0.749551	0.500051
H91	H	0.983471	0.692173	0.150843
H92	H	1.483471	1.192173	0.650843
H93	H	0.542723	0.252316	0.000039
H94	H	1.042723	0.752316	0.500039
H95	H	1.084694	0.010970	0.587101
H96	H	1.584694	0.510970	1.087101
H97	H	0.578792	-0.022518	0.000028
H98	H	1.078792	0.477482	0.500028
H99	H	0.983494	0.692181	-0.150759
H100	H	1.483494	1.192181	0.349241
H101	H	0.980709	0.534840	0.150851
H102	H	1.480709	1.034840	0.650851
H103	H	0.879488	0.216054	0.412977
H104	H	1.379488	0.716054	0.912977
H105	H	0.421461	-0.025296	0.000028
H106	H	0.921461	0.474704	0.500028
H107	H	0.980721	0.534865	-0.150765
H108	H	1.480721	1.034865	0.349235
H109	H	1.084693	0.010973	0.412982
H110	H	1.584693	0.510973	0.912982
H111	H	0.879504	0.216050	0.587112
H112	H	1.379504	0.716050	1.087112
