data_functionalizedCrystal
_audit_creation_method	'MofGen! by Chris Wilmer'
_symmetry_space_group_name_H-M	'P1'
_symmetry_Int_Tables_number	1
_symmetry_cell_setting	triclinic
loop_
_symmetry_equiv_pos_as_xyz
  x,y,z
_cell_length_a	6.817900
_cell_length_b	17.982959
_cell_length_c	14.858572
_cell_angle_alpha	95.362884
_cell_angle_beta	104.524003
_cell_angle_gamma	102.451857
loop_
_atom_site_label
_atom_site_type_symbol
_atom_site_fract_x
_atom_site_fract_y
_atom_site_fract_z
V1	V	-4.033211	-0.105893	-0.290350
O2	O	-4.025834	0.004595	-0.284424
O3	O	-3.979652	-0.209493	-0.288749
O4	O	-3.989920	-0.104480	-0.416807
O5	O	-4.015496	-0.101144	-0.155479
V6	V	-4.516846	-0.092651	-0.274172
O7	O	-4.294225	-0.134938	-0.325839
O8	O	-4.706030	-0.063606	-0.238683
O9	O	-4.347199	0.010949	-0.275773
O10	O	-4.641620	-0.203139	-0.280099
O11	O	-4.651959	-0.097400	-0.409043
O12	O	-4.336931	-0.094064	-0.147715
C13	C	-3.823233	-0.234742	-0.284268
C14	C	-3.860763	-0.319437	-0.283801
C15	C	-4.060499	-0.363116	-0.288235
C16	C	-4.095753	-0.442697	-0.287802
C17	C	-3.931265	-0.478598	-0.282929
C18	C	-3.731514	-0.434914	-0.278497
C19	C	-3.696266	-0.355335	-0.278937
C20	C	-3.873662	-0.755846	-0.276726
C21	C	-3.908926	-0.835431	-0.276284
C22	C	-4.273150	-0.843209	-0.285591
C23	C	-4.237902	-0.763630	-0.286031
C24	C	-4.038158	-0.719953	-0.281604
C25	C	-3.999934	-0.633663	-0.282075
C26	C	-3.969483	-0.564886	-0.282451
C27	C	-3.836329	-0.100787	-0.447617
C28	C	-3.882182	-0.100317	-0.550998
C29	C	-4.050007	-0.098602	-0.929560
C30	C	-4.003305	-0.099080	-0.824232
C31	C	-3.966096	-0.099461	-0.740283
C32	C	-3.919391	-0.099936	-0.634948
C33	C	-4.166960	0.036193	-0.280252
C34	C	-4.108668	0.120888	-0.280725
C35	C	-4.153864	-0.097760	-0.116900
C36	C	-4.087249	-0.098225	-0.013518
H37	H	-4.371847	-0.734403	-0.289994
H38	H	-3.597590	-0.464151	-0.274535
C39	C	-3.730596	-0.874530	-0.271148
C40	C	-3.780929	-0.930409	-0.351030
C41	C	-3.616726	-0.966450	-0.346324
H42	H	-3.606481	-0.837212	-0.268621
H43	H	-3.709208	-0.898407	-0.216299
H44	H	-3.802291	-0.906533	-0.405864
H45	H	-3.905016	-0.967742	-0.353573
H46	H	-3.595339	-0.990326	-0.291475
H47	H	-3.492622	-0.929126	-0.343794
H48	H	-3.650862	-1.004372	-0.400517
C49	C	-3.656653	-0.708450	-0.271713
C50	C	-3.514695	-0.715047	-0.188364
C51	C	-3.314759	-0.671386	-0.183705
H52	H	-3.614893	-0.726902	-0.324165
H53	H	-3.659079	-0.655896	-0.272621
H54	H	-3.512262	-0.767589	-0.187464
H55	H	-3.556387	-0.696590	-0.135897
H56	H	-3.317185	-0.618833	-0.184613
H57	H	-3.273020	-0.689842	-0.236161
H58	H	-3.218420	-0.675851	-0.127149
C59	C	-3.479261	-0.307922	-0.273924
C60	C	-3.337280	-0.314511	-0.190578
C61	C	-3.137361	-0.270839	-0.185925
H62	H	-3.437502	-0.326370	-0.326379
H63	H	-3.481714	-0.255371	-0.274833
H64	H	-3.334821	-0.367051	-0.189677
H65	H	-3.378971	-0.296059	-0.138108
H66	H	-3.139813	-0.218288	-0.186834
H67	H	-3.095623	-0.289291	-0.238384
H68	H	-3.041006	-0.275298	-0.129372
H69	H	-4.194445	-0.333891	-0.292195
H70	H	-4.258396	-0.478257	-0.291414
H71	H	-4.435796	-0.878780	-0.289197
