data_functionalizedCrystal
_audit_creation_method	'MofGen! by Chris Wilmer'
_symmetry_space_group_name_H-M	'P1'
_symmetry_Int_Tables_number	1
_symmetry_cell_setting	triclinic
loop_
_symmetry_equiv_pos_as_xyz
  x,y,z
_cell_length_a	14.971482
_cell_length_b	8.597278
_cell_length_c	13.448316
_cell_angle_alpha	82.293422
_cell_angle_beta	89.993798
_cell_angle_gamma	84.478045
loop_
_atom_site_label
_atom_site_type_symbol
_atom_site_fract_x
_atom_site_fract_y
_atom_site_fract_z
O1	O	1.188615	0.204506	-0.100196
O2	O	0.928414	0.229005	-0.102299
O3	O	1.063633	-0.011704	-0.081672
O4	O	1.053396	0.445215	-0.120823
O5	O	1.063616	-0.011719	0.083713
O6	O	0.928397	0.228990	0.063086
O7	O	1.188598	0.204491	0.065189
Cu8	Cu	1.058496	0.216739	0.079238
Cu9	Cu	1.058516	0.216757	-0.116349
O10	O	1.053379	0.445200	0.044562
C11	C	0.895072	0.227903	-0.019514
C12	C	0.795748	0.224623	-0.019234
C13	C	1.062524	-0.070185	0.006029
C14	C	1.059234	-0.244420	0.020951
C15	C	0.749081	0.223070	0.071050
C16	C	0.655757	0.219963	0.071318
C17	C	0.609101	0.218420	-0.018702
C18	C	0.655775	0.219968	-0.108993
C19	C	0.749098	0.223064	-0.109259
C20	C	0.461260	0.213519	-0.108434
C21	C	0.367931	0.210426	-0.108170
C22	C	0.367920	0.210418	0.072142
C23	C	0.461243	0.213514	0.071877
C24	C	0.507910	0.215065	-0.018415
C25	C	1.221940	0.205593	-0.017599
C26	C	1.321264	0.208873	-0.017885
C27	C	1.054488	0.503681	-0.043141
C28	C	1.057778	0.677916	-0.058070
N29	N	1.058488	0.216726	0.216804
N30	N	1.058531	0.216758	-0.253913
C31	C	1.118382	0.110184	0.277974
C32	C	1.118388	0.110183	0.382077
C33	C	1.058503	0.216732	0.425008
C34	C	0.998602	0.323279	0.363830
C35	C	0.998593	0.323272	0.259729
C36	C	0.998627	0.323290	0.580809
C37	C	0.998637	0.323300	0.684917
C38	C	1.118422	0.110201	0.703157
C39	C	1.118412	0.110193	0.599057
C40	C	1.058513	0.216743	0.537886
H41	H	0.787061	0.224339	0.144354
O42	O	1.059451	-0.233608	-0.162826
H43	H	1.121665	-0.172892	-0.172290
O44	O	0.605464	0.218297	-0.206092
H45	H	0.555913	0.323786	-0.219455
O46	O	0.317577	0.208794	0.169520
H47	H	0.282094	0.100503	0.183138
O48	O	1.057568	-0.332892	0.125701
H49	H	1.055173	-0.460452	0.121383
O50	O	0.511587	0.215184	-0.205825
H51	H	0.561138	0.109693	-0.201104
O52	O	1.182969	-0.004744	0.231672
H53	H	1.224611	-0.078841	0.291702
O54	O	1.183004	-0.004701	0.448056
H55	H	1.224657	-0.078769	0.400712
H56	H	1.167180	0.023440	0.564103
O57	O	1.183025	-0.004737	0.769126
H58	H	1.172964	0.013149	0.848728
O59	O	0.934030	0.438184	0.731230
H60	H	0.892362	0.512249	0.671209
O61	O	0.511555	0.215205	0.168972
H62	H	0.561122	0.109738	0.182333
H63	H	0.787092	0.224332	-0.182778
O64	O	0.934027	0.438215	0.514825
H65	H	0.892394	0.512322	0.562163
H66	H	0.949838	0.410029	0.398790
O67	O	0.933994	0.438173	0.193736
H68	H	0.946457	0.560567	0.203199
O69	O	0.605472	0.218256	0.168730
H70	H	0.630473	0.111954	0.221038
O71	O	0.317603	0.208753	-0.205258
H72	H	0.365732	0.210328	-0.268086
