data_functionalizedCrystal
_audit_creation_method	'MofGen! by Chris Wilmer'
_symmetry_space_group_name_H-M	'P1'
_symmetry_Int_Tables_number	1
_symmetry_cell_setting	triclinic
loop_
_symmetry_equiv_pos_as_xyz
  x,y,z
_cell_length_a	10.723024
_cell_length_b	14.519709
_cell_length_c	9.798715
_cell_angle_alpha	89.995905
_cell_angle_beta	89.996609
_cell_angle_gamma	84.074007
loop_
_atom_site_label
_atom_site_type_symbol
_atom_site_fract_x
_atom_site_fract_y
_atom_site_fract_z
O1	O	1.655978	0.129347	-0.113485
O2	O	2.155978	0.629347	0.386515
O3	O	1.292710	0.141728	-0.113490
O4	O	1.792710	0.641728	0.386510
O5	O	1.483975	0.001349	-0.113475
O6	O	1.983975	0.501349	0.386525
O7	O	1.464712	0.269727	-0.113500
O8	O	1.964712	0.769727	0.386500
O9	O	1.483961	0.001348	0.113507
O10	O	1.983961	0.501348	0.613507
O11	O	1.292695	0.141728	0.113492
O12	O	1.792695	0.641728	0.613492
O13	O	1.655963	0.129347	0.113497
O14	O	2.155963	0.629347	0.613497
Zn15	Zn	1.474327	0.135537	0.149533
Zn16	Zn	1.974327	0.635537	0.649533
Zn17	Zn	1.474346	0.135538	-0.149526
Zn18	Zn	1.974346	0.635538	0.350474
O19	O	1.464698	0.269727	0.113482
O20	O	1.964698	0.769727	0.613482
C21	C	1.246211	0.140827	0.000000
C22	C	1.746211	0.640827	0.500000
C23	C	1.107682	0.138132	-0.000001
C24	C	1.607682	0.638132	0.499999
C25	C	1.031965	0.216681	-0.000009
C26	C	1.531965	0.716681	0.499991
C27	C	0.888788	0.213896	-0.000011
C28	C	1.388788	0.713896	0.499989
C29	C	1.483070	-0.033016	0.000016
C30	C	1.983070	0.466984	0.500016
C31	C	1.480380	-0.135411	0.000017
C32	C	1.980380	0.364589	0.500017
C33	C	1.470476	-0.510357	-0.000019
C34	C	1.970476	-0.010357	0.499981
C35	C	1.473227	-0.406035	-0.000009
C36	C	1.973227	0.093965	0.499991
C37	C	1.475428	-0.322887	0.000000
C38	C	1.975428	0.177113	0.500000
C39	C	1.478179	-0.218559	0.000008
C40	C	1.978179	0.281441	0.500008
C41	C	1.702462	0.130248	0.000003
C42	C	2.202462	0.630248	0.500003
C43	C	1.840991	0.132944	-0.000004
C44	C	2.340991	0.632944	0.499996
C45	C	1.465603	0.304091	-0.000012
C46	C	1.965603	0.804091	0.499988
C47	C	1.468293	0.406486	-0.000022
C48	C	1.968293	0.906486	0.499978
N49	N	1.474323	0.135537	0.353632
N50	N	1.974323	0.635537	0.853632
N51	N	1.474359	0.135532	-0.353626
N52	N	1.974359	0.635532	0.146374
C53	C	1.554633	0.076335	0.421415
C54	C	2.054633	0.576335	0.921415
C55	C	1.554653	0.076332	0.578578
C56	C	2.054653	0.576332	1.078578
H57	H	1.066508	0.068822	-0.000030
H58	H	1.566508	0.568822	0.499970
H59	H	1.623371	0.025649	0.363098
H60	H	2.123371	0.525649	0.863098
C61	C	1.647537	0.007857	0.657315
C62	C	2.147537	0.507857	1.157315
H63	H	1.635359	0.016833	0.752616
H64	H	2.135359	0.516833	1.252616
H65	H	1.730918	0.018241	0.633947
H66	H	2.230918	0.518241	1.133947
H67	H	1.633620	-0.053756	0.633973
H68	H	2.133620	0.446244	1.133973
C69	C	1.381436	0.203995	0.432399
C70	C	1.881436	0.703995	0.932399
H71	H	1.331037	0.241130	0.369492
H72	H	1.831037	0.741130	0.869492
H73	H	1.426601	0.242552	0.488142
H74	H	1.926601	0.742552	0.988142
H75	H	1.329338	0.170529	0.488139
H76	H	1.829338	0.670529	0.988139
C77	C	1.087575	0.310316	-0.000020
C78	C	1.587575	0.810316	0.499980
H79	H	1.176511	0.299904	-0.000027
H80	H	1.676511	0.799904	0.499973
H81	H	1.060260	0.344408	0.079127
H82	H	1.560260	0.844408	0.579127
H83	H	1.060272	0.344401	-0.079190
H84	H	1.560272	0.844401	0.420810
C85	C	0.800905	0.304741	-0.000020
C86	C	1.300905	0.804741	0.499980
H87	H	0.716203	0.290952	-0.000010
H88	H	1.216203	0.790952	0.499990
H89	H	0.816145	0.339660	-0.079174
H90	H	1.316145	0.839660	0.420826
H91	H	0.816134	0.339654	0.079144
H92	H	1.316134	0.839654	0.579144
C93	C	0.928861	0.042093	-0.000002
C94	C	1.428861	0.542093	0.499998
H95	H	0.880300	-0.009057	-0.000009
H96	H	1.380300	0.490943	0.499991
H97	H	0.980246	0.039636	0.079148
H98	H	1.480246	0.539636	0.579148
H99	H	0.980243	0.039643	-0.079169
H100	H	1.480243	0.539643	0.420831
H101	H	1.405604	0.186222	0.588092
H102	H	1.905604	0.686222	1.088092
