data_functionalizedCrystal
_audit_creation_method	'MofGen! by Chris Wilmer'
_symmetry_space_group_name_H-M	'P1'
_symmetry_Int_Tables_number	1
_symmetry_cell_setting	triclinic
loop_
_symmetry_equiv_pos_as_xyz
  x,y,z
_cell_length_a	16.974800
_cell_length_b	15.944551
_cell_length_c	15.455313
_cell_angle_alpha	92.664316
_cell_angle_beta	90.973911
_cell_angle_gamma	83.444312
loop_
_atom_site_label
_atom_site_type_symbol
_atom_site_fract_x
_atom_site_fract_y
_atom_site_fract_z
O1	O	1.049080	0.107075	0.001537
O2	O	1.549080	0.607075	0.501537
O3	O	0.819648	0.119903	-0.014576
O4	O	1.319648	0.619903	0.485424
O5	O	0.940629	-0.008771	-0.006072
O6	O	1.440629	0.491229	0.493928
O7	O	0.928099	0.235749	-0.006967
O8	O	1.428099	0.735749	0.493033
O9	O	0.933711	-0.001443	0.137704
O10	O	1.433711	0.498557	0.637704
O11	O	0.812730	0.127230	0.129200
O12	O	1.312730	0.627230	0.629200
O13	O	1.042162	0.114403	0.145313
O14	O	1.542162	0.614403	0.645313
Cu15	Cu	0.926814	0.121486	0.150384
Cu16	Cu	1.426814	0.621486	0.650384
Cu17	Cu	0.934996	0.112820	-0.019647
Cu18	Cu	1.434996	0.612820	0.480353
O19	O	0.921181	0.243077	0.136809
O20	O	1.421181	0.743077	0.636809
C21	C	0.786830	0.122944	0.055250
C22	C	1.286830	0.622944	0.555250
C23	C	0.699348	0.121081	0.049106
C24	C	1.199348	0.621081	0.549106
C25	C	0.654483	0.124197	0.124594
C26	C	1.154483	0.624197	0.624594
C27	C	0.572286	0.122433	0.118824
C28	C	1.072286	0.622433	0.618824
C29	C	0.534955	0.117557	0.037565
C30	C	1.034955	0.617557	0.537565
C31	C	0.579827	0.114438	-0.037929
C32	C	1.079827	0.614438	0.462071
C33	C	0.662023	0.116197	-0.032158
C34	C	1.162023	0.616197	0.467842
C35	C	0.289530	0.111864	0.011901
C36	C	0.789530	0.611864	0.511901
C37	C	0.207328	0.110108	0.006135
C38	C	0.707328	0.610108	0.506135
C39	C	0.199793	0.118101	0.162889
C40	C	0.699793	0.618101	0.662889
C41	C	0.281990	0.119865	0.168652
C42	C	0.781990	0.619865	0.668652
C43	C	0.326855	0.116741	0.093159
C44	C	0.826855	0.616741	0.593159
N45	N	0.450937	0.115756	0.031665
N46	N	0.950937	0.615756	0.531665
N47	N	0.410873	0.118536	0.099060
N48	N	0.910873	0.618536	0.599060
C49	C	0.936650	-0.036402	0.065780
C50	C	1.436650	0.463598	0.565780
C51	C	0.935090	-0.129652	0.065671
C52	C	1.435090	0.370348	0.565671
C53	C	0.856373	-0.344691	0.060130
C54	C	1.356373	0.155309	0.560130
C55	C	0.889516	-0.402011	0.133588
C56	C	1.389516	0.097989	0.633588
C57	C	0.932269	-0.300385	0.065466
C58	C	1.432269	0.199615	0.565466
C59	C	0.896355	-0.409219	-0.008163
C60	C	1.396355	0.090781	0.491837
C61	C	0.929539	-0.465304	0.065264
C62	C	1.429539	0.034696	0.565264
C63	C	0.965430	-0.356473	0.138983
C64	C	1.465430	0.143527	0.638983
C65	C	0.972261	-0.363678	-0.002831
C66	C	1.472261	0.136322	0.497169
C67	C	1.005458	-0.420980	0.070647
C68	C	1.505458	0.079020	0.570647
C69	C	0.933840	-0.205378	0.065583
C70	C	1.433840	0.294622	0.565583
C71	C	0.927974	-0.560309	0.065154
C72	C	1.427974	-0.060309	0.565154
C73	C	1.074981	0.111361	0.075485
C74	C	1.574981	0.611361	0.575485
C75	C	1.162463	0.113225	0.081623
C76	C	1.662463	0.613225	0.581623
C77	C	0.925161	0.270708	0.064955
C78	C	1.425161	0.770708	0.564955
C79	C	0.926720	0.363957	0.065059
C80	C	1.426720	0.863957	0.565059
N81	N	0.921066	0.127580	0.269976
N82	N	1.421066	0.627580	0.769976
N83	N	0.940751	0.106719	-0.139238
N84	N	1.440751	0.606719	0.360762
C85	C	0.972480	0.072935	0.318984
C86	C	1.472480	0.572935	0.818984
C87	C	0.968140	0.077552	0.409487
C88	C	1.468140	0.577552	0.909487
C89	C	0.912388	0.136819	0.450980
C90	C	1.412388	0.636819	0.950980
C91	C	0.860968	0.191466	0.401965
C92	C	1.360968	0.691466	0.901965
C93	C	0.865305	0.186845	0.311463
C94	C	1.365305	0.686845	0.811463
C95	C	0.893668	0.156744	0.721245
C96	C	1.393668	0.656744	1.221245
C97	C	0.889336	0.161364	0.811753
C98	C	1.389336	0.661364	1.311753
C99	C	0.996508	0.047448	0.819269
C100	C	1.496508	0.547448	1.319269
C101	C	1.000843	0.042835	0.728766
C102	C	1.500843	0.542835	1.228766
C103	C	0.949420	0.097480	0.679759
C104	C	1.449420	0.597480	1.179759
N105	N	0.907952	0.141541	0.543488
N106	N	1.407952	0.641541	1.043488
N107	N	0.953853	0.092753	0.587252
N108	N	1.453853	0.592753	1.087252
H109	H	0.163255	0.120643	0.224351
H110	H	0.663255	0.620643	0.724351
H111	H	0.815570	0.239720	0.435753
H112	H	1.315570	0.739720	0.935753
F113	F	0.694204	0.129392	0.211082
F114	F	1.194204	0.629392	0.711082
H115	H	1.007219	-0.346529	-0.060514
H116	H	1.507219	0.153471	0.439486
H117	H	0.994617	-0.333351	0.201234
H118	H	1.494617	0.166649	0.701234
H119	H	0.535761	0.124957	0.180294
H120	H	1.035761	0.624957	0.680294
F121	F	1.087869	-0.464130	0.076485
F122	F	1.587869	0.035870	0.576485
H123	H	1.010005	0.033056	0.449389
H124	H	1.510005	0.533056	0.949389
H125	H	0.823437	0.231341	0.271561
H126	H	1.323437	0.731341	0.771561
H127	H	1.017883	0.024678	0.285207
H128	H	1.517883	0.524678	0.785207
F129	F	0.321713	0.125058	0.255139
F130	F	0.821713	0.625058	0.755139
H131	H	1.046241	-0.005424	0.694985
H132	H	1.546241	0.494576	1.194985
H133	H	0.176936	0.106140	-0.060039
H134	H	0.676936	0.606140	0.439961
F135	F	0.838942	0.214903	0.669095
F136	F	1.338942	0.714903	1.169095
H137	H	0.326050	0.109317	-0.049571
H138	H	0.826050	0.609317	0.450429
F139	F	0.709773	0.112876	-0.112502
F140	F	1.209773	0.612876	0.387498
F141	F	0.540098	0.109223	-0.124411
F142	F	1.040098	0.609223	0.375589
F143	F	0.774027	-0.301341	0.054435
F144	F	1.274027	0.198659	0.554435
H145	H	0.854531	-0.419138	0.191265
H146	H	1.354531	0.080862	0.691265
H147	H	1.038373	0.002958	0.859179
H148	H	1.538373	0.502958	1.359179
H149	H	0.867128	-0.432424	-0.070354
H150	H	1.367128	0.067576	0.429646
F151	F	0.829994	0.224449	0.855907
F152	F	1.329994	0.724449	1.355907
