data_functionalizedCrystal
_audit_creation_method	'MofGen! by Chris Wilmer'
_symmetry_space_group_name_H-M	'P1'
_symmetry_Int_Tables_number	1
_symmetry_cell_setting	triclinic
loop_
_symmetry_equiv_pos_as_xyz
  x,y,z
_cell_length_a	12.759401
_cell_length_b	10.686285
_cell_length_c	12.759393
_cell_angle_alpha	94.398003
_cell_angle_beta	90.018496
_cell_angle_gamma	85.631983
loop_
_atom_site_label
_atom_site_type_symbol
_atom_site_fract_x
_atom_site_fract_y
_atom_site_fract_z
Zn1	Zn	1.638392	-0.502271	0.561964
Zn2	Zn	1.651790	-0.713314	0.372831
Zn3	Zn	1.462698	-0.502337	0.386299
Zn4	Zn	1.476180	-0.713217	0.548479
O5	O	1.557265	-0.607785	0.467393
O6	O	1.787191	-0.530279	0.536882
O7	O	1.626671	-0.685396	0.227592
O8	O	1.474756	-0.325751	0.420881
O9	O	1.797034	-0.685332	0.397927
O10	O	1.603837	-0.325703	0.549942
O11	O	1.487747	-0.530392	0.237487
O12	O	1.317465	-0.530298	0.407805
O13	O	1.497733	-0.685167	0.697293
O14	O	1.327370	-0.685231	0.526958
O15	O	1.616910	-0.530185	0.707200
O16	O	1.639744	-0.889878	0.384851
O17	O	1.510724	-0.889807	0.513898
C18	C	1.284296	-0.607762	0.467380
C19	C	1.167521	-0.607782	0.467398
C20	C	1.117852	-0.688585	0.529321
C21	C	1.008129	-0.688601	0.529332
C22	C	0.997753	-0.527008	0.405486
C23	C	1.107474	-0.526986	0.405482
C24	C	1.123842	-0.781883	0.600819
C25	C	1.014119	-0.781899	0.600829
C26	C	1.578179	-0.935627	0.446473
C27	C	1.587222	-1.075879	0.437558
C28	C	1.831300	-0.607809	0.467406
C29	C	1.948077	-0.607819	0.467412
C30	C	1.557331	-0.607658	0.741435
C31	C	1.557358	-0.607603	0.858215
C32	C	1.536298	-0.278662	0.488418
C33	C	1.527363	-0.138410	0.497378
C34	C	1.557255	-0.607821	0.194423
C35	C	1.557407	-0.607519	0.077666
C36	C	1.619422	-0.526897	0.918238
C37	C	1.619445	-0.526851	1.027965
C38	C	1.495336	-0.688230	1.017635
C39	C	1.495309	-0.688268	0.907911
C40	C	1.691079	-0.433730	0.924202
C41	C	1.691101	-0.433684	1.033929
H42	H	1.163793	-0.874665	0.565620
H43	H	1.444767	-0.753982	0.859044
H44	H	0.990575	-0.879603	0.572669
C45	C	1.427090	-0.776963	1.072304
C46	C	1.427113	-0.776923	1.192996
C47	C	1.358865	-0.865659	1.247662
C48	C	1.290595	-0.954436	1.181634
C49	C	1.290570	-0.954479	1.060935
C50	C	1.358817	-0.865743	1.006269
H51	H	1.477652	-0.711202	1.241880
H52	H	1.358885	-0.865627	1.337012
H53	H	1.240075	-1.020124	1.222101
H54	H	1.240030	-1.020200	1.012051
H55	H	1.358798	-0.865775	0.916919
C56	C	1.161869	-0.746670	0.713032
C57	C	1.137992	-0.828722	0.802893
C58	C	1.176019	-0.793507	0.915103
C59	C	1.237923	-0.676241	0.937451
C60	C	1.261804	-0.594181	0.847587
C61	C	1.223777	-0.629396	0.735378
H62	H	1.092163	-0.915536	0.786352
H63	H	1.158340	-0.854254	0.981625
H64	H	1.266074	-0.650173	1.020515
H65	H	1.307632	-0.507367	0.864129
H66	H	1.241455	-0.568649	0.668855
H67	H	1.656047	-0.340834	1.073896
C68	C	0.931701	-0.438138	0.337379
C69	C	0.947386	-0.448254	0.217282
C70	C	0.881337	-0.359382	0.149172
C71	C	0.799603	-0.260393	0.201160
C72	C	0.783913	-0.250273	0.321263
C73	C	0.849962	-0.339145	0.389373
H74	H	1.007894	-0.521535	0.178791
H75	H	0.892952	-0.366874	0.060263
H76	H	0.750709	-0.194605	0.150741
H77	H	0.723405	-0.176992	0.359753
H78	H	0.838348	-0.331653	0.478282
H79	H	1.663058	-0.336009	0.900676
C80	C	1.448787	-1.065791	0.575789
C81	C	1.330510	-1.083912	0.565973
C82	C	1.251933	-1.011283	0.644386
C83	C	1.291633	-0.920534	0.732615
C84	C	1.409917	-0.902409	0.742435
C85	C	1.488494	-0.975038	0.664022
H86	H	1.301116	-1.151093	0.500657
H87	H	1.164372	-1.024701	0.637116
H88	H	1.233466	-0.866770	0.790661
H89	H	1.439310	-0.835228	0.807751
H90	H	1.576055	-0.961620	0.671292
H91	H	0.977889	-0.747016	0.680405
C92	C	1.798505	-0.481021	0.875206
C93	C	1.858483	-0.394518	0.809444
C94	C	1.965913	-0.441803	0.760453
C95	C	2.013363	-0.575592	0.777223
C96	C	1.953384	-0.662104	0.842989
C97	C	1.845955	-0.614818	0.891980
H98	H	1.823358	-0.295472	0.797027
H99	H	2.010313	-0.377760	0.711769
H100	H	2.092889	-0.610595	0.740957
H101	H	1.988510	-0.761149	0.855406
H102	H	1.801555	-0.678861	0.940664
H103	H	1.645384	-1.129647	0.379512
H104	H	1.774146	-0.459858	1.062039
H105	H	1.147909	-0.461181	0.355066
