data_functionalizedCrystal
_audit_creation_method	'MofGen! by Chris Wilmer'
_symmetry_space_group_name_H-M	'P1'
_symmetry_Int_Tables_number	1
_symmetry_cell_setting	triclinic
loop_
_symmetry_equiv_pos_as_xyz
  x,y,z
_cell_length_a	17.077404
_cell_length_b	13.032721
_cell_length_c	17.077396
_cell_angle_alpha	97.151797
_cell_angle_beta	89.982940
_cell_angle_gamma	97.204757
loop_
_atom_site_label
_atom_site_type_symbol
_atom_site_fract_x
_atom_site_fract_y
_atom_site_fract_z
Zn1	Zn	1.160356	-0.416017	-0.483522
Zn2	Zn	1.143599	-0.590788	-0.368925
Zn3	Zn	1.029089	-0.416059	-0.352273
Zn4	Zn	1.012392	-0.590721	-0.500142
O5	O	1.086359	-0.503396	-0.426215
O6	O	1.267979	-0.439212	-0.468333
O7	O	1.128384	-0.567655	-0.256873
O8	O	1.060503	-0.269815	-0.355759
O9	O	1.255668	-0.567615	-0.384139
O10	O	1.156944	-0.269784	-0.452187
O11	O	1.044254	-0.439282	-0.244640
O12	O	0.917029	-0.439218	-0.371876
O13	O	1.032045	-0.567501	-0.607780
O14	O	0.904761	-0.567541	-0.480514
O15	O	1.140753	-0.439147	-0.595569
O16	O	1.112194	-0.737017	-0.400255
O17	O	1.015797	-0.736968	-0.496660
C18	C	0.882413	-0.503377	-0.426192
C19	C	0.795162	-0.503394	-0.426203
C20	C	1.060386	-0.774911	-0.452085
C21	C	1.049347	-0.891066	-0.463179
C22	C	0.747795	-0.570313	-0.482700
C23	C	0.665814	-0.570315	-0.482713
C24	C	0.631201	-0.503403	-0.426224
C25	C	0.678575	-0.436477	-0.369724
C26	C	0.760554	-0.436470	-0.369716
C27	C	0.507703	-0.436498	-0.369745
C28	C	0.425717	-0.436506	-0.369753
C29	C	0.412963	-0.570343	-0.482742
C30	C	0.494942	-0.570336	-0.482734
C31	C	0.542310	-0.503411	-0.426232
C32	C	1.092162	-0.942841	-0.420461
C33	C	1.080754	-1.062894	-0.431926
C34	C	1.291101	-0.503416	-0.426240
C35	C	1.378350	-0.503424	-0.426250
C36	C	1.086406	-0.503312	-0.630952
C37	C	1.086426	-0.503276	-0.718198
C38	C	1.112455	-0.230821	-0.400262
C39	C	1.123575	-0.114666	-0.389202
C40	C	1.130315	-0.569997	-1.100374
C41	C	1.130292	-0.570028	-1.018396
C42	C	1.086484	-0.503202	-0.971040
C43	C	1.042688	-0.436348	-1.005666
C44	C	1.042707	-0.436324	-1.087643
C45	C	1.042654	-0.436402	-0.834801
C46	C	1.042636	-0.436425	-0.752819
C47	C	1.130239	-0.570106	-0.765554
C48	C	1.130258	-0.570082	-0.847531
C49	C	1.086463	-0.503227	-0.882151
C50	C	1.086365	-0.503405	-0.222268
C51	C	1.086525	-0.503147	-0.134994
H52	H	0.775970	-0.624804	-0.528697
F53	F	0.810966	-0.365244	-0.309585
H54	H	1.165935	-0.624492	-0.886086
H55	H	1.137268	-0.898292	-0.375404
H56	H	0.374392	-0.624832	-0.528750
H57	H	1.165994	-0.624410	-1.138925
F58	F	0.996008	-0.365303	-0.702421
H59	H	0.397539	-0.382008	-0.323763
F60	F	0.615406	-0.641539	-0.542845
F61	F	1.182536	-1.056446	-0.330304
H62	H	1.006991	-0.381962	-0.862986
H63	H	1.035651	-1.107441	-0.476991
F64	F	1.176846	-0.641262	-0.728708
F65	F	1.176901	-0.641178	-0.981554
H66	H	1.004248	-0.935617	-0.508241
F67	F	0.996072	-0.365216	-0.955264
H68	H	0.546268	-0.381991	-0.323742
H69	H	0.523121	-0.624827	-0.528728
F70	F	0.641735	-0.365258	-0.309609
F71	F	0.996103	-0.365168	-1.124488
