data_functionalizedCrystal
_audit_creation_method	'MofGen! by Chris Wilmer'
_symmetry_space_group_name_H-M	'P1'
_symmetry_Int_Tables_number	1
_symmetry_cell_setting	triclinic
loop_
_symmetry_equiv_pos_as_xyz
  x,y,z
_cell_length_a	18.215407
_cell_length_b	17.077402
_cell_length_c	17.077396
_cell_angle_alpha	90.029086
_cell_angle_beta	89.982723
_cell_angle_gamma	89.971304
loop_
_atom_site_label
_atom_site_type_symbol
_atom_site_fract_x
_atom_site_fract_y
_atom_site_fract_z
Zn1	Zn	1.125039	0.312562	-0.443793
Zn2	Zn	1.124934	0.443837	-0.312525
Zn3	Zn	1.001971	0.312583	-0.312546
Zn4	Zn	1.001923	0.443784	-0.443754
O5	O	1.063467	0.378191	-0.378155
O6	O	1.228009	0.329989	-0.426388
O7	O	1.108599	0.426457	-0.202681
O8	O	1.018361	0.202733	-0.329981
O9	O	1.227932	0.426436	-0.329946
O10	O	1.108778	0.202718	-0.426407
O11	O	1.018259	0.330025	-0.202696
O12	O	0.898981	0.329974	-0.329943
O13	O	1.018279	0.426346	-0.553606
O14	O	0.898946	0.426366	-0.426341
O15	O	1.108731	0.329938	-0.553635
O16	O	1.108552	0.553677	-0.329908
O17	O	1.018177	0.553638	-0.426322
C18	C	0.872261	0.378167	-0.378141
C19	C	0.790462	0.378176	-0.378154
C20	C	0.602307	0.328059	-0.428450
C21	C	0.525448	0.328066	-0.428453
C22	C	0.525379	0.428345	-0.327873
C23	C	0.602236	0.428334	-0.327867
C24	C	0.640698	0.378192	-0.378160
C25	C	0.486982	0.378210	-0.378169
C26	C	0.403648	0.378218	-0.378171
C27	C	0.724037	0.378183	-0.378157
C28	C	1.063368	0.582139	-0.378126
C29	C	1.063393	0.669389	-0.378140
C30	C	1.110442	0.710303	-0.428388
C31	C	1.110463	0.792284	-0.428403
C32	C	1.063437	0.833348	-0.378164
C33	C	1.016383	0.792428	-0.327913
C34	C	1.016359	0.710449	-0.327903
C35	C	1.016436	0.963298	-0.327936
C36	C	1.016461	1.045283	-0.327945
C37	C	1.110540	1.045133	-0.428435
C38	C	1.110516	0.963154	-0.428425
C39	C	1.063463	0.922239	-0.378173
C40	C	1.255420	0.378216	-0.378169
C41	C	1.337219	0.378227	-0.378175
C42	C	1.063511	0.378133	-0.582899
C43	C	1.063530	0.378109	-0.670149
C44	C	1.063554	1.173447	-0.378194
C45	C	1.063510	1.086197	-0.378193
C46	C	1.110630	0.327905	-0.711155
C47	C	1.110639	0.327879	-0.793135
C48	C	1.063551	0.378061	-0.834108
C49	C	1.016446	0.428267	-0.793096
C50	C	1.016434	0.428289	-0.711117
C51	C	1.016475	0.428220	-0.963966
C52	C	1.016488	0.428200	-1.045951
C53	C	1.110681	0.327810	-1.045985
C54	C	1.110669	0.327831	-0.964006
C55	C	1.063564	0.378039	-0.922999
C56	C	1.063465	0.378192	-0.174207
C57	C	1.063588	0.377996	-0.086957
H58	H	0.633620	0.287228	-0.469399
H59	H	1.148978	0.287043	-0.677801
O60	O	0.965624	0.482426	-0.666883
H61	H	0.932882	0.517318	-0.709145
O62	O	0.483892	0.482425	-0.273632
H63	H	0.498631	0.544047	-0.286979
O64	O	0.965689	0.482316	-1.090140
H65	H	0.928285	0.447154	-1.127493
O66	O	0.643653	0.482406	-0.273621
H67	H	0.603997	0.517282	-0.238657
H68	H	0.978046	0.677137	-0.286987
O69	O	1.161287	1.089255	-0.482645
H70	H	1.153398	1.153158	-0.474222
O71	O	1.161169	0.666013	-0.482568
H72	H	1.193886	0.708240	-0.517513
H73	H	0.494193	0.287241	-0.469403
H74	H	1.149034	0.286928	-1.079376
H75	H	0.978165	1.078715	-0.287039
O76	O	0.965692	0.919164	-0.273731
H77	H	0.933003	0.961489	-0.238791
H78	H	1.148780	0.825593	-0.469314
O79	O	0.965672	0.836721	-0.273718
H80	H	0.928226	0.874093	-0.308814
O81	O	1.161252	0.918858	-0.482592
H82	H	1.193976	0.961079	-0.517536
H83	H	1.148995	0.287000	-0.826519
O84	O	1.161459	0.273712	-0.919808
H85	H	1.194212	0.238792	-0.962093
H86	H	0.978106	0.469092	-0.930582
O87	O	0.965650	0.482387	-0.837285
H88	H	0.998567	0.522326	-0.874626
