data_functionalizedCrystal
_audit_creation_method	'MofGen! by Chris Wilmer'
_symmetry_space_group_name_H-M	'P1'
_symmetry_Int_Tables_number	1
_symmetry_cell_setting	triclinic
loop_
_symmetry_equiv_pos_as_xyz
  x,y,z
_cell_length_a	13.033409
_cell_length_b	21.295417
_cell_length_c	13.033429
_cell_angle_alpha	97.223875
_cell_angle_beta	76.685261
_cell_angle_gamma	82.860986
loop_
_atom_site_label
_atom_site_type_symbol
_atom_site_fract_x
_atom_site_fract_y
_atom_site_fract_z
Zn1	Zn	1.547368	-0.338688	0.393901
Zn2	Zn	2.047368	0.161312	0.893901
Zn3	Zn	1.569764	-0.459274	0.216285
Zn4	Zn	2.069764	0.040726	0.716285
Zn5	Zn	1.392306	-0.338730	0.238903
Zn6	Zn	1.892306	0.161270	0.738903
Zn7	Zn	1.369711	-0.428620	0.416447
Zn8	Zn	1.869711	0.071380	0.916447
O9	O	1.469787	-0.391328	0.316384
O10	O	1.969787	0.108672	0.816384
O11	O	1.698956	-0.367495	0.351439
O12	O	2.198956	0.132505	0.851439
O13	O	1.565053	-0.456131	0.070649
O14	O	2.065053	0.043869	0.570649
O15	O	1.412958	-0.250639	0.259494
O16	O	1.912958	0.249361	0.759494
O17	O	1.715410	-0.456089	0.220945
O18	O	2.215410	0.043911	0.720945
O19	O	1.526882	-0.250608	0.373370
O20	O	2.026882	0.249392	0.873370
O21	O	1.434675	-0.367567	0.087266
O22	O	1.934675	0.132433	0.587266
O23	O	1.240692	-0.337843	0.281355
O24	O	1.740692	0.162157	0.781355
O25	O	1.374449	-0.403844	0.562092
O26	O	1.874449	0.096156	1.062092
O27	O	1.224091	-0.403885	0.411796
O28	O	1.724091	0.096115	0.911796
O29	O	1.504973	-0.337771	0.545528
O30	O	2.004973	0.162229	1.045528
O31	O	1.543144	-0.543293	0.242806
O32	O	2.043144	-0.043293	0.742806
O33	O	1.396165	-0.520772	0.389865
O34	O	1.896165	-0.020772	0.889865
C35	C	1.193857	-0.367543	0.351477
C36	C	1.693857	0.132457	0.851477
C37	C	1.075809	-0.357380	0.366516
C38	C	1.575809	0.142620	0.866516
C39	C	0.909322	-0.386131	0.324098
C40	C	1.409322	0.113869	0.824098
C41	C	1.031331	-0.396637	0.308550
C42	C	1.531331	0.103363	0.808550
C43	C	1.469659	-0.554873	0.316347
C44	C	1.969659	-0.054873	0.816347
C45	C	1.469697	-0.624843	0.316355
C46	C	1.969697	-0.124843	0.816355
C47	C	1.528972	-0.657629	0.375704
C48	C	2.028972	-0.157629	0.875704
C49	C	1.529006	-0.723372	0.375725
C50	C	2.029006	-0.223372	0.875725
C51	C	1.469778	-0.756330	0.316377
C52	C	1.969778	-0.256330	0.816377
C53	C	1.410491	-0.723536	0.257025
C54	C	1.910491	-0.223536	0.757025
C55	C	1.410450	-0.657792	0.257014
C56	C	1.910450	-0.157792	0.757014
N57	N	1.473554	-0.866923	0.224439
N58	N	1.973554	-0.366923	0.724439
N59	N	1.473598	-0.929377	0.224452
N60	N	1.973598	-0.429377	0.724452
C61	C	1.469896	-0.954411	0.316409
C62	C	1.969896	-0.454411	0.816409
N63	N	1.466169	-0.914634	0.408353
N64	N	1.966169	-0.414634	0.908353
N65	N	1.466129	-0.852175	0.408338
N66	N	1.966129	-0.352175	0.908338
C67	C	1.469816	-0.827618	0.316383
C68	C	1.969816	-0.327618	0.816383
C69	C	1.529211	-1.058483	0.375787
C70	C	2.029211	-0.558483	0.875787
C71	C	1.529238	-1.124227	0.375811
C72	C	2.029238	-0.624227	0.875811
C73	C	1.410730	-1.124391	0.257101
C74	C	1.910730	-0.624391	0.757101
C75	C	1.410696	-1.058647	0.257087
C76	C	1.910696	-0.558647	0.757087
C77	C	1.469943	-1.025698	0.316428
C78	C	1.969943	-0.525698	0.816428
C79	C	1.746796	-0.415207	0.281154
C80	C	2.246796	0.084793	0.781154
C81	C	1.864840	-0.425382	0.266141
C82	C	2.364840	0.074618	0.766141
C83	C	1.434692	-0.367383	0.593427
C84	C	1.934692	0.132617	1.093427
C85	C	1.419737	-0.357179	0.711486
C86	C	1.919737	0.142821	1.211486
C87	C	1.469942	-0.227145	0.316440
C88	C	1.969942	0.272855	0.816440
C89	C	1.470008	-0.157180	0.316464
C90	C	1.970008	0.342820	0.816464
C91	C	1.504807	-0.415140	0.040411
C92	C	2.004807	0.084860	0.540411
C93	C	1.519968	-0.425184	-0.077674
C94	C	2.019968	0.074816	0.422326
C95	C	1.462128	-0.385913	0.877914
C96	C	1.962128	0.114087	1.377914
C97	C	1.477585	-0.396456	0.755894
C98	C	1.977585	0.103544	1.255894
H99	H	1.577211	-0.630803	0.424026
H100	H	2.077211	-0.130803	0.924026
H101	H	1.362434	-1.031952	0.208754
H102	H	1.862434	-0.531952	0.708754
H103	H	0.917083	-0.466768	0.205016
H104	H	1.417083	0.033232	0.705016
H105	H	1.401169	-0.344484	0.930227
H106	H	1.901169	0.155516	1.430227
C107	C	1.345574	-1.160636	0.191826
C108	C	1.845574	-0.660636	0.691826
H109	H	1.354089	-1.204487	0.200329
H110	H	1.854089	-0.704487	0.700329
H111	H	1.272238	-1.142405	0.216390
H112	H	1.772238	-0.642405	0.716390
H113	H	1.370210	-1.157386	0.118480
H114	H	1.870210	-0.657386	0.618480
C115	C	1.559944	-0.452425	0.685237
C116	C	2.059944	0.047575	1.185237
H117	H	1.559523	-0.452172	0.612496
H118	H	2.059523	0.047828	1.112496
H119	H	1.629030	-0.447812	0.694292
H120	H	2.129030	0.052188	1.194292
H121	H	1.542070	-0.491825	0.705324
H122	H	2.042070	0.008175	1.205324
H123	H	1.577450	-1.031654	0.424110
H124	H	2.077450	-0.531654	0.924110
H125	H	1.358775	-0.315747	0.763794
H126	H	1.858775	0.184253	1.263794
C127	C	1.345249	-0.621724	0.191726
C128	C	1.845249	-0.121724	0.691726
H129	H	1.353704	-0.577850	0.200224
H130	H	1.853704	-0.077850	0.700224
H131	H	1.369888	-0.640019	0.118391
H132	H	1.869888	-0.140019	0.618391
H133	H	1.271919	-0.625042	0.216304
H134	H	1.771919	-0.125042	0.716304
C135	C	1.602326	-0.481151	0.851670
C136	C	2.102326	0.018849	1.351670
H137	H	1.636614	-0.504420	0.895356
H138	H	2.136614	-0.004420	1.395356
H139	H	1.567118	-0.508787	0.813550
H140	H	2.067118	-0.008787	1.313550
H141	H	1.654071	-0.464770	0.802525
H142	H	2.154071	0.035230	1.302525
C143	C	0.838755	-0.330225	0.406680
C144	C	1.338755	0.169775	0.906680
H145	H	0.766009	-0.330495	0.406290
H146	H	1.266009	0.169505	0.906290
H147	H	0.847855	-0.334885	0.475723
H148	H	1.347855	0.165115	0.975723
H149	H	0.858858	-0.290798	0.388958
H150	H	1.358858	0.209202	0.888958
C151	C	1.101895	-0.452545	0.225961
C152	C	1.601895	0.047455	0.725961
H153	H	1.174642	-0.452269	0.226340
H154	H	1.674642	0.047731	0.726340
H155	H	1.081793	-0.491970	0.243668
H156	H	1.581793	0.008030	0.743668
H157	H	1.092796	-0.447876	0.156916
H158	H	1.592796	0.052124	0.656916
H159	H	1.023569	-0.315996	0.427653
H160	H	1.523569	0.184004	0.927653
H161	H	1.577264	-0.750070	0.424068
H162	H	2.077264	-0.250070	0.924068
C163	C	1.345345	-0.759787	0.191742
C164	C	1.845345	-0.259787	0.691742
H165	H	1.353867	-0.803639	0.200240
H166	H	1.853867	-0.303639	0.700240
H167	H	1.272006	-0.741561	0.216303
H168	H	1.772006	-0.241561	0.716303
H169	H	1.369984	-0.756533	0.118399
H170	H	1.869984	-0.256533	0.618399
C171	C	1.594444	-1.160292	0.441098
C172	C	2.094444	-0.660292	0.941098
H173	H	1.629728	-1.131251	0.476427
H174	H	2.129728	-0.631251	0.976427
H175	H	1.547943	-1.178447	0.492526
H176	H	2.047943	-0.678447	0.992526
H177	H	1.645909	-1.193423	0.394609
H178	H	2.145909	-0.693423	0.894609
