data_functionalizedCrystal
_audit_creation_method	'MofGen! by Chris Wilmer'
_symmetry_space_group_name_H-M	'P1'
_symmetry_Int_Tables_number	1
_symmetry_cell_setting	triclinic
loop_
_symmetry_equiv_pos_as_xyz
  x,y,z
_cell_length_a	10.908937
_cell_length_b	11.792254
_cell_length_c	9.482900
_cell_angle_alpha	99.398945
_cell_angle_beta	83.036371
_cell_angle_gamma	72.142277
loop_
_atom_site_label
_atom_site_type_symbol
_atom_site_fract_x
_atom_site_fract_y
_atom_site_fract_z
O1	O	1.722481	-0.196576	-0.120935
O2	O	1.349240	-0.108066	-0.120930
O3	O	1.544908	-0.319246	-0.120922
O4	O	1.526814	0.014604	-0.120943
O5	O	1.505165	-0.276208	0.120869
O6	O	1.309497	-0.065028	0.120861
O7	O	1.682738	-0.153539	0.120856
Cu8	Cu	1.492488	-0.105354	0.142936
Cu9	Cu	1.539490	-0.156250	-0.143010
O10	O	1.487070	0.057641	0.120848
C11	C	1.523897	-0.339796	-0.000027
C12	C	1.520484	-0.465147	-0.000029
C13	C	1.281585	-0.078275	-0.000033
C14	C	1.139206	-0.053642	-0.000031
C15	C	0.942416	-0.118080	-0.000053
C16	C	1.089569	-0.143539	-0.000034
C17	C	1.517713	-0.566946	-0.000034
C18	C	1.514248	-0.694662	-0.000047
C19	C	1.750393	-0.183329	-0.000044
C20	C	1.892774	-0.207964	-0.000056
C21	C	1.508082	0.078192	-0.000050
C22	C	1.511496	0.203541	-0.000058
N23	N	1.459440	-0.069558	0.344055
N24	N	1.572549	-0.192057	-0.344129
C25	C	1.529733	-0.145697	0.416257
C26	C	1.502245	-0.115907	0.583673
H27	H	1.156008	-0.239347	-0.000031
H28	H	1.653080	-0.279305	0.593750
O29	O	1.059865	0.060574	-0.000244
C30	C	0.912463	0.187475	-0.125591
C31	C	1.002246	0.058065	-0.125512
H32	H	0.865875	0.185493	-0.226874
H33	H	0.832382	0.221583	-0.024482
H34	H	0.972747	0.251175	-0.125516
H35	H	0.942072	-0.005727	-0.125638
H36	H	1.082330	0.024056	-0.226611
H37	H	0.959216	-0.303766	-0.000053
O38	O	1.625675	-0.249879	0.342185
C39	C	1.706593	-0.469421	0.295288
C40	C	1.597830	-0.351540	0.379253
H41	H	1.684133	-0.551643	0.325249
H42	H	1.711620	-0.474966	0.173461
H43	H	1.804607	-0.468911	0.325070
H44	H	1.499759	-0.351969	0.349593
H45	H	1.592918	-0.346040	0.501059
O46	O	1.406076	-0.011799	0.657547
C47	C	1.237205	0.171216	0.641853
C48	C	1.346053	0.053348	0.558010
H49	H	1.188663	0.223933	0.561414
H50	H	1.160903	0.147228	0.713091
H51	H	1.281536	0.229792	0.713142
H52	H	1.301840	-0.005284	0.486642
H53	H	1.422339	0.077423	0.486864
O54	O	0.863064	-0.003873	-0.000262
C55	C	0.715648	0.123024	-0.125599
C56	C	0.805442	-0.006384	-0.125527
H57	H	0.669057	0.121041	-0.226881
H58	H	0.635569	0.157124	-0.024489
H59	H	0.775923	0.186731	-0.125522
H60	H	0.745277	-0.070183	-0.125656
H61	H	0.885524	-0.040384	-0.226629
O62	O	1.363196	0.034428	0.418095
C63	C	1.133174	0.151655	0.464936
C64	C	1.242041	0.033824	0.381026
H65	H	1.035199	0.151218	0.434974
H66	H	1.128008	0.157161	0.586771
H67	H	1.155747	0.233869	0.435107
H68	H	1.219546	-0.048456	0.410733
H69	H	1.247182	0.028426	0.259211
