data_functionalizedCrystal
_audit_creation_method	'MofGen! by Chris Wilmer'
_symmetry_space_group_name_H-M	'P1'
_symmetry_Int_Tables_number	1
_symmetry_cell_setting	triclinic
loop_
_symmetry_equiv_pos_as_xyz
  x,y,z
_cell_length_a	14.044220
_cell_length_b	13.101039
_cell_length_c	14.044220
_cell_angle_alpha	93.667477
_cell_angle_beta	86.811122
_cell_angle_gamma	93.659868
loop_
_atom_site_label
_atom_site_type_symbol
_atom_site_fract_x
_atom_site_fract_y
_atom_site_fract_z
O1	O	1.281968	0.085109	-0.225348
O2	O	1.615302	0.418442	0.107985
O3	O	1.948635	0.751776	0.441318
O4	O	1.005298	0.085135	-0.217041
O5	O	1.338632	0.418468	0.116292
O6	O	1.671965	0.751802	0.449626
O7	O	1.139480	0.085112	-0.082860
O8	O	1.472813	0.418446	0.250474
O9	O	1.806147	0.751779	0.583807
O10	O	1.147787	0.085132	-0.359530
O11	O	1.481120	0.418465	-0.026197
O12	O	1.814454	0.751798	0.307137
O13	O	1.129854	-0.085316	-0.092504
O14	O	1.463188	0.248017	0.240829
O15	O	1.796521	0.581351	0.574162
O16	O	0.995673	-0.085293	-0.226686
O17	O	1.329006	0.248040	0.106647
O18	O	1.662339	0.581373	0.439981
O19	O	1.272343	-0.085319	-0.234993
O20	O	1.605676	0.248014	0.098340
O21	O	1.939009	0.581348	0.431674
Zn22	Zn	1.132479	-0.112365	-0.232371
Zn23	Zn	1.465813	0.220968	0.100963
Zn24	Zn	1.799146	0.554301	0.434296
Zn25	Zn	1.145162	0.112181	-0.219663
Zn26	Zn	1.478495	0.445515	0.113670
Zn27	Zn	1.811828	0.778848	0.447003
O28	O	1.138161	-0.085296	-0.369175
O29	O	1.471494	0.248037	-0.035841
O30	O	1.804828	0.581370	0.297492
C31	C	0.964864	-0.000076	-0.218228
C32	C	1.298197	0.333257	0.115106
C33	C	1.631531	0.666591	0.448439
C34	C	0.858722	-0.000066	-0.207383
C35	C	1.192055	0.333267	0.125951
C36	C	1.525388	0.666600	0.459284
N37	N	1.123831	-0.265612	-0.241043
N38	N	1.457164	0.067721	0.092290
N39	N	1.790497	0.401054	0.425623
C40	C	0.664383	-0.000088	-0.187558
C41	C	0.997716	0.333245	0.145776
C42	C	1.331049	0.666579	0.479109
C43	C	0.613253	-0.000087	-0.264472
C44	C	0.946586	0.333246	0.068861
C45	C	1.279920	0.666580	0.402195
C46	C	0.505116	-0.000099	-0.253441
C47	C	0.838449	0.333234	0.079892
C48	C	1.171783	0.666568	0.413226
C49	C	0.772529	-0.000076	-0.198587
C50	C	1.105863	0.333257	0.134746
C51	C	1.439196	0.666591	0.468080
C52	C	1.112065	-0.474653	-0.252851
C53	C	1.445398	-0.141320	0.080482
C54	C	1.778731	0.192014	0.413815
C55	C	1.165580	-0.525538	-0.199179
C56	C	1.498914	-0.192204	0.134154
C57	C	1.832247	0.141129	0.467488
C58	C	1.159034	-0.641855	-0.205749
C59	C	1.492367	-0.308522	0.127584
C60	C	1.825700	0.024812	0.460918
C61	C	1.118610	-0.358325	-0.246282
C62	C	1.451944	-0.024992	0.087051
C63	C	1.785277	0.308342	0.420384
C64	C	1.312777	-0.000106	-0.233806
C65	C	1.646111	0.333227	0.099527
C66	C	1.979444	0.666561	0.432860
C67	C	1.418920	-0.000109	-0.244651
C68	C	1.752253	0.333225	0.088682
C69	C	2.085587	0.666558	0.422016
C70	C	1.131031	-0.000102	-0.052060
C71	C	1.464365	0.333231	0.281273
C72	C	1.797698	0.666565	0.614607
C73	C	1.120187	-0.000102	0.054083
C74	C	1.453520	0.333231	0.387416
C75	C	1.786854	0.666565	0.720749
N76	N	1.153817	0.265428	-0.210984
N77	N	1.487151	0.598762	0.122349
N78	N	1.820484	0.932095	0.455683
C79	C	1.146610	-0.000080	-0.399974
C80	C	1.479943	0.333253	-0.066641
C81	C	1.813276	0.666587	0.266693
C82	C	1.157455	-0.000073	-0.506116
C83	C	1.490788	0.333260	-0.172783
C84	C	1.824121	0.666594	0.160550
C85	C	1.100362	-0.000086	0.248421
C86	C	1.433695	0.333248	0.581755
C87	C	1.767028	0.666581	0.915088
C88	C	1.177276	-0.000090	0.299551
C89	C	1.510609	0.333244	0.632884
C90	C	1.843942	0.666577	0.966218
C91	C	1.166245	-0.000080	0.407688
C92	C	1.499578	0.333253	0.741021
C93	C	1.832911	0.666586	1.074354
C94	C	1.111391	-0.000095	0.140275
C95	C	1.444725	0.333239	0.473608
C96	C	1.778058	0.666572	0.806941
H97	H	0.626945	-0.000099	-0.113431
H98	H	0.960278	0.333234	0.219903
H99	H	1.293612	0.666568	0.553236
H100	H	1.216314	-0.481744	-0.148295
H101	H	1.549647	-0.148411	0.185038
H102	H	1.882981	0.184923	0.518372
H103	H	1.026235	-0.000076	0.285859
H104	H	1.359568	0.333257	0.619192
H105	H	1.692901	0.666590	0.952525
H106	H	1.061336	-0.518442	-0.303733
H107	H	1.394669	-0.185108	0.029600
H108	H	1.728002	0.148225	0.362934
C109	C	0.595537	-0.000064	-0.433535
C110	C	0.928871	0.333269	-0.100201
C111	C	1.262204	0.666602	0.233132
C112	C	0.663787	-0.000066	-0.364552
C113	C	0.997120	0.333267	-0.031218
C114	C	1.330453	0.666601	0.302115
H115	H	0.626740	-0.000055	-0.495316
H116	H	0.960073	0.333278	-0.161983
H117	H	1.293406	0.666612	0.171351
H118	H	0.560145	0.059358	-0.422674
H119	H	0.893478	0.392691	-0.089340
H120	H	1.226811	0.726024	0.243993
H121	H	0.553451	-0.059507	-0.429406
H122	H	0.886784	0.273826	-0.096073
H123	H	1.220117	0.607159	0.237260
H124	H	0.705869	0.059381	-0.368675
H125	H	1.039203	0.392714	-0.035342
H126	H	1.372536	0.726048	0.297991
H127	H	0.699195	-0.059494	-0.375417
H128	H	1.032529	0.273839	-0.042083
H129	H	1.365862	0.607173	0.291250
H130	H	1.251413	-0.000028	0.262115
H131	H	1.584746	0.333306	0.595449
H132	H	1.918079	0.666639	0.928782
