data_functionalizedCrystal
_audit_creation_method	'MofGen! by Chris Wilmer'
_symmetry_space_group_name_H-M	'P1'
_symmetry_Int_Tables_number	1
_symmetry_cell_setting	triclinic
loop_
_symmetry_equiv_pos_as_xyz
  x,y,z
_cell_length_a	12.645331
_cell_length_b	13.897448
_cell_length_c	13.897441
_cell_angle_alpha	90.029627
_cell_angle_beta	89.980056
_cell_angle_gamma	89.983329
loop_
_atom_site_label
_atom_site_type_symbol
_atom_site_fract_x
_atom_site_fract_y
_atom_site_fract_z
Zn1	Zn	1.620703	0.384020	-0.545416
Zn2	Zn	2.120703	0.884020	-0.045416
Zn3	Zn	1.620593	0.545339	-0.384117
Zn4	Zn	2.120593	1.045339	0.115883
Zn5	Zn	1.443426	0.384056	-0.384130
Zn6	Zn	1.943426	0.884056	0.115870
Zn7	Zn	1.443399	0.545272	-0.545366
Zn8	Zn	1.943399	1.045272	-0.045366
O9	O	1.532030	0.464672	-0.464757
O10	O	2.032030	0.964672	0.035243
O11	O	1.769035	0.405432	-0.524035
O12	O	2.269035	0.905432	-0.024035
O13	O	1.597056	0.523988	-0.249137
O14	O	2.097056	1.023988	0.250863
O15	O	1.466999	0.249070	-0.405552
O16	O	1.966999	0.749070	0.094448
O17	O	1.768955	0.523952	-0.405529
O18	O	2.268955	1.023952	0.094471
O19	O	1.597244	0.249043	-0.524047
O20	O	2.097244	0.749043	-0.024047
O21	O	1.466892	0.405494	-0.249147
O22	O	1.966892	0.905494	0.250853
O23	O	1.295075	0.405429	-0.405503
O24	O	1.795075	0.905429	0.094497
O25	O	1.466954	0.523838	-0.680354
O26	O	1.966954	1.023838	-0.180354
O27	O	1.295055	0.523873	-0.523962
O28	O	1.795055	1.023873	-0.023962
O29	O	1.597218	0.405367	-0.680391
O30	O	2.097218	0.905367	-0.180391
O31	O	1.597030	0.680311	-0.405481
O32	O	2.097030	1.180311	0.094519
O33	O	1.466847	0.680262	-0.523950
O34	O	1.966847	1.180262	-0.023950
C35	C	1.256600	0.464649	-0.464729
C36	C	1.756600	0.964649	0.035271
C37	C	1.138770	0.464662	-0.464740
C38	C	1.638770	0.964662	0.035260
C39	C	1.531953	0.715286	-0.464729
C40	C	2.031953	1.215286	0.035271
C41	C	1.532017	0.822500	-0.464750
C42	C	2.032017	1.322500	0.035250
C43	C	1.532095	0.464591	-0.716350
C44	C	2.032095	0.964591	-0.216350
C45	C	1.532123	0.464556	-0.823564
C46	C	2.032123	0.964556	-0.323564
C47	C	0.971183	0.389806	-0.390629
C48	C	1.471183	0.889806	0.109371
C49	C	1.093743	0.390000	-0.390302
C50	C	1.593743	0.890000	0.109698
C51	C	1.094251	0.566275	-0.436969
C52	C	1.594251	1.066275	0.063031
C53	C	0.971653	0.565866	-0.436463
C54	C	1.471653	1.065866	0.063537
C55	C	0.971616	0.438872	-0.566909
C56	C	1.471616	0.938872	-0.066909
C57	C	1.094221	0.436602	-0.566342
C58	C	1.594221	0.936602	-0.066342
C59	C	1.808535	0.464695	-0.464786
C60	C	2.308535	0.964695	0.035214
C61	C	1.926365	0.464705	-0.464798
C62	C	2.426365	0.964705	0.035202
C63	C	1.532137	0.213079	-0.464807
C64	C	2.032137	0.713079	0.035193
C65	C	1.532182	0.105865	-0.464827
C66	C	2.032182	0.605865	0.035173
C67	C	1.532128	1.018795	-0.464810
C68	C	2.032128	1.518795	0.035190
C69	C	1.532063	0.909562	-0.464780
C70	C	2.032063	1.409562	0.035220
C71	C	1.532144	0.464529	-0.910634
C72	C	2.032144	0.964529	-0.410634
C73	C	1.532175	0.464485	-1.019867
C74	C	2.032175	0.964485	-0.519867
C75	C	1.532026	0.464683	-0.214143
C76	C	2.032026	0.964683	0.285857
C77	C	1.532204	0.464445	-0.106930
C78	C	2.032204	0.964445	0.393070
H79	H	0.941718	0.314229	-0.407850
H80	H	1.441718	0.814229	0.092150
H81	H	1.123324	0.361826	-0.587283
H82	H	1.623324	0.861826	-0.087283
N83	N	0.932466	0.410967	-0.296266
N84	N	1.432466	0.910967	0.203734
N85	N	0.835206	0.410735	-0.280173
N86	N	1.335206	0.910735	0.219827
H87	H	0.807857	0.425683	-0.213530
H88	H	1.307857	0.925683	0.286470
N89	N	0.935257	0.507286	-0.636256
N90	N	1.435257	1.007286	-0.136256
N91	N	0.962458	0.499548	-0.722393
N92	N	1.462458	0.999548	-0.222393
H93	H	0.936775	0.547867	-0.771364
H94	H	1.436775	1.047867	-0.271364
N95	N	0.934434	0.638250	-0.501255
N96	N	1.434434	1.138250	-0.001255
N97	N	0.837333	0.650846	-0.512421
N98	N	1.337333	1.150846	-0.012421
H99	H	0.811048	0.701969	-0.558176
H100	H	1.311048	1.201969	-0.058176
N101	N	1.130841	0.638148	-0.502617
N102	N	1.630841	1.138148	-0.002617
N103	N	1.190281	0.615226	-0.570764
N104	N	1.690281	1.115226	-0.070764
H105	H	1.216125	0.665984	-0.617131
H106	H	1.716125	1.165984	-0.117131
H107	H	0.943011	0.587774	-0.361815
H108	H	1.443011	1.087774	0.138185
N109	N	1.131494	0.295464	-0.412111
N110	N	1.631494	0.795464	0.087889
N111	N	1.067295	0.228881	-0.427678
N112	N	1.567295	0.728881	0.072322
H113	H	1.093951	0.162107	-0.443068
H114	H	1.593951	0.662107	0.056932
H115	H	0.940718	0.366069	-0.592165
H116	H	1.440718	0.866069	-0.092165
N117	N	1.130469	0.411421	-0.295374
N118	N	1.630469	0.911421	0.204626
N119	N	1.065556	0.426282	-0.229159
N120	N	1.565556	0.926282	0.270841
H121	H	1.091492	0.441414	-0.162111
H122	H	1.591492	0.941414	0.337889
H123	H	1.124911	0.588559	-0.363122
H124	H	1.624911	1.088559	0.136878
H125	H	1.124876	0.487175	-0.624560
H126	H	1.624876	0.987175	-0.124560
