data_functionalizedCrystal
_audit_creation_method	'MofGen! by Chris Wilmer'
_symmetry_space_group_name_H-M	'P1'
_symmetry_Int_Tables_number	1
_symmetry_cell_setting	triclinic
loop_
_symmetry_equiv_pos_as_xyz
  x,y,z
_cell_length_a	14.908571
_cell_length_b	13.897448
_cell_length_c	14.908404
_cell_angle_alpha	86.647708
_cell_angle_beta	89.784600
_cell_angle_gamma	86.713891
loop_
_atom_site_label
_atom_site_type_symbol
_atom_site_fract_x
_atom_site_fract_y
_atom_site_fract_z
Zn1	Zn	1.345433	-0.430604	-0.587629
Zn2	Zn	1.353991	-0.601798	-0.437257
Zn3	Zn	1.203717	-0.431770	-0.428614
Zn4	Zn	1.195047	-0.583107	-0.578920
O5	O	1.274547	-0.511820	-0.508105
O6	O	1.472396	-0.460647	-0.574944
O7	O	1.341267	-0.587554	-0.310276
O8	O	1.222563	-0.296635	-0.449735
O9	O	1.478684	-0.586423	-0.464466
O10	O	1.326681	-0.295778	-0.566563
O11	O	1.230861	-0.462635	-0.303926
O12	O	1.076739	-0.444511	-0.441291
O13	O	1.207786	-0.554567	-0.705910
O14	O	1.070369	-0.555698	-0.551720
O15	O	1.318274	-0.442523	-0.712308
O16	O	1.332860	-0.734299	-0.456022
O17	O	1.216084	-0.720567	-0.560101
C18	C	1.040928	-0.498204	-0.494623
C19	C	0.940984	-0.492401	-0.488877
C20	C	0.746602	-0.597476	-0.592914
C21	C	0.652695	-0.592026	-0.587518
C22	C	0.659261	-0.476047	-0.472693
C23	C	0.753168	-0.481496	-0.478089
C24	C	0.796835	-0.542214	-0.538201
C25	C	0.890744	-0.547669	-0.543592
C26	C	0.897308	-0.431685	-0.428772
C27	C	0.803401	-0.426235	-0.423376
C28	C	1.274483	-0.762432	-0.508075
C29	C	1.274536	-0.869648	-0.508097
C30	C	1.274627	-1.065945	-0.508159
C31	C	1.274574	-0.956711	-0.508127
C32	C	1.509078	-0.525489	-0.521641
C33	C	1.609021	-0.531315	-0.527409
C34	C	1.261108	-0.496330	-0.742649
C35	C	1.255382	-0.489729	-0.842598
C36	C	1.274635	-0.260229	-0.508156
C37	C	1.274672	-0.153016	-0.508178
C38	C	1.287985	-0.527183	-0.274477
C39	C	1.293886	-0.533522	-0.174539
C40	C	1.189173	-0.416179	0.019830
C41	C	1.194714	-0.422132	0.113731
C42	C	1.310514	-0.551375	0.107166
C43	C	1.304972	-0.545423	0.013265
C44	C	1.244299	-0.477823	-0.030400
C45	C	1.238754	-0.471875	-0.124302
C46	C	1.354557	-0.601114	-0.130866
C47	C	1.360098	-0.607067	-0.036965
H48	H	0.767834	-0.376798	-0.374438
H49	H	1.189350	-0.416833	-0.159852
H50	H	0.623691	-0.426607	-0.423759
O51	O	0.598515	-0.651719	-0.646449
H52	H	0.644661	-0.694889	-0.689120
O53	O	1.414002	-0.667621	-0.185046
H54	H	1.457110	-0.715635	-0.138904
O55	O	1.425541	-0.679970	0.010132
H56	H	1.409553	-0.753792	-0.006811
H57	H	0.782156	-0.646920	-0.641854
H58	H	0.926296	-0.597110	-0.592536
H59	H	1.359917	-0.606405	0.142733
H60	H	1.149827	-0.371933	0.154625
O61	O	0.951485	-0.372071	-0.369756
H62	H	1.024121	-0.386055	-0.383609
O63	O	1.123746	-0.343270	-0.027282
H64	H	1.054351	-0.357394	-0.005034
