data_functionalizedCrystal
_audit_creation_method	'MofGen! by Chris Wilmer'
_symmetry_space_group_name_H-M	'P1'
_symmetry_Int_Tables_number	1
_symmetry_cell_setting	triclinic
loop_
_symmetry_equiv_pos_as_xyz
  x,y,z
_cell_length_a	23.532407
_cell_length_b	23.532407
_cell_length_c	22.010155
_cell_angle_alpha	90.009202
_cell_angle_beta	90.013018
_cell_angle_gamma	82.848712
loop_
_atom_site_label
_atom_site_type_symbol
_atom_site_fract_x
_atom_site_fract_y
_atom_site_fract_z
O1	O	0.755269	0.069134	0.050493
O2	O	1.088602	0.402467	0.383826
O3	O	1.421935	0.735801	0.717160
O4	O	0.589405	0.079137	0.050503
O5	O	0.922739	0.412470	0.383837
O6	O	1.256072	0.745804	0.717170
O7	O	0.677339	-0.008796	0.050487
O8	O	1.010672	0.324537	0.383820
O9	O	1.344005	0.657870	0.717153
O10	O	0.667336	0.157067	0.050510
O11	O	1.000669	0.490400	0.383843
O12	O	1.334002	0.823734	0.717176
O13	O	0.677312	-0.008796	-0.050564
O14	O	1.010646	0.324537	0.282770
O15	O	1.343979	0.657870	0.616103
O16	O	0.589379	0.079137	-0.050547
O17	O	0.922712	0.412470	0.282786
O18	O	1.256046	0.745804	0.616120
O19	O	0.755242	0.069134	-0.050557
O20	O	1.088576	0.402467	0.282776
O21	O	1.421909	0.735801	0.616109
Cu22	Cu	0.672308	0.074135	-0.059779
Cu23	Cu	1.005642	0.407469	0.273554
Cu24	Cu	1.338975	0.740802	0.606888
Cu25	Cu	0.672340	0.074135	0.059725
Cu26	Cu	1.005673	0.407469	0.393058
Cu27	Cu	1.339006	0.740802	0.726392
O28	O	0.667309	0.157067	-0.050541
O29	O	1.000643	0.490400	0.282793
O30	O	1.333976	0.823734	0.616126
C31	C	0.568176	0.078882	-0.000021
C32	C	0.901510	0.412216	0.333313
C33	C	1.234843	0.745549	0.666646
C34	C	0.504959	0.078116	-0.000017
C35	C	0.838293	0.411450	0.333316
C36	C	1.171626	0.744783	0.666650
C37	C	0.238792	0.022921	-0.000041
C38	C	0.572125	0.356254	0.333292
C39	C	0.905458	0.689588	0.666625
C40	C	0.298192	0.023632	-0.000041
C41	C	0.631525	0.356966	0.333292
C42	C	0.964859	0.690299	0.666626
O43	O	0.334937	-0.020153	-0.000068
O44	O	0.668270	0.313180	0.333265
O45	O	1.001603	0.646513	0.666599
N46	N	0.320818	0.075909	-0.000030
N47	N	0.654152	0.409242	0.333304
N48	N	0.987485	0.742575	0.666637
C49	C	0.284041	0.127477	-0.000025
C50	C	0.617374	0.460810	0.333309
C51	C	0.950707	0.794144	0.666642
O52	O	0.308740	0.172007	-0.000016
O53	O	0.642074	0.505341	0.333318
O54	O	0.975407	0.838674	0.666651
C55	C	0.224642	0.126765	-0.000029
C56	C	0.557975	0.460098	0.333304
C57	C	0.891308	0.793432	0.666637
C58	C	0.202019	0.074485	-0.000035
C59	C	0.535352	0.407819	0.333299
C60	C	0.868686	0.741152	0.666632
C61	C	0.216168	-0.029354	-0.000047
C62	C	0.549502	0.303979	0.333286
C63	C	0.882835	0.637312	0.666620
C64	C	0.156772	-0.030066	-0.000046
C65	C	0.490106	0.303268	0.333287
C66	C	0.823439	0.636601	0.666620
C67	C	0.119999	0.021499	-0.000039
C68	C	0.453333	0.354832	0.333294
C69	C	0.786666	0.688165	0.666627
C70	C	0.142623	0.073774	-0.000034
C71	C	0.475956	0.407107	0.333300
C72	C	0.809289	0.740441	0.666633
C73	C	0.187865	0.178333	-0.000029
C74	C	0.521199	0.511666	0.333305
C75	C	0.854532	0.844999	0.666638
C76	C	0.128463	0.177616	-0.000034
C77	C	0.461796	0.510949	0.333299
C78	C	0.795129	0.844283	0.666633
C79	C	0.105840	0.125336	-0.000039
C80	C	0.439173	0.458670	0.333294
C81	C	0.772507	0.792003	0.666628
C82	C	0.046454	0.124627	-0.000026
C83	C	0.379787	0.457960	0.333307
C84	C	0.713120	0.791294	0.666641
N85	N	0.023828	0.072351	-0.000037
N86	N	0.357161	0.405684	0.333296
N87	N	0.690494	0.739017	0.666629
C88	C	0.060600	0.020787	-0.000044
C89	C	0.393934	0.354120	0.333289
C90	C	0.727267	0.687453	0.666623
C91	C	0.408783	0.128968	-0.000016
C92	C	0.742117	0.462302	0.333317
C93	C	1.075450	0.795635	0.666651
C94	C	0.468181	0.129681	-0.000007
C95	C	0.801514	0.463014	0.333326
C96	C	1.134848	0.796348	0.666660
C97	C	0.482328	0.025836	-0.000025
C98	C	0.815662	0.359170	0.333309
C99	C	1.148995	0.692503	0.666642
C100	C	0.422929	0.025124	-0.000029
C101	C	0.756263	0.358457	0.333304
C102	C	1.089596	0.691791	0.666638
C103	C	0.386157	0.076692	-0.000027
C104	C	0.719490	0.410025	0.333306
C105	C	1.052824	0.743359	0.666639
C106	C	-0.064136	0.019297	-0.000042
C107	C	0.269197	0.352630	0.333292
C108	C	0.602530	0.685964	0.666625
C109	C	-0.123538	0.018590	-0.000038
C110	C	0.209795	0.351924	0.333295
C111	C	0.543128	0.685257	0.666628
C112	C	-0.137680	0.122435	-0.000024
C113	C	0.195653	0.455768	0.333309
C114	C	0.528986	0.789101	0.666643
C115	C	-0.078284	0.123142	-0.000024
C116	C	0.255050	0.456475	0.333309
C117	C	0.588383	0.789808	0.666642
C118	C	-0.041512	0.071568	-0.000035
C119	C	0.291821	0.404901	0.333298
C120	C	0.625154	0.738235	0.666631
O121	O	0.009675	0.168390	-0.000001
O122	O	0.343008	0.501723	0.333332
O123	O	0.676341	0.835057	0.666665
O124	O	0.035892	-0.023737	-0.000061
O125	O	0.369226	0.309597	0.333272
O126	O	0.702559	0.642930	0.666605
C127	C	0.677071	-0.030012	-0.000040
C128	C	1.010404	0.303321	0.333293
C129	C	1.343738	0.636654	0.666627
C130	C	0.676305	-0.093229	-0.000045
C131	C	1.009638	0.240104	0.333289
C132	C	1.342972	0.573437	0.666622
C133	C	0.723538	-0.492332	-0.000014
C134	C	1.056872	-0.158999	0.333319
C135	C	1.390205	0.174334	0.666652
C136	C	0.722827	-0.551733	-0.000010
C137	C	1.056160	-0.218399	0.333324
C138	C	1.389494	0.114934	0.666657
O139	O	0.766613	-0.588477	0.000010
O140	O	1.099946	-0.255144	0.333343
O141	O	1.433280	0.078190	0.666677
N142	N	0.670551	-0.574359	-0.000007
N143	N	1.003884	-0.241025	0.333327
N144	N	1.337217	0.092308	0.666660
C145	C	0.618982	-0.537581	-0.000002
C146	C	0.952316	-0.204248	0.333331
C147	C	1.285649	0.129085	0.666664
O148	O	0.574452	-0.562281	0.000001
O149	O	0.907785	-0.228948	0.333334
O150	O	1.241119	0.104386	0.666668
C151	C	0.619695	-0.478182	-0.000003
C152	C	0.953028	-0.144849	0.333331
C153	C	1.286361	0.188485	0.666664
C154	C	0.671974	-0.455559	-0.000012
C155	C	1.005308	-0.122226	0.333322
C156	C	1.338641	0.211107	0.666655
C157	C	0.775814	-0.469709	-0.000023
C158	C	1.109147	-0.136376	0.333311
C159	C	1.442481	0.196958	0.666644
C160	C	0.776525	-0.410313	-0.000028
C161	C	1.109858	-0.076980	0.333305
C162	C	1.443192	0.256354	0.666638
C163	C	0.724961	-0.373540	-0.000026
C164	C	1.058294	-0.040207	0.333307
C165	C	1.391628	0.293127	0.666641
C166	C	0.672685	-0.396163	-0.000018
C167	C	1.006019	-0.062830	0.333316
C168	C	1.339352	0.270503	0.666649
C169	C	0.568127	-0.441406	0.000006
C170	C	0.901460	-0.108072	0.333339
C171	C	1.234794	0.225261	0.666673
C172	C	0.568843	-0.382003	0.000006
C173	C	0.902177	-0.048670	0.333339
C174	C	1.235510	0.284663	0.666673
C175	C	0.621123	-0.359381	-0.000003
C176	C	0.954457	-0.026047	0.333330
C177	C	1.287790	0.307286	0.666664
C178	C	0.621832	-0.299994	-0.000021
C179	C	0.955166	0.033339	0.333313
C180	C	1.288499	0.366672	0.666646
N181	N	0.674109	-0.277368	-0.000024
N182	N	1.007442	0.055965	0.333310
N183	N	1.340775	0.389299	0.666643
C184	C	0.725673	-0.314141	-0.000026
C185	C	1.059006	0.019192	0.333307
C186	C	1.392340	0.352526	0.666640
C187	C	0.617491	-0.662324	-0.000001
C188	C	0.950824	-0.328990	0.333333
C189	C	1.284158	0.004343	0.666666
C190	C	0.616778	-0.721722	-0.000005
C191	C	0.950112	-0.388388	0.333329
C192	C	1.283445	-0.055055	0.666662
C193	C	0.720623	-0.735869	-0.000011
C194	C	1.053957	-0.402536	0.333322
C195	C	1.387290	-0.069202	0.666656
C196	C	0.721335	-0.676470	-0.000011
C197	C	1.054669	-0.343137	0.333322
C198	C	1.388002	-0.009803	0.666656
C199	C	0.669767	-0.639698	-0.000004
C200	C	1.003101	-0.306364	0.333330
C201	C	1.336434	0.026969	0.666663
C202	C	0.727163	-0.189404	-0.000039
C203	C	1.060496	0.143929	0.333294
C204	C	1.393829	0.477262	0.666628
C205	C	0.727869	-0.130002	-0.000047
C206	C	1.061203	0.203331	0.333286
C207	C	1.394536	0.536664	0.666619
C208	C	0.624025	-0.115860	-0.000038
C209	C	0.957358	0.217473	0.333295
C210	C	1.290691	0.550807	0.666629
C211	C	0.623318	-0.175257	-0.000033
C212	C	0.956651	0.158076	0.333301
C213	C	1.289984	0.491410	0.666634
C214	C	0.674891	-0.212028	-0.000031
C215	C	1.008225	0.121305	0.333302
C216	C	1.341558	0.454639	0.666635
O217	O	0.578069	-0.263215	-0.000038
O218	O	0.911403	0.070118	0.333295
O219	O	1.244736	0.403452	0.666629
O220	O	0.770196	-0.289433	-0.000022
O221	O	1.103529	0.043900	0.333312
O222	O	1.436863	0.377234	0.666645
C223	C	0.776472	0.069389	-0.000032
C224	C	1.109805	0.402722	0.333301
C225	C	1.443138	0.736055	0.666635
C226	C	0.839689	0.070155	-0.000032
C227	C	1.173022	0.403488	0.333302
C228	C	1.506355	0.736821	0.666635
C229	C	0.667577	0.178283	-0.000013
C230	C	1.000910	0.511617	0.333321
C231	C	1.334244	0.844950	0.666654
C232	C	0.668343	0.241500	-0.000004
C233	C	1.001676	0.574834	0.333329
C234	C	1.335010	0.908167	0.666663
N235	N	0.672291	0.074135	-0.143831
N236	N	1.005624	0.407468	0.189502
N237	N	1.338957	0.740802	0.522835
C238	C	0.706685	0.108496	-0.563608
C239	C	1.040018	0.441829	-0.230275
C240	C	1.373352	0.775163	0.103059
C241	C	0.706692	0.108495	-0.627216
C242	C	1.040025	0.441828	-0.293882
C243	C	1.373358	0.775161	0.039451
O244	O	0.735915	0.137706	-0.660105
O245	O	1.069248	0.471039	-0.326772
O246	O	1.402581	0.804372	0.006562
N247	N	0.672351	0.074129	-0.659038
N248	N	1.005684	0.407462	-0.325705
N249	N	1.339017	0.740796	0.007628
C250	C	0.638005	0.039758	-0.627250
C251	C	0.971338	0.373091	-0.293917
C252	C	1.304672	0.706425	0.039416
O253	O	0.608796	0.010527	-0.660159
O254	O	0.942130	0.343860	-0.326825
O255	O	1.275463	0.677194	0.006508
C256	C	0.638002	0.039757	-0.563644
C257	C	0.971335	0.373090	-0.230311
C258	C	1.304668	0.706424	0.103023
C259	C	0.672341	0.074129	-0.531824
C260	C	1.005674	0.407462	-0.198491
C261	C	1.339007	0.740796	0.134842
C262	C	0.741022	0.142865	-0.531789
C263	C	1.074355	0.476198	-0.198455
C264	C	1.407688	0.809532	0.134878
C265	C	0.741014	0.142867	-0.468185
C266	C	1.074347	0.476200	-0.134852
C267	C	1.407681	0.809534	0.198481
C268	C	0.706670	0.108500	-0.436402
C269	C	1.040003	0.441833	-0.103068
C270	C	1.373336	0.775167	0.230265
C271	C	0.672333	0.074131	-0.468221
C272	C	1.005666	0.407465	-0.134888
C273	C	1.339000	0.740798	0.198445
C274	C	0.603660	0.005383	-0.531857
C275	C	0.936993	0.338717	-0.198524
C276	C	1.270326	0.672050	0.134810
C277	C	0.603660	0.005385	-0.468246
C278	C	0.936993	0.338718	-0.134913
C279	C	1.270326	0.672052	0.198421
C280	C	0.637999	0.039757	-0.436427
C281	C	0.971332	0.373090	-0.103093
C282	C	1.304665	0.706424	0.230240
C283	C	0.637981	0.039766	-0.372834
C284	C	0.971314	0.373100	-0.039501
C285	C	1.304648	0.706433	0.293832
N286	N	0.672322	0.074132	-0.341012
N287	N	1.005656	0.407465	-0.007678
N288	N	1.338989	0.740799	0.325655
C289	C	0.706667	0.108499	-0.372795
C290	C	1.040000	0.441832	-0.039462
C291	C	1.373333	0.775166	0.293871
C292	C	0.638015	0.039763	-0.760828
C293	C	0.971349	0.373096	-0.427495
C294	C	1.304682	0.706429	-0.094161
C295	C	0.638015	0.039766	-0.824433
C296	C	0.971348	0.373100	-0.491100
C297	C	1.304682	0.706433	-0.157767
C298	C	0.706703	0.108502	-0.824394
C299	C	1.040036	0.441836	-0.491061
C300	C	1.373369	0.775169	-0.157728
C301	C	0.706699	0.108501	-0.760788
C302	C	1.040033	0.441834	-0.427455
C303	C	1.373366	0.775168	-0.094121
C304	C	0.672356	0.074128	-0.729005
C305	C	1.005690	0.407462	-0.395672
C306	C	1.339023	0.740795	-0.062339
C307	C	0.706647	0.108501	-0.239224
C308	C	1.039981	0.441834	0.094109
C309	C	1.373314	0.775168	0.427443
C310	C	0.706635	0.108502	-0.175615
C311	C	1.039968	0.441835	0.157718
C312	C	1.373302	0.775169	0.491052
C313	C	0.637950	0.039764	-0.175660
C314	C	0.971283	0.373098	0.157674
C315	C	1.304616	0.706431	0.491007
C316	C	0.637960	0.039765	-0.239263
C317	C	0.971293	0.373099	0.094070
C318	C	1.304626	0.706432	0.427404
C319	C	0.672313	0.074135	-0.271043
C320	C	1.005646	0.407469	0.062290
C321	C	1.338980	0.740802	0.395623
O322	O	0.608775	0.010569	-0.339905
O323	O	0.942108	0.343902	-0.006571
O324	O	1.275442	0.677235	0.326762
O325	O	0.735876	0.137720	-0.339879
O326	O	1.069209	0.471053	-0.006546
O327	O	1.402543	0.804386	0.326788
N328	N	0.672362	0.074131	0.143777
N329	N	1.005695	0.407465	0.477111
N330	N	1.339029	0.740798	0.810444
H331	H	0.138359	-0.072637	-0.000053
H332	H	0.471692	0.260696	0.333280
H333	H	0.805026	0.594030	0.666614
H334	H	-0.034204	-0.022699	-0.000050
H335	H	0.299130	0.310634	0.333283
H336	H	0.632463	0.643967	0.666616
O337	O	0.604560	0.006460	-0.144710
O338	O	0.937893	0.339794	0.188623
O339	O	1.271227	0.673127	0.521957
C340	C	0.565490	0.041382	-0.107932
C341	C	0.898824	0.374715	0.225401
C342	C	1.232157	0.708049	0.558735
H343	H	0.582964	0.083555	-0.098397
H344	H	0.916297	0.416889	0.234936
H345	H	1.249630	0.750222	0.568269
H346	H	0.559285	0.018521	-0.063206
H347	H	0.892619	0.351854	0.270127
H348	H	1.225952	0.685187	0.603460
H349	H	0.522630	0.050308	-0.132451
H350	H	0.855963	0.383641	0.200882
H351	H	1.189296	0.716974	0.534216
O352	O	-0.173488	0.172470	-0.000047
O353	O	0.159845	0.505803	0.333287
O354	O	0.493179	0.839136	0.666620
C355	C	-0.230764	0.160625	-0.000036
C356	C	0.102569	0.493958	0.333297
C357	C	0.435902	0.827291	0.666631
H358	H	-0.232793	0.115902	-0.019168
H359	H	0.100541	0.449236	0.314165
H360	H	0.433874	0.782569	0.647499
H361	H	-0.257866	0.193507	-0.029375
H362	H	0.075467	0.526840	0.303958
H363	H	0.408801	0.860174	0.637292
H364	H	-0.247949	0.162887	0.048442
H365	H	0.085384	0.496221	0.381775
H366	H	0.418717	0.829554	0.715109
H367	H	-0.141954	-0.023984	-0.000041
H368	H	0.191379	0.309349	0.333292
H369	H	0.524713	0.642683	0.666626
H370	H	0.246104	-0.071347	-0.000055
H371	H	0.579437	0.261987	0.333279
H372	H	0.912771	0.595320	0.666612
H373	H	0.404515	-0.017447	-0.000034
H374	H	0.737848	0.315887	0.333300
H375	H	1.071181	0.649220	0.666633
H376	H	0.512280	-0.016150	-0.000030
H377	H	0.845613	0.317183	0.333303
H378	H	1.178947	0.650516	0.666637
H379	H	0.582043	-0.085909	-0.000038
H380	H	0.915376	0.247424	0.333295
H381	H	1.248709	0.580758	0.666629
O382	O	0.570262	-0.027923	-0.437307
O383	O	0.903595	0.305411	-0.103974
O384	O	1.236929	0.638744	0.229359
C385	C	0.531188	0.007001	-0.400536
C386	C	0.864521	0.340335	-0.067203
C387	C	1.197855	0.673668	0.266131
H388	H	0.548666	0.049170	-0.390990
H389	H	0.882000	0.382504	-0.057657
H390	H	1.215333	0.715837	0.275676
H391	H	0.524967	-0.015862	-0.355816
H392	H	0.858301	0.317471	-0.022482
H393	H	1.191634	0.650804	0.310851
H394	H	0.488334	0.015936	-0.425067
H395	H	0.821668	0.349270	-0.091734
H396	H	1.155001	0.682603	0.241600
O397	O	0.739934	0.141923	-0.270157
O398	O	1.073268	0.475256	0.063177
O399	O	1.406601	0.808589	0.396510
C400	C	0.704992	0.180972	-0.306942
C401	C	1.038325	0.514305	0.026391
C402	C	1.371658	0.847638	0.359724
H403	H	0.662842	0.163460	-0.316498
H404	H	0.996175	0.496793	0.016836
H405	H	1.329508	0.830126	0.350169
H406	H	0.727857	0.187206	-0.351657
H407	H	1.061191	0.520540	-0.018324
H408	H	1.394524	0.853873	0.315009
H409	H	0.696021	0.223824	-0.282420
H410	H	1.029354	0.557158	0.050914
H411	H	1.362688	0.890491	0.384247
H412	H	-0.059864	0.165712	-0.000019
H413	H	0.273470	0.499045	0.333314
H414	H	0.606803	0.832379	0.666647
O415	O	0.774467	0.176220	-0.562590
O416	O	1.107800	0.509554	-0.229256
O417	O	1.441134	0.842887	0.104077
C418	C	0.832361	0.160140	-0.547038
C419	C	1.165694	0.493473	-0.213705
C420	C	1.499028	0.826807	0.119629
H421	H	0.834926	0.138029	-0.500864
H422	H	1.168260	0.471362	-0.167531
H423	H	1.501593	0.804695	0.165802
H424	H	0.855452	0.199900	-0.544834
H425	H	1.188785	0.533233	-0.211500
H426	H	1.522118	0.866567	0.121833
H427	H	0.853519	0.129490	-0.582840
H428	H	1.186853	0.462823	-0.249507
H429	H	1.520186	0.796156	0.083826
H430	H	0.762610	-0.765821	-0.000011
H431	H	1.095943	-0.432487	0.333323
H432	H	1.429276	-0.099154	0.666656
O433	O	0.490058	0.180516	-0.000022
O434	O	0.823392	0.513849	0.333311
O435	O	1.156725	0.847182	0.666645
C436	C	0.444857	0.225871	0.000001
C437	C	0.778191	0.559204	0.333334
C438	C	1.111524	0.892537	0.666668
H439	H	0.404588	0.210137	-0.019132
H440	H	0.737921	0.543470	0.314201
H441	H	1.071255	0.876804	0.647534
H442	H	0.457060	0.262392	-0.029331
H443	H	0.790393	0.595726	0.304003
H444	H	1.123727	0.929059	0.637336
H445	H	0.436374	0.241758	0.048483
H446	H	0.769707	0.575091	0.381816
H447	H	1.103040	0.908424	0.715149
H448	H	0.768979	0.170854	-0.442284
H449	H	1.102312	0.504187	-0.108950
H450	H	1.435646	0.837521	0.224383
H451	H	0.770443	-0.111587	-0.000056
H452	H	1.103777	0.221747	0.333277
H453	H	1.437110	0.555080	0.666611
H454	H	0.763906	-0.658055	-0.000018
H455	H	1.097239	-0.324722	0.333315
H456	H	1.430573	0.008612	0.666649
O457	O	0.518786	-0.346226	-0.000069
O458	O	0.852119	-0.012893	0.333264
O459	O	1.185452	0.320441	0.666598
C460	C	0.516064	-0.311463	-0.052414
C461	C	0.849397	0.021871	0.280920
C462	C	1.182730	0.355204	0.614253
H463	H	0.561244	-0.308706	-0.069869
H464	H	0.894577	0.024627	0.263465
H465	H	1.227910	0.357961	0.596798
H466	H	0.494589	-0.266698	-0.040643
H467	H	0.827922	0.066635	0.292690
H468	H	1.161256	0.399969	0.626023
H469	H	0.490157	-0.330872	-0.089055
H470	H	0.823490	0.002461	0.244278
H471	H	1.156824	0.335794	0.577612
O472	O	0.373007	0.179028	0.000077
O473	O	0.706340	0.512362	0.333410
O474	O	1.039674	0.845695	0.666744
C475	C	0.338245	0.181731	0.052420
C476	C	0.671579	0.515064	0.385753
C477	C	1.004912	0.848397	0.719086
H478	H	0.335486	0.136544	0.069856
H479	H	0.668819	0.469877	0.403189
H480	H	1.002152	0.803210	0.736523
H481	H	0.293481	0.203213	0.040654
H482	H	0.626815	0.536546	0.373987
H483	H	0.960148	0.869880	0.707320
H484	H	0.357658	0.207620	0.089073
H485	H	0.690991	0.540954	0.422407
H486	H	1.024325	0.874287	0.755740
O487	O	0.740048	0.141906	-0.144801
O488	O	1.073381	0.475240	0.188533
O489	O	1.406714	0.808573	0.521866
C490	C	0.770352	0.172247	-0.186498
C491	C	1.103685	0.505580	0.146835
C492	C	1.437018	0.838914	0.480168
H493	H	0.773813	0.148650	-0.231841
H494	H	1.107146	0.481983	0.101493
H495	H	1.440480	0.815316	0.434826
H496	H	0.815112	0.175554	-0.168106
H497	H	1.148445	0.508887	0.165227
H498	H	1.481779	0.842221	0.498561
H499	H	0.746636	0.217070	-0.193266
H500	H	1.079970	0.550404	0.140067
H501	H	1.413303	0.883737	0.473400
H502	H	0.734667	0.136486	-0.850284
H503	H	1.068000	0.469820	-0.516951
H504	H	1.401334	0.803153	-0.183618
O505	O	0.604680	0.006348	-0.270241
O506	O	0.938013	0.339681	0.063093
O507	O	1.271347	0.673014	0.396426
C508	C	0.639632	-0.032706	-0.307010
C509	C	0.972965	0.300628	0.026323
C510	C	1.306299	0.633961	0.359657
H511	H	0.681787	-0.015197	-0.316524
H512	H	1.015120	0.318136	0.016809
H513	H	1.348453	0.651469	0.350142
H514	H	0.616780	-0.038941	-0.351746
H515	H	0.950113	0.294393	-0.018413
H516	H	1.283447	0.627726	0.314921
H517	H	0.648592	-0.075557	-0.282494
H518	H	0.981925	0.257776	0.050840
H519	H	1.315258	0.591109	0.384173
H520	H	0.574207	-0.740135	-0.000008
H521	H	0.907540	-0.406802	0.333325
H522	H	1.240874	-0.073469	0.666659
H523	H	0.769159	-0.219337	-0.000035
H524	H	1.102492	0.113996	0.333298
H525	H	1.435825	0.447330	0.666631
H526	H	0.206274	0.220904	-0.000022
H527	H	0.539607	0.554238	0.333312
H528	H	0.872940	0.887571	0.666645
H529	H	0.610043	0.011774	-0.734955
H530	H	0.943377	0.345108	-0.401621
H531	H	1.276710	0.678441	-0.068288
H532	H	0.098525	0.219610	-0.000035
H533	H	0.431858	0.552943	0.333298
H534	H	0.765191	0.886277	0.666631
O535	O	0.567342	-0.626686	-0.000029
O536	O	0.900675	-0.293352	0.333304
O537	O	1.234009	0.039981	0.666638
C538	C	0.521054	-0.659400	-0.000012
C539	C	0.854388	-0.326066	0.333322
C540	C	1.187721	0.007267	0.666655
H541	H	0.535771	-0.703817	-0.019141
H542	H	0.869104	-0.370484	0.314192
H543	H	1.202437	-0.037151	0.647526
H544	H	0.484938	-0.637299	-0.029349
H545	H	0.818271	-0.303965	0.303984
H546	H	1.151604	0.029368	0.637318
H547	H	0.505025	-0.663536	0.048468
H548	H	0.838359	-0.330203	0.381801
H549	H	1.171692	0.003130	0.715135
H550	H	0.819097	-0.391900	-0.000033
H551	H	1.152430	-0.058566	0.333300
H552	H	1.485763	0.274767	0.666633
H553	H	0.734661	0.136490	-0.734885
H554	H	1.067994	0.469824	-0.401551
H555	H	1.401328	0.803157	-0.068218
O556	O	0.604639	0.006330	-0.855246
O557	O	0.937972	0.339663	-0.521913
O558	O	1.271305	0.672996	-0.188579
C559	C	0.574314	-0.023989	-0.813547
C560	C	0.907647	0.309344	-0.480214
C561	C	1.240981	0.642678	-0.146881
H562	H	0.597905	-0.027428	-0.768200
H563	H	0.931239	0.305905	-0.434866
H564	H	1.264572	0.639238	-0.101533
H565	H	0.571038	-0.068758	-0.831930
H566	H	0.904371	0.264576	-0.498596
H567	H	1.237705	0.597909	-0.165263
H568	H	0.529478	-0.000299	-0.806794
H569	H	0.862812	0.333034	-0.473461
H570	H	1.196145	0.666368	-0.140127
H571	H	0.817806	-0.499644	-0.000022
H572	H	1.151140	-0.166311	0.333311
H573	H	1.484473	0.167022	0.666644
O574	O	0.570372	-0.028094	-0.562731
O575	O	0.903705	0.305239	-0.229398
O576	O	1.237039	0.638573	0.103935
C577	C	0.586480	-0.085978	-0.547175
C578	C	0.919813	0.247355	-0.213841
C579	C	1.253146	0.580688	0.119492
H580	H	0.632436	-0.091708	-0.529678
H581	H	0.965769	0.241625	-0.196344
H582	H	1.299103	0.574958	0.136989
H583	H	0.583327	-0.113987	-0.589006
H584	H	0.916660	0.219346	-0.255673
H585	H	1.249994	0.552680	0.077660
H586	H	0.556702	-0.099046	-0.510262
H587	H	0.890035	0.234287	-0.176928
H588	H	1.223369	0.567620	0.156405
O589	O	0.517292	-0.463277	0.000045
O590	O	0.850625	-0.129944	0.333378
O591	O	1.183958	0.203390	0.666711
C592	C	0.471940	-0.418072	0.000036
C593	C	0.805274	-0.084739	0.333369
C594	C	1.138607	0.248594	0.666702
H595	H	0.487685	-0.377806	0.019160
H596	H	0.821019	-0.044472	0.352493
H597	H	1.154352	0.288861	0.685826
H598	H	0.435429	-0.430273	0.029382
H599	H	0.768762	-0.096939	0.362715
H600	H	1.102095	0.236394	0.696049
H601	H	0.456034	-0.409585	-0.048441
H602	H	0.789368	-0.076252	0.284893
H603	H	1.122701	0.257082	0.618226
O604	O	0.572485	-0.197141	0.000001
O605	O	0.905818	0.136192	0.333334
O606	O	1.239151	0.469525	0.666667
C607	C	0.527126	-0.151944	-0.000016
C608	C	0.860459	0.181389	0.333317
C609	C	1.193793	0.514723	0.666651
H610	H	0.542863	-0.111671	0.019102
H611	H	0.876196	0.221662	0.352436
H612	H	1.209529	0.554996	0.685769
H613	H	0.490616	-0.164147	0.029332
H614	H	0.823950	0.169186	0.362665
H615	H	1.157283	0.502519	0.695998
H616	H	0.511220	-0.143466	-0.048494
H617	H	0.844554	0.189867	0.284840
H618	H	1.177887	0.523201	0.618173
