data_functionalizedCrystal
_audit_creation_method	'MofGen! by Chris Wilmer'
_symmetry_space_group_name_H-M	'P1'
_symmetry_Int_Tables_number	1
_symmetry_cell_setting	triclinic
loop_
_symmetry_equiv_pos_as_xyz
  x,y,z
_cell_length_a	20.919309
_cell_length_b	19.851628
_cell_length_c	20.919285
_cell_angle_alpha	58.209834
_cell_angle_beta	86.848441
_cell_angle_gamma	62.595465
loop_
_atom_site_label
_atom_site_type_symbol
_atom_site_fract_x
_atom_site_fract_y
_atom_site_fract_z
Zr1	Zr	0.599369	0.786486	-0.107417
O2	O	0.506219	0.919377	-0.206017
O3	O	0.627918	0.648295	-0.077187
O4	O	0.635030	0.789409	-0.211033
O5	O	0.493504	0.777805	0.033404
O6	O	0.736646	0.797743	-0.214995
O7	O	0.499107	0.778263	-0.072171
O8	O	0.723924	0.545316	0.024432
O9	O	0.506226	1.030232	-0.206023
O10	O	0.715937	0.713317	-0.067256
O11	O	0.635920	0.706755	0.014490
O12	O	0.644294	0.872899	-0.143097
O13	O	0.564278	0.866337	-0.061350
Zr14	Zr	0.752499	0.799046	0.054644
Zr15	Zr	0.761435	0.799777	-0.113736
Zr16	Zr	0.590433	0.785755	0.060963
Zr17	Zr	0.599381	0.963286	-0.107426
Zr18	Zr	0.752487	0.622246	0.054653
O19	O	0.723950	0.937236	0.024413
O20	O	0.736655	0.938275	-0.215002
O21	O	0.493513	0.918338	0.033398
O22	O	0.845649	0.666155	0.153244
O23	O	0.858354	0.667194	-0.086171
O24	O	0.615212	0.647256	0.162228
O25	O	0.858364	0.807726	-0.086178
O26	O	0.716838	0.796122	0.158260
O27	O	0.615222	0.787789	0.162222
O28	O	0.852761	0.807268	0.019398
O29	O	0.635047	1.040796	-0.211045
O30	O	0.716821	0.544735	0.158272
O31	O	0.845641	0.555300	0.153249
O32	O	0.852744	0.555881	0.019410
O33	O	0.499124	1.029651	-0.072183
O34	O	0.627944	1.040215	-0.077205
O35	O	0.707574	0.712633	0.090323
O36	O	0.787590	0.719194	0.008577
O37	O	0.715948	0.878776	-0.067264
O38	O	0.635931	0.872215	0.014482
C39	C	0.675919	0.571615	-0.026376
C40	C	0.675914	0.496559	-0.026373
C41	C	0.632299	0.311624	0.018192
C42	C	0.606265	0.319826	-0.054728
C43	C	0.675927	0.359140	-0.026384
C44	C	0.701939	0.217221	0.046518
C45	C	0.675939	0.226396	-0.026389
C46	C	0.649854	0.368373	-0.099345
C47	C	0.745564	0.265725	0.001953
C48	C	0.719550	0.273963	-0.071012
C49	C	0.675919	0.435611	-0.026380
C50	C	0.675946	0.149932	-0.026400
C51	C	0.473215	0.776140	-0.018483
C52	C	0.404414	0.770498	-0.015801
C53	C	0.334694	0.851145	-0.054127
C54	C	0.270051	0.845838	-0.051609
C55	C	0.275129	0.759883	-0.010761
C56	C	0.344856	0.679230	0.027566
C57	C	0.409498	0.684538	0.025044
C58	C	0.081823	0.739688	-0.001168
C59	C	0.017174	0.734386	0.001353
C60	C	-0.057627	0.900995	-0.077824
C61	C	0.007020	0.906296	-0.080339
C62	C	0.076741	0.825643	-0.042015
C63	C	0.209054	0.754456	-0.008184
C64	C	0.142815	0.831071	-0.044596
C65	C	0.878653	0.809391	-0.034290
C66	C	0.947454	0.815033	-0.036973
C67	C	0.687111	0.793680	-0.237005
C68	C	0.690905	0.793990	-0.308486
C69	C	0.675949	1.013916	-0.026397
C70	C	0.675954	1.088972	-0.026401
C71	C	0.715162	0.795988	-0.712889
C72	C	0.711595	0.795699	-0.645726
C73	C	0.653832	0.790957	-0.609958
C74	C	0.599628	0.786512	-0.641362
C75	C	0.603192	0.786808	-0.708527
C76	C	0.640266	0.789841	-0.407055
C77	C	0.636706	0.789543	-0.339884
C78	C	0.748673	0.798732	-0.344254
C79	C	0.752235	0.799022	-0.411418
C80	C	0.698029	0.794582	-0.442818
C81	C	0.650186	0.790659	-0.541305
C82	C	0.701673	0.794887	-0.511473
C83	C	0.664757	0.791851	0.184231
C84	C	0.660963	0.791541	0.255713
C85	C	0.878639	0.588241	-0.034280
C86	C	0.947435	0.518827	-0.036959
C87	C	0.664742	0.570701	0.184242
C88	C	0.660943	0.495335	0.255727
C89	C	0.867461	0.587327	0.176338
C90	C	0.932464	0.517602	0.245141
C91	C	0.484407	0.998205	-0.229112
C92	C	0.419404	1.067929	-0.297915
C93	C	0.473229	0.997291	-0.018494
C94	C	0.404433	1.066705	-0.015815
C95	C	0.687126	1.014830	-0.237015
C96	C	0.690925	1.090197	-0.308501
C97	C	0.942340	0.483161	-0.077808
C98	C	1.006976	0.417949	-0.080340
C99	C	1.076705	0.388398	-0.042019
C100	C	1.081799	0.424071	-0.001168
C101	C	1.017164	0.489287	0.001359
C102	C	0.696562	0.463009	0.328889
C103	C	0.692989	0.392204	0.396063
C104	C	0.653803	0.353721	0.390075
C105	C	0.618180	0.386052	0.316906
C106	C	0.621748	0.456861	0.249733
C107	C	1.004764	0.488285	0.234781
C108	C	1.065847	0.422782	0.299422
C109	C	1.054629	0.386593	0.374422
C110	C	0.982321	0.415917	0.384782
C111	C	0.921239	0.481423	0.320141
C112	C	0.347104	1.097255	-0.287554
C113	C	0.286021	1.162780	-0.352195
C114	C	0.297239	1.198973	-0.427196
C115	C	0.369547	1.169644	-0.437555
C116	C	0.430629	1.104125	-0.372915
C117	C	0.409528	1.102377	0.025027
C118	C	0.344893	1.167609	0.027541
C119	C	0.275164	1.197162	-0.010783
C120	C	0.270071	1.161487	-0.051630
C121	C	0.334705	1.096261	-0.054148
C122	C	0.730117	1.128658	-0.302487
C123	C	0.733701	1.199465	-0.369649
C124	C	0.698087	1.231814	-0.442824
C125	C	0.658893	1.193345	-0.448836
C126	C	0.655314	1.122535	-0.381675
H127	H	0.547378	0.341961	-0.078701
H128	H	0.330550	0.921139	-0.087379
H129	H	0.378673	1.199121	-0.498628
N130	N	0.508609	1.072494	-0.384095
H131	H	0.506440	1.105366	-0.441417
H132	H	0.535763	1.003931	-0.359139
N133	N	0.731088	0.131629	0.128193
H134	H	0.691831	0.113774	0.142932
H135	H	0.743857	0.144112	0.165255
H136	H	0.762201	0.799844	-0.742004
H137	H	0.595363	0.328338	0.055833
N138	N	0.350344	0.586515	0.071630
H139	H	0.380044	0.551195	0.048942
H140	H	0.298792	0.595458	0.067407
H141	H	1.129329	0.335294	-0.044082
H142	H	1.138581	0.400001	0.030031
N143	N	1.120520	0.315928	0.444131
H144	H	1.118837	0.257266	0.476457
H145	H	1.118816	0.340397	0.476406
H146	H	0.466266	0.618866	0.056261
N147	N	0.194852	0.932821	-0.092943
H148	H	0.201444	0.988078	-0.119197
H149	H	0.164307	0.934068	-0.054061
H150	H	0.759119	1.102332	-0.242911
N151	N	0.484731	1.070511	0.066365
H152	H	0.478140	1.103019	0.092613
H153	H	0.515280	1.085288	0.027485
H154	H	0.862371	0.505285	0.328588
H155	H	0.792804	0.802348	-0.318682
H156	H	0.337955	1.067790	-0.226490
N157	N	0.208038	1.194403	-0.341012
H158	H	0.210205	1.161522	-0.283690
H159	H	0.180869	1.179909	-0.365977
H160	H	0.701006	1.289472	-0.497505
H161	H	0.722001	0.365889	0.455634
N162	N	0.574398	0.784435	-0.301309
H163	H	0.580370	0.784915	-0.253993
H164	H	0.576007	0.725831	-0.285177
H165	H	1.002814	0.388912	-0.113605
H166	H	0.002878	0.976290	-0.113618
N167	N	0.231354	1.269638	-0.496912
H168	H	0.183852	1.282717	-0.478961
H169	H	0.233098	1.245187	-0.529210
N170	N	0.022665	0.641666	0.045405
H171	H	-0.000393	0.635933	0.008656
H172	H	-0.004571	0.635620	0.087776
H173	H	0.728471	0.494335	0.333780
H174	H	0.765615	1.230779	-0.364739
H175	H	0.349055	1.196646	0.060806
H176	H	0.756444	0.257450	-0.108760
H177	H	0.629897	1.219694	-0.508424
H178	H	0.213288	1.185559	-0.082832
N179	N	0.970227	0.376880	0.465677
H180	H	1.019897	0.330931	0.505048
H181	H	0.941316	0.345291	0.473019
N182	N	0.157016	0.652703	0.040158
H183	H	0.150421	0.597448	0.066418
H184	H	0.183376	0.651094	0.080393
N185	N	0.823549	0.236418	0.033733
H186	H	0.825212	0.238077	0.081022
H187	H	0.838733	0.279752	-0.007220
N188	N	0.620635	0.453919	-0.181052
H189	H	0.620792	0.504436	-0.180544
H190	H	0.568209	0.474471	-0.202509
H191	H	0.596130	0.786223	-0.432615
N192	N	-0.132823	0.987981	-0.119156
H193	H	-0.173005	0.971580	-0.111361
H194	H	-0.135758	1.025459	-0.176440
N195	N	0.649960	0.277343	0.462526
H196	H	0.625721	0.299903	0.495728
H197	H	0.701877	0.223116	0.492698
H198	H	0.222540	1.250274	-0.008726
H199	H	1.021322	0.518317	0.034628
H200	H	0.213180	0.684471	0.025078
N201	N	0.575921	0.344536	0.310452
H202	H	0.579075	0.294771	0.364111
H203	H	0.598288	0.317153	0.279952
N204	N	0.587893	0.785528	-0.502716
H205	H	0.554098	0.782750	-0.532793
H206	H	0.558540	0.841856	-0.501676
H207	H	0.592746	0.483171	0.190164
H208	H	0.330546	1.067217	-0.087404
H209	H	0.552593	0.782656	-0.612238
N210	N	0.613035	1.081063	-0.388174
H211	H	0.559240	1.130470	-0.415693
H212	H	0.616222	1.031287	-0.334506
N213	N	0.137342	0.923773	-0.088651
H214	H	0.107645	0.959096	-0.065964
H215	H	0.111861	0.959372	-0.145067
N216	N	0.867138	0.515024	-0.119144
H217	H	0.836552	0.500235	-0.080308
H218	H	0.873796	0.482515	-0.145404
N219	N	0.770052	0.800497	-0.611862
H220	H	0.769713	0.859204	-0.651431
H221	H	0.820548	0.745865	-0.597577
N222	N	0.814511	0.804193	-0.450021
H223	H	0.848296	0.806987	-0.419949
H224	H	0.792956	0.861183	-0.504897
N225	N	0.544735	0.782013	-0.742396
H226	H	0.507602	0.778961	-0.709546
H227	H	0.569210	0.725285	-0.743248
N228	N	0.763968	0.800009	-0.550052
H229	H	0.793373	0.743688	-0.551098
H230	H	0.797713	0.802812	-0.519947
H231	H	1.013913	0.517740	0.173717
H232	H	1.124718	0.398913	0.290973
