data_functionalizedCrystal
_audit_creation_method	'MofGen! by Chris Wilmer'
_symmetry_space_group_name_H-M	'P1'
_symmetry_Int_Tables_number	1
_symmetry_cell_setting	triclinic
loop_
_symmetry_equiv_pos_as_xyz
  x,y,z
_cell_length_a	12.645331
_cell_length_b	18.050589
_cell_length_c	12.645323
_cell_angle_alpha	90.025443
_cell_angle_beta	90.022676
_cell_angle_gamma	90.027200
loop_
_atom_site_label
_atom_site_type_symbol
_atom_site_fract_x
_atom_site_fract_y
_atom_site_fract_z
Zn1	Zn	1.620654	-0.295674	0.599442
Zn2	Zn	1.620503	-0.419873	0.422180
Zn3	Zn	1.443368	-0.295699	0.422186
Zn4	Zn	1.443317	-0.419824	0.599396
O5	O	1.531961	-0.357767	0.510801
O6	O	1.768981	-0.312159	0.575945
O7	O	1.596964	-0.403432	0.273834
O8	O	1.466970	-0.191771	0.445722
O9	O	1.768870	-0.403407	0.445711
O10	O	1.597221	-0.191753	0.575951
O11	O	1.466824	-0.312202	0.273838
O12	O	1.295014	-0.312155	0.445677
O13	O	1.466883	-0.403325	0.747749
O14	O	1.294977	-0.403349	0.575872
O15	O	1.597172	-0.312112	0.747783
O16	O	1.596914	-0.523791	0.445666
O17	O	1.466737	-0.523755	0.575866
C18	C	1.256531	-0.357750	0.510770
C19	C	1.138701	-0.357760	0.510783
C20	C	0.971125	-0.300126	0.429329
C21	C	1.093685	-0.300275	0.428970
C22	C	1.094160	-0.435993	0.480267
C23	C	0.971562	-0.435678	0.479711
C24	C	0.971557	-0.337906	0.623067
C25	C	1.094163	-0.336158	0.622443
C26	C	1.531833	-0.550720	0.510784
C27	C	1.531875	-0.633265	0.510811
C28	C	1.461154	-0.832724	0.581589
C29	C	1.435307	-0.882166	0.484854
C30	C	1.531979	-0.784396	0.510825
C31	C	1.557878	-0.882035	0.607571
C32	C	1.532078	-0.930381	0.510847
C33	C	1.506082	-0.832751	0.414039
C34	C	1.628697	-0.832616	0.536821
C35	C	1.602887	-0.882036	0.440020
C36	C	1.531919	-0.700297	0.510814
C37	C	1.532137	-1.014477	0.510847
C38	C	1.808466	-0.357786	0.510832
C39	C	1.926296	-0.357793	0.510846
C40	C	1.532039	-0.357710	0.787307
C41	C	1.532072	-0.357686	0.905137
C42	C	1.532118	-0.164062	0.510842
C43	C	1.532185	-0.081516	0.510859
C44	C	1.531944	-0.357771	0.235371
C45	C	1.532116	-0.357586	0.117542
C46	C	1.449855	-0.414797	1.072679
C47	C	1.450070	-0.415080	0.950119
C48	C	1.643766	-0.378927	0.949656
C49	C	1.643315	-0.379285	1.072254
C50	C	1.503651	-0.279014	1.072336
C51	C	1.501159	-0.279485	0.949729
H52	H	0.941676	-0.241938	0.448251
C53	C	1.338186	-0.397115	0.909448
H54	H	1.292191	-0.389582	0.967854
H55	H	1.340456	-0.353469	0.867565
H56	H	1.312876	-0.437220	0.867851
H57	H	1.484121	-0.811191	0.332209
C58	C	0.932396	-0.394640	0.705124
H59	H	0.960012	-0.382336	0.772773
H60	H	0.857327	-0.393826	0.707616
H61	H	0.955707	-0.442765	0.685608
H62	H	1.662823	-0.903551	0.380117
C63	C	1.135547	-0.459171	0.370625
H64	H	1.108154	-0.506590	0.352861
H65	H	1.113423	-0.424012	0.319318
H66	H	1.210602	-0.461221	0.372061
H67	H	1.468461	-0.472682	1.103498
H68	H	0.940675	-0.281854	0.650819
H69	H	1.123801	-0.242262	0.448097
C70	C	1.584581	-0.221427	1.111529
H71	H	1.566972	-0.174063	1.083946
H72	H	1.583416	-0.219664	1.186600
H73	H	1.653290	-0.235029	1.088205
H74	H	1.556698	-0.234606	0.919109
H75	H	1.710423	-0.810837	0.558835
H76	H	1.418962	-0.263466	0.920630
H77	H	1.579744	-0.903684	0.689379
H78	H	1.366784	-0.401633	1.102153
H79	H	0.940274	-0.313125	0.346658
H80	H	1.468859	-0.473329	0.920805
C81	C	1.133554	-0.495593	0.557945
H82	H	1.177625	-0.473241	0.609798
H83	H	1.074704	-0.518285	0.591559
H84	H	1.172660	-0.532018	0.520396
H85	H	1.667445	-0.436723	1.100864
H86	H	1.122959	-0.313420	0.345809
C87	C	1.133500	-0.258388	0.653536
H88	H	1.176891	-0.239159	0.598708
H89	H	1.074600	-0.226572	0.663966
H90	H	1.173304	-0.261458	0.717113
H91	H	0.942911	-0.452544	0.397672
C92	C	1.728792	-0.324422	0.910303
H93	H	1.795698	-0.338287	0.938161
H94	H	1.731403	-0.325599	0.835246
H95	H	1.711735	-0.275751	0.933243
H96	H	1.423623	-0.259652	1.103240
H97	H	1.353563	-0.903947	0.462887
C98	C	0.931492	-0.495625	0.556512
H99	H	0.990144	-0.520074	0.587897
H100	H	0.889825	-0.473158	0.610150
H101	H	0.889802	-0.530619	0.518888
H102	H	1.401172	-0.811071	0.641347
H103	H	1.668310	-0.435763	0.918967
C104	C	1.135542	-0.388768	0.708882
H105	H	1.180719	-0.424759	0.677864
H106	H	1.173873	-0.361144	0.760106
H107	H	1.077550	-0.412876	0.741989
C108	C	1.728932	-0.325452	1.112355
H109	H	1.763840	-0.303465	1.053715
H110	H	1.696932	-0.287876	1.154085
H111	H	1.778862	-0.351816	1.153987
