data_functionalizedCrystal
_audit_creation_method	'MofGen! by Chris Wilmer'
_symmetry_space_group_name_H-M	'P1'
_symmetry_Int_Tables_number	1
_symmetry_cell_setting	triclinic
loop_
_symmetry_equiv_pos_as_xyz
  x,y,z
_cell_length_a	14.809374
_cell_length_b	20.875641
_cell_length_c	14.809426
_cell_angle_alpha	110.322763
_cell_angle_beta	88.613204
_cell_angle_gamma	50.251799
loop_
_atom_site_label
_atom_site_type_symbol
_atom_site_fract_x
_atom_site_fract_y
_atom_site_fract_z
Zr1	Zr	0.956414	0.554891	-0.013873
O2	O	0.801710	0.690967	0.126600
O3	O	1.009902	0.418816	-0.053130
O4	O	1.024349	0.524578	0.112067
O5	O	0.768969	0.609117	-0.173237
O6	O	1.193074	0.500665	0.096275
O7	O	0.787263	0.585206	-0.038598
O8	O	1.167230	0.311477	-0.199233
O9	O	0.794813	0.798305	0.122271
O10	O	1.151306	0.456940	-0.086256
O11	O	1.011736	0.492630	-0.174950
O12	O	1.028746	0.617151	0.019548
O13	O	0.889177	0.652842	-0.069146
Zr14	Zr	1.196334	0.554889	-0.253794
Zr15	Zr	1.225510	0.516753	-0.039060
Zr16	Zr	0.927237	0.593027	-0.228608
Zr17	Zr	0.945413	0.726083	-0.020777
Zr18	Zr	1.207334	0.383697	-0.246890
O19	O	1.142845	0.690964	-0.214537
O20	O	1.184330	0.636739	0.090787
O21	O	0.760225	0.745192	-0.178725
O22	O	1.351037	0.418813	-0.394267
O23	O	1.392522	0.364588	-0.088942
O24	O	0.968417	0.473041	-0.358455
O25	O	1.383778	0.500663	-0.094430
O26	O	1.128398	0.585202	-0.379735
O27	O	0.959673	0.609115	-0.363943
O28	O	1.365485	0.524574	-0.229070
O29	O	1.008708	0.767990	0.102250
O30	O	1.144039	0.341790	-0.369918
O31	O	1.357935	0.311475	-0.389938
O32	O	1.381126	0.281162	-0.219253
O33	O	0.771621	0.828618	-0.048415
O34	O	0.985517	0.798303	-0.068435
O35	O	1.124001	0.492629	-0.287216
O36	O	1.263571	0.456938	-0.198521
O37	O	1.141011	0.617150	-0.092717
O38	O	1.001441	0.652841	-0.181412
C39	C	1.090133	0.340756	-0.125198
C40	C	1.094803	0.268080	-0.122266
C41	C	0.739775	0.602595	-0.102329
C42	C	0.625537	0.618786	-0.091636
C43	C	1.024122	0.252582	-0.167165
C44	C	1.028459	0.184332	-0.164356
C45	C	1.103484	0.131578	-0.116654
C46	C	1.174168	0.147082	-0.071750
C47	C	1.169823	0.215335	-0.074553
C48	C	1.124283	-0.074543	-0.103300
C49	C	1.128625	-0.142801	-0.100503
C50	C	0.982914	-0.105545	-0.193107
C51	C	0.978582	-0.037297	-0.195911
C52	C	1.049260	-0.021795	-0.151003
N53	N	1.107922	0.061814	-0.113785
N54	N	1.044815	0.047973	-0.153866
C55	C	0.635404	0.546529	-0.139355
C56	C	0.517334	0.563261	-0.128305
C57	C	1.412972	0.507185	-0.165338
C58	C	1.527210	0.490994	-0.176031
C59	C	1.112869	0.507188	0.134766
C60	C	1.125255	0.490998	0.225927
C61	C	1.062614	0.769025	-0.142470
C62	C	1.057944	0.841700	-0.145401
C63	C	1.082770	0.546530	0.413279
C64	C	1.069971	0.563264	0.319061
C65	C	1.039879	0.602593	0.597567
C66	C	1.027494	0.618786	0.506409
C67	C	1.426732	0.293050	-0.156702
C68	C	1.545640	0.204184	-0.164464
C69	C	1.053638	0.388458	-0.393798
C70	C	1.045922	0.331972	-0.482027
C71	C	1.390237	0.340752	-0.425302
C72	C	1.496759	0.268076	-0.524224
C73	C	0.762510	0.769028	0.157635
C74	C	0.655988	0.841704	0.256557
C75	C	0.726015	0.816730	-0.110965
C76	C	0.607107	0.905596	-0.103204
C77	C	1.099109	0.721322	0.126130
C78	C	1.106825	0.777808	0.214360
C79	C	1.542881	0.162451	-0.109498
C80	C	1.654600	0.078959	-0.116770
C81	C	1.769076	0.037199	-0.179014
C82	C	1.771832	0.078939	-0.233981
C83	C	1.660115	0.162433	-0.226703
C84	C	1.100899	0.305447	-0.582071
C85	C	1.093642	0.252384	-0.664980
C86	C	1.031416	0.225842	-0.647843
C87	C	0.976433	0.252374	-0.547789
C88	C	0.983682	0.305441	-0.464881
C89	C	1.619648	0.215315	-0.524382
C90	C	1.719748	0.147034	-0.617323
C91	C	1.696956	0.131512	-0.710104
C92	C	1.574054	0.184281	-0.709943
C93	C	1.473957	0.252565	-0.617004
C94	C	0.533098	0.894474	0.256715
C95	C	0.432997	0.962776	0.349655
C96	C	0.455789	0.978302	0.442435
C97	C	0.578691	0.925528	0.442275
C98	C	0.678789	0.857232	0.349336
C99	C	0.609867	0.947335	-0.158161
C100	C	0.498150	1.030841	-0.150866
C101	C	0.383674	1.072604	-0.088619
C102	C	0.380918	1.030860	-0.033656
C103	C	0.492634	0.947359	-0.040945
C104	C	1.169061	0.804332	0.197191
C105	C	1.176335	0.857395	0.280081
C106	C	1.121365	0.883939	0.380141
C107	C	1.059127	0.857409	0.397308
C108	C	1.051862	0.804341	0.314418
H109	H	0.963030	0.295530	-0.206010
H110	H	0.970904	0.171718	-0.200917
H111	H	1.865054	0.044926	-0.284659
H112	H	0.490369	0.913379	0.003806
H113	H	0.287696	1.064876	0.017025
H114	H	1.652331	0.044984	-0.072008
H115	H	1.127290	0.927151	0.447626
H116	H	1.449680	0.196448	-0.058801
H117	H	1.013172	0.637518	0.329046
H118	H	1.778473	0.075908	-0.785774
H119	H	0.925369	-0.118173	-0.229667
H120	H	1.227377	0.227953	-0.037991
H121	H	1.555515	0.171632	-0.785498
H122	H	0.500419	1.064816	-0.195629
H123	H	1.860034	-0.030788	-0.184932
H124	H	1.227012	0.878992	0.266083
H125	H	1.373898	0.295517	-0.616889
H126	H	1.213825	0.782729	0.115724
H127	H	1.662379	0.196403	-0.271469
H128	H	1.014373	0.879029	0.478787
H129	H	1.139576	0.472279	0.403299
H130	H	0.332934	1.005735	0.349766
H131	H	1.151569	0.327052	-0.596043
H132	H	0.917498	0.005647	-0.234763
H133	H	1.189724	-0.185755	-0.061657
H134	H	0.731261	0.472280	-0.188394
H135	H	1.181834	-0.061930	-0.066736
H136	H	1.138422	0.230788	-0.746441
H137	H	0.778850	0.814265	0.349219
H138	H	0.970699	0.693035	0.516387
H139	H	0.597234	0.938178	0.517828
H140	H	0.514517	0.881839	0.181177
H141	H	0.421475	0.637516	-0.079269
H142	H	1.025522	0.182632	-0.715361
H143	H	1.182060	0.416742	0.215939
H144	H	0.925769	0.230755	-0.533851
H145	H	0.938917	0.327029	-0.383424
H146	H	1.001178	0.782752	0.328412
H147	H	1.235250	0.104129	-0.032904
H148	H	1.638230	0.227940	-0.448845
H149	H	0.623067	0.416740	-0.225074
H150	H	0.703068	0.913340	-0.208855
H151	H	1.819812	0.104073	-0.617436
H152	H	0.374271	1.033915	0.518105
H153	H	0.529679	0.693036	-0.042604
H154	H	0.292717	1.140596	-0.082692
