data_functionalizedCrystal
_audit_creation_method	'MofGen! by Chris Wilmer'
_symmetry_space_group_name_H-M	'P1'
_symmetry_Int_Tables_number	1
_symmetry_cell_setting	triclinic
loop_
_symmetry_equiv_pos_as_xyz
  x,y,z
_cell_length_a	19.077399
_cell_length_b	18.050588
_cell_length_c	19.076919
_cell_angle_alpha	87.727743
_cell_angle_beta	85.520477
_cell_angle_gamma	92.329012
loop_
_atom_site_label
_atom_site_type_symbol
_atom_site_fract_x
_atom_site_fract_y
_atom_site_fract_z
Zn1	Zn	1.061654	-0.265742	0.355399
Zn2	Zn	1.066298	-0.384741	0.237521
Zn3	Zn	0.948509	-0.265762	0.242254
Zn4	Zn	0.943726	-0.395092	0.360090
O5	O	1.005047	-0.327834	0.298816
O6	O	1.160918	-0.277187	0.335819
O7	O	1.054619	-0.364634	0.139502
O8	O	0.963575	-0.161833	0.257280
O9	O	1.164331	-0.364615	0.249215
O10	O	1.046702	-0.161818	0.340407
O11	O	0.968079	-0.277221	0.142979
O12	O	0.849225	-0.287259	0.261828
O13	O	0.955424	-0.382257	0.458115
O14	O	0.845712	-0.382277	0.348402
O15	O	1.042065	-0.287224	0.454669
O16	O	1.049981	-0.490040	0.253763
O17	O	0.959928	-0.497645	0.343814
C18	C	0.821890	-0.335894	0.306138
C19	C	0.743534	-0.339360	0.309288
C20	C	0.708528	-0.291450	0.265767
C21	C	0.634905	-0.294713	0.268726
C22	C	0.596288	-0.345884	0.315209
C23	C	0.631299	-0.393800	0.358732
C24	C	0.704922	-0.390540	0.355769
C25	C	0.375907	-0.360951	0.328893
C26	C	0.302279	-0.364207	0.331854
C27	C	0.305890	-0.265120	0.241846
C28	C	0.379514	-0.261861	0.238891
C29	C	0.414518	-0.309780	0.282411
N30	N	0.521033	-0.349220	0.318236
N31	N	0.489772	-0.306447	0.279379
C32	C	1.004958	-0.520789	0.298799
C33	C	1.004984	-0.603335	0.298812
C34	C	0.956087	-0.856320	0.347779
C35	C	1.019671	-0.804779	0.362501
C36	C	1.005129	-0.900450	0.298845
C37	C	0.941475	-0.804913	0.284140
C38	C	1.005054	-0.754468	0.298831
C39	C	1.068746	-0.849996	0.313600
C40	C	0.990508	-0.850136	0.235210
C41	C	1.054137	-0.798614	0.249906
C42	C	1.005171	-0.984547	0.298856
C43	C	1.005019	-0.670372	0.298820
C44	C	1.188918	-0.319744	0.291466
C45	C	1.267273	-0.316296	0.288333
C46	C	0.997693	-0.335893	0.482685
C47	C	0.994559	-0.339327	0.561039
C48	C	1.005154	-0.134125	0.298848
C49	C	1.005200	-0.051578	0.298862
C50	C	1.012412	-0.319751	0.115661
C51	C	1.015683	-0.316102	0.037301
C52	C	1.038194	-0.291465	0.596057
C53	C	1.035241	-0.294689	0.669679
C54	C	0.988656	-0.345780	0.708282
C55	C	0.945017	-0.393645	0.673260
C56	C	0.947967	-0.390417	0.599639
C57	C	0.974993	-0.360738	0.928658
C58	C	0.972048	-0.363965	1.002284
C59	C	1.062272	-0.265007	0.998698
C60	C	1.065220	-0.261786	0.925076
C61	C	1.021578	-0.309648	0.890060
N62	N	0.985638	-0.349079	0.783536
N63	N	1.024593	-0.306345	0.814807
H64	H	0.733423	-0.429554	0.391208
C65	C	0.413861	-0.412887	0.376268
C66	C	0.393194	-0.400662	0.446761
C67	C	0.428151	-0.448487	0.490427
H68	H	0.402214	-0.462876	0.366448
H69	H	0.463244	-0.403620	0.367898
H70	H	0.343822	-0.409934	0.455127
H71	H	0.404842	-0.350682	0.456603
H72	H	0.477534	-0.439220	0.482057
H73	H	0.416501	-0.498473	0.480600
H74	H	0.414139	-0.440194	0.538260
C75	C	0.589457	-0.449310	0.409316
C76	C	0.604616	-0.435523	0.478365
C77	C	0.566091	-0.486646	0.524984
H78	H	0.540582	-0.444437	0.404945
H79	H	0.601927	-0.498219	0.398478
H80	H	0.592141	-0.386626	0.489199
H81	H	0.653483	-0.440402	0.482758
H82	H	0.578561	-0.535556	0.514146
H83	H	0.517218	-0.481769	0.520607
H84	H	0.576376	-0.477303	0.571839
C85	C	0.267980	-0.213137	0.194474
C86	C	0.288672	-0.225334	0.123982
C87	C	0.253772	-0.177454	0.080319
H88	H	0.218595	-0.222353	0.202797
H89	H	0.279666	-0.163160	0.204344
H90	H	0.276981	-0.275299	0.114117
H91	H	0.338051	-0.216112	0.115637
H92	H	0.265458	-0.127477	0.090188
H93	H	0.204390	-0.186674	0.088648
H94	H	0.267812	-0.185718	0.032485
H95	H	0.914693	-0.881518	0.389195
H96	H	1.103157	-0.220184	0.893650
C97	C	1.036101	-0.778266	0.434305
C98	C	1.045740	-0.839640	0.479193
C99	C	1.060861	-0.815249	0.545348
H100	H	1.077818	-0.747316	0.429580
H101	H	0.998090	-0.751046	0.453464
H102	H	1.083747	-0.866847	0.460038
H103	H	1.004030	-0.870596	0.483939
H104	H	1.022851	-0.788030	0.564507
H105	H	1.102577	-0.784299	0.540616
H106	H	1.067397	-0.856888	0.575814
H107	H	1.122559	-0.869781	0.326094
H108	H	1.095625	-0.773548	0.208516
C109	C	0.973885	-0.876791	0.163515
C110	C	0.907187	-0.854096	0.148400
C111	C	0.891838	-0.878648	0.082366
H112	H	1.008168	-0.856225	0.128580
H113	H	0.974422	-0.929413	0.163915
H114	H	0.906656	-0.801485	0.147994
H115	H	0.872889	-0.874660	0.183318
H116	H	0.892374	-0.931269	0.082766
H117	H	0.926125	-0.858081	0.047437
H118	H	0.846580	-0.863259	0.072105
H119	H	0.887675	-0.785038	0.271708
C120	C	1.088684	-0.235872	0.554191
C121	C	1.072642	-0.163854	0.572714
C122	C	1.119132	-0.112619	0.534158
H123	H	1.135586	-0.245084	0.564334
H124	H	1.084189	-0.240752	0.505322
H125	H	1.077143	-0.158977	0.621572
H126	H	1.025748	-0.154619	0.562569
H127	H	1.114637	-0.117498	0.485289
H128	H	1.166031	-0.121838	0.544304
H129	H	1.108250	-0.063749	0.546716
H130	H	1.070775	-0.255716	0.698187
C131	C	0.421475	-0.206219	0.188537
C132	C	0.462154	-0.158557	0.226835
C133	C	0.500813	-0.107282	0.180477
H134	H	0.451468	-0.231871	0.156606
H135	H	0.390108	-0.178105	0.163049
H136	H	0.493518	-0.186667	0.252311
H137	H	0.432179	-0.132888	0.258763
H138	H	0.469445	-0.079168	0.154989
H139	H	0.530801	-0.132940	0.148548
H140	H	0.528413	-0.074933	0.206455
C141	C	0.597015	-0.242725	0.221339
C142	C	0.617732	-0.254932	0.150854
C143	C	0.582860	-0.207046	0.107171
H144	H	0.547627	-0.251931	0.229643
H145	H	0.608706	-0.192751	0.231209
H146	H	0.606036	-0.304895	0.140988
H147	H	0.667114	-0.245722	0.142529
H148	H	0.594552	-0.157071	0.117041
H149	H	0.533474	-0.216255	0.115481
H150	H	0.596917	-0.215317	0.059343
C151	C	1.109527	-0.212954	1.036759
C152	C	1.067943	-0.168949	1.080611
C153	C	1.111450	-0.120978	1.115675
H154	H	1.139090	-0.241183	1.064305
H155	H	1.137679	-0.182021	1.003246
H156	H	1.039804	-0.199878	1.114119
H157	H	1.038382	-0.140704	1.053082
H158	H	1.139602	-0.090045	1.082163
H159	H	1.141010	-0.149214	1.143218
H160	H	1.083242	-0.091111	1.145428
H161	H	0.934111	-0.405571	1.033713
C162	C	0.927570	-0.412780	0.890775
C163	C	0.886152	-0.458221	0.940342
C164	C	0.842456	-0.506173	0.905467
H165	H	0.897960	-0.384535	0.863295
H166	H	0.955637	-0.442740	0.860981
H167	H	0.858087	-0.428264	0.970123
H168	H	0.915743	-0.486482	0.967824
H169	H	0.870524	-0.536134	0.875673
H170	H	0.812852	-0.477922	0.877988
H171	H	0.814354	-0.537015	0.939092
H172	H	0.907084	-0.435242	0.704696
C173	C	0.900570	-0.442481	0.561744
C174	C	0.859159	-0.487935	0.611306
C175	C	0.815496	-0.535915	0.576425
H176	H	0.870956	-0.414257	0.534252
H177	H	0.928661	-0.472432	0.531962
H178	H	0.831070	-0.457987	0.641076
H179	H	0.888754	-0.516175	0.638801
H180	H	0.843587	-0.565866	0.546643
H181	H	0.785886	-0.507685	0.548933
H182	H	0.787398	-0.566766	0.610046
H183	H	0.270840	-0.405876	0.369711
H184	H	0.739965	-0.249775	0.227920
