data_functionalizedCrystal
_audit_creation_method	'MofGen! by Chris Wilmer'
_symmetry_space_group_name_H-M	'P1'
_symmetry_Int_Tables_number	1
_symmetry_cell_setting	triclinic
loop_
_symmetry_equiv_pos_as_xyz
  x,y,z
_cell_length_a	12.827893
_cell_length_b	15.297327
_cell_length_c	12.827885
_cell_angle_alpha	99.642748
_cell_angle_beta	89.980538
_cell_angle_gamma	99.706564
loop_
_atom_site_label
_atom_site_type_symbol
_atom_site_fract_x
_atom_site_fract_y
_atom_site_fract_z
Zn1	Zn	1.525604	-0.359117	-0.662774
Zn2	Zn	1.495218	-0.510002	-0.518254
Zn3	Zn	1.350836	-0.359161	-0.488057
Zn4	Zn	1.320564	-0.509935	-0.692941
O5	O	1.423055	-0.434554	-0.590506
O6	O	1.667807	-0.379142	-0.643616
O7	O	1.476017	-0.490040	-0.368022
O8	O	1.399404	-0.232910	-0.485971
O9	O	1.645482	-0.489997	-0.537438
O10	O	1.527806	-0.232878	-0.614335
O11	O	1.369940	-0.379217	-0.345836
O12	O	1.200586	-0.379152	-0.515222
O13	O	1.347811	-0.489883	-0.835166
O14	O	1.178346	-0.489925	-0.665749
O15	O	1.498453	-0.379077	-0.813003
O16	O	1.446664	-0.636239	-0.566689
O17	O	1.318347	-0.636189	-0.695031
C18	C	1.151549	-0.434537	-0.590483
C19	C	1.035393	-0.434551	-0.590502
C20	C	1.375952	-0.668948	-0.637433
C21	C	1.355896	-0.769223	-0.657544
C22	C	0.972613	-0.489451	-0.664907
C23	C	0.852560	-0.489467	-0.664929
C24	C	1.566826	-1.051858	-0.447130
C25	C	1.585669	-0.957645	-0.428230
C26	C	1.528228	-0.910535	-0.485557
C27	C	1.451940	-0.957647	-0.561787
C28	C	1.433089	-1.051869	-0.580683
C29	C	1.394491	-0.910546	-0.619110
C30	C	1.318203	-0.957658	-0.695340
C31	C	1.299357	-1.051871	-0.714233
C32	C	1.356798	-1.098981	-0.656906
C33	C	1.413341	-0.816324	-0.600214
C34	C	1.279605	-0.816335	-0.733767
C35	C	1.260762	-0.910548	-0.752667
C36	C	1.695622	-0.434572	-0.590531
C37	C	1.811773	-0.434580	-0.590541
C38	C	1.423145	-0.434468	-0.863059
C39	C	1.423183	-0.434431	-0.979205
C40	C	1.470371	-0.199245	-0.543419
C41	C	1.490535	-0.098970	-0.523353
C42	C	1.370715	-0.379581	-1.020009
C43	C	1.370753	-0.379542	-1.140052
C44	C	1.423039	-0.434575	-0.319001
C45	C	1.423255	-0.434358	-0.202805
H46	H	1.007745	-0.536437	-0.728595
F47	F	1.548508	-0.810265	-0.465664
H48	H	0.798613	-0.536471	-0.728627
H49	H	0.865713	-0.387579	-0.526834
H50	H	1.237226	-1.090228	-0.776293
F51	F	1.481979	-0.495736	-1.156894
F52	F	0.989481	-0.373125	-0.507263
H53	H	1.198647	-0.948920	-0.814734
H54	H	1.647780	-0.919290	-0.366164
F55	F	1.627947	-1.102001	-0.386126
F56	F	1.218462	-0.766202	-0.794777
F57	F	1.494530	-0.766194	-0.519086
F58	F	1.336415	-1.199255	-0.676685
H59	H	1.325762	-0.332656	-0.966073
F60	F	1.312044	-0.318157	-1.185968
H61	H	1.468129	-0.481361	-1.033142
