data_functionalizedCrystal
_audit_creation_method	'MofGen! by Chris Wilmer'
_symmetry_space_group_name_H-M	'P1'
_symmetry_Int_Tables_number	1
_symmetry_cell_setting	triclinic
loop_
_symmetry_equiv_pos_as_xyz
  x,y,z
_cell_length_a	23.532407
_cell_length_b	23.532407
_cell_length_c	9.130307
_cell_angle_alpha	90.004242
_cell_angle_beta	90.000472
_cell_angle_gamma	82.848712
loop_
_atom_site_label
_atom_site_type_symbol
_atom_site_fract_x
_atom_site_fract_y
_atom_site_fract_z
O1	O	0.755259	0.069131	0.121722
O2	O	1.088592	0.402464	0.455055
O3	O	1.421926	0.735798	0.788388
O4	O	0.589395	0.079134	0.121747
O5	O	0.922729	0.412468	0.455080
O6	O	1.256062	0.745801	0.788414
O7	O	0.677329	-0.008799	0.121707
O8	O	1.010662	0.324534	0.455040
O9	O	1.343995	0.657868	0.788373
O10	O	0.667326	0.157064	0.121762
O11	O	1.000659	0.490398	0.455095
O12	O	1.333992	0.823731	0.788429
O13	O	0.677322	-0.008793	-0.121892
O14	O	1.010656	0.324540	0.211441
O15	O	1.343989	0.657873	0.544774
O16	O	0.589389	0.079140	-0.121852
O17	O	0.922722	0.412473	0.211481
O18	O	1.256056	0.745807	0.544815
O19	O	0.755252	0.069137	-0.121877
O20	O	1.088586	0.402470	0.211456
O21	O	1.421919	0.735803	0.544789
Cu22	Cu	0.672320	0.074139	-0.144107
Cu23	Cu	1.005654	0.407472	0.189226
Cu24	Cu	1.338987	0.740806	0.522560
Cu25	Cu	0.672328	0.074132	0.143977
Cu26	Cu	1.005661	0.407465	0.477310
Cu27	Cu	1.338994	0.740799	0.810644
O28	O	0.667319	0.157070	-0.121837
O29	O	1.000653	0.490403	0.211496
O30	O	1.333986	0.823737	0.544830
C31	C	0.568176	0.078882	-0.000050
C32	C	0.901510	0.412216	0.333284
C33	C	1.234843	0.745549	0.666617
C34	C	0.504959	0.078116	-0.000041
C35	C	0.838293	0.411450	0.333292
C36	C	1.171626	0.744783	0.666625
C37	C	0.238792	0.022921	-0.000099
C38	C	0.572125	0.356254	0.333234
C39	C	0.905458	0.689588	0.666567
C40	C	0.298192	0.023632	-0.000099
C41	C	0.631525	0.356966	0.333235
C42	C	0.964859	0.690299	0.666568
O43	O	0.334937	-0.020153	-0.000164
O44	O	0.668270	0.313180	0.333169
O45	O	1.001603	0.646513	0.666503
N46	N	0.320818	0.075909	-0.000071
N47	N	0.654152	0.409242	0.333262
N48	N	0.987485	0.742575	0.666595
C49	C	0.284041	0.127477	-0.000060
C50	C	0.617374	0.460810	0.333274
C51	C	0.950707	0.794144	0.666607
O52	O	0.308740	0.172007	-0.000038
O53	O	0.642074	0.505341	0.333296
O54	O	0.975407	0.838674	0.666629
C55	C	0.224642	0.126765	-0.000071
C56	C	0.557975	0.460098	0.333263
C57	C	0.891308	0.793432	0.666596
C58	C	0.202019	0.074485	-0.000083
C59	C	0.535352	0.407819	0.333250
C60	C	0.868686	0.741152	0.666583
C61	C	0.216169	-0.029354	-0.000114
C62	C	0.549502	0.303979	0.333220
C63	C	0.882835	0.637312	0.666553
C64	C	0.156772	-0.030066	-0.000111
C65	C	0.490106	0.303268	0.333222
C66	C	0.823439	0.636601	0.666555
C67	C	0.119999	0.021499	-0.000095
C68	C	0.453333	0.354832	0.333238
C69	C	0.786666	0.688165	0.666571
C70	C	0.142623	0.073774	-0.000081
C71	C	0.475956	0.407107	0.333252
C72	C	0.809289	0.740441	0.666586
C73	C	0.187865	0.178333	-0.000069
C74	C	0.521199	0.511666	0.333264
C75	C	0.854532	0.844999	0.666597
C76	C	0.128463	0.177616	-0.000082
C77	C	0.461796	0.510949	0.333252
C78	C	0.795129	0.844283	0.666585
C79	C	0.105840	0.125336	-0.000094
C80	C	0.439173	0.458670	0.333239
C81	C	0.772507	0.792003	0.666573
C82	C	0.046454	0.124627	-0.000063
C83	C	0.379787	0.457960	0.333271
C84	C	0.713120	0.791294	0.666604
N85	N	0.023828	0.072351	-0.000090
N86	N	0.357161	0.405684	0.333243
N87	N	0.690494	0.739017	0.666577
C88	C	0.060600	0.020787	-0.000106
C89	C	0.393934	0.354120	0.333227
C90	C	0.727267	0.687453	0.666560
C91	C	0.408783	0.128968	-0.000039
C92	C	0.742117	0.462302	0.333294
C93	C	1.075450	0.795635	0.666628
C94	C	0.468181	0.129681	-0.000017
C95	C	0.801514	0.463014	0.333316
C96	C	1.134848	0.796348	0.666649
C97	C	0.482328	0.025836	-0.000059
C98	C	0.815662	0.359170	0.333274
C99	C	1.148995	0.692503	0.666607
C100	C	0.422929	0.025124	-0.000070
C101	C	0.756263	0.358457	0.333263
C102	C	1.089596	0.691791	0.666596
C103	C	0.386157	0.076692	-0.000066
C104	C	0.719490	0.410025	0.333267
C105	C	1.052824	0.743359	0.666600
C106	C	-0.064136	0.019297	-0.000101
C107	C	0.269197	0.352630	0.333233
C108	C	0.602530	0.685964	0.666566
C109	C	-0.123538	0.018590	-0.000092
C110	C	0.209795	0.351924	0.333241
C111	C	0.543128	0.685257	0.666574
C112	C	-0.137680	0.122435	-0.000058
C113	C	0.195653	0.455768	0.333275
C114	C	0.528986	0.789101	0.666608
C115	C	-0.078284	0.123142	-0.000059
C116	C	0.255050	0.456475	0.333275
C117	C	0.588383	0.789808	0.666608
C118	C	-0.041512	0.071568	-0.000085
C119	C	0.291821	0.404901	0.333248
C120	C	0.625154	0.738235	0.666582
O121	O	0.009675	0.168390	-0.000003
O122	O	0.343008	0.501723	0.333330
O123	O	0.676341	0.835057	0.666663
O124	O	0.035892	-0.023737	-0.000148
O125	O	0.369226	0.309597	0.333186
O126	O	0.702559	0.642930	0.666519
C127	C	0.677071	-0.030012	-0.000096
C128	C	1.010404	0.303321	0.333237
C129	C	1.343738	0.636654	0.666570
C130	C	0.676305	-0.093229	-0.000108
C131	C	1.009638	0.240104	0.333226
C132	C	1.342972	0.573437	0.666559
C133	C	0.776472	0.069389	-0.000077
C134	C	1.109805	0.402722	0.333256
C135	C	1.443138	0.736055	0.666589
C136	C	0.839689	0.070155	-0.000076
C137	C	1.173022	0.403488	0.333257
C138	C	1.506355	0.736821	0.666590
C139	C	0.723538	-0.492332	-0.000034
C140	C	1.056872	-0.158999	0.333299
C141	C	1.390205	0.174334	0.666632
C142	C	0.722827	-0.551733	-0.000023
C143	C	1.056160	-0.218399	0.333310
C144	C	1.389494	0.114934	0.666643
O145	O	0.766613	-0.588477	0.000024
O146	O	1.099946	-0.255144	0.333357
O147	O	1.433280	0.078190	0.666691
N148	N	0.670551	-0.574359	-0.000016
N149	N	1.003884	-0.241025	0.333317
N150	N	1.337217	0.092308	0.666650
C151	C	0.618982	-0.537581	-0.000006
C152	C	0.952316	-0.204248	0.333328
C153	C	1.285649	0.129085	0.666661
O154	O	0.574452	-0.562281	0.000002
O155	O	0.907785	-0.228948	0.333336
O156	O	1.241119	0.104386	0.666669
C157	C	0.619695	-0.478182	-0.000007
C158	C	0.953028	-0.144849	0.333327
C159	C	1.286361	0.188485	0.666660
C160	C	0.671974	-0.455559	-0.000028
C161	C	1.005308	-0.122226	0.333305
C162	C	1.338641	0.211107	0.666638
C163	C	0.775814	-0.469709	-0.000055
C164	C	1.109147	-0.136376	0.333279
C165	C	1.442481	0.196958	0.666612
C166	C	0.776525	-0.410313	-0.000069
C167	C	1.109858	-0.076980	0.333265
C168	C	1.443192	0.256354	0.666598
C169	C	0.724961	-0.373540	-0.000062
C170	C	1.058294	-0.040207	0.333271
C171	C	1.391628	0.293127	0.666604
C172	C	0.672685	-0.396163	-0.000042
C173	C	1.006019	-0.062830	0.333291
C174	C	1.339352	0.270503	0.666624
C175	C	0.568127	-0.441406	0.000014
C176	C	0.901460	-0.108072	0.333348
C177	C	1.234794	0.225261	0.666681
C178	C	0.568843	-0.382003	0.000015
C179	C	0.902177	-0.048670	0.333348
C180	C	1.235510	0.284663	0.666682
C181	C	0.621123	-0.359381	-0.000007
C182	C	0.954457	-0.026047	0.333326
C183	C	1.287790	0.307286	0.666660
C184	C	0.621832	-0.299994	-0.000050
C185	C	0.955166	0.033339	0.333283
C186	C	1.288499	0.366672	0.666617
N187	N	0.674109	-0.277368	-0.000057
N188	N	1.007442	0.055965	0.333276
N189	N	1.340775	0.389299	0.666610
C190	C	0.725673	-0.314141	-0.000063
C191	C	1.059006	0.019192	0.333270
C192	C	1.392340	0.352526	0.666604
C193	C	0.617491	-0.662324	-0.000002
C194	C	0.950824	-0.328990	0.333332
C195	C	1.284158	0.004343	0.666665
C196	C	0.616778	-0.721722	-0.000011
C197	C	0.950112	-0.388388	0.333322
C198	C	1.283445	-0.055055	0.666655
C199	C	0.720623	-0.735869	-0.000026
C200	C	1.053957	-0.402536	0.333307
C201	C	1.387290	-0.069202	0.666641
C202	C	0.721335	-0.676470	-0.000027
C203	C	1.054669	-0.343137	0.333306
C204	C	1.388002	-0.009803	0.666640
C205	C	0.669767	-0.639698	-0.000009
C206	C	1.003101	-0.306364	0.333325
C207	C	1.336434	0.026969	0.666658
C208	C	0.727163	-0.189404	-0.000094
C209	C	1.060496	0.143929	0.333240
C210	C	1.393829	0.477262	0.666573
C211	C	0.727869	-0.130002	-0.000114
C212	C	1.061203	0.203331	0.333220
C213	C	1.394536	0.536664	0.666553
C214	C	0.624025	-0.115860	-0.000091
C215	C	0.957358	0.217473	0.333242
C216	C	1.290691	0.550807	0.666575
C217	C	0.623318	-0.175257	-0.000079
C218	C	0.956651	0.158076	0.333254
C219	C	1.289984	0.491410	0.666588
C220	C	0.674891	-0.212028	-0.000075
C221	C	1.008225	0.121305	0.333258
C222	C	1.341558	0.454639	0.666591
O223	O	0.578069	-0.263215	-0.000091
O224	O	0.911403	0.070118	0.333242
O225	O	1.244736	0.403452	0.666575
O226	O	0.770196	-0.289433	-0.000052
O227	O	1.103529	0.043900	0.333281
O228	O	1.436863	0.377234	0.666615
C229	C	0.667577	0.178283	-0.000031
C230	C	1.000910	0.511617	0.333303
C231	C	1.334244	0.844950	0.666636
C232	C	0.668343	0.241500	-0.000010
C233	C	1.001676	0.574834	0.333323
C234	C	1.335010	0.908167	0.666657
N235	N	0.672319	0.074143	-0.346730
N236	N	1.005652	0.407477	-0.013397
N237	N	1.338986	0.740810	0.319937
C238	C	0.603654	0.005383	-0.653403
C239	C	0.936987	0.338716	-0.320070
C240	C	1.270320	0.672049	0.013264
C241	C	0.569307	-0.028980	-0.576738
C242	C	0.902641	0.304353	-0.243404
C243	C	1.235974	0.637687	0.089929
C244	C	0.569297	-0.028969	-0.423404
C245	C	0.902630	0.304364	-0.090071
C246	C	1.235963	0.637697	0.243262
C247	C	0.603637	0.005407	-0.346733
C248	C	0.936970	0.338740	-0.013399
C249	C	1.270304	0.672073	0.319934
C250	C	0.637984	0.039770	-0.423398
C251	C	0.971317	0.373103	-0.090065
C252	C	1.304650	0.706436	0.243269
C253	C	0.637989	0.039756	-0.576735
C254	C	0.971323	0.373090	-0.243402
C255	C	1.304656	0.706423	0.089932
C256	C	0.706665	0.108506	-0.423395
C257	C	1.039999	0.441839	-0.090062
C258	C	1.373332	0.775173	0.243271
C259	C	0.706674	0.108499	-0.576729
C260	C	1.040007	0.441833	-0.243395
C261	C	1.373341	0.775166	0.089938
C262	C	0.741006	0.142882	-0.346724
C263	C	1.074339	0.476215	-0.013390
C264	C	1.407673	0.809549	0.319943
C265	C	0.775350	0.177249	-0.423389
C266	C	1.108684	0.510582	-0.090056
C267	C	1.442017	0.843916	0.243278
C268	C	0.775359	0.177237	-0.576732
C269	C	1.108692	0.510571	-0.243398
C270	C	1.442026	0.843904	0.089935
C271	C	0.741020	0.142862	-0.653394
C272	C	1.074354	0.476195	-0.320061
C273	C	1.407687	0.809529	0.013273
N274	N	0.672333	0.074123	0.346600
N275	N	1.005667	0.407457	0.679933
N276	N	1.339000	0.740790	1.013266
H277	H	0.404515	-0.017447	-0.000082
H278	H	0.737848	0.315887	0.333252
H279	H	1.071181	0.649220	0.666585
H280	H	-0.059864	0.165712	-0.000047
H281	H	0.273470	0.499045	0.333286
H282	H	0.606803	0.832379	0.666620
Cl283	Cl	-0.183920	0.187255	-0.000031
Cl284	Cl	0.149414	0.520588	0.333302
Cl285	Cl	0.482747	0.853921	0.666635
H286	H	0.770443	-0.111587	-0.000135
H287	H	1.103777	0.221747	0.333198
H288	H	1.437110	0.555080	0.666531
Cl289	Cl	0.603658	0.005374	-0.846166
Cl290	Cl	0.936991	0.338707	-0.512833
Cl291	Cl	1.270324	0.672040	-0.179500
Cl292	Cl	0.528568	-0.038988	-0.000079
Cl293	Cl	0.861902	0.294345	0.333254
Cl294	Cl	1.195235	0.627679	0.666588
Cl295	Cl	0.551053	-0.750154	-0.000012
Cl296	Cl	0.884386	-0.416820	0.333321
Cl297	Cl	1.217719	-0.083487	0.666654
Cl298	Cl	0.526139	-0.072193	-0.673131
Cl299	Cl	0.859472	0.261140	-0.339798
Cl300	Cl	1.192805	0.594473	-0.006464
Cl301	Cl	0.362560	0.193803	-0.000015
Cl302	Cl	0.695893	0.527137	0.333319
Cl303	Cl	1.029227	0.860470	0.666652
Cl304	Cl	0.791999	-0.235622	-0.000091
Cl305	Cl	1.125332	0.097712	0.333242
Cl306	Cl	1.458666	0.431045	0.666575
H307	H	0.526850	-0.352065	0.000032
H308	H	0.860183	-0.018732	0.333365
H309	H	1.193516	0.314601	0.666699
H310	H	0.819097	-0.391900	-0.000080
H311	H	1.152430	-0.058566	0.333253
H312	H	1.485763	0.274767	0.666586
H313	H	0.817806	-0.499644	-0.000054
H314	H	1.151140	-0.166311	0.333279
H315	H	1.484473	0.167022	0.666612
H316	H	0.575496	-0.632386	0.000001
H317	H	0.908829	-0.299053	0.333334
H318	H	1.242162	0.034281	0.666667
H319	H	0.763906	-0.658055	-0.000043
H320	H	1.097239	-0.324722	0.333290
H321	H	1.430573	0.008612	0.666623
H322	H	-0.141954	-0.023984	-0.000099
H323	H	0.191379	0.309349	0.333235
H324	H	0.524713	0.642683	0.666568
Cl325	Cl	0.128342	-0.095792	-0.000114
Cl326	Cl	0.461675	0.237541	0.333219
Cl327	Cl	0.795008	0.570874	0.666552
H328	H	0.803310	0.205232	-0.360951
H329	H	1.136644	0.538566	-0.027618
H330	H	1.469977	0.871899	0.305716
H331	H	0.803330	0.205218	-0.639144
H332	H	1.136664	0.538551	-0.305810
H333	H	1.469997	0.871884	0.027523
H334	H	0.486595	0.172252	0.000013
H335	H	0.819928	0.505586	0.333347
H336	H	1.153261	0.838919	0.666680
Cl337	Cl	0.526126	-0.072176	-0.327021
Cl338	Cl	0.859459	0.261157	0.006313
Cl339	Cl	1.192792	0.594491	0.339646
Cl340	Cl	0.603632	0.005410	-0.153969
Cl341	Cl	0.936965	0.338743	0.179364
Cl342	Cl	1.270298	0.672076	0.512697
Cl343	Cl	0.502400	-0.469830	0.000051
Cl344	Cl	0.835733	-0.136497	0.333385
Cl345	Cl	1.169066	0.196836	0.666718
H346	H	0.580747	-0.193677	-0.000102
H347	H	0.914081	0.139656	0.333231
H348	H	1.247414	0.472990	0.666565
Cl349	Cl	0.262388	-0.094187	-0.000135
Cl350	Cl	0.595721	0.239146	0.333198
Cl351	Cl	0.929054	0.572479	0.666532
Cl352	Cl	0.740997	0.142891	-0.153960
Cl353	Cl	1.074330	0.476225	0.179373
Cl354	Cl	1.407664	0.809558	0.512706
H355	H	0.206274	0.220904	-0.000053
H356	H	0.539607	0.554238	0.333281
H357	H	0.872940	0.887571	0.666614
H358	H	-0.034204	-0.022699	-0.000121
H359	H	0.299130	0.310634	0.333212
H360	H	0.632463	0.643967	0.666545
Cl361	Cl	0.082238	0.242449	-0.000082
Cl362	Cl	0.415571	0.575782	0.333251
Cl363	Cl	0.748904	0.909115	0.666584
H364	H	0.582043	-0.085909	-0.000091
H365	H	0.915376	0.247424	0.333242
H366	H	1.248709	0.580758	0.666575
H367	H	0.762610	-0.765821	-0.000026
H368	H	1.095943	-0.432487	0.333308
H369	H	1.429276	-0.099154	0.666641
H370	H	0.741023	0.142851	-0.778246
H371	H	1.074356	0.476184	-0.444913
H372	H	1.407689	0.809518	-0.111580
