data_functionalizedCrystal
_audit_creation_method	'MofGen! by Chris Wilmer'
_symmetry_space_group_name_H-M	'P1'
_symmetry_Int_Tables_number	1
_symmetry_cell_setting	triclinic
loop_
_symmetry_equiv_pos_as_xyz
  x,y,z
_cell_length_a	14.519731
_cell_length_b	15.995292
_cell_length_c	13.596369
_cell_angle_alpha	89.997200
_cell_angle_beta	90.006024
_cell_angle_gamma	83.578735
loop_
_atom_site_label
_atom_site_type_symbol
_atom_site_fract_x
_atom_site_fract_y
_atom_site_fract_z
O1	O	1.223633	0.109841	0.081786
O2	O	1.723633	0.609841	0.581786
O3	O	0.955133	0.122748	0.081787
O4	O	1.455133	0.622748	0.581787
O5	O	1.096751	-0.005585	0.081788
O6	O	1.596751	0.494415	0.581788
O7	O	1.082015	0.238174	0.081785
O8	O	1.582015	0.738174	0.581785
O9	O	1.096733	-0.005578	-0.081795
O10	O	1.596733	0.494422	0.418205
O11	O	0.955115	0.122755	-0.081796
O12	O	1.455115	0.622755	0.418204
O13	O	1.223616	0.109848	-0.081797
O14	O	1.723616	0.609848	0.418203
Zn15	Zn	1.089363	0.116303	-0.107769
Zn16	Zn	1.589363	0.616303	0.392231
Zn17	Zn	1.089386	0.116293	0.107759
Zn18	Zn	1.589386	0.616293	0.607759
O19	O	1.081998	0.238181	-0.081798
O20	O	1.581998	0.738181	0.418202
C21	C	0.920766	0.122147	-0.000004
C22	C	1.420766	0.622147	0.499996
C23	C	0.818389	0.120335	-0.000004
C24	C	1.318389	0.620335	0.499996
C25	C	0.735248	0.118862	0.000000
C26	C	1.235248	0.618862	0.500000
C27	C	0.630943	0.117022	0.000001
C28	C	1.130943	0.617022	0.500001
C29	C	0.547807	0.115562	0.000001
C30	C	1.047807	0.615562	0.500001
C31	C	0.443495	0.113722	0.000003
C32	C	0.943495	0.613722	0.500003
C33	C	1.096142	-0.036778	-0.000001
C34	C	1.596142	0.463222	0.499999
C35	C	1.094344	-0.129734	0.000007
C36	C	1.594344	0.370266	0.500007
C37	C	1.087734	-0.467482	-0.000002
C38	C	1.587734	0.032518	0.499998
C39	C	1.189950	-0.444010	-0.000368
C40	C	1.689950	0.055990	0.499632
C41	C	1.191893	-0.347331	0.000004
C42	C	1.691893	0.152669	0.500004
C43	C	1.091014	-0.299921	0.000001
C44	C	1.591014	0.200079	0.500001
C45	C	1.039921	-0.329107	0.093412
C46	C	1.539921	0.170893	0.593412
C47	C	1.038690	-0.425899	0.093487
C48	C	1.538690	0.074101	0.593487
C49	C	1.036583	-0.425751	-0.092537
C50	C	1.536583	0.074249	0.407463
C51	C	1.040371	-0.329253	-0.093768
C52	C	1.540371	0.170747	0.406232
C53	C	1.092862	-0.205222	0.000007
C54	C	1.592862	0.294778	0.500007
C55	C	1.085883	-0.562181	-0.000001
C56	C	1.585883	-0.062181	0.499999
C57	C	1.257983	0.110449	-0.000003
C58	C	1.757983	0.610449	0.499997
C59	C	1.360359	0.112261	0.000003
C60	C	1.860359	0.612261	0.500003
C61	C	1.082606	0.269374	-0.000007
C62	C	1.582606	0.769374	0.499993
C63	C	1.084404	0.362330	-0.000008
C64	C	1.584404	0.862330	0.499992
N65	N	1.089354	0.116309	-0.254860
N66	N	1.589354	0.616309	0.245140
C67	C	1.089358	0.116310	-0.343858
C68	C	1.589358	0.616310	0.156142
C69	C	1.089367	0.116305	-0.455510
C70	C	1.589367	0.616305	0.044490
C71	C	1.089379	0.116295	-0.544500
C72	C	1.589379	0.616295	-0.044500
C73	C	1.089390	0.116290	-0.656159
C74	C	1.589390	0.616290	-0.156159
N75	N	1.089402	0.116281	0.254851
N76	N	1.589402	0.616281	0.754851
H77	H	1.231908	-0.328241	-0.066955
H78	H	1.731908	0.171759	0.433045
C79	C	1.243172	-0.481751	-0.090864
C80	C	1.743172	0.018249	0.409136
N81	N	1.283260	-0.510184	-0.159029
N82	N	1.783260	-0.010184	0.340971
H83	H	1.229137	-0.472969	0.066245
H84	H	1.729137	0.027031	0.566245
H85	H	0.961344	-0.439860	-0.093169
H86	H	1.461344	0.060140	0.406831
C87	C	0.939637	-0.286206	0.098110
C88	C	1.439637	0.213794	0.598110
N89	N	0.864104	-0.253891	0.101648
N90	N	1.364104	0.246109	0.601648
C91	C	1.246286	-0.322382	0.090627
C92	C	1.746286	0.177618	0.590627
N93	N	1.287255	-0.303591	0.158889
N94	N	1.787255	0.196409	0.658889
C95	C	1.087878	-0.301944	0.187330
C96	C	1.587878	0.198056	0.687330
N97	N	1.124005	-0.281489	0.258066
N98	N	1.624005	0.218511	0.758066
H99	H	1.068766	-0.453786	-0.163343
H100	H	1.568766	0.046214	0.336657
H101	H	1.074090	-0.452663	0.163315
H102	H	1.574090	0.047337	0.663315
C103	C	0.937446	-0.445717	0.099231
C104	C	1.437446	0.054283	0.599231
N105	N	0.861190	-0.460641	0.103567
N106	N	1.361190	0.039359	0.603567
C107	C	1.090609	-0.304060	-0.187129
C108	C	1.590609	0.195940	0.312871
N109	N	1.128443	-0.285071	-0.257447
N110	N	1.628443	0.214929	0.242553
C111	C	0.940894	-0.284872	-0.101391
C112	C	1.440894	0.215128	0.398609
N113	N	0.865963	-0.251445	-0.107125
N114	N	1.365963	0.248555	0.392875
