data_functionalizedCrystal
_audit_creation_method	'MofGen! by Chris Wilmer'
_symmetry_space_group_name_H-M	'P1'
_symmetry_Int_Tables_number	1
_symmetry_cell_setting	triclinic
loop_
_symmetry_equiv_pos_as_xyz
  x,y,z
_cell_length_a	17.077404
_cell_length_b	16.120444
_cell_length_c	17.077396
_cell_angle_alpha	92.869489
_cell_angle_beta	89.978556
_cell_angle_gamma	92.924939
loop_
_atom_site_label
_atom_site_type_symbol
_atom_site_fract_x
_atom_site_fract_y
_atom_site_fract_z
Zn1	Zn	1.184187	-0.331947	-0.459719
Zn2	Zn	1.517520	0.001386	-0.126386
Zn3	Zn	1.850853	0.334719	0.206947
Zn4	Zn	1.177429	-0.471371	-0.335105
Zn5	Zn	1.510762	-0.138038	-0.001771
Zn6	Zn	1.844095	0.195295	0.331562
Zn7	Zn	1.052917	-0.331972	-0.328464
Zn8	Zn	1.386251	0.001362	0.004869
Zn9	Zn	1.719584	0.334695	0.338203
Zn10	Zn	1.046224	-0.471317	-0.466321
Zn11	Zn	1.379557	-0.137984	-0.132988
Zn12	Zn	1.712891	0.195349	0.200345
O13	O	1.115189	-0.401652	-0.397402
O14	O	1.448522	-0.068319	-0.064069
O15	O	1.781856	0.265015	0.269264
O16	O	1.293136	-0.350455	-0.443205
O17	O	1.626470	-0.017121	-0.109872
O18	O	1.959803	0.316212	0.223462
O19	O	1.160885	-0.452913	-0.224378
O20	O	1.494218	-0.119579	0.108955
O21	O	1.827552	0.213754	0.442288
O22	O	1.075960	-0.215302	-0.340333
O23	O	1.409293	0.118031	-0.007000
O24	O	1.742626	0.451364	0.326334
O25	O	1.288171	-0.452889	-0.351651
O26	O	1.621505	-0.119556	-0.018318
O27	O	1.954838	0.213778	0.315015
O28	O	1.172403	-0.215284	-0.436766
O29	O	1.505736	0.118049	-0.103433
O30	O	1.839069	0.451382	0.229901
O31	O	1.069407	-0.350496	-0.219499
O32	O	1.402740	-0.017163	0.113834
O33	O	1.736074	0.316170	0.447167
O34	O	0.942183	-0.350444	-0.346735
O35	O	1.275516	-0.017110	-0.013401
O36	O	1.608850	0.316223	0.319932
O37	O	1.064552	-0.452797	-0.575291
O38	O	1.397885	-0.119463	-0.241957
O39	O	1.731219	0.213870	0.091376
O40	O	0.937266	-0.452820	-0.448018
O41	O	1.270599	-0.119487	-0.114685
O42	O	1.603932	0.213846	0.218649
O43	O	1.165913	-0.350402	-0.570440
O44	O	1.499246	-0.017069	-0.237107
O45	O	1.832579	0.316265	0.096226
O46	O	1.154395	-0.588030	-0.358053
O47	O	1.487728	-0.254697	-0.024720
O48	O	1.821062	0.078636	0.308614
O49	O	1.057999	-0.587991	-0.454457
O50	O	1.391333	-0.254657	-0.121124
O51	O	1.724666	0.078676	0.212210
C52	C	0.911242	-0.401629	-0.397373
C53	C	1.244576	-0.068296	-0.064039
C54	C	1.577909	0.265037	0.269294
C55	C	0.823992	-0.401640	-0.397379
C56	C	1.157325	-0.068306	-0.064046
C57	C	1.490659	0.265027	0.269287
C58	C	0.450754	-0.348433	-0.445189
C59	C	0.784087	-0.015100	-0.111855
C60	C	1.117420	0.318233	0.221478
C61	C	0.532734	-0.348427	-0.445180
C62	C	0.866068	-0.015094	-0.111847
C63	C	1.199401	0.318240	0.221487
C64	C	0.571142	-0.401670	-0.397423
C65	C	0.904475	-0.068336	-0.064090
C66	C	1.237808	0.264997	0.269244
C67	C	0.527564	-0.454927	-0.349677
C68	C	0.860897	-0.121594	-0.016344
C69	C	1.194230	0.211739	0.316989
C70	C	0.445584	-0.454937	-0.349691
C71	C	0.778917	-0.121604	-0.016358
C72	C	1.112251	0.211730	0.316976
C73	C	0.698435	-0.454902	-0.349651
C74	C	1.031768	-0.121569	-0.016318
C75	C	1.365101	0.211764	0.317016
C76	C	0.780420	-0.454892	-0.349636
C77	C	1.113753	-0.121558	-0.016303
C78	C	1.447087	0.211775	0.317031
C79	C	0.785585	-0.348392	-0.445140
C80	C	1.118918	-0.015059	-0.111806
C81	C	1.452252	0.318274	0.221527
C82	C	0.703606	-0.348402	-0.445153
C83	C	1.036939	-0.015069	-0.111820
C84	C	1.370272	0.318265	0.221513
C85	C	0.660033	-0.401659	-0.397407
C86	C	0.993367	-0.068326	-0.064073
C87	C	1.326700	0.265008	0.269260
C88	C	1.104759	-0.618261	-0.407709
C89	C	1.438092	-0.284927	-0.074376
C90	C	1.771425	0.048406	0.258958
C91	C	1.100368	-0.710927	-0.412145
C92	C	1.433702	-0.377593	-0.078811
C93	C	1.767035	-0.044260	0.254522
C94	C	1.138156	-0.921869	-0.374561
C95	C	1.471490	-0.588536	-0.041228
C96	C	1.804823	-0.255202	0.292105
C97	C	1.092367	-0.880584	-0.420251
C98	C	1.425701	-0.547250	-0.086918
C99	C	1.759034	-0.213917	0.246415
C100	C	1.096820	-0.786178	-0.415739
C101	C	1.430154	-0.452844	-0.082406
C102	C	1.763487	-0.119511	0.250927
C103	C	1.133704	-1.016283	-0.379072
C104	C	1.467037	-0.682950	-0.045739
C105	C	1.800371	-0.349617	0.287594
C106	C	1.319932	-0.401675	-0.397433
C107	C	1.653266	-0.068342	-0.064099
C108	C	1.986599	0.264991	0.269234
C109	C	1.407182	-0.401685	-0.397445
C110	C	1.740515	-0.068352	-0.064112
C111	C	2.073848	0.264982	0.269221
C112	C	1.115240	-0.401591	-0.602144
C113	C	1.448573	-0.068257	-0.268810
C114	C	1.781906	0.265076	0.064523
C115	C	1.115261	-0.401564	-0.689392
C116	C	1.448594	-0.068231	-0.356059
C117	C	1.781928	0.265102	-0.022726
C118	C	1.125682	-0.184197	-0.387072
C119	C	1.459015	0.149136	-0.053739
C120	C	1.792348	0.482469	0.279594
C121	C	1.130153	-0.091531	-0.382670
C122	C	1.463486	0.241802	-0.049337
C123	C	1.796819	0.575136	0.283996
C124	C	1.168041	-0.348243	-0.727858
C125	C	1.501375	-0.014910	-0.394525
C126	C	1.834708	0.318424	-0.061191
C127	C	1.168052	-0.348215	-0.809837
C128	C	1.501386	-0.014882	-0.476504
C129	C	1.834719	0.318451	-0.143170
C130	C	1.115286	-0.401514	-0.853349
C131	C	1.448619	-0.068180	-0.520016
C132	C	1.781952	0.265153	-0.186683
C133	C	1.062500	-0.454837	-0.814878
C134	C	1.395833	-0.121504	-0.481545
C135	C	1.729166	0.211829	-0.148211
C136	C	1.062486	-0.454860	-0.732900
C137	C	1.395819	-0.121527	-0.399567
C138	C	1.729152	0.211806	-0.066234
C139	C	1.062534	-0.454787	-0.985746
C140	C	1.395867	-0.121454	-0.652413
C141	C	1.729200	0.211880	-0.319079
C142	C	1.062548	-0.454766	-1.067730
C143	C	1.395882	-0.121432	-0.734396
C144	C	1.729215	0.211901	-0.401063
C145	C	1.168100	-0.348142	-1.062683
C146	C	1.501433	-0.014809	-0.729349
C147	C	1.834767	0.318524	-0.396016
C148	C	1.168086	-0.348165	-0.980705
C149	C	1.501420	-0.014832	-0.647372
C150	C	1.834753	0.318501	-0.314038
C151	C	1.115301	-0.401490	-0.942239
C152	C	1.448634	-0.068157	-0.608906
C153	C	1.781968	0.265177	-0.275573
C154	C	1.115187	-0.401653	-0.193454
C155	C	1.448520	-0.068320	0.139879
C156	C	1.781854	0.265014	0.473212
C157	C	1.115329	-0.401444	-0.106195
C158	C	1.448662	-0.068111	0.227138
C159	C	1.781995	0.265222	0.560472
H160	H	0.568207	-0.305067	-0.484060
H161	H	0.901541	0.028266	-0.150727
H162	H	1.234874	0.361600	0.182607
H163	H	1.019580	-0.498164	-1.103155
H164	H	1.352913	-0.164831	-0.769822
H165	H	1.686246	0.168503	-0.436489
Cl166	Cl	0.402479	-0.281491	-0.505225
Cl167	Cl	0.735812	0.051842	-0.171892
Cl168	Cl	1.069145	0.385175	0.161441
Cl169	Cl	0.655323	-0.281464	-0.505188
Cl170	Cl	0.988657	0.051869	-0.171855
Cl171	Cl	1.321990	0.385202	0.161478
Cl172	Cl	1.234384	-0.281239	-0.673165
Cl173	Cl	1.567718	0.052094	-0.339831
Cl174	Cl	1.901051	0.385427	-0.006498
H175	H	1.180699	-0.886318	-0.332059
H176	H	1.514032	-0.552984	0.001274
H177	H	1.847365	-0.219651	0.334608
Cl178	Cl	1.234441	-0.281217	-0.858192
Cl179	Cl	1.567774	0.052117	-0.524859
Cl180	Cl	1.901108	0.385450	-0.191525
Cl181	Cl	0.840361	-0.281436	-0.505159
Cl182	Cl	1.173695	0.051897	-0.171826
Cl183	Cl	1.507028	0.385231	0.161507
H184	H	1.211079	-0.304722	-1.094005
H185	H	1.544412	0.028612	-0.760672
H186	H	1.877745	0.361945	-0.427338
Cl187	Cl	0.575847	-0.521865	-0.289643
Cl188	Cl	0.909180	-0.188532	0.043690
Cl189	Cl	1.242514	0.144802	0.377023
H190	H	0.662960	-0.498273	-0.310774
H191	H	0.996293	-0.164940	0.022559
H192	H	1.329627	0.168393	0.355892
Cl193	Cl	0.996128	-0.521893	-0.684543
Cl194	Cl	1.329461	-0.188560	-0.351210
Cl195	Cl	1.662795	0.144774	-0.017877
H196	H	0.811689	-0.498249	-0.310750
H197	H	1.145022	-0.164915	0.022583
H198	H	1.478355	0.168418	0.355916
H199	H	0.410108	-0.498302	-0.310815
H200	H	0.743442	-0.164968	0.022518
H201	H	1.076775	0.168365	0.355852
Cl202	Cl	1.026676	-0.935475	-0.485873
Cl203	Cl	1.360009	-0.602141	-0.152539
Cl204	Cl	1.693343	-0.268808	0.180794
H205	H	1.211058	-0.304770	-0.945279
H206	H	1.544391	0.028564	-0.611946
H207	H	1.877724	0.361897	-0.278613
Cl208	Cl	0.996173	-0.521824	-0.937390
Cl209	Cl	1.329506	-0.188491	-0.604057
Cl210	Cl	1.662840	0.144842	-0.270724
H211	H	1.019534	-0.498231	-0.850312
H212	H	1.352867	-0.164897	-0.516979
H213	H	1.686200	0.168436	-0.183646
