data_functionalizedCrystal
_audit_creation_method	'MofGen! by Chris Wilmer'
_symmetry_space_group_name_H-M	'P1'
_symmetry_Int_Tables_number	1
_symmetry_cell_setting	triclinic
loop_
_symmetry_equiv_pos_as_xyz
  x,y,z
_cell_length_a	18.215407
_cell_length_b	18.101395
_cell_length_c	18.215399
_cell_angle_alpha	89.973573
_cell_angle_beta	89.980167
_cell_angle_gamma	90.031552
loop_
_atom_site_label
_atom_site_type_symbol
_atom_site_fract_x
_atom_site_fract_y
_atom_site_fract_z
Zn1	Zn	1.125040	-0.294828	-0.416124
Zn2	Zn	1.458373	0.038505	-0.082790
Zn3	Zn	1.791707	0.371838	0.250543
Zn4	Zn	1.124935	-0.418675	-0.293061
Zn5	Zn	1.458269	-0.085341	0.040273
Zn6	Zn	1.791602	0.247992	0.373606
Zn7	Zn	1.001973	-0.294853	-0.293071
Zn8	Zn	1.335306	0.038481	0.040262
Zn9	Zn	1.668639	0.371814	0.373596
Zn10	Zn	1.001925	-0.418634	-0.416086
Zn11	Zn	1.335259	-0.085300	-0.082752
Zn12	Zn	1.668592	0.248033	0.250581
O13	O	1.063468	-0.356747	-0.354585
O14	O	1.396802	-0.023414	-0.021252
O15	O	1.730135	0.309919	0.312081
O16	O	1.228010	-0.311264	-0.399811
O17	O	1.561344	0.022069	-0.066477
O18	O	1.894677	0.355403	0.266856
O19	O	1.108600	-0.402277	-0.190078
O20	O	1.441933	-0.068944	0.143256
O21	O	1.775267	0.264390	0.476589
O22	O	1.018362	-0.191216	-0.309415
O23	O	1.351695	0.142117	0.023919
O24	O	1.685028	0.475450	0.357252
O25	O	1.227933	-0.402253	-0.309397
O26	O	1.561267	-0.068920	0.023937
O27	O	1.894600	0.264413	0.357270
O28	O	1.108779	-0.191199	-0.399821
O29	O	1.442112	0.142135	-0.066487
O30	O	1.775445	0.475468	0.266846
O31	O	1.018260	-0.311305	-0.190085
O32	O	1.351593	0.022028	0.143248
O33	O	1.684927	0.355361	0.476581
O34	O	0.898982	-0.311265	-0.309378
O35	O	1.232316	0.022068	0.023956
O36	O	1.565649	0.355401	0.357289
O37	O	1.018281	-0.402183	-0.519075
O38	O	1.351614	-0.068850	-0.185742
O39	O	1.684947	0.264484	0.147592
O40	O	0.898947	-0.402207	-0.399756
O41	O	1.232281	-0.068873	-0.066422
O42	O	1.565614	0.264460	0.266911
O43	O	1.108733	-0.311224	-0.519103
O44	O	1.442066	0.022109	-0.185770
O45	O	1.775399	0.355443	0.147564
O46	O	1.108554	-0.522302	-0.309360
O47	O	1.441887	-0.188969	0.023974
O48	O	1.775221	0.144364	0.357307
O49	O	1.018179	-0.522272	-0.399746
O50	O	1.351512	-0.188939	-0.066412
O51	O	1.684846	0.144395	0.266921
C52	C	0.872262	-0.356735	-0.354564
C53	C	1.205595	-0.023401	-0.021231
C54	C	1.538929	0.309932	0.312103
C55	C	0.790463	-0.356747	-0.354572
C56	C	1.123797	-0.023414	-0.021239
C57	C	1.457130	0.309920	0.312094
C58	C	1.063370	-0.549158	-0.354564
C59	C	1.396703	-0.215825	-0.021230
C60	C	1.730037	0.117509	0.312103
C61	C	1.063395	-0.631472	-0.354579
C62	C	1.396728	-0.298139	-0.021246
C63	C	1.730062	0.035195	0.312088
C64	C	0.602270	-0.404175	-0.401573
C65	C	0.935604	-0.070841	-0.068240
C66	C	1.268937	0.262492	0.265093
C67	C	0.525412	-0.404177	-0.401583
C68	C	0.858745	-0.070844	-0.068249
C69	C	1.192078	0.262490	0.265084
C70	C	0.525418	-0.309333	-0.307613
C71	C	0.858752	0.024000	0.025720
C72	C	1.192085	0.357333	0.359054
C73	C	0.602276	-0.309328	-0.307608
C74	C	0.935609	0.024005	0.025725
C75	C	1.268942	0.357339	0.359059
C76	C	0.640700	-0.356753	-0.354587
C77	C	0.974033	-0.023419	-0.021254
C78	C	1.307366	0.309914	0.312079
C79	C	0.486984	-0.356761	-0.354601
C80	C	0.820317	-0.023427	-0.021268
C81	C	1.153650	0.309906	0.312065
C82	C	0.403650	-0.356763	-0.354611
C83	C	0.736983	-0.023429	-0.021278
C84	C	1.070317	0.309904	0.312056
C85	C	0.724039	-0.356750	-0.354579
C86	C	1.057372	-0.023416	-0.021245
C87	C	1.390705	0.309917	0.312088
C88	C	1.063557	-0.930563	-0.354619
C89	C	1.396890	-0.597230	-0.021285
C90	C	1.730223	-0.263896	0.312048
C91	C	1.006827	-0.899249	-0.411628
C92	C	1.340160	-0.565916	-0.078295
C93	C	1.673494	-0.232583	0.255039
C94	C	1.006557	-0.813632	-0.411450
C95	C	1.339891	-0.480298	-0.078116
C96	C	1.673224	-0.146965	0.255217
C97	C	1.063476	-0.782180	-0.354600
C98	C	1.396810	-0.448847	-0.021266
C99	C	1.730143	-0.115514	0.312067
C100	C	1.042479	-0.813331	-0.277038
C101	C	1.375812	-0.479997	0.056295
C102	C	1.709145	-0.146664	0.389628
C103	C	1.042113	-0.898976	-0.277380
C104	C	1.375446	-0.565643	0.055954
C105	C	1.708780	-0.232309	0.389287
C106	C	1.141408	-0.898906	-0.374487
C107	C	1.474741	-0.565573	-0.041154
C108	C	1.808075	-0.232240	0.292179
C109	C	1.140950	-0.813255	-0.376188
C110	C	1.474284	-0.479922	-0.042855
C111	C	1.807617	-0.146589	0.290478
C112	C	1.063432	-0.698321	-0.354584
C113	C	1.396766	-0.364988	-0.021251
C114	C	1.730099	-0.031654	0.312083
C115	C	1.063599	-1.014422	-0.354629
C116	C	1.396932	-0.681089	-0.021296
C117	C	1.730265	-0.347756	0.312038
C118	C	1.255421	-0.356761	-0.354607
C119	C	1.588755	-0.023427	-0.021273
C120	C	1.922088	0.309906	0.312060
C121	C	1.337220	-0.356766	-0.354616
C122	C	1.670553	-0.023433	-0.021283
C123	C	2.003887	0.309900	0.312051
C124	C	1.063513	-0.356696	-0.546538
C125	C	1.396847	-0.023363	-0.213205
C126	C	1.730180	0.309970	0.120128
C127	C	1.063532	-0.356675	-0.628337
C128	C	1.396866	-0.023341	-0.295004
C129	C	1.730199	0.309992	0.038330
C130	C	1.063587	-0.163585	-0.354623
C131	C	1.396921	0.169748	-0.021290
C132	C	1.730254	0.503081	0.312044
C133	C	1.063638	-0.081271	-0.354639
C134	C	1.396971	0.252062	-0.021306
C135	C	1.730305	0.585395	0.312028
C136	C	1.110648	-0.309268	-0.816547
C137	C	1.443981	0.024066	-0.483214
C138	C	1.777314	0.357399	-0.149880
C139	C	1.110656	-0.309246	-0.893406
C140	C	1.443990	0.024087	-0.560072
C141	C	1.777323	0.357420	-0.226739
C142	C	1.016469	-0.403967	-0.893365
C143	C	1.349802	-0.070633	-0.560032
C144	C	1.683136	0.262700	-0.226699
C145	C	1.016457	-0.403984	-0.816508
C146	C	1.349790	-0.070651	-0.483175
C147	C	1.683124	0.262683	-0.149841
C148	C	1.063551	-0.356636	-0.778101
C149	C	1.396884	-0.023302	-0.444767
C150	C	1.730217	0.310031	-0.111434
C151	C	1.063571	-0.356597	-0.931817
C152	C	1.396905	-0.023263	-0.598484
C153	C	1.730238	0.310070	-0.265150
C154	C	1.063580	-0.356574	-1.015151
C155	C	1.396914	-0.023240	-0.681817
C156	C	1.730247	0.310093	-0.348484
C157	C	1.063541	-0.356657	-0.694762
C158	C	1.396874	-0.023324	-0.361428
C159	C	1.730207	0.310009	-0.028095
C160	C	1.063466	-0.356745	-0.163379
C161	C	1.396799	-0.023411	0.169954
C162	C	1.730133	0.309922	0.503288
C163	C	1.063590	-0.356558	-0.081580
C164	C	1.396923	-0.023225	0.251753
C165	C	1.730256	0.310109	0.585086
H166	H	0.633553	-0.442789	-0.439829
H167	H	0.966886	-0.109456	-0.106495
H168	H	1.300220	0.223877	0.226838
H169	H	0.494126	-0.442792	-0.439845
H170	H	0.827459	-0.109458	-0.106511
H171	H	1.160792	0.223875	0.226822
H172	H	1.183674	-0.919155	-0.332965
H173	H	1.517007	-0.585822	0.000368
H174	H	1.850340	-0.252489	0.333701
Br175	Br	0.910376	-0.779585	-0.389520
Br176	Br	1.243709	-0.446252	-0.056186
Br177	Br	1.577043	-0.112918	0.277147
Br178	Br	0.473267	-0.244974	-0.243859
Br179	Br	0.806600	0.088359	0.089475
Br180	Br	1.139934	0.421692	0.422808
Br181	Br	1.174558	-0.245008	-0.764425
Br182	Br	1.507891	0.088325	-0.431092
Br183	Br	1.841225	0.421658	-0.097758
H184	H	0.633566	-0.270707	-0.269346
H185	H	0.966899	0.062627	0.063987
H186	H	1.300232	0.395960	0.397320
Br187	Br	1.174582	-0.244964	-0.945580
Br188	Br	1.507915	0.088370	-0.612247
Br189	Br	1.841249	0.421703	-0.278914
Br190	Br	1.028452	-0.778520	-0.507305
Br191	Br	1.361785	-0.445187	-0.173972
Br192	Br	1.695119	-0.111854	0.159361
H193	H	0.978129	-0.442518	-0.924646
H194	H	1.311462	-0.109184	-0.591312
H195	H	1.644796	0.224149	-0.257979
Br196	Br	0.911234	-0.935247	-0.389989
Br197	Br	1.244567	-0.601914	-0.056655
Br198	Br	1.577901	-0.268581	0.276678
H199	H	0.978100	-0.442556	-0.785204
H200	H	1.311433	-0.109223	-0.451871
H201	H	1.644766	0.224111	-0.118537
Br202	Br	1.028501	-0.933499	-0.507798
Br203	Br	1.361834	-0.600166	-0.174465
Br204	Br	1.695167	-0.266832	0.158869
H205	H	0.985204	-0.919019	-0.260549
H206	H	1.318537	-0.585686	0.072785
H207	H	1.651870	-0.252352	0.406118
H208	H	1.082498	-0.792959	-0.233404
H209	H	1.415831	-0.459626	0.099930
H210	H	1.749164	-0.126293	0.433263
Br211	Br	1.107984	-0.933509	-0.204164
Br212	Br	1.441318	-0.600176	0.129169
Br213	Br	1.774651	-0.266843	0.462502
Br214	Br	1.173317	-0.934821	-0.467147
Br215	Br	1.506651	-0.601488	-0.133814
Br216	Br	1.839984	-0.268155	0.199519
Br217	Br	0.948629	-0.777694	-0.248480
Br218	Br	1.281963	-0.444361	0.084853
Br219	Br	1.615296	-0.111027	0.418186
H220	H	1.156785	-0.792893	-0.433269
H221	H	1.490118	-0.459560	-0.099936
H222	H	1.823452	-0.126226	0.233398
Br223	Br	1.215130	-0.777559	-0.312032
Br224	Br	1.548464	-0.444225	0.021301
Br225	Br	1.881797	-0.110892	0.354634
