data_functionalizedCrystal
_audit_creation_method	'MofGen! by Chris Wilmer'
_symmetry_space_group_name_H-M	'P1'
_symmetry_Int_Tables_number	1
_symmetry_cell_setting	triclinic
loop_
_symmetry_equiv_pos_as_xyz
  x,y,z
_cell_length_a	16.974800
_cell_length_b	17.019294
_cell_length_c	15.455313
_cell_angle_alpha	88.788101
_cell_angle_beta	90.973911
_cell_angle_gamma	83.640951
loop_
_atom_site_label
_atom_site_type_symbol
_atom_site_fract_x
_atom_site_fract_y
_atom_site_fract_z
O1	O	1.049320	0.100201	-0.005927
O2	O	1.549320	0.600201	0.494073
O3	O	0.819917	0.112205	-0.022934
O4	O	1.319917	0.612205	0.477066
O5	O	0.940610	-0.008208	-0.005460
O6	O	1.440610	0.491792	0.494540
O7	O	0.928628	0.220613	-0.023401
O8	O	1.428628	0.720613	0.476599
O9	O	0.933708	-0.001351	0.137805
O10	O	1.433708	0.498649	0.637805
O11	O	0.813015	0.119062	0.120331
O12	O	1.313015	0.619062	0.620331
O13	O	1.042418	0.107058	0.137338
O14	O	1.542418	0.607058	0.637338
Cu15	Cu	0.927087	0.113686	0.141916
Cu16	Cu	1.427087	0.613686	0.641916
Cu17	Cu	0.935249	0.105576	-0.027512
Cu18	Cu	1.435249	0.605576	0.472488
O19	O	0.921726	0.227470	0.119864
O20	O	1.421726	0.727470	0.619864
C21	C	0.787105	0.115051	0.046680
C22	C	1.287105	0.615051	0.546680
C23	C	0.699619	0.113307	0.040666
C24	C	1.199619	0.613307	0.540666
C25	C	0.654761	0.116223	0.115936
C26	C	1.154761	0.616223	0.615936
C27	C	0.572560	0.114572	0.110289
C28	C	1.072560	0.614572	0.610289
C29	C	0.535219	0.110010	0.029370
C30	C	1.035219	0.610010	0.529370
C31	C	0.580084	0.107091	-0.045906
C32	C	1.080084	0.607091	0.454094
C33	C	0.662284	0.108736	-0.040258
C34	C	1.162284	0.608736	0.459742
C35	C	0.289781	0.104682	0.004103
C36	C	0.789781	0.604682	0.504103
C37	C	0.207575	0.103039	-0.001540
C38	C	0.707575	0.603039	0.498460
C39	C	0.200057	0.110519	0.154656
C40	C	0.700057	0.610519	0.654656
C41	C	0.282259	0.112169	0.160297
C42	C	0.782259	0.612169	0.660297
C43	C	0.327117	0.109245	0.085021
C44	C	0.827117	0.609245	0.585021
N45	N	0.451196	0.108324	0.023596
N46	N	0.951196	0.608324	0.523596
N47	N	0.411139	0.110925	0.090797
N48	N	0.911139	0.610925	0.590797
C49	C	0.936568	-0.034065	0.068317
C50	C	1.436568	0.465935	0.568317
C51	C	0.934800	-0.121328	0.074709
C52	C	1.434800	0.378672	0.574709
C53	C	0.937733	-0.166057	-0.000382
C54	C	1.437733	0.333943	0.499618
C55	C	0.936066	-0.248049	0.005626
C56	C	1.436066	0.251951	0.505626
C57	C	0.931471	-0.285311	0.086725
C58	C	1.431471	0.214689	0.586725
C59	C	0.928536	-0.240575	0.161821
C60	C	1.428536	0.259425	0.661821
C61	C	0.930197	-0.158584	0.155812
C62	C	1.430197	0.341416	0.655812
C63	C	0.926262	-0.532683	0.108774
C64	C	1.426262	-0.032683	0.608774
C65	C	0.924603	-0.614680	0.114778
C66	C	1.424603	-0.114680	0.614778
C67	C	0.932132	-0.622149	-0.041418
C68	C	1.432132	-0.122149	0.458582
C69	C	0.933798	-0.540157	-0.047419
C70	C	1.433798	-0.040157	0.452581
C71	C	0.930858	-0.495427	0.027676
C72	C	1.430858	0.004573	0.527676
C73	C	0.929770	-0.369120	0.092868
C74	C	1.429770	0.130880	0.592868
C75	C	0.932553	-0.411619	0.021532
C76	C	1.432553	0.088381	0.521532
C77	C	1.075230	0.104211	0.067722
C78	C	1.575230	0.604211	0.567722
C79	C	1.162716	0.105955	0.073730
C80	C	1.662716	0.605955	0.573730
C81	C	0.925767	0.253328	0.046084
C82	C	1.425767	0.753328	0.546084
C83	C	0.927536	0.340590	0.039687
C84	C	1.427536	0.840590	0.539687
N85	N	0.921352	0.119389	0.261082
N86	N	1.421352	0.619389	0.761082
N87	N	0.940990	0.099867	-0.146678
N88	N	1.440990	0.599867	0.353322
C89	C	0.972644	0.068253	0.313900
C90	C	1.472644	0.568253	0.813900
C91	C	0.968314	0.072573	0.404081
C92	C	1.468314	0.572573	0.904081
C93	C	0.912695	0.128035	0.441442
C94	C	1.412695	0.628035	0.941442
C95	C	0.861397	0.179173	0.388618
C96	C	1.361397	0.679173	0.888618
C97	C	0.865724	0.174849	0.298439
C98	C	1.365724	0.674849	0.798439
C99	C	0.894019	0.146681	0.710319
C100	C	1.394019	0.646681	1.210319
C101	C	0.889698	0.151003	0.800505
C102	C	1.389698	0.651003	1.300505
C103	C	0.996614	0.044402	0.815962
C104	C	1.496614	0.544402	1.315962
C105	C	1.000939	0.040085	0.725780
C106	C	1.500939	0.540085	1.225780
C107	C	0.949639	0.091221	0.672963
C108	C	1.449639	0.591221	1.172963
N109	N	0.908269	0.132454	0.533621
N110	N	1.408269	0.632454	1.033621
N111	N	0.954061	0.086798	0.580786
N112	N	1.454061	0.586798	1.080786
H113	H	0.312657	0.115880	0.226190
H114	H	0.812657	0.615880	0.726190
H115	H	0.937540	-0.509825	-0.113459
H116	H	1.437540	-0.009825	0.386541
N117	N	0.695036	0.121142	0.203213
N118	N	1.195036	0.621142	0.703213
H119	H	0.722700	0.170673	0.204960
H120	H	1.222700	0.670673	0.704960
H121	H	0.654101	0.122703	0.249990
H122	H	1.154101	0.622703	0.749990
N123	N	0.838685	0.201836	0.653370
N124	N	1.338685	0.701836	1.153370
H125	H	0.847141	0.258402	0.665531
H126	H	1.347141	0.758402	1.165531
H127	H	0.849880	0.190619	0.590592
H128	H	1.349880	0.690619	1.090592
H129	H	0.938458	-0.284465	-0.055521
H130	H	1.438458	0.215535	0.444479
H131	H	0.536041	0.116934	0.171584
H132	H	1.036041	0.616934	0.671584
N133	N	0.927045	-0.110340	0.236805
N134	N	1.427045	0.389660	0.736805
H135	H	0.928794	-0.052745	0.220693
H136	H	1.428794	0.447255	0.720693
H137	H	0.876307	-0.116776	0.268065
H138	H	1.376307	0.383224	0.768065
H139	H	0.936289	-0.381277	-0.044499
H140	H	1.436289	0.118723	0.455501
H141	H	1.010080	0.030933	0.447085
H142	H	1.510080	0.530933	0.947085
N143	N	1.060929	-0.019733	0.685484
N144	N	1.560929	0.480267	1.185484
H145	H	1.092766	-0.051474	0.732629
H146	H	1.592766	0.448526	1.232629
H147	H	1.032472	-0.056361	0.648558
H148	H	1.532472	0.443639	1.148558
H149	H	1.038380	0.002768	0.858973
H150	H	1.538380	0.502768	1.358973
N151	N	0.829698	0.210826	0.840792
N152	N	1.329698	0.710826	1.340792
H153	H	0.792945	0.182484	0.878021
H154	H	1.292945	0.682484	1.378021
H155	H	0.858156	0.247497	0.877659
H156	H	1.358156	0.747497	1.377659
N157	N	0.810405	0.230009	0.241469
N158	N	1.310405	0.730009	0.741469
H159	H	0.821584	0.218852	0.178672
H160	H	1.321584	0.718852	0.678672
H161	H	0.753726	0.221527	0.254012
H162	H	1.253726	0.721527	0.754012
N163	N	0.801401	0.238988	0.428910
N164	N	1.301401	0.738988	0.928910
H165	H	0.806444	0.233971	0.494053
H166	H	1.306444	0.733971	0.994053
H167	H	0.811392	0.294021	0.409615
H168	H	1.311392	0.794021	0.909615
H169	H	0.923884	-0.496276	0.169924
H170	H	1.423884	0.003724	0.669924
N171	N	0.151675	0.113671	0.235842
N172	N	0.651675	0.613671	0.735842
H173	H	0.093805	0.113020	0.219903
H174	H	0.593805	0.613020	0.719903
H175	H	0.169955	0.066333	0.274484
H176	H	0.669955	0.566333	0.774484
N177	N	0.919661	-0.654871	0.202256
N178	N	1.419661	-0.154871	0.702256
H179	H	0.919066	-0.713600	0.194665
H180	H	1.419066	-0.213600	0.694665
H181	H	0.967119	-0.645163	0.239192
H182	H	1.467119	-0.145163	0.739192
H183	H	0.549674	0.103370	-0.111792
H184	H	1.049674	0.603370	0.388208
H185	H	1.017938	0.023094	0.283487
H186	H	1.517938	0.523094	0.783487
N187	N	0.710673	0.105596	-0.121440
N188	N	1.210673	0.605596	0.378560
H189	H	0.751215	0.057429	-0.118497
H190	H	1.251215	0.557429	0.381503
H191	H	0.674492	0.102489	-0.173518
H192	H	1.174492	0.602489	0.326482
H193	H	0.934524	-0.658576	-0.102557
H194	H	1.434524	-0.158576	0.397443
H195	H	0.177174	0.099326	-0.067438
H196	H	0.677174	0.599326	0.432562
N197	N	0.923590	-0.280761	0.249294
N198	N	1.423590	0.219239	0.749294
H199	H	0.873933	-0.308357	0.251379
H200	H	1.373933	0.191643	0.751379
H201	H	0.971578	-0.320832	0.259103
H202	H	1.471578	0.179168	0.759103
N203	N	0.338159	0.101523	-0.077083
N204	N	0.838159	0.601523	0.422917
H205	H	0.302027	0.098384	-0.129199
H206	H	0.802027	0.598384	0.370801
H207	H	0.366161	0.150721	-0.082228
H208	H	0.866161	0.650721	0.417772
H209	H	0.941478	-0.135726	-0.066421
H210	H	1.441478	0.364274	0.433579
H211	H	0.926032	-0.399467	0.158900
H212	H	1.426032	0.100533	0.658900
