data_functionalizedCrystal
_audit_creation_method	'MofGen! by Chris Wilmer'
_symmetry_space_group_name_H-M	'P1'
_symmetry_Int_Tables_number	1
_symmetry_cell_setting	triclinic
loop_
_symmetry_equiv_pos_as_xyz
  x,y,z
_cell_length_a	21.395364
_cell_length_b	14.908178
_cell_length_c	21.395364
_cell_angle_alpha	93.300388
_cell_angle_beta	90.017013
_cell_angle_gamma	93.328811
loop_
_atom_site_label
_atom_site_type_symbol
_atom_site_fract_x
_atom_site_fract_y
_atom_site_fract_z
Zn1	Zn	0.943479	-0.359058	0.339870
Zn2	Zn	1.443479	0.140942	0.839870
Zn3	Zn	0.937376	-0.509870	0.229048
Zn4	Zn	1.437376	-0.009870	0.729048
Zn5	Zn	0.838708	-0.359059	0.235107
Zn6	Zn	1.338708	0.140941	0.735107
Zn7	Zn	0.832641	-0.509924	0.333786
Zn8	Zn	1.332641	-0.009924	0.833786
O9	O	0.888051	-0.434478	0.284453
O10	O	1.388051	0.065522	0.784453
O11	O	1.030349	-0.379040	0.325180
O12	O	1.530349	0.120960	0.825180
O13	O	0.924272	-0.489842	0.142175
O14	O	1.424272	0.010158	0.642175
O15	O	0.857700	-0.232805	0.254086
O16	O	1.357700	0.267195	0.754086
O17	O	1.025864	-0.489841	0.243760
O18	O	1.525864	0.010159	0.743760
O19	O	0.934675	-0.232805	0.331055
O20	O	1.434675	0.267195	0.831055
O21	O	0.851781	-0.379042	0.146626
O22	O	1.351781	0.120958	0.646626
O23	O	0.750225	-0.379095	0.248186
O24	O	1.250225	0.120905	0.748186
O25	O	0.847360	-0.489934	0.422270
O26	O	1.347360	0.010066	0.922270
O27	O	0.745767	-0.489935	0.320686
O28	O	1.245767	0.010065	0.820686
O29	O	0.928792	-0.379093	0.426740
O30	O	1.428792	0.120907	0.926740
O31	O	0.918389	-0.636130	0.237860
O32	O	1.418389	-0.136130	0.737860
O33	O	0.841441	-0.636170	0.314811
O34	O	1.341441	-0.136170	0.814811
C35	C	0.725262	-0.434522	0.284434
C36	C	1.225262	0.065478	0.784434
C37	C	0.655619	-0.434562	0.284439
C38	C	1.155619	0.065438	0.784439
C39	C	0.625259	-0.376963	0.326893
C40	C	1.125259	0.123037	0.826893
C41	C	0.559825	-0.376939	0.326897
C42	C	1.059825	0.123061	0.826897
C43	C	0.524752	-0.434530	0.284452
C44	C	1.024752	0.065470	0.784452
C45	C	0.555119	-0.492134	0.241990
C46	C	1.055119	0.007866	0.741990
C47	C	0.620553	-0.492150	0.241984
C48	C	1.120553	0.007850	0.741984
C49	C	0.417785	-0.515778	0.276158
C50	C	0.917785	-0.015778	0.776158
C51	C	0.352352	-0.515764	0.276169
C52	C	0.852352	-0.015764	0.776169
C53	C	0.322933	-0.434481	0.284468
C54	C	0.822933	0.065519	0.784468
C55	C	0.358954	-0.353210	0.292770
C56	C	0.858954	0.146790	0.792770
C57	C	0.424388	-0.353225	0.292763
C58	C	0.924388	0.146775	0.792763
C59	C	0.453800	-0.434519	0.284454
C60	C	0.953800	0.065481	0.784454
C61	C	0.221622	-0.376850	0.326928
C62	C	0.721622	0.123150	0.826928
C63	C	0.156187	-0.376825	0.326927
C64	C	0.656187	0.123175	0.826927
C65	C	0.151482	-0.492028	0.242024
C66	C	0.651482	0.007972	0.742024
C67	C	0.216916	-0.492045	0.242022
C68	C	0.716916	0.007955	0.742022
C69	C	0.251983	-0.434458	0.284477
C70	C	0.751983	0.065542	0.784477
C71	C	0.878611	-0.668886	0.275032
C72	C	1.378611	-0.168886	0.775032
C73	C	0.874630	-0.769167	0.271022
C74	C	1.374630	-0.269167	0.771022
C75	C	0.947242	-0.957455	0.343722
C76	C	1.447242	-0.457455	0.843722
C77	C	0.943504	-1.051678	0.339956
C78	C	1.443504	-0.551678	0.839956
C79	C	0.863412	-1.051838	0.259730
C80	C	1.363412	-0.551838	0.759730
C81	C	0.867150	-0.957615	0.263495
C82	C	1.367150	-0.457615	0.763495
C83	C	0.909068	-0.910427	0.305492
C84	C	1.409068	-0.410427	0.805492
C85	C	0.912809	-0.816202	0.309253
C86	C	1.412809	-0.316202	0.809253
C87	C	0.832714	-0.816364	0.229031
C88	C	1.332714	-0.316364	0.729031
C89	C	0.828976	-0.910586	0.225265
C90	C	1.328976	-0.410586	0.725265
C91	C	1.051476	-0.434434	0.284473
C92	C	1.551476	0.065566	0.784473
C93	C	1.121118	-0.434416	0.284481
C94	C	1.621118	0.065584	0.784481
C95	C	0.888080	-0.434520	0.447875
C96	C	1.388080	0.065480	0.947875
C97	C	0.888092	-0.434537	0.517515
C98	C	1.388092	0.065463	1.017515
C99	C	0.897545	-0.199154	0.293925
C100	C	1.397545	0.300846	0.793925
C101	C	0.901591	-0.098873	0.297961
C102	C	1.401591	0.401127	0.797961
C103	C	0.930488	-0.376832	0.552556
C104	C	1.430488	0.123168	1.052556
C105	C	0.930479	-0.376817	0.617992
C106	C	1.430479	0.123183	1.117992
C107	C	0.888080	-0.434524	0.648384
C108	C	1.388080	0.065476	1.148384
C109	C	0.845677	-0.492233	0.613335
C110	C	1.345677	0.007767	1.113335
C111	C	0.845683	-0.492240	0.547900
C112	C	1.345683	0.007760	1.047900
C113	C	0.879846	-0.515800	0.748792
C114	C	1.379846	-0.015800	1.248792
C115	C	0.879845	-0.515795	0.814225
C116	C	1.379845	-0.015795	1.314225
C117	C	0.888058	-0.434503	0.850206
C118	C	1.388058	0.065497	1.350206
C119	C	0.896287	-0.353214	0.820745
C120	C	1.396287	0.146786	1.320745
C121	C	0.896293	-0.353220	0.755311
C122	C	1.396293	0.146780	1.255311
C123	C	0.888069	-0.434523	0.719336
C124	C	1.388069	0.065477	1.219336
C125	C	0.930447	-0.376777	0.956200
C126	C	1.430447	0.123223	1.456200
C127	C	0.930433	-0.376760	1.021637
C128	C	1.430433	0.123240	1.521637
C129	C	0.845635	-0.492185	1.016978
C130	C	1.345635	0.007815	1.516978
C131	C	0.845645	-0.492193	0.951543
C132	C	1.345645	0.007807	1.451543
C133	C	0.888054	-0.434490	0.921157
C134	C	1.388054	0.065510	1.421157
C135	C	0.888024	-0.434463	1.121666
C136	C	1.388024	0.065537	1.621666
C137	C	0.888034	-0.434467	1.052025
C138	C	1.388034	0.065533	1.552025
H139	H	0.535102	-0.330030	0.361467
H140	H	1.035102	0.169970	0.861467
H141	H	0.829282	-1.090274	0.225541
H142	H	1.329282	-0.590274	0.725541
H143	H	0.794846	-0.949020	0.191075
H144	H	1.294846	-0.449020	0.691075
H145	H	0.801631	-0.778062	0.197899
H146	H	1.301631	-0.278062	0.697899
H147	H	0.811157	-0.539230	0.519370
H148	H	1.311157	-0.039230	1.019370
H149	H	0.873148	-0.581986	0.838207
H150	H	1.373148	-0.081986	1.338207
Br151	Br	0.969699	-0.752162	0.366244
Br152	Br	1.469699	-0.252162	0.866244
Br153	Br	0.473272	-0.242935	0.304028
Br154	Br	0.973272	0.257065	0.804028
H155	H	0.965020	-0.329845	0.527821
H156	H	1.465020	0.170155	1.027821
H157	H	0.974587	-1.089965	0.371090
H158	H	1.474587	-0.589965	0.871090
Br159	Br	0.987984	-0.298453	1.069195
Br160	Br	1.487984	0.201547	1.569195
H161	H	0.241635	-0.538953	0.207453
H162	H	0.741635	-0.038953	0.707453
H163	H	0.811125	-0.539188	0.923011
H164	H	1.311125	-0.039188	1.423011
Br165	Br	0.907457	-0.242905	0.715329
Br166	Br	1.407457	0.257095	1.215329
H167	H	0.965001	-0.329822	0.646529
H168	H	1.465001	0.170178	1.146529
Br169	Br	0.672847	-0.298808	0.384511
Br170	Br	1.172847	0.201192	0.884511
Br171	Br	0.661758	-0.570322	0.184361
Br172	Br	1.161758	-0.070322	0.684361
H173	H	0.902976	-0.287018	0.850039
H174	H	1.402976	0.212982	1.350039
H175	H	0.964975	-0.329787	0.931460
H176	H	1.464975	0.170213	1.431460
Br177	Br	0.788085	-0.570491	1.058217
Br178	Br	1.288085	-0.070491	1.558217
H179	H	0.872991	-0.581981	0.719503
H180	H	1.372991	-0.081981	1.219503
H181	H	0.250175	-0.329953	0.361494
H182	H	0.750175	0.170047	0.861494
Br183	Br	0.319037	-0.242889	0.304035
Br184	Br	0.819037	0.257111	0.804035
Br185	Br	0.114983	-0.298640	0.384544
Br186	Br	0.614983	0.201360	0.884544
H187	H	0.441732	-0.581973	0.269399
H188	H	0.941732	-0.081973	0.769399
Br189	Br	0.103890	-0.570180	0.184413
Br190	Br	0.603890	-0.070180	0.684413
H191	H	0.811154	-0.539216	0.638084
H192	H	1.311154	-0.039216	1.138084
H193	H	0.323029	-0.581939	0.269412
H194	H	0.823029	-0.081939	0.769412
Br195	Br	0.507522	-0.570288	0.184382
Br196	Br	1.007522	-0.070288	0.684382
Br197	Br	1.004137	-0.893410	0.400705
Br198	Br	1.504137	-0.393410	0.900705
