data_functionalizedCrystal
_audit_creation_method	'MofGen! by Chris Wilmer'
_symmetry_space_group_name_H-M	'P1'
_symmetry_Int_Tables_number	1
_symmetry_cell_setting	triclinic
loop_
_symmetry_equiv_pos_as_xyz
  x,y,z
_cell_length_a	20.875621
_cell_length_b	21.606444
_cell_length_c	21.606444
_cell_angle_alpha	59.997726
_cell_angle_beta	87.027421
_cell_angle_gamma	58.317150
loop_
_atom_site_label
_atom_site_type_symbol
_atom_site_fract_x
_atom_site_fract_y
_atom_site_fract_z
Zr1	Zr	0.617964	0.677449	-0.112179
O2	O	0.515548	0.806569	-0.205875
O3	O	0.649357	0.548331	-0.083455
O4	O	0.649362	0.677451	-0.212577
O5	O	0.515541	0.677445	0.025100
O6	O	0.754922	0.677452	-0.217865
O7	O	0.515542	0.677448	-0.076753
O8	O	0.754911	0.446479	0.013111
O9	O	0.515552	0.908419	-0.205876
O10	O	0.741527	0.601439	-0.075151
O11	O	0.662749	0.601437	0.004806
O12	O	0.662756	0.753460	-0.147219
O13	O	0.583978	0.753457	-0.067261
Zr14	Zr	0.786318	0.677446	0.041833
Zr15	Zr	0.786319	0.677450	-0.120612
Zr16	Zr	0.617963	0.677445	0.050265
Zr17	Zr	0.617970	0.839888	-0.112180
Zr18	Zr	0.786312	0.515006	0.041834
O19	O	0.754925	0.806564	0.013109
O20	O	0.754927	0.806570	-0.217866
O21	O	0.515546	0.806563	0.025099
O22	O	0.888734	0.548326	0.135529
O23	O	0.888736	0.548332	-0.095445
O24	O	0.649355	0.548325	0.147519
O25	O	0.888741	0.677450	-0.095446
O26	O	0.754920	0.677443	0.142231
O27	O	0.649360	0.677443	0.147518
O28	O	0.888740	0.677447	0.006407
O29	O	0.649371	0.908419	-0.212579
O30	O	0.754911	0.446475	0.142233
O31	O	0.888730	0.446476	0.135530
O32	O	0.888731	0.446479	0.006409
O33	O	0.515551	0.908416	-0.076755
O34	O	0.649371	0.908416	-0.083458
O35	O	0.741526	0.601435	0.076872
O36	O	0.820304	0.601437	-0.003086
O37	O	0.741533	0.753458	-0.075153
O38	O	0.662755	0.753456	0.004805
C39	C	0.702133	0.474260	-0.035172
C40	C	0.702130	0.405301	-0.035171
C41	C	0.743274	-0.018007	-0.076911
C42	C	0.743268	0.046794	-0.076914
C43	C	0.702144	0.079189	-0.035176
C44	C	0.661017	0.046788	0.006561
C45	C	0.661018	-0.018007	0.006559
C46	C	0.661009	0.308099	0.006569
C47	C	0.661012	0.372896	0.006569
C48	C	0.743258	0.372899	-0.076904
C49	C	0.743260	0.308104	-0.076906
C50	C	0.702130	0.275712	-0.035172
C51	C	0.702135	0.205449	-0.035171
C52	C	0.702143	0.149447	-0.035173
C53	C	0.491555	0.677446	-0.024625
C54	C	0.420083	0.677446	-0.021045
C55	C	0.386506	0.677450	-0.075477
C56	C	0.319354	0.677445	-0.072109
C57	C	0.285777	0.677443	-0.014313
C58	C	0.319360	0.677436	0.040124
C59	C	0.386514	0.677435	0.036759
C60	C	0.084936	0.677441	0.001771
C61	C	0.017776	0.677445	0.005130
C62	C	0.017775	0.677452	-0.107103
C63	C	0.084928	0.677456	-0.110465
C64	C	0.118508	0.677445	-0.056026
N65	N	0.217135	0.677441	-0.010871
N66	N	0.187152	0.677441	-0.059466
C67	C	0.912727	0.677448	-0.045721
C68	C	0.984199	0.677449	-0.049301
C69	C	0.702142	0.677452	-0.238366
C70	C	0.702143	0.677454	-0.307328
C71	C	0.702149	0.880634	-0.035175
C72	C	0.702152	0.949594	-0.035175
C73	C	0.760296	0.677456	-0.342639
C74	C	0.760298	0.677450	-0.407432
C75	C	0.702144	0.677448	-0.436916
C76	C	0.643987	0.677443	-0.401599
C77	C	0.643989	0.677443	-0.336804
C78	C	0.643980	0.677443	-0.662908
C79	C	0.643982	0.677445	-0.727709
C80	C	0.760290	0.677449	-0.733537
C81	C	0.760292	0.677449	-0.668742
C82	C	0.702138	0.677440	-0.633428
C83	C	0.702137	0.677445	-0.563171
C84	C	0.702141	0.677449	-0.507174
C85	C	0.702140	0.677443	0.168020
C86	C	0.702139	0.677441	0.236981
C87	C	0.912720	0.474262	-0.045720
C88	C	0.984188	0.405302	-0.049299
C89	C	0.702132	0.474256	0.168021
C90	C	0.702129	0.405294	0.236983
C91	C	0.912718	0.474257	0.157473
C92	C	0.984186	0.405296	0.222855
C93	C	0.491564	0.880638	-0.227819
C94	C	0.420096	0.949599	-0.293202
C95	C	0.491563	0.880633	-0.024627
C96	C	0.420094	0.949593	-0.021047
C97	C	0.702150	0.880639	-0.238367
C98	C	0.702153	0.949601	-0.307330
C99	C	0.976629	0.372919	-0.088605
C100	C	1.043775	0.308133	-0.091983
C101	C	1.118479	0.275727	-0.056050
C102	C	1.126036	0.308117	-0.016744
C103	C	1.058891	0.372906	-0.013371
C104	C	0.743248	0.372908	0.306993
C105	C	0.743242	0.308121	0.371797
C106	C	0.702121	0.275716	0.366589
C107	C	0.660996	0.308108	0.296572
C108	C	0.660998	0.372899	0.231770
C109	C	1.058877	0.372912	0.211822
C110	C	1.126035	0.308125	0.273249
C111	C	1.118501	0.275718	0.345709
C112	C	1.043802	0.308108	0.356741
C113	C	0.976646	0.372898	0.295315
C114	C	0.345405	0.981991	-0.282168
C115	C	0.278247	1.046798	-0.343596
C116	C	0.285781	1.079208	-0.416055
C117	C	0.360480	1.046814	-0.427087
C118	C	0.427636	0.982012	-0.365661
C119	C	0.427653	0.981983	0.018252
C120	C	0.360507	1.046787	0.021612
C121	C	0.285803	1.079195	-0.014323
C122	C	0.278246	1.046802	-0.053626
C123	C	0.345391	0.982004	-0.056991
C124	C	0.743283	0.981985	-0.302098
C125	C	0.743301	1.046773	-0.366890
C126	C	0.702185	1.079180	-0.436912
C127	C	0.661054	1.046789	-0.442143
C128	C	0.661041	0.981998	-0.377352
H129	H	0.776766	-0.044383	-0.110895
H130	H	0.627579	1.073185	-0.499164
N131	N	0.197670	1.081751	-0.092370
H132	H	0.203061	1.051402	-0.117778
H133	H	0.168017	1.146796	-0.130772
H134	H	0.915832	0.399257	0.304309
N135	N	0.616665	0.947088	-0.383009
H136	H	0.575278	0.958371	-0.355829
H137	H	0.654417	0.882056	-0.359800
H138	H	0.596638	0.677436	-0.425605
H139	H	0.807644	0.677455	-0.644740
N140	N	0.508219	0.947050	0.057003
H141	H	0.549617	0.901085	0.048914
H142	H	0.514440	0.920220	0.112180
H143	H	0.292016	0.677447	-0.116431
N144	N	1.067049	0.407832	0.029024
H145	H	1.041026	0.396554	0.070261
H146	H	1.041035	0.472864	-0.006114
H147	H	0.112265	0.677458	-0.157527
N148	N	0.823017	0.677457	-0.771624
H149	H	0.814197	0.677454	-0.817144
H150	H	0.876378	0.623493	-0.735986
H151	H	0.231092	1.131974	-0.466066
H152	H	0.596629	0.677437	-0.634162
H153	H	0.776753	0.073173	-0.110898
H154	H	0.366605	1.073211	-0.486091
H155	H	1.037680	0.281713	0.415746
H156	H	-0.009560	0.677444	0.052198
N157	N	0.368668	1.081715	0.064006
H158	H	0.426182	1.051342	0.086264
H159	H	0.342594	1.070443	0.105200
N160	N	0.422715	0.677461	-0.137819
H161	H	0.391252	0.677461	-0.171789
H162	H	0.478541	0.623494	-0.116078
N163	N	0.508193	0.947063	-0.377570
H164	H	0.549600	0.901089	-0.327666
H165	H	0.514420	0.996545	-0.406537
H166	H	1.173146	0.222971	-0.058802
H167	H	0.776733	0.281755	0.428801
H168	H	0.627517	0.281714	0.292342
H169	H	0.807652	0.677450	-0.436182
H170	H	0.231136	1.131957	-0.011578
H171	H	0.776750	0.281727	-0.110890
H172	H	-0.009571	0.677460	-0.151424
N173	N	0.787615	0.407844	-0.121926
H174	H	0.781372	0.453811	-0.115598
H175	H	0.766024	0.434676	-0.176332
H176	H	0.339256	0.955606	-0.223173
H177	H	0.776793	1.073139	-0.362616
H178	H	0.112271	0.677435	0.046096
N179	N	0.823017	0.677456	-0.310832
H180	H	0.820485	0.731419	-0.348962
H181	H	0.876372	0.623453	-0.297790
N182	N	0.702124	0.205833	0.436486
H183	H	0.734417	0.190236	0.481624
H184	H	0.725510	0.152109	0.435282
N185	N	0.616660	0.273156	0.051592
H186	H	0.622896	0.227194	0.045259
H187	H	0.559155	0.322641	0.033640
H188	H	0.339226	0.955633	-0.088990
H189	H	0.627519	0.399274	0.040557
N190	N	0.787631	0.947041	-0.226578
H191	H	0.813688	0.977393	-0.233107
H192	H	0.828966	0.881997	-0.200037
H193	H	0.627529	0.073173	0.040541
H194	H	1.186868	0.281723	0.012510
N195	N	0.616599	0.407871	0.156262
H196	H	0.590536	0.377521	0.162804
H197	H	0.654315	0.396623	0.125719
H198	H	0.627531	-0.044384	0.040543
N199	N	0.581259	0.677436	-0.759508
H200	H	0.544421	0.677425	-0.727303
H201	H	0.606699	0.623468	-0.760681
H202	H	1.065026	0.399288	0.152827
H203	H	0.702202	1.131937	-0.489664
N204	N	0.283156	0.677419	0.102470
H205	H	0.235518	0.677421	0.096343
H206	H	0.266933	0.731382	0.100808
H207	H	0.217431	1.073163	-0.334598
H208	H	0.776734	0.399285	0.311248
N209	N	0.422733	0.677438	0.095461
H210	H	0.478557	0.623470	0.122148
H211	H	0.391218	0.677472	0.132538
H212	H	0.596635	0.677440	-0.308053
H213	H	0.915808	0.399303	-0.117875
H214	H	1.037607	0.281769	-0.123990
H215	H	1.186852	0.281759	0.264253
N216	N	1.190938	0.205837	0.411959
H217	H	1.239395	0.190242	0.393967
H218	H	1.190903	0.152111	0.443120
