data_functionalizedCrystal
_audit_creation_method	'MofGen! by Chris Wilmer'
_symmetry_space_group_name_H-M	'P1'
_symmetry_Int_Tables_number	1
_symmetry_cell_setting	triclinic
loop_
_symmetry_equiv_pos_as_xyz
  x,y,z
_cell_length_a	23.532407
_cell_length_b	17.699083
_cell_length_c	16.176319
_cell_angle_alpha	90.007696
_cell_angle_beta	89.997915
_cell_angle_gamma	96.934154
loop_
_atom_site_label
_atom_site_type_symbol
_atom_site_fract_x
_atom_site_fract_y
_atom_site_fract_z
O1	O	0.755526	-0.091879	-0.068645
O2	O	0.589701	-0.105173	-0.068670
O3	O	0.677298	0.011687	-0.068649
O4	O	0.667928	-0.208739	-0.068665
O5	O	0.677286	0.011694	0.068844
O6	O	0.589689	-0.105166	0.068824
O7	O	0.755514	-0.091872	0.068848
Cu8	Cu	0.672600	-0.098518	0.081390
Cu9	Cu	0.672614	-0.098527	-0.081212
O10	O	0.667916	-0.208732	0.068828
C11	C	0.568478	-0.104831	0.000074
C12	C	0.505258	-0.103813	0.000065
N13	N	0.672594	-0.098512	0.195755
C14	C	0.676956	0.039886	0.000097
C15	C	0.675949	0.123899	0.000097
C16	C	0.106335	-0.166585	0.000098
C17	C	0.046932	-0.165639	0.000103
O18	O	0.010354	-0.223829	0.000129
N19	N	0.024106	-0.096166	0.000107
C20	C	0.060687	-0.027634	0.000113
O21	O	0.035817	0.031545	0.000118
C22	C	0.120089	-0.028580	0.000114
C23	C	0.142911	-0.098058	0.000102
C24	C	0.129158	-0.236057	0.000087
C25	C	0.188557	-0.237002	0.000080
C26	C	0.225133	-0.168475	0.000084
C27	C	0.202310	-0.099003	0.000096
C28	C	0.156668	0.039951	0.000127
C29	C	0.216073	0.038999	0.000129
C30	C	0.238896	-0.030479	0.000116
C31	C	0.298285	-0.031421	0.000093
N32	N	0.321110	-0.100894	0.000090
C33	C	0.284534	-0.169421	0.000085
C34	C	-0.064061	-0.025652	0.000113
C35	C	-0.123462	-0.024705	0.000107
C36	C	-0.137213	-0.162710	0.000097
C37	C	-0.077811	-0.163657	0.000098
C38	C	-0.041236	-0.095125	0.000110
C39	C	0.409277	-0.171401	0.000070
C40	C	0.468682	-0.172340	0.000060
C41	C	0.482427	-0.034335	0.000074
C42	C	0.423028	-0.033395	0.000080
C43	C	0.386453	-0.101935	0.000081
O44	O	0.334897	0.026738	0.000071
O45	O	0.309412	-0.228591	0.000092
C46	C	0.776737	-0.092214	0.000103
C47	C	0.839957	-0.093232	0.000106
C48	C	0.668258	-0.236931	0.000079
C49	C	0.669265	-0.320944	0.000074
C50	C	0.727367	0.172781	0.000106
C51	C	0.726417	0.251719	0.000099
C52	C	0.674049	0.281774	0.000089
C53	C	0.622627	0.232886	0.000077
C54	C	0.623577	0.153949	0.000079
C55	C	0.618793	0.551230	0.000070
C56	C	0.617847	0.630173	0.000071
C57	C	0.721633	0.649000	0.000090
C58	C	0.722583	0.570063	0.000092
C59	C	0.671162	0.521181	0.000076
C60	C	0.672192	0.435587	0.000082
C61	C	0.673018	0.367366	0.000088
N62	N	0.672625	-0.098528	-0.195577
C63	C	0.711394	-0.046787	0.239028
C64	C	0.711397	-0.046786	0.325576
C65	C	0.672602	-0.098514	0.368848
C66	C	0.633798	-0.150241	0.325569
C67	C	0.633793	-0.150238	0.239023
C68	C	0.633818	-0.150255	0.674597
C69	C	0.633827	-0.150256	0.761149
C70	C	0.711422	-0.046804	0.761149
C71	C	0.711416	-0.046800	0.674604
C72	C	0.672611	-0.098524	0.631332
C73	C	0.672607	-0.098524	0.537488
C74	C	0.672608	-0.098519	0.462690
H75	H	0.487260	-0.228920	0.000050
F76	F	0.752708	0.008252	0.628554
H77	H	-0.059234	-0.220231	0.000093
H78	H	0.763503	0.688809	0.000098
F79	F	0.090238	-0.308999	0.000082
F80	F	-0.025139	0.047294	0.000117
H81	H	0.742990	-0.004668	0.360808
F82	F	0.212838	-0.310950	0.000071
H83	H	0.602208	-0.192357	0.360806
F84	F	0.752721	0.008249	0.807208
H85	H	0.765227	0.545597	0.000104
F86	F	0.592520	-0.205305	0.628551
F87	F	-0.147744	0.049243	0.000101
F88	F	-0.176150	-0.235643	0.000096
H89	H	0.602234	-0.192381	0.796379
H90	H	0.770011	0.148316	0.000120
H91	H	0.379504	-0.227212	0.000074
F92	F	0.132392	0.113900	0.000128
H93	H	0.602198	-0.192356	0.203791
F94	F	0.521364	0.038592	0.000080
H95	H	0.404445	0.023179	0.000077
F96	F	0.254997	0.111942	0.000143
F97	F	0.781143	0.303740	0.000110
H98	H	0.575200	0.654640	0.000064
F99	F	0.564065	0.499216	0.000051
F100	F	0.566892	0.264875	0.000057
H101	H	0.581708	0.114149	0.000071
H102	H	0.742987	-0.004667	0.203802
