data_functionalizedCrystal
_audit_creation_method	'MofGen! by Chris Wilmer'
_symmetry_space_group_name_H-M	'P1'
_symmetry_Int_Tables_number	1
_symmetry_cell_setting	triclinic
loop_
_symmetry_equiv_pos_as_xyz
  x,y,z
_cell_length_a	18.215407
_cell_length_b	19.805405
_cell_length_c	18.215399
_cell_angle_alpha	89.969390
_cell_angle_beta	89.980167
_cell_angle_gamma	90.026858
loop_
_atom_site_label
_atom_site_type_symbol
_atom_site_fract_x
_atom_site_fract_y
_atom_site_fract_z
Zn1	Zn	1.125064	-0.269462	-0.416102
Zn2	Zn	1.124969	-0.382653	-0.293030
Zn3	Zn	1.001997	-0.269484	-0.293050
Zn4	Zn	1.001959	-0.382615	-0.416055
O5	O	1.063497	-0.326054	-0.354559
O6	O	1.228036	-0.284484	-0.399788
O7	O	1.108633	-0.367666	-0.190049
O8	O	1.018377	-0.174765	-0.309401
O9	O	1.227966	-0.367644	-0.309368
O10	O	1.108794	-0.174748	-0.399807
O11	O	1.018285	-0.284521	-0.190063
O12	O	0.899008	-0.284485	-0.309355
O13	O	1.018313	-0.367580	-0.519046
O14	O	0.898980	-0.367602	-0.399727
O15	O	1.108758	-0.284447	-0.519080
O16	O	1.108596	-0.477365	-0.309322
O17	O	1.018221	-0.477337	-0.399708
C18	C	0.872291	-0.326042	-0.354538
C19	C	0.790492	-0.326053	-0.354547
C20	C	0.602303	-0.369400	-0.401544
C21	C	0.525444	-0.369403	-0.401553
C22	C	0.525444	-0.282719	-0.307591
C23	C	0.602301	-0.282714	-0.307586
C24	C	0.640729	-0.326059	-0.354561
C25	C	0.487013	-0.326066	-0.354575
C26	C	0.403679	-0.326068	-0.354585
C27	C	0.724068	-0.326056	-0.354553
C28	C	1.063415	-0.501910	-0.354524
C29	C	1.063446	-0.577142	-0.354533
C30	C	1.110550	-0.612478	-0.307518
C31	C	1.110582	-0.683166	-0.307535
C32	C	1.063505	-0.718517	-0.354562
C33	C	1.016399	-0.683176	-0.401582
C34	C	1.016372	-0.612489	-0.401569
C35	C	1.016507	-0.968249	-0.401637
C36	C	1.016536	-1.038941	-0.401645
C37	C	1.110717	-1.038927	-0.307602
C38	C	1.110690	-0.968239	-0.307589
C39	C	1.063587	-0.932905	-0.354611
C40	C	1.063555	-0.856256	-0.354594
C41	C	1.063533	-0.795164	-0.354577
C42	C	1.255450	-0.326066	-0.354581
C43	C	1.337249	-0.326071	-0.354590
C44	C	1.063542	-0.326007	-0.546512
C45	C	1.063561	-0.325987	-0.628311
C46	C	1.063601	-0.149511	-0.354611
C47	C	1.063645	-0.074279	-0.354633
C48	C	1.110673	-0.282659	-0.816524
C49	C	1.110682	-0.282639	-0.893383
C50	C	1.016502	-0.369210	-0.893336
C51	C	1.016490	-0.369226	-0.816479
C52	C	1.063580	-0.325952	-0.778075
C53	C	1.063600	-0.325916	-0.931791
C54	C	1.063609	-0.325895	-1.015125
C55	C	1.063570	-0.325972	-0.694736
C56	C	1.063495	-0.326051	-0.163353
C57	C	1.063619	-0.325880	-0.081555
H58	H	0.633588	-0.247416	-0.269327
H59	H	1.149028	-0.247385	-0.924686
C60	C	1.162464	-0.235053	-0.774280
C61	C	1.220222	-0.264392	-0.721446
C62	C	1.272014	-0.216783	-0.679204
C63	C	1.266047	-0.139835	-0.689796
C64	C	1.208287	-0.110493	-0.742633
C65	C	1.156496	-0.158102	-0.784875
H66	H	1.224641	-0.321356	-0.713603
H67	H	1.314772	-0.238504	-0.640091
H68	H	1.304386	-0.104592	-0.658526
H69	H	1.203868	-0.053528	-0.750476
H70	H	1.113738	-0.136380	-0.823988
C71	C	0.483177	-0.417082	-0.453233
C72	C	0.430301	-0.470186	-0.421244
C73	C	0.388034	-0.517868	-0.472927
C74	C	0.398644	-0.512446	-0.556598
C75	C	0.451523	-0.459340	-0.588591
C76	C	0.493789	-0.411658	-0.536909
H77	H	0.422445	-0.474202	-0.359302
H78	H	0.348890	-0.557181	-0.449243
H79	H	0.367356	-0.547743	-0.594857
H80	H	0.459379	-0.455324	-0.650534
H81	H	0.532934	-0.372345	-0.560592
C82	C	0.644575	-0.417073	-0.453221
C83	C	0.602304	-0.464745	-0.504905
C84	C	0.644573	-0.512417	-0.556585
C85	C	0.729113	-0.512417	-0.556582
C86	C	0.771389	-0.464743	-0.504897
C87	C	0.729120	-0.417071	-0.453217
H88	H	0.539718	-0.464747	-0.504908
H89	H	0.613277	-0.547709	-0.594846
H90	H	0.760403	-0.547707	-0.594840
H91	H	0.833974	-0.464741	-0.504894
H92	H	0.760415	-0.381779	-0.414956
H93	H	0.978153	-0.939485	-0.439923
H94	H	0.494146	-0.247431	-0.269344
H95	H	1.148883	-0.583700	-0.269220
C96	C	1.162401	-0.722036	-0.255822
C97	C	1.214185	-0.683152	-0.204092
C98	C	1.266011	-0.722022	-0.152382
C99	C	1.266054	-0.799775	-0.152400
C100	C	1.214269	-0.838663	-0.204132
C101	C	1.162442	-0.799793	-0.255843
H102	H	1.214155	-0.625591	-0.204077
H103	H	1.304346	-0.693234	-0.114086
H104	H	1.304419	-0.828548	-0.114121
H105	H	1.214299	-0.896224	-0.204147
H106	H	1.124107	-0.828581	-0.294138
C107	C	0.964616	-0.722060	-0.453317
C108	C	0.964641	-0.799813	-0.453333
C109	C	0.912856	-0.838695	-0.505069
C110	C	0.861046	-0.799824	-0.556788
C111	C	0.861018	-0.722067	-0.556774
C112	C	0.912803	-0.683185	-0.505038
H113	H	1.002996	-0.828592	-0.415046
H114	H	0.912877	-0.896257	-0.505079
H115	H	0.822712	-0.828607	-0.595086
H116	H	0.822663	-0.693288	-0.595061
H117	H	0.912783	-0.625623	-0.505028
H118	H	0.978136	-0.404480	-0.785172
H119	H	1.149022	-0.939459	-0.269292
C120	C	1.162539	-1.077796	-0.255882
C121	C	1.162579	-1.155549	-0.255894
C122	C	1.214397	-1.194417	-0.204173
C123	C	1.266176	-1.155531	-0.152441
C124	C	1.266139	-1.077774	-0.152427
C125	C	1.214320	-1.038906	-0.204148
H126	H	1.124247	-1.184339	-0.294191
H127	H	1.214424	-1.251978	-0.204184
H128	H	1.304535	-1.184303	-0.114154
H129	H	1.304470	-1.048985	-0.114130
H130	H	1.214293	-0.981345	-0.204137
C131	C	0.964555	-0.573617	-0.453285
C132	C	0.996393	-0.524963	-0.511085
C133	C	0.944577	-0.486092	-0.562805
C134	C	0.860922	-0.495876	-0.556725
C135	C	0.829079	-0.544533	-0.498922
C136	C	0.880895	-0.583403	-0.447202
H137	H	1.058324	-0.517718	-0.515588
H138	H	0.968150	-0.450074	-0.605595
H139	H	0.822565	-0.467102	-0.595012
H140	H	0.767149	-0.551778	-0.494419
H141	H	0.857322	-0.619422	-0.404413
C142	C	0.964753	-1.077829	-0.453383
C143	C	0.912944	-1.038965	-0.505109
C144	C	0.861163	-1.077853	-0.556844
C145	C	0.861192	-1.155606	-0.556852
C146	C	0.913003	-1.194475	-0.505124
C147	C	0.964784	-1.155587	-0.453390
H148	H	0.912920	-0.981403	-0.505104
H149	H	0.822809	-1.049079	-0.595136
H150	H	0.822861	-1.184394	-0.595149
H151	H	0.913026	-1.252037	-0.505129
H152	H	1.003138	-1.184361	-0.415098
C153	C	0.964711	-0.416816	-0.935582
C154	C	0.964725	-0.416804	-1.020122
C155	C	0.912934	-0.464413	-1.062366
C156	C	0.861131	-0.512033	-1.020070
C157	C	0.861116	-0.512046	-0.935525
C158	C	0.912906	-0.464438	-0.893281
H159	H	1.003074	-0.381551	-1.051436
H160	H	0.912946	-0.464403	-1.124952
H161	H	0.822793	-0.547276	-1.051342
H162	H	0.822766	-0.547299	-0.904211
H163	H	0.912894	-0.464448	-0.830695
