data_functionalizedCrystal
_audit_creation_method	'MofGen! by Chris Wilmer'
_symmetry_space_group_name_H-M	'P1'
_symmetry_Int_Tables_number	1
_symmetry_cell_setting	triclinic
loop_
_symmetry_equiv_pos_as_xyz
  x,y,z
_cell_length_a	16.625547
_cell_length_b	18.101396
_cell_length_c	16.625525
_cell_angle_alpha	90.091162
_cell_angle_beta	89.934616
_cell_angle_gamma	89.963039
loop_
_atom_site_label
_atom_site_type_symbol
_atom_site_fract_x
_atom_site_fract_y
_atom_site_fract_z
Zn1	Zn	1.232922	0.294360	-0.456009
Zn2	Zn	1.232696	0.418348	-0.321179
Zn3	Zn	1.097988	0.294525	-0.321179
Zn4	Zn	1.098020	0.418165	-0.455959
O5	O	1.165407	0.356349	-0.388582
O6	O	1.345724	0.310816	-0.438144
O7	O	1.214718	0.402068	-0.208346
O8	O	1.115969	0.190870	-0.339086
O9	O	1.345558	0.401909	-0.339085
O10	O	1.215104	0.190749	-0.438145
O11	O	1.115749	0.311096	-0.208347
O12	O	0.985160	0.310918	-0.339037
O13	O	1.116023	0.401596	-0.568799
O14	O	0.985183	0.401755	-0.438060
O15	O	1.215135	0.310638	-0.568835
O16	O	1.214749	0.521957	-0.339037
O17	O	1.115803	0.521822	-0.438059
C18	C	0.955916	0.356335	-0.388544
C19	C	0.866295	0.356347	-0.388547
C20	C	0.793512	0.356348	-0.388556
C21	C	0.702204	0.356352	-0.388577
C22	C	0.629427	0.356359	-0.388597
C23	C	0.538113	0.356364	-0.388616
C24	C	1.165277	0.548760	-0.388560
C25	C	1.165295	0.631074	-0.388578
C26	C	1.165439	0.930165	-0.388625
C27	C	1.103333	0.898786	-0.451082
C28	C	1.103047	0.813168	-0.450885
C29	C	1.165368	0.781783	-0.388603
C30	C	1.142297	0.813022	-0.303623
C31	C	1.141887	0.898667	-0.303998
C32	C	1.250754	0.898486	-0.410400
C33	C	1.250264	0.812833	-0.412262
C34	C	1.165329	0.697923	-0.388585
C35	C	1.165476	1.014024	-0.388637
C36	C	1.375715	0.356364	-0.388620
C37	C	1.465337	0.356371	-0.388637
C38	C	1.165608	0.356078	-0.598891
C39	C	1.165694	0.355962	-0.688513
C40	C	1.165530	1.163188	-0.388624
C41	C	1.165511	1.080873	-0.388650
C42	C	1.165252	0.356567	-0.179090
C43	C	1.165323	0.356474	-0.089469
C44	C	1.165393	0.356387	-0.016687
C45	C	1.165480	0.356271	0.074621
C46	C	1.165544	0.356174	0.147397
C47	C	1.165629	0.356059	0.238711
H48	H	1.117489	0.792039	-0.513897
N49	N	1.196138	0.924733	-0.243612
N50	N	1.170709	0.964396	-0.187455
H51	H	1.209016	0.982806	-0.144803
N52	N	1.272081	0.787204	-0.490719
N53	N	1.225324	0.746220	-0.529111
H54	H	1.240729	0.728116	-0.584523
H55	H	1.039815	0.792760	-0.436461
N56	N	1.063648	0.923828	-0.280853
N57	N	1.009726	0.878136	-0.264538
H58	H	0.954468	0.895902	-0.248192
N59	N	1.121239	0.924481	-0.530392
N60	N	1.078138	0.905198	-0.588281
H61	H	1.090783	0.923350	-0.644297
H62	H	1.186110	0.792701	-0.255818
N63	N	1.024489	0.925891	-0.433213
N64	N	1.013840	0.968218	-0.374680
H65	H	0.958158	0.987364	-0.362058
N66	N	1.064893	0.786215	-0.280074
N67	N	1.026587	0.744113	-0.325730
H68	H	0.971919	0.725179	-0.309103
N69	N	1.311398	0.786023	-0.359360
N70	N	1.323968	0.718148	-0.353618
H71	H	1.367142	0.699214	-0.316248
N72	N	1.277114	0.925447	-0.486811
N73	N	1.233335	0.968342	-0.526151
H74	H	1.251944	0.987386	-0.580119
N75	N	1.308795	0.923947	-0.353327
N76	N	1.287528	0.965242	-0.296838
H77	H	1.328513	0.983227	-0.256526
