data_functionalizedCrystal
_audit_creation_method	'MofGen! by Chris Wilmer'
_symmetry_space_group_name_H-M	'P1'
_symmetry_Int_Tables_number	1
_symmetry_cell_setting	triclinic
loop_
_symmetry_equiv_pos_as_xyz
  x,y,z
_cell_length_a	16.992698
_cell_length_b	16.053802
_cell_length_c	16.109301
_cell_angle_alpha	87.436620
_cell_angle_beta	92.935789
_cell_angle_gamma	87.242832
loop_
_atom_site_label
_atom_site_type_symbol
_atom_site_fract_x
_atom_site_fract_y
_atom_site_fract_z
O1	O	-1.043656	0.069450	0.172995
O2	O	-0.543656	0.569450	0.672995
O3	O	-0.815371	0.069448	0.171064
O4	O	-0.315371	0.569448	0.671064
O5	O	-0.935785	0.069440	0.051417
O6	O	-0.435785	0.569440	0.551417
O7	O	-0.923243	0.069457	0.292642
O8	O	-0.423243	0.569457	0.792642
O9	O	-0.929157	-0.069418	0.057974
O10	O	-0.429157	0.430582	0.557974
O11	O	-0.808743	-0.069411	0.177621
O12	O	-0.308743	0.430589	0.677621
O13	O	-1.037028	-0.069409	0.179552
O14	O	-0.537028	0.430591	0.679552
Zn15	Zn	-0.921834	-0.091457	0.179627
Zn16	Zn	-0.421834	0.408543	0.679627
Zn17	Zn	-0.930566	0.091496	0.170989
Zn18	Zn	-0.430566	0.591496	0.670989
O19	O	-0.916615	-0.069401	0.299199
O20	O	-0.416615	0.430599	0.799199
C21	C	-0.782845	0.000018	0.171855
C22	C	-0.282845	0.500018	0.671855
C23	C	-0.695803	0.000017	0.164432
C24	C	-0.195803	0.500017	0.664432
N25	N	-0.915880	-0.216316	0.185523
N26	N	-0.415880	0.283684	0.685523
C27	C	-0.206856	0.000012	0.114560
C28	C	0.293144	0.500012	0.614560
C29	C	-0.288640	0.000008	0.121541
C30	C	0.211360	0.500008	0.621541
C31	C	-0.320164	0.000018	0.200148
C32	C	0.179836	0.500018	0.700148
C33	C	-0.269898	0.000023	0.271779
C34	C	0.230102	0.500023	0.771779
C35	C	-0.188115	0.000021	0.264797
C36	C	0.311885	0.500021	0.764797
C37	C	-0.563754	0.000020	0.229082
C38	C	-0.063754	0.500020	0.729082
C39	C	-0.645544	0.000025	0.236058
C40	C	-0.145544	0.500025	0.736058
C41	C	-0.664280	0.000009	0.085820
C42	C	-0.164280	0.500009	0.585820
C43	C	-0.582495	0.000011	0.078845
C44	C	-0.082495	0.500011	0.578845
C45	C	-0.532236	0.000012	0.150476
C46	C	-0.032236	0.500012	0.650476
N47	N	-0.403761	0.000017	0.207285
N48	N	0.096239	0.500017	0.707285
N49	N	-0.448640	0.000007	0.143338
N50	N	0.051360	0.500007	0.643338
C51	C	-0.967134	-0.260014	0.134634
C52	C	-0.467134	0.239986	0.634634
C53	C	-0.962977	-0.347420	0.138766
C54	C	-0.462977	0.152580	0.638766
C55	C	-0.907568	-0.391128	0.193793
C56	C	-0.407568	0.108872	0.693793
C57	C	-0.856308	-0.347425	0.244684
C58	C	-0.356308	0.152575	0.744684
C59	C	-0.860462	-0.260020	0.240547
C60	C	-0.360462	0.239980	0.740547
C61	C	-0.889421	-0.652536	0.211841
C62	C	-0.389421	-0.152536	0.711841
C63	C	-0.885272	-0.739947	0.215976
C64	C	-0.385272	-0.239947	0.715976
C65	C	-0.991940	-0.739937	0.110057
C66	C	-0.491940	-0.239937	0.610057
C67	C	-0.996093	-0.652530	0.105928
C68	C	-0.496093	-0.152530	0.605928
C69	C	-0.944830	-0.608835	0.156816
C70	C	-0.444830	-0.108835	0.656816
N71	N	-0.903318	-0.480471	0.198020
N72	N	-0.403318	0.019529	0.698020
N73	N	-0.949076	-0.519493	0.152584
N74	N	-0.449076	-0.019493	0.652584
C75	C	-0.069554	0.000020	0.178762
C76	C	0.430446	0.500020	0.678762
C77	C	-0.156596	0.000020	0.186186
C78	C	0.343404	0.500020	0.686186
C79	C	-0.931963	0.000011	0.023687
C80	C	-0.431963	0.500011	0.523687
C81	C	-0.930439	0.000009	-0.068710
C82	C	-0.430439	0.500009	0.431290
N83	N	-0.936526	0.216355	0.165087
N84	N	-0.436526	0.716355	0.665087
C85	C	-0.998349	0.000023	-0.286452
C86	C	-0.498349	0.500023	0.213548
C87	C	-0.996912	0.000030	-0.373269
C88	C	-0.496912	0.500030	0.126731
C89	C	-0.854045	0.000026	-0.362926
C90	C	-0.354045	0.500026	0.137074
C91	C	-0.855484	0.000025	-0.276111
C92	C	-0.355484	0.500025	0.223889
C93	C	-0.927638	0.000019	-0.237877
C94	C	-0.427638	0.500019	0.262123
C95	C	-0.924763	0.000027	-0.411508
C96	C	-0.424763	0.500027	0.088492
C97	C	-0.923204	0.000034	-0.505638
C98	C	-0.423204	0.500034	-0.005638
C99	C	-0.929197	0.000013	-0.143740
C100	C	-0.429197	0.500013	0.356260
C101	C	-0.920437	0.000030	0.326929
C102	C	-0.420437	0.500030	0.826929
C103	C	-0.921961	0.000037	0.419325
C104	C	-0.421961	0.500037	0.919325
H105	H	-0.181197	0.000010	0.050550
H106	H	0.318803	0.500010	0.550550
H107	H	-0.811188	-0.383017	0.289485
H108	H	-0.311188	0.116983	0.789485
F109	F	-1.017527	-0.393926	0.084603
F110	F	-0.517527	0.106074	0.584603
F111	F	-0.342127	-0.000004	0.045307
F112	F	0.157873	0.499996	0.545307
F113	F	-1.072174	0.000036	-0.424963
F114	F	-0.572174	0.500036	0.075037
F115	F	-0.826295	-0.786459	0.274548
F116	F	-0.326295	-0.286459	0.774548
F117	F	-0.834866	-0.606039	0.266002
F118	F	-0.334866	-0.106039	0.766002
H119	H	-0.705210	0.000007	0.027502
H120	H	-0.205210	0.500007	0.527502
F121	F	-1.055066	-0.606014	0.047364
F122	F	-0.555066	-0.106014	0.547364
F123	F	-0.780219	0.000027	-0.224410
F124	F	-0.280219	0.500027	0.275590
F125	F	-1.026113	-0.213505	0.076071
F126	F	-0.526113	0.286495	0.576071
F127	F	-0.303450	0.000031	0.355438
F128	F	0.196550	0.500031	0.855438
F129	F	-0.548953	0.000025	-0.004820
F130	F	-0.048953	0.500025	0.495180
F131	F	-1.046493	-0.786446	0.055900
F132	F	-0.546493	-0.286446	0.555900
H133	H	-1.057102	0.000021	-0.255324
H134	H	-0.557102	0.500021	0.244676
F135	F	-0.679091	0.000034	0.319726
F136	F	-0.179091	0.500034	0.819726
H137	H	-0.795300	0.000028	-0.394067
H138	H	-0.295300	0.500028	0.105933
F139	F	-0.510275	0.000029	0.305319
F140	F	-0.010275	0.500029	0.805319
F141	F	-0.134624	0.000024	0.341032
F142	F	0.365376	0.500024	0.841032
F143	F	-0.805907	-0.213515	0.294708
F144	F	-0.305907	0.286485	0.794708
