data_functionalizedCrystal
_audit_creation_method	'MofGen! by Chris Wilmer'
_symmetry_space_group_name_H-M	'P1'
_symmetry_Int_Tables_number	1
_symmetry_cell_setting	triclinic
loop_
_symmetry_equiv_pos_as_xyz
  x,y,z
_cell_length_a	15.625950
_cell_length_b	14.044190
_cell_length_c	14.750779
_cell_angle_alpha	76.178157
_cell_angle_beta	120.090508
_cell_angle_gamma	88.497992
loop_
_atom_site_label
_atom_site_type_symbol
_atom_site_fract_x
_atom_site_fract_y
_atom_site_fract_z
O1	O	1.288760	0.028993	0.368632
O2	O	1.005367	0.069096	0.270012
O3	O	1.142811	-0.088570	0.317861
O4	O	1.151316	0.186658	0.320783
O5	O	1.181665	-0.133136	0.491037
O6	O	1.044221	0.024530	0.443188
O7	O	1.327614	-0.015573	0.541808
Zn8	Zn	1.192086	-0.002597	0.519994
Zn9	Zn	1.140894	0.056120	0.291826
O10	O	1.190170	0.142093	0.493959
C11	C	0.988307	0.049410	0.343903
C12	C	0.879585	0.057136	0.306069
C13	C	0.627794	-0.038831	0.653505
C14	C	0.525622	-0.031539	0.617906
C15	C	0.483315	0.017041	0.429133
C16	C	0.585486	0.009758	0.464716
C17	C	0.657718	-0.018179	0.576903
C18	C	0.615409	0.030410	0.388115
C19	C	0.717571	0.023122	0.423696
C20	C	0.789808	-0.004817	0.535878
C21	C	0.759879	-0.025467	0.612484
C22	C	0.543176	0.058340	0.275928
C23	C	0.573100	0.078992	0.199327
C24	C	0.675262	0.071711	0.234907
C25	C	0.747500	0.043772	0.347089
C26	C	0.705192	0.092361	0.158301
C27	C	0.807353	0.085074	0.193882
C28	C	0.849662	0.036485	0.382670
C29	C	1.158513	-0.145840	0.403156
C30	C	1.147405	-0.250087	0.399298
C31	C	1.205883	-0.505526	0.419611
C32	C	1.127100	-0.440944	0.392201
C33	C	1.138400	-0.334742	0.396151
C34	C	1.194584	-0.611738	0.415662
C35	C	1.344674	0.004113	0.467915
C36	C	1.453393	-0.003612	0.505742
C37	C	1.174467	0.199363	0.408662
C38	C	1.185574	0.303612	0.412513
N39	N	1.227030	-0.042672	0.675715
N40	N	1.105957	0.096186	0.136108
C41	C	1.008359	0.208066	0.951406
C42	C	1.032854	0.179990	1.060432
C43	C	1.154592	0.040422	1.102776
C44	C	1.130104	0.068483	0.993750
C45	C	1.056988	0.152306	0.918073
C46	C	1.178733	0.012724	0.960417
C47	C	1.154250	0.040786	0.851402
C48	C	1.081140	0.124608	0.775719
C49	C	1.032506	0.180369	0.809057
C50	C	1.251853	-0.071095	1.036098
C51	C	1.300482	-0.126855	1.002765
C52	C	1.275995	-0.098797	0.893746
C53	C	1.202884	-0.014975	0.818063
C54	C	1.324629	-0.154558	0.860408
C55	C	1.300146	-0.126495	0.751392
C56	C	1.178402	0.013088	0.709048
H57	H	0.908478	0.013750	0.474024
Br58	Br	1.285084	-0.109171	1.184051
H59	H	0.993249	0.225404	1.087563
H60	H	1.360017	-0.195103	1.064394
Br61	Br	1.000537	-0.481727	0.348153
H62	H	0.818695	-0.048202	0.703838
H63	H	1.281813	-0.481057	0.446044
Br64	Br	0.475066	0.116868	0.047078
Br65	Br	1.079156	0.126839	0.606332
H66	H	0.831716	0.101895	0.131505
Br67	Br	0.933260	0.294121	0.706342
Br68	Br	1.423869	-0.268303	0.963125
H69	H	1.061210	0.147458	0.686954
H70	H	0.948814	0.276317	0.889783
Br71	Br	0.485017	-0.059592	0.721878
Br72	Br	0.928460	-0.014720	0.584171
Br73	Br	0.725832	-0.076730	0.805761
H74	H	1.214126	-0.027826	1.164406
H75	H	1.339746	-0.171900	0.724254
Br76	Br	0.385281	0.054917	0.276885
H77	H	0.646367	0.115098	0.066958
H78	H	0.459991	0.064277	0.246962
