data_functionalizedCrystal
_audit_creation_method	'MofGen! by Chris Wilmer'
_symmetry_space_group_name_H-M	'P1'
_symmetry_Int_Tables_number	1
_symmetry_cell_setting	triclinic
loop_
_symmetry_equiv_pos_as_xyz
  x,y,z
_cell_length_a	20.919319
_cell_length_b	20.919309
_cell_length_c	19.851628
_cell_angle_alpha	90.000877
_cell_angle_beta	57.457547
_cell_angle_gamma	60.108551
loop_
_atom_site_label
_atom_site_type_symbol
_atom_site_fract_x
_atom_site_fract_y
_atom_site_fract_z
Zr1	Zr	0.648470	0.668270	-0.087381
O2	O	0.789817	0.567679	-0.204807
O3	O	0.512843	0.695334	-0.047785
O4	O	0.645925	0.700777	-0.193499
O5	O	0.656748	0.562233	0.051756
O6	O	0.637410	0.810059	-0.188674
O7	O	0.656735	0.562235	-0.059092
O8	O	0.399352	0.800322	0.071983
O9	O	0.894806	0.571970	-0.208901
O10	O	0.560155	0.792990	-0.031645
O11	O	0.566519	0.711432	0.047479
O12	O	0.723205	0.717841	-0.124081
O13	O	0.729569	0.636283	-0.044958
Zr14	Zr	0.634910	0.842557	0.097105
Zr15	Zr	0.634890	0.842561	-0.079685
Zr16	Zr	0.648490	0.668265	0.089409
Zr17	Zr	0.815916	0.675113	-0.093911
Zr18	Zr	0.467463	0.835713	0.103635
O19	O	0.770536	0.815492	0.057508
O20	O	0.770507	0.815499	-0.193865
O21	O	0.789845	0.567672	0.046566
O22	O	0.493563	0.943148	0.214530
O23	O	0.493534	0.943154	-0.036842
O24	O	0.512872	0.695328	0.203588
O25	O	0.626632	0.948594	-0.042033
O26	O	0.637455	0.810049	0.203223
O27	O	0.645969	0.700767	0.198398
O28	O	0.626644	0.948591	0.068816
O29	O	0.884012	0.710508	-0.202784
O30	O	0.399368	0.800318	0.212508
O31	O	0.388573	0.938857	0.218625
O32	O	0.388557	0.938860	0.078100
O33	O	0.894822	0.571966	-0.068377
O34	O	0.884028	0.710505	-0.062260
O35	O	0.560174	0.792985	0.133805
O36	O	0.553810	0.874543	0.054681
O37	O	0.716860	0.799394	-0.037756
O38	O	0.723224	0.717837	0.041368
C39	C	0.432240	0.746853	0.013030
C40	C	0.361155	0.743947	0.015802
C41	C	-0.041032	0.725651	0.033894
C42	C	0.025808	0.728341	0.031236
C43	C	0.055908	0.772253	-0.011401
C44	C	0.019157	0.813486	-0.051375
C45	C	-0.047686	0.810801	-0.048711
C46	C	0.257561	0.782495	-0.021508
C47	C	0.324411	0.785175	-0.024171
C48	C	0.331056	0.700030	0.058442
C49	C	0.264215	0.697345	0.061098
C50	C	0.227467	0.738581	0.021128
C51	C	0.124231	0.775001	-0.014122
C52	C	0.159140	0.735837	0.023854
C53	C	0.658676	0.537401	-0.004764
C54	C	0.664441	0.463410	-0.008032
C55	C	0.582042	0.467874	0.038680
C56	C	0.587464	0.398348	0.035608
C57	C	0.675287	0.324360	-0.014181
C58	C	0.757693	0.319899	-0.060894
C59	C	0.752270	0.389423	-0.057817
C60	C	0.695921	0.112479	-0.025881
C61	C	0.701338	0.042953	-0.028957
C62	C	0.531108	0.121408	0.067547
C63	C	0.525692	0.190930	0.070616
C64	C	0.608098	0.186462	0.023906
C65	C	0.680832	0.253293	-0.017324
C66	C	0.602552	0.257528	0.027055
C67	C	0.851139	0.763974	-0.003306
C68	C	0.922225	0.766879	-0.006078
C69	C	0.641665	0.755419	-0.216276
C70	C	0.641656	0.755421	-0.291328
C71	C	0.624703	0.973425	0.014488
C72	C	0.618938	1.047416	0.017755
C73	C	0.552775	0.796393	-0.422294
C74	C	0.601457	0.721454	-0.494798
C75	C	0.641680	0.755414	-0.428760
C76	C	0.592993	0.830337	-0.489991
C77	C	0.641696	0.755413	-0.561510
C78	C	0.690366	0.680430	-0.500278
C79	C	0.681886	0.789367	-0.495458
C80	C	0.730635	0.714385	-0.567979
C81	C	0.641668	0.755415	-0.352285
C82	C	0.641716	0.755404	-0.637988
C83	C	0.641715	0.755408	0.225999
C84	C	0.641723	0.755406	0.301051
C85	C	0.415253	0.964865	0.022656
C86	C	0.338403	1.035951	0.028695
C87	C	0.432265	0.746847	0.234167
C88	C	0.361188	0.743940	0.311991
C89	C	0.415278	0.964859	0.243793
C90	C	0.338437	1.035943	0.324884
C91	C	0.868101	0.545967	-0.234070
C92	C	0.944943	0.474883	-0.315161
C93	C	0.868126	0.545962	-0.012932
C94	C	0.944976	0.474876	-0.018972
C95	C	0.851114	0.763979	-0.224444
C96	C	0.922191	0.766886	-0.302268
C97	C	0.305625	1.026763	-0.013537
C98	C	0.233426	1.093550	-0.007880
C99	C	0.194001	1.169523	0.040015
C100	C	0.226785	1.178709	0.082249
C101	C	0.298988	1.111923	0.076586
C102	C	0.324498	0.785145	0.393607
C103	C	0.257723	0.782410	0.466737
C104	C	0.227635	0.738475	0.458250
C105	C	0.264333	0.697266	0.376626
C106	C	0.331111	0.699996	0.303497
C107	C	0.299028	1.111905	0.321664
C108	C	0.226836	1.178703	0.397851
C109	C	0.194049	1.169537	0.477258
C110	C	0.233464	1.093568	0.480476
C111	C	0.305660	1.026772	0.404289
C112	C	0.984359	0.398922	-0.311941
C113	C	1.056572	0.332125	-0.388129
C114	C	1.089363	0.341290	-0.467535
C115	C	1.049943	0.417259	-0.470753
C116	C	0.977736	0.484055	-0.394567
C117	C	0.977761	0.484063	0.023253
C118	C	1.049979	0.417278	0.017576
C119	C	1.089406	0.341305	-0.030322
C120	C	1.056619	0.332119	-0.072552
C121	C	0.984407	0.398904	-0.066879
C122	C	0.952257	0.810829	-0.293753
C123	C	1.019031	0.813576	-0.366870
C124	C	1.055743	0.772376	-0.448500
C125	C	1.025671	0.728432	-0.457012
C126	C	0.958893	0.725690	-0.383897
H127	H	0.239711	0.661588	0.095819
F128	F	1.084858	0.427071	0.062529
F129	F	0.935814	0.564914	0.074233
F130	F	1.084850	0.427002	-0.555271
H131	H	0.360982	0.666459	0.090984
F132	F	0.935788	0.564897	-0.398006
H133	H	0.454177	0.251170	0.111143
F134	F	0.794816	-0.035794	-0.081959
H135	H	-0.065529	0.689888	0.068609
H136	H	0.173260	0.736259	0.517804
H137	H	1.148205	0.286931	-0.034934
H138	H	0.325713	1.119382	0.257015
H139	H	0.337737	0.964923	0.406923
F140	F	0.051191	0.860224	-0.096750
F141	F	1.098588	0.251256	-0.123524
H142	H	0.337724	0.964908	-0.052549
F143	F	0.499762	0.403104	0.085333
F144	F	0.783625	0.107715	-0.075596
H145	H	0.957716	0.391412	-0.101262
F146	F	1.064757	0.684581	-0.543897
H147	H	0.957666	0.391444	-0.247292
F148	F	0.839971	0.384670	-0.107531
H149	H	0.922376	0.844380	-0.227293
H150	H	1.043509	0.849359	-0.359922
F151	F	0.774298	0.174545	-0.070312
H152	H	0.464018	0.125036	0.105576
H153	H	0.348916	0.820936	-0.058894
H154	H	1.110118	0.774615	-0.508028
F155	F	0.117155	1.240595	0.046035
F156	F	0.851162	0.241153	-0.113878
H157	H	0.934421	0.689903	-0.390841
F158	F	0.184897	1.259547	0.394408
F159	F	1.098511	0.251280	-0.384686
H160	H	0.055716	0.694774	0.063792
F161	F	0.198545	1.083757	-0.052831
H162	H	0.567469	0.692732	-0.495269
F163	F	0.218479	0.826364	-0.064069
H164	H	0.531047	0.317772	0.067596
H165	H	0.715841	0.818106	-0.494954
F166	F	0.218676	0.826276	0.553600
H167	H	-0.077604	0.844374	-0.081260
H168	H	0.134627	0.700086	0.058572
H169	H	0.148745	0.810754	-0.048840
H170	H	0.510526	0.528114	0.079228
F171	F	0.232301	0.650510	0.367607
F172	F	0.744138	0.597568	-0.505085
F173	F	0.454525	0.841610	-0.340850
H174	H	0.805872	0.679679	-0.630202
H175	H	0.194675	1.240575	0.121244
H176	H	0.135262	1.223934	0.539287
H177	H	0.325666	1.119415	0.110982
F178	F	0.539171	0.913155	-0.485268
F179	F	0.356504	0.831912	0.402659
H180	H	0.206758	1.086117	0.545139
F181	F	0.370149	0.656141	0.216638
H182	H	1.148159	0.286894	-0.529565
