data_functionalizedCrystal
_audit_creation_method	'MofGen! by Chris Wilmer'
_symmetry_space_group_name_H-M	'P1'
_symmetry_Int_Tables_number	1
_symmetry_cell_setting	triclinic
loop_
_symmetry_equiv_pos_as_xyz
  x,y,z
_cell_length_a	19.188930
_cell_length_b	16.992695
_cell_length_c	15.455331
_cell_angle_alpha	92.867087
_cell_angle_beta	92.672088
_cell_angle_gamma	93.093497
loop_
_atom_site_label
_atom_site_type_symbol
_atom_site_fract_x
_atom_site_fract_y
_atom_site_fract_z
O1	O	-0.934738	0.094406	-0.072401
O2	O	-0.732195	0.107584	-0.072340
O3	O	-0.832655	-0.013145	-0.072378
O4	O	-0.834278	0.215135	-0.072363
O5	O	-0.826935	-0.006241	0.071886
O6	O	-0.726476	0.114488	0.071924
O7	O	-0.929018	0.101310	0.071863
Cu8	Cu	-0.827225	0.108529	0.085066
Cu9	Cu	-0.833988	0.100365	-0.085543
O10	O	-0.828559	0.222039	0.071901
C11	C	-0.703299	0.110610	-0.000201
C12	C	-0.625719	0.109330	-0.000178
C13	C	-0.827706	-0.038899	-0.000249
C14	C	-0.821473	-0.125922	-0.000259
C15	C	-0.957914	0.098284	-0.000279
C16	C	-1.035495	0.099563	-0.000307
C17	C	-0.584940	0.180169	-0.000187
C18	C	-0.512046	0.178965	-0.000197
C19	C	-0.479935	0.106918	-0.000215
C20	C	-0.520722	0.036070	-0.000201
C21	C	-0.593614	0.037276	-0.000182
N22	N	-0.370680	0.049496	-0.049352
N23	N	-0.301435	0.048355	-0.049372
C24	C	-0.260315	0.103279	-0.000268
N25	N	-0.291055	0.159400	0.048845
N26	N	-0.360306	0.160543	0.048860
C27	C	-0.400896	0.105602	-0.000234
C28	C	-0.140497	0.172818	-0.000286
C29	C	-0.067602	0.171611	-0.000290
C30	C	-0.076279	0.028714	-0.000303
C31	C	-0.149173	0.029923	-0.000290
C32	C	-0.181277	0.101977	-0.000286
C33	C	-0.833507	0.247793	-0.000230
C34	C	-0.839740	0.334816	-0.000226
N35	N	-0.822472	0.114271	0.205063
C36	C	-0.779600	0.385263	-0.000209
C37	C	-0.785461	0.467029	-0.000221
C38	C	-0.851463	0.498346	-0.000245
C39	C	-0.911608	0.447892	-0.000266
C40	C	-0.905746	0.366127	-0.000259
C41	C	-0.875757	0.741859	-0.000273
C42	C	-0.881614	0.823630	-0.000276
C43	C	-0.755466	0.842762	-0.000234
C44	C	-0.749610	0.760995	-0.000222
C45	C	-0.809755	0.710548	-0.000247
N46	N	-0.857455	0.581924	-0.000256
N47	N	-0.803763	0.626971	-0.000243
C48	C	-0.796059	0.145908	0.749080
C49	C	-0.799669	0.141581	0.658271
C50	C	-0.845973	0.085980	0.612843
C51	C	-0.888665	0.034699	0.658229
C52	C	-0.885051	0.039023	0.749036
C53	C	-0.861550	0.067314	0.341256
C54	C	-0.865163	0.062995	0.250442
C55	C	-0.776165	0.169876	0.250491
C56	C	-0.772558	0.174199	0.341300
C57	C	-0.815247	0.122915	0.386678
N58	N	-0.849666	0.081557	0.520021
N59	N	-0.811551	0.127334	0.479498
N60	N	-0.838749	0.094632	0.794460
H61	H	-0.611075	0.238840	-0.000185
H62	H	-0.494572	-0.022592	-0.000227
H63	H	-0.734854	0.219473	0.378286
C64	C	-1.035709	0.420762	-0.000322
C65	C	-0.984160	0.482312	-0.000300
H66	H	-1.080500	0.442012	-0.000348
H67	H	-1.028810	0.391684	0.049988
H68	H	-1.032784	0.386855	-0.050629
H69	H	-0.987081	0.516216	0.050010
H70	H	-0.991062	0.511403	-0.050615
C71	C	-0.643224	0.748575	-0.074351
C72	C	-0.677058	0.726577	-0.000200
H73	H	-0.598434	0.727323	-0.074335
H74	H	-0.638110	0.804485	-0.074346
H75	H	-0.670178	0.728824	-0.124660
H76	H	-0.650106	0.746333	0.050110
H77	H	-0.682168	0.670656	-0.000196
C78	C	-0.949901	-0.038745	0.332074
C79	C	-0.908489	0.010959	0.391128
H80	H	-0.978886	-0.073531	0.362867
H81	H	-0.920687	-0.068561	0.296654
H82	H	-0.978225	-0.007850	0.296660
H83	H	-0.880161	-0.019937	0.426538
H84	H	-0.937707	0.040777	0.426562
H85	H	-0.741409	0.211629	0.213536
C86	C	-0.510785	0.320332	-0.000214
C87	C	-0.467212	0.256835	-0.000219
H88	H	-0.483106	0.368404	-0.000235
H89	H	-0.537377	0.320250	0.050102
H90	H	-0.541414	0.315410	-0.050515
H91	H	-0.436586	0.261754	0.050086
H92	H	-0.440607	0.256919	-0.050540
C93	C	-0.711345	0.247669	0.667440
C94	C	-0.752746	0.197948	0.608390
H95	H	-0.682379	0.282471	0.636644
H96	H	-0.683010	0.216792	0.702847
H97	H	-0.740574	0.277473	0.702867
H98	H	-0.723517	0.168140	0.572967
H99	H	-0.781084	0.228829	0.572968
H100	H	-0.902872	0.017716	0.213459
C101	C	-0.677655	-0.040718	0.073989
C102	C	-0.638442	-0.040596	-0.000179
H103	H	-0.705327	-0.088796	0.073990
H104	H	-0.707206	0.002359	0.073992
H105	H	-0.647022	-0.035812	0.124287
H106	H	-0.669076	-0.045496	-0.050477
H107	H	-0.608888	-0.083684	-0.000189
C108	C	-0.124600	0.313944	-0.000265
C109	C	-0.175791	0.252017	-0.000268
H110	H	-0.146390	0.362837	-0.000248
H111	H	-0.098362	0.308097	-0.050576
H112	H	-0.094339	0.312900	0.050041
H113	H	-0.206050	0.253057	-0.050577
H114	H	-0.202042	0.257866	0.050048
C115	C	-0.975274	0.259523	-0.074440
C116	C	-0.971854	0.310672	-0.000279
H117	H	-1.016090	0.225292	-0.074457
H118	H	-0.935132	0.229175	-0.074419
H119	H	-0.976931	0.289417	-0.124742
H120	H	-0.970192	0.280779	0.050023
H121	H	-1.012007	0.341024	-0.000293
H122	H	-0.034400	0.229299	-0.000293
H123	H	-0.926364	-0.010576	0.621236
C124	C	-0.058266	-0.089901	0.073843
C125	C	-0.040988	-0.050481	-0.000320
H126	H	-0.036471	-0.138791	0.073836
H127	H	-0.107508	-0.099322	0.073845
H128	H	-0.042524	-0.058326	0.124144
H129	H	-0.056735	-0.082054	-0.050622
H130	H	0.008265	-0.041063	-0.000330
H131	H	-0.182375	-0.027762	-0.000288
H132	H	-0.935363	0.849125	-0.000295
C133	C	-0.973382	-0.067059	0.739873
C134	C	-0.931975	-0.017343	0.798921
H135	H	-1.002351	-0.101857	0.770671
H136	H	-0.944164	-0.096861	0.704444
H137	H	-1.001722	-0.036173	0.704468
H138	H	-0.903632	-0.048229	0.834322
H139	H	-0.961197	0.012461	0.834365
H140	H	-0.725854	0.359772	-0.000179
H141	H	-0.736488	0.508101	-0.000210
C142	C	-1.001033	0.731175	-0.000297
C143	C	-0.941867	0.686416	-0.000284
H144	H	-1.041848	0.696942	-0.000297
H145	H	-1.002692	0.761048	-0.050604
H146	H	-0.998691	0.765880	0.050012
H147	H	-0.944207	0.651714	-0.050597
H148	H	-0.940209	0.656529	0.050028
C149	C	-0.646810	0.887803	0.073957
C150	C	-0.689358	0.898214	-0.000216
H151	H	-0.605998	0.922041	0.073965
H152	H	-0.633878	0.834631	0.073958
H153	H	-0.671697	0.899690	0.124251
H154	H	-0.664473	0.886322	-0.050511
H155	H	-0.702290	0.951398	-0.000225
H156	H	-0.758356	0.191187	0.786062
