data_functionalizedCrystal
_audit_creation_method	'MofGen! by Chris Wilmer'
_symmetry_space_group_name_H-M	'P1'
_symmetry_Int_Tables_number	1
_symmetry_cell_setting	triclinic
loop_
_symmetry_equiv_pos_as_xyz
  x,y,z
_cell_length_a	16.974800
_cell_length_b	15.995292
_cell_length_c	16.053802
_cell_angle_alpha	92.568169
_cell_angle_beta	91.074188
_cell_angle_gamma	83.429017
loop_
_atom_site_label
_atom_site_type_symbol
_atom_site_fract_x
_atom_site_fract_y
_atom_site_fract_z
O1	O	1.049056	0.106736	0.001486
O2	O	1.549056	0.606736	0.501486
O3	O	0.819592	0.119554	-0.014025
O4	O	1.319592	0.619554	0.485975
O5	O	0.940620	-0.008732	-0.005845
O6	O	1.440620	0.491268	0.494155
O7	O	0.928028	0.235022	-0.006694
O8	O	1.428028	0.735022	0.493306
O9	O	0.933959	-0.001700	0.132563
O10	O	1.433959	0.498300	0.632563
O11	O	0.812930	0.126586	0.124383
O12	O	1.312930	0.626586	0.624383
O13	O	1.042394	0.113768	0.139894
O14	O	1.542394	0.613768	0.639894
Zn15	Zn	0.926605	0.121294	0.154114
Zn16	Zn	1.426605	0.621294	0.654114
Zn17	Zn	0.935382	0.112029	-0.028245
Zn18	Zn	1.435382	0.612029	0.471755
O19	O	0.921366	0.242054	0.131715
O20	O	1.421366	0.742054	0.631715
C21	C	0.786898	0.122454	0.053194
C22	C	1.286898	0.622454	0.553194
C23	C	0.699406	0.120607	0.047279
C24	C	1.199406	0.620607	0.547279
C25	C	0.654675	0.123571	0.119949
C26	C	1.154675	0.623571	0.619949
C27	C	0.572468	0.121823	0.114394
C28	C	1.072468	0.621823	0.614394
C29	C	0.534993	0.117117	0.036169
C30	C	1.034993	0.617117	0.536169
C31	C	0.579730	0.114151	-0.036506
C32	C	1.079730	0.614151	0.463494
C33	C	0.661936	0.115893	-0.030951
C34	C	1.161936	0.615893	0.469049
C35	C	0.289524	0.111490	0.011463
C36	C	0.789524	0.611490	0.511463
C37	C	0.207311	0.109751	0.005912
C38	C	0.707311	0.609751	0.505912
C39	C	0.200056	0.117422	0.156814
C40	C	0.700056	0.617422	0.656814
C41	C	0.282263	0.119168	0.162363
C42	C	0.782263	0.619168	0.662363
C43	C	0.326993	0.116197	0.089688
C44	C	0.826993	0.616197	0.589688
N45	N	0.450964	0.115333	0.030489
N46	N	0.950964	0.615333	0.530489
N47	N	0.411021	0.117976	0.095368
N48	N	0.911021	0.617976	0.595368
C49	C	0.936777	-0.036413	0.063322
C50	C	1.436777	0.463587	0.563322
C51	C	0.935241	-0.129369	0.063212
C52	C	1.435241	0.370631	0.563212
C53	C	0.929592	-0.467120	0.062838
C54	C	1.429592	0.032880	0.562838
C55	C	1.016932	-0.443598	0.069052
C56	C	1.516932	0.056402	0.569052
C57	C	1.018607	-0.346935	0.068849
C58	C	1.518607	0.153065	0.568849
C59	C	0.932395	-0.299558	0.063024
C60	C	1.432395	0.200442	0.563024
C61	C	0.892526	-0.332772	-0.018964
C62	C	1.392526	0.167228	0.481036
C63	C	0.891477	-0.429568	-0.019098
C64	C	1.391477	0.070432	0.480902
C65	C	0.882117	-0.421432	0.138178
C66	C	1.382117	0.078568	0.638178
C67	C	0.885305	-0.324879	0.139438
C68	C	1.385305	0.175121	0.639438
C69	C	0.933975	-0.204859	0.063126
C70	C	1.433975	0.295141	0.563126
C71	C	0.928010	-0.561819	0.062730
C72	C	1.428010	-0.061819	0.562730
C73	C	1.075088	0.110868	0.072673
C74	C	1.575088	0.610868	0.572673
C75	C	1.162581	0.112714	0.078582
C76	C	1.662581	0.612714	0.578582
C77	C	0.925209	0.269735	0.062545
C78	C	1.425209	0.769735	0.562545
C79	C	0.926746	0.362691	0.062650
C80	C	1.426746	0.862691	0.562650
N81	N	0.920620	0.127616	0.278570
N82	N	1.420620	0.627616	0.778570
N83	N	0.941372	0.105699	-0.152701
N84	N	1.441372	0.605699	0.347299
C85	C	0.972137	0.073050	0.325746
C86	C	1.472137	0.573050	0.825746
C87	C	0.967958	0.077481	0.412870
C88	C	1.467958	0.577481	0.912870
C89	C	0.912266	0.136482	0.452817
C90	C	1.412266	0.636482	0.952817
C91	C	0.860744	0.191051	0.405635
C92	C	1.360744	0.691051	0.905635
C93	C	0.864919	0.186616	0.318512
C94	C	1.364919	0.686616	0.818512
C95	C	0.894026	0.155833	0.712994
C96	C	1.394026	0.655833	1.212994
C97	C	0.889856	0.160266	0.800124
C98	C	1.389856	0.660266	1.300124
C99	C	0.997070	0.046694	0.807353
C100	C	1.497070	0.546694	1.307353
C101	C	1.001243	0.042267	0.720228
C102	C	1.501243	0.542267	1.220228
C103	C	0.949719	0.096833	0.673053
C104	C	1.449719	0.596833	1.173053
N105	N	0.907995	0.141014	0.541872
N106	N	1.407995	0.641014	1.041872
N107	N	0.953986	0.092296	0.583999
N108	N	1.453986	0.592296	1.083999
H109	H	0.685180	0.127410	0.183649
H110	H	1.185180	0.627410	0.683649
Br111	Br	0.814270	0.240350	0.854332
Br112	Br	1.314270	0.740350	1.354332
Br113	Br	0.722644	0.111863	-0.129578
Br114	Br	1.222644	0.611863	0.370422
H115	H	0.549212	0.110313	-0.100199
H116	H	1.049212	0.610313	0.399801
Br117	Br	1.071047	-0.310292	0.167145
Br118	Br	1.571047	0.189708	0.667145
H119	H	0.325934	0.109068	-0.047715
H120	H	0.825934	0.609068	0.452285
H121	H	1.047875	-0.468641	0.128008
H122	H	1.547875	0.031359	0.628008
Br123	Br	1.077267	-0.496610	-0.021113
Br124	Br	1.577267	0.003390	0.478887
Br125	Br	0.947791	-0.304211	-0.113587
Br126	Br	1.447791	0.195789	0.386413
H127	H	0.163628	0.119839	0.215982
H128	H	0.663628	0.619839	0.715982
Br129	Br	0.946633	-0.479160	-0.114161
Br130	Br	1.446633	0.020840	0.385839
Br131	Br	1.080504	-0.320930	-0.021871
Br132	Br	1.580504	0.179070	0.478129
H133	H	0.536054	0.124222	0.173570
H134	H	1.036054	0.624222	0.673570
H135	H	1.039018	0.002268	0.845770
H136	H	1.539018	0.502268	1.345770
H137	H	0.914291	-0.303273	0.200058
H138	H	1.414291	0.196727	0.700058
Br139	Br	1.076829	-0.037804	0.666013
Br140	Br	1.576829	0.462196	1.166013
H141	H	0.176802	0.105921	-0.057791
H142	H	0.676802	0.605921	0.442209
H143	H	0.312770	0.122996	0.226062
H144	H	0.812770	0.622996	0.726062
H145	H	0.827600	-0.444442	-0.027007
H146	H	1.327600	0.055558	0.472993
H147	H	1.017490	0.025008	0.293227
H148	H	1.517490	0.525008	0.793227
H149	H	0.829226	-0.301194	-0.026189
H150	H	1.329226	0.198806	0.473811
H151	H	0.822148	-0.291807	0.139960
H152	H	1.322148	0.208193	0.639960
H153	H	0.906744	-0.446416	0.199946
H154	H	1.406744	0.053584	0.699946
H155	H	0.817792	-0.435538	0.134366
H156	H	1.317792	0.064462	0.634366
Br157	Br	1.037871	0.003422	0.476897
Br158	Br	1.537871	0.503422	0.976897
H159	H	0.852074	0.200264	0.674591
H160	H	1.352074	0.700264	1.174591
H161	H	0.815394	0.239089	0.438165
H162	H	1.315394	0.739089	0.938165
Br163	Br	0.794995	0.260668	0.254487
Br164	Br	1.294995	0.760668	0.754487
