data_functionalizedCrystal
_audit_creation_method	'MofGen! by Chris Wilmer'
_symmetry_space_group_name_H-M	'P1'
_symmetry_Int_Tables_number	1
_symmetry_cell_setting	triclinic
loop_
_symmetry_equiv_pos_as_xyz
  x,y,z
_cell_length_a	23.532407
_cell_length_b	26.809956
_cell_length_c	23.532407
_cell_angle_alpha	90.010827
_cell_angle_beta	82.848678
_cell_angle_gamma	90.018553
loop_
_atom_site_label
_atom_site_type_symbol
_atom_site_fract_x
_atom_site_fract_y
_atom_site_fract_z
O1	O	0.755276	0.041422	0.069134
O2	O	1.255276	0.541422	0.569134
O3	O	0.589412	0.041438	0.079137
O4	O	1.089412	0.541438	0.579137
O5	O	0.677346	0.041420	-0.008796
O6	O	1.177346	0.541420	0.491204
O7	O	0.667342	0.041440	0.157067
O8	O	1.167342	0.541440	0.657067
O9	O	0.677306	-0.041539	-0.008797
O10	O	1.177306	0.458461	0.491203
O11	O	0.589372	-0.041522	0.079136
O12	O	1.089372	0.458478	0.579136
O13	O	0.755236	-0.041537	0.069133
O14	O	1.255236	0.458463	0.569133
Zn15	Zn	0.672298	-0.054701	0.074134
Zn16	Zn	1.172298	0.445299	0.574134
Zn17	Zn	0.672350	0.054602	0.074136
Zn18	Zn	1.172350	0.554602	0.574136
O19	O	0.667303	-0.041520	0.157066
O20	O	1.167303	0.458480	0.657066
C21	C	0.568176	-0.000040	0.078882
C22	C	1.068176	0.499960	0.578882
C23	C	0.504959	-0.000035	0.078116
C24	C	1.004959	0.499965	0.578116
N25	N	0.672266	-0.129297	0.074133
N26	N	1.172266	0.370703	0.574133
C27	C	0.105856	-0.000052	0.125350
C28	C	0.605856	0.499948	0.625350
C29	C	0.046456	-0.000055	0.124638
C30	C	0.546456	0.499945	0.624638
O31	O	0.009711	-0.000068	0.168424
O32	O	0.509711	0.499932	0.668424
N33	N	0.023830	-0.000060	0.072362
N34	N	0.523830	0.499940	0.572362
C35	C	0.060607	-0.000067	0.020794
C36	C	0.560607	0.499933	0.520794
O37	O	0.035908	-0.000072	-0.023737
O38	O	0.535908	0.499928	0.476263
C39	C	0.120006	-0.000068	0.021506
C40	C	0.620006	0.499932	0.521506
C41	C	0.142629	-0.000057	0.073785
C42	C	0.642629	0.499943	0.573785
C43	C	0.128479	-0.000042	0.177625
C44	C	0.628479	0.499958	0.677625
C45	C	0.187876	-0.000038	0.178336
C46	C	0.687876	0.499962	0.678336
C47	C	0.224648	-0.000044	0.126772
C48	C	0.724648	0.499956	0.626772
C49	C	0.202025	-0.000053	0.074496
C50	C	0.702025	0.499947	0.574496
C51	C	0.156783	-0.000078	-0.030062
C52	C	0.656783	0.499922	0.469938
C53	C	0.216185	-0.000079	-0.029345
C54	C	0.716185	0.499921	0.470655
C55	C	0.238808	-0.000069	0.022934
C56	C	0.738808	0.499931	0.522934
C57	C	0.298194	-0.000055	0.023643
C58	C	0.798194	0.499945	0.523643
N59	N	0.320820	-0.000050	0.075920
N60	N	0.820820	0.499950	0.575920
C61	C	0.284048	-0.000044	0.127484
C62	C	0.784048	0.499956	0.627484
C63	C	-0.064135	-0.000067	0.019302
C64	C	0.435865	0.499933	0.519302
C65	C	-0.123533	-0.000063	0.018589
C66	C	0.376467	0.499937	0.518589
C67	C	-0.137680	-0.000052	0.122434
C68	C	0.362320	0.499948	0.622434
C69	C	-0.078281	-0.000052	0.123146
C70	C	0.421719	0.499948	0.623146
C71	C	-0.041509	-0.000062	0.071578
C72	C	0.458491	0.499938	0.571578
C73	C	0.408784	-0.000035	0.128974
C74	C	0.908784	0.499965	0.628974
C75	C	0.468186	-0.000029	0.129680
C76	C	0.968186	0.499971	0.629680
C77	C	0.482329	-0.000043	0.025836
C78	C	0.982329	0.499957	0.525836
C79	C	0.422932	-0.000047	0.025129
C80	C	0.922932	0.499953	0.525129
C81	C	0.386160	-0.000044	0.076702
C82	C	0.886160	0.499956	0.576702
O83	O	0.334974	-0.000044	-0.020119
O84	O	0.834974	0.499956	0.479881
O85	O	0.308755	-0.000045	0.172007
O86	O	0.808755	0.499955	0.672007
C87	C	0.633374	-0.526172	0.113054
C88	C	1.133374	-0.026172	0.613054
C89	C	0.633345	-0.317295	0.113054
C90	C	1.133345	0.182705	0.613054
O91	O	0.600205	-0.290288	0.146141
O92	O	1.100205	0.209712	0.646141
N93	N	0.672286	-0.291175	0.074131
N94	N	1.172286	0.208825	0.574131
C95	C	0.711236	-0.317279	0.035203
C96	C	1.211236	0.182721	0.535203
O97	O	0.744353	-0.290270	0.002093
O98	O	1.244353	0.209730	0.502093
C99	C	0.711262	-0.526155	0.035200
C100	C	1.211262	-0.026155	0.535200
C101	C	0.672322	-0.552272	0.074130
C102	C	1.172322	-0.052272	0.574130
C103	C	0.594437	-0.552289	0.151980
C104	C	1.094437	-0.052289	0.651980
C105	C	0.594446	-0.604506	0.151982
C106	C	1.094446	-0.104506	0.651982
C107	C	0.633394	-0.630605	0.113057
C108	C	1.133394	-0.130605	0.613057
C109	C	0.672332	-0.604488	0.074132
C110	C	1.172332	-0.104488	0.574132
C111	C	0.750208	-0.552257	-0.003730
C112	C	1.250208	-0.052257	0.496270
C113	C	0.750211	-0.604480	-0.003728
C114	C	1.250211	-0.104480	0.496272
C115	C	0.711270	-0.630597	0.035201
C116	C	1.211270	-0.130597	0.535201
C117	C	0.711289	-0.682804	0.035209
C118	C	1.211289	-0.182804	0.535209
N119	N	0.672347	-0.708924	0.074132
N120	N	1.172347	-0.208924	0.574132
C121	C	0.633400	-0.682824	0.113056
C122	C	1.133400	-0.182824	0.613056
C123	C	0.711220	-0.207615	0.035208
C124	C	1.211220	0.292385	0.535208
C125	C	0.711214	-0.155396	0.035209
C126	C	1.211214	0.344604	0.535209
C127	C	0.633322	-0.155416	0.113060
C128	C	1.133322	0.344584	0.613060
C129	C	0.633331	-0.207636	0.113061
C130	C	1.133331	0.292364	0.613061
C131	C	0.672278	-0.233735	0.074131
C132	C	1.172278	0.266265	0.574131
C133	C	0.633424	-0.792482	0.113057
C134	C	1.133424	-0.292482	0.613057
C135	C	0.633439	-0.844703	0.113057
C136	C	1.133439	-0.344703	0.613057
C137	C	0.711328	-0.844678	0.035204
C138	C	1.211328	-0.344678	0.535204
C139	C	0.711316	-0.792462	0.035206
C140	C	1.211316	-0.292462	0.535206
C141	C	0.672359	-0.766365	0.074135
C142	C	1.172359	-0.266365	0.574135
O143	O	0.744407	-0.709843	0.002136
O144	O	1.244407	-0.209843	0.502136
O145	O	0.600279	-0.709842	0.146153
O146	O	1.100279	-0.209842	0.646153
C147	C	0.633364	-0.473956	0.113053
C148	C	1.133364	0.026044	0.613053
C149	C	0.672302	-0.447839	0.074127
C150	C	1.172302	0.052161	0.574127
C151	C	0.711249	-0.473939	0.035202
C152	C	1.211249	0.026061	0.535202
C153	C	0.672296	-0.395620	0.074128
C154	C	1.172296	0.104380	0.574128
C155	C	0.633349	-0.369521	0.113052
C156	C	1.133349	0.130479	0.613052
C157	C	0.594407	-0.395640	0.151975
C158	C	1.094407	0.104360	0.651975
C159	C	0.594417	-0.447857	0.151977
C160	C	1.094417	0.052143	0.651977
C161	C	0.750191	-0.447819	-0.003721
C162	C	1.250191	0.052181	0.496279
C163	C	0.750179	-0.395603	-0.003719
C164	C	1.250179	0.104397	0.496281
C165	C	0.711231	-0.369504	0.035206
C166	C	1.211231	0.130496	0.535206
C167	C	0.776472	-0.000058	0.069388
C168	C	1.276472	0.499942	0.569388
C169	C	0.839689	-0.000060	0.070154
C170	C	1.339689	0.499940	0.570154
C171	C	0.677071	-0.000060	-0.030013
C172	C	1.177071	0.499940	0.469987
C173	C	0.676305	-0.000064	-0.093230
C174	C	1.176305	0.499936	0.406770
N175	N	0.672386	0.129198	0.074132
N176	N	1.172386	0.629198	0.574132
C177	C	0.723539	-0.000041	-0.492333
C178	C	1.223539	0.499959	0.007667
C179	C	0.722827	-0.000037	-0.551733
C180	C	1.222827	0.499963	-0.051733
O181	O	0.766613	-0.000023	-0.588478
O182	O	1.266613	0.499977	-0.088478
N183	N	0.670551	-0.000033	-0.574359
N184	N	1.170551	0.499967	-0.074359
C185	C	0.618983	-0.000027	-0.537582
C186	C	1.118983	0.499973	-0.037582
O187	O	0.574452	-0.000023	-0.562281
O188	O	1.074452	0.499977	-0.062281
C189	C	0.619695	-0.000027	-0.478182
C190	C	1.119695	0.499973	0.021818
C191	C	0.671974	-0.000037	-0.455560
C192	C	1.171974	0.499963	0.044440
C193	C	0.775814	-0.000050	-0.469710
C194	C	1.275814	0.499950	0.030290
C195	C	0.776525	-0.000055	-0.410313
C196	C	1.276525	0.499945	0.089687
C197	C	0.724961	-0.000051	-0.373540
C198	C	1.224961	0.499949	0.126460
C199	C	0.672685	-0.000042	-0.396164
C200	C	1.172685	0.499958	0.103836
C201	C	0.568127	-0.000018	-0.441406
C202	C	1.068127	0.499982	0.058594
C203	C	0.568844	-0.000018	-0.382004
C204	C	1.068844	0.499982	0.117996
C205	C	0.621123	-0.000028	-0.359381
C206	C	1.121123	0.499972	0.140619
C207	C	0.621832	-0.000042	-0.299995
C208	C	1.121832	0.499958	0.200005
N209	N	0.674109	-0.000047	-0.277368
N210	N	1.174109	0.499953	0.222632
C211	C	0.725673	-0.000051	-0.314141
C212	C	1.225673	0.499949	0.185859
C213	C	0.617491	-0.000026	-0.662324
C214	C	1.117491	0.499974	-0.162324
C215	C	0.616778	-0.000029	-0.721722
C216	C	1.116778	0.499971	-0.221722
C217	C	0.720623	-0.000038	-0.735869
C218	C	1.220623	0.499962	-0.235869
C219	C	0.721335	-0.000039	-0.676470
C220	C	1.221335	0.499961	-0.176470
C221	C	0.669767	-0.000030	-0.639698
C222	C	1.169767	0.499970	-0.139698
C223	C	0.727163	-0.000062	-0.189405
C224	C	1.227163	0.499938	0.310595
C225	C	0.727869	-0.000068	-0.130003
C226	C	1.227869	0.499932	0.369997
C227	C	0.624025	-0.000057	-0.115860
C228	C	1.124025	0.499943	0.384140
C229	C	0.623318	-0.000052	-0.175257
C230	C	1.123318	0.499948	0.324743
C231	C	0.674891	-0.000053	-0.212029
C232	C	1.174891	0.499947	0.287971
O233	O	0.578070	-0.000055	-0.263215
O234	O	1.078070	0.499945	0.236785
O235	O	0.770196	-0.000049	-0.289433
O236	O	1.270196	0.499951	0.210567
C237	C	0.667577	-0.000038	0.178283
C238	C	1.167577	0.499962	0.678283
C239	C	0.668343	-0.000031	0.241500
C240	C	1.168343	0.499969	0.741500
H241	H	0.486602	-0.000020	0.172255
H242	H	0.986602	0.499980	0.672255
Br243	Br	0.798825	-0.000082	-0.099305
Br244	Br	1.298825	0.499918	0.400695
H245	H	-0.141947	-0.000064	-0.023982
H246	H	0.358053	0.499936	0.476018
H247	H	0.763906	-0.000046	-0.658056
H248	H	1.263906	0.499954	-0.158056
Br249	Br	0.764073	-0.119958	-0.017616
Br250	Br	1.264073	0.380042	0.482384
Br251	Br	0.580553	-0.757073	0.165889
Br252	Br	1.080553	-0.257073	0.665889
Br253	Br	-0.047586	-0.000038	0.194099
Br254	Br	0.452414	0.499962	0.694099
H255	H	0.575496	-0.000023	-0.632386
H256	H	1.075496	0.499977	-0.132386
H257	H	0.562736	-0.625767	0.183680
H258	H	1.062736	-0.125767	0.683680
H259	H	0.378851	-0.000035	0.170970
H260	H	0.878851	0.499965	0.670970
H261	H	0.246123	-0.000088	-0.071339
H262	H	0.746123	0.499912	0.428661
Br263	Br	0.764082	-0.243029	-0.017630
Br264	Br	1.264082	0.256971	0.482370
Br265	Br	0.078583	-0.000034	0.247615
Br266	Br	0.578583	0.499966	0.747615
Br267	Br	0.797156	-0.000062	-0.239299
Br268	Br	1.297156	0.499938	0.260701
Br269	Br	0.532245	-0.000052	-0.044141
Br270	Br	1.032245	0.499948	0.455859
H271	H	-0.167632	-0.000050	0.164421
H272	H	0.332368	0.499950	0.664421
Br273	Br	0.764172	-0.757019	-0.017621
Br274	Br	1.264172	-0.257019	0.482379
Br275	Br	0.580465	-0.119985	0.165885
Br276	Br	1.080465	0.380015	0.665885
Br277	Br	0.847480	-0.000054	-0.379621
Br278	Br	1.347480	0.499946	0.120379
Br279	Br	0.580590	-0.880145	0.165895
Br280	Br	1.080590	-0.380145	0.665895
Br281	Br	0.803068	-0.639896	-0.056568
Br282	Br	1.303068	-0.139896	0.443432
Br283	Br	0.218568	-0.000026	0.249291
Br284	Br	0.718568	0.499974	0.749291
H285	H	0.404512	-0.000048	-0.017441
H286	H	0.904512	0.499952	0.482559
Br287	Br	0.803058	-0.516824	-0.056566
Br288	Br	1.303058	-0.016824	0.443434
Br289	Br	0.541572	-0.516877	0.204812
Br290	Br	1.041572	-0.016877	0.704812
H291	H	0.743041	-0.865937	0.003514
H292	H	1.243041	-0.365937	0.503514
Br293	Br	0.580481	-0.243074	0.165895
Br294	Br	1.080481	0.256926	0.665895
Br295	Br	0.545825	-0.000028	-0.752416
Br296	Br	1.045825	0.499972	-0.252416
Br297	Br	0.552367	-0.000051	-0.205961
Br298	Br	1.052367	0.499949	0.294039
H299	H	0.781893	-0.374342	-0.035419
H300	H	1.281893	0.125658	0.464581
H301	H	0.817806	-0.000052	-0.499645
H302	H	1.317806	0.499948	0.000355
Br303	Br	0.541553	-0.360209	0.204803
Br304	Br	1.041553	0.139791	0.704803
H305	H	-0.034198	-0.000071	-0.022693
H306	H	0.465802	0.499929	0.477307
H307	H	0.138374	-0.000087	-0.072634
H308	H	0.638374	0.499913	0.427366
Br309	Br	0.790604	-0.000042	-0.785787
Br310	Br	1.290604	0.499958	-0.285787
Br311	Br	0.497171	-0.000003	-0.472092
Br312	Br	0.997171	0.499997	0.027908
Br313	Br	0.498854	-0.000005	-0.332101
Br314	Br	0.998854	0.499995	0.167899
H315	H	0.562708	-0.469117	0.183677
H316	H	1.062708	0.030883	0.683677
H317	H	0.781906	-0.469066	-0.035418
H318	H	1.281906	0.030934	0.464582
H319	H	0.582043	-0.000055	-0.085909
H320	H	1.082043	0.499945	0.414091
