data_functionalizedCrystal
_audit_creation_method	'MofGen! by Chris Wilmer'
_symmetry_space_group_name_H-M	'P1'
_symmetry_Int_Tables_number	1
_symmetry_cell_setting	triclinic
loop_
_symmetry_equiv_pos_as_xyz
  x,y,z
_cell_length_a	14.908783
_cell_length_b	12.645330
_cell_length_c	14.908308
_cell_angle_alpha	93.270481
_cell_angle_beta	89.788727
_cell_angle_gamma	93.308814
loop_
_atom_site_label
_atom_site_type_symbol
_atom_site_fract_x
_atom_site_fract_y
_atom_site_fract_z
Zn1	Zn	1.345328	-0.370782	-0.587852
Zn2	Zn	1.845328	0.129218	-0.087852
Zn3	Zn	1.353915	-0.537296	-0.437502
Zn4	Zn	1.853915	-0.037296	0.062498
Zn5	Zn	1.203642	-0.369635	-0.428823
Zn6	Zn	1.703642	0.130365	0.071177
Zn7	Zn	1.194941	-0.557596	-0.579125
Zn8	Zn	1.694941	-0.057596	-0.079125
O9	O	1.274457	-0.458827	-0.508326
O10	O	1.774457	0.041173	-0.008326
O11	O	1.472295	-0.384855	-0.575192
O12	O	1.972295	0.115145	-0.075192
O13	O	1.341216	-0.506080	-0.310527
O14	O	1.841216	-0.006080	0.189473
O15	O	1.222484	-0.221438	-0.449939
O16	O	1.722484	0.278562	0.050061
O17	O	1.478604	-0.507193	-0.464731
O18	O	1.978604	-0.007193	0.035269
O19	O	1.326581	-0.222281	-0.566777
O20	O	1.826581	0.277719	-0.066777
O21	O	1.230810	-0.382900	-0.304151
O22	O	1.730810	0.117100	0.195849
O23	O	1.076660	-0.402584	-0.441477
O24	O	1.576660	0.097416	0.058523
O25	O	1.207656	-0.541790	-0.706106
O26	O	1.707656	-0.041790	-0.206106
O27	O	1.070268	-0.540678	-0.551903
O28	O	1.570268	-0.040678	-0.051903
O29	O	1.318145	-0.404539	-0.712518
O30	O	1.818145	0.095461	-0.212518
O31	O	1.332779	-0.688338	-0.456269
O32	O	1.832779	-0.188338	0.043731
O33	O	1.215982	-0.703252	-0.560318
O34	O	1.715982	-0.203252	-0.060318
C35	C	1.040838	-0.473710	-0.494802
C36	C	1.540838	0.026290	0.005198
C37	C	0.940894	-0.480104	-0.489037
C38	C	1.440894	0.019896	0.010963
C39	C	0.746507	-0.364927	-0.593405
C40	C	1.246507	0.135073	-0.093405
C41	C	0.652601	-0.370931	-0.587991
C42	C	1.152601	0.129069	-0.087991
C43	C	0.659173	-0.498110	-0.472794
C44	C	1.159173	0.001890	0.027206
C45	C	0.753079	-0.492105	-0.478207
C46	C	1.253079	0.007895	0.021793
C47	C	0.796743	-0.425513	-0.538515
C48	C	1.296743	0.074487	-0.038515
C49	C	0.890651	-0.419515	-0.543932
C50	C	1.390651	0.080485	-0.043932
C51	C	0.897222	-0.546688	-0.428731
C52	C	1.397222	-0.046688	0.071269
C53	C	0.803315	-0.552692	-0.423318
C54	C	1.303315	-0.052692	0.076682
C55	C	1.274392	-0.734260	-0.508309
C56	C	1.774392	-0.234260	-0.008309
C57	C	1.274444	-0.852089	-0.508337
C58	C	1.774444	-0.352089	-0.008337
C59	C	1.201241	-1.029076	-0.574026
C60	C	1.701241	-0.529076	-0.074026
C61	C	1.200900	-0.906523	-0.573781
C62	C	1.700900	-0.406523	-0.073781
C63	C	1.254266	-0.891525	-0.412097
C64	C	1.754266	-0.391525	0.087903
C65	C	1.253819	-1.014181	-0.412496
C66	C	1.753819	-0.514181	0.087504
C67	C	1.368294	-1.014844	-0.538145
C68	C	1.868294	-0.514844	-0.038145
C69	C	1.367591	-0.892422	-0.540183
C70	C	1.867591	-0.392422	-0.040183
C71	C	1.508987	-0.443888	-0.521903
C72	C	2.008987	0.056112	-0.021903
C73	C	1.608930	-0.437521	-0.527689
C74	C	2.108930	0.062479	-0.027689
C75	C	1.260972	-0.475557	-0.742849
C76	C	1.760972	0.024443	-0.242849
C77	C	1.255226	-0.482686	-0.842789
C78	C	1.755226	0.017314	-0.342789
C79	C	1.274545	-0.182319	-0.508363
C80	C	1.774545	0.317681	-0.008363
C81	C	1.274583	-0.064487	-0.508379
C82	C	1.774583	0.435513	-0.008379
C83	C	1.359477	-0.353138	-1.037265
C84	C	1.859477	0.146862	-0.537265
C85	C	1.354080	-0.359833	-1.131168
C86	C	1.854080	0.140167	-0.631168
C87	C	1.239032	-0.502764	-1.124499
C88	C	1.739032	-0.002764	-0.624499
C89	C	1.244429	-0.496069	-1.030596
C90	C	1.744429	0.003931	-0.530596
C91	C	1.304654	-0.421255	-0.986983
C92	C	1.804654	0.078745	-0.486983
C93	C	1.310054	-0.414566	-0.893079
C94	C	1.810054	0.085434	-0.393079
C95	C	1.195002	-0.557492	-0.886411
C96	C	1.695002	-0.057492	-0.386411
C97	C	1.189606	-0.564186	-0.980314
C98	C	1.689606	-0.064186	-0.480314
C99	C	1.287941	-0.442083	-0.274717
C100	C	1.787941	0.057917	0.225283
C101	C	1.293861	-0.434644	-0.174788
C102	C	1.793861	0.065356	0.325212
H103	H	0.767752	-0.606906	-0.374214
H104	H	1.267752	-0.106906	0.125786
H105	H	1.398720	-0.304362	-1.172104
H106	H	1.898720	0.195638	-0.672104
H107	H	1.382908	-0.867038	-0.611037
H108	H	1.882908	-0.367038	-0.111037
H109	H	1.213072	-1.062528	-0.645437
H110	H	1.713072	-0.562528	-0.145437
H111	H	1.306233	-0.855425	-0.361608
H112	H	1.806233	-0.355425	0.138392
O113	O	1.164727	-0.854811	-0.379103
O114	O	1.664727	-0.354811	0.120897
H115	H	1.151213	-0.883180	-0.310996
H116	H	1.651213	-0.383180	0.189004
H117	H	1.150364	-0.612960	-0.845461
H118	H	1.650364	-0.112960	-0.345461
H119	H	1.212892	-0.880383	-0.644971
H120	H	1.712892	-0.380383	-0.144971
H121	H	1.305216	-1.036909	-0.361621
H122	H	1.805216	-0.536909	0.138379
H123	H	1.132086	-1.063309	-0.554103
H124	H	1.632086	-0.563309	-0.054103
H125	H	1.422868	-1.036899	-0.490398
H126	H	1.922868	-0.536899	0.009602
O127	O	1.174064	-0.583436	-1.171544
O128	O	1.674064	-0.083436	-0.671544
H129	H	1.179523	-0.576640	-1.245287
H130	H	1.679523	-0.076640	-0.745287
H131	H	1.359094	-0.353650	-0.857570
H132	H	1.859094	0.146350	-0.357570
H133	H	0.782059	-0.310709	-0.642514
H134	H	1.282059	0.189291	-0.142514
O135	O	0.598413	-0.305589	-0.647195
O136	O	1.098413	0.194411	-0.147195
H137	H	0.644555	-0.258282	-0.690042
H138	H	1.144555	0.241718	-0.190042
O139	O	1.443219	-0.842783	-0.482048
O140	O	1.943219	-0.342783	0.017952
H141	H	1.478069	-0.906056	-0.449990
H142	H	1.978069	-0.406056	0.050010
H143	H	0.938134	-0.596030	-0.384043
H144	H	1.438134	-0.096030	0.115957
O145	O	0.937744	-0.347684	-0.608972
O146	O	1.437744	0.152316	-0.108972
H147	H	0.977899	-0.395728	-0.657129
H148	H	1.477899	0.104272	-0.157129
H149	H	1.131317	-0.880634	-0.553628
H150	H	1.631317	-0.380634	-0.053628
H151	H	0.623606	-0.552313	-0.423684
H152	H	1.123606	-0.052313	0.076316
H153	H	1.185478	-1.045834	-0.387919
H154	H	1.685478	-0.545834	0.112081
O155	O	1.394097	-1.060155	-0.629912
O156	O	1.894097	-0.560155	-0.129912
H157	H	1.340410	-1.118571	-0.655331
H158	H	1.840410	-0.618571	-0.155331
H159	H	1.408519	-0.292226	-1.001755
H160	H	1.908519	0.207774	-0.501755
O161	O	1.124647	-0.644873	-1.027354
O162	O	1.624647	-0.144873	-0.527354
H163	H	1.130105	-0.638088	-1.101099
H164	H	1.630105	-0.138088	-0.601099
