data_functionalizedCrystal
_audit_creation_method	'MofGen! by Chris Wilmer'
_symmetry_space_group_name_H-M	'P1'
_symmetry_Int_Tables_number	1
_symmetry_cell_setting	triclinic
loop_
_symmetry_equiv_pos_as_xyz
  x,y,z
_cell_length_a	29.839133
_cell_length_b	19.077115
_cell_length_c	19.076919
_cell_angle_alpha	89.923103
_cell_angle_beta	87.721777
_cell_angle_gamma	87.726222
loop_
_atom_site_label
_atom_site_type_symbol
_atom_site_fract_x
_atom_site_fract_y
_atom_site_fract_z
Zn1	Zn	-0.217340	1.058238	0.440444
Zn2	Zn	-0.289574	1.062867	0.322949
Zn3	Zn	-0.211322	0.945456	0.318237
Zn4	Zn	-0.289303	0.940689	0.435703
O5	O	-0.251885	1.001812	0.379333
O6	O	-0.229554	1.157183	0.428814
O7	O	-0.276788	1.051225	0.223993
O8	O	-0.149255	0.960475	0.334460
O9	O	-0.282624	1.160584	0.342491
O10	O	-0.153676	1.043335	0.424244
O11	O	-0.219297	0.964964	0.220531
O12	O	-0.219034	0.846493	0.329864
O13	O	-0.282162	0.952349	0.534664
O14	O	-0.276326	0.842990	0.416165
O15	O	-0.229291	1.038712	0.538147
O16	O	-0.352403	1.046602	0.337895
O17	O	-0.352204	0.956838	0.420735
C18	C	-0.246998	0.819245	0.371989
C19	C	-0.244919	0.741141	0.368864
C20	C	-0.229987	0.301693	0.346456
C21	C	-0.231943	0.375079	0.349396
C22	C	-0.262796	0.409968	0.395726
C23	C	-0.291691	0.371466	0.439124
C24	C	-0.289732	0.298080	0.436187
C25	C	-0.271855	0.629254	0.409324
C26	C	-0.273813	0.702644	0.412257
C27	C	-0.214064	0.706253	0.322530
C28	C	-0.212110	0.632866	0.319594
C29	C	-0.241004	0.594370	0.362994
N30	N	-0.264797	0.484981	0.398731
N31	N	-0.239000	0.519358	0.359992
C32	C	-0.368605	1.001723	0.379328
C33	C	-0.418540	1.001749	0.379352
C34	C	-0.777398	1.044981	0.426137
C35	C	-0.589723	1.044915	0.426133
O36	O	-0.567386	1.081582	0.465898
N37	N	-0.563987	1.001804	0.379352
C38	C	-0.585172	0.958710	0.332565
O39	O	-0.558976	0.922046	0.292770
C40	C	-0.772846	0.958781	0.332566
C41	C	-0.798580	1.001889	0.379355
C42	C	-0.803132	1.088087	0.472922
C43	C	-0.850048	1.088100	0.472925
C44	C	-0.871230	1.045008	0.426143
C45	C	-0.845496	1.001903	0.379358
C46	C	-0.794031	0.915691	0.285776
C47	C	-0.840952	0.915714	0.285779
C48	C	-0.866686	0.958822	0.332569
C49	C	-0.913594	0.958824	0.332579
N50	N	-0.939330	1.001935	0.379361
C51	C	-0.918148	1.045027	0.426142
C52	C	-0.486641	0.958675	0.332569
C53	C	-0.439722	0.958656	0.332570
C54	C	-0.444277	1.044862	0.426137
C55	C	-0.491196	1.044877	0.426139
C56	C	-0.512377	1.001786	0.379350
C57	C	-1.016675	1.045051	0.426145
C58	C	-1.063594	1.045059	0.426146
C59	C	-1.059036	0.958856	0.332577
C60	C	-1.012120	0.958845	0.332578
C61	C	-0.990941	1.001949	0.379365
O62	O	-0.935961	0.922182	0.292830
O63	O	-0.944352	1.081697	0.465921
C64	C	-0.730482	1.044968	0.426134
C65	C	-0.704748	1.001863	0.379349
C66	C	-0.725930	0.958770	0.332567
C67	C	-0.657830	1.001844	0.379350
C68	C	-0.636648	1.044936	0.426131
C69	C	-0.662384	1.088047	0.472913
C70	C	-0.709300	1.088060	0.472916
C71	C	-0.700194	0.915660	0.285786
C72	C	-0.653279	0.915649	0.285787
C73	C	-0.632096	0.958741	0.332569
C74	C	-0.134710	1.001920	0.379355
C75	C	-0.084777	1.001966	0.379365
C76	C	-0.256368	0.994482	0.562615
C77	C	-0.258278	0.991359	0.640718
C78	C	-0.256790	1.185093	0.386707
C79	C	-0.258881	1.263196	0.389849
C80	C	-0.247387	1.009154	0.196767
C81	C	-0.245354	1.012414	0.118669
C82	C	-0.231650	1.034853	0.679225
C83	C	-0.233443	1.031910	0.752612
C84	C	-0.261867	0.985475	0.787489
C85	C	-0.288496	0.941975	0.748976
C86	C	-0.286701	0.944916	0.675591
C87	C	-0.270187	0.971855	1.006772
C88	C	-0.271982	0.968920	1.080162
C89	C	-0.216928	1.058854	1.083792
C90	C	-0.215137	1.061793	1.010406
C91	C	-0.241764	1.018291	0.971899
N92	N	-0.263702	0.982466	0.862502
N93	N	-0.239927	1.021296	0.896888
H94	H	-0.190540	0.737604	0.287197
H95	H	-0.295384	0.597919	0.444661
H96	H	-0.316810	0.399878	0.476850
H97	H	-0.308379	0.909491	0.644239
H98	H	-0.298937	0.731048	0.449988
C99	C	-0.384400	0.952727	0.237651
C100	C	-0.411437	0.911264	0.281145
H101	H	-0.366937	0.923468	0.205904
H102	H	-0.402852	0.984441	0.212035
H103	H	-0.365068	0.978382	0.265518
H104	H	-0.430772	0.885613	0.253278
H105	H	-0.392984	0.879538	0.306763
C106	C	-0.348987	0.301880	0.525173
C107	C	-0.321492	0.255762	0.483887
H108	H	-0.368594	0.275753	0.554622
H109	H	-0.330863	0.329448	0.553244
H110	H	-0.366155	0.331708	0.495651
H111	H	-0.304321	0.225936	0.513410
H112	H	-0.339618	0.228182	0.455814
C113	C	-1.063376	1.130270	0.518635
C114	C	-1.091881	1.092448	0.477579
H115	H	-1.080839	1.159528	0.550383
H116	H	-1.044927	1.098551	0.544251
H117	H	-1.045036	1.158391	0.489114
H118	H	-1.110218	1.064324	0.507099
H119	H	-1.110337	1.124171	0.451961
H120	H	-0.717436	0.880569	0.247689
H121	H	-0.999436	1.080151	0.464243
C122	C	-0.177409	1.123447	0.690192
C123	C	-0.200404	1.085895	0.640892
H124	H	-0.158116	1.154954	0.666526
H125	H	-0.198401	1.149160	0.719892
H126	H	-0.160108	1.091691	0.717586
H127	H	-0.217708	1.117651	0.613501
H128	H	-0.179409	1.060181	0.611180
H129	H	-0.191992	1.099607	0.982014
C130	C	-0.849822	1.173324	0.565392
C131	C	-0.878330	1.135502	0.524343
H132	H	-0.867281	1.202597	0.597130
H133	H	-0.831379	1.141606	0.591017
H134	H	-0.831476	1.201430	0.535865
H135	H	-0.896674	1.107392	0.553869
H136	H	-0.896781	1.167225	0.498715
C137	C	-0.752938	1.093969	0.567848
C138	C	-0.779853	1.135455	0.524353
H139	H	-0.738567	1.123213	0.599601
H140	H	-0.771094	1.062265	0.593457
H141	H	-0.730893	1.068301	0.539982
H142	H	-0.801900	1.161119	0.552218
H143	H	-0.761695	1.167171	0.498742
C144	C	-0.490974	1.130076	0.518631
C145	C	-0.519480	1.092263	0.477570
H146	H	-0.508435	1.159333	0.550381
H147	H	-0.472527	1.098352	0.544244
H148	H	-0.472632	1.158197	0.489114
H149	H	-0.537820	1.064138	0.507088
H150	H	-0.537935	1.123991	0.451956
C151	C	-0.374372	1.083111	0.467669
C152	C	-0.420987	1.092235	0.477557
H153	H	-0.359994	1.112362	0.499406
H154	H	-0.365699	1.035483	0.476020
H155	H	-0.365810	1.095313	0.420874
H156	H	-0.429550	1.080028	0.524350
H157	H	-0.429664	1.139874	0.469210
C158	C	-0.653501	0.830448	0.193290
C159	C	-0.624995	0.868261	0.234350
H160	H	-0.636040	0.801201	0.161530
H161	H	-0.671837	0.802323	0.222802
H162	H	-0.671955	0.862177	0.167681
H163	H	-0.606544	0.836532	0.259963
H164	H	-0.606652	0.896388	0.204835
C165	C	-0.153243	0.643807	0.231205
C166	C	-0.178193	0.594518	0.268671
H167	H	-0.132303	0.620131	0.199770
H168	H	-0.172893	0.673484	0.205419
H169	H	-0.137606	0.671225	0.263021
H170	H	-0.193833	0.567104	0.236855
H171	H	-0.158541	0.564829	0.294459
H172	H	-0.211761	1.067329	0.783961
C173	C	-0.299175	0.924476	1.191046
C174	C	-0.303222	0.917866	1.118502
H175	H	-0.318462	0.892961	1.214714
H176	H	-0.269011	0.913748	1.202657
H177	H	-0.307314	0.971201	1.204965
H178	H	-0.295080	0.871142	1.104581
H179	H	-0.333392	0.928590	1.106885
H180	H	-0.195249	1.094270	1.115152
C181	C	-0.536676	0.864565	0.318923
C182	C	-0.509918	0.911296	0.281142
H183	H	-0.551046	0.835315	0.287175
H184	H	-0.518412	0.836443	0.348434
H185	H	-0.558721	0.890248	0.346774
H186	H	-0.487871	0.885612	0.253295
H187	H	-0.528183	0.939421	0.251618
C188	C	-0.171122	0.312638	0.258067
C189	C	-0.196072	0.263347	0.295529
H190	H	-0.150182	0.288965	0.226631
H191	H	-0.190773	0.342316	0.232281
H192	H	-0.155486	0.340056	0.289884
H193	H	-0.211710	0.235933	0.263713
H194	H	-0.176419	0.233657	0.321316
C195	C	-0.794262	0.830508	0.193272
C196	C	-0.765752	0.868314	0.234335
H197	H	-0.776804	0.801263	0.161508
H198	H	-0.812598	0.802382	0.222783
H199	H	-0.812715	0.862243	0.167669
H200	H	-0.747301	0.836579	0.259942
H201	H	-0.747409	0.896442	0.204821
H202	H	-0.645130	1.123131	0.511007
H203	H	-0.291876	0.936443	0.975429
H204	H	-0.858195	0.880624	0.247677
H205	H	-0.208417	0.406421	0.314058
H206	H	-0.311638	0.904164	0.777379
H207	H	-0.991167	0.923735	0.294485
H208	H	-1.076291	0.923770	0.294490
H209	H	-0.730249	1.123163	0.511017
