data_functionalizedCrystal
_audit_creation_method	'MofGen! by Chris Wilmer'
_symmetry_space_group_name_H-M	'P1'
_symmetry_Int_Tables_number	1
_symmetry_cell_setting	triclinic
loop_
_symmetry_equiv_pos_as_xyz
  x,y,z
_cell_length_a	21.295417
_cell_length_b	18.215407
_cell_length_c	21.295411
_cell_angle_alpha	90.024685
_cell_angle_beta	89.978356
_cell_angle_gamma	89.969045
loop_
_atom_site_label
_atom_site_type_symbol
_atom_site_fract_x
_atom_site_fract_y
_atom_site_fract_z
Zn1	Zn	-0.250673	-1.125078	-0.355914
Zn2	Zn	0.082660	-0.791745	-0.022580
Zn3	Zn	0.415993	-0.458412	0.310753
Zn4	Zn	-0.355925	-1.124964	-0.250639
Zn5	Zn	-0.022592	-0.791631	0.082694
Zn6	Zn	0.310741	-0.458298	0.416028
Zn7	Zn	-0.250675	-1.002001	-0.250658
Zn8	Zn	0.082659	-0.668667	0.082675
Zn9	Zn	0.415992	-0.335334	0.416008
Zn10	Zn	-0.355910	-1.001965	-0.355870
Zn11	Zn	-0.022576	-0.668631	-0.022537
Zn12	Zn	0.310757	-0.335298	0.310796
O13	O	-0.303296	-1.063502	-0.303270
O14	O	0.030038	-0.730169	0.030063
O15	O	0.363371	-0.396835	0.363396
O16	O	-0.264641	-1.228048	-0.341959
O17	O	0.068692	-0.894714	-0.008625
O18	O	0.402025	-0.561381	0.324708
O19	O	-0.341971	-1.108620	-0.162552
O20	O	-0.008637	-0.775287	0.170781
O21	O	0.324696	-0.441953	0.504115
O22	O	-0.162585	-1.018390	-0.264647
O23	O	0.170748	-0.685056	0.068687
O24	O	0.504082	-0.351723	0.402020
O25	O	-0.341969	-1.227964	-0.264614
O26	O	-0.008636	-0.894630	0.068720
O27	O	0.324697	-0.561297	0.402053
O28	O	-0.162584	-1.108815	-0.341977
O29	O	0.170749	-0.775481	-0.008644
O30	O	0.504082	-0.442148	0.324689
O31	O	-0.264644	-1.018279	-0.162566
O32	O	0.068690	-0.684946	0.170767
O33	O	0.402023	-0.351613	0.504100
O34	O	-0.264628	-0.899012	-0.264605
O35	O	0.068705	-0.565678	0.068728
O36	O	0.402038	-0.232345	0.402062
O37	O	-0.341943	-1.018329	-0.443966
O38	O	-0.008609	-0.684995	-0.110632
O39	O	0.324724	-0.351662	0.222701
O40	O	-0.341944	-0.898985	-0.341904
O41	O	-0.008610	-0.565652	-0.008571
O42	O	0.324723	-0.232319	0.324763
O43	O	-0.264626	-1.108780	-0.443997
O44	O	0.068707	-0.775447	-0.110664
O45	O	0.402041	-0.442113	0.222669
O46	O	-0.444013	-1.108585	-0.264572
O47	O	-0.110679	-0.775252	0.068761
O48	O	0.222654	-0.441919	0.402095
O49	O	-0.444001	-1.018218	-0.341885
O50	O	-0.110668	-0.684885	-0.008552
O51	O	0.222666	-0.351552	0.324782
C52	C	-0.466847	-1.063406	-0.303235
C53	C	-0.133514	-0.730072	0.030098
C54	C	0.199819	-0.396739	0.363431
C55	C	-0.536815	-1.063432	-0.303242
C56	C	-0.203482	-0.730098	0.030092
C57	C	0.129851	-0.396765	0.363425
C58	C	-0.303282	-1.063563	-0.467461
C59	C	0.030051	-0.730230	-0.134127
C60	C	0.363384	-0.396896	0.199206
C61	C	-0.303277	-1.063589	-0.537429
C62	C	0.030057	-0.730256	-0.204095
C63	C	0.363390	-0.396922	0.129238
C64	C	-0.303285	-0.872296	-0.303252
C65	C	0.030048	-0.538962	0.030081
C66	C	0.363382	-0.205629	0.363414
C67	C	-0.303295	-0.790497	-0.303259
C68	C	0.030038	-0.457164	0.030074
C69	C	0.363371	-0.123830	0.363407
C70	C	-0.569667	-1.110528	-0.263026
C71	C	-0.236334	-0.777194	0.070307
C72	C	0.096999	-0.443861	0.403641
C73	C	-0.635410	-1.110562	-0.263040
C74	C	-0.302076	-0.777229	0.070293
C75	C	0.031257	-0.443895	0.403627
C76	C	-0.668298	-1.063487	-0.303263
C77	C	-0.334965	-0.730154	0.030070
C78	C	-0.001631	-0.396821	0.363403
C79	C	-0.635438	-1.016388	-0.343487
C80	C	-0.302105	-0.683055	-0.010153
C81	C	0.031228	-0.349721	0.323180
C82	C	-0.569697	-1.016360	-0.343476
C83	C	-0.236364	-0.683027	-0.010143
C84	C	0.096970	-0.349694	0.323191
N85	N	-0.771565	-0.999109	-0.308056
N86	N	-0.438232	-0.665776	0.025277
N87	N	-0.104898	-0.332443	0.358611
N88	N	-0.834016	-0.999138	-0.308063
N89	N	-0.500683	-0.665805	0.025271
N90	N	-0.167350	-0.332471	0.358604
C91	C	-0.866373	-1.063570	-0.303299
C92	C	-0.533039	-0.730237	0.030034
C93	C	-0.199706	-0.396903	0.363367
N94	N	-0.833918	-1.127974	-0.298517
N95	N	-0.500585	-0.794640	0.034817
N96	N	-0.167251	-0.461307	0.368150
N97	N	-0.771461	-1.127944	-0.298507
N98	N	-0.438128	-0.794611	0.034826
N99	N	-0.104794	-0.461277	0.368160
C100	C	-0.739583	-1.063513	-0.303280
C101	C	-0.406250	-0.730179	0.030054
C102	C	-0.072917	-0.396846	0.363387
C103	C	-0.970510	-1.110707	-0.263097
C104	C	-0.637177	-0.777374	0.070236
C105	C	-0.303843	-0.444041	0.403570
C106	C	-1.036254	-1.110743	-0.263115
C107	C	-0.702920	-0.777410	0.070218
C108	C	-0.369587	-0.444076	0.403551
C109	C	-1.036281	-1.016562	-0.343559
C110	C	-0.702948	-0.683229	-0.010226
C111	C	-0.369614	-0.349896	0.323108
C112	C	-0.970538	-1.016533	-0.343544
C113	C	-0.637205	-0.683200	-0.010210
C114	C	-0.303872	-0.349867	0.323123
C115	C	-0.937657	-1.063605	-0.303309
C116	C	-0.604324	-0.730271	0.030024
C117	C	-0.270990	-0.396938	0.363357
C118	C	-0.139105	-1.063619	-0.303319
C119	C	0.194228	-0.730286	0.030014
C120	C	0.527561	-0.396952	0.363348
C121	C	-0.069137	-1.063669	-0.303340
C122	C	0.264196	-0.730335	0.029994
C123	C	0.597529	-0.397002	0.363327
C124	C	-0.303307	-1.255455	-0.303289
C125	C	0.030026	-0.922122	0.030045
C126	C	0.363360	-0.588788	0.363378
C127	C	-0.303312	-1.337254	-0.303297
C128	C	0.030022	-1.003920	0.030037
C129	C	0.363355	-0.670587	0.363370
C130	C	-0.343617	-0.602308	-0.343458
C131	C	-0.010284	-0.268975	-0.010125
C132	C	0.323050	0.064358	0.323208
C133	C	-0.343619	-0.525450	-0.343466
C134	C	-0.010286	-0.192116	-0.010133
C135	C	0.323048	0.141217	0.323200
C136	C	-0.262986	-0.525448	-0.263096
C137	C	0.070347	-0.192114	0.070237
C138	C	0.403681	0.141219	0.403571
C139	C	-0.262981	-0.602305	-0.263092
C140	C	0.070352	-0.268972	0.070242
C141	C	0.403685	0.064362	0.403575
C142	C	-0.303300	-0.640733	-0.303272
C143	C	0.030033	-0.307400	0.030061
C144	C	0.363366	0.025933	0.363395
C145	C	-0.303307	-0.487017	-0.303284
C146	C	0.030026	-0.153684	0.030049
C147	C	0.363360	0.179649	0.363383
C148	C	-0.303309	-0.403684	-0.303292
C149	C	0.030025	-0.070350	0.030041
C150	C	0.363358	0.262983	0.363374
C151	C	-0.303298	-0.724072	-0.303265
C152	C	0.030036	-0.390739	0.030069
C153	C	0.363369	-0.057406	0.363402
C154	C	-0.263016	-1.110685	-0.570313
C155	C	0.070317	-0.777352	-0.236980
C156	C	0.403650	-0.444018	0.096354
C157	C	-0.262989	-1.110684	-0.636055
C158	C	0.070344	-0.777351	-0.302722
C159	C	0.403678	-0.444017	0.030611
C160	C	-0.303233	-1.063595	-0.668911
C161	C	0.030100	-0.730262	-0.335578
C162	C	0.363433	-0.396928	-0.002245
C163	C	-0.343497	-1.016490	-0.636019
C164	C	-0.010163	-0.683157	-0.302686
C165	C	0.323170	-0.349823	0.030647
C166	C	-0.343518	-1.016487	-0.570278
C167	C	-0.010185	-0.683154	-0.236945
C168	C	0.323148	-0.349820	0.096389
N169	N	-0.358301	-1.057917	-0.772127
N170	N	-0.024968	-0.724584	-0.438793
N171	N	0.308365	-0.391250	-0.105460
N172	N	-0.358279	-1.057924	-0.834578
N173	N	-0.024945	-0.724591	-0.501245
N174	N	0.308388	-0.391257	-0.167911
C175	C	-0.303170	-1.063599	-0.866986
C176	C	0.030164	-0.730266	-0.533653
C177	C	0.363497	-0.396933	-0.200319
N178	N	-0.248082	-1.069282	-0.834583
N179	N	0.085251	-0.735949	-0.501250
N180	N	0.418584	-0.402615	-0.167917
N181	N	-0.248105	-1.069279	-0.772126
N182	N	0.085228	-0.735946	-0.438793
N183	N	0.418561	-0.402612	-0.105459
C184	C	-0.303214	-1.063592	-0.740197
C185	C	0.030119	-0.730259	-0.406863
C186	C	0.363453	-0.396926	-0.073530
C187	C	-0.262876	-1.110697	-0.971156
C188	C	0.070457	-0.777363	-0.637823
C189	C	0.403791	-0.444030	-0.304489
C190	C	-0.262848	-1.110691	-1.036900
C191	C	0.070486	-0.777357	-0.703566
C192	C	0.403819	-0.444024	-0.370233
C193	C	-0.343361	-1.016500	-1.036862
C194	C	-0.010028	-0.683167	-0.703529
C195	C	0.323306	-0.349834	-0.370195
C196	C	-0.343384	-1.016503	-0.971120
C197	C	-0.010051	-0.683169	-0.637786
C198	C	0.323283	-0.349836	-0.304453
C199	C	-0.303142	-1.063605	-0.938270
C200	C	0.030191	-0.730271	-0.604937
C201	C	0.363524	-0.396938	-0.271604
C202	C	-0.303264	-1.063484	-0.139719
C203	C	0.030070	-0.730150	0.193615
C204	C	0.363403	-0.396817	0.526948
C205	C	-0.303092	-1.063600	-0.069751
C206	C	0.030241	-0.730267	0.263582
C207	C	0.363575	-0.396933	0.596916
H208	H	-0.542897	-1.148858	-0.230266
H209	H	-0.209564	-0.815524	0.103067
H210	H	0.123770	-0.482191	0.436400
Br211	Br	-0.398110	-0.952577	-0.680607
Br212	Br	-0.064777	-0.619244	-0.347274
Br213	Br	0.268556	-0.285911	-0.013941
Br214	Br	-0.680070	-0.952506	-0.398081
Br215	Br	-0.346737	-0.619173	-0.064748
Br216	Br	-0.013404	-0.285839	0.268586
Br217	Br	-0.398334	-0.473304	-0.398010
Br218	Br	-0.065001	-0.139971	-0.064677
Br219	Br	0.268333	0.193363	0.268656
Br220	Br	-0.208270	-0.473290	-0.208568
Br221	Br	0.125063	-0.139957	0.124765
Br222	Br	0.458397	0.193377	0.458099
Br223	Br	-0.680004	-1.174483	-0.208458
Br224	Br	-0.346671	-0.841150	0.124875
Br225	Br	-0.013338	-0.507816	0.458209
Br226	Br	-0.208255	-0.654458	-0.208555
Br227	Br	0.125078	-0.321125	0.124778
Br228	Br	0.458411	0.012209	0.458112
Br229	Br	-0.208400	-1.174606	-0.525735
Br230	Br	0.124933	-0.841273	-0.192401
Br231	Br	0.458266	-0.507939	0.140932
Br232	Br	-0.398161	-0.952565	-0.525646
Br233	Br	-0.064828	-0.619232	-0.192313
Br234	Br	0.268506	-0.285898	0.141021
H235	H	-0.230105	-1.149046	-0.944409
H236	H	0.103228	-0.815713	-0.611075
H237	H	0.436561	-0.482379	-0.277742
H238	H	-0.230201	-1.149033	-0.662835
H239	H	0.103133	-0.815700	-0.329502
H240	H	0.436466	-0.482367	0.003832
H241	H	-0.230059	-1.149041	-1.063673
H242	H	0.103274	-0.815707	-0.730339
H243	H	0.436608	-0.482374	-0.397006
Br244	Br	-0.397972	-0.952583	-1.081445
Br245	Br	-0.064639	-0.619250	-0.748112
Br246	Br	0.268695	-0.285916	-0.414778
H247	H	-0.943737	-1.149038	-0.230337
H248	H	-0.610403	-0.815705	0.102996
H249	H	-0.277070	-0.482371	0.436329
Br250	Br	-0.525109	-0.952440	-0.398060
Br251	Br	-0.191776	-0.619107	-0.064726
Br252	Br	0.141558	-0.285773	0.268607
Br253	Br	-1.080840	-1.174673	-0.208538
Br254	Br	-0.747506	-0.841339	0.124795
Br255	Br	-0.414173	-0.508006	0.458128
Br256	Br	-0.925951	-0.952612	-0.398124
Br257	Br	-0.592617	-0.619278	-0.064790
Br258	Br	-0.259284	-0.285945	0.268543
Br259	Br	-1.080908	-0.952681	-0.398155
Br260	Br	-0.747574	-0.619348	-0.064822
Br261	Br	-0.414241	-0.286015	0.268511
Br262	Br	-0.398334	-0.654459	-0.397990
Br263	Br	-0.065001	-0.321126	-0.064657
Br264	Br	0.268333	0.012207	0.268677
Br265	Br	-0.398027	-0.952584	-0.926488
Br266	Br	-0.064694	-0.619251	-0.593154
Br267	Br	0.268639	-0.285918	-0.259821
