data_functionalizedCrystal
_audit_creation_method	'MofGen! by Chris Wilmer'
_symmetry_space_group_name_H-M	'P1'
_symmetry_Int_Tables_number	1
_symmetry_cell_setting	triclinic
loop_
_symmetry_equiv_pos_as_xyz
  x,y,z
_cell_length_a	17.699083
_cell_length_b	16.992695
_cell_length_c	16.176319
_cell_angle_alpha	89.993125
_cell_angle_beta	89.998611
_cell_angle_gamma	86.975619
loop_
_atom_site_label
_atom_site_type_symbol
_atom_site_fract_x
_atom_site_fract_y
_atom_site_fract_z
O1	O	1.010252	0.099146	-0.068631
O2	O	0.790676	0.112045	-0.068658
O3	O	0.899584	-0.008546	-0.068638
O4	O	0.901344	0.219736	-0.068651
O5	O	0.899567	-0.008553	0.068855
O6	O	0.790660	0.112037	0.068835
O7	O	1.010235	0.099138	0.068862
Cu8	Cu	0.900446	0.105587	0.081403
Cu9	Cu	0.900465	0.105596	-0.081199
O10	O	0.901328	0.219729	0.068842
C11	C	0.762442	0.111579	0.000085
C12	C	0.678338	0.110192	0.000075
C13	C	0.634124	0.180976	0.000071
C14	C	0.555099	0.179669	0.000082
C15	C	0.520290	0.107576	0.000091
C16	C	0.564510	0.036787	0.000097
C17	C	0.643533	0.038095	0.000092
C18	C	0.245818	0.031509	0.000118
C19	C	0.166789	0.030206	0.000120
C20	C	0.157384	0.173082	0.000108
C21	C	0.236408	0.174391	0.000103
C22	C	0.280621	0.103602	0.000113
C23	C	0.366308	0.105020	0.000103
C24	C	0.434604	0.106157	0.000095
C25	C	0.897311	-0.037758	0.000108
C26	C	0.890554	-0.124789	0.000107
C27	C	0.955751	-0.175154	0.000116
C28	C	0.949398	-0.256928	0.000107
C29	C	0.877846	-0.288336	0.000096
C30	C	0.812643	-0.237965	0.000084
C31	C	0.818998	-0.156192	0.000087
C32	C	0.851510	-0.531884	0.000081
C33	C	0.845160	-0.613663	0.000081
C34	C	0.981915	-0.632621	0.000102
C35	C	0.988263	-0.550845	0.000110
C36	C	0.923061	-0.500481	0.000094
N37	N	0.871350	-0.371923	0.000090
N38	N	0.929558	-0.416897	0.000095
C39	C	1.038469	0.099604	0.000117
C40	C	1.122574	0.100991	0.000122
C41	C	0.903601	0.248941	0.000094
C42	C	0.910358	0.335972	0.000090
N43	N	0.900438	0.105580	0.195768
N44	N	0.900479	0.105597	-0.195564
C45	C	0.948679	0.052204	0.239041
C46	C	0.948683	0.052203	0.325588
C47	C	0.900449	0.105583	0.368861
C48	C	0.852202	0.158961	0.325582
C49	C	0.852195	0.158957	0.239036
C50	C	0.852229	0.158976	0.674610
C51	C	0.852242	0.158977	0.761161
C52	C	0.948717	0.052222	0.761162
C53	C	0.948709	0.052218	0.674617
C54	C	0.900461	0.105593	0.631345
C55	C	0.900456	0.105593	0.537501
C56	C	0.900457	0.105588	0.462703
H57	H	0.519103	0.237308	0.000078
O58	O	0.288795	-0.037230	0.000264
C59	C	0.383511	-0.118664	0.071463
C60	C	0.334866	-0.040794	0.071413
H61	H	0.420783	-0.121564	0.128972
H62	H	0.345094	-0.170446	0.071517
H63	H	0.420706	-0.121607	0.013893
H64	H	0.297664	-0.037775	0.128973
H65	H	0.373326	0.010951	0.071316
H66	H	1.034999	-0.673635	0.000114
O67	O	0.775592	-0.644044	0.000024
C68	C	0.640620	-0.616616	0.000033
C69	C	0.719352	-0.582105	0.000079
H70	H	0.595128	-0.566556	0.000095
H71	H	0.634194	-0.654393	-0.057523
H72	H	0.634254	-0.654460	0.057558
H73	H	0.725772	-0.544226	-0.057407
H74	H	0.725742	-0.544374	0.057673
O75	O	0.995452	0.000228	0.197066
C76	C	1.031563	-0.136174	0.170706
C77	C	0.978535	-0.077383	0.218264
H78	H	1.017916	-0.198934	0.187840
H79	H	1.023286	-0.127101	0.101401
H80	H	1.092790	-0.126002	0.187713
H81	H	0.917289	-0.087520	0.201327
H82	H	0.986878	-0.086470	0.287558
O83	O	0.755610	-0.107344	-0.000031
C84	C	0.640707	-0.066075	-0.071309
C85	C	0.712455	-0.121452	-0.071263
H86	H	0.605804	-0.077450	-0.128903
H87	H	0.605676	-0.077490	-0.013814
H88	H	0.657558	-0.002242	-0.071268
H89	H	0.695672	-0.185305	-0.071333
H90	H	0.747468	-0.109969	-0.128753
H91	H	0.798417	-0.490887	0.000069
O92	O	0.805418	0.210784	0.367742
C93	C	0.762642	0.258077	0.501067
C94	C	0.815674	0.199354	0.453426
H95	H	0.770903	0.248845	0.570351
H96	H	0.776297	0.320877	0.484097
H97	H	0.701418	0.247946	0.484012
H98	H	0.876915	0.209413	0.470455
H99	H	0.801953	0.136575	0.470400
H100	H	0.138450	-0.028504	0.000128
H101	H	0.812912	0.202420	0.203804
H102	H	0.987964	0.008741	0.360821
O103	O	0.270311	0.244370	0.000197
C104	C	0.354050	0.328782	0.071426
C105	C	0.315716	0.249497	0.071415
H106	H	0.390755	0.332960	0.129008
H107	H	0.390857	0.332972	0.013919
H108	H	0.308865	0.379142	0.071383
H109	H	0.360849	0.199092	0.071487
H110	H	0.278892	0.245376	0.128917
O111	O	0.530735	-0.033265	0.000250
C112	C	0.514637	-0.155812	0.071460
C113	C	0.552919	-0.076497	0.071404
H114	H	0.532571	-0.190795	0.128973
H115	H	0.450556	-0.144639	0.071512
H116	H	0.532486	-0.190746	0.013894
H117	H	0.535131	-0.041523	0.128960
H118	H	0.616993	-0.087727	0.071309
O119	O	0.114467	0.241870	-0.000041
C120	C	0.082281	0.363613	-0.071261
C121	C	0.130913	0.285735	-0.071201
H122	H	0.095572	0.399107	-0.128778
H123	H	0.019809	0.350345	-0.071305
H124	H	0.095496	0.399065	-0.013700
H125	H	0.117764	0.250244	-0.128752
H126	H	0.193371	0.299058	-0.071113
H127	H	0.662460	0.239682	0.000064
H128	H	0.679531	-0.019545	0.000095
H129	H	1.014017	-0.149588	0.000131
O130	O	0.743095	-0.268379	0.000181
C131	C	0.624273	-0.277234	0.071416
C132	C	0.703007	-0.242728	0.071399
H133	H	0.591845	-0.256522	0.128999
H134	H	0.591763	-0.256450	0.013909
H135	H	0.630946	-0.344330	0.071378
H136	H	0.696404	-0.175632	0.071466
H137	H	0.735490	-0.263573	0.128901
H138	H	1.002489	-0.297933	0.000117
H139	H	1.046528	-0.525279	0.000120
O140	O	0.995587	0.000289	0.632711
C141	C	1.091309	-0.105574	0.641848
C142	C	1.038248	-0.046816	0.689407
H143	H	1.125826	-0.143663	0.687666
H144	H	1.056300	-0.144753	0.601364
H145	H	1.131123	-0.071761	0.601295
H146	H	0.998424	-0.080565	0.730005
H147	H	1.073305	-0.007638	0.729838
O148	O	0.805308	0.210857	0.803070
C149	C	0.709634	0.316768	0.793941
C150	C	0.762731	0.258049	0.746378
H151	H	0.675208	0.354949	0.748126
H152	H	0.669744	0.283002	0.834450
H153	H	0.744687	0.355862	0.834470
H154	H	0.727739	0.218940	0.705804
H155	H	0.802623	0.291864	0.705921
H156	H	0.812945	0.202437	0.639385
H157	H	0.988001	0.008758	0.796403
