data_functionalizedCrystal
_audit_creation_method	'MofGen! by Chris Wilmer'
_symmetry_space_group_name_H-M	'P1'
_symmetry_Int_Tables_number	1
_symmetry_cell_setting	triclinic
loop_
_symmetry_equiv_pos_as_xyz
  x,y,z
_cell_length_a	18.215407
_cell_length_b	21.295417
_cell_length_c	18.215399
_cell_angle_alpha	89.967848
_cell_angle_beta	89.980167
_cell_angle_gamma	90.030955
loop_
_atom_site_label
_atom_site_type_symbol
_atom_site_fract_x
_atom_site_fract_y
_atom_site_fract_z
Zn1	Zn	1.125043	-0.250608	-0.416094
Zn2	Zn	1.625043	0.249392	0.083906
Zn3	Zn	1.124940	-0.355879	-0.293019
Zn4	Zn	1.624940	0.144121	0.206981
Zn5	Zn	1.001976	-0.250629	-0.293042
Zn6	Zn	1.501976	0.249371	0.206958
Zn7	Zn	1.001930	-0.355844	-0.416044
Zn8	Zn	1.501930	0.144156	0.083956
O9	O	1.063472	-0.303240	-0.354550
O10	O	1.563472	0.196760	0.145450
O11	O	1.228014	-0.264579	-0.399780
O12	O	1.728014	0.235421	0.100220
O13	O	1.108604	-0.341941	-0.190038
O14	O	1.608604	0.158059	0.309962
O15	O	1.018364	-0.162537	-0.309396
O16	O	1.518364	0.337463	0.190604
O17	O	1.227938	-0.341921	-0.309357
O18	O	1.727938	0.158079	0.190643
O19	O	1.108781	-0.162521	-0.399802
O20	O	1.608781	0.337479	0.100198
O21	O	1.018263	-0.264614	-0.190054
O22	O	1.518263	0.235386	0.309946
O23	O	0.898985	-0.264580	-0.309347
O24	O	1.398985	0.235420	0.190653
O25	O	1.018285	-0.341861	-0.519035
O26	O	1.518285	0.158139	-0.019035
O27	O	0.898951	-0.341881	-0.399716
O28	O	1.398951	0.158119	0.100284
O29	O	1.108736	-0.264545	-0.519072
O30	O	1.608736	0.235455	-0.019072
O31	O	1.108559	-0.443964	-0.309308
O32	O	1.608559	0.056036	0.190692
O33	O	1.018184	-0.443938	-0.399694
O34	O	1.518184	0.056062	0.100306
C35	C	0.872266	-0.303229	-0.354529
C36	C	1.372266	0.196771	0.145471
C37	C	0.790467	-0.303240	-0.354537
C38	C	1.290467	0.196760	0.145463
C39	C	1.063376	-0.466792	-0.354509
C40	C	1.563376	0.033208	0.145491
C41	C	1.063402	-0.536760	-0.354516
C42	C	1.563402	-0.036760	0.145484
C43	C	0.602275	-0.343554	-0.401533
C44	C	1.102275	0.156446	0.098467
C45	C	0.525416	-0.343556	-0.401542
C46	C	1.025416	0.156444	0.098458
C47	C	0.525422	-0.262938	-0.307582
C48	C	1.025422	0.237062	0.192418
C49	C	0.602279	-0.262933	-0.307577
C50	C	1.102279	0.237067	0.192423
C51	C	0.640703	-0.303245	-0.354552
C52	C	1.140703	0.196755	0.145448
C53	C	0.486987	-0.303251	-0.354566
C54	C	0.986987	0.196749	0.145434
C55	C	0.403654	-0.303253	-0.354575
C56	C	0.903654	0.196747	0.145425
C57	C	0.724042	-0.303242	-0.354543
C58	C	1.224042	0.196758	0.145457
C59	C	1.110502	-0.569619	-0.307500
C60	C	1.610502	-0.069619	0.192500
C61	C	1.110536	-0.635361	-0.307517
C62	C	1.610536	-0.135361	0.192483
C63	C	1.063457	-0.668242	-0.354542
C64	C	1.563457	-0.168242	0.145458
C65	C	1.016354	-0.635375	-0.401566
C66	C	1.516354	-0.135375	0.098434
C67	C	1.016326	-0.569634	-0.401554
C68	C	1.516326	-0.069634	0.098446
N69	N	0.999079	-0.771508	-0.360145
N70	N	1.499079	-0.271508	0.139855
N71	N	0.999107	-0.833960	-0.360153
N72	N	1.499107	-0.333960	0.139847
C73	C	1.063540	-0.866317	-0.354584
C74	C	1.563540	-0.366317	0.145416
N75	N	1.127944	-0.833863	-0.348993
N76	N	1.627944	-0.333863	0.151007
N77	N	1.127915	-0.771406	-0.348981
N78	N	1.627915	-0.271406	0.151019
C79	C	1.063483	-0.739528	-0.354561
C80	C	1.563483	-0.239528	0.145439
C81	C	1.110681	-0.970462	-0.307584
C82	C	1.610681	-0.470462	0.192416
C83	C	1.110717	-1.036205	-0.307605
C84	C	1.610717	-0.536205	0.192395
C85	C	1.016528	-1.036218	-0.401651
C86	C	1.516528	-0.536218	0.098349
C87	C	1.016499	-0.970475	-0.401633
C88	C	1.516499	-0.470475	0.098367
C89	C	1.063575	-0.937601	-0.354595
C90	C	1.563575	-0.437601	0.145405
C91	C	1.255425	-0.303251	-0.354571
C92	C	1.755425	0.196749	0.145429
C93	C	1.337224	-0.303256	-0.354581
C94	C	1.837224	0.196744	0.145419
C95	C	1.063517	-0.303197	-0.546503
C96	C	1.563517	0.196803	-0.046503
C97	C	1.063536	-0.303178	-0.628302
C98	C	1.563536	0.196822	-0.128302
C99	C	1.063589	-0.139050	-0.354607
C100	C	1.563589	0.360950	0.145393
C101	C	1.063639	-0.069082	-0.354631
C102	C	1.563639	0.430918	0.145369
C103	C	1.110651	-0.262882	-0.816516
C104	C	1.610651	0.237118	-0.316516
C105	C	1.110660	-0.262863	-0.893375
C106	C	1.610660	0.237137	-0.393375
C107	C	1.016473	-0.343377	-0.893325
C108	C	1.516473	0.156623	-0.393325
C109	C	1.016461	-0.343392	-0.816468
C110	C	1.516461	0.156608	-0.316468
C111	C	1.063554	-0.303145	-0.778065
C112	C	1.563554	0.196855	-0.278065
C113	C	1.063575	-0.303112	-0.931781
C114	C	1.563575	0.196888	-0.431781
C115	C	1.063584	-0.303093	-1.015115
C116	C	1.563584	0.196907	-0.515115
C117	C	1.063544	-0.303164	-0.694726
C118	C	1.563544	0.196836	-0.194726
C119	C	1.063470	-0.303238	-0.163344
C120	C	1.563470	0.196762	0.336656
C121	C	1.063593	-0.303079	-0.081545
C122	C	1.563593	0.196921	0.418455
H123	H	0.633557	-0.376377	-0.439785
H124	H	1.133557	0.123623	0.060215
C125	C	1.162473	-0.218582	-0.935671
C126	C	1.662473	0.281418	-0.435671
H127	H	1.155734	-0.224333	-0.986945
H128	H	1.655734	0.275667	-0.486945
H129	H	1.211909	-0.227804	-0.923079
H130	H	1.711909	0.272196	-0.423079
H131	H	1.151731	-0.176285	-0.923091
H132	H	1.651731	0.323715	-0.423091
C133	C	0.644557	-0.218591	-0.255898
C134	C	1.144557	0.281409	0.244102
H135	H	0.695833	-0.224357	-0.262630
H136	H	1.195833	0.275643	0.237370
H137	H	0.631940	-0.227747	-0.206431
H138	H	1.131940	0.272253	0.293569
H139	H	0.631989	-0.176306	-0.266766
H140	H	1.131989	0.323694	0.233234
C141	C	0.964680	-0.387651	-0.935567
C142	C	1.464680	0.112349	-0.435567
H143	H	0.936624	-0.411629	-0.901657
H144	H	1.436624	0.088371	-0.401657
H145	H	0.992818	-0.415074	-0.965543
H146	H	1.492818	0.084926	-0.465543
H147	H	0.932632	-0.363561	-0.965552
H148	H	1.432632	0.136439	-0.465552
H149	H	0.978104	-0.376179	-0.785160
H150	H	1.478104	0.123821	-0.285160
C151	C	0.964568	-0.671541	-0.453290
C152	C	1.464568	-0.171541	0.046710
H153	H	0.971324	-0.715401	-0.446559
H154	H	1.471324	-0.215401	0.053441
H155	H	0.975304	-0.660730	-0.502745
H156	H	1.475304	-0.160730	-0.002745
H157	H	0.915120	-0.660811	-0.442468
H158	H	1.415120	-0.160811	0.057532
C159	C	0.964746	-1.072379	-0.453380
C160	C	1.464746	-0.572379	0.046620
H161	H	0.971506	-1.116239	-0.446653
H162	H	1.471506	-0.616239	0.053347
H163	H	0.975484	-1.061563	-0.502834
H164	H	1.475484	-0.561563	-0.002834
H165	H	0.915297	-1.061652	-0.442559
H166	H	1.415297	-0.561652	0.057441
C167	C	0.483147	-0.387895	-0.453224
C168	C	0.983147	0.112105	0.046776
H169	H	0.517041	-0.411902	-0.481195
H170	H	1.017041	0.088098	0.018805
H171	H	0.453194	-0.363850	-0.485343
H172	H	0.953194	0.136150	0.014657
H173	H	0.453136	-0.415297	-0.425015
H174	H	0.953136	0.084703	0.074985
H175	H	1.148995	-0.230109	-0.785251
H176	H	1.648995	0.269891	-0.285251
C177	C	0.964513	-0.533485	-0.453269
C178	C	1.464513	-0.033485	0.046731
H179	H	0.971242	-0.489623	-0.446529
H180	H	1.471242	0.010377	0.053471
H181	H	0.915077	-0.544304	-0.442460
H182	H	1.415077	-0.044304	0.057540
H183	H	0.975267	-0.544217	-0.502731
H184	H	1.475267	-0.044217	-0.002731
C185	C	0.964679	-0.934329	-0.453341
C186	C	1.464679	-0.434329	0.046659
H187	H	0.936640	-0.963325	-0.481346
H188	H	1.436640	-0.463325	0.018654
H189	H	0.992798	-0.908639	-0.485428
H190	H	1.492798	-0.408639	0.014572
H191	H	0.932617	-0.908728	-0.425147
H192	H	1.432617	-0.408728	0.074853
C193	C	1.162469	-0.934297	-0.255854
C194	C	1.662469	-0.434297	0.244146
H195	H	1.190534	-0.963286	-0.227862
H196	H	1.690534	-0.463286	0.272138
H197	H	1.134327	-0.908694	-0.223755
H198	H	1.634327	-0.408694	0.276245
H199	H	1.194507	-0.908609	-0.284036
H200	H	1.694507	-0.408609	0.215964
C201	C	0.483152	-0.218605	-0.255907
C202	C	0.983152	0.281395	0.244093
H203	H	0.431875	-0.224386	-0.262632
H204	H	0.931875	0.275614	0.237368
H205	H	0.495773	-0.176320	-0.266761
H206	H	0.995773	0.323680	0.233239
H207	H	0.495726	-0.227772	-0.206439
H208	H	0.995726	0.272228	0.293561
C209	C	1.162291	-0.533461	-0.255770
C210	C	1.662291	-0.033461	0.244230
H211	H	1.190352	-0.562450	-0.227776
H212	H	1.690352	-0.062450	0.272224
H213	H	1.134151	-0.507854	-0.223673
H214	H	1.634151	-0.007854	0.276327
H215	H	1.194333	-0.507776	-0.283953
H216	H	1.694333	-0.007776	0.216047
H217	H	1.149076	-1.062958	-0.269321
H218	H	1.649076	-0.562958	0.230679
C219	C	1.162342	-0.671514	-0.255792
C220	C	1.662342	-0.171514	0.244208
H221	H	1.190370	-0.642520	-0.227774
H222	H	1.690370	-0.142520	0.272226
H223	H	1.194404	-0.697121	-0.283972
H224	H	1.694404	-0.197121	0.216028
H225	H	1.134206	-0.697198	-0.223708
H226	H	1.634206	-0.197198	0.276292
