data_functionalizedCrystal
_audit_creation_method	'MofGen! by Chris Wilmer'
_symmetry_space_group_name_H-M	'P1'
_symmetry_Int_Tables_number	1
_symmetry_cell_setting	triclinic
loop_
_symmetry_equiv_pos_as_xyz
  x,y,z
_cell_length_a	15.995292
_cell_length_b	14.044220
_cell_length_c	13.101039
_cell_angle_alpha	86.332523
_cell_angle_beta	86.641931
_cell_angle_gamma	91.671253
loop_
_atom_site_label
_atom_site_type_symbol
_atom_site_fract_x
_atom_site_fract_y
_atom_site_fract_z
O1	O	1.124339	-0.116681	-0.085245
O2	O	1.457672	0.216653	0.248088
O3	O	1.791005	0.549986	0.581421
O4	O	0.881688	-0.131826	-0.085242
O5	O	1.215021	0.201508	0.248092
O6	O	1.548355	0.534841	0.581425
O7	O	0.999371	0.013730	-0.085233
O8	O	1.332704	0.347063	0.248100
O9	O	1.666037	0.680397	0.581433
O10	O	1.006656	-0.262236	-0.085254
O11	O	1.339989	0.071097	0.248080
O12	O	1.673323	0.404430	0.581413
O13	O	0.990928	0.003269	0.085196
O14	O	1.324262	0.336602	0.418529
O15	O	1.657595	0.669936	0.751862
O16	O	0.873246	-0.142287	0.085187
O17	O	1.206579	0.191047	0.418521
O18	O	1.539912	0.524380	0.751854
O19	O	1.115896	-0.127141	0.085184
O20	O	1.449230	0.206192	0.418517
O21	O	1.782563	0.539525	0.751850
Zn22	Zn	0.993231	-0.136375	0.112245
Zn23	Zn	1.326564	0.196958	0.445578
Zn24	Zn	1.659897	0.530292	0.778912
Zn25	Zn	1.004354	-0.122592	-0.112303
Zn26	Zn	1.337687	0.210741	0.221030
Zn27	Zn	1.671020	0.544074	0.554364
O28	O	0.998214	-0.272697	0.085175
O29	O	1.331547	0.060636	0.418509
O30	O	1.664880	0.393970	0.751842
C31	C	0.846225	-0.136440	-0.000027
C32	C	1.179558	0.196893	0.333307
C33	C	1.512892	0.530227	0.666640
C34	C	0.753134	-0.134592	-0.000025
C35	C	1.086467	0.198741	0.333308
C36	C	1.419801	0.532075	0.666642
C37	C	0.414889	-0.127798	-0.000036
C38	C	0.748222	0.205536	0.333297
C39	C	1.081555	0.538869	0.666631
C40	C	0.446067	-0.232832	-0.000424
C41	C	0.779400	0.100501	0.332909
C42	C	1.112734	0.433834	0.666242
C43	C	0.542873	-0.234853	-0.000036
C44	C	0.876206	0.098480	0.333297
C45	C	1.209539	0.431814	0.666631
C46	C	0.582696	-0.131169	-0.000031
C47	C	0.916029	0.202164	0.333302
C48	C	1.249363	0.535498	0.666636
C49	C	0.544850	-0.084618	0.097293
C50	C	0.878184	0.248715	0.430626
C51	C	1.211517	0.582048	0.763960
C52	C	0.447961	-0.083358	0.097370
C53	C	0.781295	0.249975	0.430703
C54	C	1.114628	0.583308	0.764037
C55	C	0.457546	-0.069317	-0.096440
C56	C	0.790880	0.264016	0.236894
C57	C	1.124213	0.597349	0.570227
C58	C	0.554393	-0.073132	-0.097722
C59	C	0.887726	0.260202	0.235611
C60	C	1.221060	0.593535	0.568945
C61	C	0.677534	-0.133069	-0.000025
C62	C	1.010867	0.200264	0.333309
C63	C	1.344201	0.533598	0.666642
C64	C	0.320051	-0.125895	-0.000035
C65	C	0.653384	0.207438	0.333298
C66	C	0.986717	0.540772	0.666631
C67	C	0.991961	0.043813	-0.000018
C68	C	1.325294	0.377146	0.333315
C69	C	1.658628	0.710480	0.666648
C70	C	0.982450	0.149037	-0.000017
C71	C	1.315783	0.482370	0.333316
C72	C	1.649116	0.815703	0.666650
C73	C	1.151359	-0.122527	-0.000034
C74	C	1.484693	0.210806	0.333300
C75	C	1.818026	0.544139	0.666633
C76	C	1.244451	-0.124375	-0.000042
C77	C	1.577784	0.208959	0.333291
C78	C	1.911117	0.542292	0.666625
C79	C	1.005624	-0.302780	-0.000042
C80	C	1.338957	0.030553	0.333291
C81	C	1.672290	0.363886	0.666625
C82	C	1.015135	-0.408003	-0.000050
C83	C	1.348468	-0.074670	0.333283
C84	C	1.681802	0.258663	0.666617
N85	N	0.985645	-0.145780	0.265493
N86	N	1.318979	0.187553	0.598826
N87	N	1.652312	0.520886	0.932160
C88	C	0.965062	0.341695	-0.000031
C89	C	1.298395	0.675028	0.333302
C90	C	1.631729	1.008361	0.666635
C91	C	1.032519	0.399344	-0.000036
C92	C	1.365852	0.732677	0.333298
C93	C	1.699186	1.066011	0.666631
C94	C	1.022844	0.506546	-0.000044
C95	C	1.356178	0.839879	0.333290
C96	C	1.689511	1.173212	0.666623
C97	C	0.974736	0.234483	-0.000023
C98	C	1.308069	0.567816	0.333310
C99	C	1.641402	0.901150	0.666643
N100	N	1.011945	-0.113179	-0.265551
N101	N	1.345278	0.220154	0.067782
N102	N	1.678612	0.553487	0.401116
C103	C	0.975326	-0.158586	0.474535
C104	C	1.308660	0.174748	0.807868
C105	C	1.641993	0.508081	1.141201
C106	C	1.022262	-0.100377	0.525414
C107	C	1.355595	0.232956	0.858747
C108	C	1.688928	0.566290	1.192080
C109	C	1.016520	-0.107502	0.641732
C110	C	1.349853	0.225831	0.975065
C111	C	1.683187	0.559165	1.308399
C112	C	0.981067	-0.151462	0.358206
C113	C	1.314400	0.181871	0.691540
C114	C	1.647734	0.515205	1.024873
H115	H	0.437810	0.008053	-0.097094
H116	H	0.771143	0.341386	0.236239
H117	H	1.104476	0.674720	0.569573
H118	H	0.579386	-0.106956	-0.169721
H119	H	0.912719	0.226378	0.163612
H120	H	1.246052	0.559711	0.496945
H121	H	1.066757	-0.045193	0.481615
H122	H	1.400091	0.288141	0.814948
H123	H	1.733424	0.621474	1.148281
H124	H	1.097540	0.368193	-0.000105
H125	H	1.430873	0.701526	0.333228
H126	H	1.764207	1.034859	0.666561
H127	H	0.900050	0.372849	-0.000033
H128	H	1.233383	0.706182	0.333300
H129	H	1.566716	1.039515	0.666634
H130	H	0.427438	-0.006601	0.101795
H131	H	0.760772	0.326733	0.435128
H132	H	1.094105	0.660066	0.768461
H133	H	0.416619	-0.277362	0.068973
H134	H	0.749952	0.055972	0.402307
H135	H	1.083285	0.389305	0.735640
H136	H	0.564046	-0.125539	0.169717
H137	H	0.897379	0.207795	0.503051
H138	H	1.230713	0.541128	0.836384
H139	H	0.568427	-0.271700	-0.069804
H140	H	0.901760	0.061633	0.263529
H141	H	1.235094	0.394966	0.596862
H142	H	0.424553	-0.269043	-0.070220
H143	H	0.757886	0.064291	0.263113
H144	H	1.091220	0.397624	0.596446
H145	H	0.930835	-0.213768	0.518329
H146	H	1.264168	0.119566	0.851662
H147	H	1.597501	0.452899	1.184995
H148	H	0.560905	-0.280525	0.069843
H149	H	0.894239	0.052808	0.403176
H150	H	1.227572	0.386141	0.736509
H151	H	0.420258	-0.124200	0.170118
H152	H	0.753591	0.209134	0.503451
H153	H	1.086924	0.542467	0.836785
H154	H	0.435326	-0.097627	-0.170205
H155	H	0.768659	0.235706	0.163128
H156	H	1.101992	0.569039	0.496461
H157	H	0.570840	-0.008543	0.100915
H158	H	0.904174	0.324790	0.434249
H159	H	1.237507	0.658124	0.767582
H160	H	0.582002	0.002908	-0.103596
H161	H	0.915335	0.336241	0.229737
H162	H	1.248668	0.669574	0.563070
