data_functionalizedCrystal
_audit_creation_method	'MofGen! by Chris Wilmer'
_symmetry_space_group_name_H-M	'P1'
_symmetry_Int_Tables_number	1
_symmetry_cell_setting	triclinic
loop_
_symmetry_equiv_pos_as_xyz
  x,y,z
_cell_length_a	17.038272
_cell_length_b	16.109301
_cell_length_c	14.586319
_cell_angle_alpha	90.005214
_cell_angle_beta	89.998439
_cell_angle_gamma	92.713482
loop_
_atom_site_label
_atom_site_type_symbol
_atom_site_fract_x
_atom_site_fract_y
_atom_site_fract_z
O1	O	1.037364	-0.180538	-0.076209
O2	O	1.537364	0.319462	0.423791
O3	O	0.809734	-0.177672	-0.076219
O4	O	1.309734	0.322328	0.423781
O5	O	0.929802	-0.058518	-0.076204
O6	O	1.429802	0.441482	0.423796
O7	O	0.917296	-0.299692	-0.076223
O8	O	1.417296	0.200308	0.423777
O9	O	0.929794	-0.058516	0.076277
O10	O	1.429794	0.441484	0.576277
O11	O	0.809725	-0.177669	0.076262
O12	O	1.309725	0.322331	0.576262
O13	O	1.037356	-0.180536	0.076272
O14	O	1.537356	0.319464	0.576272
Cu15	Cu	0.923540	-0.179102	0.090190
Cu16	Cu	1.423540	0.320898	0.590190
Cu17	Cu	0.923550	-0.179105	-0.090137
Cu18	Cu	1.423550	0.320895	0.409863
O19	O	0.917287	-0.299690	0.076257
O20	O	1.417287	0.200310	0.576257
C21	C	0.780601	-0.175063	0.000021
C22	C	1.280601	0.324937	0.500021
C23	C	0.693808	-0.167284	0.000017
C24	C	1.193808	0.332716	0.500017
C25	C	0.929291	-0.027506	0.000037
C26	C	1.429291	0.472494	0.500037
C27	C	0.927773	0.064897	0.000038
C28	C	1.427773	0.564897	0.500038
C29	C	1.066488	-0.183145	0.000031
C30	C	1.566488	0.316855	0.500031
C31	C	1.153281	-0.190924	0.000028
C32	C	1.653281	0.309076	0.500028
C33	C	1.203396	-0.119503	0.000031
C34	C	1.703396	0.380497	0.500031
C35	C	1.284946	-0.126817	0.000033
C36	C	1.784946	0.373183	0.500033
C37	C	1.316381	-0.205553	0.000027
C38	C	1.816381	0.294447	0.500027
C39	C	1.266259	-0.276979	0.000027
C40	C	1.766259	0.223021	0.500027
C41	C	1.184710	-0.269664	0.000031
C42	C	1.684710	0.230336	0.500031
C43	C	1.562138	-0.231395	0.000021
C44	C	2.062138	0.268605	0.500021
C45	C	1.643694	-0.238705	0.000015
C46	C	2.143694	0.261295	0.500015
C47	C	1.662375	-0.088542	0.000023
C48	C	2.162375	0.411458	0.500023
C49	C	1.580824	-0.081234	0.000021
C50	C	2.080824	0.418766	0.500021
C51	C	1.530710	-0.152660	0.000026
C52	C	2.030710	0.347340	0.500026
C53	C	1.399738	-0.213031	0.000027
C54	C	1.899738	0.286969	0.500027
C55	C	1.447354	-0.145181	0.000032
C56	C	1.947354	0.354819	0.500032
C57	C	0.917798	-0.330702	0.000014
C58	C	1.417798	0.169298	0.500014
C59	C	0.919317	-0.423105	0.000007
C60	C	1.419317	0.076895	0.500007
N61	N	0.923539	-0.179100	0.217021
N62	N	1.423539	0.320900	0.717021
C63	C	0.995487	0.282360	0.000026
C64	C	1.495487	0.782360	0.500026
C65	C	0.994054	0.369183	0.000019
C66	C	1.494054	0.869183	0.500019
C67	C	0.851597	0.359425	0.000016
C68	C	1.351597	0.859425	0.500016
C69	C	0.853031	0.272605	0.000017
C70	C	1.353031	0.772605	0.500017
C71	C	0.924978	0.234075	0.000027
C72	C	1.424978	0.734075	0.500027
C73	C	0.922111	0.407718	0.000018
C74	C	1.422111	0.907718	0.500018
C75	C	0.920557	0.501854	0.000010
C76	C	1.420557	1.001854	0.500010
C77	C	0.926533	0.139932	0.000033
C78	C	1.426533	0.639932	0.500033
N79	N	0.923557	-0.179101	-0.216968
N80	N	1.423557	0.320899	0.283032
C81	C	0.976723	-0.126359	0.452034
C82	C	1.476723	0.373641	0.952034
C83	C	0.976725	-0.126357	0.548015
C84	C	1.476725	0.373643	1.048015
C85	C	0.870368	-0.231845	0.548012
C86	C	1.370368	0.268155	1.048012
C87	C	0.870362	-0.231842	0.452033
C88	C	1.370362	0.268158	0.952033
C89	C	0.923544	-0.179100	0.404046
C90	C	1.423544	0.320900	0.904046
C91	C	0.923552	-0.179101	0.596007
C92	C	1.423552	0.320899	1.096007
C93	C	0.923554	-0.179100	0.700074
C94	C	1.423554	0.320900	1.200074
C95	C	0.923541	-0.179100	0.299972
C96	C	1.423541	0.320900	0.799972
H97	H	1.177809	-0.055388	0.000030
H98	H	1.677809	0.444612	0.500030
C99	C	1.464112	-0.003348	0.000014
C100	C	1.964112	0.496652	0.500014
C101	C	1.546273	0.005314	0.000021
C102	C	2.046273	0.505314	0.500021
H103	H	1.442783	0.050084	0.000003
H104	H	1.942783	0.550084	0.500003
H105	H	1.446912	-0.032986	0.053186
H106	H	1.946912	0.467014	0.553186
H107	H	1.446920	-0.033008	-0.053161
H108	H	1.946920	0.466992	0.446839
H109	H	1.563465	0.034969	0.053200
H110	H	2.063465	0.534969	0.553200
H111	H	1.563480	0.034964	-0.053157
H112	H	2.063480	0.534964	0.446843
H113	H	1.425341	-0.277138	0.000019
H114	H	1.925341	0.222862	0.500019
C115	C	0.765234	-0.336123	0.461662
C116	C	1.265234	0.163877	0.961662
C117	C	0.811906	-0.289822	0.399277
C118	C	1.311906	0.210178	0.899277
H119	H	0.729150	-0.371917	0.429091
H120	H	1.229150	0.128083	0.929091
H121	H	0.737124	-0.299513	0.499104
H122	H	1.237124	0.200487	0.999104
H123	H	0.797778	-0.368351	0.499091
H124	H	1.297778	0.131649	0.999091
H125	H	0.779362	-0.257589	0.361852
H126	H	1.279362	0.242411	0.861852
H127	H	0.840018	-0.326436	0.361819
H128	H	1.340018	0.173564	0.861819
H129	H	1.325747	-0.068658	0.000039
H130	H	1.825747	0.431342	0.500039
C131	C	1.795679	-0.033077	0.000029
C132	C	2.295679	0.466923	0.500029
C133	C	1.717462	-0.010034	0.000030
C134	C	2.217462	0.489966	0.500030
H135	H	1.829685	0.015394	0.000041
H136	H	2.329685	0.515394	0.500041
H137	H	1.805203	-0.065116	-0.053146
H138	H	2.305203	0.434884	0.446854
H139	H	1.805196	-0.065126	0.053201
H140	H	2.305196	0.434874	0.553201
H141	H	1.707943	0.022010	-0.053147
H142	H	2.207943	0.522010	0.446853
H143	H	1.707934	0.022018	0.053210
H144	H	2.207934	0.522018	0.553210
C145	C	1.136155	0.300729	0.000011
C146	C	1.636155	0.800729	0.500011
C147	C	1.074571	0.240007	0.000020
C148	C	1.574571	0.740007	0.500020
H149	H	1.184978	0.274582	-0.000002
H150	H	1.684978	0.774582	0.499998
H151	H	1.132636	0.334390	0.053182
H152	H	1.632636	0.834390	0.553182
H153	H	1.132622	0.334387	-0.053165
H154	H	1.632622	0.834387	0.446835
H155	H	1.078100	0.206353	0.053200
H156	H	1.578100	0.706353	0.553200
H157	H	1.078091	0.206332	-0.053157
H158	H	1.578091	0.706332	0.446843
H159	H	0.827069	-0.274787	0.587092
H160	H	1.327069	0.225213	1.087092
H161	H	1.051470	0.408493	0.000016
H162	H	1.551470	0.908493	0.500016
H163	H	1.669283	-0.302824	0.000022
H164	H	2.169283	0.197176	0.500022
H165	H	1.143907	-0.327822	0.000032
H166	H	1.643907	0.172178	0.500032
H167	H	1.421757	-0.081075	0.000027
H168	H	1.921757	0.418925	0.500027
H169	H	1.521345	-0.289556	0.000020
H170	H	2.021345	0.210444	0.500020
C171	C	1.022684	0.014293	0.577568
C172	C	1.522684	0.514293	1.077568
C173	C	1.035183	-0.068384	0.600762
C174	C	1.535183	0.431616	1.100762
H175	H	1.058779	0.050084	0.610128
H176	H	1.558779	0.550084	1.110128
H177	H	0.970518	0.027040	0.593310
H178	H	1.470518	0.527040	1.093310
H179	H	1.030292	0.021829	0.513536
H180	H	1.530292	0.521829	1.013536
H181	H	1.027569	-0.075921	0.664793
H182	H	1.527569	0.424079	1.164793
H183	H	1.087362	-0.081136	0.585027
H184	H	1.587362	0.418864	1.085027
C185	C	0.771998	0.169303	0.078397
C186	C	1.271998	0.669303	0.578397
C187	C	0.775523	0.219519	0.000016
C188	C	1.275523	0.719519	0.500016
H189	H	0.724153	0.136527	0.078388
H190	H	1.224153	0.636527	0.578388
H191	H	0.774390	0.203379	0.131562
H192	H	1.274390	0.703379	0.631562
H193	H	0.815057	0.133937	0.078388
H194	H	1.315057	0.633937	0.578388
H195	H	0.732467	0.254889	0.000029
H196	H	1.232467	0.754889	0.500029
H197	H	0.773124	0.185440	-0.053162
H198	H	1.273124	0.685440	0.446838
H199	H	1.291859	-0.341087	0.000027
H200	H	1.791859	0.158913	0.500027
C201	C	0.767345	0.451404	-0.078365
C202	C	1.267345	0.951404	0.421635
C203	C	0.772516	0.401784	0.000016
C204	C	1.272516	0.901784	0.500016
H205	H	0.718525	0.477557	-0.078358
H206	H	1.218525	0.977557	0.421642
H207	H	0.770861	0.417733	-0.131530
H208	H	1.270861	0.917733	0.368470
H209	H	0.809138	0.492584	-0.078355
H210	H	1.309138	0.992584	0.421645
H211	H	0.730727	0.360600	0.000002
H212	H	1.230727	0.860600	0.500002
H213	H	0.768993	0.435458	0.053194
H214	H	1.268993	0.935458	0.553194
C215	C	0.993665	-0.014381	0.344161
C216	C	1.493665	0.485619	0.844161
C217	C	1.035153	-0.068340	0.399309
C218	C	1.535153	0.431660	0.899309
H219	H	1.029733	0.021447	0.311617
H220	H	1.529733	0.521447	0.811617
H221	H	0.961117	0.017801	0.381630
H222	H	1.461117	0.517801	0.881630
H223	H	0.962017	-0.045801	0.301826
H224	H	1.462017	0.454199	0.801826
H225	H	1.066797	-0.036921	0.441649
H226	H	1.566797	0.463079	0.941649
H227	H	1.067715	-0.100526	0.361837
H228	H	1.567715	0.399474	0.861837
