data_functionalizedCrystal
_audit_creation_method	'MofGen! by Chris Wilmer'
_symmetry_space_group_name_H-M	'P1'
_symmetry_Int_Tables_number	1
_symmetry_cell_setting	triclinic
loop_
_symmetry_equiv_pos_as_xyz
  x,y,z
_cell_length_a	19.805407
_cell_length_b	29.839131
_cell_length_c	29.839125
_cell_angle_alpha	89.974637
_cell_angle_beta	89.986802
_cell_angle_gamma	90.035228
loop_
_atom_site_label
_atom_site_type_symbol
_atom_site_fract_x
_atom_site_fract_y
_atom_site_fract_z
Zn1	Zn	1.034652	-0.178916	-0.253996
Zn2	Zn	1.534652	0.321084	0.246004
Zn3	Zn	1.034562	-0.254028	-0.178856
Zn4	Zn	1.534562	0.245972	0.321144
Zn5	Zn	0.921479	-0.178913	-0.178877
Zn6	Zn	1.421479	0.321087	0.321123
Zn7	Zn	0.921412	-0.254020	-0.253956
Zn8	Zn	1.421412	0.245980	0.246044
O9	O	0.978026	-0.216469	-0.216421
O10	O	1.478026	0.283531	0.283579
O11	O	1.129356	-0.188885	-0.244036
O12	O	1.629356	0.311115	0.255964
O13	O	1.019551	-0.244066	-0.115991
O14	O	1.519551	0.255934	0.384009
O15	O	0.936557	-0.116046	-0.188867
O16	O	1.436557	0.383954	0.311133
O17	O	1.129290	-0.244069	-0.188831
O18	O	1.629290	0.255931	0.311169
O19	O	1.019704	-0.116049	-0.244057
O20	O	1.519704	0.383951	0.255943
O21	O	0.936470	-0.188880	-0.116007
O22	O	1.436470	0.311120	0.383993
O23	O	0.826753	-0.188871	-0.188828
O24	O	1.326753	0.311129	0.311172
O25	O	0.936444	-0.244055	-0.316828
O26	O	1.436444	0.255945	0.183172
O27	O	0.826705	-0.244052	-0.243988
O28	O	1.326705	0.255948	0.256012
O29	O	1.019640	-0.188877	-0.316858
O30	O	1.519640	0.311123	0.183142
O31	O	1.019487	-0.316894	-0.188792
O32	O	1.519487	0.183106	0.311208
O33	O	0.936356	-0.316888	-0.243968
O34	O	1.436356	0.183112	0.256032
C35	C	0.802170	-0.216461	-0.216407
C36	C	1.302170	0.283539	0.283593
C37	C	0.726938	-0.216468	-0.216411
C38	C	1.226938	0.283532	0.283589
C39	C	0.691586	-0.245244	-0.245086
C40	C	1.191586	0.254756	0.254914
C41	C	0.620898	-0.245245	-0.245093
C42	C	1.120898	0.254755	0.254907
C43	C	0.585562	-0.216472	-0.216421
C44	C	1.085562	0.283528	0.283579
C45	C	0.620919	-0.187693	-0.187745
C46	C	1.120919	0.312307	0.312255
C47	C	0.691606	-0.187690	-0.187741
C48	C	1.191606	0.312310	0.312259
C49	C	0.335846	-0.187702	-0.187759
C50	C	0.835846	0.312298	0.312241
C51	C	0.265154	-0.187708	-0.187764
C52	C	0.765154	0.312292	0.312236
C53	C	0.265137	-0.245257	-0.245111
C54	C	0.765137	0.254743	0.254889
C55	C	0.335824	-0.245255	-0.245108
C56	C	0.835824	0.254745	0.254892
C57	C	0.371175	-0.216474	-0.216433
C58	C	0.871175	0.283526	0.283567
C59	C	0.447824	-0.216473	-0.216427
C60	C	0.947824	0.283527	0.283573
C61	C	0.508915	-0.216475	-0.216424
C62	C	1.008915	0.283525	0.283576
C63	C	0.977923	-0.333192	-0.216383
C64	C	1.477923	0.166808	0.283617
C65	C	0.977941	-0.383126	-0.216382
C66	C	1.477941	0.116874	0.283618
C67	C	1.021312	-0.692736	-0.245199
C68	C	1.521312	-0.192736	0.254801
C69	C	1.021385	-0.880409	-0.245226
C70	C	1.521385	-0.380409	0.254774
O71	O	1.058159	-0.904645	-0.269700
O72	O	1.558159	-0.404645	0.230300
N73	N	0.978141	-0.903912	-0.216471
N74	N	1.478141	-0.403912	0.283529
C75	C	0.934872	-0.880493	-0.187709
C76	C	1.434872	-0.380493	0.312291
O77	O	0.898088	-0.904789	-0.163255
O78	O	1.398088	-0.404789	0.336745
C79	C	0.934796	-0.692821	-0.187685
C80	C	1.434796	-0.192821	0.312315
C81	C	0.978048	-0.669321	-0.216439
C82	C	1.478048	-0.169321	0.283561
C83	C	1.064559	-0.669236	-0.273951
C84	C	1.564559	-0.169236	0.226049
C85	C	1.064543	-0.622321	-0.273942
C86	C	1.564543	-0.122321	0.226058
C87	C	1.021279	-0.598905	-0.245182
C88	C	1.521279	-0.098905	0.254818
C89	C	0.978032	-0.622405	-0.216430
C90	C	1.478032	-0.122405	0.283570
C91	C	0.891525	-0.669403	-0.158925
C92	C	1.391525	-0.169403	0.341075
C93	C	0.891508	-0.622482	-0.158922
C94	C	1.391508	-0.122482	0.341078
C95	C	0.934760	-0.598982	-0.187676
C96	C	1.434760	-0.098982	0.312324
C97	C	0.934752	-0.552074	-0.187660
C98	C	1.434752	-0.052074	0.312340
N99	N	0.977996	-0.528572	-0.216416
N100	N	1.477996	-0.028572	0.283584
C101	C	1.021259	-0.551987	-0.245176
C102	C	1.521259	-0.051987	0.254824
C103	C	0.934917	-0.979023	-0.187723
C104	C	1.434917	-0.479023	0.312277
C105	C	0.934936	-1.025941	-0.187729
C106	C	1.434936	-0.525941	0.312271
C107	C	1.021448	-1.025854	-0.245247
C108	C	1.521448	-0.525854	0.254753
C109	C	1.021431	-0.978936	-0.245239
C110	C	1.521431	-0.478936	0.254761
C111	C	0.978161	-0.955521	-0.216478
C112	C	1.478161	-0.455521	0.283522
C113	C	1.021222	-0.453462	-0.245155
C114	C	1.521222	0.046538	0.254845
C115	C	1.021204	-0.406542	-0.245143
C116	C	1.521204	0.093458	0.254857
C117	C	0.934690	-0.406633	-0.187627
C118	C	1.434690	0.093367	0.312373
C119	C	0.934711	-0.453548	-0.187637
C120	C	1.434711	0.046452	0.312363
C121	C	0.977979	-0.476962	-0.216405
C122	C	1.477979	0.023038	0.283595
O123	O	0.897991	-0.527809	-0.163203
O124	O	1.397991	-0.027809	0.336797
O125	O	1.058028	-0.527683	-0.269634
O126	O	1.558028	-0.027683	0.230366
C127	C	1.021328	-0.739652	-0.245208
C128	C	1.521328	-0.239652	0.254792
C129	C	0.978080	-0.763152	-0.216456
C130	C	1.478080	-0.263152	0.283544
C131	C	0.934816	-0.739736	-0.187695
C132	C	1.434816	-0.239736	0.312305
C133	C	0.978100	-0.810069	-0.216461
C134	C	1.478100	-0.310069	0.283539
C135	C	1.021364	-0.833485	-0.245222
C136	C	1.521364	-0.333485	0.254778
C137	C	1.064608	-0.809983	-0.273978
C138	C	1.564608	-0.309983	0.226022
C139	C	1.064592	-0.763067	-0.273969
C140	C	1.564592	-0.263067	0.226031
C141	C	0.891572	-0.763238	-0.158940
C142	C	1.391572	-0.263238	0.341060
C143	C	0.891593	-0.810154	-0.158951
C144	C	1.391593	-0.310154	0.341049
C145	C	0.934856	-0.833569	-0.187712
C146	C	1.434856	-0.333569	0.312288
C147	C	1.154569	-0.216478	-0.216436
C148	C	1.654569	0.283522	0.283564
C149	C	1.229801	-0.216482	-0.216442
C150	C	1.729801	0.283518	0.283558
C151	C	0.978044	-0.216465	-0.333599
C152	C	1.478044	0.283535	0.166401
C153	C	0.978052	-0.216464	-0.383534
C154	C	1.478052	0.283536	0.116466
C155	C	0.978148	-0.099291	-0.216469
C156	C	1.478148	0.400709	0.283531
C157	C	0.978200	-0.049357	-0.216489
C158	C	1.478200	0.450643	0.283511
C159	C	1.021418	-0.187657	-0.693196
C160	C	1.521418	0.312343	-0.193196
C161	C	1.021452	-0.187619	-0.880869
C162	C	1.521452	0.312381	-0.380869
O163	O	1.058273	-0.163169	-0.905149
O164	O	1.558273	0.336831	-0.405149
N165	N	0.978142	-0.216343	-0.904319
N166	N	1.478142	0.283657	-0.404319
C167	C	0.934818	-0.245078	-0.880848
C168	C	1.434818	0.254922	-0.380848
O169	O	0.897976	-0.269505	-0.905101
O170	O	1.397976	0.230495	-0.405101
C171	C	0.934781	-0.245113	-0.693176
C172	C	1.434781	0.254887	-0.193176
C173	C	0.978099	-0.216390	-0.669728
C174	C	1.478099	0.283610	-0.169728
C175	C	1.064731	-0.158936	-0.669748
C176	C	1.564731	0.341064	-0.169748
C177	C	1.064725	-0.158947	-0.622832
C178	C	1.564725	0.341053	-0.122832
C179	C	1.021406	-0.187680	-0.599365
C180	C	1.521406	0.312320	-0.099365
C181	C	0.978092	-0.216402	-0.622813
C182	C	1.478092	0.283598	-0.122813
C183	C	0.891454	-0.273845	-0.669706
C184	C	1.391454	0.226155	-0.169706
C185	C	0.891447	-0.273850	-0.622785
C186	C	1.391447	0.226150	-0.122785
C187	C	0.934765	-0.245127	-0.599337
C188	C	1.434765	0.254873	-0.099337
C189	C	0.934766	-0.245146	-0.552430
C190	C	1.434766	0.254854	-0.052430
N191	N	0.978076	-0.216421	-0.528979
N192	N	1.478076	0.283579	-0.028979
C193	C	1.021396	-0.187689	-0.552447
C194	C	1.521396	0.312311	-0.052447
C195	C	0.934841	-0.245057	-0.979379
C196	C	1.434841	0.254943	-0.479379
C197	C	0.934851	-0.245049	-1.026297
C198	C	1.434851	0.254951	-0.526297
C199	C	1.021484	-0.187590	-1.026314
C200	C	1.521484	0.312410	-0.526314
C201	C	1.021477	-0.187601	-0.979396
C202	C	1.521477	0.312399	-0.479396
C203	C	0.978150	-0.216333	-0.955929
C204	C	1.478150	0.283667	-0.455929
C205	C	1.021380	-0.187715	-0.453921
C206	C	1.521380	0.312285	0.046079
C207	C	1.021372	-0.187731	-0.407002
C208	C	1.521372	0.312269	0.092998
C209	C	0.934736	-0.245188	-0.406988
C210	C	1.434736	0.254812	0.093012
C211	C	0.934746	-0.245175	-0.453904
C212	C	1.434746	0.254825	0.046096
C213	C	0.978071	-0.216435	-0.477369
C214	C	1.478071	0.283565	0.022631
O215	O	0.897960	-0.269580	-0.528120
O216	O	1.397960	0.230420	-0.028120
O217	O	1.058221	-0.163257	-0.528187
O218	O	1.558221	0.336743	-0.028187
C219	C	1.021424	-0.187646	-0.740111
C220	C	1.521424	0.312354	-0.240111
C221	C	0.978111	-0.216367	-0.763559
C222	C	1.478111	0.283633	-0.263559
C223	C	0.934791	-0.245100	-0.740092
C224	C	1.434791	0.254900	-0.240092
C225	C	0.978121	-0.216359	-0.810477
C226	C	1.478121	0.283641	-0.310477
C227	C	1.021440	-0.187626	-0.833945
C228	C	1.521440	0.312374	-0.333945
C229	C	1.064750	-0.158901	-0.810494
C230	C	1.564750	0.341099	-0.310494
C231	C	1.064744	-0.158913	-0.763579
C232	C	1.564744	0.341087	-0.263579
C233	C	0.891482	-0.273824	-0.763542
C234	C	1.391482	0.226176	-0.263542
C235	C	0.891492	-0.273811	-0.810457
C236	C	1.391492	0.226189	-0.310457
C237	C	0.934812	-0.245078	-0.833925
C238	C	1.434812	0.254922	-0.333925
C239	C	0.978047	-0.216441	-0.099699
C240	C	1.478047	0.283559	0.400301
C241	C	0.978170	-0.216316	-0.049764
C242	C	1.478170	0.283684	0.450236
H243	H	0.236386	-0.164275	-0.164416
H244	H	0.736386	0.335725	0.335584
C245	C	1.069118	-0.156001	-0.953607
C246	C	1.569118	0.343999	-0.453607
H247	H	1.094914	-0.138886	-0.974307
H248	H	1.594914	0.361114	-0.474307
H249	H	1.098590	-0.173186	-0.935299
H250	H	1.598590	0.326814	-0.435299
H251	H	1.043237	-0.136425	-0.935311
H252	H	1.543237	0.363575	-0.435311
H253	H	0.856373	-0.829283	-0.135532
H254	H	1.356373	-0.329283	0.364468
C255	C	1.068780	-0.380693	-0.276773
C256	C	1.568780	0.119307	0.223227
H257	H	1.062582	-0.349396	-0.272648
H258	H	1.562582	0.150604	0.227352
H259	H	1.058846	-0.388369	-0.306953
H260	H	1.558846	0.111631	0.193047
H261	H	1.114269	-0.388362	-0.270225
H262	H	1.614269	0.111638	0.229775
H263	H	0.899679	-0.959962	-0.164302
H264	H	1.399679	-0.459962	0.335698
H265	H	0.856341	-0.744177	-0.135520
H266	H	1.356341	-0.244177	0.364480
H267	H	0.364620	-0.164271	-0.164407
H268	H	0.864620	0.335729	0.335593
H269	H	0.592144	-0.164263	-0.164402
H270	H	1.092144	0.335737	0.335598
H271	H	1.056451	-0.472519	-0.268584
H272	H	1.556451	0.027481	0.231416
C273	C	0.730494	-0.156036	-0.156199
C274	C	1.230494	0.343964	0.343801
H275	H	0.699326	-0.138902	-0.139121
H276	H	1.199326	0.361098	0.360879
H277	H	0.758092	-0.136487	-0.173423
H278	H	1.258092	0.363513	0.326577
H279	H	0.758046	-0.173191	-0.136587
H280	H	1.258046	0.326809	0.363413
C281	C	1.069034	-1.051617	-0.276885
C282	C	1.569034	-0.551617	0.223115
H283	H	1.062844	-1.082925	-0.272770
H284	H	1.562844	-0.582925	0.227230
H285	H	1.114518	-1.043908	-0.270343
H286	H	1.614518	-0.543908	0.229657
H287	H	1.059083	-1.043918	-0.307064
H288	H	1.559083	-0.543918	0.192936
H289	H	0.856305	-0.688528	-0.135510
H290	H	1.356305	-0.188528	0.364490
H291	H	0.899497	-0.472683	-0.164220
H292	H	1.399497	0.027317	0.335780
H293	H	1.099998	-0.135557	-0.603745
H294	H	1.599998	0.364443	-0.103745
H295	H	1.099760	-0.603190	-0.297358
H296	H	1.599760	-0.103190	0.202642
C297	C	0.887364	-1.051786	-0.156097
C298	C	1.387364	-0.551786	0.343903
H299	H	0.861592	-1.031117	-0.138972
H300	H	1.361592	-0.531117	0.361028
H301	H	0.913278	-1.070086	-0.136539
H302	H	1.413278	-0.570086	0.363461
H303	H	0.857857	-1.070094	-0.173269
H304	H	1.357857	-0.570094	0.326731
H305	H	1.056648	-0.164340	-0.387912
H306	H	1.556648	0.335660	0.112088
C307	C	0.843789	-0.305456	-0.596972
C308	C	1.343789	0.194544	-0.096972
H309	H	0.849981	-0.301349	-0.565671
H310	H	1.349981	0.198651	-0.065671
H311	H	0.853661	-0.335640	-0.604657
H312	H	1.353661	0.164360	-0.104657
H313	H	0.798319	-0.298872	-0.604660
H314	H	1.298319	0.201128	-0.104660
C315	C	0.374693	-0.276911	-0.276638
C316	C	0.874693	0.223089	0.223362
H317	H	0.421855	-0.272792	-0.272524
H318	H	0.921855	0.227208	0.227476
H319	H	0.363134	-0.270389	-0.306839
H320	H	0.863134	0.229611	0.193161
H321	H	0.363075	-0.307086	-0.269996
H322	H	0.863075	0.192914	0.230004
C323	C	0.226253	-0.276897	-0.276674
C324	C	0.726253	0.223103	0.223326
H325	H	0.257422	-0.294030	-0.293750
H326	H	0.757422	0.205970	0.206250
H327	H	0.198715	-0.259728	-0.296280
H328	H	0.698715	0.240272	0.203720
H329	H	0.198641	-0.296453	-0.259465
H330	H	0.698641	0.203547	0.240535
H331	H	1.056656	-0.164311	-0.473021
H332	H	1.556656	0.335689	0.026979
C333	C	1.112158	-0.694986	-0.305588
C334	C	1.612158	-0.194986	0.194412
H335	H	1.137911	-0.674265	-0.322706
H336	H	1.637911	-0.174265	0.177294
H337	H	1.086264	-0.713295	-0.325153
H338	H	1.586264	-0.213295	0.174847
H339	H	1.141680	-0.713278	-0.288420
H340	H	1.641680	-0.213278	0.211580
C341	C	1.112195	-0.835746	-0.305615
C342	C	1.612195	-0.335746	0.194385
H343	H	1.106002	-0.867053	-0.301501
H344	H	1.606002	-0.367053	0.198499
H345	H	1.157679	-0.828038	-0.299071
H346	H	1.657679	-0.328038	0.200929
H347	H	1.102248	-0.828046	-0.335794
H348	H	1.602248	-0.328046	0.164206
C349	C	1.112391	-0.127329	-0.695555
C350	C	1.612391	0.372671	-0.195555
H351	H	1.138185	-0.110231	-0.674865
H352	H	1.638185	0.389769	-0.174865
H353	H	1.086535	-0.107746	-0.713864
H354	H	1.586535	0.392254	-0.213864
H355	H	1.141874	-0.144517	-0.713852
H356	H	1.641874	0.355483	-0.213852
H357	H	0.592117	-0.268677	-0.268443
H358	H	1.092117	0.231323	0.231557
C359	C	0.843911	-0.596726	-0.127286
C360	C	1.343911	-0.096726	0.372714
H361	H	0.850088	-0.565417	-0.131400
H362	H	1.350088	-0.065417	0.368600
H363	H	0.853847	-0.604429	-0.097108
H364	H	1.353847	-0.104429	0.402892
H365	H	0.798428	-0.604438	-0.133840
H366	H	1.298428	-0.104438	0.366160
H367	H	0.899559	-0.268458	-0.960277
H368	H	1.399559	0.231542	-0.460277
H369	H	1.056650	-0.959805	-0.268653
H370	H	1.556650	-0.459805	0.231347
H371	H	0.720351	-0.268676	-0.268433
H372	H	1.220351	0.231324	0.231567
H373	H	0.899469	-0.268583	-0.387872
H374	H	1.399469	0.231417	0.112128
C375	C	0.843798	-0.305437	-0.695489
C376	C	1.343798	0.194563	-0.195489
H377	H	0.817994	-0.322543	-0.674786
H378	H	1.317994	0.177457	-0.174786
H379	H	0.869659	-0.325014	-0.713791
H380	H	1.369659	0.174986	-0.213791
H381	H	0.814324	-0.288241	-0.713790
H382	H	1.314324	0.211759	-0.213790
H383	H	0.899467	-0.387561	-0.164209
H384	H	1.399467	0.112439	0.335791
C385	C	1.112401	-0.127296	-0.836315
C386	C	1.612401	0.372704	-0.336315
H387	H	1.106193	-0.131405	-0.867615
H388	H	1.606193	0.368595	-0.367615
H389	H	1.157872	-0.133873	-0.828631
H390	H	1.657872	0.366127	-0.328631
H391	H	1.102521	-0.097110	-0.828634
H392	H	1.602521	0.402890	-0.328634
C393	C	1.069136	-0.155985	-1.052134
C394	C	1.569136	0.344015	-0.552134
H395	H	1.062932	-0.160095	-1.083434
H396	H	1.562932	0.339905	-0.583434
H397	H	1.114606	-0.162561	-1.044448
H398	H	1.614606	0.337439	-0.544448
H399	H	1.059255	-0.125799	-1.044456
H400	H	1.559255	0.374201	-0.544456
C401	C	0.887206	-0.276648	-1.052085
C402	C	1.387206	0.223352	-0.552085
H403	H	0.861403	-0.293756	-1.031384
H404	H	1.361403	0.206244	-0.531384
H405	H	0.913076	-0.296222	-1.070385
H406	H	1.413076	0.203778	-0.570385
H407	H	0.857732	-0.259455	-1.070388
H408	H	1.357732	0.240545	-0.570388
H409	H	0.899480	-0.268568	-0.472996
H410	H	1.399480	0.231432	0.027004
C411	C	0.843838	-0.305408	-0.836245
C412	C	1.343838	0.194592	-0.336245
H413	H	0.818035	-0.322517	-0.815545
H414	H	1.318035	0.177483	-0.315545
H415	H	0.869703	-0.324982	-0.854549
H416	H	1.369703	0.175018	-0.354549
H417	H	0.814364	-0.288211	-0.854545
H418	H	1.314364	0.211789	-0.354545
H419	H	1.099811	-0.743937	-0.297383
H420	H	1.599811	-0.243937	0.202617
H421	H	1.100017	-0.135523	-0.744492
H422	H	1.600017	0.364477	-0.244492
H423	H	0.856206	-0.297223	-0.744439
H424	H	1.356206	0.202777	-0.244439
