data_functionalizedCrystal
_audit_creation_method	'MofGen! by Chris Wilmer'
_symmetry_space_group_name_H-M	'P1'
_symmetry_Int_Tables_number	1
_symmetry_cell_setting	triclinic
loop_
_symmetry_equiv_pos_as_xyz
  x,y,z
_cell_length_a	11.169417
_cell_length_b	12.759394
_cell_length_c	11.169417
_cell_angle_alpha	90.009796
_cell_angle_beta	90.000863
_cell_angle_gamma	90.015716
loop_
_atom_site_label
_atom_site_type_symbol
_atom_site_fract_x
_atom_site_fract_y
_atom_site_fract_z
Zn1	Zn	1.834700	-0.418413	0.678524
Zn2	Zn	1.834640	-0.594063	0.477833
Zn3	Zn	1.634052	-0.418401	0.477858
Zn4	Zn	1.633978	-0.594053	0.678478
O5	O	1.734343	-0.506233	0.578173
O6	O	2.002642	-0.441723	0.651911
O7	O	1.808038	-0.570760	0.309887
O8	O	1.660725	-0.271382	0.504507
O9	O	2.002598	-0.570772	0.504464
O10	O	1.808140	-0.271391	0.651935
O11	O	1.660667	-0.441702	0.309905
O12	O	1.466093	-0.441693	0.504462
O13	O	1.660598	-0.570755	0.846434
O14	O	1.466038	-0.570744	0.651857
O15	O	1.808068	-0.441713	0.846467
O16	O	1.807966	-0.741083	0.504420
O17	O	1.660540	-0.741076	0.651832
C18	C	1.422518	-0.506217	0.578158
C19	C	1.289118	-0.506235	0.578180
C20	C	1.734271	-0.779200	0.578144
C21	C	1.734350	-0.895977	0.578172
C22	C	1.887979	-0.895931	0.424786
C23	C	1.964825	-0.950769	0.348107
C24	C	1.964896	-1.060490	0.348140
C25	C	1.888114	-1.115377	0.424862
C26	C	1.811268	-1.060539	0.501541
C27	C	1.811204	-0.950815	0.501498
C28	C	1.657646	-1.060585	0.654931
C29	C	1.657568	-0.950863	0.654894
C30	C	1.580865	-1.115471	0.731653
C31	C	1.504011	-1.060633	0.808328
C32	C	1.503943	-0.950905	0.808291
C33	C	1.580722	-0.896025	0.731573
C34	C	2.047385	-0.506250	0.578190
C35	C	2.180785	-0.506257	0.578196
C36	C	1.734331	-0.506234	0.891216
C37	C	1.734326	-0.506235	1.024616
C38	C	1.734448	-0.232199	0.578229
C39	C	1.734492	-0.115423	0.578252
C40	C	1.734340	-0.506250	1.266349
C41	C	1.734330	-0.506237	1.132949
H42	H	1.887914	-0.806590	0.424736
C43	C	2.049429	-1.120814	0.263790
N44	N	2.113098	-1.166249	0.200255
C45	C	1.888202	-1.236074	0.424899
N46	N	1.888266	-1.326984	0.424927
H47	H	1.441507	-1.105330	0.870795
C48	C	1.419414	-0.890592	0.892655
N49	N	1.355746	-0.845168	0.956202
H50	H	2.027343	-0.906071	0.285643
H51	H	1.580666	-0.806684	0.731528
H52	H	1.580933	-1.204812	0.731680
