data_functionalizedCrystal
_audit_creation_method	'MofGen! by Chris Wilmer'
_symmetry_space_group_name_H-M	'P1'
_symmetry_Int_Tables_number	1
_symmetry_cell_setting	triclinic
loop_
_symmetry_equiv_pos_as_xyz
  x,y,z
_cell_length_a	12.811445
_cell_length_b	10.654551
_cell_length_c	11.295483
_cell_angle_alpha	94.137679
_cell_angle_beta	80.460739
_cell_angle_gamma	84.264746
loop_
_atom_site_label
_atom_site_type_symbol
_atom_site_fract_x
_atom_site_fract_y
_atom_site_fract_z
O1	O	1.411703	0.147813	-0.251457
O2	O	1.103901	0.169024	-0.218221
O3	O	1.264879	-0.024422	-0.235604
O4	O	1.250726	0.341259	-0.234075
O5	O	1.250739	-0.007457	-0.036026
O6	O	1.089762	0.185989	-0.018644
O7	O	1.397564	0.164778	-0.051880
Cu8	Cu	1.242372	0.176932	-0.017039
Cu9	Cu	1.259093	0.156870	-0.253062
O10	O	1.236587	0.358224	-0.034497
C11	C	1.057418	0.176836	-0.114177
C12	C	0.939981	0.174825	-0.101497
C13	C	1.256770	-0.062723	-0.135706
C14	C	1.253661	-0.202122	-0.135378
C15	C	0.734714	0.152572	-0.295270
C16	C	0.624371	0.150682	-0.283361
C17	C	0.608949	0.169164	-0.065770
C18	C	0.719292	0.171054	-0.077679
C19	C	0.782171	0.162756	-0.192433
C20	C	0.892517	0.164637	-0.204341
C21	C	0.877092	0.183128	0.013249
C22	C	0.766749	0.181238	0.025158
C23	C	1.259909	-0.276861	-0.244008
C24	C	1.256977	-0.407838	-0.243686
C25	C	1.241553	-0.389328	-0.026095
C26	C	1.244477	-0.258351	-0.026417
C27	C	1.269092	-0.220631	-0.352969
C28	C	1.275342	-0.295371	-0.461608
C29	C	1.272411	-0.426349	-0.461286
C30	C	1.263229	-0.482587	-0.352325
C31	C	1.444047	0.156965	-0.155927
C32	C	1.561485	0.158976	-0.168615
C33	C	1.244696	0.396525	-0.134398
C34	C	1.247805	0.535923	-0.134734
N35	N	1.230619	0.191043	0.148967
N36	N	1.270855	0.142749	-0.419069
C37	C	1.355460	0.041106	0.384776
C38	C	1.346585	0.051778	0.510398
C39	C	1.203991	0.223052	0.525835
C40	C	1.212866	0.212380	0.400213
C41	C	1.288603	0.121405	0.329688
C42	C	1.297482	0.110740	0.204063
C43	C	1.154884	0.282007	0.219503
C44	C	1.146009	0.292679	0.345125
H45	H	0.785912	0.145809	-0.388708
H46	H	1.271483	-0.113984	-0.353244
C47	C	0.961681	0.155518	-0.330563
H48	H	0.917608	0.149197	-0.390102
H49	H	1.012578	0.082656	-0.340559
H50	H	0.997513	0.229101	-0.338907
C51	C	0.572171	0.139482	-0.396482
H52	H	0.625427	0.134804	-0.466526
H53	H	0.521918	0.211578	-0.395539
H54	H	0.536978	0.065134	-0.397179
H55	H	1.239367	-0.197494	0.062041
H56	H	0.557733	0.175932	0.027657
H57	H	0.715538	0.187998	0.118587
H58	H	1.100448	0.347396	0.174636
C59	C	0.929296	0.194331	0.126374
H60	H	1.004018	0.194274	0.102850
H61	H	0.915569	0.124603	0.172211
H62	H	0.900518	0.271046	0.173843
H63	H	1.277489	-0.487197	-0.549744
C64	C	1.285440	-0.233514	-0.581454
H65	H	1.286302	-0.144806	-0.566092
H66	H	1.226559	-0.248954	-0.619461
H67	H	1.349708	-0.268610	-0.632744
C68	C	1.259976	-0.626656	-0.351969
H69	H	1.265008	-0.663116	-0.432271
H70	H	1.194890	-0.643022	-0.305066
H71	H	1.318040	-0.662712	-0.318367
H72	H	1.084342	0.366746	0.402562
H73	H	1.234079	-0.435128	0.062616
H74	H	1.359154	0.036667	0.146641
H75	H	1.417135	-0.032961	0.327352
C76	C	1.420130	-0.036548	0.570991
H77	H	1.466509	-0.092248	0.510992
H78	H	1.378238	-0.084531	0.624156
H79	H	1.461033	0.012650	0.615192
H80	H	1.142320	0.297113	0.583274
