data_functionalizedCrystal
_audit_creation_method	'MofGen! by Chris Wilmer'
_symmetry_space_group_name_H-M	'P1'
_symmetry_Int_Tables_number	1
_symmetry_cell_setting	triclinic
loop_
_symmetry_equiv_pos_as_xyz
  x,y,z
_cell_length_a	19.188905
_cell_length_b	10.654550
_cell_length_c	9.130313
_cell_angle_alpha	89.994910
_cell_angle_beta	90.007626
_cell_angle_gamma	96.190257
loop_
_atom_site_label
_atom_site_type_symbol
_atom_site_fract_x
_atom_site_fract_y
_atom_site_fract_z
O1	O	0.927176	-0.156632	0.122041
O2	O	1.427176	0.343368	0.622041
O3	O	0.724001	-0.177770	0.121991
O4	O	1.224001	0.322230	0.621991
O5	O	0.830260	0.015638	0.122007
O6	O	1.330260	0.515638	0.622007
O7	O	0.820917	-0.350040	0.122024
O8	O	1.320917	0.149960	0.622024
O9	O	0.830259	0.015647	-0.121591
O10	O	1.330259	0.515647	0.378409
O11	O	0.724000	-0.177760	-0.121608
O12	O	1.224000	0.322240	0.378392
O13	O	0.927175	-0.156622	-0.121558
O14	O	1.427175	0.343378	0.378442
Cu15	Cu	0.825587	-0.167191	-0.143826
Cu16	Cu	1.325587	0.332809	0.356174
Cu17	Cu	0.825589	-0.167202	0.144258
Cu18	Cu	1.325589	0.332798	0.644258
O19	O	0.820916	-0.350030	-0.121575
O20	O	1.320916	0.149970	0.378425
C21	C	0.697984	-0.177086	0.000185
C22	C	1.197984	0.322914	0.500185
C23	C	0.620466	-0.175047	0.000165
C24	C	1.120466	0.324953	0.500165
N25	N	0.825590	-0.167200	0.346881
N26	N	1.325590	0.332800	0.846881
C27	C	0.829573	0.062426	0.000209
C28	C	1.329573	0.562426	0.500209
C29	C	0.827521	0.201826	0.000210
C30	C	1.327521	0.701826	0.500210
C31	C	0.584068	-0.174072	0.132955
C32	C	1.084068	0.325928	0.632955
C33	C	0.511232	-0.172142	0.132973
C34	C	1.011232	0.327858	0.632973
C35	C	0.474798	-0.171162	0.000194
C36	C	0.974798	0.328838	0.500194
C37	C	0.511204	-0.172143	-0.132613
C38	C	1.011204	0.327857	0.367387
C39	C	0.584038	-0.174086	-0.132627
C40	C	1.084038	0.325914	0.367373
N41	N	0.365290	-0.096644	-0.098624
N42	N	0.865290	0.403356	0.401376
N43	N	0.296101	-0.094796	-0.098601
N44	N	0.796101	0.405204	0.401399
C45	C	0.255353	-0.165311	0.000229
C46	C	0.755353	0.334689	0.500229
N47	N	0.286409	-0.237729	0.099058
N48	N	0.786409	0.262271	0.599058
N49	N	0.355605	-0.239571	0.099040
N50	N	0.855605	0.260429	0.599040
C51	C	0.395821	-0.169056	0.000195
C52	C	0.895821	0.330944	0.500195
C53	C	0.139978	-0.162246	0.133047
C54	C	0.639978	0.337754	0.633047
C55	C	0.067139	-0.160324	0.133060
C56	C	0.567139	0.339676	0.633060
C57	C	0.067114	-0.160312	-0.132530
C58	C	0.567114	0.339688	0.367470
C59	C	0.139949	-0.162247	-0.132539
C60	C	0.639949	0.337753	0.367461
C61	C	0.176377	-0.163208	0.000254
C62	C	0.676377	0.336792	0.500254
C63	C	0.953191	-0.157306	0.000251
C64	C	1.453191	0.342694	0.500251
C65	C	1.030710	-0.159345	0.000280
C66	C	1.530710	0.340655	0.500280
C67	C	0.821603	-0.396818	0.000227
C68	C	1.321603	0.103182	0.500227
C69	C	0.823655	-0.536218	0.000235
C70	C	1.323655	-0.036218	0.500235
C71	C	0.890085	0.282645	0.000226
C72	C	1.390085	0.782645	0.500226
C73	C	0.888152	0.413625	0.000244
C74	C	1.388152	0.913625	0.500244
C75	C	0.761086	0.382952	0.000223
C76	C	1.261086	0.882952	0.500223
C77	C	0.763020	0.251975	0.000216
C78	C	1.263020	0.751975	0.500216
N79	N	0.825592	-0.167182	-0.346448
N80	N	1.325592	0.332818	0.153552
C81	C	0.872731	-0.081725	0.423540
C82	C	1.372731	0.418275	0.923540
C83	C	0.872733	-0.081719	0.576877
C84	C	1.372733	0.418281	1.076877
C85	C	0.778449	-0.252666	0.576881
C86	C	1.278449	0.247334	1.076881
C87	C	0.778450	-0.252678	0.423547
C88	C	1.278450	0.247322	0.923547
H89	H	0.613723	-0.174855	0.241085
H90	H	1.113723	0.325145	0.741085
H91	H	0.169638	-0.163042	0.241175
H92	H	0.669638	0.336958	0.741175
H93	H	0.911120	-0.012119	0.639289
H94	H	1.411120	0.487881	1.139289
H95	H	0.939098	0.479424	0.000260
H96	H	1.439098	0.979424	0.500260
F97	F	0.958732	0.229277	0.000222
F98	F	1.458732	0.729277	0.500222
H99	H	0.712070	0.186168	0.000208
H100	H	1.212070	0.686168	0.500208
F101	F	0.472427	-0.171106	-0.273926
F102	F	0.972427	0.328894	0.226074
H103	H	0.911116	-0.012126	0.361122
H104	H	1.411116	0.487874	0.861122
H105	H	0.708572	0.423801	0.000225
H106	H	1.208572	0.923801	0.500225
H107	H	0.740067	-0.322258	0.639319
H108	H	1.240067	0.177742	1.139319
H109	H	0.740062	-0.322288	0.361127
H110	H	1.240062	0.177712	0.861127
F111	F	0.622776	-0.175123	-0.273967
F112	F	1.122776	0.324877	0.226033
H113	H	0.037505	-0.159538	0.241198
H114	H	0.537505	0.340462	0.741198
F115	F	0.472487	-0.171105	0.274311
F116	F	0.972487	0.328895	0.774311
F117	F	0.028342	-0.159279	-0.273845
F118	F	0.528342	0.340721	0.226155
H119	H	0.169585	-0.163032	-0.240670
H120	H	0.669585	0.336968	0.259330
