data_functionalizedCrystal
_audit_creation_method	'MofGen! by Chris Wilmer'
_symmetry_space_group_name_H-M	'P1'
_symmetry_Int_Tables_number	1
_symmetry_cell_setting	triclinic
loop_
_symmetry_equiv_pos_as_xyz
  x,y,z
_cell_length_a	6.817900
_cell_length_b	19.551823
_cell_length_c	12.908943
_cell_angle_alpha	96.125540
_cell_angle_beta	100.860631
_cell_angle_gamma	101.663376
loop_
_atom_site_label
_atom_site_type_symbol
_atom_site_fract_x
_atom_site_fract_y
_atom_site_fract_z
V1	V	-3.987271	-0.095801	-0.329170
O2	O	-3.984823	0.005501	-0.322397
O3	O	-3.930125	-0.190821	-0.327407
O4	O	-3.925722	-0.093934	-0.472510
O5	O	-3.989257	-0.092057	-0.176289
V6	V	-4.473735	-0.083731	-0.310825
O7	O	-4.242076	-0.122279	-0.369412
O8	O	-4.669128	-0.057254	-0.270584
O9	O	-4.307674	0.011289	-0.312589
O10	O	-4.593580	-0.185034	-0.317599
O11	O	-4.589146	-0.087476	-0.463707
O12	O	-4.312078	-0.085598	-0.167485
C13	C	-3.773424	-0.213997	-0.322340
C14	C	-3.807900	-0.291675	-0.321854
C15	C	-4.005379	-0.331707	-0.326897
C16	C	-4.037776	-0.404694	-0.326450
C17	C	-3.872677	-0.437644	-0.320939
C18	C	-3.675172	-0.397603	-0.315902
C19	C	-3.642784	-0.324619	-0.316359
C20	C	-3.765580	-0.544309	-0.254094
C21	C	-3.797974	-0.617292	-0.253630
C22	C	-3.972568	-0.662754	-0.319534
C23	C	-4.114794	-0.635223	-0.385889
C24	C	-4.082406	-0.562238	-0.386346
C25	C	-3.907777	-0.516784	-0.320444
C26	C	-4.205189	-0.781928	-0.324095
C27	C	-4.237582	-0.854917	-0.323655
C28	C	-3.874968	-0.847823	-0.313096
C29	C	-3.842585	-0.774837	-0.313547
C30	C	-4.007701	-0.741893	-0.319041
C31	C	-3.767806	-0.090407	-0.507433
C32	C	-3.798709	-0.089509	-0.624617
C33	C	-4.219391	-0.094755	-0.855590
C34	C	-4.248436	-0.093912	-0.965696
C35	C	-3.885845	-0.086974	-0.954934
C36	C	-3.856800	-0.087817	-0.844829
C37	C	-4.023581	-0.091709	-0.795161
C38	C	-3.994536	-0.092558	-0.685055
C39	C	-3.631944	-0.085614	-0.674294
C40	C	-3.660990	-0.084771	-0.784400
C41	C	-4.127718	0.034461	-0.317653
C42	C	-4.072479	0.112138	-0.318146
C43	C	-4.133336	-0.089128	-0.132558
C44	C	-4.081672	-0.090022	-0.015372
H45	H	-3.681775	-0.742241	-0.309433
O46	O	-4.235784	-0.532549	-0.457925
H47	H	-4.298363	-0.495864	-0.408514
O48	O	-3.696897	-0.883357	-0.307163
H49	H	-3.554131	-0.843255	-0.303738
O50	O	-4.250783	-0.447879	-0.331869
H51	H	-4.245560	-0.504164	-0.330627
H52	H	-3.682171	-0.639702	-0.199593
O53	O	-4.303112	-0.684245	-0.456987
H54	H	-4.301733	-0.739622	-0.445537
H55	H	-4.355196	-0.097932	-0.815152
H56	H	-3.750067	-0.083800	-0.995392
H57	H	-4.339636	-0.755103	-0.328567
O58	O	-4.459628	-0.097194	-1.030878
H59	H	-4.570712	-0.100044	-0.977839
O60	O	-3.420726	-0.082322	-0.609118
H61	H	-3.428538	-0.083557	-0.524208
H62	H	-4.139835	-0.304890	-0.331378
H63	H	-3.623390	-0.507300	-0.200430
H64	H	-4.398399	-0.887511	-0.327769
O65	O	-3.497092	-0.433136	-0.309963
H66	H	-3.552786	-0.490612	-0.310483
H67	H	-3.481970	-0.292024	-0.312253
H68	H	-4.130341	-0.095730	-0.644618
H69	H	-3.525207	-0.081600	-0.824854
