data_functionalizedCrystal
_audit_creation_method	'MofGen! by Chris Wilmer'
_symmetry_space_group_name_H-M	'P1'
_symmetry_Int_Tables_number	1
_symmetry_cell_setting	triclinic
loop_
_symmetry_equiv_pos_as_xyz
  x,y,z
_cell_length_a	10.654537
_cell_length_b	17.019234
_cell_length_c	9.130307
_cell_angle_alpha	86.115410
_cell_angle_beta	90.000617
_cell_angle_gamma	96.067153
loop_
_atom_site_label
_atom_site_type_symbol
_atom_site_fract_x
_atom_site_fract_y
_atom_site_fract_z
O1	O	-1.666095	0.110768	-0.135746
O2	O	-1.166095	0.610768	0.364254
O3	O	-1.300448	0.121330	-0.137088
O4	O	-0.800448	0.621330	0.362912
O5	O	-1.493485	0.001270	-0.121925
O6	O	-0.993485	0.501270	0.378075
O7	O	-1.473057	0.230827	-0.150909
O8	O	-0.973057	0.730827	0.349091
O9	O	-1.493479	0.001269	0.121675
O10	O	-0.993479	0.501269	0.621675
O11	O	-1.300442	0.121328	0.106511
O12	O	-0.800442	0.621328	0.606511
O13	O	-1.666088	0.110767	0.107853
O14	O	-1.166088	0.610767	0.607853
Cu15	Cu	-1.483265	0.116047	0.129425
Cu16	Cu	-0.983265	0.616047	0.629425
Cu17	Cu	-1.483272	0.116049	-0.158659
Cu18	Cu	-0.983272	0.616049	0.341341
O19	O	-1.473051	0.230826	0.092690
O20	O	-0.973051	0.730826	0.592690
C21	C	-1.253659	0.120555	-0.015192
C22	C	-0.753659	0.620555	0.484808
C23	C	-1.114252	0.118238	-0.014903
C24	C	-0.614252	0.618238	0.485097
C25	C	-1.084016	0.261800	-0.033047
C26	C	-0.584016	0.761800	0.466953
C27	C	-1.003406	0.332489	-0.041987
C28	C	-0.503406	0.832489	0.458013
C29	C	-0.872422	0.330307	-0.041712
C30	C	-0.372422	0.830307	0.458288
C31	C	-0.822047	0.257429	-0.032492
C32	C	-0.322047	0.757429	0.467508
C33	C	-0.902657	0.186740	-0.023552
C34	C	-0.402657	0.686740	0.476448
C35	C	-1.033642	0.188929	-0.023832
C36	C	-0.533642	0.688929	0.476168
C37	C	-0.932892	0.043180	-0.005397
C38	C	-0.432892	0.543180	0.494603
C39	C	-1.063876	0.045360	-0.005683
C40	C	-0.563876	0.545360	0.494317
C41	C	-0.882517	-0.029699	0.003823
C42	C	-0.382517	0.470301	0.503823
C43	C	-0.963127	-0.100390	0.012753
C44	C	-0.463127	0.399610	0.512753
C45	C	-1.094118	-0.098205	0.012476
C46	C	-0.594118	0.401795	0.512476
C47	C	-1.144486	-0.025330	0.003257
C48	C	-0.644486	0.474670	0.503257
C49	C	-1.492712	-0.028124	0.003583
C50	C	-0.992712	0.471876	0.503583
C51	C	-1.490402	-0.115709	0.014632
C52	C	-0.990402	0.384291	0.514632
C53	C	-1.477222	-0.611059	0.083721
C54	C	-0.977222	-0.111059	0.583721
C55	C	-1.479405	-0.528765	0.073346
C56	C	-0.979405	-0.028765	0.573346
C57	C	-1.480509	-0.487610	-0.064630
C58	C	-0.980509	0.012390	0.435370
C59	C	-1.479418	-0.528752	-0.192240
C60	C	-0.979418	-0.028752	0.307760
C61	C	-1.477226	-0.611043	-0.181864
C62	C	-0.977226	-0.111043	0.318136
C63	C	-1.487119	-0.239142	-0.102602
C64	C	-0.987119	0.260858	0.397398
C65	C	-1.489315	-0.156845	-0.112969
C66	C	-0.989315	0.343155	0.387031
C67	C	-1.489299	-0.156864	0.152620
C68	C	-0.989299	0.343136	0.652620
C69	C	-1.487115	-0.239158	0.162983
C70	C	-0.987115	0.260842	0.662983
C71	C	-1.486017	-0.280292	0.035373
C72	C	-0.986017	0.219708	0.535373
C73	C	-1.482744	-0.403493	-0.075238
C74	C	-0.982744	0.096507	0.424762
C75	C	-1.483773	-0.364406	0.045982
C76	C	-0.983773	0.135594	0.545982
C77	C	-0.712877	0.111544	-0.014044
C78	C	-0.212877	0.611544	0.485956
C79	C	-0.852282	0.113869	-0.014337
C80	C	-0.352282	0.613869	0.485663
C81	C	-1.473825	0.260220	-0.032821
C82	C	-0.973825	0.760220	0.467179
C83	C	-1.476135	0.347805	-0.043879
C84	C	-0.976135	0.847805	0.456121
N85	N	-1.483268	0.116046	0.332048
N86	N	-0.983268	0.616046	0.832048
N87	N	-1.483278	0.116044	-0.361282
N88	N	-0.983278	0.616044	0.138718
C89	C	-1.654272	0.009764	0.345461
C90	C	-1.154272	0.509764	0.845461
C91	C	-1.739782	-0.043374	0.428834
C92	C	-1.239782	0.456626	0.928834
C93	C	-1.739795	-0.043374	0.582167
C94	C	-1.239795	0.456626	1.082167
C95	C	-1.654286	0.009768	0.652131
C96	C	-1.154286	0.509768	1.152131
C97	C	-1.568775	0.062906	0.568758
C98	C	-1.068775	0.562906	1.068758
C99	C	-1.568775	0.062902	0.415421
C100	C	-1.068775	0.562902	0.915421
C101	C	-1.397768	0.169182	0.555345
C102	C	-0.897768	0.669182	1.055345
C103	C	-1.397759	0.169188	0.402011
C104	C	-0.897759	0.669188	0.902011
C105	C	-1.312259	0.222325	0.625309
C106	C	-0.812259	0.722325	1.125309
C107	C	-1.226752	0.275468	0.541935
C108	C	-0.726752	0.775468	1.041935
C109	C	-1.226744	0.275467	0.388593
C110	C	-0.726744	0.775467	0.888593
C111	C	-1.312249	0.222326	0.318638
C112	C	-0.812249	0.722326	0.818638
H113	H	-1.190668	0.263583	-0.033305
H114	H	-0.690668	0.763583	0.466695
H115	H	-0.715392	0.255659	-0.032251
H116	H	-0.215392	0.755659	0.467749
H117	H	-1.486221	-0.272661	0.275339
H118	H	-0.986221	0.227339	0.775339
H119	H	-1.654281	0.009766	0.220609
H120	H	-1.154281	0.509766	0.720609
H121	H	-1.157107	0.318736	0.320718
H122	H	-0.657107	0.818736	0.820718
F123	F	-1.476056	-0.654853	0.230576
F124	F	-0.976056	-0.154853	0.730576
F125	F	-1.483970	-0.359689	-0.222079
F126	F	-0.983970	0.140311	0.277921
H127	H	-1.809401	-0.086643	0.371857
H128	H	-1.309401	0.413357	0.871857
H129	H	-1.312255	0.222324	0.193786
H130	H	-0.812255	0.722324	0.693786
F131	F	-0.909505	-0.177943	0.022576
F132	F	-0.409505	0.322057	0.522576
F133	F	-1.057028	0.410048	-0.051800
F134	F	-0.557028	0.910048	0.448200
F135	F	-1.480540	-0.484987	0.209157
F136	F	-0.980540	0.015013	0.709157
H137	H	-1.312267	0.222319	0.750162
H138	H	-0.812267	0.722319	1.250162
H139	H	-1.482866	-0.397918	0.158322
H140	H	-0.982866	0.102082	0.658322
H141	H	-1.480311	-0.495236	-0.304584
H142	H	-0.980311	0.004764	0.195416
H143	H	-1.654291	0.009757	0.776984
H144	H	-1.154291	0.509757	1.276984
H145	H	-0.806789	0.387869	-0.048981
H146	H	-0.306789	0.887869	0.451019
H147	H	-1.251138	-0.023544	0.003013
H148	H	-0.751138	0.476456	0.503013
H149	H	-1.490191	-0.123364	0.256512
H150	H	-0.990191	0.376636	0.756512
F151	F	-1.476063	-0.654822	-0.317675
F152	F	-0.976063	-0.154822	0.182325
H153	H	-1.157131	0.318729	0.598910
H154	H	-0.657131	0.818729	1.098910
H155	H	-1.490212	-0.123338	-0.225331
H156	H	-0.990212	0.376662	0.274669
H157	H	-1.809420	-0.086647	0.650051
H158	H	-1.309420	0.413353	1.150051
H159	H	-1.159744	-0.155769	0.019761
H160	H	-0.659744	0.344231	0.519761
F161	F	-0.743111	-0.032019	0.004124
F162	F	-0.243111	0.467981	0.504124
H163	H	-1.486236	-0.272624	-0.206512
H164	H	-0.986236	0.227376	0.293488
