data_functionalizedCrystal
_audit_creation_method	'MofGen! by Chris Wilmer'
_symmetry_space_group_name_H-M	'P1'
_symmetry_Int_Tables_number	1
_symmetry_cell_setting	triclinic
loop_
_symmetry_equiv_pos_as_xyz
  x,y,z
_cell_length_a	25.639242
_cell_length_b	12.759400
_cell_length_c	12.759401
_cell_angle_alpha	89.990059
_cell_angle_beta	90.007259
_cell_angle_gamma	89.986036
loop_
_atom_site_label
_atom_site_type_symbol
_atom_site_fract_x
_atom_site_fract_y
_atom_site_fract_z
Zn1	Zn	0.799250	0.418648	0.594094
Zn2	Zn	0.799211	0.594300	0.418413
Zn3	Zn	0.711837	0.418612	0.418421
Zn4	Zn	0.711798	0.594262	0.594042
O5	O	0.755524	0.506456	0.506242
O6	O	0.872410	0.441980	0.570808
O7	O	0.787620	0.570995	0.271393
O8	O	0.723466	0.271596	0.441749
O9	O	0.872381	0.571030	0.441736
O10	O	0.787688	0.271623	0.570816
O11	O	0.723428	0.441918	0.271399
O12	O	0.638667	0.441881	0.441699
O13	O	0.723398	0.570966	0.741070
O14	O	0.638638	0.570931	0.570727
O15	O	0.787650	0.441944	0.741108
O16	O	0.787582	0.741316	0.441685
O17	O	0.723360	0.741288	0.570719
C18	C	0.619681	0.506399	0.506208
C19	C	0.561567	0.506400	0.506219
C20	C	0.755476	0.779423	0.506219
C21	C	0.755504	0.896200	0.506243
C22	C	0.310397	0.439378	0.573573
C23	C	0.365002	0.439368	0.573567
O24	O	0.393258	0.382338	0.630826
N25	N	0.392294	0.506443	0.506254
C26	C	0.364978	0.573541	0.438951
O27	O	0.393206	0.630593	0.381697
C28	C	0.310375	0.573556	0.438963
C29	C	0.283086	0.506469	0.506272
C30	C	0.283108	0.372298	0.640877
C31	C	0.228507	0.372307	0.640882
C32	C	0.201196	0.439397	0.573581
C33	C	0.228485	0.506478	0.506277
C34	C	0.283061	0.640658	0.371666
C35	C	0.228454	0.640668	0.371684
C36	C	0.201165	0.573580	0.438994
C37	C	0.146573	0.573577	0.438981
N38	N	0.119281	0.506502	0.506293
C39	C	0.146593	0.439412	0.573594
C40	C	0.479649	0.573506	0.438932
C41	C	0.534251	0.573487	0.438914
C42	C	0.534271	0.439315	0.573531
C43	C	0.479667	0.439330	0.573544
C44	C	0.452357	0.506431	0.506245
C45	C	0.031928	0.439436	0.573597
C46	C	-0.022678	0.439448	0.573592
C47	C	-0.022692	0.573623	0.438979
C48	C	0.031908	0.573607	0.438979
C49	C	0.059217	0.506510	0.506297
O50	O	0.118282	0.630581	0.381754
O51	O	0.118358	0.382379	0.630848
C52	C	0.788923	0.950996	0.573502
C53	C	0.788940	1.060720	0.573525
C54	C	0.722115	1.060842	0.439021
C55	C	0.722097	0.951120	0.439005
C56	C	0.822330	0.896076	0.640741
C57	C	0.855753	0.950872	0.708004
C58	C	0.855769	1.060596	0.708026
C59	C	0.822363	1.115524	0.640786
C60	C	0.891897	0.506513	0.506277
C61	C	0.950011	0.506538	0.506292
C62	C	0.755524	0.506455	0.780276
C63	C	0.755524	0.506455	0.897052
C64	C	0.755567	1.232422	0.506283
C65	C	0.755539	1.115646	0.506283
C66	C	0.788977	0.439287	0.951936
C67	C	0.788975	0.439291	1.061660
C68	C	0.722065	0.573640	1.061607
C69	C	0.722065	0.573629	0.951885
C70	C	0.822436	0.372113	0.897103
C71	C	0.855891	0.304940	0.951987
C72	C	0.855889	0.304945	1.061711
C73	C	0.822431	0.372121	1.116551
C74	C	0.755521	0.506477	1.233275
C75	C	0.755522	0.506469	1.116498
H76	H	0.054156	0.384798	0.628413
O77	O	0.563732	0.366958	0.646133
H78	H	0.606285	0.378233	0.634820
H79	H	0.206221	0.695314	0.316883
O80	O	0.822444	0.372102	0.778759
H81	H	0.832995	0.451349	0.749820
H82	H	0.882949	0.906145	0.762755
H83	H	0.694825	0.628331	1.106267
O84	O	0.822312	0.777731	0.640713
H85	H	0.851153	0.748745	0.698770
O86	O	0.822426	0.372129	1.234898
H87	H	0.851310	0.314139	1.263852
H88	H	0.882980	1.105209	0.762803
H89	H	0.694918	1.105572	0.384277
H90	H	0.694817	0.628307	0.907197
O91	O	0.199076	0.299956	0.713487
H92	H	0.227249	0.253316	0.760284
H93	H	0.883129	0.250242	0.907329
O94	O	0.686057	0.892005	0.366457
H95	H	0.662836	0.948626	0.319691
O96	O	0.822389	1.233870	0.640784
H97	H	0.851245	1.262749	0.698840
O98	O	0.891971	0.232500	1.120913
H99	H	0.915238	0.185797	1.064347
H100	H	-0.044894	0.384812	0.628403
H101	H	0.305339	0.317664	0.695687
H102	H	-0.044939	0.628242	0.384181
O103	O	0.450234	0.366980	0.646147
H104	H	0.478405	0.320333	0.692942
H105	H	0.457416	0.628145	0.384120
O106	O	0.563683	0.645831	0.366304
H107	H	0.535513	0.692484	0.319515
H108	H	0.054128	0.628226	0.384161
O109	O	0.312487	0.713015	0.299065
H110	H	0.284314	0.759669	0.252285
