data_functionalizedCrystal
_audit_creation_method	'MofGen! by Chris Wilmer'
_symmetry_space_group_name_H-M	'P1'
_symmetry_Int_Tables_number	1
_symmetry_cell_setting	triclinic
loop_
_symmetry_equiv_pos_as_xyz
  x,y,z
_cell_length_a	16.625546
_cell_length_b	16.625547
_cell_length_c	12.759387
_cell_angle_alpha	89.970632
_cell_angle_beta	90.035560
_cell_angle_gamma	89.978346
loop_
_atom_site_label
_atom_site_type_symbol
_atom_site_fract_x
_atom_site_fract_y
_atom_site_fract_z
Zn1	Zn	-0.320977	-1.232699	0.594219
Zn2	Zn	0.179023	-0.732699	1.094219
Zn3	Zn	-0.455832	-1.232597	0.418524
Zn4	Zn	0.044168	-0.732597	0.918524
Zn5	Zn	-0.321015	-1.097855	0.418528
Zn6	Zn	0.178985	-0.597855	0.918528
Zn7	Zn	-0.455769	-1.097831	0.594136
Zn8	Zn	0.044231	-0.597831	1.094136
O9	O	-0.388398	-1.165246	0.506352
O10	O	0.111602	-0.665246	1.006352
O11	O	-0.338876	-1.345518	0.570945
O12	O	0.161124	-0.845518	1.070945
O13	O	-0.437990	-1.214690	0.271504
O14	O	0.062010	-0.714690	0.771504
O15	O	-0.208177	-1.115795	0.441870
O16	O	0.291823	-0.615795	0.941870
O17	O	-0.437953	-1.345443	0.441863
O18	O	0.062047	-0.845443	0.941863
O19	O	-0.208149	-1.214864	0.570949
O20	O	0.291851	-0.714864	1.070949
O21	O	-0.338941	-1.115696	0.271507
O22	O	0.161059	-0.615696	0.771507
O23	O	-0.338880	-0.985020	0.441790
O24	O	0.161120	-0.485020	0.941790
O25	O	-0.437846	-1.115754	0.741169
O26	O	0.062154	-0.615754	1.241169
O27	O	-0.437883	-0.985002	0.570809
O28	O	0.062117	-0.485002	1.070809
O29	O	-0.338815	-1.214841	0.741229
O30	O	0.161185	-0.714841	1.241229
O31	O	-0.568656	-1.214667	0.441784
O32	O	-0.068656	-0.714667	0.941784
O33	O	-0.568610	-1.115655	0.570805
O34	O	-0.068610	-0.615655	1.070805
C35	C	-0.388380	-0.955755	0.506292
C36	C	0.111620	-0.455755	1.006292
C37	C	-0.388391	-0.866134	0.506291
C38	C	0.111609	-0.366134	1.006291
C39	C	-0.597889	-1.165169	0.506308
C40	C	-0.097889	-0.665169	1.006308
C41	C	-0.687510	-1.165210	0.506324
C42	C	-0.187510	-0.665210	1.006324
C43	C	-0.388392	-0.793351	0.506300
C44	C	0.111608	-0.293351	1.006300
C45	C	-0.388395	-0.702043	0.506322
C46	C	0.111605	-0.202043	1.006322
C47	C	-0.388401	-0.629266	0.506345
C48	C	0.111599	-0.129266	1.006345
C49	C	-0.388406	-0.537952	0.506365
C50	C	0.111594	-0.037952	1.006365
C51	C	-1.015686	-1.165351	0.506434
C52	C	-0.515686	-0.665351	1.006434
C53	C	-0.924377	-1.165309	0.506406
C54	C	-0.424377	-0.665309	1.006406
C55	C	-0.851601	-1.165280	0.506378
C56	C	-0.351601	-0.665280	1.006378
C57	C	-0.760286	-1.165240	0.506352
C58	C	-0.260286	-0.665240	1.006352
C59	C	-0.178089	-1.165344	0.506419
C60	C	0.321911	-0.665344	1.006419
C61	C	-0.088468	-1.165386	0.506448
C62	C	0.411532	-0.665386	1.006448
C63	C	-0.388319	-1.165306	0.780386
C64	C	0.111681	-0.665306	1.280386
C65	C	-0.388285	-1.165332	0.897162
C66	C	0.111715	-0.665332	1.397162
C67	C	-0.388414	-0.375554	0.506400
C68	C	0.111586	0.124446	1.006400
C69	C	-0.388412	-0.465175	0.506388
C70	C	0.111588	0.034825	1.006388
C71	C	-0.388419	-1.165231	0.233384
C72	C	0.111581	-0.665231	0.733384
C73	C	-0.388225	-1.165362	0.116608
C74	C	0.111775	-0.665362	0.616608
C75	C	-0.285171	-1.268518	0.897245
C76	C	0.214829	-0.768518	1.397245
C77	C	-0.233601	-1.320123	0.952147
C78	C	0.266399	-0.820123	1.452147
C79	C	-0.233572	-1.320142	1.061869
C80	C	0.266428	-0.820142	1.561869
C81	C	-0.285116	-1.268550	1.116691
C82	C	0.214884	-0.768550	1.616691
C83	C	-0.336685	-1.216946	1.061789
C84	C	0.163315	-0.716946	1.561789
C85	C	-0.336711	-1.216934	0.952065
C86	C	0.163289	-0.716934	1.452065
C87	C	-0.439794	-1.113757	1.061706
C88	C	0.060206	-0.613757	1.561706
C89	C	-0.439829	-1.113740	0.951984
C90	C	0.060171	-0.613740	1.451984
C91	C	-0.491338	-1.062165	1.116528
C92	C	0.008662	-0.562165	1.616528
C93	C	-0.542913	-1.010564	1.061626
C94	C	-0.042913	-0.510564	1.561626
C95	C	-0.542941	-1.010547	0.951898
C96	C	-0.042941	-0.510547	1.451898
C97	C	-0.491399	-1.062136	0.897082
C98	C	0.008601	-0.562136	1.397082
H99	H	-0.191634	-1.362126	0.907499
H100	H	0.308366	-0.862126	1.407499
O101	O	-0.491426	-1.062274	0.790499
O102	O	0.008574	-0.562274	1.290499
C103	C	-0.512177	-1.139531	0.753875
C104	C	-0.012177	-0.639531	1.253875
H105	H	-0.498401	-1.185987	0.817139
H106	H	0.001599	-0.685987	1.317139
H107	H	-0.475825	-1.153881	0.680496
H108	H	0.024175	-0.653881	1.180496
H109	H	-0.579083	-1.141198	0.734374
H110	H	-0.079083	-0.641198	1.234374
H111	H	-0.285080	-1.268564	1.206032
H112	H	0.214920	-0.768564	1.706032
O113	O	-0.183452	-1.370345	1.115044
O114	O	0.316548	-0.870345	1.615044
C115	C	-0.137947	-1.415860	1.043136
C116	C	0.362053	-0.915860	1.543136
H117	H	-0.170989	-1.418624	0.964908
H118	H	0.329011	-0.918624	1.464908
H119	H	-0.129351	-1.479396	1.074872
H120	H	0.370649	-0.979396	1.574872
H121	H	-0.076707	-1.386365	1.031482
H122	H	0.423293	-0.886365	1.531482
O123	O	-0.491389	-1.062057	1.223111
O124	O	0.008611	-0.562057	1.723111
C125	C	-0.547955	-1.005473	1.259721
C126	C	-0.047955	-0.505473	1.759721
H127	H	-0.559248	-0.958346	1.196469
H128	H	-0.059248	-0.458346	1.696469
H129	H	-0.523603	-0.974905	1.333127
H130	H	-0.023603	-0.474905	1.833127
H131	H	-0.606752	-1.037412	1.279173
H132	H	-0.106752	-0.537412	1.779173
O133	O	-0.285077	-1.268582	0.790662
O134	O	0.214923	-0.768582	1.290662
C135	C	-0.228546	-1.325198	0.754048
C136	C	0.271454	-0.825198	1.254048
H137	H	-0.181420	-1.336526	0.817298
H138	H	0.318580	-0.836526	1.317298
H139	H	-0.197966	-1.300879	0.680640
H140	H	0.302034	-0.800879	1.180640
H141	H	-0.260537	-1.383970	0.734599
H142	H	0.239463	-0.883970	1.234599
O143	O	-0.593089	-0.960492	1.114763
O144	O	-0.093089	-0.460492	1.614763
C145	C	-0.673464	-0.978080	1.087960
C146	C	-0.173464	-0.478080	1.587960
H147	H	-0.675167	-1.009064	1.008307
H148	H	-0.175167	-0.509064	1.508307
H149	H	-0.709611	-0.919869	1.084172
H150	H	-0.209611	-0.419869	1.584172
H151	H	-0.700607	-1.019529	1.149725
H152	H	-0.200607	-0.519529	1.649725
O153	O	-0.593076	-0.960532	0.898449
O154	O	-0.093076	-0.460532	1.398449
C155	C	-0.645194	-1.006402	0.835005
C156	C	-0.145194	-0.506402	1.335005
H157	H	-0.616772	-1.067521	0.818607
H158	H	-0.116772	-0.567521	1.318607
H159	H	-0.656014	-0.973545	0.757829
H160	H	-0.156014	-0.473545	1.257829
H161	H	-0.704937	-1.015232	0.877275
H162	H	-0.204937	-0.515232	1.377275
