data_functionalizedCrystal
_audit_creation_method	'MofGen! by Chris Wilmer'
_symmetry_space_group_name_H-M	'P1'
_symmetry_Int_Tables_number	1
_symmetry_cell_setting	triclinic
loop_
_symmetry_equiv_pos_as_xyz
  x,y,z
_cell_length_a	17.038272
_cell_length_b	17.019372
_cell_length_c	16.776229
_cell_angle_alpha	93.869277
_cell_angle_beta	89.993292
_cell_angle_gamma	87.242864
loop_
_atom_site_label
_atom_site_type_symbol
_atom_site_fract_x
_atom_site_fract_y
_atom_site_fract_z
O1	O	0.099573	1.053348	0.005954
O2	O	0.112280	0.824539	-0.009740
O3	O	-0.007887	0.937584	-0.001980
O4	O	0.219741	0.940304	-0.001806
O5	O	-0.007895	0.937567	0.130596
O6	O	0.112273	0.824523	0.122835
O7	O	0.099566	1.053332	0.138530
Zn8	Zn	0.105918	0.938925	0.151732
Zn9	Zn	0.105928	0.938946	-0.022942
O10	O	0.219733	0.940287	0.130770
C11	C	0.111796	0.795110	0.054530
C12	C	0.110354	0.707445	0.048517
C13	C	0.102173	0.211627	0.010830
C14	C	0.103528	0.293999	0.016490
C15	C	0.104207	0.335167	0.091588
C16	C	0.103524	0.293960	0.161030
C17	C	0.102163	0.211591	0.155368
C18	C	0.108310	0.583868	0.112297
C19	C	0.109673	0.666243	0.117953
C20	C	0.109676	0.666276	-0.026587
C21	C	0.108320	0.583905	-0.032242
C22	C	0.107632	0.542706	0.037200
C23	C	0.105595	0.419363	0.097376
C24	C	0.106239	0.458511	0.031411
C25	C	-0.037017	0.935102	0.064138
C26	C	-0.123804	0.927722	0.063632
C27	C	-0.173978	0.995481	0.068280
C28	C	-0.255522	0.988541	0.067797
C29	C	-0.286891	0.913843	0.062670
C30	C	-0.236710	0.846079	0.058019
C31	C	-0.155167	0.853019	0.058497
C32	C	-0.532627	0.889325	0.060978
C33	C	-0.614176	0.882390	0.060503
C34	C	-0.632983	1.024854	0.070279
C35	C	-0.551437	1.031787	0.070761
C36	C	-0.501264	0.964023	0.066106
C37	C	-0.370242	0.906748	0.062178
C38	C	-0.417914	0.971119	0.066592
C39	C	0.248863	0.942769	0.064650
C40	C	0.335650	0.950149	0.065151
C41	C	0.100050	1.082761	0.074258
C42	C	0.101492	1.170426	0.080266
N43	N	0.105911	0.938915	0.270942
N44	N	0.105929	0.938961	-0.142152
C45	C	0.052723	0.988989	0.316097
C46	C	0.052722	0.988994	0.399549
C47	C	0.105914	0.938927	0.437846
C48	C	0.159105	0.888848	0.392685
C49	C	0.159101	0.888840	0.309234
C50	C	0.159120	0.888878	0.729235
C51	C	0.159122	0.888891	0.812692
C52	C	0.052741	0.989031	0.819550
C53	C	0.052737	0.989023	0.736099
C54	C	0.105925	0.938941	0.690945
C55	C	0.105924	0.938936	0.600456
C56	C	0.105919	0.938936	0.528334
H57	H	0.104078	0.327541	-0.040052
H58	H	0.106149	0.452892	0.158521
O59	O	0.210722	0.840268	0.685259
C60	C	0.199334	0.851007	0.603390
H61	H	0.137156	0.876305	0.593725
H62	H	0.243555	0.893542	0.582615
C63	C	0.287517	0.740036	0.566953
C64	C	0.211147	0.771101	0.555082
H65	H	0.294807	0.690747	0.537153
H66	H	0.295192	0.732801	0.622109
H67	H	0.324359	0.775489	0.549640
H68	H	0.174307	0.735652	0.572403
H69	H	0.203466	0.778327	0.499927
O70	O	-0.387353	1.043636	0.071462
C71	C	-0.340756	1.051928	0.003359
H72	H	-0.320379	0.991126	-0.023708
H73	H	-0.376814	1.084420	-0.042489
C74	C	-0.293697	1.173908	0.060710
C75	C	-0.268665	1.099229	0.027469
H76	H	-0.249230	1.203088	0.075580
H77	H	-0.325093	1.168323	0.106591
H78	H	-0.323747	1.200974	0.022498
H79	H	-0.238625	1.072161	0.065685
H80	H	-0.237263	1.104810	-0.018405
O81	O	-0.520927	1.104331	0.075875
C82	C	-0.474314	1.112588	0.145094
H83	H	-0.493561	1.070073	0.190170
H84	H	-0.409986	1.098705	0.128620
C85	C	-0.460653	1.250010	0.126709
C86	C	-0.484297	1.197796	0.182074
H87	H	-0.466808	1.302571	0.149518
H88	H	-0.492055	1.244447	0.080072
H89	H	-0.407048	1.238431	0.112984
H90	H	-0.537903	1.209369	0.195790
H91	H	-0.452905	1.203363	0.228714
H92	H	0.101626	0.178114	-0.050323
H93	H	-0.262257	0.785257	0.053840
O94	O	0.210846	0.840176	0.265490
C95	C	0.257784	0.795974	0.317183
H96	H	0.258654	0.828377	0.378885
H97	H	0.232431	0.735680	0.321942
C98	C	0.341063	0.745568	0.208091
C99	C	0.342136	0.785370	0.283872
H100	H	0.393094	0.739023	0.187542
H101	H	0.309439	0.775345	0.173263
H102	H	0.319932	0.695327	0.212067
H103	H	0.363258	0.835613	0.279894
H104	H	0.373766	0.755601	0.318698
O105	O	0.104080	0.334043	0.233936
C106	C	0.037182	0.386072	0.241852
H107	H	0.014824	0.399894	0.180057
H108	H	-0.010732	0.357399	0.275551
C109	C	0.086497	0.445992	0.364349
C110	C	0.059039	0.462973	0.288451
H111	H	0.099977	0.493427	0.393097
H112	H	0.131566	0.410937	0.359018
H113	H	0.046563	0.422096	0.392422
H114	H	0.098976	0.486860	0.260377
H115	H	0.013977	0.498034	0.293779
O116	O	0.210820	0.840174	0.849766
C117	C	0.257776	0.795980	0.792019
H118	H	0.225723	0.792934	0.732328
H119	H	0.315844	0.825475	0.785151
C120	C	0.313295	0.715716	0.892163
C121	C	0.273924	0.711970	0.818851
H122	H	0.323259	0.663896	0.908715
H123	H	0.281662	0.745492	0.931069
H124	H	0.361680	0.740299	0.886430
H125	H	0.225535	0.687397	0.824587
H126	H	0.305549	0.682188	0.779947
H127	H	0.107766	0.550392	-0.093394
H128	H	0.110231	0.699760	0.179110
O129	O	-0.400621	0.834143	0.057306
C130	C	-0.375004	0.792503	0.123125
H131	H	-0.318476	0.817788	0.147755
H132	H	-0.422210	0.798470	0.171610
C133	C	-0.429046	0.673746	0.066002
C134	C	-0.359612	0.704797	0.096249
H135	H	-0.419555	0.619644	0.049426
H136	H	-0.446307	0.701799	0.021660
H137	H	-0.468377	0.678725	0.106412
H138	H	-0.320286	0.699826	0.055837
H139	H	-0.342344	0.676740	0.140584
O140	O	0.101539	0.171685	0.222899
C141	C	0.102411	0.225683	0.290397
H142	H	0.128123	0.282796	0.273134
H143	H	0.039865	0.238512	0.313504
C144	C	0.121541	0.120039	0.377435
C145	C	0.153127	0.190185	0.356235
H146	H	0.152821	0.098142	0.418049
H147	H	0.120951	0.083659	0.331961
H148	H	0.069420	0.130740	0.396686
H149	H	0.205243	0.179482	0.336975
H150	H	0.153727	0.226562	0.401707
H151	H	0.107738	0.550335	0.168842
O152	O	0.110233	0.706217	-0.094095
C153	C	0.042215	0.690511	-0.139124
H154	H	0.018664	0.632168	-0.122578
H155	H	-0.004407	0.739947	-0.125706
C156	C	0.091638	0.757045	-0.249108
C157	C	0.062715	0.685383	-0.228791
H158	H	0.104280	0.753886	-0.304419
H159	H	0.137461	0.767630	-0.218771
H160	H	0.052780	0.798234	-0.237921
H161	H	0.101575	0.644198	-0.239969
H162	H	0.016898	0.674792	-0.259133
H163	H	0.202413	0.848079	0.423871
O164	O	-0.681833	1.090595	0.074753
C165	C	-0.760531	1.068457	0.073252
H166	H	-0.763584	1.006295	0.043890
H167	H	-0.784127	1.069858	0.136951
C168	C	-0.806752	1.202698	0.061290
C169	C	-0.810502	1.126353	0.025222
H170	H	-0.837578	1.238413	0.031666
H171	H	-0.753731	1.217614	0.062305
H172	H	-0.826413	1.203855	0.114371
H173	H	-0.790831	1.125195	-0.027855
H174	H	-0.863520	1.111438	0.024197
H175	H	-0.114315	0.797842	0.054711
H176	H	0.105683	0.424989	-0.029733
H177	H	0.009411	1.029762	0.284922
H178	H	0.009430	1.029808	0.856323
H179	H	-0.148444	1.056308	0.072460
H180	H	-0.296371	1.043718	0.071584
H181	H	-0.639713	0.821559	0.056341
O182	O	0.000920	1.037480	0.698864
C183	C	-0.047289	0.991889	0.647595
H184	H	-0.016011	0.932321	0.630955
H185	H	-0.104977	0.982525	0.679240
C186	C	-0.102691	1.108369	0.591761
C187	C	-0.064272	1.035208	0.571317
H188	H	-0.113170	1.135090	0.544710
H189	H	-0.070215	1.139085	0.626303
H190	H	-0.150760	1.100555	0.618133
H191	H	-0.016200	1.043023	0.544955
H192	H	-0.096741	1.004494	0.536768
H193	H	0.009411	1.029767	0.436314
H194	H	-0.491785	0.834146	0.057187
