data_functionalizedCrystal
_audit_creation_method	'MofGen! by Chris Wilmer'
_symmetry_space_group_name_H-M	'P1'
_symmetry_Int_Tables_number	1
_symmetry_cell_setting	triclinic
loop_
_symmetry_equiv_pos_as_xyz
  x,y,z
_cell_length_a	14.971506
_cell_length_b	16.109304
_cell_length_c	14.048226
_cell_angle_alpha	89.996377
_cell_angle_beta	89.993237
_cell_angle_gamma	83.542513
loop_
_atom_site_label
_atom_site_type_symbol
_atom_site_fract_x
_atom_site_fract_y
_atom_site_fract_z
O1	O	1.186781	0.108428	-0.079161
O2	O	1.686781	0.608428	0.420839
O3	O	0.926364	0.121385	-0.079161
O4	O	1.426364	0.621385	0.420839
O5	O	1.063725	-0.006115	-0.079162
O6	O	1.563725	0.493885	0.420838
O7	O	1.049420	0.235928	-0.079161
O8	O	1.549420	0.735928	0.420839
O9	O	1.063709	-0.006123	0.079160
O10	O	1.563709	0.493877	0.579160
O11	O	0.926348	0.121377	0.079160
O12	O	1.426348	0.621377	0.579160
O13	O	1.186764	0.108420	0.079160
O14	O	1.686764	0.608420	0.579160
Zn15	Zn	1.056553	0.114898	0.104297
Zn16	Zn	1.556553	0.614898	0.604297
Zn17	Zn	1.056575	0.114907	-0.104298
Zn18	Zn	1.556575	0.614907	0.395702
O19	O	1.049403	0.235920	0.079161
O20	O	1.549403	0.735920	0.579161
C21	C	0.893033	0.120799	-0.000000
C22	C	1.393033	0.620799	0.500000
C23	C	0.793739	0.119053	-0.000000
C24	C	1.293739	0.619053	0.500000
C25	C	0.355359	0.187296	-0.000010
C26	C	0.855359	0.687296	0.499990
C27	C	0.448657	0.188929	-0.000014
C28	C	0.948657	0.688929	0.499986
C29	C	0.505984	0.114018	-0.000010
C30	C	1.005984	0.614018	0.499990
C31	C	0.470009	0.037468	-0.000012
C32	C	0.970009	0.537468	0.499988
C33	C	0.376713	0.035836	-0.000014
C34	C	0.876713	0.535836	0.499986
C35	C	0.664467	0.040877	-0.000004
C36	C	1.164467	0.540877	0.499996
C37	C	0.757770	0.042509	0.000001
C38	C	1.257770	0.542509	0.500001
C39	C	0.736411	0.193970	-0.000003
C40	C	1.236411	0.693970	0.499997
C41	C	0.643115	0.192338	-0.000006
C42	C	1.143115	0.692338	0.499994
C43	C	0.607146	0.115788	-0.000006
C44	C	1.107146	0.615788	0.499994
C45	C	1.063137	-0.037095	-0.000003
C46	C	1.563137	0.462905	0.499997
C47	C	1.061398	-0.129392	-0.000010
C48	C	1.561398	0.370608	0.499990
C49	C	1.057391	-0.341731	-0.086307
C50	C	1.557391	0.158269	0.413693
C51	C	1.055749	-0.428453	-0.086306
C52	C	1.555749	0.071547	0.413694
C53	C	1.055735	-0.428458	0.086305
C54	C	1.555735	0.071542	0.586305
C55	C	1.057371	-0.341737	0.086303
C56	C	1.557371	0.158263	0.586303
C57	C	1.058203	-0.298376	-0.000006
C58	C	1.558203	0.201624	0.499994
C59	C	1.054926	-0.471819	-0.000003
C60	C	1.554926	0.028181	0.499997
C61	C	1.053146	-0.565848	-0.000002
C62	C	1.553146	-0.065848	0.499998
C63	C	1.059981	-0.204341	-0.000008
C64	C	1.559981	0.295659	0.499992
C65	C	1.220096	0.109006	-0.000003
C66	C	1.720096	0.609006	0.499997
C67	C	1.319390	0.110752	-0.000009
C68	C	1.819390	0.610752	0.499991
C69	C	1.049992	0.266900	0.000000
C70	C	1.549992	0.766900	0.500000
C71	C	1.051730	0.359197	0.000000
C72	C	1.551730	0.859197	0.500000
N73	N	1.056545	0.114890	0.246658
N74	N	1.556545	0.614890	0.746658
N75	N	1.056591	0.114908	-0.246659
N76	N	1.556591	0.614908	0.253341
C77	C	1.117387	0.058457	0.296476
C78	C	1.617387	0.558457	0.796476
C79	C	1.117394	0.058456	0.396133
C80	C	1.617394	0.558456	0.896133
C81	C	1.056561	0.114894	0.445971
C82	C	1.556561	0.614894	0.945971
C83	C	0.995712	0.171330	0.396147
C84	C	1.495712	0.671330	0.896147
C85	C	0.995702	0.171326	0.296491
C86	C	1.495702	0.671326	0.796491
C87	C	0.995738	0.171336	0.603861
C88	C	1.495738	0.671336	1.103861
C89	C	0.995748	0.171342	0.703524
C90	C	1.495748	0.671342	1.203524
C91	C	1.117429	0.058466	0.703503
C92	C	1.617429	0.558466	1.203503
C93	C	1.117419	0.058462	0.603848
C94	C	1.617419	0.558462	1.103848
C95	C	1.056571	0.114900	0.554030
C96	C	1.556571	0.614900	1.054030
H97	H	0.347429	-0.026494	-0.000015
H98	H	0.847429	0.473506	0.499985
C99	C	0.928787	0.233405	0.450972
C100	C	1.428787	0.733405	0.950972
N101	N	0.878377	0.280161	0.492266
N102	N	1.378377	0.780161	0.992266
H103	H	1.058066	-0.306428	-0.156585
H104	H	1.558066	0.193572	0.343415
H105	H	1.166973	0.012513	0.744071
H106	H	1.666973	0.512513	1.244071
H107	H	1.058027	-0.306435	0.156584
H108	H	1.558027	0.193565	0.656584
C109	C	0.533072	-0.044935	-0.000001
C110	C	1.033072	0.455065	0.499999
N111	N	0.580571	-0.107003	0.000013
N112	N	1.080571	0.392997	0.500013
C113	C	1.184304	-0.003645	0.450928
C114	C	1.684304	0.496355	0.950928
N115	N	1.234695	-0.050431	0.492199
N116	N	1.734695	0.449569	0.992199
H117	H	0.596441	0.253337	-0.000003
H118	H	1.096441	0.753337	0.499997
C119	C	0.488218	0.273134	-0.000002
C120	C	0.988218	0.773134	0.499998
N121	N	0.518014	0.336560	0.000011
N122	N	1.018014	0.836560	0.500011
C123	C	1.054890	-0.476144	-0.181244
C124	C	1.554890	0.023856	0.318756
N125	N	1.054256	-0.512065	-0.252756
N126	N	1.554256	-0.012065	0.247244
C127	C	1.054823	-0.476164	0.181239
C128	C	1.554823	0.023836	0.681239
N129	N	1.054138	-0.512095	0.252745
N130	N	1.554138	-0.012095	0.752745
C131	C	1.184309	-0.003631	0.241663
C132	C	1.684309	0.496369	0.741663
N133	N	1.234714	-0.050400	0.200381
N134	N	1.734714	0.449600	0.700381
C135	C	0.928824	0.233421	0.758344
C136	C	1.428824	0.733421	1.258344
N137	N	0.878414	0.280180	0.799634
N138	N	1.378414	0.780180	1.299634
C139	C	0.928778	0.233414	0.241692
C140	C	1.428778	0.733414	0.741692
N141	N	0.878369	0.280182	0.200418
N142	N	1.378369	0.780182	0.700418
H143	H	0.308688	0.248297	-0.000006
H144	H	0.808688	0.748297	0.499994
H145	H	1.166958	0.012510	0.563270
H146	H	1.666958	0.512510	1.063270
H147	H	0.765701	0.256300	-0.000003
H148	H	1.265701	0.756300	0.499997
H149	H	0.946186	0.217291	0.563302
H150	H	1.446186	0.717291	1.063302
H151	H	0.635186	-0.021458	-0.000008
H152	H	1.135186	0.478542	0.499992
C153	C	0.820828	-0.039897	-0.000008
C154	C	1.320828	0.460103	0.499992
N155	N	0.868324	-0.101966	-0.000018
N156	N	1.368324	0.398034	0.499982
