data_functionalizedCrystal
_audit_creation_method	'MofGen! by Chris Wilmer'
_symmetry_space_group_name_H-M	'P1'
_symmetry_Int_Tables_number	1
_symmetry_cell_setting	triclinic
loop_
_symmetry_equiv_pos_as_xyz
  x,y,z
_cell_length_a	6.817900
_cell_length_b	15.301126
_cell_length_c	16.255661
_cell_angle_alpha	95.151573
_cell_angle_beta	103.488922
_cell_angle_gamma	104.177575
loop_
_atom_site_label
_atom_site_type_symbol
_atom_site_fract_x
_atom_site_fract_y
_atom_site_fract_z
V1	V	-4.030171	-0.125488	-0.264130
O2	O	-4.014045	0.005281	-0.258837
O3	O	-3.985102	-0.248101	-0.262578
O4	O	-3.981689	-0.123887	-0.379210
O5	O	-4.017482	-0.119793	-0.141398
V6	V	-4.513378	-0.109808	-0.249419
O7	O	-4.292123	-0.159884	-0.296399
O8	O	-4.701623	-0.075412	-0.217150
O9	O	-4.335240	0.012805	-0.250971
O10	O	-4.646901	-0.240576	-0.254712
O11	O	-4.643463	-0.115502	-0.372151
O12	O	-4.338653	-0.111409	-0.134339
C13	C	-3.830916	-0.277981	-0.258477
C14	C	-3.875354	-0.378220	-0.257975
C15	C	-4.078465	-0.429917	-0.261970
C16	C	-4.120209	-0.524103	-0.261504
C17	C	-3.958837	-0.566590	-0.257036
C18	C	-3.755710	-0.514886	-0.253043
C19	C	-3.713972	-0.420703	-0.253516
C20	C	-3.842718	-0.711194	-0.252056
C21	C	-3.884458	-0.805384	-0.251582
C22	C	-4.248956	-0.814595	-0.260044
C23	C	-4.207217	-0.720412	-0.260517
C24	C	-4.004092	-0.668714	-0.256522
C25	C	-3.826561	-0.119532	-0.407251
C26	C	-3.868227	-0.119034	-0.501331
C27	C	-3.778619	-0.113085	-0.724138
C28	C	-3.937152	-0.189861	-0.793772
C29	C	-3.944586	-0.118100	-0.673578
C30	C	-3.860320	-0.040446	-0.771579
C31	C	-4.018329	-0.117194	-0.839960
C32	C	-4.102602	-0.194945	-0.741983
C33	C	-4.025706	-0.045461	-0.719774
C34	C	-4.184375	-0.122259	-0.789389
C35	C	-3.902099	-0.118623	-0.577730
C36	C	-4.060833	-0.116679	-0.935807
C37	C	-4.152768	0.042680	-0.255070
C38	C	-4.087569	0.142919	-0.255577
C39	C	-4.157124	-0.115766	-0.106293
C40	C	-4.094696	-0.116260	-0.012212
H41	H	-3.753064	-0.839978	-0.247969
F42	F	-4.235953	-0.280382	-0.724560
H43	H	-4.209875	-0.395331	-0.265600
H44	H	-3.677319	-0.669106	-0.248810
H45	H	-4.356355	-0.126158	-0.817744
F46	F	-3.888807	-0.269657	-0.835877
F47	F	-4.073951	0.034339	-0.677638
H48	H	-3.758285	0.024831	-0.785054
F49	F	-3.583968	-0.560107	-0.248293
F50	F	-3.553991	-0.108144	-0.686898
F51	F	-4.336385	-0.579119	-0.265755
F52	F	-4.378960	-0.675193	-0.265255
F53	F	-4.465141	-0.869617	-0.264301
H54	H	-3.548582	-0.378612	-0.250266
