data_functionalizedCrystal
_audit_creation_method	'MofGen! by Chris Wilmer'
_symmetry_space_group_name_H-M	'P1'
_symmetry_Int_Tables_number	1
_symmetry_cell_setting	triclinic
loop_
_symmetry_equiv_pos_as_xyz
  x,y,z
_cell_length_a	13.635800
_cell_length_b	17.296766
_cell_length_c	9.108908
_cell_angle_alpha	76.356068
_cell_angle_beta	68.235111
_cell_angle_gamma	102.621013
loop_
_atom_site_label
_atom_site_type_symbol
_atom_site_fract_x
_atom_site_fract_y
_atom_site_fract_z
V1	V	-2.079250	-0.147603	0.529638
O2	O	-2.069092	-0.029295	0.502522
O3	O	-2.057117	-0.257675	0.542398
O4	O	-2.082610	-0.161299	0.753158
O5	O	-2.043423	-0.126338	0.290304
V6	V	-2.317225	-0.131565	0.499022
O7	O	-2.218185	-0.182782	0.596798
O8	O	-2.403388	-0.096386	0.431862
O9	O	-2.227754	-0.021493	0.486262
O10	O	-2.386081	-0.249873	0.526138
O11	O	-2.411751	-0.152830	0.738356
O12	O	-2.202262	-0.117869	0.275502
C13	C	-1.979229	-0.284009	0.538270
C14	C	-2.001960	-0.374098	0.550193
V15	V	-1.579250	-0.147603	0.529638
O16	O	-1.569092	-0.029295	0.502522
O17	O	-1.557117	-0.257675	0.542398
O18	O	-1.582610	-0.161299	0.753158
O19	O	-1.543423	-0.126338	0.290304
V20	V	-1.817225	-0.131565	0.499022
O21	O	-1.718185	-0.182782	0.596798
O22	O	-1.903388	-0.096386	0.431862
O23	O	-1.727754	-0.021493	0.486262
O24	O	-1.886081	-0.249873	0.526138
O25	O	-1.911751	-0.152830	0.738356
O26	O	-1.702262	-0.117869	0.275502
C27	C	-1.973661	-0.394450	0.403387
C28	C	-1.995030	-0.479099	0.414596
C29	C	-2.044690	-0.543394	0.572611
C30	C	-2.072993	-0.523037	0.719428
C31	C	-2.051632	-0.438390	0.708219
C32	C	-2.111145	-0.800072	0.614082
C33	C	-2.132502	-0.884724	0.625280
C34	C	-2.054538	-0.840779	0.320446
C35	C	-2.033174	-0.756132	0.309250
C36	C	-2.061484	-0.735783	0.456068
C37	C	-2.066530	-0.629918	0.584071
C38	C	-2.039651	-0.649260	0.444606
C39	C	-2.011746	-0.161071	0.807112
C40	C	-2.055149	-0.172997	0.989948
C41	C	-2.137313	0.004837	0.490386
C42	C	-2.104203	0.094924	0.478474
C43	C	-2.104795	-0.118099	0.221539
C44	C	-2.051012	-0.106169	0.038701
C45	C	-1.479229	-0.284009	0.538270
C46	C	-1.501960	-0.374098	0.550193
C47	C	-1.511746	-0.161071	0.807112
C48	C	-1.555149	-0.172997	0.989948
C49	C	-1.637313	0.004837	0.490386
C50	C	-1.604203	0.094924	0.478474
C51	C	-1.604795	-0.118099	0.221539
C52	C	-1.551012	-0.106169	0.038701
C53	C	-1.604810	-0.421107	0.564624
C54	C	-1.626189	-0.505759	0.575853
C55	C	-1.544713	-0.543398	0.572638
C56	C	-1.441855	-0.496383	0.558210
C57	C	-1.420481	-0.411734	0.546994
C58	C	-1.667723	-0.183220	1.084794
C59	C	-1.708515	-0.194416	1.256584
C60	C	-1.636733	-0.195393	1.333528
C61	C	-1.524148	-0.185166	1.238668
C62	C	-1.483356	-0.173965	1.066878
C63	C	-1.673847	0.141933	0.464047
C64	C	-1.642741	0.226584	0.452827
C65	C	-1.541995	0.264222	0.456046
C66	C	-1.472345	0.217208	0.470469
C67	C	-1.503447	0.132560	0.481677
C68	C	-1.440568	-0.105185	-0.038201
C69	C	-1.390015	-0.093965	-0.210000
C70	C	-1.449909	-0.083736	-0.304891
C71	C	-1.560362	-0.084717	-0.227979
C72	C	-1.610911	-0.095931	-0.056185
H73	H	-1.933215	-0.342104	0.274713
C74	C	-1.732406	-0.097027	0.028396
H75	H	-1.760832	-0.089337	-0.052729
H76	H	-1.733659	-0.052650	0.073012
H77	H	-1.777690	-0.149782	0.117067
C78	C	-1.739329	-0.557464	0.591718
H79	H	-1.740407	-0.613273	0.597962
H80	H	-1.748756	-0.531464	0.495998
H81	H	-1.798628	-0.559563	0.691013
H82	H	-2.031494	-0.857357	0.200916
C83	C	-1.352235	-0.537787	0.554658
H84	H	-1.287914	-0.497673	0.544466
H85	H	-1.331820	-0.556559	0.461162
H86	H	-1.381678	-0.584670	0.656176
C87	C	-2.104795	-0.262618	1.122520
H88	H	-2.128441	-0.259147	1.232139
H89	H	-2.049320	-0.289040	1.102872
H90	H	-2.167271	-0.294952	1.114352
H91	H	-1.609117	-0.076384	-0.305266
C92	C	-2.001371	-0.016551	0.906146
H93	H	-2.004588	0.023776	0.961244
H94	H	-2.043417	-0.012026	0.843445
H95	H	-1.925467	-0.006110	0.831974
H96	H	-1.971987	-0.495664	0.295051
C97	C	-1.784666	0.100543	0.460498
H98	H	-1.793233	0.043395	0.469251
H99	H	-1.783406	0.130403	0.357531
H100	H	-1.845734	0.102291	0.552546
H101	H	-1.446733	0.094290	0.493438
H102	H	-1.336726	-0.373464	0.535235
C103	C	-1.978537	-0.685413	0.135432
H104	H	-1.964746	-0.709658	0.049603
H105	H	-1.909624	-0.648482	0.119100
H106	H	-2.027542	-0.654477	0.130351
C107	C	-1.374665	-0.116428	0.066146
H108	H	-1.301645	-0.114224	-0.004285
H109	H	-1.412855	-0.169556	0.155579
H110	H	-1.368812	-0.072422	0.111485
C111	C	-1.719371	0.278282	0.436981
H112	H	-1.783832	0.243733	0.436700
H113	H	-1.679636	0.325552	0.334740
H114	H	-1.741938	0.297440	0.529757
C115	C	-1.694444	-0.379720	0.568160
H116	H	-1.758758	-0.419852	0.578378
H117	H	-1.665014	-0.332842	0.466652
H118	H	-1.714879	-0.360949	0.661666
H119	H	-2.172938	-0.937074	0.753961
C120	C	-1.985039	-0.578544	0.270798
H121	H	-1.971249	-0.602784	0.184961
H122	H	-1.916128	-0.541601	0.254447
H123	H	-2.034064	-0.547622	0.265749
H124	H	-1.300079	-0.093168	-0.272597
H125	H	-1.562131	-0.612325	0.581772
C126	C	-1.445204	-0.186253	1.323326
H127	H	-1.485636	-0.194399	1.439225
H128	H	-1.384824	-0.133959	1.269462
H129	H	-1.416467	-0.231092	1.313551
H130	H	-2.134185	-0.783515	0.733630
H131	H	-2.113436	-0.575394	0.848088
H132	H	-1.408741	-0.074616	-0.444770
C133	C	-1.361529	0.258614	0.474011
H134	H	-1.324492	0.218501	0.484196
H135	H	-1.377022	0.277386	0.567508
H136	H	-1.314697	0.305497	0.372493
H137	H	-1.800190	-0.202745	1.333798
C138	C	-2.082745	-0.415998	0.869698
H139	H	-2.062918	-0.356378	0.840394
H140	H	-2.043298	-0.435893	0.928511
H141	H	-2.161228	-0.441899	0.939807
C142	C	-2.121144	-0.700641	0.757882
H143	H	-2.134944	-0.676401	0.843719
H144	H	-2.072136	-0.731572	0.762934
H145	H	-2.190066	-0.737576	0.774231
H146	H	-1.726188	-0.182429	1.022172
C147	C	-1.507799	0.357331	0.443732
H148	H	-1.563718	0.379929	0.434696
H149	H	-1.438140	0.388813	0.346958
H150	H	-1.500469	0.360688	0.541975
H151	H	-1.669963	-0.204515	1.473411
H152	H	-1.391689	-0.165643	0.989667
