data_functionalizedCrystal
_audit_creation_method	'MofGen! by Chris Wilmer'
_symmetry_space_group_name_H-M	'P1'
_symmetry_Int_Tables_number	1
_symmetry_cell_setting	triclinic
loop_
_symmetry_equiv_pos_as_xyz
  x,y,z
_cell_length_a	6.817900
_cell_length_b	15.301126
_cell_length_c	17.110486
_cell_angle_alpha	96.160805
_cell_angle_beta	99.060439
_cell_angle_gamma	104.177575
loop_
_atom_site_label
_atom_site_type_symbol
_atom_site_fract_x
_atom_site_fract_y
_atom_site_fract_z
V1	V	-3.980328	-0.124490	-0.246960
O2	O	-3.965201	0.006259	-0.242012
O3	O	-3.935553	-0.247108	-0.245509
O4	O	-3.910130	-0.122454	-0.354559
O5	O	-3.990800	-0.119259	-0.132206
V6	V	-4.466311	-0.108865	-0.233206
O7	O	-4.236191	-0.158764	-0.277131
O8	O	-4.660646	-0.074591	-0.203034
O9	O	-4.287880	0.013753	-0.234657
O10	O	-4.598835	-0.239614	-0.238154
O11	O	-4.573237	-0.114096	-0.347959
O12	O	-4.313303	-0.110901	-0.125606
C13	C	-3.782141	-0.277004	-0.241675
C14	C	-3.826673	-0.377245	-0.241205
C15	C	-4.029030	-0.428927	-0.244941
C16	C	-4.070862	-0.523116	-0.244505
C17	C	-3.910333	-0.565619	-0.240327
C18	C	-3.707960	-0.513930	-0.236594
C19	C	-3.666132	-0.419745	-0.237036
C20	C	-3.795154	-0.710242	-0.235671
C21	C	-3.836983	-0.804433	-0.235228
C22	C	-4.199884	-0.813613	-0.243140
C23	C	-4.158057	-0.719427	-0.243582
C24	C	-3.955685	-0.667745	-0.239847
C25	C	-3.749711	-0.117993	-0.380778
C26	C	-3.773623	-0.117140	-0.468743
C27	C	-3.966277	-0.121239	-0.514108
C28	C	-3.988734	-0.120437	-0.596760
C29	C	-3.818537	-0.115542	-0.634045
C30	C	-3.625866	-0.111439	-0.588673
C31	C	-3.603409	-0.112235	-0.506022
C32	C	-3.877263	-0.112907	-0.883395
C33	C	-3.899737	-0.112114	-0.966053
C34	C	-4.262604	-0.121110	-0.974134
C35	C	-4.240132	-0.121911	-0.891481
C36	C	-4.047462	-0.117804	-0.846116
C37	C	-3.841488	-0.114724	-0.718529
C38	C	-4.024510	-0.118615	-0.761633
C39	C	-4.104635	0.043644	-0.238489
C40	C	-4.039340	0.143885	-0.238963
C41	C	-4.137065	-0.115365	-0.099384
C42	C	-4.092391	-0.116214	-0.011418
H43	H	-3.501356	-0.377667	-0.233997
O44	O	-3.442288	-0.106164	-0.628882
H45	H	-3.490271	-0.106310	-0.693978
H46	H	-4.159755	-0.394327	-0.248335
O47	O	-4.208068	-0.123894	-0.721416
H48	H	-4.269331	-0.064160	-0.730643
O49	O	-4.423713	-0.127193	-0.851273
H50	H	-4.375734	-0.127068	-0.786180
O51	O	-4.149844	-0.126511	-0.473893
H52	H	-4.287575	-0.129214	-0.519326
O53	O	-4.289114	-0.578860	-0.248522
H54	H	-4.393707	-0.533479	-0.251487
H55	H	-3.702918	-0.110742	-0.748896
O56	O	-4.418155	-0.869354	-0.247166
H57	H	-4.522748	-0.823973	-0.250132
O58	O	-4.331197	-0.673582	-0.248110
H59	H	-4.478951	-0.725344	-0.250649
H60	H	-3.446520	-0.108875	-0.469083
O61	O	-3.663862	-0.850289	-0.230740
H62	H	-3.549378	-0.820444	-0.174735
O63	O	-3.534820	-0.559775	-0.232097
H64	H	-3.420357	-0.529923	-0.176088
O65	O	-3.576886	-0.654496	-0.231650
H66	H	-3.529747	-0.601789	-0.177465
O67	O	-4.196514	-0.124839	-0.645691
H68	H	-4.311091	-0.128381	-0.605879
O69	O	-4.470399	-0.125524	-1.023059
H70	H	-4.457426	-0.124139	-1.086794
H71	H	-3.761130	-0.108125	-0.996407
H72	H	-3.720399	-0.109595	-0.846473
