data_functionalizedCrystal
_audit_creation_method	'MofGen! by Chris Wilmer'
_symmetry_space_group_name_H-M	'P1'
_symmetry_Int_Tables_number	1
_symmetry_cell_setting	triclinic
loop_
_symmetry_equiv_pos_as_xyz
  x,y,z
_cell_length_a	16.625548
_cell_length_b	19.121063
_cell_length_c	16.625539
_cell_angle_alpha	87.591339
_cell_angle_beta	90.020568
_cell_angle_gamma	92.470058
loop_
_atom_site_label
_atom_site_type_symbol
_atom_site_fract_x
_atom_site_fract_y
_atom_site_fract_z
Zn1	Zn	1.218959	-0.279593	0.469577
Zn2	Zn	1.468959	-0.029593	0.719577
Zn3	Zn	1.718959	0.220407	0.969577
Zn4	Zn	1.968959	0.470407	1.219577
Zn5	Zn	1.213098	-0.397050	0.340486
Zn6	Zn	1.463098	-0.147050	0.590486
Zn7	Zn	1.713098	0.102950	0.840486
Zn8	Zn	1.963098	0.352950	1.090486
Zn9	Zn	1.084119	-0.279620	0.334759
Zn10	Zn	1.334119	-0.029620	0.584759
Zn11	Zn	1.584119	0.220380	0.834759
Zn12	Zn	1.834119	0.470380	1.084759
Zn13	Zn	1.078329	-0.397010	0.475274
Zn14	Zn	1.328329	-0.147010	0.725274
Zn15	Zn	1.578329	0.102990	0.975274
Zn16	Zn	1.828329	0.352990	1.225274
O17	O	1.148626	-0.338318	0.405024
O18	O	1.398626	-0.088318	0.655024
O19	O	1.648626	0.161682	0.905024
O20	O	1.898626	0.411682	1.155024
O21	O	1.331013	-0.295179	0.452466
O22	O	1.581013	-0.045179	0.702466
O23	O	1.831013	0.204821	0.952466
O24	O	2.081013	0.454821	1.202466
O25	O	1.195959	-0.381501	0.226895
O26	O	1.445959	-0.131501	0.476895
O27	O	1.695959	0.118499	0.726895
O28	O	1.945959	0.368499	0.976895
O29	O	1.106883	-0.181331	0.347862
O30	O	1.356883	0.068669	0.597862
O31	O	1.606883	0.318669	0.847862
O32	O	1.856883	0.568669	1.097862
O33	O	1.326707	-0.381475	0.357623
O34	O	1.576707	-0.131475	0.607623
O35	O	1.826707	0.118525	0.857623
O36	O	2.076707	0.368525	1.107623
O37	O	1.205949	-0.181312	0.446912
O38	O	1.455949	0.068688	0.696912
O39	O	1.705949	0.318688	0.946912
O40	O	1.955949	0.568688	1.196912
O41	O	1.101199	-0.295225	0.222688
O42	O	1.351199	-0.045225	0.472688
O43	O	1.601199	0.204775	0.722688
O44	O	1.851199	0.454775	0.972688
O45	O	0.970519	-0.295186	0.353386
O46	O	1.220519	-0.045186	0.603386
O47	O	1.470519	0.204814	0.853386
O48	O	1.720519	0.454814	1.103386
O49	O	1.097013	-0.381406	0.587349
O50	O	1.347013	-0.131406	0.837349
O51	O	1.597013	0.118594	1.087349
O52	O	1.847013	0.368594	1.337349
O53	O	0.966265	-0.381432	0.456622
O54	O	1.216265	-0.131432	0.706622
O55	O	1.466265	0.118568	0.956622
O56	O	1.716265	0.368568	1.206622
O57	O	1.200333	-0.295140	0.583164
O58	O	1.450333	-0.045140	0.833164
O59	O	1.700333	0.204860	1.083164
O60	O	1.950333	0.454860	1.333164
O61	O	1.190344	-0.495330	0.363147
O62	O	1.440344	-0.245330	0.613147
O63	O	1.690344	0.004670	0.863147
O64	O	1.940344	0.254670	1.113147
O65	O	1.091330	-0.495300	0.462175
O66	O	1.341330	-0.245300	0.712175
O67	O	1.591330	0.004700	0.962175
O68	O	1.841330	0.254700	1.212175
C69	C	0.939136	-0.338308	0.405001
C70	C	1.189136	-0.088308	0.655001
C71	C	1.439136	0.161692	0.905001
C72	C	1.689136	0.411692	1.155001
C73	C	0.849514	-0.338321	0.405011
C74	C	1.099514	-0.088321	0.655011
C75	C	1.349514	0.161679	0.905011
C76	C	1.599514	0.411679	1.155011
C77	C	1.139594	-0.520799	0.413918
C78	C	1.389594	-0.270799	0.663918
C79	C	1.639594	-0.020799	0.913918
C80	C	1.889594	0.229201	1.163918
C81	C	1.135804	-0.598865	0.417750
C82	C	1.385804	-0.348865	0.667750
C83	C	1.635804	-0.098865	0.917750
C84	C	1.885804	0.151135	1.167750
C85	C	0.521338	-0.338325	0.405046
C86	C	0.771338	-0.088325	0.655046
C87	C	1.021338	0.161675	0.905046
C88	C	1.271338	0.411675	1.155046
C89	C	0.612647	-0.338322	0.405034
C90	C	0.862647	-0.088322	0.655034
C91	C	1.112647	0.161678	0.905034
C92	C	1.362647	0.411678	1.155034
C93	C	0.685423	-0.338323	0.405028
C94	C	0.935423	-0.088323	0.655028
C95	C	1.185423	0.161677	0.905028
C96	C	1.435423	0.411677	1.155028
C97	C	0.776738	-0.338319	0.405017
C98	C	1.026738	-0.088319	0.655017
C99	C	1.276738	0.161681	0.905017
C100	C	1.526738	0.411681	1.155017
C101	C	1.185615	-0.635533	0.368035
C102	C	1.435615	-0.385533	0.618035
C103	C	1.685615	-0.135533	0.868035
C104	C	1.935615	0.114467	1.118035
C105	C	1.182055	-0.708884	0.371644
C106	C	1.432055	-0.458884	0.621644
C107	C	1.682055	-0.208884	0.871644
C108	C	1.932055	0.041116	1.121644
C109	C	1.128680	-0.745566	0.424964
C110	C	1.378680	-0.495566	0.674964
C111	C	1.628680	-0.245566	0.924964
C112	C	1.878680	0.004434	1.174964
C113	C	1.078867	-0.708893	0.474685
C114	C	1.328867	-0.458893	0.724685
C115	C	1.578867	-0.208893	0.974685
C116	C	1.828867	0.041107	1.224685
C117	C	1.082431	-0.635543	0.471080
C118	C	1.332431	-0.385543	0.721080
C119	C	1.582431	-0.135543	0.971080
C120	C	1.832431	0.114457	1.221080
C121	C	1.115340	-0.967036	0.438431
C122	C	1.365340	-0.717036	0.688431
C123	C	1.615340	-0.467036	0.938431
C124	C	1.865340	-0.217036	1.188431
C125	C	1.111778	-1.040391	0.442031
C126	C	1.361778	-0.790391	0.692031
C127	C	1.611778	-0.540391	0.942031
C128	C	1.861778	-0.290391	1.192031
C129	C	1.214967	-1.040377	0.338989
C130	C	1.464967	-0.790377	0.588989
C131	C	1.714967	-0.540377	0.838989
C132	C	1.964967	-0.290377	1.088989
C133	C	1.218524	-0.967025	0.335386
C134	C	1.468524	-0.717025	0.585386
C135	C	1.718524	-0.467025	0.835386
C136	C	1.968524	-0.217025	1.085386
C137	C	1.168714	-0.930359	0.385109
C138	C	1.418714	-0.680359	0.635109
C139	C	1.668714	-0.430359	0.885109
C140	C	1.918714	-0.180359	1.135109
C141	C	1.125038	-0.820543	0.428653
C142	C	1.375038	-0.570543	0.678653
C143	C	1.625038	-0.320543	0.928653
C144	C	1.875038	-0.070543	1.178653
C145	C	1.172360	-0.855383	0.381425
C146	C	1.422360	-0.605383	0.631425
C147	C	1.672360	-0.355383	0.881425
C148	C	1.922360	-0.105383	1.131425
C149	C	1.358934	-0.338329	0.405048
C150	C	1.608934	-0.088329	0.655048
C151	C	1.858934	0.161671	0.905048
C152	C	2.108934	0.411671	1.155048
C153	C	1.448555	-0.338333	0.405058
C154	C	1.698555	-0.088333	0.655058
C155	C	1.948555	0.161667	0.905058
C156	C	2.198555	0.411667	1.155058
C157	C	1.148681	-0.338266	0.615331
C158	C	1.398681	-0.088266	0.865331
C159	C	1.648681	0.161734	1.115331
C160	C	1.898681	0.411734	1.365331
C161	C	1.148705	-0.338244	0.704951
C162	C	1.398705	-0.088244	0.954951
C163	C	1.648705	0.161756	1.204951
C164	C	1.898705	0.411756	1.454951
C165	C	1.157715	-0.155125	0.396113
C166	C	1.407715	0.094875	0.646113
C167	C	1.657715	0.344875	0.896113
C168	C	1.907715	0.594875	1.146113
C169	C	1.161589	-0.077059	0.392315
C170	C	1.411589	0.172941	0.642315
C171	C	1.661589	0.422941	0.892315
C172	C	1.911589	0.672941	1.142315
C173	C	1.148620	-0.338320	0.195533
C174	C	1.398620	-0.088320	0.445533
C175	C	1.648620	0.161680	0.695533
C176	C	1.898620	0.411680	0.945533
C177	C	1.148763	-0.338144	0.105904
C178	C	1.398763	-0.088144	0.355904
C179	C	1.648763	0.161856	0.605904
C180	C	1.898763	0.411856	0.855904
C181	C	1.148746	-0.338165	1.033123
C182	C	1.398746	-0.088165	1.283123
C183	C	1.648746	0.161835	1.533123
C184	C	1.898746	0.411835	1.783123
C185	C	1.148732	-0.338189	0.941815
C186	C	1.398732	-0.088189	1.191815
C187	C	1.648732	0.161811	1.441815
C188	C	1.898732	0.411811	1.691815
C189	C	1.148725	-0.338205	0.869040
C190	C	1.398725	-0.088205	1.119040
C191	C	1.648725	0.161795	1.369040
C192	C	1.898725	0.411795	1.619040
C193	C	1.148711	-0.338228	0.777726
C194	C	1.398711	-0.088228	1.027726
C195	C	1.648711	0.161772	1.277726
C196	C	1.898711	0.411772	1.527726
H197	H	1.222616	-0.738735	0.331159
H198	H	1.472616	-0.488735	0.581159
H199	H	1.722616	-0.238735	0.831159
H200	H	1.972616	0.011265	1.081159
H201	H	1.229075	-0.605671	0.324612
H202	H	1.479075	-0.355671	0.574612
H203	H	1.729075	-0.105671	0.824612
H204	H	1.979075	0.144329	1.074612
H205	H	1.255521	-1.070238	0.298508
H206	H	1.505521	-0.820238	0.548508
H207	H	1.755521	-0.570238	0.798508
H208	H	2.005521	-0.320238	1.048508
N209	N	1.031548	-0.598075	0.521850
N210	N	1.281548	-0.348075	0.771850
N211	N	1.531548	-0.098075	1.021850
N212	N	1.781548	0.151925	1.271850
N213	N	1.034738	-0.532585	0.518625
N214	N	1.284738	-0.282585	0.768625
N215	N	1.534738	-0.032585	1.018625
N216	N	1.784738	0.217415	1.268625
H217	H	0.998802	-0.506122	0.554484
H218	H	1.248802	-0.256122	0.804484
H219	H	1.498802	-0.006122	1.054484
H220	H	1.748802	0.243878	1.304484
N221	N	1.057242	-1.077852	0.496498
N222	N	1.307242	-0.827852	0.746498
N223	N	1.557242	-0.577852	0.996498
N224	N	1.807242	-0.327852	1.246498
N225	N	1.012770	-1.045107	0.540886
N226	N	1.262770	-0.795107	0.790886
N227	N	1.512770	-0.545107	1.040886
N228	N	1.762770	-0.295107	1.290886
H229	H	0.974253	-1.071563	0.579349
H230	H	1.224253	-0.821563	0.829349
H231	H	1.474253	-0.571563	1.079349
H232	H	1.724253	-0.321563	1.329349
H233	H	1.215822	-0.825515	0.338014
H234	H	1.465822	-0.575515	0.588014
H235	H	1.715822	-0.325515	0.838014
H236	H	1.965822	-0.075515	1.088014
N237	N	1.070513	-0.858028	0.483102
N238	N	1.320513	-0.608028	0.733102
N239	N	1.570513	-0.358028	0.983102
N240	N	1.820513	-0.108028	1.233102
N241	N	1.017167	-0.899018	0.456691
N242	N	1.267167	-0.649018	0.706691
N243	N	1.517167	-0.399018	0.956691
N244	N	1.767167	-0.149018	1.206691
H245	H	0.978660	-0.925495	0.495145
H246	H	1.228660	-0.675495	0.745145
H247	H	1.478660	-0.425495	0.995145
H248	H	1.728660	-0.175495	1.245145
N249	N	1.273047	-0.929568	0.280912
N250	N	1.523047	-0.679568	0.530912
N251	N	1.773047	-0.429568	0.780912
N252	N	2.023047	-0.179568	1.030912
N253	N	1.317518	-0.962317	0.236525
N254	N	1.567518	-0.712317	0.486525
N255	N	1.817518	-0.462317	0.736525
N256	N	2.067518	-0.212317	0.986525
H257	H	1.356024	-0.935863	0.198049
H258	H	1.606024	-0.685863	0.448049
H259	H	1.856024	-0.435863	0.698049
H260	H	2.106024	-0.185863	0.948049
N261	N	1.064457	-0.929599	0.489226
N262	N	1.314457	-0.679599	0.739226
N263	N	1.564457	-0.429599	0.989226
N264	N	1.814457	-0.179599	1.239226
N265	N	1.016803	-0.962362	0.536827
N266	N	1.266803	-0.712362	0.786827
N267	N	1.516803	-0.462362	1.036827
N268	N	1.766803	-0.212362	1.286827
H269	H	0.980863	-0.935921	0.572704
H270	H	1.230863	-0.685921	0.822704
H271	H	1.480863	-0.435921	1.072704
H272	H	1.730863	-0.185921	1.322704
N273	N	1.024357	-0.746372	0.529155
N274	N	1.274357	-0.496372	0.779155
N275	N	1.524357	-0.246372	1.029155
N276	N	1.774357	0.003628	1.279155
N277	N	1.021180	-0.811862	0.532368
N278	N	1.271180	-0.561862	0.782368
N279	N	1.521180	-0.311862	1.032368
N280	N	1.771180	-0.061862	1.282368
H281	H	0.982681	-0.838331	0.570837
H282	H	1.232681	-0.588331	0.820837
H283	H	1.482681	-0.338331	1.070837
H284	H	1.732681	-0.088331	1.320837
