data_functionalizedCrystal
_audit_creation_method	'MofGen! by Chris Wilmer'
_symmetry_space_group_name_H-M	'P1'
_symmetry_Int_Tables_number	1
_symmetry_cell_setting	triclinic
loop_
_symmetry_equiv_pos_as_xyz
  x,y,z
_cell_length_a	17.640112
_cell_length_b	21.295417
_cell_length_c	21.295411
_cell_angle_alpha	89.978356
_cell_angle_beta	101.169060
_cell_angle_gamma	101.256239
loop_
_atom_site_label
_atom_site_type_symbol
_atom_site_fract_x
_atom_site_fract_y
_atom_site_fract_z
Zn1	Zn	1.208340	-0.055888	-0.161687
Zn2	Zn	1.708340	0.444112	0.338313
Zn3	Zn	1.208217	-0.161159	-0.056433
Zn4	Zn	1.708217	0.338841	0.443567
Zn5	Zn	1.076153	-0.077198	-0.077680
Zn6	Zn	1.576153	0.422802	0.422320
Zn7	Zn	1.076115	-0.182439	-0.182898
Zn8	Zn	1.576115	0.317561	0.317102
O9	O	1.142206	-0.119171	-0.119674
O10	O	1.642206	0.380829	0.380326
O11	O	1.318929	-0.052029	-0.129957
O12	O	1.818929	0.447971	0.370043
O13	O	1.190663	-0.150034	0.028833
O14	O	1.690663	0.349966	0.528833
O15	O	1.093756	0.013729	-0.088839
O16	O	1.593756	0.513729	0.411161
O17	O	1.318839	-0.129371	-0.052626
O18	O	1.818839	0.370629	0.447374
O19	O	1.190872	0.029386	-0.150559
O20	O	1.690872	0.529386	0.349441
O21	O	1.093637	-0.088348	0.013223
O22	O	1.593637	0.411652	0.513223
O23	O	0.965543	-0.108982	-0.109406
O24	O	1.465543	0.391018	0.390594
O25	O	1.093690	-0.165639	-0.268168
O26	O	1.593690	0.334361	0.231832
O27	O	0.965515	-0.186302	-0.186709
O28	O	1.465515	0.313698	0.313291
O29	O	1.190835	-0.072662	-0.252585
O30	O	1.690835	0.427338	0.247415
O31	O	1.190626	-0.252082	-0.073193
O32	O	1.690626	0.247918	0.426807
O33	O	1.093571	-0.267716	-0.166107
O34	O	1.593571	0.232284	0.333893
C35	C	0.936850	-0.152264	-0.152665
C36	C	1.436850	0.347736	0.347335
C37	C	0.848997	-0.166436	-0.166793
C38	C	1.348997	0.333564	0.333207
C39	C	0.560026	-0.011493	-0.012347
C40	C	1.060026	0.488507	0.487653
C41	C	0.477475	-0.024823	-0.025632
C42	C	0.977475	0.475177	0.474368
C43	C	0.477500	-0.105447	-0.105989
C44	C	0.977500	0.394553	0.394011
C45	C	0.560052	-0.092122	-0.092714
C46	C	1.060052	0.407878	0.407286
C47	C	0.601309	-0.045145	-0.045892
C48	C	1.101309	0.454855	0.454108
C49	C	0.601335	-0.125774	-0.126258
C50	C	1.101335	0.374226	0.373742
C51	C	0.683881	-0.112452	-0.112981
C52	C	1.183881	0.387548	0.387019
C53	C	0.725143	-0.065478	-0.066160
C54	C	1.225143	0.434522	0.433840
C55	C	0.683854	-0.031823	-0.032615
C56	C	1.183854	0.468177	0.467385
C57	C	0.560077	-0.172754	-0.173076
C58	C	1.060077	0.327246	0.326924
C59	C	0.601360	-0.206406	-0.206620
C60	C	1.101360	0.293594	0.293380
C61	C	0.683907	-0.193080	-0.193347
C62	C	1.183907	0.306920	0.306653
C63	C	0.725169	-0.146107	-0.146526
C64	C	1.225169	0.353893	0.353474
C65	C	0.725196	-0.226736	-0.226892
C66	C	1.225196	0.273264	0.273108
C67	C	0.807741	-0.213413	-0.213615
C68	C	1.307741	0.286587	0.286385
C69	C	0.807714	-0.132785	-0.133249
C70	C	1.307714	0.367215	0.366751
C71	C	1.142103	-0.282739	-0.119656
C72	C	1.642103	0.217261	0.380344
C73	C	1.142131	-0.352703	-0.119658
C74	C	1.642131	0.147297	0.380342
C75	C	1.192712	-0.377401	-0.071312
C76	C	1.692712	0.122599	0.428688
C77	C	1.192749	-0.443137	-0.071320
C78	C	1.692749	0.056863	0.428680
C79	C	1.142191	-0.484176	-0.119670
C80	C	1.642191	0.015824	0.380330
C81	C	1.091606	-0.459470	-0.168024
C82	C	1.591606	0.040530	0.331976
C83	C	1.091576	-0.393734	-0.168018
C84	C	1.591576	0.106266	0.331982
N85	N	1.073048	-0.598589	-0.135577
N86	N	1.573048	-0.098589	0.364423
N87	N	1.073079	-0.661035	-0.135578
N88	N	1.573079	-0.161035	0.364422
C89	C	1.142279	-0.682236	-0.119692
C90	C	1.642279	-0.182236	0.380308
N91	N	1.211449	-0.638631	-0.103791
N92	N	1.711449	-0.138631	0.396209
N93	N	1.211418	-0.576179	-0.103786
N94	N	1.711418	-0.076179	0.396214
C95	C	1.142218	-0.555457	-0.119682
C96	C	1.642218	-0.055457	0.380318
C97	C	1.192905	-0.778212	-0.071352
C98	C	1.692905	-0.278212	0.428648
C99	C	1.192943	-0.843950	-0.071364
C100	C	1.692943	-0.343950	0.428636
C101	C	1.091793	-0.860283	-0.168066
C102	C	1.591793	-0.360283	0.331934
C103	C	1.091762	-0.794545	-0.168056
C104	C	1.591762	-0.294545	0.331944
C105	C	1.142317	-0.753514	-0.119696
C106	C	1.642317	-0.253514	0.380304
C107	C	1.348365	-0.085949	-0.086555
C108	C	1.848365	0.414051	0.413445
C109	C	1.436217	-0.071792	-0.072442
C110	C	1.936217	0.428208	0.427558
C111	C	1.142272	-0.119147	-0.283854
C112	C	1.642272	0.380853	0.216146
C113	C	1.142300	-0.119137	-0.353818
C114	C	1.642300	0.380863	0.146182
C115	C	1.142332	0.045040	-0.119703
C116	C	1.642332	0.545040	0.380297
C117	C	1.142385	0.115016	-0.119715
C118	C	1.642385	0.615016	0.380285
C119	C	1.192881	-0.070723	-0.378572
C120	C	1.692881	0.429277	0.121428
C121	C	1.192880	-0.070695	-0.444314
C122	C	1.692880	0.429305	0.055686
C123	C	1.142306	-0.119093	-0.485299
C124	C	1.642306	0.380907	0.014701
C125	C	1.091715	-0.167511	-0.460539
C126	C	1.591715	0.332489	0.039461
C127	C	1.091712	-0.167533	-0.394798
C128	C	1.591712	0.332467	0.105202
N129	N	1.136208	-0.175143	-0.589495
N130	N	1.636208	0.324857	-0.089495
N131	N	1.136215	-0.175120	-0.651945
N132	N	1.636215	0.324880	-0.151945
C133	C	1.142311	-0.119028	-0.683373
C134	C	1.642311	0.380972	-0.183373
N135	N	1.148414	-0.062957	-0.649990
N136	N	1.648414	0.437043	-0.149990
N137	N	1.148411	-0.062980	-0.587533
N138	N	1.648411	0.437020	-0.087533
C139	C	1.142303	-0.119074	-0.556585
C140	C	1.642303	0.380926	-0.056585
C141	C	1.192894	-0.070580	-0.779413
C142	C	1.692894	0.429420	-0.279413
C143	C	1.192887	-0.070553	-0.845157
C144	C	1.692887	0.429447	-0.345157
C145	C	1.091726	-0.167374	-0.861380
C146	C	1.591726	0.332626	-0.361380
C147	C	1.091729	-0.167396	-0.795637
C148	C	1.591729	0.332604	-0.295637
C149	C	1.142317	-0.119000	-0.754657
C150	C	1.642317	0.381000	-0.254657
C151	C	1.142186	-0.119142	0.043874
C152	C	1.642186	0.380858	0.543874
C153	C	1.142312	-0.118950	0.113862
C154	C	1.642312	0.381050	0.613862
H155	H	0.792356	-0.054633	-0.055349
H156	H	1.292356	0.445367	0.444651
H157	H	1.050570	-0.774436	-0.207422
H158	H	1.550570	-0.274436	0.292578
C159	C	1.292702	-0.367864	0.024269
C160	C	1.792702	0.132136	0.524269
C161	C	1.248293	-0.332299	-0.018162
C162	C	1.748293	0.167701	0.481838
H163	H	1.327020	-0.340017	0.057078
H164	H	1.827020	0.159983	0.557078
H165	H	1.258291	-0.399086	0.042840
H166	H	1.758291	0.100914	0.542840
H167	H	1.322923	-0.388601	0.001666
H168	H	1.822923	0.111399	0.501666
H169	H	1.218067	-0.311565	0.004441
H170	H	1.718067	0.188435	0.504441
H171	H	1.282708	-0.301066	-0.036733
H172	H	1.782708	0.198934	0.463267
C173	C	0.985404	-0.193300	-0.738763
C174	C	1.485404	0.306700	-0.238763
C175	C	1.036134	-0.220619	-0.768422
C176	C	1.536134	0.279381	-0.268422
H177	H	0.951077	-0.226160	-0.721966
H178	H	1.451077	0.273840	-0.221966
H179	H	1.015526	-0.164486	-0.704951
H180	H	1.515526	0.335514	-0.204951
H181	H	0.955194	-0.170736	-0.769264
H182	H	1.455194	0.329264	-0.269264
H183	H	1.066348	-0.243179	-0.737920
H184	H	1.566348	0.256821	-0.237920
H185	H	1.006009	-0.249444	-0.802238
H186	H	1.506009	0.250556	-0.302238
C187	C	1.046829	-0.210339	-0.969353
C188	C	1.546829	0.289661	-0.469353
C189	C	1.036142	-0.220579	-0.906422
C190	C	1.536142	0.279421	-0.406422
H191	H	1.012516	-0.243191	-0.997161
H192	H	1.512516	0.256809	-0.497161
H193	H	1.035283	-0.169908	-0.981980
H194	H	1.535283	0.330092	-0.481980
H195	H	1.099933	-0.210985	-0.971598
H196	H	1.599933	0.289015	-0.471598
H197	H	0.983039	-0.219929	-0.904176
H198	H	1.483039	0.280071	-0.404176
H199	H	1.047682	-0.261021	-0.893792
H200	H	1.547682	0.238979	-0.393792
H201	H	1.234073	-0.744803	-0.031975
H202	H	1.734073	-0.244803	0.468025
C203	C	0.934243	-0.076557	-0.077220
C204	C	1.434243	0.423443	0.422780
C205	C	0.853073	-0.081141	-0.081786
C206	C	1.353073	0.418859	0.418214
H207	H	0.962244	-0.044674	-0.045453
H208	H	1.462244	0.455326	0.454547
H209	H	0.947741	-0.116655	-0.065753
H210	H	1.447741	0.383345	0.434247
H211	H	0.947793	-0.065223	-0.117356
H212	H	1.447793	0.434777	0.382644
H213	H	0.839522	-0.092480	-0.041651
H214	H	1.339522	0.407520	0.458349
H215	H	0.839569	-0.041035	-0.093249
H216	H	1.339569	0.458965	0.406751
H217	H	1.050631	-0.893695	-0.207436
H218	H	1.550631	-0.393695	0.292564
H219	H	0.717447	0.006440	0.005503
H220	H	1.217447	0.506440	0.505503
C221	C	0.551719	0.066867	0.065768
C222	C	1.051719	0.566867	0.565768
C223	C	0.605383	0.040141	0.039125
C224	C	1.105383	0.540141	0.539125
H225	H	0.579722	0.098737	0.097548
H226	H	1.079722	0.598737	0.597548
H227	H	0.519559	0.085721	0.033127
H228	H	1.019559	0.585721	0.533127
H229	H	0.519488	0.034268	0.084709
H230	H	1.019488	0.534268	0.584709
H231	H	0.637610	0.072739	0.020180
H232	H	1.137610	0.572739	0.520180
H233	H	0.637557	0.021287	0.071772
H234	H	1.137557	0.521287	0.571772
C235	C	1.080679	-0.253947	-0.536231
C236	C	1.580679	0.246053	-0.036231
C237	C	1.036126	-0.220714	-0.505585
C238	C	1.536126	0.279286	-0.005585
H239	H	1.046356	-0.286795	-0.564036
H240	H	1.546356	0.213205	-0.064036
H241	H	1.110795	-0.225110	-0.560384
H242	H	1.610795	0.274890	-0.060384
H243	H	1.115093	-0.272485	-0.505053
H244	H	1.615093	0.227515	-0.005053
H245	H	1.001715	-0.202172	-0.536763
H246	H	1.501715	0.297828	-0.036763
H247	H	1.005996	-0.249556	-0.481431
H248	H	1.505996	0.250444	0.018569
C249	C	1.080669	-0.254010	-0.322634
C250	C	1.580669	0.245990	0.177366
C251	C	1.036115	-0.220756	-0.367582
C252	C	1.536115	0.279244	0.132418
H253	H	1.046345	-0.286865	-0.305828
H254	H	1.546345	0.213135	0.194172
H255	H	1.115077	-0.272534	-0.342763
H256	H	1.615077	0.227466	0.157237
H257	H	1.110790	-0.225183	-0.288823
H258	H	1.610790	0.274817	0.211177
H259	H	1.005999	-0.249582	-0.401395
H260	H	1.505999	0.250418	0.098605
H261	H	1.001693	-0.202232	-0.347453
H262	H	1.501693	0.297768	0.152547
C263	C	0.350975	-0.161669	-0.162029
C264	C	0.850975	0.338331	0.337971
C265	C	0.432146	-0.157081	-0.157457
C266	C	0.932146	0.342919	0.342543
H267	H	0.322979	-0.193542	-0.193807
H268	H	0.822979	0.306458	0.306193
H269	H	0.337419	-0.173013	-0.121903
H270	H	0.837419	0.326987	0.378097
H271	H	0.337478	-0.121562	-0.173487
H272	H	0.837478	0.378438	0.326513
H273	H	0.445645	-0.197186	-0.145994
H274	H	0.945645	0.302814	0.354006
H275	H	0.445708	-0.145740	-0.197591
H276	H	0.945708	0.354260	0.302409
H277	H	1.234067	-0.031268	-0.464473
H278	H	1.734067	0.468732	0.035527
C279	C	0.384576	-0.030929	0.044077
C280	C	0.884576	0.469071	0.544077
C281	C	0.432088	0.012178	0.011230
C282	C	0.932088	0.512178	0.511230
H283	H	0.356558	-0.008084	0.066832
H284	H	0.856558	0.491916	0.566832
H285	H	0.348200	-0.060809	0.014293
H286	H	0.848200	0.439191	0.514293
H287	H	0.416754	-0.053120	0.073390
H288	H	0.916754	0.446880	0.573390
H289	H	0.399910	0.034365	-0.018087
H290	H	0.899910	0.534365	0.481913
H291	H	0.468469	0.042069	0.041017
H292	H	0.968469	0.542069	0.541017
C293	C	1.203897	0.015722	-0.302903
C294	C	1.703897	0.515722	0.197097
C295	C	1.248466	-0.017506	-0.333538
C296	C	1.748466	0.482494	0.166462
H297	H	1.238209	0.048578	-0.275102
H298	H	1.738209	0.548578	0.224898
H299	H	1.169476	0.034242	-0.334081
H300	H	1.669476	0.534242	0.165919
H301	H	1.173788	-0.013121	-0.278740
H302	H	1.673788	0.486879	0.221260
H303	H	1.278571	0.011336	-0.357705
H304	H	1.778571	0.511336	0.142295
H305	H	1.282900	-0.036026	-0.302356
H306	H	1.782900	0.463974	0.197644
C307	C	0.474836	-0.262627	-0.262660
C308	C	0.974836	0.237373	0.237340
C309	C	0.556007	-0.258039	-0.258089
C310	C	1.056007	0.241961	0.241911
H311	H	0.446839	-0.294500	-0.294439
H312	H	0.946839	0.205500	0.205561
H313	H	0.461279	-0.273971	-0.222534
H314	H	0.961279	0.226029	0.277466
H315	H	0.461338	-0.222521	-0.274118
H316	H	0.961338	0.277479	0.225882
H317	H	0.569505	-0.298144	-0.246626
H318	H	1.069505	0.201856	0.253374
H319	H	0.569568	-0.246698	-0.298223
H320	H	1.069568	0.253302	0.201777
C321	C	1.046732	-0.567494	-0.210964
C322	C	1.546732	-0.067494	0.289036
C323	C	1.036028	-0.504578	-0.221170
C324	C	1.536028	-0.004578	0.278830
H325	H	1.012417	-0.595340	-0.243775
H326	H	1.512417	-0.095340	0.256225
H327	H	1.099830	-0.569663	-0.211684
H328	H	1.599830	-0.069663	0.288316
H329	H	1.035193	-0.580151	-0.170515
H330	H	1.535193	-0.080151	0.329485
H331	H	1.047573	-0.491919	-0.261618
H332	H	1.547573	0.008081	0.238382
H333	H	0.982918	-0.502406	-0.220457
H334	H	1.482918	-0.002406	0.279543
C335	C	0.699836	-0.261643	-0.337507
C336	C	1.199836	0.238357	0.162493
C337	C	0.679839	-0.278370	-0.278358
C338	C	1.179839	0.221630	0.221642
H339	H	0.671837	-0.293522	-0.369279
H340	H	1.171837	0.206478	0.130721
H341	H	0.686327	-0.221546	-0.348961
H342	H	1.186327	0.278454	0.151039
H343	H	0.754906	-0.258527	-0.334396
H344	H	1.254906	0.241473	0.165604
H345	H	0.624770	-0.281481	-0.281468
H346	H	1.124770	0.218519	0.218532
H347	H	0.693342	-0.318478	-0.266902
H348	H	1.193342	0.181522	0.233098
C349	C	1.299085	-0.499880	-0.045541
C350	C	1.799085	0.000120	0.454459
C351	C	1.248330	-0.470306	-0.018167
C352	C	1.748330	0.029694	0.481833
H353	H	1.333394	-0.516651	-0.012723
H354	H	1.833394	-0.016651	0.487277
H355	H	1.268980	-0.533715	-0.074343
H356	H	1.768980	-0.033715	0.425657
H357	H	1.329313	-0.469324	-0.068114
H358	H	1.829313	0.030676	0.431886
H359	H	1.218098	-0.500863	0.004402
H360	H	1.718098	-0.000863	0.504402
H361	H	1.278438	-0.436467	0.010646
H362	H	1.778438	0.063533	0.510646
C363	C	1.292878	0.025129	-0.769979
C364	C	1.792878	0.525129	-0.269979
C365	C	1.248489	-0.017379	-0.734363
C366	C	1.748489	0.482621	-0.234363
H367	H	1.327196	0.057975	-0.742168
H368	H	1.827196	0.557975	-0.242168
H369	H	1.323092	0.002582	-0.790772
H370	H	1.823092	0.502582	-0.290772
H371	H	1.258449	0.043666	-0.801145
H372	H	1.758449	0.543666	-0.301145
H373	H	1.282917	-0.035919	-0.703201
H374	H	1.782917	0.464081	-0.203201
H375	H	1.218273	0.005171	-0.713560
H376	H	1.718273	0.505171	-0.213560
H377	H	1.234075	-0.031125	-0.865310
H378	H	1.734075	0.468875	-0.365310
H379	H	0.841354	-0.240815	-0.240931
H380	H	1.341354	0.259185	0.259069
C381	C	0.991598	-0.416482	-0.263604
C382	C	1.491598	0.083518	0.236396
C383	C	1.035968	-0.366583	-0.221161
C384	C	1.535968	0.133417	0.278839
H385	H	0.957264	-0.399719	-0.296409
H386	H	1.457264	0.100281	0.203591
H387	H	1.026032	-0.436531	-0.282178
H388	H	1.526032	0.063469	0.217822
H389	H	0.961395	-0.447033	-0.241009
H390	H	1.461395	0.052967	0.258991
H391	H	1.066175	-0.336035	-0.243755
H392	H	1.566175	0.163965	0.256245
H393	H	1.001529	-0.346524	-0.202586
H394	H	1.501529	0.153476	0.297414
H395	H	0.492864	-0.183599	-0.183885
H396	H	0.992864	0.316401	0.316115
C397	C	1.292907	-0.821201	0.024230
C398	C	1.792907	-0.321201	0.524230
C399	C	1.248546	-0.871100	-0.018217
C400	C	1.748546	-0.371100	0.481783
H401	H	1.327230	-0.837965	0.057043
H402	H	1.827230	-0.337965	0.557043
H403	H	1.323113	-0.790654	0.001645
H404	H	1.823113	-0.290654	0.501645
H405	H	1.258460	-0.801151	0.042798
H406	H	1.758460	-0.301151	0.542798
H407	H	1.282993	-0.891148	-0.036788
H408	H	1.782993	-0.391148	0.463212
H409	H	1.218338	-0.901659	0.004372
H410	H	1.718338	-0.401659	0.504372
