data_functionalizedCrystal
_audit_creation_method	'MofGen! by Chris Wilmer'
_symmetry_space_group_name_H-M	'P1'
_symmetry_Int_Tables_number	1
_symmetry_cell_setting	triclinic
loop_
_symmetry_equiv_pos_as_xyz
  x,y,z
_cell_length_a	16.992694
_cell_length_b	15.995350
_cell_length_c	15.455313
_cell_angle_alpha	92.667328
_cell_angle_beta	87.142206
_cell_angle_gamma	87.080299
loop_
_atom_site_label
_atom_site_type_symbol
_atom_site_fract_x
_atom_site_fract_y
_atom_site_fract_z
O1	O	1.043823	0.174116	-0.072015
O2	O	1.543823	0.674116	0.427985
O3	O	0.815539	0.172167	-0.072041
O4	O	1.315539	0.672167	0.427959
O5	O	0.935921	0.051671	-0.072026
O6	O	1.435921	0.551671	0.427974
O7	O	0.923440	0.294611	-0.072029
O8	O	1.423440	0.794611	0.427971
O9	O	0.929037	0.058531	0.072235
O10	O	1.429037	0.558531	0.572235
O11	O	0.808655	0.179027	0.072221
O12	O	1.308655	0.679027	0.572221
O13	O	1.036939	0.180976	0.072246
O14	O	1.536939	0.680976	0.572246
Cu15	Cu	0.922168	0.180628	0.085406
Cu16	Cu	1.422168	0.680628	0.585406
Cu17	Cu	0.930309	0.172515	-0.085200
Cu18	Cu	1.430309	0.672515	0.414800
O19	O	0.916556	0.301471	0.072232
O20	O	1.416556	0.801471	0.572232
C21	C	0.782884	0.173091	0.000087
C22	C	1.282884	0.673091	0.500087
C23	C	0.695840	0.165614	0.000077
C24	C	1.195840	0.665614	0.500077
C25	C	0.645600	0.237750	0.000077
C26	C	1.145600	0.737750	0.500077
C27	C	0.563813	0.230720	0.000089
C28	C	1.063813	0.730720	0.500089
C29	C	0.532268	0.151555	0.000095
C30	C	1.032268	0.651555	0.500095
C31	C	0.582515	0.079414	0.000098
C32	C	1.082515	0.579414	0.500098
C33	C	0.664300	0.086445	0.000092
C34	C	1.164300	0.586445	0.500092
C35	C	0.288669	0.122418	0.000118
C36	C	0.788669	0.622418	0.500118
C37	C	0.206878	0.115393	0.000122
C38	C	0.706878	0.615393	0.500122
C39	C	0.188181	0.266700	0.000114
C40	C	0.688181	0.766700	0.500114
C41	C	0.269969	0.273723	0.000103
C42	C	0.769969	0.773723	0.500103
C43	C	0.320208	0.201582	0.000111
C44	C	0.820208	0.701582	0.500111
N45	N	0.448669	0.144368	0.000104
N46	N	0.948669	0.644368	0.500104
N47	N	0.403806	0.208770	0.000107
N48	N	0.903806	0.708770	0.500107
C49	C	0.931963	0.023872	0.000103
C50	C	1.431963	0.523872	0.500103
C51	C	0.930416	-0.069182	0.000098
C52	C	1.430416	0.430818	0.500098
C53	C	0.924861	-0.407301	0.000100
C54	C	1.424861	0.092699	0.500100
C55	C	0.839142	-0.365620	-0.000233
C56	C	1.339142	0.134380	0.499767
C57	C	0.840674	-0.268811	0.000092
C58	C	1.340674	0.231189	0.500092
C59	C	0.927617	-0.239556	0.000098
C60	C	1.427617	0.260444	0.500098
C61	C	0.965973	-0.273887	0.082482
C62	C	1.465973	0.226113	0.582482
C63	C	0.963816	-0.370663	0.082550
C64	C	1.463816	0.129337	0.582550
C65	C	0.973415	-0.378704	-0.081501
C66	C	1.473415	0.121296	0.418499
C67	C	0.973447	-0.281812	-0.082590
C68	C	1.473447	0.218188	0.417410
C69	C	0.929178	-0.144754	0.000100
C70	C	1.429178	0.355246	0.500100
C71	C	0.923301	-0.502103	0.000104
C72	C	1.423301	-0.002103	0.500104
C73	C	1.069593	0.180052	0.000117
C74	C	1.569593	0.680052	0.500117
C75	C	1.156637	0.187528	0.000121
C76	C	1.656637	0.687528	0.500121
C77	C	0.920514	0.329271	0.000101
C78	C	1.420514	0.829271	0.500101
C79	C	0.922061	0.422324	0.000101
C80	C	1.422061	0.922324	0.500101
N81	N	0.916448	0.186334	0.205401
N82	N	1.416448	0.686334	0.705401
N83	N	0.936036	0.166802	-0.205195
N84	N	1.436036	0.666802	0.294805
C85	C	0.967608	0.135164	0.250801
C86	C	1.467608	0.635164	0.750801
C87	C	0.963289	0.139488	0.341608
C88	C	1.463289	0.639488	0.841608
C89	C	0.907813	0.194986	0.387014
C90	C	1.407813	0.694986	0.887014
C91	C	0.856647	0.246157	0.341607
C92	C	1.356647	0.746157	0.841607
C93	C	0.860963	0.241829	0.250801
C94	C	1.360963	0.741829	0.750801
C95	C	0.889185	0.213646	0.658593
C96	C	1.389185	0.713646	1.158593
C97	C	0.884875	0.217972	0.749405
C98	C	1.384875	0.717972	1.249405
C99	C	0.991517	0.111301	0.749400
C100	C	1.491517	0.611301	1.249400
C101	C	0.995831	0.106981	0.658592
C102	C	1.495831	0.606981	1.158592
C103	C	0.944662	0.158150	0.613194
C104	C	1.444662	0.658150	1.113194
N105	N	0.903399	0.199408	0.479833
N106	N	1.403399	0.699408	0.979833
N107	N	0.949073	0.153722	0.520376
N108	N	1.449073	0.653722	1.020376
H109	H	0.522910	0.289461	0.000087
H110	H	1.022910	0.789461	0.500087
Br111	Br	0.539705	-0.028026	0.000114
Br112	Br	1.039705	0.471974	0.500114
H113	H	0.839698	0.263168	0.786370
H114	H	1.339698	0.763168	1.286370
Br115	Br	0.791523	0.311271	0.189187
Br116	Br	1.291523	0.811271	0.689187
H117	H	0.329565	0.063675	0.000125
H118	H	0.829565	0.563675	0.500125
H119	H	0.804387	-0.240372	0.059241
H120	H	1.304387	0.259628	0.559241
Br121	Br	0.119996	0.364599	0.000105
Br122	Br	0.619996	0.864599	0.500105
Br123	Br	1.032719	0.070040	0.403226
Br124	Br	1.532719	0.570040	0.903226
Br125	Br	0.312775	0.381165	0.000085
Br126	Br	0.812775	0.881165	0.500085
H127	H	0.807694	-0.389254	-0.059312
H128	H	1.307694	0.110746	0.440688
H129	H	0.181198	0.050923	0.000126
H130	H	0.681198	0.550923	0.500126
Br131	Br	0.819746	0.283088	0.596985
Br132	Br	1.319746	0.783088	1.096985
Br133	Br	0.907520	-0.399730	0.185183
Br134	Br	1.407520	0.100270	0.685183
Br135	Br	0.688403	0.345193	0.000059
Br136	Br	1.188403	0.845193	0.500059
Br137	Br	0.732485	-0.011457	0.000100
Br138	Br	1.232485	0.488543	0.500100
Br139	Br	0.789969	-0.229822	-0.098339
Br140	Br	1.289969	0.270178	0.401661
Br141	Br	1.071123	0.031666	0.596969
Br142	Br	1.571123	0.531666	1.096969
H143	H	0.802224	-0.384703	0.058509
H144	H	1.302224	0.115297	0.558509
H145	H	1.012786	0.089976	0.213838
H146	H	1.512786	0.589976	0.713838
H147	H	1.026582	-0.398522	0.086293
H148	H	1.526582	0.101478	0.586293
Br149	Br	1.072192	-0.242981	0.087601
Br150	Br	1.572192	0.257019	0.587601
Br151	Br	0.912147	-0.225003	0.184660
Br152	Br	1.412147	0.274997	0.684660
H153	H	0.948364	-0.404089	-0.143943
H154	H	1.448364	0.095911	0.356057
H155	H	0.945437	-0.259530	-0.143535
H156	H	1.445437	0.240470	0.356465
Br157	Br	1.060955	0.041860	0.811015
Br158	Br	1.560955	0.541860	1.311015
H159	H	1.037086	-0.262444	-0.087560
H160	H	1.537086	0.237556	0.412440
H161	H	1.036653	-0.406261	-0.082051
H162	H	1.536653	0.093739	0.417949
Br163	Br	0.781351	0.321471	0.403225
Br164	Br	1.281351	0.821471	0.903225
