data_functionalizedCrystal
_audit_creation_method	'MofGen! by Chris Wilmer'
_symmetry_space_group_name_H-M	'P1'
_symmetry_Int_Tables_number	1
_symmetry_cell_setting	triclinic
loop_
_symmetry_equiv_pos_as_xyz
  x,y,z
_cell_length_a	12.759395
_cell_length_b	19.077114
_cell_length_c	12.759387
_cell_angle_alpha	92.264231
_cell_angle_beta	89.980763
_cell_angle_gamma	92.325779
loop_
_atom_site_label
_atom_site_type_symbol
_atom_site_fract_x
_atom_site_fract_y
_atom_site_fract_z
Zn1	Zn	-1.589346	0.280212	0.610779
Zn2	Zn	-1.582139	0.397926	0.442143
Zn3	Zn	-1.413647	0.280242	0.435117
Zn4	Zn	-1.406538	0.397868	0.617779
O5	O	-1.497918	0.339062	0.526454
O6	O	-1.735411	0.295839	0.588420
O7	O	-1.559747	0.382351	0.294192
O8	O	-1.442946	0.181747	0.452548
O9	O	-1.730115	0.382323	0.464525
O10	O	-1.572031	0.181726	0.581606
O11	O	-1.435957	0.295889	0.289030
O12	O	-1.265684	0.295833	0.459336
O13	O	-1.430829	0.382224	0.763869
O14	O	-1.260461	0.382253	0.593537
O15	O	-1.565138	0.295783	0.758726
O16	O	-1.552853	0.496409	0.471312
O17	O	-1.423840	0.496366	0.600350
C18	C	-1.224951	0.339040	0.526434
C19	C	-1.108174	0.339048	0.526452
C20	C	-1.113660	0.249138	0.655690
C21	C	-1.061542	0.204191	0.720317
C22	C	-0.951820	0.204200	0.720328
C23	C	-0.894213	0.249161	0.655703
C24	C	-0.946331	0.294109	0.591076
C25	C	-1.056056	0.294096	0.591074
C26	C	-0.940846	0.384014	0.461834
C27	C	-1.050568	0.384009	0.461827
C28	C	-0.883239	0.428974	0.397209
C29	C	-0.935357	0.473927	0.332586
C30	C	-1.045086	0.473916	0.332579
C31	C	-1.102686	0.428957	0.397200
C32	C	-1.486822	0.521925	0.537376
C33	C	-1.482171	0.600154	0.542084
C34	C	-1.497994	0.338994	0.800484
C35	C	-1.498027	0.338965	0.917259
C36	C	-0.771950	0.339077	0.526469
C37	C	-0.888727	0.339066	0.526461
C38	C	-1.547208	0.636906	0.477168
C39	C	-1.542840	0.710411	0.481602
C40	C	-1.473429	0.747163	0.550947
C41	C	-1.408389	0.710407	0.615870
C42	C	-1.412763	0.636903	0.611441
C43	C	-1.453143	0.966995	0.571397
C44	C	-1.448772	1.040504	0.575820
C45	C	-1.583226	1.040503	0.441552
C46	C	-1.587589	0.966998	0.437124
C47	C	-1.522553	0.930248	0.502051
N48	N	-1.468960	0.822297	0.555479
N49	N	-1.527028	0.855116	0.497524
C50	C	-1.509077	1.155485	0.515526
C51	C	-1.513809	1.077255	0.510904
C52	C	-1.497905	0.339079	0.253488
C53	C	-1.498088	0.338910	0.136702
C54	C	-1.637952	0.248904	1.131344
C55	C	-1.707865	0.203912	1.073805
C56	C	-1.707834	0.203936	0.964085
C57	C	-1.637884	0.248957	0.911901
C58	C	-1.567971	0.293950	0.969440
C59	C	-1.568008	0.293920	1.079163
C60	C	-1.428114	0.383957	0.974798
C61	C	-1.428138	0.383931	1.084518
C62	C	-1.358164	0.428979	0.922614
C63	C	-1.288244	0.473969	0.980153
C64	C	-1.288277	0.473943	1.089880
C65	C	-1.358225	0.428924	1.142057
H66	H	-0.888445	0.510527	0.279970
C67	C	-1.279423	0.644283	0.744602
C68	C	-1.341273	0.596503	0.682800
H69	H	-1.235288	0.619341	0.788656
H70	H	-1.323474	0.672907	0.786547
H71	H	-1.237547	0.672996	0.700512
H72	H	-1.383155	0.567793	0.726890
H73	H	-1.297217	0.567867	0.640852
C74	C	-0.725016	0.447023	0.498197
C75	C	-0.762631	0.428988	0.397220
H76	H	-0.650557	0.447037	0.498200
H77	H	-0.751859	0.413815	0.545919
H78	H	-0.747110	0.492455	0.518944
H79	H	-0.740543	0.383553	0.376477
H80	H	-0.735776	0.462198	0.349483
C81	C	-1.267954	0.568592	1.218901
C82	C	-1.211427	0.523405	1.153121
H83	H	-1.220508	0.599131	1.257933
H84	H	-1.309598	0.541778	1.265682
H85	H	-1.312080	0.595522	1.177693
H86	H	-1.167307	0.496471	1.194329
H87	H	-1.169765	0.550222	1.106334
C88	C	-1.255831	0.495915	0.427801
C89	C	-1.223294	0.428944	0.397196
H90	H	-1.330290	0.495902	0.427805
H91	H	-1.228991	0.529116	0.380064
H92	H	-1.230289	0.508141	0.496299
H93	H	-1.248830	0.416720	0.328694
H94	H	-1.250145	0.395733	0.444934
C95	C	-1.679674	0.644295	0.344902
C96	C	-1.623509	0.596511	0.400940
H97	H	-1.726784	0.619357	0.297847
H98	H	-1.632212	0.673008	0.306407
H99	H	-1.718130	0.672919	0.392450
H100	H	-1.585046	0.567890	0.353392
H101	H	-1.670977	0.567786	0.439437
H102	H	-1.637874	0.248979	0.822562
C103	C	-1.766252	0.084769	0.923192
C104	C	-1.784680	0.154479	0.900830
H105	H	-1.813690	0.054238	0.884135
H106	H	-1.776293	0.078314	0.995995
H107	H	-1.696279	0.074476	0.904593
H108	H	-1.854651	0.164774	0.919436
H109	H	-1.774648	0.160938	0.828010
C110	C	-0.738092	0.231145	0.554733
C111	C	-0.773605	0.249167	0.655707
H112	H	-0.663633	0.231146	0.554739
H113	H	-0.760883	0.264351	0.507012
H114	H	-0.765663	0.185708	0.533978
H115	H	-0.746040	0.294606	0.676460
H116	H	-0.750803	0.215959	0.703444
H117	H	-1.595800	0.740330	0.428739
C118	C	-1.653985	0.854323	0.370712
C119	C	-1.663886	0.926601	0.360896
H120	H	-1.701081	0.829385	0.323643
H121	H	-1.670049	0.842234	0.440578
H122	H	-1.584111	0.842332	0.354555
H123	H	-1.733759	0.938593	0.377061
H124	H	-1.647829	0.938695	0.291014
C125	C	-1.097456	0.170062	0.896275
C126	C	-1.124864	0.154775	0.791356
H127	H	-1.136543	0.139551	0.940128
H128	H	-1.112588	0.217357	0.914339
H129	H	-1.024649	0.163632	0.905514
H130	H	-1.197670	0.161209	0.782115
H131	H	-1.109740	0.107468	0.773286
H132	H	-1.636176	1.070433	0.388694
C133	C	-1.071644	0.593049	0.288207
C134	C	-1.102374	0.523327	0.261542
H135	H	-1.107015	0.623552	0.244355
H136	H	-0.998062	0.599482	0.278958
H137	H	-1.089033	0.603400	0.359391
H138	H	-1.084978	0.512974	0.190360
H139	H	-1.175972	0.516891	0.270782
C140	C	-1.457035	0.446947	0.766559
C141	C	-1.358174	0.428997	0.802008
H142	H	-1.457051	0.446951	0.692101
H143	H	-1.472423	0.492361	0.794081
H144	H	-1.508675	0.413695	0.789443
H145	H	-1.306534	0.462252	0.779130
H146	H	-1.342774	0.383577	0.774475
H147	H	-0.909386	0.167595	0.772946
H148	H	-1.392261	1.070426	0.632307
C149	C	-1.319778	0.974390	0.704531
C150	C	-1.381636	0.926606	0.642744
H151	H	-1.275623	0.949452	0.748569
H152	H	-1.363825	1.003009	0.746491
H153	H	-1.277924	1.003110	0.660431
H154	H	-1.423496	0.897890	0.686844
H155	H	-1.337584	0.897976	0.600780
C156	C	-1.226103	0.513974	0.814338
C157	C	-1.211361	0.523451	0.922792
H158	H	-1.178632	0.544520	0.778925
H159	H	-1.296053	0.524290	0.796988
H160	H	-1.213605	0.466685	0.793546
H161	H	-1.223867	0.570739	0.943585
H162	H	-1.141394	0.513140	0.940150
H163	H	-1.351877	0.740336	0.672337
C164	C	-1.714147	0.199863	1.285603
C165	C	-1.637988	0.248878	1.251950
H166	H	-1.714174	0.199851	1.360061
H167	H	-1.698728	0.154455	1.258081
H168	H	-1.781192	0.212050	1.261502
H169	H	-1.570942	0.236688	1.276045
H170	H	-1.653401	0.294295	1.279484
H171	H	-1.358252	0.428894	1.231396
C172	C	-1.273825	0.200180	0.726054
C173	C	-1.234268	0.249131	0.655686
H174	H	-1.348284	0.200173	0.726047
H175	H	-1.248289	0.212416	0.794541
H176	H	-1.251740	0.154749	0.705285
H177	H	-1.256347	0.294563	0.676460
H178	H	-1.259814	0.236899	0.587184
C179	C	-1.887865	0.169634	1.105559
C180	C	-1.784752	0.154425	1.131166
H181	H	-1.935330	0.139086	1.140974
H182	H	-1.897843	0.163209	1.031988
H183	H	-1.900355	0.216922	1.126366
H184	H	-1.772259	0.107139	1.110352
H185	H	-1.774770	0.160844	1.204754
