data_functionalizedCrystal
_audit_creation_method	'MofGen! by Chris Wilmer'
_symmetry_space_group_name_H-M	'P1'
_symmetry_Int_Tables_number	1
_symmetry_cell_setting	triclinic
loop_
_symmetry_equiv_pos_as_xyz
  x,y,z
_cell_length_a	14.519731
_cell_length_b	14.519731
_cell_length_c	9.730223
_cell_angle_alpha	89.997677
_cell_angle_beta	89.999699
_cell_angle_gamma	83.688853
loop_
_atom_site_label
_atom_site_type_symbol
_atom_site_fract_x
_atom_site_fract_y
_atom_site_fract_z
O1	O	1.223859	0.120980	-0.114296
O2	O	1.557193	0.454313	0.219037
O3	O	1.890526	0.787646	0.552371
O4	O	0.955386	0.135195	-0.114298
O5	O	1.288720	0.468529	0.219035
O6	O	1.622053	0.801862	0.552368
O7	O	1.096731	-0.006149	-0.114285
O8	O	1.430064	0.327184	0.219049
O9	O	1.763397	0.660518	0.552382
O10	O	1.082515	0.262324	-0.114310
O11	O	1.415848	0.595657	0.219024
O12	O	1.749181	0.928991	0.552357
O13	O	1.096729	-0.006145	0.114295
O14	O	1.430062	0.327188	0.447629
O15	O	1.763396	0.660521	0.780962
O16	O	0.955385	0.135199	0.114281
O17	O	1.288718	0.468532	0.447615
O18	O	1.622051	0.801866	0.780948
O19	O	1.223858	0.120983	0.114284
O20	O	1.557191	0.454316	0.447617
O21	O	1.890524	0.787650	0.780951
Zn22	Zn	1.089621	0.128092	0.150575
Zn23	Zn	1.422954	0.461425	0.483908
Zn24	Zn	1.756288	0.794758	0.817241
Zn25	Zn	1.089623	0.128087	-0.150589
Zn26	Zn	1.422956	0.461420	0.182744
Zn27	Zn	1.756290	0.794754	0.516077
O28	O	1.082513	0.262328	0.114270
O29	O	1.415847	0.595661	0.447603
O30	O	1.749180	0.928994	0.780937
C31	C	0.921026	0.134531	-0.000009
C32	C	1.254359	0.467864	0.333325
C33	C	1.587693	0.801198	0.666658
C34	C	0.818645	0.132535	-0.000009
C35	C	1.151979	0.465868	0.333324
C36	C	1.485312	0.799202	0.666657
C37	C	0.735501	0.130913	-0.000015
C38	C	1.068835	0.464247	0.333319
C39	C	1.402168	0.797580	0.666652
C40	C	0.631192	0.128887	-0.000015
C41	C	0.964526	0.462220	0.333318
C42	C	1.297859	0.795553	0.666652
C43	C	0.548053	0.127278	-0.000015
C44	C	0.881386	0.460612	0.333319
C45	C	1.214720	0.793945	0.666652
C46	C	0.443738	0.125252	-0.000018
C47	C	0.777071	0.458585	0.333316
C48	C	1.110404	0.791919	0.666649
C49	C	1.096064	-0.040507	0.000006
C50	C	1.429397	0.292827	0.333339
C51	C	1.762730	0.626160	0.666672
C52	C	1.094068	-0.142887	0.000006
C53	C	1.427401	0.190446	0.333340
C54	C	1.760734	0.523780	0.666673
C55	C	1.092446	-0.226031	0.000003
C56	C	1.425779	0.107302	0.333337
C57	C	1.759113	0.440635	0.666670
C58	C	1.090419	-0.330340	-0.000007
C59	C	1.423753	0.002993	0.333326
C60	C	1.757086	0.336326	0.666659
C61	C	1.088811	-0.413479	-0.000016
C62	C	1.422144	-0.080146	0.333317
C63	C	1.755478	0.253187	0.666651
C64	C	1.086785	-0.517795	-0.000024
C65	C	1.420118	-0.184462	0.333309
C66	C	1.753451	0.148872	0.666643
C67	C	1.258218	0.121648	-0.000009
C68	C	1.591551	0.454981	0.333324
C69	C	1.924885	0.788314	0.666658
C70	C	1.360598	0.123643	-0.000017
C71	C	1.693932	0.456977	0.333316
C72	C	2.027265	0.790310	0.666649
C73	C	1.083180	0.296685	-0.000023
C74	C	1.416513	0.630019	0.333310
C75	C	1.749847	0.963352	0.666644
C76	C	1.085176	0.399066	-0.000033
C77	C	1.418509	0.732399	0.333300
C78	C	1.751843	1.065732	0.666634
N79	N	1.089626	0.128094	0.356111
N80	N	1.422959	0.461428	0.689444
N81	N	1.756293	0.794761	1.022778
N82	N	1.089625	0.128077	-0.356126
N83	N	1.422958	0.461410	-0.022792
N84	N	1.756292	0.794744	0.310541
C85	C	1.152229	0.065528	0.428043
C86	C	1.485563	0.398861	0.761377
C87	C	1.818896	0.732195	1.094710
C88	C	1.152227	0.065517	0.571926
C89	C	1.485560	0.398850	0.905260
C90	C	1.818894	0.732184	1.238593
C91	C	1.027015	0.190646	0.571932
C92	C	1.360348	0.523980	0.905266
C93	C	1.693682	0.857313	1.238599
C94	C	1.027014	0.190652	0.428052
C95	C	1.360347	0.523986	0.761385
C96	C	1.693680	0.857319	1.094719
C97	C	1.214842	0.002970	0.356103
C98	C	1.548175	0.336303	0.689436
C99	C	1.881509	0.669637	1.022769
C100	C	1.277451	-0.059601	0.428035
C101	C	1.610784	0.273733	0.761368
C102	C	1.944118	0.607066	1.094701
C103	C	1.277449	-0.059612	0.571918
C104	C	1.610782	0.273722	0.905251
C105	C	1.944115	0.607055	1.238584
C106	C	1.214837	0.002948	0.643868
C107	C	1.548170	0.336281	0.977202
C108	C	1.881504	0.669614	1.310535
H109	H	1.214851	0.002975	0.238946
H110	H	1.548185	0.336309	0.572279
H111	H	1.881518	0.669642	0.905613
N112	N	0.963059	0.254565	0.354587
N113	N	1.296392	0.587898	0.687920
N114	N	1.629726	0.921232	1.021253
N115	N	0.907166	0.310420	0.418832
N116	N	1.240499	0.643753	0.752165
N117	N	1.573833	0.977087	1.085498
H118	H	0.861994	0.355559	0.366948
H119	H	1.195327	0.688892	0.700281
H120	H	1.528660	1.022225	1.033614
H121	H	0.976040	0.241581	0.630524
H122	H	1.309373	0.574914	0.963857
H123	H	1.642707	0.908247	1.297190
H124	H	1.328422	-0.110540	0.369445
H125	H	1.661756	0.222794	0.702779
H126	H	1.995089	0.556127	1.036112
H127	H	1.214834	0.002927	0.761028
H128	H	1.548168	0.336260	1.094361
H129	H	1.881501	0.669594	1.427694
H130	H	1.328421	-0.110565	0.630484
H131	H	1.661754	0.222768	0.963817
H132	H	1.995088	0.556102	1.297150
