data_functionalizedCrystal
_audit_creation_method	'MofGen! by Chris Wilmer'
_symmetry_space_group_name_H-M	'P1'
_symmetry_Int_Tables_number	1
_symmetry_cell_setting	triclinic
loop_
_symmetry_equiv_pos_as_xyz
  x,y,z
_cell_length_a	10.967926
_cell_length_b	10.654551
_cell_length_c	10.065875
_cell_angle_alpha	98.877446
_cell_angle_beta	93.120479
_cell_angle_gamma	84.600089
loop_
_atom_site_label
_atom_site_type_symbol
_atom_site_fract_x
_atom_site_fract_y
_atom_site_fract_z
O1	O	1.614716	0.219080	0.266289
O2	O	1.264702	0.222667	0.183966
O3	O	1.447756	0.038438	0.227019
O4	O	1.431662	0.403309	0.223236
O5	O	1.412851	0.073716	0.445799
O6	O	1.229797	0.257945	0.402745
O7	O	1.579811	0.254358	0.485069
Zn8	Zn	1.399262	0.261752	0.478643
Zn9	Zn	1.445251	0.215273	0.190392
O10	O	1.396757	0.438587	0.442015
C11	C	1.202431	0.237380	0.282814
C12	C	1.068888	0.228644	0.251404
C13	C	0.991269	0.243024	0.350735
C14	C	0.853245	0.233996	0.318274
C15	C	1.429122	0.009234	0.336128
C16	C	1.425587	-0.130344	0.335287
C17	C	1.442954	-0.215148	0.215643
C18	C	1.439620	-0.346293	0.214865
C19	C	1.401555	-0.307818	0.453388
C20	C	1.404881	-0.176674	0.454162
C21	C	1.463660	-0.168818	0.096768
C22	C	1.481031	-0.253624	-0.022886
C23	C	1.477697	-0.384769	-0.023664
C24	C	1.456993	-0.431109	0.095212
C25	C	1.642082	0.239645	0.386217
C26	C	1.775626	0.248379	0.417618
C27	C	1.415391	0.467790	0.332903
C28	C	1.418928	0.607367	0.333735
N29	N	1.367885	0.293473	0.675368
N30	N	1.476637	0.183542	-0.006332
C31	C	1.434326	0.226301	0.758774
C32	C	1.410187	0.250724	0.910264
H33	H	0.817521	0.214997	0.209194
H34	H	1.384700	-0.345559	0.550171
H35	H	1.390713	-0.107622	0.551581
H36	H	1.027000	0.262012	0.459807
O37	O	1.523395	0.136083	0.709972
C38	C	1.470784	0.042919	0.614941
H39	H	1.380408	0.085427	0.572469
H40	H	1.536145	0.009821	0.529750
H41	H	1.453258	-0.041823	0.665756
H42	H	0.811349	0.267371	0.526699
O43	O	1.501301	-0.208771	-0.138399
C44	C	1.616059	-0.261841	-0.186675
H45	H	1.642903	-0.354714	-0.145187
H46	H	1.609961	-0.281810	-0.301305
H47	H	1.688109	-0.191916	-0.152575
O48	O	1.026189	0.206208	0.121293
C49	C	0.941984	0.308408	0.094209
H50	H	0.960201	0.397345	0.168656
H51	H	0.952993	0.327586	-0.012636
H52	H	0.844668	0.282937	0.104705
O53	O	1.278627	0.383502	0.724097
C54	C	1.191023	0.325696	0.786137
H55	H	1.234613	0.232824	0.817642
H56	H	1.157207	0.392813	0.878730
H57	H	1.110411	0.304708	0.712210
H58	H	1.466381	-0.062035	0.097389
O59	O	1.320924	0.340758	0.958986
C60	C	1.233320	0.282952	1.021026
H61	H	1.276910	0.190081	1.052531
H62	H	1.199504	0.350069	1.113618
H63	H	1.152707	0.261964	0.947099
O64	O	1.565881	0.093410	0.945105
C65	C	1.680001	0.124352	1.006509
H66	H	1.664724	0.188719	1.106742
H67	H	1.737450	0.033222	1.024559
H68	H	1.730112	0.176134	0.937880
H69	H	1.491828	-0.453814	-0.121094
O70	O	1.453876	-0.558492	0.094643
C71	C	1.546325	-0.601145	0.184222
H72	H	1.571810	-0.517474	0.262480
H73	H	1.511347	-0.677330	0.236811
H74	H	1.630573	-0.643122	0.125815
