data_functionalizedCrystal
_audit_creation_method	'MofGen! by Chris Wilmer'
_symmetry_space_group_name_H-M	'P1'
_symmetry_Int_Tables_number	1
_symmetry_cell_setting	triclinic
loop_
_symmetry_equiv_pos_as_xyz
  x,y,z
_cell_length_a	10.686220
_cell_length_b	18.101397
_cell_length_c	10.685884
_cell_angle_alpha	94.389329
_cell_angle_beta	80.951928
_cell_angle_gamma	94.402554
loop_
_atom_site_label
_atom_site_type_symbol
_atom_site_fract_x
_atom_site_fract_y
_atom_site_fract_z
Zn1	Zn	1.885308	-0.184320	0.569010
Zn2	Zn	1.901490	-0.316957	0.356746
Zn3	Zn	1.689370	-0.201966	0.373032
Zn4	Zn	1.673012	-0.316969	0.585195
O5	O	1.787295	-0.255053	0.470996
O6	O	2.065074	-0.194524	0.527263
O7	O	1.886970	-0.309083	0.181282
O8	O	1.715435	-0.095987	0.399071
O9	O	2.076963	-0.291972	0.371313
O10	O	1.859390	-0.083023	0.543055
O11	O	1.731126	-0.224600	0.193247
O12	O	1.509580	-0.224612	0.414766
O13	O	1.687556	-0.291993	0.760673
O14	O	1.497562	-0.309104	0.570641
O15	O	1.843529	-0.194536	0.748781
O16	O	1.871109	-0.420597	0.387008
O17	O	1.703247	-0.420606	0.554849
C18	C	1.457516	-0.268775	0.496228
C19	C	1.316433	-0.274662	0.507052
C20	C	1.787191	-0.447471	0.470943
C21	C	1.787260	-0.529781	0.470953
C22	C	1.787413	-0.828861	0.471057
C23	C	1.892773	-0.797521	0.365214
C24	C	1.893093	-0.711878	0.365443
C25	C	1.787337	-0.680484	0.471004
C26	C	1.813310	-0.704444	0.602022
C27	C	1.814108	-0.790079	0.601429
C28	C	1.655729	-0.804383	0.447059
C29	C	1.656622	-0.718829	0.444022
C30	C	1.787291	-0.596627	0.470983
C31	C	1.787461	-0.912717	0.471087
C32	C	2.118361	-0.241278	0.445666
C33	C	2.259442	-0.235408	0.434872
C34	C	1.761913	-0.241298	0.802071
C35	C	1.751096	-0.235436	0.943155
C36	C	1.787432	-0.061881	0.471074
C37	C	1.787490	0.020437	0.471108
C38	C	1.812569	-0.268770	1.141209
C39	C	1.823386	-0.274626	1.000125
H40	H	1.878035	-0.695967	0.267973
H41	H	1.908121	-0.677671	0.624120
Cl42	Cl	1.962245	-0.812667	0.634654
Cl43	Cl	1.642771	-0.176708	1.034489
H44	H	1.318582	-0.197298	0.364793
H45	H	1.893559	-0.312659	0.940958
Cl46	Cl	1.616178	-0.846071	0.302942
Cl47	Cl	1.699901	-0.821624	0.726471
Cl48	Cl	1.869997	-0.837195	0.214231
Cl49	Cl	2.042891	-0.822865	0.388130
Cl50	Cl	1.225124	-0.333514	0.615244
H51	H	1.636851	-0.703784	0.347653
H52	H	1.990845	-0.686252	0.380506
Cl53	Cl	1.697756	-0.672654	0.726373
H54	H	1.574731	-0.697894	0.516292
H55	H	1.577354	-0.824719	0.524275
