data_functionalizedCrystal
_audit_creation_method	'MofGen! by Chris Wilmer'
_symmetry_space_group_name_H-M	'P1'
_symmetry_Int_Tables_number	1
_symmetry_cell_setting	triclinic
loop_
_symmetry_equiv_pos_as_xyz
  x,y,z
_cell_length_a	9.730223
_cell_length_b	11.026607
_cell_length_c	11.026607
_cell_angle_alpha	71.413983
_cell_angle_beta	89.999122
_cell_angle_gamma	90.001786
loop_
_atom_site_label
_atom_site_type_symbol
_atom_site_fract_x
_atom_site_fract_y
_atom_site_fract_z
O1	O	0.114257	1.726730	-0.533620
O2	O	0.114265	1.360150	-0.472856
O3	O	0.114257	1.513058	-0.319948
O4	O	0.114265	1.573822	-0.686528
O5	O	-0.114323	1.513047	-0.319946
O6	O	-0.114315	1.360138	-0.472854
O7	O	-0.114323	1.726718	-0.533618
Zn8	Zn	-0.150611	1.543426	-0.503236
Zn9	Zn	0.150553	1.543442	-0.503238
O10	O	-0.114315	1.573810	-0.686526
C11	C	-0.000024	1.312485	-0.461645
C12	C	-0.000020	1.170471	-0.428228
N13	N	-0.356148	1.543425	-0.503235
C14	C	-0.000032	1.501843	-0.272287
C15	C	-0.000026	1.468426	-0.130273
C16	C	-0.571961	1.611175	-0.435556
C17	C	-0.428078	1.611166	-0.435562
C18	C	-0.428107	1.475700	-0.570918
C19	C	-0.571987	1.475717	-0.570919
C20	C	-0.643885	1.678909	-0.367868
C21	C	-0.571935	1.746637	-0.300187
C22	C	-0.428052	1.746628	-0.300192
C23	C	-0.356119	1.678891	-0.367879
N24	N	0.356089	1.543452	-0.503231
C25	C	-0.000032	1.774384	-0.544828
C26	C	-0.000026	1.916398	-0.578245
C27	C	-0.000026	1.970047	-0.485976
C28	C	-0.000020	2.116826	-0.520512
C29	C	-0.000024	1.585026	-0.734187
C30	C	-0.000020	1.618443	-0.876200
C31	C	-0.000026	1.560695	-0.076624
C32	C	-0.000020	1.526160	0.070155
H33	H	-0.761041	1.678920	-0.367854
C34	C	-0.199901	1.678779	-0.368097
C35	C	-0.152311	1.604983	-0.441873
C36	C	-0.008416	1.604859	-0.442111
H37	H	-0.167181	1.643515	-0.282898
H38	H	-0.167291	1.764027	-0.403438
H39	H	-0.184907	1.519751	-0.406528
H40	H	-0.184993	1.640229	-0.527082
H41	H	0.024194	1.690108	-0.477452
H42	H	0.024290	1.569597	-0.356909
H43	H	0.023892	1.554800	-0.492177
C44	C	-0.000312	1.886478	-0.346525
C45	C	-0.117926	1.912684	-0.286069
C46	C	-0.118244	1.835717	-0.157609
H47	H	0.079307	1.904036	-0.305133
H48	H	-0.000389	1.798925	-0.341787
H49	H	-0.117837	2.000217	-0.290799
H50	H	-0.197564	1.895120	-0.327422
H51	H	-0.118321	1.748164	-0.152871
H52	H	-0.038620	1.853281	-0.116230
H53	H	-0.198050	1.853479	-0.116577
H54	H	-0.000037	1.665258	-0.139357
C55	C	-0.000231	1.328944	-0.046794
C56	C	-0.117812	1.268465	-0.073034
C57	C	-0.118038	1.139967	0.003826
H58	H	-0.000297	1.324081	0.040778
H59	H	0.079439	1.287657	-0.064448
H60	H	-0.197462	1.309740	-0.055371
H61	H	-0.117772	1.273291	-0.160591
H62	H	-0.038367	1.098680	-0.013828
H63	H	-0.118100	1.135118	0.091393
H64	H	-0.197808	1.098913	-0.013975
H65	H	-0.000024	2.179555	-0.625081
C66	C	0.000271	1.386702	0.153722
C67	C	0.117888	1.326258	0.127507
C68	C	0.118213	1.197799	0.204477
H69	H	-0.079346	1.345302	0.136172
H70	H	0.000350	1.381967	0.241274
H71	H	0.117797	1.330986	0.039975
H72	H	0.197524	1.367621	0.145063
H73	H	0.118292	1.193063	0.292030
H74	H	0.038591	1.156410	0.186922
H75	H	0.198020	1.156774	0.186710
C76	C	0.000189	1.757826	0.040019
C77	C	0.117769	1.782348	-0.037208
C78	C	0.118001	1.910726	-0.114414
H79	H	0.000260	1.811372	0.092559
H80	H	-0.079481	1.774723	-0.012529
H81	H	0.197420	1.765464	0.015334
H82	H	0.117724	1.728834	-0.089774
H83	H	0.038330	1.927623	-0.166962
H84	H	0.118068	1.964261	-0.061864
H85	H	0.197770	1.927378	-0.166830
C86	C	0.000197	1.999874	-0.717729
C87	C	0.117782	1.973620	-0.778192
C88	C	0.118026	2.050476	-0.906691
H89	H	0.000271	2.087447	-0.722595
H90	H	-0.079471	1.982225	-0.759023
H91	H	0.197429	1.991278	-0.736909
H92	H	0.117733	1.886062	-0.773362
H93	H	0.038358	2.032827	-0.947986
H94	H	0.118096	2.138044	-0.911544
H95	H	0.197798	2.032665	-0.947734
H96	H	0.000065	2.107743	-0.323658
H97	H	-0.630511	1.801795	-0.245087
H98	H	-0.369472	1.801784	-0.245094
H99	H	-0.369530	1.420549	-0.626025
H100	H	-0.630569	1.420572	-0.626027
