data_functionalizedCrystal
_audit_creation_method	'MofGen! by Chris Wilmer'
_symmetry_space_group_name_H-M	'P1'
_symmetry_Int_Tables_number	1
_symmetry_cell_setting	triclinic
loop_
_symmetry_equiv_pos_as_xyz
  x,y,z
_cell_length_a	16.974800
_cell_length_b	23.532407
_cell_length_c	15.455313
_cell_angle_alpha	92.643560
_cell_angle_beta	90.973911
_cell_angle_gamma	83.120189
loop_
_atom_site_label
_atom_site_type_symbol
_atom_site_fract_x
_atom_site_fract_y
_atom_site_fract_z
O1	O	1.048507	0.072597	0.001490
O2	O	1.548507	0.572597	0.501490
O3	O	0.819006	0.081294	-0.014629
O4	O	1.319006	0.581294	0.485371
O5	O	0.940676	-0.005947	-0.006068
O6	O	1.440676	0.494053	0.493932
O7	O	0.926836	0.159837	-0.007072
O8	O	1.426836	0.659837	0.492928
O9	O	0.933719	-0.000979	0.137705
O10	O	1.433719	0.499021	0.637705
O11	O	0.812049	0.086262	0.129143
O12	O	1.312049	0.586262	0.629143
O13	O	1.041549	0.077565	0.145262
O14	O	1.541549	0.577565	0.645262
Cu15	Cu	0.926164	0.082367	0.150330
Cu16	Cu	1.426164	0.582367	0.650330
Cu17	Cu	0.934392	0.076491	-0.019697
Cu18	Cu	1.434392	0.576491	0.480303
O19	O	0.919879	0.164805	0.136701
O20	O	1.419879	0.664805	0.636701
C21	C	0.786171	0.083356	0.055195
C22	C	1.286171	0.583356	0.555195
C23	C	0.698699	0.082092	0.049052
C24	C	1.198699	0.582092	0.549052
C25	C	0.653817	0.084205	0.124539
C26	C	1.153817	0.584205	0.624539
C27	C	0.571630	0.083009	0.118770
C28	C	1.071630	0.583009	0.618770
C29	C	0.534325	0.079703	0.037513
C30	C	1.034325	0.579703	0.537513
C31	C	0.579214	0.077588	-0.037979
C32	C	1.079214	0.577588	0.462021
C33	C	0.661401	0.078781	-0.032209
C34	C	1.161401	0.578781	0.467791
C35	C	0.288931	0.075843	0.011851
C36	C	0.788931	0.575843	0.511851
C37	C	0.206738	0.074653	0.006087
C38	C	0.706738	0.574653	0.506087
C39	C	0.199160	0.080072	0.162836
C40	C	0.699160	0.580072	0.662836
C41	C	0.281348	0.081268	0.168599
C42	C	0.781348	0.581268	0.668599
C43	C	0.326230	0.079150	0.093107
C44	C	0.826230	0.579150	0.593107
N45	N	0.450317	0.078482	0.031614
N46	N	0.950317	0.578482	0.531614
N47	N	0.410238	0.080367	0.099007
N48	N	0.910238	0.580367	0.599007
C49	C	0.936845	-0.024681	0.065796
C50	C	1.436845	0.475319	0.565796
C51	C	0.935785	-0.087903	0.065728
C52	C	1.435785	0.412097	0.565728
C53	C	1.001143	-0.486636	0.070271
C54	C	1.501143	0.013364	0.570271
C55	C	1.000159	-0.546042	0.070195
C56	C	1.500159	-0.046042	0.570195
O57	O	1.060746	-0.582443	0.074419
O58	O	1.560746	-0.082443	0.574419
N59	N	0.927825	-0.569080	0.065116
N60	N	1.427825	-0.069080	0.565116
C61	C	0.856472	-0.532709	0.060102
C62	C	1.356472	-0.032709	0.560102
O63	O	0.794856	-0.557759	0.055774
O64	O	1.294856	-0.057759	0.555774
C65	C	0.857457	-0.473304	0.060172
C66	C	1.357457	0.026696	0.560172
C67	C	0.929795	-0.450269	0.065261
C68	C	1.429795	0.049731	0.565261
C69	C	1.073475	-0.463601	0.075359
C70	C	1.573475	0.036399	0.575359
C71	C	1.074458	-0.404199	0.075436
C72	C	1.574458	0.095801	0.575436
C73	C	1.003110	-0.367832	0.070426
C74	C	1.503110	0.132168	0.570426
C75	C	0.930778	-0.390867	0.065338
C76	C	1.430778	0.109133	0.565338
C77	C	0.786105	-0.436934	0.055153
C78	C	1.286105	0.063066	0.555153
C79	C	0.787096	-0.377526	0.055222
C80	C	1.287096	0.122474	0.555222
C81	C	0.859434	-0.354491	0.060311
C82	C	1.359434	0.145509	0.560311
C83	C	0.860414	-0.295098	0.060405
C84	C	1.360414	0.204902	0.560405
N85	N	0.932747	-0.272061	0.065485
N86	N	1.432747	0.227939	0.565485
C87	C	1.004095	-0.308427	0.070495
C88	C	1.504095	0.191573	0.570495
C89	C	0.854408	-0.657463	0.059955
C90	C	1.354408	-0.157463	0.559955
C91	C	0.853422	-0.716866	0.059892
C92	C	1.353422	-0.216866	0.559892
C93	C	0.997109	-0.730196	0.069983
C94	C	1.497109	-0.230196	0.569983
C95	C	0.998094	-0.670791	0.070053
C96	C	1.498094	-0.170791	0.570053
C97	C	0.926742	-0.634425	0.065035
C98	C	1.426742	-0.134425	0.565035
C99	C	1.006156	-0.183678	0.070658
C100	C	1.506156	0.316322	0.570658
C101	C	1.007133	-0.124270	0.070738
C102	C	1.507133	0.375730	0.570738
C103	C	0.863446	-0.110946	0.060643
C104	C	1.363446	0.389054	0.560643
C105	C	0.862468	-0.170349	0.060567
C106	C	1.362468	0.329651	0.560567
C107	C	0.933830	-0.206714	0.065572
C108	C	1.433830	0.293286	0.565572
O109	O	0.799859	-0.258663	0.056181
O110	O	1.299859	0.241337	0.556181
O111	O	1.065701	-0.283369	0.074812
O112	O	1.565701	0.216631	0.574812
C113	C	1.074384	0.075502	0.075436
C114	C	1.574384	0.575502	0.575436
C115	C	1.161856	0.076766	0.081573
C116	C	1.661856	0.576766	0.581573
C117	C	0.923710	0.183539	0.064835
C118	C	1.423710	0.683539	0.564835
C119	C	0.924771	0.246761	0.064897
C120	C	1.424771	0.746761	0.564897
N121	N	0.920382	0.086499	0.269919
N122	N	1.420382	0.586499	0.769919
N123	N	0.940179	0.072355	-0.139286
N124	N	1.440179	0.572355	0.360714
C125	C	0.972090	0.049450	0.318952
C126	C	1.472090	0.549450	0.818952
C127	C	0.967725	0.052580	0.409452
C128	C	1.467725	0.552580	0.909452
C129	C	0.911655	0.092763	0.450919
C130	C	1.411655	0.592763	0.950919
C131	C	0.859942	0.129813	0.401880
C132	C	1.359942	0.629813	0.901880
C133	C	0.864304	0.126680	0.311381
C134	C	1.364304	0.626680	0.811381
C135	C	0.892828	0.106272	0.721176
C136	C	1.392828	0.606272	1.221176
C137	C	0.888472	0.109404	0.811682
C138	C	1.388472	0.609404	1.311682
C139	C	0.996254	0.032170	0.819248
C140	C	1.496254	0.532170	1.319248
C141	C	1.000614	0.029042	0.728747
C142	C	1.500614	0.529042	1.228747
C143	C	0.948898	0.066091	0.679715
C144	C	1.448898	0.566091	1.179715
N145	N	0.907194	0.095964	0.543426
N146	N	1.407194	0.595964	1.043426
N147	N	0.953356	0.062886	0.587211
N148	N	1.453356	0.562886	1.087211
H149	H	0.325465	0.074117	-0.049620
H150	H	0.825465	0.574117	0.450380
F151	F	1.082107	-0.222373	0.075985
F152	F	1.582107	0.277627	0.575985
F153	F	1.073045	-0.768911	0.075311
F154	F	1.573045	-0.268911	0.575311
H155	H	0.822197	0.156848	0.271459
H156	H	1.322197	0.656848	0.771459
H157	H	1.017750	0.016732	0.285196
H158	H	1.517750	0.516732	0.785196
F159	F	1.075085	-0.646282	0.075469
F160	F	1.575085	-0.146282	0.575469
F161	F	0.539513	0.074053	-0.124459
F162	F	1.039513	0.574053	0.375541
H163	H	0.805357	-0.081326	0.056566
H164	H	1.305357	0.418674	0.556566
H165	H	1.009828	0.022412	0.449375
H166	H	1.509828	0.522412	0.949375
F167	F	0.800264	0.172576	0.446012
F168	F	1.300264	0.672576	0.946012
F169	F	0.523865	0.085266	0.199113
F170	F	1.023865	0.585266	0.699113
F171	F	1.060289	-0.013724	0.684616
F172	F	1.560289	0.486276	1.184616
F173	F	1.084128	-0.099759	0.076154
F174	F	1.584128	0.400241	0.576154
F175	F	0.778459	-0.618763	0.054622
F176	F	1.278459	-0.118763	0.554622
H177	H	0.311716	0.083957	0.234767
H178	H	0.811716	0.583957	0.734767
F179	F	0.693511	0.087727	0.211024
F180	F	1.193511	0.587727	0.711024
H181	H	0.162609	0.081796	0.224297
H182	H	0.662609	0.581796	0.724297
F183	F	1.051288	-0.007259	0.871436
F184	F	1.551288	0.492741	1.371436
F185	F	0.167038	0.071136	-0.080402
F186	F	0.667038	0.571136	0.419598
F187	F	0.828792	0.152175	0.855808
F188	F	1.328792	0.652175	1.355808
F189	F	0.709168	0.076529	-0.112552
F190	F	1.209168	0.576529	0.387448
F191	F	0.709112	-0.461436	0.049733
F192	F	1.209112	0.038564	0.549733
F193	F	0.837791	0.145703	0.669000
F194	F	1.337791	0.645703	1.169000
H195	H	1.133363	-0.385450	0.079576
H196	H	1.633363	0.114550	0.579576
F197	F	0.711150	-0.338825	0.049880
F198	F	1.211150	0.161175	0.549880
F199	F	0.776430	-0.741374	0.054491
F200	F	1.276430	-0.241374	0.554491
F201	F	1.149420	-0.502298	0.080691
F202	F	1.649420	-0.002298	0.580691
H203	H	0.803564	-0.189103	0.056447
H204	H	1.303564	0.310897	0.556447
