data_functionalizedCrystal
_audit_creation_method	'MofGen! by Chris Wilmer'
_symmetry_space_group_name_H-M	'P1'
_symmetry_Int_Tables_number	1
_symmetry_cell_setting	triclinic
loop_
_symmetry_equiv_pos_as_xyz
  x,y,z
_cell_length_a	14.971482
_cell_length_b	16.974813
_cell_length_c	13.448316
_cell_angle_alpha	86.338833
_cell_angle_beta	89.993798
_cell_angle_gamma	83.503742
loop_
_atom_site_label
_atom_site_type_symbol
_atom_site_fract_x
_atom_site_fract_y
_atom_site_fract_z
O1	O	1.186698	0.103029	-0.090968
O2	O	1.686698	0.603029	0.409032
O3	O	0.926268	0.115372	-0.091966
O4	O	1.426268	0.615372	0.408034
O5	O	1.063743	-0.005896	-0.082200
O6	O	1.563743	0.494104	0.417800
O7	O	1.049223	0.224297	-0.100734
O8	O	1.549223	0.724297	0.399266
O9	O	1.063726	-0.005904	0.083184
O10	O	1.563726	0.494096	0.583184
O11	O	0.926251	0.115364	0.073418
O12	O	1.426251	0.615364	0.573418
O13	O	1.186681	0.103022	0.074416
O14	O	1.686681	0.603022	0.574416
Cu15	Cu	1.056464	0.109192	0.089018
Cu16	Cu	1.556464	0.609192	0.589018
Cu17	Cu	1.056485	0.109201	-0.106568
Cu18	Cu	1.556485	0.609201	0.393432
O19	O	1.049206	0.224290	0.064650
O20	O	1.549206	0.724290	0.564650
C21	C	0.892936	0.114817	-0.009230
C22	C	1.392936	0.614817	0.490770
C23	C	0.793643	0.113164	-0.009099
C24	C	1.293643	0.613164	0.490901
C25	C	0.746990	0.112382	0.081116
C26	C	1.246990	0.612382	0.581116
C27	C	0.653696	0.110816	0.081243
C28	C	1.153696	0.610816	0.581243
C29	C	0.607054	0.110039	-0.008846
C30	C	1.107054	0.610039	0.491154
C31	C	0.653713	0.110819	-0.099068
C32	C	1.153713	0.610819	0.400932
C33	C	0.747007	0.112379	-0.099193
C34	C	1.247007	0.612379	0.400807
C35	C	0.459259	0.107570	-0.098800
C36	C	0.959259	0.607570	0.401200
C37	C	0.365959	0.106012	-0.098675
C38	C	0.865959	0.606012	0.401325
C39	C	0.365948	0.106008	0.081637
C40	C	0.865948	0.606008	0.581637
C41	C	0.459242	0.107567	0.081511
C42	C	0.959242	0.607567	0.581511
C43	C	0.505894	0.108349	-0.008711
C44	C	1.005894	0.608349	0.491289
C45	C	1.063182	-0.035359	0.002862
C46	C	1.563182	0.464641	0.502862
C47	C	1.061525	-0.123138	0.009922
C48	C	1.561525	0.376862	0.509922
C49	C	1.060758	-0.164368	-0.076911
C50	C	1.560758	0.335632	0.423089
C51	C	1.059195	-0.246844	-0.070273
C52	C	1.559195	0.253156	0.429727
C53	C	1.058406	-0.288090	0.023199
C54	C	1.558406	0.211910	0.523199
C55	C	1.059170	-0.246854	0.110038
C56	C	1.559170	0.253146	0.610038
C57	C	1.060727	-0.164378	0.103400
C58	C	1.560727	0.335622	0.603400
C59	C	1.053745	-0.534757	0.052720
C60	C	1.553745	-0.034757	0.552720
C61	C	1.052191	-0.617239	0.059352
C62	C	1.552191	-0.117239	0.559352
C63	C	1.052214	-0.617223	-0.120960
C64	C	1.552214	-0.117223	0.379040
C65	C	1.053776	-0.534746	-0.127590
C66	C	1.553776	-0.034746	0.372410
C67	C	1.054536	-0.493517	-0.040751
C68	C	1.554536	0.006483	0.459249
N69	N	1.056812	-0.372395	0.029985
N70	N	1.556812	0.127605	0.529985
N71	N	1.056124	-0.409213	-0.047539
N72	N	1.556124	0.090787	0.452461
C73	C	1.220013	0.103577	-0.008322
C74	C	1.720013	0.603577	0.491678
C75	C	1.319307	0.105229	-0.008460
C76	C	1.819307	0.605229	0.491540
C77	C	1.049767	0.253753	-0.020414
C78	C	1.549767	0.753753	0.479586
C79	C	1.051424	0.341531	-0.027481
C80	C	1.551424	0.841531	0.472519
N81	N	1.056457	0.109186	0.226583
N82	N	1.556457	0.609186	0.726583
N83	N	1.056500	0.109202	-0.244132
N84	N	1.556500	0.609202	0.255868
C85	C	1.117349	0.055510	0.282946
C86	C	1.617349	0.555510	0.782946
C87	C	1.117355	0.055510	0.387049
C88	C	1.617355	0.555510	0.887049
C89	C	1.056471	0.109189	0.434787
C90	C	1.556471	0.609189	0.934787
C91	C	0.995572	0.162867	0.378417
C92	C	1.495572	0.662867	0.878417
C93	C	0.995563	0.162863	0.274316
C94	C	1.495563	0.662863	0.774316
C95	C	0.995597	0.162872	0.595397
C96	C	1.495597	0.662872	1.095397
C97	C	0.995607	0.162877	0.699505
C98	C	1.495607	0.662877	1.199505
C99	C	1.117389	0.055519	0.708130
C100	C	1.617389	0.555519	1.208130
C101	C	1.117380	0.055515	0.604029
C102	C	1.617380	0.555515	1.104029
C103	C	1.056481	0.109194	0.547666
C104	C	1.556481	0.609194	1.047666
H105	H	0.497214	0.108205	0.154869
H106	H	0.997214	0.608205	0.654869
Cl107	Cl	1.054686	-0.482935	0.161891
Cl108	Cl	1.554686	0.017065	0.661891
Cl109	Cl	1.054770	-0.482900	-0.245103
Cl110	Cl	1.554770	0.017100	0.254897
Cl111	Cl	1.193947	-0.011961	0.778990
Cl112	Cl	1.693947	0.488039	1.278990
Cl113	Cl	0.805656	0.113359	-0.212611
Cl114	Cl	1.305656	0.613359	0.287389
Cl115	Cl	1.051205	-0.669090	0.176868
Cl116	Cl	1.551205	-0.169090	0.676868
Cl117	Cl	1.061756	-0.112525	-0.194424
Cl118	Cl	1.561756	0.387475	0.305576
H119	H	0.615731	0.110181	-0.172419
H120	H	1.115731	0.610181	0.327581
Cl121	Cl	0.517907	0.108551	-0.212224
Cl122	Cl	1.017907	0.608551	0.287776
H123	H	1.051594	-0.650801	-0.191660
H124	H	1.551594	-0.150801	0.308340
H125	H	1.058574	-0.280411	-0.140982
H126	H	1.558574	0.219589	0.359018
H127	H	0.784958	0.113021	0.154477
H128	H	1.284958	0.613021	0.654477
Cl129	Cl	0.919027	0.230347	0.438429
Cl130	Cl	1.419027	0.730347	0.938429
Cl131	Cl	0.919062	0.230361	0.759510
Cl132	Cl	1.419062	0.730361	1.259510
H133	H	0.327959	0.105372	0.155099
H134	H	0.827959	0.605372	0.655099
Cl135	Cl	1.193898	-0.011973	0.222943
Cl136	Cl	1.693898	0.488027	0.722943
H137	H	1.166960	0.011809	0.565161
H138	H	1.666960	0.511809	1.065161
Cl139	Cl	0.307325	0.105033	-0.211931
Cl140	Cl	0.807325	0.605033	0.288069
Cl141	Cl	1.193906	-0.011970	0.457907
Cl142	Cl	1.693906	0.488030	0.957907
H143	H	0.946004	0.206581	0.549509
H144	H	1.446004	0.706581	1.049509
H145	H	1.058522	-0.280442	0.186145
H146	H	1.558522	0.219558	0.686145
Cl147	Cl	0.595049	0.109847	0.194660
Cl148	Cl	1.095049	0.609847	0.694660
H149	H	0.945977	0.206570	0.228426
H150	H	1.445977	0.706570	0.728426
Cl151	Cl	1.061690	-0.112546	0.212566
Cl152	Cl	1.561690	0.387454	0.712566
