data_functionalizedCrystal
_audit_creation_method	'MofGen! by Chris Wilmer'
_symmetry_space_group_name_H-M	'P1'
_symmetry_Int_Tables_number	1
_symmetry_cell_setting	triclinic
loop_
_symmetry_equiv_pos_as_xyz
  x,y,z
_cell_length_a	14.519709
_cell_length_b	27.732048
_cell_length_c	12.996460
_cell_angle_alpha	89.988908
_cell_angle_beta	90.000034
_cell_angle_gamma	83.161400
loop_
_atom_site_label
_atom_site_type_symbol
_atom_site_fract_x
_atom_site_fract_y
_atom_site_fract_z
O1	O	1.222766	0.063362	-0.085445
O2	O	0.954160	0.070824	-0.085477
O3	O	1.096805	-0.003264	-0.085440
O4	O	1.080121	0.137450	-0.085482
O5	O	1.096791	-0.003268	0.085693
O6	O	0.954145	0.070820	0.085656
O7	O	1.222752	0.063358	0.085689
Cu8	Cu	1.088447	0.067089	0.101299
Cu9	Cu	1.088464	0.067093	-0.101087
O10	O	1.080106	0.137446	0.085652
C11	C	0.919799	0.070474	0.000086
C12	C	0.817435	0.069432	0.000074
C13	C	0.442606	0.065596	0.000122
C14	C	0.546896	0.066661	0.000108
C15	C	0.630018	0.067514	0.000097
C16	C	0.734314	0.068579	0.000085
C17	C	1.096448	-0.021274	0.000129
C18	C	1.095393	-0.074934	0.000138
C19	C	1.173048	-0.413378	0.000094
C20	C	1.169135	-0.615057	0.000080
O21	O	1.240145	-0.645973	0.000043
N22	N	1.084552	-0.634585	0.000070
C23	C	1.000941	-0.603690	0.000058
O24	O	0.928909	-0.624927	0.000039
C25	C	1.004855	-0.402012	0.000065
C26	C	1.089444	-0.382487	0.000085
C27	C	1.257630	-0.393853	0.000113
C28	C	1.258607	-0.343436	0.000122
C29	C	1.175003	-0.312545	0.000113
C30	C	1.090421	-0.332071	0.000094
C31	C	0.921246	-0.371118	0.000045
C32	C	0.922232	-0.320696	0.000045
C33	C	1.006820	-0.301171	0.000064
C34	C	1.007794	-0.250763	0.000094
N35	N	1.092377	-0.231235	0.000104
C36	C	1.175981	-0.262126	0.000113
C37	C	0.998893	-0.709574	0.000056
C38	C	0.997914	-0.759993	0.000056
C39	C	1.166108	-0.771356	0.000076
C40	C	1.167086	-0.720936	0.000083
C41	C	1.083476	-0.690045	0.000065
C42	C	1.178028	-0.156247	0.000133
C43	C	1.178998	-0.105825	0.000147
C44	C	1.010804	-0.094466	0.000122
C45	C	1.009833	-0.144883	0.000114
C46	C	1.093453	-0.175773	0.000116
O47	O	0.936822	-0.219818	0.000119
O48	O	1.248004	-0.240879	0.000109
C49	C	1.172071	-0.463795	0.000085
C50	C	1.087489	-0.483320	0.000066
C51	C	1.003885	-0.452429	0.000057
C52	C	1.086510	-0.533740	0.000066
C53	C	1.170115	-0.564631	0.000076
C54	C	1.254698	-0.545103	0.000085
C55	C	1.255675	-0.494686	0.000094
C56	C	0.919302	-0.471957	0.000048
C57	C	0.918331	-0.522375	0.000039
C58	C	1.001936	-0.553266	0.000049
C59	C	1.257113	0.063708	0.000124
C60	C	1.359476	0.064750	0.000129
C61	C	1.080464	0.155456	0.000080
C62	C	1.081518	0.209116	0.000065
N63	N	1.088442	0.067085	0.243646
N64	N	1.088477	0.067093	-0.243434
C65	C	1.088463	0.067094	0.663460
C66	C	1.088454	0.067093	0.546655
C67	C	1.088453	0.067090	0.453557
C68	C	1.088443	0.067088	0.336744
H69	H	1.246119	-0.181392	0.000131
H70	H	1.324556	-0.478794	0.000110
H71	H	1.325714	-0.419000	0.000117
H72	H	1.327488	-0.327544	0.000134
O73	O	0.915721	-0.778933	-0.000135
C74	C	0.771650	-0.784602	-0.088789
C75	C	0.864713	-0.763132	-0.088705
H76	H	0.730375	-0.771828	-0.160379
H77	H	0.785245	-0.825947	-0.088854
H78	H	0.730405	-0.771899	-0.017143
H79	H	0.906005	-0.775799	-0.160338
H80	H	0.851052	-0.721790	-0.088586
H81	H	1.235965	-0.705043	0.000098
O82	O	1.247299	-0.801388	-0.000106
C83	C	1.343760	-0.864924	-0.088749
C84	C	1.251794	-0.830931	-0.088672
H85	H	1.347416	-0.888826	-0.160336
H86	H	1.404425	-0.842336	-0.088815
H87	H	1.347494	-0.888800	-0.017101
H88	H	1.247969	-0.807049	-0.160308
H89	H	1.191172	-0.853549	-0.088552
O90	O	0.840925	-0.290759	0.000073
C91	C	0.673998	-0.284813	-0.000027
C92	C	0.766006	-0.318771	-0.000037
H93	H	0.613402	-0.307448	-0.000138
H94	H	0.670171	-0.260941	0.071611
H95	H	0.670310	-0.260907	-0.071628
H96	H	0.769755	-0.342708	0.071515
H97	H	0.769794	-0.342611	-0.071722
H98	H	0.852365	-0.387006	0.000023
O99	O	0.929510	-0.064523	0.000150
C100	C	0.762581	-0.058559	0.000032
C101	C	0.854577	-0.092526	0.000037
H102	H	0.701973	-0.081185	-0.000081
H103	H	0.758758	-0.034683	0.071665
H104	H	0.758910	-0.034655	-0.071573
H105	H	0.858310	-0.116460	0.071594
H106	H	0.858362	-0.116369	-0.071644
O107	O	0.917691	-0.679550	-0.000137
C108	C	0.821188	-0.616010	-0.088771
C109	C	0.913173	-0.649987	-0.088699
H110	H	0.817514	-0.592092	-0.160355
H111	H	0.760540	-0.638610	-0.088842
H112	H	0.817441	-0.592149	-0.017119
H113	H	0.917010	-0.673854	-0.160338
H114	H	0.973777	-0.627358	-0.088575
O115	O	0.927726	-0.163912	-0.000034
C116	C	0.828996	-0.214202	-0.088760
C117	C	0.922024	-0.192698	-0.088696
H118	H	0.824347	-0.237472	-0.160447
H119	H	0.824312	-0.237567	-0.017199
H120	H	0.769424	-0.183454	-0.088710
H121	H	0.981649	-0.223415	-0.088783
H122	H	0.926626	-0.169321	-0.160251
H123	H	1.322771	-0.570263	0.000097
H124	H	0.849444	-0.538266	0.000032
H125	H	0.851220	-0.446810	0.000038
H126	H	1.247882	-0.089931	0.000166
