data_functionalizedCrystal
_audit_creation_method	'MofGen! by Chris Wilmer'
_symmetry_space_group_name_H-M	'P1'
_symmetry_Int_Tables_number	1
_symmetry_cell_setting	triclinic
loop_
_symmetry_equiv_pos_as_xyz
  x,y,z
_cell_length_a	12.827893
_cell_length_b	12.827892
_cell_length_c	10.686551
_cell_angle_alpha	94.405282
_cell_angle_beta	94.394897
_cell_angle_gamma	90.015363
loop_
_atom_site_label
_atom_site_type_symbol
_atom_site_fract_x
_atom_site_fract_y
_atom_site_fract_z
Zn1	Zn	1.643032	-0.370622	0.713446
Zn2	Zn	1.629511	-0.558813	0.502446
Zn3	Zn	1.454859	-0.384086	0.502463
Zn4	Zn	1.468256	-0.545325	0.713398
O5	O	1.548914	-0.464712	0.607938
O6	O	1.787475	-0.395596	0.685469
O7	O	1.595078	-0.546915	0.325867
O8	O	1.479872	-0.236063	0.530478
O9	O	1.777541	-0.533859	0.530448
O10	O	1.618122	-0.226170	0.685486
O11	O	1.466762	-0.418544	0.325880
O12	O	1.310399	-0.405465	0.530431
O13	O	1.502705	-0.510871	0.889985
O14	O	1.320242	-0.523927	0.685404
O15	O	1.631112	-0.382517	0.890020
O16	O	1.608068	-0.703262	0.530401
O17	O	1.489595	-0.693352	0.685387
C18	C	1.277403	-0.464694	0.607915
C19	C	1.161251	-0.464710	0.607935
C20	C	0.994314	-0.523450	0.684521
C21	C	1.114363	-0.523435	0.684502
C22	C	1.548848	-0.736223	0.607915
C23	C	1.548918	-0.852374	0.607947
C24	C	1.490276	-0.899294	0.684582
C25	C	1.490347	-1.019342	0.684617
C26	C	1.821486	-0.464730	0.607962
C27	C	1.937640	-0.464738	0.607972
C28	C	1.569911	-0.443688	0.937069
C29	C	1.578859	-0.434729	1.077324
C30	C	1.549011	-0.192138	0.607989
C31	C	1.549052	-0.075984	0.608011
C32	C	1.528059	-0.485579	0.280088
C33	C	1.519314	-0.494244	0.139833
H34	H	0.977994	-0.414466	0.542417
H35	H	1.440012	-0.850591	0.750163
H36	H	1.599174	-0.901080	0.542359
H37	H	1.440145	-1.059709	0.750233
H38	H	0.953958	-0.573730	0.750067
H39	H	1.112538	-0.414438	0.542400
H40	H	1.163083	-0.573695	0.750045
H41	H	1.461492	-0.552054	1.086049
H42	H	1.636692	-0.376922	1.131114
H43	H	1.599265	-1.035624	0.542401
