data_functionalizedCrystal
_audit_creation_method	'MofGen! by Chris Wilmer'
_symmetry_space_group_name_H-M	'P1'
_symmetry_Int_Tables_number	1
_symmetry_cell_setting	triclinic
loop_
_symmetry_equiv_pos_as_xyz
  x,y,z
_cell_length_a	10.489746
_cell_length_b	19.288867
_cell_length_c	17.766277
_cell_angle_alpha	90.007910
_cell_angle_beta	90.005469
_cell_angle_gamma	83.839185
loop_
_atom_site_label
_atom_site_type_symbol
_atom_site_fract_x
_atom_site_fract_y
_atom_site_fract_z
O1	O	0.159120	0.922421	0.062568
O2	O	0.492453	1.255754	0.395902
O3	O	0.825786	1.589088	0.729235
O4	O	0.180580	0.720305	0.062576
O5	O	0.513914	1.053638	0.395909
O6	O	0.847247	1.386971	0.729242
O7	O	-0.015851	0.825960	0.062566
O8	O	0.317482	1.159293	0.395900
O9	O	0.650815	1.492627	0.729233
O10	O	0.355551	0.816766	0.062578
O11	O	0.688885	1.150099	0.395911
O12	O	1.022218	1.483432	0.729245
O13	O	-0.015857	0.825941	-0.062622
O14	O	0.317476	1.159274	0.270711
O15	O	0.650810	1.492608	0.604044
O16	O	0.180575	0.720285	-0.062613
O17	O	0.513908	1.053619	0.270721
O18	O	0.847241	1.386952	0.604054
O19	O	0.159114	0.922402	-0.062620
O20	O	0.492447	1.255735	0.270713
O21	O	0.825781	1.589068	0.604047
Cu22	Cu	0.169844	0.821342	-0.074047
Cu23	Cu	0.503177	1.154675	0.259286
Cu24	Cu	0.836511	1.488009	0.592620
Cu25	Cu	0.169850	0.821365	0.074003
Cu26	Cu	0.503184	1.154698	0.407336
Cu27	Cu	0.836517	1.488031	0.740669
O28	O	0.355546	0.816746	-0.062611
O29	O	0.688879	1.150080	0.270723
O30	O	1.022212	1.483413	0.604056
C31	C	0.179887	0.694414	-0.000018
C32	C	0.513220	1.027747	0.333316
C33	C	0.846553	1.361081	0.666649
C34	C	0.177812	0.617297	-0.000015
C35	C	0.511146	0.950630	0.333318
C36	C	0.844479	1.283963	0.666652
C37	C	0.162875	0.061641	0.068216
C38	C	0.496208	0.394975	0.401549
C39	C	0.829542	0.728308	0.734883
C40	C	0.164816	0.134102	0.068219
C41	C	0.498150	0.467435	0.401552
C42	C	0.831483	0.800769	0.734886
C43	C	0.165790	0.170327	-0.000021
C44	C	0.499123	0.503660	0.333312
C45	C	0.832457	0.836993	0.666646
C46	C	0.164789	0.134087	-0.068269
C47	C	0.498123	0.467420	0.265064
C48	C	0.831456	0.800754	0.598398
C49	C	0.162835	0.061629	-0.068270
C50	C	0.496169	0.394962	0.265063
C51	C	0.829502	0.728295	0.598397
C52	C	0.243586	0.280168	-0.052299
C53	C	0.576919	0.613502	0.281034
C54	C	0.910252	0.946835	0.614367
C55	C	0.245548	0.352625	-0.052296
C56	C	0.578881	0.685958	0.281038
C57	C	0.912214	1.019292	0.614371
C58	C	0.171811	0.393813	-0.000021
C59	C	0.505145	0.727146	0.333312
C60	C	0.838478	1.060479	0.666646
C61	C	0.096129	0.362534	0.052263
C62	C	0.429463	0.695867	0.385596
C63	C	0.762796	1.029201	0.718929
C64	C	0.094175	0.290076	0.052262
C65	C	0.427509	0.623409	0.385595
C66	C	0.760842	0.956742	0.718928
C67	C	0.167908	0.248896	-0.000028
C68	C	0.501241	0.582229	0.333306
C69	C	0.834575	0.915562	0.666639
C70	C	0.174908	0.508614	0.068226
C71	C	0.508241	0.841948	0.401559
C72	C	0.841574	1.175281	0.734892
C73	C	0.176841	0.581077	0.068226
C74	C	0.510174	0.914410	0.401559
C75	C	0.843508	1.247743	0.734892
C76	C	0.176827	0.581060	-0.068264
C77	C	0.510160	0.914393	0.265069
C78	C	0.843494	1.247726	0.598402
C79	C	0.174881	0.508599	-0.068262
C80	C	0.508214	0.841933	0.265071
C81	C	0.841547	1.175266	0.598404
C82	C	0.173927	0.472381	-0.000015
C83	C	0.507261	0.805714	0.333318
C84	C	0.840594	1.139047	0.666652
C85	C	-0.063370	0.825255	-0.000028
C86	C	0.269963	1.158589	0.333306
C87	C	0.603297	1.491922	0.666639
C88	C	-0.204952	0.823175	-0.000027
C89	C	0.128381	1.156509	0.333306
C90	C	0.461715	1.489842	0.666639
C91	C	-0.356263	0.754719	-0.000015
C92	C	-0.022929	1.088052	0.333318
C93	C	0.310404	1.421385	0.666651
C94	C	-0.279641	0.788954	0.061706
C95	C	0.053692	1.122287	0.395040
C96	C	0.387025	1.455620	0.728373
C97	C	-0.279688	0.788951	-0.061720
C98	C	0.053645	1.122284	0.271614
C99	C	0.386978	1.455618	0.604947
C100	C	-0.380597	0.853739	0.061762
C101	C	-0.047264	1.187073	0.395096
C102	C	0.286069	1.520406	0.728429
C103	C	-0.380649	0.853727	-0.061719
C104	C	-0.047316	1.187060	0.271614
C105	C	0.286017	1.520394	0.604947
C106	C	-0.304078	0.888009	0.000017
C107	C	0.029255	1.221343	0.333351
C108	C	0.362589	1.554676	0.666684
C109	C	0.403064	0.817451	-0.000015
C110	C	0.736398	1.150785	0.333318
C111	C	1.069731	1.484118	0.666652
C112	C	0.544646	0.819531	-0.000011
C113	C	0.877980	1.152864	0.333323
C114	C	1.211313	1.486198	0.666656
C115	C	0.159808	0.948292	-0.000025
C116	C	0.493141	1.281626	0.333308
C117	C	0.826474	1.614959	0.666642
C118	C	0.161882	1.025410	-0.000023
C119	C	0.495215	1.358743	0.333311
C120	C	0.828549	1.692077	0.666644
N121	N	0.169838	0.821331	-0.178177
N122	N	0.503172	1.154664	0.155156
N123	N	0.836505	1.487998	0.488489
C124	C	0.247006	0.863837	-0.217557
C125	C	0.580339	1.197170	0.115776
C126	C	0.913672	1.530503	0.449109
C127	C	0.247002	0.863848	-0.296359
C128	C	0.580335	1.197181	0.036974
C129	C	0.913669	1.530514	0.370308
C130	C	0.169846	0.821340	-0.335778
C131	C	0.503179	1.154673	-0.002445
C132	C	0.836513	1.488007	0.330889
C133	C	0.092663	0.778832	-0.296389
C134	C	0.425996	1.112165	0.036945
C135	C	0.759330	1.445498	0.370278
C136	C	0.092659	0.778827	-0.217589
C137	C	0.425993	1.112161	0.115745
C138	C	0.759326	1.445494	0.449078
C139	C	0.166619	0.758706	-0.460635
C140	C	0.499952	1.092039	-0.127302
C141	C	0.833286	1.425373	0.206031
C142	C	0.166632	0.758709	-0.539434
C143	C	0.499965	1.092043	-0.206101
C144	C	0.833298	1.425376	0.127233
C145	C	0.169850	0.821355	-0.578824
C146	C	0.503183	1.154688	-0.245491
C147	C	0.836517	1.488021	0.087842
C148	C	0.173082	0.883998	-0.539406
C149	C	0.506415	1.217331	-0.206073
C150	C	0.839748	1.550665	0.127261
C151	C	0.173078	0.883993	-0.460606
C152	C	0.506411	1.217327	-0.127272
C153	C	0.839745	1.550660	0.206061
C154	C	0.169841	0.821341	-0.421224
C155	C	0.503174	1.154674	-0.087890
C156	C	0.836507	1.488007	0.245443
C157	C	0.247017	0.863876	-0.703650
C158	C	0.580350	1.197209	-0.370317
C159	C	0.913684	1.530542	-0.036983
C160	C	0.247004	0.863888	-0.782453
C161	C	0.580338	1.197221	-0.449120
C162	C	0.913671	1.530555	-0.115787
C163	C	0.092673	0.778866	-0.782482
C164	C	0.426006	1.112199	-0.449148
C165	C	0.759340	1.445532	-0.115815
C166	C	0.092678	0.778860	-0.703680
C167	C	0.426012	1.112193	-0.370347
C168	C	0.759345	1.445526	-0.037013
C169	C	0.169857	0.821364	-0.664269
C170	C	0.503191	1.154697	-0.330935
C171	C	0.836524	1.488030	0.002398
N172	N	0.169846	0.821381	0.178133
N173	N	0.503179	1.154714	0.511466
N174	N	0.836512	1.488047	0.844800
H175	H	0.162031	0.032129	-0.123840
H176	H	0.495365	0.365462	0.209493
H177	H	0.828698	0.698796	0.542827
H178	H	0.164007	0.707701	-0.571522
H179	H	0.497341	1.041034	-0.238189
H180	H	0.830674	1.374368	0.095144
H181	H	-0.379708	0.698362	0.000048
H182	H	-0.046375	1.031695	0.333382
H183	H	0.286958	1.365029	0.666715
H184	H	0.164007	0.707688	-0.428570
H185	H	0.497341	1.041022	-0.095237
H186	H	0.830674	1.374355	0.238096
H187	H	-0.235628	0.761570	-0.113901
H188	H	0.097706	1.094904	0.219432
H189	H	0.431039	1.428237	0.552765
Br190	Br	-0.265400	0.982010	0.000066
Br191	Br	0.067934	1.315343	0.333400
Br192	Br	0.401267	1.648677	0.666733
H193	H	0.309839	0.898506	-0.814515
H194	H	0.643173	1.231839	-0.481182
H195	H	0.976506	1.565173	-0.147848
H196	H	0.309860	0.898485	-0.671560
H197	H	0.643193	1.231819	-0.338226
H198	H	0.976527	1.565152	-0.004893
H199	H	0.029819	0.744213	-0.185526
H200	H	0.363152	1.077546	0.147807
H201	H	0.696486	1.410879	0.481141
H202	H	0.032550	0.264612	0.094831
H203	H	0.365884	0.597945	0.428165
H204	H	0.699217	0.931278	0.761498
Br205	Br	0.351779	0.921503	-0.164074
Br206	Br	0.685112	1.254837	0.169259
Br207	Br	1.018445	1.588170	0.502593
H208	H	0.177615	0.610553	-0.123827
H209	H	0.510948	0.943887	0.209507
H210	H	0.844281	1.277220	0.542840
H211	H	-0.424768	0.881055	-0.113906
H212	H	-0.091435	1.214388	0.219427
H213	H	0.241898	1.547722	0.552761
H214	H	0.303624	0.246639	-0.094876
H215	H	0.636958	0.579972	0.238457
H216	H	0.970291	0.913306	0.571791
H217	H	-0.235545	0.761601	0.113891
H218	H	0.097788	1.094935	0.447224
H219	H	0.431121	1.428268	0.780557
H220	H	0.029846	0.744244	-0.671617
H221	H	0.363179	1.077577	-0.338283
H222	H	0.696512	1.410911	-0.004950
Br223	Br	0.351732	0.921540	-0.349815
Br224	Br	0.685065	1.254873	-0.016482
Br225	Br	1.018399	1.588207	0.316852
H226	H	0.174127	0.479124	0.123797
H227	H	0.507461	0.812457	0.457130
H228	H	0.840794	1.145790	0.790463
H229	H	-0.424494	0.881089	0.114003
H230	H	-0.091160	1.214422	0.447336
H231	H	0.242173	1.547756	0.780669
Br232	Br	-0.012061	0.721186	-0.835970
Br233	Br	0.321272	1.054520	-0.502637
Br234	Br	0.654605	1.387853	-0.169304
Br235	Br	0.166100	0.183248	-0.160881
Br236	Br	0.499433	0.516581	0.172452
Br237	Br	0.832766	0.849914	0.505785
H238	H	0.175706	0.935000	-0.428515
H239	H	0.509040	1.268333	-0.095181
H240	H	0.842373	1.601667	0.238152
H241	H	0.175708	0.935009	-0.571476
H242	H	0.509042	1.268343	-0.238143
H243	H	0.842375	1.601676	0.095191
H244	H	0.029841	0.744223	-0.328489
H245	H	0.363174	1.077556	0.004844
H246	H	0.696507	1.410889	0.338178
H247	H	0.165632	0.163607	0.123789
H248	H	0.498966	0.496940	0.457122
H249	H	0.832299	0.830273	0.790456
Br250	Br	0.161574	0.012491	0.160837
Br251	Br	0.494908	0.345824	0.494170
Br252	Br	0.828241	0.679157	0.827503
H253	H	0.036090	0.396068	0.094832
H254	H	0.369424	0.729401	0.428165
H255	H	0.702757	1.062734	0.761498
Br256	Br	0.178170	0.630251	0.160844
Br257	Br	0.511503	0.963584	0.494178
Br258	Br	0.844837	1.296918	0.827511
H259	H	0.307203	0.378084	-0.094852
H260	H	0.640537	0.711417	0.238481
H261	H	0.973870	1.044751	0.571815
Br262	Br	0.173550	0.459423	-0.160878
Br263	Br	0.506884	0.792757	0.172456
Br264	Br	0.840217	1.126090	0.505789
