data_functionalizedCrystal
_audit_creation_method	'MofGen! by Chris Wilmer'
_symmetry_space_group_name_H-M	'P1'
_symmetry_Int_Tables_number	1
_symmetry_cell_setting	triclinic
loop_
_symmetry_equiv_pos_as_xyz
  x,y,z
_cell_length_a	12.645331
_cell_length_b	12.759399
_cell_length_c	12.759393
_cell_angle_alpha	89.973195
_cell_angle_beta	90.022936
_cell_angle_gamma	89.986771
loop_
_atom_site_label
_atom_site_type_symbol
_atom_site_fract_x
_atom_site_fract_y
_atom_site_fract_z
Zn1	Zn	1.620759	0.418244	0.594103
Zn2	Zn	2.120759	0.918244	1.094103
Zn3	Zn	1.620651	0.593960	0.418434
Zn4	Zn	2.120651	1.093960	0.918434
Zn5	Zn	1.443473	0.418292	0.418432
Zn6	Zn	1.943473	0.918292	0.918432
Zn7	Zn	1.443466	0.593878	0.594066
Zn8	Zn	1.943466	1.093878	1.094066
O9	O	1.532087	0.506094	0.506259
O10	O	2.032087	1.006094	1.006259
O11	O	1.769092	0.441567	0.570817
O12	O	2.269092	0.941567	1.070817
O13	O	1.597105	0.570711	0.271413
O14	O	2.097105	1.070711	0.771413
O15	O	1.467039	0.271265	0.441750
O16	O	1.967039	0.771265	0.941750
O17	O	1.769012	0.570664	0.441754
O18	O	2.269012	1.070664	0.941754
O19	O	1.597290	0.271229	0.570815
O20	O	2.097290	0.771229	1.070815
O21	O	1.466934	0.441649	0.271411
O22	O	1.966934	0.941649	0.771411
O23	O	1.295125	0.441570	0.441714
O24	O	1.795125	0.941570	0.941714
O25	O	1.467027	0.570526	0.741092
O26	O	1.967027	1.070526	1.241092
O27	O	1.295120	0.570573	0.570751
O28	O	1.795120	1.070573	1.070751
O29	O	1.597284	0.441488	0.741119
O30	O	2.097284	0.941488	1.241119
O31	O	1.597099	0.740970	0.441718
O32	O	2.097099	1.240970	0.941718
O33	O	1.466922	0.740910	0.570753
O34	O	1.966922	1.240910	1.070753
C35	C	1.256658	0.506069	0.506228
C36	C	1.756658	1.006069	1.006228
C37	C	1.138828	0.506083	0.506240
C38	C	1.638828	1.006083	1.006240
C39	C	0.971231	0.424554	0.425511
C40	C	1.471231	0.924554	0.925511
C41	C	1.093791	0.424765	0.425155
C42	C	1.593791	0.924765	0.925155
C43	C	1.094314	0.616761	0.476002
C44	C	1.594314	1.116761	0.976002
C45	C	0.971715	0.616316	0.475452
C46	C	1.471715	1.116316	0.975452
C47	C	0.971677	0.477988	0.617519
C48	C	1.471677	0.977988	1.117519
C49	C	1.094283	0.475515	0.616901
C50	C	1.594283	0.975515	1.116901
C51	C	1.532027	0.779061	0.506254
C52	C	2.032027	1.279061	1.006254
C53	C	1.532098	0.895838	0.506288
C54	C	2.032098	1.395838	1.006288
C55	C	1.532167	0.505993	0.780292
C56	C	2.032167	1.005993	1.280292
C57	C	1.532201	0.505950	0.897069
C58	C	2.032201	1.005950	1.397069
C59	C	1.808593	0.506119	0.506290
C60	C	2.308593	1.006119	1.006290
C61	C	1.926423	0.506130	0.506303
C62	C	2.426423	1.006130	1.006303
C63	C	1.599959	0.950696	0.439179
C64	C	2.099959	1.450696	0.939179
C65	C	1.600029	1.060420	0.439222
C66	C	2.100029	1.560420	0.939222
C67	C	1.464367	1.060418	0.573485
C68	C	1.964367	1.560418	1.073485
C69	C	1.464303	0.950696	0.573447
C70	C	1.964303	1.450696	1.073447
C71	C	1.532181	1.232060	0.506304
C72	C	2.032181	1.732060	1.006304
C73	C	1.532231	1.115284	0.506369
C74	C	2.032231	1.615284	1.006369
C75	C	1.532069	0.506118	0.233291
C76	C	2.032069	1.006118	0.733291
C77	C	1.532241	0.505865	0.116515
C78	C	2.032241	1.005865	0.616515
C79	C	1.600030	0.438749	0.951947
C80	C	2.100030	0.938749	1.451947
C81	C	1.600048	0.438704	1.061671
C82	C	2.100048	0.938704	1.561671
C83	C	1.464404	0.573069	1.061630
C84	C	1.964404	1.073069	1.561630
C85	C	1.464381	0.573108	0.951907
C86	C	1.964381	1.073108	1.451907
H87	H	0.941762	0.342236	0.444260
H88	H	1.441762	0.842236	0.944260
N89	N	1.134907	0.648906	0.369454
N90	N	1.634907	1.148906	0.869454
H91	H	1.073239	0.660177	0.320395
H92	H	1.573239	1.160177	0.820395
H93	H	1.176572	0.716102	0.376043
H94	H	1.676572	1.216102	0.876043
H95	H	1.124944	0.530596	0.680317
H96	H	1.624944	1.030596	1.180317
H97	H	1.655289	1.105080	0.384577
H98	H	2.155289	1.605080	0.884577
N99	N	0.933766	0.647907	0.367752
N100	N	1.433766	1.147907	0.867752
H101	H	0.853907	0.647930	0.366315
H102	H	1.353907	1.147930	0.866315
H103	H	0.960732	0.720438	0.350715
H104	H	1.460732	1.220438	0.850715
N105	N	0.930781	0.372946	0.653977
N106	N	1.430781	0.872946	1.153977
H107	H	0.851055	0.375137	0.658183
H108	H	1.351055	0.875137	1.158183
H109	H	0.953150	0.316920	0.602675
H110	H	1.453150	0.816920	1.102675
H111	H	1.409169	1.105097	0.628162
H112	H	1.909169	1.605097	1.128162
H113	H	1.655280	0.383980	1.106348
H114	H	2.155280	0.883980	1.606348
H115	H	1.409042	0.906027	0.628099
H116	H	1.909042	1.406027	1.128099
H117	H	1.409190	0.627749	1.106292
H118	H	1.909190	1.127749	1.606292
H119	H	1.655250	0.384061	0.907301
H120	H	2.155250	0.884061	1.407301
N121	N	1.391198	0.645571	0.892708
N122	N	1.891198	1.145571	1.392708
H123	H	1.348238	0.688109	0.944095
H124	H	1.848238	1.188109	1.444095
H125	H	1.434305	0.694217	0.847175
H126	H	1.934305	1.194217	1.347175
N127	N	0.932430	0.699550	0.549988
N128	N	1.432430	1.199550	1.049988
H129	H	0.959176	0.684125	0.622982
H130	H	1.459176	1.184125	1.122982
H131	H	0.959245	0.770354	0.526621
H132	H	1.459245	1.270354	1.026621
N133	N	1.133667	0.316054	0.450249
N134	N	1.633667	0.816054	0.950249
H135	H	1.071604	0.267563	0.461642
H136	H	1.571604	0.767563	0.961642
H137	H	1.177885	0.289416	0.389981
H138	H	1.677885	0.789416	0.889981
H139	H	0.940384	0.442950	0.343580
H140	H	1.440384	0.942950	0.843580
H141	H	1.123382	0.394069	0.639702
H142	H	1.623382	0.894069	1.139702
H143	H	1.123070	0.443367	0.342739
H144	H	1.623070	0.943367	0.842739
H145	H	1.123487	0.679166	0.533001
H146	H	1.623487	1.179166	1.033001
H147	H	1.655163	0.906033	0.384496
H148	H	2.155163	1.406033	0.884496
N149	N	0.933305	0.556687	0.697263
N150	N	1.433305	1.056687	1.197263
H151	H	0.886835	0.610314	0.661582
H152	H	1.386835	1.110314	1.161582
H153	H	0.891435	0.519359	0.753384
H154	H	1.391435	1.019359	1.253384
