data_functionalizedCrystal
_audit_creation_method	'MofGen! by Chris Wilmer'
_symmetry_space_group_name_H-M	'P1'
_symmetry_Int_Tables_number	1
_symmetry_cell_setting	triclinic
loop_
_symmetry_equiv_pos_as_xyz
  x,y,z
_cell_length_a	21.295418
_cell_length_b	16.625546
_cell_length_c	16.625539
_cell_angle_alpha	90.030397
_cell_angle_beta	89.960218
_cell_angle_gamma	89.961719
loop_
_atom_site_label
_atom_site_type_symbol
_atom_site_fract_x
_atom_site_fract_y
_atom_site_fract_z
Zn1	Zn	0.962366	0.320660	-0.456311
Zn2	Zn	1.295700	0.653993	-0.122978
Zn3	Zn	1.629033	0.987326	0.210356
Zn4	Zn	0.962291	0.455503	-0.321473
Zn5	Zn	1.295624	0.788836	0.011860
Zn6	Zn	1.628957	1.122170	0.345193
Zn7	Zn	0.857097	0.320725	-0.321446
Zn8	Zn	1.190430	0.654059	0.011887
Zn9	Zn	1.523763	0.987392	0.345220
Zn10	Zn	0.857074	0.455491	-0.456218
Zn11	Zn	1.190407	0.788825	-0.122885
Zn12	Zn	1.523740	1.122158	0.210449
O13	O	0.909707	0.388095	-0.388862
O14	O	1.243040	0.721428	-0.055529
O15	O	1.576374	1.054761	0.277804
O16	O	1.050446	0.338524	-0.438475
O17	O	1.383779	0.671858	-0.105142
O18	O	1.717112	1.005191	0.228192
O19	O	0.948315	0.437657	-0.208637
O20	O	1.281648	0.770990	0.124696
O21	O	1.614981	1.104323	0.458029
O22	O	0.871102	0.207884	-0.339364
O23	O	1.204436	0.541217	-0.006031
O24	O	1.537769	0.874551	0.327302
O25	O	1.050390	0.437593	-0.339410
O26	O	1.383724	0.770926	-0.006077
O27	O	1.717057	1.104260	0.327256
O28	O	0.948443	0.207836	-0.438449
O29	O	1.281777	0.541169	-0.105115
O30	O	1.615110	0.874503	0.228218
O31	O	0.871029	0.338636	-0.208618
O32	O	1.204362	0.671969	0.124716
O33	O	1.537696	1.005303	0.458049
O34	O	0.769004	0.338625	-0.339274
O35	O	1.102338	0.671958	-0.005941
O36	O	1.435671	1.005291	0.327393
O37	O	0.871063	0.437573	-0.569063
O38	O	1.204396	0.770907	-0.235730
O39	O	1.537730	1.104240	0.097604
O40	O	0.768987	0.437637	-0.438290
O41	O	1.102321	0.770970	-0.104957
O42	O	1.435654	1.104303	0.228377
O43	O	0.948421	0.338513	-0.569131
O44	O	1.281754	0.671847	-0.235798
O45	O	1.615088	1.005180	0.097535
O46	O	0.948292	0.568334	-0.339320
O47	O	1.281626	0.901667	-0.005987
O48	O	1.614959	1.235000	0.327347
O49	O	0.870990	0.568325	-0.438316
O50	O	1.204323	0.901659	-0.104983
O51	O	1.537656	1.234992	0.228350
C52	C	0.746155	0.388137	-0.388769
C53	C	1.079489	0.721471	-0.055436
C54	C	1.412822	1.054804	0.277897
C55	C	0.676187	0.388175	-0.388749
C56	C	1.009520	0.721508	-0.055416
C57	C	1.342854	1.054841	0.277918
C58	C	0.909647	0.597586	-0.388828
C59	C	1.242981	0.930919	-0.055495
C60	C	1.576314	1.264252	0.277838
C61	C	0.909679	0.687207	-0.388841
C62	C	1.243013	1.020540	-0.055508
C63	C	1.576346	1.353873	0.277826
C64	C	0.909748	0.388035	-0.599171
C65	C	1.243081	0.721368	-0.265838
C66	C	1.576415	1.054701	0.067495
C67	C	0.909765	0.388009	-0.688792
C68	C	1.243099	0.721342	-0.355459
C69	C	1.576432	1.054676	-0.022126
C70	C	0.643328	0.439799	-0.440230
C71	C	0.976661	0.773132	-0.106896
C72	C	1.309995	1.106465	0.226437
C73	C	0.577586	0.439779	-0.440266
C74	C	0.910919	0.773112	-0.106932
C75	C	1.244252	1.106445	0.226401
C76	C	0.544705	0.388144	-0.388807
C77	C	0.878038	0.721477	-0.055474
C78	C	1.211371	1.054810	0.277860
C79	C	0.577572	0.336510	-0.337323
C80	C	0.910905	0.669843	-0.003989
C81	C	1.244238	1.003176	0.329344
C82	C	0.643313	0.336525	-0.337294
C83	C	0.976646	0.669859	-0.003960
C84	C	1.309980	1.003192	0.329373
N85	N	0.441432	0.381847	-0.318284
N86	N	0.774765	0.715180	0.015049
N87	N	1.108098	1.048514	0.348383
N88	N	0.378980	0.381837	-0.318314
N89	N	0.712314	0.715170	0.015019
N90	N	1.045647	1.048503	0.348353
C91	C	0.346630	0.388092	-0.388892
C92	C	0.679963	0.721425	-0.055559
C93	C	1.013297	1.054759	0.277774
N94	N	0.379090	0.394374	-0.459441
N95	N	0.712424	0.727707	-0.126108
N96	N	1.045757	1.061040	0.207225
N97	N	0.441548	0.394388	-0.459411
N98	N	0.774881	0.727721	-0.126077
N99	N	1.108214	1.061055	0.207256
C100	C	0.473419	0.388120	-0.388833
C101	C	0.806753	0.721454	-0.055500
C102	C	1.140086	1.054787	0.277834
C103	C	0.242485	0.439697	-0.440417
C104	C	0.575819	0.773030	-0.107083
C105	C	0.909152	1.106364	0.226250
C106	C	0.176742	0.439672	-0.440454
C107	C	0.510075	0.773005	-0.107121
C108	C	0.843408	1.106338	0.226212
C109	C	0.176729	0.336407	-0.337504
C110	C	0.510062	0.669740	-0.004171
C111	C	0.843396	1.003073	0.329163
C112	C	0.242471	0.336428	-0.337474
C113	C	0.575805	0.669761	-0.004140
C114	C	0.909138	1.003095	0.329193
C115	C	0.275346	0.388078	-0.388929
C116	C	0.608679	0.721411	-0.055595
C117	C	0.942012	1.054744	0.277738
C118	C	1.073897	0.388053	-0.388956
C119	C	1.407231	0.721386	-0.055623
C120	C	1.740564	1.054719	0.277711
C121	C	1.143865	0.388035	-0.388996
C122	C	1.477199	0.721368	-0.055662
C123	C	1.810532	1.054702	0.277671
C124	C	0.909784	0.177786	-0.388914
C125	C	1.243117	0.511119	-0.055581
C126	C	1.576451	0.844452	0.277753
C127	C	0.909817	0.088165	-0.388936
C128	C	1.243150	0.421498	-0.055602
C129	C	1.576483	0.754831	0.277731
C130	C	0.909789	1.015382	-0.388925
C131	C	1.243123	1.348716	-0.055592
C132	C	1.576456	1.682049	0.277742
C133	C	0.909757	0.924074	-0.388904
C134	C	1.243090	1.257407	-0.055571
C135	C	1.576423	1.590741	0.277763
C136	C	0.909734	0.851297	-0.388883
C137	C	1.243067	1.184631	-0.055549
C138	C	1.576401	1.517964	0.277784
C139	C	0.909702	0.759983	-0.388862
C140	C	1.243036	1.093317	-0.055529
C141	C	1.576369	1.426650	0.277804
C142	C	0.909794	0.387919	-1.016968
C143	C	1.243128	0.721252	-0.683635
C144	C	1.576461	1.054585	-0.350302
C145	C	0.909785	0.387947	-0.925660
C146	C	1.243118	0.721280	-0.592326
C147	C	1.576451	1.054613	-0.258993
C148	C	0.909780	0.387965	-0.852883
C149	C	1.243113	0.721298	-0.519550
C150	C	1.576447	1.054631	-0.186217
C151	C	0.909770	0.387991	-0.761569
C152	C	1.243103	0.721324	-0.428236
C153	C	1.576436	1.054658	-0.094902
C154	C	0.909702	0.388096	-0.179371
C155	C	1.243036	0.721430	0.153962
C156	C	1.576369	1.054763	0.487295
C157	C	0.909807	0.387895	-0.089751
C158	C	1.243140	0.721228	0.243583
C159	C	1.576474	1.054562	0.576916
H160	H	0.670090	0.481855	-0.482130
H161	H	1.003424	0.815188	-0.148796
H162	H	1.336757	1.148521	0.184537
N163	N	0.678758	0.280837	-0.281772
N164	N	1.012092	0.614170	0.051561
N165	N	1.345425	0.947504	0.384895
H166	H	0.647955	0.248118	-0.249181
H167	H	0.981289	0.581451	0.084152
H168	H	1.314622	0.914784	0.417486
H169	H	0.705983	0.313613	-0.244384
H170	H	1.039317	0.646946	0.088950
H171	H	1.372650	0.980279	0.422283
N172	N	0.542134	0.495459	-0.495795
N173	N	0.875467	0.828792	-0.162461
N174	N	1.208801	1.162126	0.170872
H175	H	0.572936	0.528179	-0.528387
H176	H	0.906269	0.861513	-0.195054
H177	H	1.239602	1.194846	0.138280
H178	H	0.514807	0.532721	-0.462912
H179	H	0.848140	0.866054	-0.129579
H180	H	1.181473	1.199387	0.203755
H181	H	0.269226	0.294394	-0.295548
H182	H	0.602559	0.627727	0.037785
H183	H	0.935892	0.961061	0.371118
N184	N	0.277949	0.495398	-0.495913
N185	N	0.611282	0.828732	-0.162580
N186	N	0.944615	1.162065	0.170753
H187	H	0.247154	0.528096	-0.528538
H188	H	0.580487	0.861429	-0.195204
H189	H	0.913821	1.194762	0.138129
H190	H	0.305280	0.462632	-0.533272
H191	H	0.638614	0.795965	-0.199939
H192	H	0.971947	1.129299	0.133395
N193	N	0.542112	0.280826	-0.281810
N194	N	0.875445	0.614160	0.051523
N195	N	1.208779	0.947493	0.384857
H196	H	0.495478	0.288655	-0.289633
H197	H	0.828812	0.621989	0.043700
H198	H	1.162145	0.955322	0.377033
H199	H	0.553555	0.293317	-0.224201
H200	H	0.886889	0.626650	0.109132
H201	H	1.220222	0.959984	0.442465
H202	H	0.149989	0.481708	-0.482381
H203	H	0.483322	0.815042	-0.149048
H204	H	0.816656	1.148375	0.184286
H205	H	0.149958	0.294360	-0.295609
H206	H	0.483291	0.627694	0.037724
H207	H	0.816625	0.961027	0.371058
