data_functionalizedCrystal
_audit_creation_method	'MofGen! by Chris Wilmer'
_symmetry_space_group_name_H-M	'P1'
_symmetry_Int_Tables_number	1
_symmetry_cell_setting	triclinic
loop_
_symmetry_equiv_pos_as_xyz
  x,y,z
_cell_length_a	17.699077
_cell_length_b	14.853559
_cell_length_c	16.776229
_cell_angle_alpha	89.995543
_cell_angle_beta	89.993415
_cell_angle_gamma	83.456015
loop_
_atom_site_label
_atom_site_type_symbol
_atom_site_fract_x
_atom_site_fract_y
_atom_site_fract_z
O1	O	1.004374	0.113983	-0.066274
O2	O	0.784033	0.128821	-0.066277
O3	O	0.900093	-0.009850	-0.066275
O4	O	0.888315	0.252654	-0.066276
O5	O	0.900077	-0.009858	0.066302
O6	O	0.784018	0.128813	0.066299
O7	O	1.004359	0.113974	0.066303
Zn8	Zn	0.894186	0.121392	0.087350
Zn9	Zn	0.894206	0.121404	-0.087325
O10	O	0.888299	0.252646	0.066300
C11	C	0.755827	0.128286	0.000011
C12	C	0.671805	0.126694	0.000009
C13	C	0.632327	0.125939	0.072277
C14	C	0.553381	0.124429	0.072278
C15	C	0.513913	0.123679	0.000010
C16	C	0.553396	0.124432	-0.072264
C17	C	0.632342	0.125936	-0.072264
C18	C	0.235017	0.118365	-0.072265
C19	C	0.156066	0.116863	-0.072260
C20	C	0.156056	0.116857	0.072277
C21	C	0.235002	0.118362	0.072277
C22	C	0.274479	0.119109	0.000003
C23	C	0.360082	0.120745	0.000003
C24	C	0.428311	0.122050	0.000009
C25	C	0.899553	-0.043441	0.000012
C26	C	0.897957	-0.143519	0.000008
C27	C	0.891195	-0.566665	-0.072260
C28	C	0.891179	-0.566669	0.072280
C29	C	0.892684	-0.472641	0.072281
C30	C	0.893444	-0.425620	0.000010
C31	C	0.892699	-0.472628	-0.072261
C32	C	0.893422	-0.425625	0.144551
C33	C	0.894927	-0.331592	0.144555
C34	C	0.895692	-0.284570	0.072283
C35	C	0.894948	-0.331584	0.000009
C36	C	0.895708	-0.284563	-0.072262
C37	C	0.894969	-0.331576	-0.144538
C38	C	0.893465	-0.425607	-0.144533
C39	C	0.897197	-0.190540	0.072278
C40	C	0.897211	-0.190527	-0.072264
C41	C	1.032565	0.114509	0.000013
C42	C	1.116587	0.116102	0.000009
C43	C	0.888840	0.286237	0.000012
C44	C	0.890435	0.386315	0.000011
N45	N	0.894178	0.121384	0.206562
N46	N	0.894221	0.121405	-0.206536
C47	C	0.945584	0.060006	0.248280
C48	C	0.945589	0.060005	0.331732
C49	C	0.894189	0.121388	0.373465
C50	C	0.842777	0.182769	0.331740
C51	C	0.842769	0.182765	0.248290
C52	C	0.842804	0.182787	0.668288
C53	C	0.842817	0.182788	0.751744
C54	C	0.945623	0.060027	0.751730
C55	C	0.945616	0.060023	0.668279
C56	C	0.894201	0.121400	0.626562
C57	C	0.894196	0.121399	0.536074
C58	C	0.894197	0.121394	0.463951
H59	H	0.123905	0.116245	0.131125
H60	H	0.800908	0.232744	0.214323
H61	H	0.800958	0.232775	0.785721
H62	H	0.800942	0.232764	0.634328
H63	H	0.892862	-0.463892	-0.203376
Br64	Br	0.898252	-0.126722	-0.170351
Br65	Br	0.898196	-0.126740	0.170357
H66	H	0.987443	0.010024	0.214307
Br67	Br	1.015401	-0.023275	0.808349
H68	H	0.890597	-0.604947	-0.131105
H69	H	0.521256	0.123815	-0.131106
Br70	Br	0.685921	0.126952	-0.170346
Br71	Br	1.015353	-0.023299	0.388352
Br72	Br	0.890130	-0.630479	0.170357
Br73	Br	1.015378	-0.023280	0.611645
Br74	Br	0.895924	-0.267796	0.242640
Br75	Br	0.499805	0.123419	0.170361
H76	H	0.800922	0.232745	0.365724
H77	H	0.664455	0.126557	0.131127
Br78	Br	0.102502	0.115848	-0.170345
Br79	Br	0.288561	0.119387	0.170359
H80	H	0.267150	0.118970	-0.131115
H81	H	0.892799	-0.463915	0.203390
Br82	Br	0.896001	-0.267751	-0.242615
