data_functionalizedCrystal
_audit_creation_method	'MofGen! by Chris Wilmer'
_symmetry_space_group_name_H-M	'P1'
_symmetry_Int_Tables_number	1
_symmetry_cell_setting	triclinic
loop_
_symmetry_equiv_pos_as_xyz
  x,y,z
_cell_length_a	14.044220
_cell_length_b	14.421503
_cell_length_c	14.044220
_cell_angle_alpha	90.003696
_cell_angle_beta	86.811122
_cell_angle_gamma	90.003446
loop_
_atom_site_label
_atom_site_type_symbol
_atom_site_fract_x
_atom_site_fract_y
_atom_site_fract_z
O1	O	1.277173	0.077017	-0.230155
O2	O	1.000501	0.077040	-0.221849
O3	O	1.134684	0.077020	-0.087666
O4	O	1.142990	0.077037	-0.364338
O5	O	1.134662	-0.077204	-0.087686
O6	O	1.000479	-0.077183	-0.221869
O7	O	1.277150	-0.077207	-0.230175
Cu8	Cu	1.138812	-0.091277	-0.226024
Cu9	Cu	1.138839	0.091110	-0.226000
O10	O	1.142967	-0.077186	-0.364357
C11	C	0.964868	-0.000069	-0.218223
C12	C	0.858725	-0.000060	-0.207379
N13	N	1.138801	-0.219558	-0.226040
C14	C	0.664388	-0.000080	-0.187553
C15	C	0.613258	-0.000079	-0.264467
C16	C	0.505122	-0.000090	-0.253435
C17	C	0.772534	-0.000069	-0.198583
C18	C	1.076740	-0.469202	-0.288055
C19	C	1.164574	-0.531011	-0.313879
C20	C	1.138822	-0.408720	-0.226019
C21	C	1.051012	-0.531005	-0.200219
C22	C	1.138835	-0.591441	-0.226001
C23	C	1.226703	-0.469167	-0.251890
C24	C	1.113082	-0.469156	-0.138188
C25	C	1.200975	-0.530937	-0.163981
C26	C	1.138813	-0.303458	-0.226032
C27	C	1.138854	-0.696700	-0.225988
C28	C	1.312783	-0.000096	-0.233800
C29	C	1.418926	-0.000098	-0.244645
C30	C	1.131037	-0.000092	-0.052054
C31	C	1.120193	-0.000092	0.054088
N32	N	1.138858	0.219391	-0.225977
C33	C	1.146614	-0.000072	-0.399969
C34	C	1.157459	-0.000066	-0.506112
C35	C	1.100366	-0.000077	0.248426
C36	C	1.177281	-0.000081	0.299556
C37	C	1.166249	-0.000073	0.407692
C38	C	1.111397	-0.000086	0.140280
H39	H	0.650697	-0.000070	-0.338600
H40	H	1.251414	-0.000025	0.262117
H41	H	0.626951	-0.000090	-0.113425
H42	H	1.024301	-0.442097	-0.340567
H43	H	1.253543	-0.557872	-0.111513
O44	O	1.190407	-0.563389	-0.402532
C45	C	1.124778	-0.531923	-0.467732
H46	H	1.054148	-0.514578	-0.427772
H47	H	1.154215	-0.467250	-0.505634
C48	C	1.195485	-0.629648	-0.590812
C49	C	1.108733	-0.608353	-0.541733
H50	H	1.185590	-0.676791	-0.636463
H51	H	1.239703	-0.650845	-0.546887
H52	H	1.220007	-0.575748	-0.622389
H53	H	1.084219	-0.662250	-0.510148
H54	H	1.064511	-0.587166	-0.585655
O55	O	1.012000	-0.000115	0.293233
C56	C	1.020521	-0.000088	0.392791
H57	H	1.093082	-0.029283	0.409749
H58	H	1.013600	0.073902	0.420912
C59	C	0.852037	-0.024712	0.419817
C60	C	0.941156	-0.060577	0.440647
H61	H	0.803079	-0.062020	0.449339
H62	H	0.846295	-0.024726	0.352744
H63	H	0.846284	0.036946	0.443253
H64	H	0.946912	-0.122228	0.417201
H65	H	0.946897	-0.060574	0.507718
O66	O	1.315248	-0.436752	-0.278106
C67	C	1.314160	-0.338991	-0.277849
H68	H	1.238284	-0.313424	-0.286270
H69	H	1.340652	-0.312483	-0.207564
C70	C	1.472874	-0.333952	-0.350792
C71	C	1.379683	-0.302549	-0.361143
H72	H	1.513294	-0.311471	-0.402168
H73	H	1.473609	-0.399815	-0.350962
H74	H	1.494937	-0.311859	-0.292218
H75	H	1.357617	-0.324651	-0.419709
H76	H	1.378945	-0.236688	-0.360984
O77	O	1.086902	-0.436752	-0.049636
C78	C	0.994236	-0.468223	-0.022705
H79	H	0.954872	-0.485603	-0.089260
H80	H	0.998996	-0.532876	0.023493
C81	C	0.988103	-0.370440	0.115953
C82	C	0.939753	-0.391779	0.034209
H83	H	0.954497	-0.323289	0.151064
H84	H	1.050536	-0.349240	0.097812
H85	H	0.992067	-0.424324	0.154440
H86	H	0.935801	-0.337899	-0.004282
H87	H	0.877319	-0.412969	0.052345
H88	H	0.976748	-0.558170	-0.178407
