data_functionalizedCrystal
_audit_creation_method	'MofGen! by Chris Wilmer'
_symmetry_space_group_name_H-M	'P1'
_symmetry_Int_Tables_number	1
_symmetry_cell_setting	triclinic
loop_
_symmetry_equiv_pos_as_xyz
  x,y,z
_cell_length_a	19.188930
_cell_length_b	17.666332
_cell_length_c	19.188922
_cell_angle_alpha	89.992279
_cell_angle_beta	96.857064
_cell_angle_gamma	90.023133
loop_
_atom_site_label
_atom_site_type_symbol
_atom_site_fract_x
_atom_site_fract_y
_atom_site_fract_z
O1	O	0.926147	0.063196	-0.087168
O2	O	1.426147	0.563196	0.412832
O3	O	0.722835	0.063144	-0.098902
O4	O	1.222835	0.563144	0.401098
O5	O	0.830361	0.063162	0.008621
O6	O	1.330361	0.563162	0.508621
O7	O	0.818621	0.063178	-0.194691
O8	O	1.318621	0.563178	0.305309
O9	O	0.830343	-0.062735	0.008624
O10	O	1.330343	0.437265	0.508624
O11	O	0.722816	-0.062752	-0.098899
O12	O	1.222816	0.437248	0.401101
O13	O	0.926128	-0.062701	-0.087165
O14	O	1.426128	0.437299	0.412835
Cu15	Cu	0.824470	-0.074222	-0.093032
Cu16	Cu	1.324470	0.425778	0.406968
Cu17	Cu	0.824493	0.074665	-0.093035
Cu18	Cu	1.324493	0.574665	0.406965
O19	O	0.818602	-0.062718	-0.194688
O20	O	1.318602	0.437282	0.305312
C21	C	0.696815	0.000189	-0.098521
C22	C	1.196815	0.500189	0.401479
C23	C	0.619310	0.000169	-0.097380
C24	C	1.119310	0.500169	0.402620
N25	N	0.824460	-0.178941	-0.093029
N26	N	1.324460	0.321059	0.406971
C27	C	0.574384	0.000186	-0.160471
C28	C	1.074384	0.500186	0.339529
C29	C	0.501560	0.000195	-0.159399
C30	C	1.001560	0.500195	0.340601
C31	C	0.473666	0.000201	-0.095233
C32	C	0.973666	0.500201	0.404767
C33	C	0.518602	0.000180	-0.032134
C34	C	1.018602	0.500180	0.467866
C35	C	0.591424	0.000164	-0.033207
C36	C	1.091424	0.500164	0.466793
N37	N	0.365694	0.043076	-0.046187
N38	N	0.865694	0.543076	0.453813
N39	N	0.296515	0.043092	-0.045171
N40	N	0.796515	0.543092	0.454829
C41	C	0.254257	0.000247	-0.091995
C42	C	0.754257	0.500247	0.408005
N43	N	0.283790	-0.042606	-0.139883
N44	N	0.783790	0.457394	0.360117
N45	N	0.352975	-0.042619	-0.140900
N46	N	0.852975	0.457381	0.359100
C47	C	0.394704	0.000218	-0.094062
C48	C	0.894704	0.500218	0.405938
C49	C	0.130367	0.000272	-0.153928
C50	C	0.630367	0.500272	0.346072
C51	C	0.057542	0.000276	-0.152854
C52	C	0.557542	0.500276	0.347146
C53	C	0.074585	0.000268	-0.025586
C54	C	0.574585	0.500268	0.474414
C55	C	0.147408	0.000257	-0.026663
C56	C	0.647408	0.500257	0.473337
C57	C	0.175295	0.000263	-0.090835
C58	C	0.675295	0.500263	0.409165
C59	C	0.866667	-0.218530	-0.135274
C60	C	1.366667	0.281470	0.364726
C61	C	0.866679	-0.297778	-0.135272
C62	C	1.366679	0.202222	0.364728
C63	C	0.824469	-0.337434	-0.093033
C64	C	1.324469	0.162566	0.406967
C65	C	0.782259	-0.297836	-0.050778
C66	C	1.282259	0.202164	0.449222
C67	C	0.782254	-0.218590	-0.050776
C68	C	1.282254	0.281410	0.449224
N69	N	0.763321	-0.461889	-0.091313
N70	N	1.263321	0.038111	0.408687
N71	N	0.763327	-0.537169	-0.091318
N72	N	1.263327	-0.037169	0.408682
C73	C	0.824482	-0.576198	-0.093035
C74	C	1.324482	-0.076198	0.406965
N75	N	0.885631	-0.537101	-0.094759
N76	N	1.385631	-0.037101	0.405241
N77	N	0.885624	-0.461814	-0.094757
N78	N	1.385624	0.038186	0.405243
C79	C	0.824470	-0.423363	-0.093030
C80	C	1.324470	0.076637	0.406970
C81	C	0.866705	-0.701715	-0.135281
C82	C	1.366705	-0.201715	0.364719
C83	C	0.866718	-0.780964	-0.135274
C84	C	1.366718	-0.280964	0.364726
C85	C	0.782292	-0.781021	-0.050784
C86	C	1.282292	-0.281021	0.449216
C87	C	0.782286	-0.701773	-0.050787
C88	C	1.282286	-0.201773	0.449213
C89	C	0.824491	-0.662125	-0.093039
C90	C	1.324491	-0.162125	0.406961
C91	C	0.952148	0.000256	-0.087546
C92	C	1.452148	0.500256	0.412454
C93	C	1.029653	0.000281	-0.088687
C94	C	1.529653	0.500281	0.411313
C95	C	0.829973	0.000212	0.034634
C96	C	1.329973	0.500212	0.534634
C97	C	0.828835	0.000210	0.112139
C98	C	1.328835	0.500210	0.612139
N99	N	0.824509	0.179385	-0.093033
N100	N	1.324509	0.679385	0.406967
C101	C	0.828314	0.068836	0.148536
C102	C	1.328314	0.568836	0.648536
C103	C	0.827234	0.068840	0.221359
C104	C	1.327234	0.568840	0.721359
C105	C	0.826690	0.000215	0.257783
C106	C	1.326690	0.500215	0.757783
C107	C	0.827207	-0.068420	0.221377
C108	C	1.327207	0.431580	0.721377
C109	C	0.828279	-0.068423	0.148554
C110	C	1.328279	0.431577	0.648554
N111	N	0.864731	-0.050852	0.377448
N112	N	1.364731	0.449148	0.877448
N113	N	0.863714	-0.050844	0.446626
N114	N	1.363714	0.449156	0.946626
C115	C	0.823458	0.000220	0.477193
C116	C	1.323458	0.500220	0.977193
N117	N	0.784266	0.051288	0.435968
N118	N	1.284266	0.551288	0.935968
N119	N	0.785286	0.051283	0.366784
N120	N	1.285286	0.551283	0.866784
C121	C	0.825527	0.000211	0.336747
C122	C	1.325527	0.500211	0.836747
C123	C	0.821765	0.068856	0.592552
C124	C	1.321765	0.568856	1.092552
C125	C	0.820682	0.068858	0.665376
C126	C	1.320682	0.568858	1.165376
C127	C	0.820661	-0.068404	0.665394
C128	C	1.320661	0.431596	1.165394
C129	C	0.821738	-0.068404	0.592571
C130	C	1.321738	0.431596	1.092571
C131	C	0.822293	0.000228	0.556155
C132	C	1.322293	0.500228	1.056155
C133	C	0.818992	0.000231	0.779300
C134	C	1.318992	0.500231	1.279300
C135	C	0.820136	0.000232	0.701795
C136	C	1.320136	0.500232	1.201795
H137	H	0.597084	0.000192	-0.212726
H138	H	1.097084	0.500192	0.287274
H139	H	0.901093	-0.813196	-0.169673
H140	H	1.401093	-0.313196	0.330327
Cl141	Cl	0.203890	0.000240	0.052657
Cl142	Cl	0.703890	0.500240	0.552657
H143	H	0.747882	-0.186357	-0.016374
H144	H	1.247882	0.313643	0.483626
Cl145	Cl	0.820022	0.155139	0.711133
Cl146	Cl	1.320022	0.655139	1.211133
Cl147	Cl	0.819973	-0.154677	0.711177
Cl148	Cl	1.319973	0.345323	1.211177
H149	H	0.826806	0.124726	0.250998
H150	H	1.326806	0.624726	0.750998
Cl151	Cl	0.826517	-0.154691	0.267166
Cl152	Cl	1.326517	0.345309	0.767166
H153	H	0.828701	-0.124308	0.118920
H154	H	1.328701	0.375692	0.618920
Cl155	Cl	0.919712	-0.168691	-0.188405
Cl156	Cl	1.419712	0.331309	0.311595
H157	H	0.828764	0.124721	0.118890
H158	H	1.328764	0.624721	0.618890
Cl159	Cl	0.039525	0.000267	0.055081
Cl160	Cl	0.539525	0.500267	0.555081
H161	H	0.747913	-0.669540	-0.016389
H162	H	1.247913	-0.169540	0.483611
H163	H	0.822213	0.124741	0.562901
H164	H	1.322213	0.624741	1.062901
Cl165	Cl	0.919778	-0.651869	-0.188381
Cl166	Cl	1.419778	-0.151869	0.311619
H167	H	0.464975	0.000206	-0.210777
H168	H	0.964975	0.500206	0.289223
Cl169	Cl	0.919744	-0.347556	-0.188385
Cl170	Cl	1.419744	0.152444	0.311615
H171	H	0.747925	-0.813308	-0.016391
H172	H	1.247925	-0.313308	0.483609
Cl173	Cl	0.483536	0.000183	0.048533
Cl174	Cl	0.983536	0.500183	0.548533
Cl175	Cl	0.647906	0.000143	0.046114
Cl176	Cl	1.147906	0.500143	0.546114
H177	H	0.153073	0.000265	-0.206182
H178	H	0.653073	0.500265	0.293818
Cl179	Cl	0.001062	0.000293	-0.232176
Cl180	Cl	0.501062	0.500293	0.267824
H181	H	0.822168	-0.124287	0.562936
H182	H	1.322168	0.375713	1.062936
H183	H	0.747892	-0.330129	-0.016386
H184	H	1.247892	0.169871	0.483614
