data_functionalizedCrystal
_audit_creation_method	'MofGen! by Chris Wilmer'
_symmetry_space_group_name_H-M	'P1'
_symmetry_Int_Tables_number	1
_symmetry_cell_setting	triclinic
loop_
_symmetry_equiv_pos_as_xyz
  x,y,z
_cell_length_a	9.065218
_cell_length_b	14.044220
_cell_length_c	8.140239
_cell_angle_alpha	89.995422
_cell_angle_beta	89.997198
_cell_angle_gamma	89.102381
loop_
_atom_site_label
_atom_site_type_symbol
_atom_site_fract_x
_atom_site_fract_y
_atom_site_fract_z
O1	O	1.975818	0.139141	-0.136623
O2	O	2.475818	0.639141	0.363377
O3	O	1.547798	0.150554	-0.136626
O4	O	2.047798	0.650554	0.363374
O5	O	1.755383	0.006808	-0.136608
O6	O	2.255383	0.506808	0.363392
O7	O	1.768232	0.282887	-0.136641
O8	O	2.268232	0.782887	0.363359
O9	O	1.755371	0.006806	0.136619
O10	O	2.255371	0.506806	0.636619
O11	O	1.547785	0.150552	0.136601
O12	O	2.047785	0.650552	0.636601
O13	O	1.975805	0.139139	0.136604
O14	O	2.475805	0.639139	0.636604
Zn15	Zn	1.761793	0.144845	0.179983
Zn16	Zn	2.261793	0.644845	0.679983
Zn17	Zn	1.761810	0.144848	-0.180005
Zn18	Zn	2.261810	0.644848	0.319995
O19	O	1.768220	0.282885	0.136586
O20	O	2.268220	0.782885	0.636586
C21	C	1.492683	0.149456	-0.000013
C22	C	1.992683	0.649456	0.499987
C23	C	1.328477	0.146176	-0.000013
C24	C	1.828477	0.646176	0.499987
C25	C	1.749752	-0.028556	0.000006
C26	C	2.249752	0.471444	0.500006
C27	C	1.732975	-0.133926	0.000008
C28	C	2.232975	0.366074	0.500008
C29	C	1.702304	-0.326850	-0.000016
C30	C	2.202304	0.173150	0.499984
C31	C	1.821293	-0.383462	-0.000020
C32	C	2.321293	0.116538	0.499980
C33	C	1.804226	-0.490812	-0.000034
C34	C	2.304226	0.009188	0.499966
C35	C	1.719368	-0.219491	-0.000003
C36	C	2.219368	0.280509	0.499997
C37	C	2.030920	0.140237	-0.000013
C38	C	2.530920	0.640237	0.499987
C39	C	2.195126	0.143517	-0.000023
C40	C	2.695126	0.643517	0.499977
C41	C	1.773850	0.318249	-0.000032
C42	C	2.273850	0.818249	0.499968
C43	C	1.790627	0.423619	-0.000044
C44	C	2.290627	0.923619	0.499956
N45	N	1.761792	0.144843	0.425666
N46	N	2.261792	0.644843	0.925666
N47	N	1.761821	0.144842	-0.425688
N48	N	2.261821	0.644842	0.074312
H49	H	1.935980	-0.351306	-0.000130
H50	H	2.435980	0.148694	0.499870
O51	O	1.565597	-0.365360	0.000062
O52	O	2.065597	0.134640	0.500062
C53	C	1.578780	-0.465524	0.000013
C54	C	2.078780	0.034476	0.500013
H55	H	1.691039	-0.487659	0.051726
H56	H	2.191039	0.012341	0.551726
H57	H	1.487896	-0.496769	0.079347
H58	H	1.987896	0.003231	0.579347
H59	H	1.568063	-0.493142	-0.131068
H60	H	2.068063	0.006858	0.368932
