data_functionalizedCrystal
_audit_creation_method	'MofGen! by Chris Wilmer'
_symmetry_space_group_name_H-M	'P1'
_symmetry_Int_Tables_number	1
_symmetry_cell_setting	triclinic
loop_
_symmetry_equiv_pos_as_xyz
  x,y,z
_cell_length_a	15.944551
_cell_length_b	15.944493
_cell_length_c	15.021413
_cell_angle_alpha	89.990110
_cell_angle_beta	90.002826
_cell_angle_gamma	83.486891
loop_
_atom_site_label
_atom_site_type_symbol
_atom_site_fract_x
_atom_site_fract_y
_atom_site_fract_z
O1	O	1.114506	0.108324	0.073927
O2	O	0.869954	0.121680	0.073948
O3	O	0.998934	-0.007276	0.073945
O4	O	0.985527	0.237280	0.073931
O5	O	0.998913	-0.007258	-0.074120
O6	O	0.869933	0.121699	-0.074116
O7	O	1.114486	0.108342	-0.074137
Zn8	Zn	0.992206	0.115023	-0.097635
Zn9	Zn	0.992233	0.114999	0.097446
O10	O	0.985506	0.237299	-0.074133
C11	C	0.838650	0.121135	-0.000081
C12	C	0.745404	0.119473	-0.000073
C13	C	0.530565	0.035566	-0.000085
C14	C	0.469547	0.074520	0.072916
C15	C	0.574679	0.116465	-0.000083
C16	C	0.469549	0.074558	-0.073064
C17	C	0.409767	0.113555	-0.000097
C18	C	0.514889	0.155442	0.072979
C19	C	0.514897	0.155468	-0.073067
C20	C	0.453897	0.194481	-0.000048
C21	C	0.669681	0.118140	-0.000074
C22	C	0.314766	0.111886	-0.000099
C23	C	0.998375	-0.038562	-0.000084
C24	C	0.996733	-0.131810	-0.000072
C25	C	1.072653	-0.367570	-0.000095
C26	C	1.031722	-0.418147	0.072911
C27	C	0.993688	-0.302531	-0.000083
C28	C	1.031683	-0.418105	-0.073069
C29	C	0.990754	-0.467441	-0.000097
C30	C	0.952779	-0.351880	0.072984
C31	C	0.952752	-0.351835	-0.073061
C32	C	0.911763	-0.402379	-0.000037
C33	C	0.995381	-0.207531	-0.000074
C34	C	0.989055	-0.562438	-0.000100
C35	C	1.145790	0.108888	-0.000106
C36	C	1.239036	0.110550	-0.000108
C37	C	0.986064	0.268584	-0.000103
C38	C	0.987707	0.361833	-0.000109
N39	N	0.992194	0.115039	-0.230772
C40	C	0.932545	0.174641	-0.470454
C41	C	1.008442	0.190948	-0.529796
C42	C	0.992215	0.115018	-0.412379
C43	C	0.916339	0.098730	-0.529779
C44	C	0.992229	0.115000	-0.587803
C45	C	1.068151	0.131364	-0.470415
C46	C	0.975998	0.039112	-0.470392
C47	C	1.051950	0.055387	-0.529708
C48	C	0.992206	0.115031	-0.311322
C49	C	0.992247	0.114987	-0.688859
N50	N	0.992252	0.114976	0.230584
H51	H	0.535013	0.189664	-0.134791
O52	O	0.839713	0.082396	-0.560779
C53	C	0.776995	0.145435	-0.530605
H54	H	0.800178	0.176212	-0.468126
H55	H	0.716963	0.115810	-0.514607
H56	H	0.763126	0.195257	-0.584682
H57	H	1.102473	0.004956	-0.555562
H58	H	0.962245	-0.025052	-0.444279
H59	H	0.919459	-0.323068	0.134771
H60	H	0.534878	0.189626	0.134763
H61	H	0.563912	-0.031574	0.000009
H62	H	0.449461	0.040333	-0.134778
O63	O	1.071648	-0.452674	0.146471
C64	C	1.156401	-0.435292	0.146219
H65	H	1.176440	-0.422205	0.075176
H66	H	1.198419	-0.491973	0.173790
H67	H	1.162878	-0.377644	0.189488
H68	H	1.022171	0.255133	-0.555888
H69	H	0.882134	0.225102	-0.444437
O70	O	0.445718	0.033636	0.146575
C71	C	0.517615	0.005892	0.197853
H72	H	0.575981	0.000063	0.153473
H73	H	0.509803	-0.058221	0.228386
H74	H	0.525200	0.053399	0.253165
O75	O	1.144660	0.148071	-0.439427
C76	C	1.134459	0.222014	-0.387235
H77	H	1.073463	0.262004	-0.406975
H78	H	1.190199	0.259618	-0.398638
H79	H	1.131465	0.204212	-0.313888
O80	O	0.414352	0.274672	0.000150
C81	C	0.437483	0.316995	0.077208
H82	H	0.459403	0.268764	0.130766
H83	H	0.380786	0.360335	0.102683
H84	H	0.490961	0.356107	0.060486
H85	H	0.843692	-0.417845	0.000009
O86	O	1.153740	-0.348755	-0.000070
C87	C	1.154198	-0.260383	-0.000837
H88	H	1.091997	-0.229394	-0.029326
H89	H	1.208700	-0.243332	-0.043822
H90	H	1.162266	-0.236963	0.070013
O91	O	0.913114	-0.317323	-0.146781
C92	C	0.954957	-0.351247	-0.223607
H93	H	1.022887	-0.375855	-0.206122
H94	H	0.954707	-0.300014	-0.276582
H95	H	0.921115	-0.405303	-0.250240
H96	H	1.065039	-0.447029	-0.134786
