data_functionalizedCrystal
_audit_creation_method	'MofGen! by Chris Wilmer'
_symmetry_space_group_name_H-M	'P1'
_symmetry_Int_Tables_number	1
_symmetry_cell_setting	triclinic
loop_
_symmetry_equiv_pos_as_xyz
  x,y,z
_cell_length_a	18.101398
_cell_length_b	18.101397
_cell_length_c	12.759393
_cell_angle_alpha	90.037652
_cell_angle_beta	90.017030
_cell_angle_gamma	90.018618
loop_
_atom_site_label
_atom_site_type_symbol
_atom_site_fract_x
_atom_site_fract_y
_atom_site_fract_z
Zn1	Zn	1.132195	-0.294822	0.593896
Zn2	Zn	1.632195	0.205178	1.093896
Zn3	Zn	1.132108	-0.418684	0.418197
Zn4	Zn	1.632108	0.081316	0.918197
Zn5	Zn	1.008348	-0.294857	0.418240
Zn6	Zn	1.508348	0.205143	0.918240
Zn7	Zn	1.008328	-0.418623	0.593843
Zn8	Zn	1.508328	0.081377	1.093843
O9	O	1.070245	-0.356747	0.506044
O10	O	1.570245	0.143253	1.006044
O11	O	1.235817	-0.311264	0.570593
O12	O	1.735817	0.188736	1.070593
O13	O	1.115664	-0.402298	0.271182
O14	O	1.615664	0.097702	0.771182
O15	O	1.024822	-0.191219	0.441581
O16	O	1.524822	0.308781	0.941581
O17	O	1.235753	-0.402265	0.441508
O18	O	1.735753	0.097735	0.941508
O19	O	1.115812	-0.191194	0.570634
O20	O	1.615812	0.308806	1.070634
O21	O	1.024738	-0.311323	0.271213
O22	O	1.524738	0.188677	0.771213
O23	O	0.904713	-0.311263	0.441530
O24	O	1.404713	0.188737	0.941530
O25	O	1.024787	-0.402160	0.740871
O26	O	1.524787	0.097840	1.240871
O27	O	0.904698	-0.402194	0.570545
O28	O	1.404698	0.097806	1.070545
O29	O	1.115792	-0.311205	0.740910
O30	O	1.615792	0.188795	1.240910
O31	O	1.115644	-0.522309	0.441457
O32	O	1.615644	-0.022309	0.941457
O33	O	1.024703	-0.522264	0.570504
O34	O	1.524703	-0.022264	1.070504
C35	C	0.877835	-0.356726	0.506037
C36	C	1.377835	0.143274	1.006037
C37	C	0.795520	-0.356735	0.506059
C38	C	1.295520	0.143265	1.006059
C39	C	0.644812	-0.356749	0.506057
C40	C	1.144812	0.143251	1.006057
C41	C	0.613474	-0.414048	0.587104
C42	C	1.113474	0.085952	1.087104
C43	C	0.527855	-0.414280	0.586864
C44	C	1.027855	0.085720	1.086864
C45	C	0.496429	-0.356763	0.506057
C46	C	0.996429	0.143237	1.006057
C47	C	0.527482	-0.377598	0.395198
C48	C	1.027482	0.122402	0.895198
C49	C	0.613127	-0.378006	0.395667
C50	C	1.113127	0.121994	0.895667
C51	C	0.613277	-0.278472	0.534901
C52	C	1.113277	0.221528	1.034901
C53	C	0.527627	-0.278901	0.537342
C54	C	1.027627	0.221099	1.037342
C55	C	0.412570	-0.356769	0.506050
C56	C	0.912570	0.143231	1.006050
C57	C	0.728671	-0.356744	0.506056
C58	C	1.228671	0.143256	1.006056
C59	C	1.070182	-0.549157	0.505993
C60	C	1.570182	-0.049157	1.005993
C61	C	1.070222	-0.631471	0.506006
C62	C	1.570222	-0.131471	1.006006
C63	C	1.070317	-0.930562	0.506102
C64	C	1.570317	-0.430562	1.006102
C65	C	1.127375	-0.899234	0.424692
C66	C	1.627375	-0.399234	0.924692
C67	C	1.127573	-0.813616	0.424903
C68	C	1.627573	-0.313616	0.924903
C69	C	1.070270	-0.782180	0.506054
C70	C	1.570270	-0.282180	1.006054
C71	C	1.091430	-0.813178	0.616794
C72	C	1.591430	-0.313178	1.116794
C73	C	1.091871	-0.898823	0.616350
C74	C	1.591871	-0.398823	1.116350
C75	C	0.991947	-0.899071	0.477731
C76	C	1.491947	-0.399071	0.977731
C77	C	0.992334	-0.813422	0.475259
C78	C	1.492334	-0.313422	0.975259
C79	C	1.070242	-0.698320	0.506033
C80	C	1.570242	-0.198320	1.006033
C81	C	1.070346	-1.014422	0.506130
C82	C	1.570346	-0.514422	1.006130
C83	C	1.263407	-0.356768	0.506052
C84	C	1.763407	0.143232	1.006052
C85	C	1.345721	-0.356776	0.506055
C86	C	1.845721	0.143224	1.006055
C87	C	1.070297	-0.356672	0.780077
C88	C	1.570297	0.143328	1.280077
C89	C	1.070319	-0.356640	0.896854
C90	C	1.570319	0.143360	1.396854
C91	C	1.070329	-0.163585	0.506118
C92	C	1.570329	0.336415	1.006118
C93	C	1.070365	-0.081270	0.506150
C94	C	1.570365	0.418730	1.006150
C95	C	1.070236	-0.356767	0.233077
C96	C	1.570236	0.143233	0.733077
C97	C	1.070357	-0.356591	0.116300
C98	C	1.570357	0.143409	0.616300
C99	C	1.117712	-0.309275	0.951738
C100	C	1.617712	0.190725	1.451738
C101	C	1.117729	-0.309248	1.061462
C102	C	1.617729	0.190752	1.561462
C103	C	1.022959	-0.403958	1.061409
C104	C	1.522959	0.096042	1.561409
C105	C	1.022939	-0.403980	0.951687
C106	C	1.522939	0.096020	1.451687
C107	C	1.172429	-0.254597	0.951770
C108	C	1.672429	0.245403	1.451770
C109	C	1.172446	-0.254570	1.061494
C110	C	1.672446	0.245430	1.561494
H111	H	0.633079	-0.435216	0.371289
H112	H	1.133079	0.064784	0.871289
Br113	Br	1.223606	-0.935012	0.455614
Br114	Br	1.723606	-0.435012	0.955614
H115	H	1.226894	-0.275160	0.917729
H116	H	1.726894	0.224840	1.417729
H117	H	0.633857	-0.338056	0.333208
H118	H	1.133857	0.161944	0.833208
H119	H	0.507334	-0.263183	0.618929
H120	H	1.007334	0.236817	1.118929
H121	H	1.151930	-0.200076	1.095551
H122	H	1.651930	0.299924	1.595551
Br123	Br	1.268041	-0.280162	1.111129
Br124	Br	1.768041	0.219838	1.611129
H125	H	1.052133	-0.919543	0.679097
H126	H	1.552133	-0.419543	1.179097
H127	H	1.148073	-0.791670	0.641234
H128	H	1.648073	-0.291670	1.141234
Br129	Br	0.491695	-0.471908	0.353864
Br130	Br	0.991695	0.028092	0.853864
H131	H	0.506236	-0.233956	0.482663
H132	H	1.006236	0.266044	0.982663
H133	H	1.185624	-0.793073	0.443674
H134	H	1.685624	-0.293073	0.943674
Br135	Br	0.492859	-0.392617	0.723847
Br136	Br	0.992859	0.107383	1.223847
Br137	Br	0.649319	-0.246746	0.667368
Br138	Br	1.149319	0.253254	1.167368
H139	H	0.634094	-0.401200	0.669546
H140	H	1.134094	0.098800	1.169546
H141	H	1.149156	-0.918742	0.640384
H142	H	1.649156	-0.418742	1.140384
H143	H	0.633544	-0.235785	0.475876
H144	H	1.133544	0.264215	0.975876
H145	H	1.114334	-0.792661	0.342791
H146	H	1.614334	-0.292661	0.842791
H147	H	1.114296	-0.919884	0.342334
H148	H	1.614296	-0.419884	0.842334
H149	H	1.051142	-0.792812	0.679081
H150	H	1.551142	-0.292812	1.179081
H151	H	0.634972	-0.471722	0.568199
H152	H	1.134972	0.028278	1.068199
Br153	Br	0.959862	-0.935185	0.345475
Br154	Br	1.459862	-0.435185	0.845475
H155	H	0.976379	-0.793170	0.393763
H156	H	1.476379	-0.293170	0.893763
H157	H	0.947535	-0.792030	0.530212
H158	H	1.447535	-0.292030	1.030212
H159	H	0.507343	-0.472287	0.567727
H160	H	1.007343	0.027713	1.067727
Br161	Br	0.921089	-0.932837	0.576555
Br162	Br	1.421089	-0.432837	1.076555
Br163	Br	0.958659	-0.468201	1.135831
Br164	Br	1.458659	0.031799	1.635831
Br165	Br	0.493559	-0.310174	0.291779
Br166	Br	0.993559	0.189826	0.791779
Br167	Br	0.958603	-0.468249	0.877204
Br168	Br	1.458603	0.031751	1.377204
Br169	Br	1.146865	-0.159009	0.902179
Br170	Br	1.646865	0.340991	1.402179
