data_functionalizedCrystal
_audit_creation_method	'MofGen! by Chris Wilmer'
_symmetry_space_group_name_H-M	'P1'
_symmetry_Int_Tables_number	1
_symmetry_cell_setting	triclinic
loop_
_symmetry_equiv_pos_as_xyz
  x,y,z
_cell_length_a	18.050590
_cell_length_b	18.050589
_cell_length_c	18.050582
_cell_angle_alpha	90.018205
_cell_angle_beta	89.999233
_cell_angle_gamma	90.017386
loop_
_atom_site_label
_atom_site_type_symbol
_atom_site_fract_x
_atom_site_fract_y
_atom_site_fract_z
Zn1	Zn	1.135292	-0.295921	0.419624
Zn2	Zn	1.468626	0.037412	0.752957
Zn3	Zn	1.801959	0.370745	1.086291
Zn4	Zn	1.135203	-0.420105	0.295444
Zn5	Zn	1.468536	-0.086771	0.628777
Zn6	Zn	1.801870	0.246562	0.962110
Zn7	Zn	1.011112	-0.295910	0.295482
Zn8	Zn	1.344445	0.037424	0.628816
Zn9	Zn	1.677778	0.370757	0.962149
Zn10	Zn	1.011060	-0.420051	0.419626
Zn11	Zn	1.344393	-0.086717	0.752959
Zn12	Zn	1.677726	0.246616	1.086293
O13	O	1.073167	-0.357997	0.357544
O14	O	1.406500	-0.024663	0.690877
O15	O	1.739833	0.308670	1.024211
O16	O	1.239205	-0.312422	0.403134
O17	O	1.572538	0.020911	0.736468
O18	O	1.905872	0.354244	1.069801
O19	O	1.118727	-0.403648	0.191524
O20	O	1.452060	-0.070314	0.524857
O21	O	1.785393	0.263019	0.858191
O22	O	1.027644	-0.191987	0.311965
O23	O	1.360977	0.141347	0.645299
O24	O	1.694310	0.474680	0.978632
O25	O	1.239140	-0.403659	0.311899
O26	O	1.572473	-0.070326	0.645233
O27	O	1.905806	0.263008	0.978566
O28	O	1.118879	-0.191995	0.403172
O29	O	1.452212	0.141338	0.736505
O30	O	1.785545	0.474671	1.069838
O31	O	1.027557	-0.312402	0.191553
O32	O	1.360890	0.020931	0.524886
O33	O	1.694224	0.354265	0.858219
O34	O	0.907180	-0.312350	0.311967
O35	O	1.240514	0.020984	0.645301
O36	O	1.573847	0.354317	0.978634
O37	O	1.027555	-0.403567	0.523550
O38	O	1.360888	-0.070234	0.856884
O39	O	1.694222	0.263100	1.190217
O40	O	0.907142	-0.403555	0.403175
O41	O	1.240475	-0.070222	0.736509
O42	O	1.573809	0.263111	1.069842
O43	O	1.118828	-0.312370	0.523549
O44	O	1.452162	0.020964	0.856882
O45	O	1.785495	0.354297	1.190216
O46	O	1.118676	-0.524022	0.311901
O47	O	1.452009	-0.190689	0.645235
O48	O	1.785343	0.142645	0.978568
O49	O	1.027468	-0.523982	0.403138
O50	O	1.360802	-0.190649	0.736471
O51	O	1.694135	0.142684	1.069804
C52	C	0.880215	-0.357946	0.357576
C53	C	1.213548	-0.024613	0.690909
C54	C	1.546881	0.308721	1.024243
C55	C	0.797669	-0.357942	0.357607
C56	C	1.131002	-0.024609	0.690941
C57	C	1.464335	0.308725	1.024274
C58	C	1.073077	-0.550949	0.357532
C59	C	1.406410	-0.217615	0.690865
C60	C	1.739744	0.115718	1.024198
C61	C	1.073107	-0.633494	0.357551
C62	C	1.406440	-0.300161	0.690885
C63	C	1.739773	0.033172	1.024218
C64	C	1.023557	-0.832950	0.407148
C65	C	1.356890	-0.499617	0.740482
C66	C	1.690223	-0.166284	1.073815
C67	C	1.005459	-0.882381	0.339386
C68	C	1.338792	-0.549048	0.672719
C69	C	1.672125	-0.215714	1.006053
C70	C	1.073180	-0.784625	0.357561
C71	C	1.406513	-0.451291	0.690894
C72	C	1.739846	-0.117958	1.024228
C73	C	1.091314	-0.882276	0.425331
C74	C	1.424647	-0.548943	0.758664
C75	C	1.757981	-0.215609	1.091998
C76	C	1.073249	-0.930610	0.357576
C77	C	1.406582	-0.597277	0.690910
C78	C	1.739915	-0.263943	1.024243
C79	C	1.055046	-0.832968	0.289763
C80	C	1.388379	-0.499635	0.623096
C81	C	1.721713	-0.166302	0.956429
C82	C	1.140933	-0.832859	0.375754
C83	C	1.474266	-0.499525	0.709087
C84	C	1.807599	-0.166192	1.042420
C85	C	1.122861	-0.882267	0.307945
C86	C	1.456194	-0.548934	0.641278
C87	C	1.789527	-0.215600	0.974611
C88	C	1.073138	-0.700527	0.357553
C89	C	1.406471	-0.367193	0.690886
C90	C	1.739805	-0.033860	1.024220
C91	C	1.073290	-1.014706	0.357576
C92	C	1.406624	-0.681373	0.690910
C93	C	1.739957	-0.348040	1.024243
C94	C	0.598219	-0.407682	0.407088
C95	C	0.931552	-0.074348	0.740422
C96	C	1.264886	0.258985	1.073755
C97	C	0.548826	-0.339967	0.425358
C98	C	0.882159	-0.006634	0.758692
C99	C	1.215492	0.326700	1.092025
C100	C	0.646538	-0.357984	0.357571
C101	C	0.979872	-0.024650	0.690904
C102	C	1.313205	0.308683	1.024238
C103	C	0.548850	-0.425737	0.339300
C104	C	0.882183	-0.092404	0.672634
C105	C	1.215517	0.240929	1.005967
C106	C	0.500553	-0.358030	0.357537
C107	C	0.833887	-0.024696	0.690871
C108	C	1.167220	0.308637	1.024204
C109	C	0.598233	-0.290233	0.375876
C110	C	0.931566	0.043101	0.709210
C111	C	1.264899	0.376434	1.042543
C112	C	0.598261	-0.376049	0.289787
C113	C	0.931594	-0.042715	0.623120
C114	C	1.264928	0.290618	0.956453
C115	C	0.548890	-0.308287	0.308031
C116	C	0.882224	0.025046	0.641364
C117	C	1.215557	0.358380	0.974698
C118	C	0.730637	-0.357958	0.357592
C119	C	1.063970	-0.024625	0.690926
C120	C	1.397303	0.308709	1.024259
C121	C	0.416457	-0.358047	0.357516
C122	C	0.749790	-0.024714	0.690849
C123	C	1.083123	0.308619	1.024183
C124	C	1.266872	-0.358048	0.357512
C125	C	1.600206	-0.024715	0.690846
C126	C	1.933539	0.308619	1.024179
C127	C	1.349418	-0.358070	0.357499
C128	C	1.682751	-0.024737	0.690832
C129	C	2.016085	0.308597	1.024166
C130	C	1.073196	-0.357964	0.551250
C131	C	1.406529	-0.024630	0.884583
C132	C	1.739862	0.308703	1.217916
C133	C	1.073208	-0.357950	0.633796
C134	C	1.406542	-0.024616	0.967129
C135	C	1.739875	0.308717	1.300462
C136	C	1.073277	-0.164291	0.357573
C137	C	1.406610	0.169042	0.690906
C138	C	1.739944	0.502376	1.024239
C139	C	1.073324	-0.081745	0.357585
C140	C	1.406657	0.251588	0.690918
C141	C	1.739991	0.584921	1.024251
C142	C	1.073180	-0.357976	0.164592
C143	C	1.406514	-0.024642	0.497925
C144	C	1.739847	0.308691	0.831259
C145	C	1.073312	-0.357781	0.082047
C146	C	1.406645	-0.024447	0.415380
C147	C	1.739979	0.308886	0.748713
C148	C	1.023612	-0.407475	0.833247
C149	C	1.356945	-0.074142	1.166580
C150	C	1.690278	0.259192	1.499914
C151	C	1.091367	-0.425641	0.882621
C152	C	1.424700	-0.092308	1.215955
C153	C	1.758034	0.241025	1.549288
C154	C	1.073245	-0.357893	0.784926
C155	C	1.406578	-0.024560	1.118259
C156	C	1.739912	0.308774	1.451593
C157	C	1.005527	-0.339706	0.882634
C158	C	1.338860	-0.006373	1.215967
C159	C	1.672193	0.326961	1.549300
C160	C	1.073274	-0.357840	0.930911
C161	C	1.406608	-0.024506	1.264244
C162	C	1.739941	0.308827	1.597578
C163	C	1.141036	-0.376095	0.833213
C164	C	1.474369	-0.042761	1.166546
C165	C	1.807702	0.290572	1.499880
C166	C	1.055150	-0.290128	0.833221
C167	C	1.388483	0.043205	1.166554
C168	C	1.721816	0.376539	1.499888
C169	C	1.122952	-0.308269	0.882573
C170	C	1.456285	0.025065	1.215906
C171	C	1.789618	0.358398	1.549239
C172	C	1.073227	-0.357926	0.700828
C173	C	1.406560	-0.024592	1.034161
C174	C	1.739894	0.308741	1.367494
C175	C	1.073300	-0.357807	1.015008
C176	C	1.406633	-0.024474	1.348341
C177	C	1.739966	0.308860	1.681674
H178	H	0.981530	-0.811296	0.449023
H179	H	1.314864	-0.477962	0.782357
H180	H	1.648197	-0.144629	1.115690
Cl181	Cl	1.187699	-0.915491	0.243140
Cl182	Cl	1.521032	-0.582157	0.576473
Cl183	Cl	1.854365	-0.248824	0.909807
Cl184	Cl	1.229497	-0.399919	0.799843
Cl185	Cl	1.562830	-0.066586	1.133176
Cl186	Cl	1.896164	0.266747	1.466509
Cl187	Cl	1.229325	-0.799248	0.399539
Cl188	Cl	1.562658	-0.465914	0.732873
Cl189	Cl	1.895992	-0.132581	1.066206
H190	H	1.106625	-0.903935	0.482637
H191	H	1.439958	-0.570601	0.815971
H192	H	1.773291	-0.237268	1.149304
H193	H	0.948195	-0.904150	0.324012
H194	H	1.281528	-0.570817	0.657346
H195	H	1.614861	-0.237484	0.990679
Cl196	Cl	0.917091	-0.315989	0.916150
Cl197	Cl	1.250425	0.017344	1.249483
Cl198	Cl	1.583758	0.350677	1.582817
H199	H	0.527367	-0.266230	0.266142
H200	H	0.860700	0.067103	0.599475
H201	H	1.194034	0.400437	0.932808
Cl202	Cl	0.631787	-0.399634	0.201316
Cl203	Cl	0.965121	-0.066301	0.534650
Cl204	Cl	1.298454	0.267033	0.867983
H205	H	0.527154	-0.483016	0.323863
H206	H	0.860488	-0.149683	0.657196
H207	H	1.193821	0.183651	0.990530
Cl208	Cl	0.515299	-0.316398	0.513838
Cl209	Cl	0.848632	0.016936	0.847171
Cl210	Cl	1.181966	0.350269	1.180505
Cl211	Cl	0.958870	-0.472292	0.799804
Cl212	Cl	1.292203	-0.138959	1.133138
Cl213	Cl	1.625536	0.194374	1.466471
Cl214	Cl	0.631664	-0.472459	0.471809
Cl215	Cl	0.964997	-0.139126	0.805142
Cl216	Cl	1.298330	0.194207	1.138475
H217	H	0.619834	-0.232937	0.391380
H218	H	0.953167	0.100397	0.724714
H219	H	1.286500	0.433730	1.058047
Cl220	Cl	1.187846	-0.243498	0.915807
Cl221	Cl	1.521180	0.089835	1.249140
Cl222	Cl	1.854513	0.423169	1.582474
H223	H	1.106690	-0.482926	0.904320
H224	H	1.440023	-0.149593	1.237654
H225	H	1.773356	0.183741	1.570987
H226	H	1.039807	-0.232860	0.811505
H227	H	1.373140	0.100473	1.144839
H228	H	1.706474	0.433807	1.478172
H229	H	1.039669	-0.811399	0.232441
H230	H	1.373003	-0.478066	0.565774
H231	H	1.706336	-0.144732	0.899107
