data_functionalizedCrystal
_audit_creation_method	'MofGen! by Chris Wilmer'
_symmetry_space_group_name_H-M	'P1'
_symmetry_Int_Tables_number	1
_symmetry_cell_setting	triclinic
loop_
_symmetry_equiv_pos_as_xyz
  x,y,z
_cell_length_a	13.339070
_cell_length_b	15.995350
_cell_length_c	11.804365
_cell_angle_alpha	101.833003
_cell_angle_beta	74.875130
_cell_angle_gamma	99.560835
loop_
_atom_site_label
_atom_site_type_symbol
_atom_site_fract_x
_atom_site_fract_y
_atom_site_fract_z
O1	O	1.362724	0.407602	-0.099048
O2	O	1.068197	0.352506	-0.099044
O3	O	1.223511	0.260037	-0.099045
O4	O	1.207410	0.500071	-0.099047
O5	O	1.182623	0.284347	0.099011
O6	O	1.027308	0.376816	0.099012
O7	O	1.321836	0.431912	0.099008
Cu8	Cu	1.170839	0.406583	0.117094
Cu9	Cu	1.219194	0.377835	-0.117130
O10	O	1.166521	0.524381	0.099009
C11	C	1.010063	0.355354	-0.000015
C12	C	0.897761	0.327613	-0.000014
C13	C	0.532972	0.543314	-0.000035
C14	C	0.638486	0.569380	-0.000040
C15	C	0.703310	0.508941	-0.000033
C16	C	0.662610	0.422430	-0.000022
C17	C	0.557088	0.396360	-0.000026
C18	C	0.727425	0.361987	-0.000024
C19	C	0.686725	0.275476	-0.000013
C20	C	0.581213	0.249410	-0.000017
C21	C	0.516389	0.309850	-0.000024
C22	C	0.832947	0.388057	-0.000020
C23	C	0.857062	0.241103	-0.000012
C24	C	0.751549	0.215036	-0.000007
C25	C	1.202402	0.240842	-0.000019
C26	C	1.200408	0.147427	-0.000026
C27	C	1.193240	-0.191985	-0.000022
C28	C	1.082719	-0.170302	-0.000464
C29	C	1.084623	-0.073093	-0.000018
C30	C	1.196795	-0.023599	-0.000025
C31	C	1.228004	-0.038120	0.113072
C32	C	1.225206	-0.135389	0.113167
C33	C	1.273989	-0.162861	-0.112060
C34	C	1.274271	-0.066105	-0.113555
C35	C	1.198810	0.071567	-0.000022
C36	C	1.191227	-0.287149	-0.000016
C37	C	1.379970	0.429063	-0.000023
C38	C	1.492274	0.456804	-0.000032
C39	C	1.187631	0.543575	-0.000019
C40	C	1.189627	0.636989	-0.000020
N41	N	1.136835	0.426805	0.281835
N42	N	1.253205	0.357608	-0.281871
C43	C	1.334859	0.309033	0.655782
C44	C	1.360581	0.293731	0.531121
C45	C	1.304647	0.326998	0.468793
C46	C	1.222986	0.375570	0.531140
C47	C	1.197267	0.390878	0.655814
C48	C	1.167054	0.408844	0.468824
C49	C	1.085394	0.457415	0.531171
C50	C	1.059678	0.472721	0.655833
C51	C	1.115613	0.439454	0.718160
C52	C	1.192774	0.393535	0.344150
C53	C	1.055181	0.475380	0.344182
C54	C	1.029459	0.490682	0.468843
H55	H	0.909843	0.191887	-0.000011
H56	H	1.325593	0.314538	0.367288
O57	O	0.994848	0.511265	0.276966
H58	H	0.933756	0.547623	0.341262
H59	H	0.480187	0.592513	-0.000050
O60	O	0.941402	0.543088	0.536093
H61	H	0.867470	0.511131	0.512200
H62	H	1.380399	0.281957	0.706538
H63	H	0.718397	0.144597	-0.000007
O64	O	0.402580	0.281731	-0.000013
H65	H	0.364347	0.338294	-0.000017
O66	O	1.154795	0.001491	0.224568
H67	H	1.200285	0.051234	0.277958
O68	O	1.149386	-0.158143	0.225150
H69	H	1.070340	-0.143666	0.227129
H70	H	0.548081	0.178966	-0.000021
H71	H	0.993193	0.512278	0.706596
O72	O	0.876831	0.481362	-0.000009
H73	H	0.867455	0.501688	-0.080728
O74	O	0.817111	0.537051	-0.000019
H75	H	0.834520	0.607362	-0.000014
H76	H	1.058474	-0.064585	-0.081090
H77	H	1.259262	0.353989	0.293399
O78	O	1.046322	-0.221657	-0.107881
H79	H	1.103001	-0.206025	-0.190208
O80	O	1.002353	-0.196670	0.106376
H81	H	1.040784	-0.225149	0.159794
H82	H	1.427069	0.254186	0.480363
H83	H	1.024682	-0.045291	0.081194
O84	O	1.331362	-0.152290	0.119987
H85	H	1.384465	-0.091015	0.123213
H86	H	1.309546	-0.004333	0.117274
O87	O	1.087873	0.455969	0.852622
H88	H	1.140491	0.424678	0.885481
H89	H	1.255521	-0.202324	-0.197781
O90	O	1.382227	-0.179952	-0.113070
H91	H	1.438784	-0.159211	-0.192413
O92	O	1.244399	-0.055806	-0.224393
H93	H	1.174668	-0.020557	-0.198745
H94	H	0.671618	0.639816	-0.000058
O95	O	1.384500	-0.021707	-0.122616
H96	H	1.385793	0.031584	-0.045996
