data_functionalizedCrystal
_audit_creation_method	'MofGen! by Chris Wilmer'
_symmetry_space_group_name_H-M	'P1'
_symmetry_Int_Tables_number	1
_symmetry_cell_setting	triclinic
loop_
_symmetry_equiv_pos_as_xyz
  x,y,z
_cell_length_a	19.288859
_cell_length_b	10.967829
_cell_length_c	18.366186
_cell_angle_alpha	77.865925
_cell_angle_beta	89.990083
_cell_angle_gamma	83.939469
loop_
_atom_site_label
_atom_site_type_symbol
_atom_site_fract_x
_atom_site_fract_y
_atom_site_fract_z
O1	O	0.922371	0.155625	-0.080089
O2	O	0.720247	0.176631	-0.082723
O3	O	0.825968	-0.015550	-0.058608
O4	O	0.816649	0.347806	-0.104205
O5	O	0.825950	-0.015559	0.062493
O6	O	0.720228	0.176622	0.038377
O7	O	0.922353	0.155615	0.041011
Zn8	Zn	0.821288	0.166117	0.058922
Zn9	Zn	0.821311	0.166130	-0.100633
O10	O	0.816631	0.347796	0.016896
C11	C	0.694356	0.175952	-0.022088
C12	C	0.617239	0.173927	-0.021833
C13	C	0.825279	-0.062040	0.007775
C14	C	0.823247	-0.200555	0.025152
C15	C	0.053845	0.272990	-0.034266
C16	C	0.126304	0.274904	-0.034510
C17	C	0.170275	0.162141	-0.020358
C18	C	0.141782	0.047456	-0.005979
C19	C	0.069324	0.045545	-0.005743
C20	C	0.290990	0.078039	0.032625
C21	C	0.363447	0.079955	0.032393
C22	C	0.393759	0.168029	-0.021089
C23	C	0.351606	0.254209	-0.074332
C24	C	0.279148	0.252298	-0.074096
C25	C	0.248844	0.164200	-0.020613
C26	C	0.500813	0.284782	-0.035736
C27	C	0.573273	0.286691	-0.035984
C28	C	0.588750	0.059239	-0.007446
C29	C	0.516291	0.057334	-0.007206
C30	C	0.472326	0.170109	-0.021348
C31	C	0.822350	-0.262297	-0.029835
C32	C	0.820249	-0.405459	-0.011876
C33	C	0.948243	0.156295	-0.019625
C34	C	1.025360	0.158320	-0.019885
C35	C	0.817320	0.394287	-0.049488
C36	C	0.819352	0.532801	-0.066870
N37	N	0.821276	0.166108	0.167814
N38	N	0.821328	0.166129	-0.209525
C39	C	0.868105	0.081052	0.216588
C40	C	0.868110	0.081046	0.292816
C41	C	0.821292	0.166118	0.320265
C42	C	0.774454	0.251181	0.271482
C43	C	0.774446	0.251176	0.195256
C44	C	0.812735	0.279813	0.426758
C45	C	0.812748	0.279820	0.502982
C46	C	0.821312	0.166134	0.555371
C47	C	0.829877	0.052436	0.531527
C48	C	0.829870	0.052431	0.455301
C49	C	0.821295	0.166133	0.402918
C50	C	0.868148	0.081065	0.686801
C51	C	0.868147	0.081058	0.763031
C52	C	0.774495	0.251203	0.741694
C53	C	0.774492	0.251199	0.665467
C54	C	0.821322	0.166132	0.638025
H55	H	0.149502	0.368285	-0.046213
C56	C	0.274714	0.424712	-0.179626
C57	C	0.232814	0.347002	-0.132627
H58	H	0.246109	0.483168	-0.215766
H59	H	0.300027	0.468604	-0.151022
H60	H	0.306417	0.375064	-0.203975
H61	H	0.201115	0.396650	-0.108274
H62	H	0.207490	0.303107	-0.161235
C63	C	0.283473	-0.139999	0.084637
C64	C	0.257674	-0.018779	0.091418
H65	H	0.262907	-0.199766	0.120934
H66	H	0.272351	-0.151266	0.036271
H67	H	0.332658	-0.151179	0.092118
H68	H	0.208489	-0.007595	0.083931
H69	H	0.268791	-0.007508	0.139795
C70	C	0.734691	0.467392	0.267810
C71	C	0.722988	0.344695	0.301648
H72	H	0.702911	0.525120	0.286430
H73	H	0.781102	0.480730	0.278618
H74	H	0.727983	0.479543	0.215433
H75	H	0.729700	0.332541	0.354025
H76	H	0.676565	0.331352	0.290845
C77	C	0.962288	0.053008	0.134074
C78	C	0.919349	-0.012667	0.186319
H79	H	0.993858	-0.004915	0.115360
H80	H	0.934386	0.103863	0.094198
H81	H	0.987749	0.104602	0.157240
H82	H	0.893884	-0.064255	0.163152
H83	H	0.947255	-0.063544	0.226202
H84	H	0.906278	0.011794	0.664458
H85	H	0.819457	-0.458579	0.048500
H86	H	0.820132	-0.414077	-0.127247
H87	H	0.736311	0.320440	0.155543
H88	H	0.823134	-0.209170	-0.090207
H89	H	0.822455	-0.253680	0.085524
H90	H	0.906245	0.011781	0.332535
H91	H	0.397762	0.009788	0.075750
C92	C	0.846791	-0.172331	0.491163
C93	C	0.839274	-0.072538	0.429090
H94	H	0.852590	-0.249481	0.474980
H95	H	0.886512	-0.165596	0.520033
H96	H	0.806362	-0.169603	0.520568
H97	H	0.879705	-0.075260	0.399688
H98	H	0.799550	-0.079275	0.400208
H99	H	0.736362	0.320465	0.625752
C100	C	0.795801	0.504577	0.467111
C101	C	0.803332	0.404793	0.529188
H102	H	0.789984	0.581730	0.483290
H103	H	0.836224	0.501869	0.437708
H104	H	0.756078	0.497813	0.438241
H105	H	0.843058	0.411552	0.558056
H106	H	0.762905	0.407503	0.558603
H107	H	0.836851	-0.040138	0.574181
C108	C	0.410342	0.414588	0.010232
C109	C	0.452483	0.408742	-0.051289
H110	H	0.380511	0.491120	0.000630
H111	H	0.383005	0.346030	0.018830
H112	H	0.438932	0.410599	0.052957
H113	H	0.423893	0.412722	-0.094013
H114	H	0.479823	0.477319	-0.059896
H115	H	0.018053	0.364820	-0.045785
H116	H	0.177588	-0.044357	0.005541
H117	H	0.805750	0.372396	0.384107
H118	H	0.906279	0.011788	0.802745
H119	H	0.736372	0.320465	0.764043
C120	C	0.060221	-0.148901	-0.043600
C121	C	0.038011	-0.080512	0.010071
H122	H	0.040892	-0.226726	-0.033832
H123	H	0.045169	-0.102482	-0.091646
H124	H	0.109668	-0.163892	-0.041712
H125	H	-0.011435	-0.065513	0.008179
H126	H	0.053059	-0.126941	0.058129
H127	H	0.596464	0.380073	-0.047701
C128	C	0.706690	-0.038825	0.004863
C129	C	0.637075	-0.064714	0.008109
H130	H	0.736525	-0.115353	0.014468
H131	H	0.715388	0.008213	-0.043265
H132	H	0.715372	0.008207	0.041196
H133	H	0.628392	-0.111738	-0.028228
H134	H	0.628374	-0.111773	0.056244
H135	H	0.376284	0.325930	-0.117881
H136	H	0.493098	-0.036043	0.004509
