data_functionalizedCrystal
_audit_creation_method	'MofGen! by Chris Wilmer'
_symmetry_space_group_name_H-M	'P1'
_symmetry_Int_Tables_number	1
_symmetry_cell_setting	triclinic
loop_
_symmetry_equiv_pos_as_xyz
  x,y,z
_cell_length_a	23.096457
_cell_length_b	23.096457
_cell_length_c	21.606444
_cell_angle_alpha	59.999895
_cell_angle_beta	89.999780
_cell_angle_gamma	59.999106
loop_
_atom_site_label
_atom_site_type_symbol
_atom_site_fract_x
_atom_site_fract_y
_atom_site_fract_z
Zr1	Zr	0.557788	0.633728	-0.081225
O2	O	0.465336	0.754521	-0.180048
O3	O	0.586127	0.512938	-0.050932
O4	O	0.586124	0.633731	-0.180052
O5	O	0.465344	0.633725	0.050927
O6	O	0.681407	0.633729	-0.180055
O7	O	0.465339	0.633729	-0.050927
O8	O	0.681412	0.417653	0.050918
O9	O	0.465338	0.849801	-0.180046
O10	O	0.669324	0.562618	-0.038012
O11	O	0.598220	0.562616	0.038002
O12	O	0.598216	0.704834	-0.114021
O13	O	0.527112	0.704833	-0.038007
Zr14	Zr	0.709760	0.633718	0.081217
Zr15	Zr	0.709752	0.633724	-0.081228
Zr16	Zr	0.557796	0.633721	0.081221
Zr17	Zr	0.557792	0.785687	-0.081223
Zr18	Zr	0.709756	0.481758	0.081215
O19	O	0.681421	0.754507	0.050924
O20	O	0.681410	0.754516	-0.180053
O21	O	0.465347	0.754512	0.050929
O22	O	0.802212	0.512924	0.180040
O23	O	0.802201	0.512933	-0.050937
O24	O	0.586138	0.512929	0.180045
O25	O	0.802204	0.633721	-0.050935
O26	O	0.681424	0.633714	0.180045
O27	O	0.586141	0.633717	0.180047
O28	O	0.802209	0.633717	0.050919
O29	O	0.586130	0.849798	-0.180049
O30	O	0.681418	0.417648	0.180041
O31	O	0.802210	0.417645	0.180038
O32	O	0.802203	0.417650	0.050916
O33	O	0.465344	0.849795	-0.050924
O34	O	0.586136	0.849793	-0.050926
O35	O	0.669332	0.562611	0.114013
O36	O	0.740436	0.562613	0.037999
O37	O	0.669328	0.704829	-0.038010
O38	O	0.598224	0.704828	0.038004
C39	C	0.633769	0.443645	-0.000007
C40	C	0.633768	0.379134	-0.000008
C41	C	0.581292	-0.028894	-0.056115
C42	C	0.581286	0.031725	-0.056115
C43	C	0.633779	0.009544	-0.000004
C44	C	0.686272	-0.073265	0.056121
C45	C	0.686273	-0.133881	0.056123
N46	N	0.696028	0.065644	0.016983
N47	N	0.696025	0.123230	0.016976
C48	C	0.633780	0.192174	-0.000007
N49	N	0.571534	0.201365	-0.016998
N50	N	0.571538	0.143775	-0.016995
C51	C	0.633784	0.075266	-0.000000
C52	C	0.581281	0.340702	-0.056125
C53	C	0.581274	0.401320	-0.056120
C54	C	0.686266	0.296327	0.056113
C55	C	0.686267	0.235712	0.056110
C56	C	0.633775	0.257905	-0.000013
C57	C	0.443690	0.633727	0.000000
C58	C	0.379177	0.633729	0.000002
C59	C	0.348871	0.633737	-0.056114
C60	C	0.288259	0.633730	-0.056114
C61	C	0.257947	0.633730	-0.000004
C62	C	0.288262	0.633717	0.056122
C63	C	0.348877	0.633717	0.056125
N64	N	0.139596	0.680085	0.016984
N65	N	0.082014	0.680088	0.016977
C66	C	0.075317	0.633731	-0.000007
N67	N	0.128374	0.587382	-0.016999
N68	N	0.185960	0.587383	-0.016996
C69	C	0.192220	0.633731	-0.000000
C70	C	-0.020710	0.633730	-0.056127
C71	C	-0.081321	0.633717	-0.056121
C72	C	-0.081322	0.633713	0.056112
C73	C	-0.020708	0.633718	0.056110
C74	C	0.009592	0.633730	-0.000013
C75	C	0.823858	0.633718	-0.000008
C76	C	0.888371	0.633717	-0.000010
C77	C	0.633764	0.633731	-0.203199
C78	C	0.633761	0.633734	-0.272161
C79	C	0.633779	0.823801	-0.000001
C80	C	0.633780	0.888312	0.000000
C81	C	0.596643	0.707969	-0.344235
C82	C	0.596649	0.707966	-0.409030
C83	C	0.633770	0.633728	-0.401749
C84	C	0.670892	0.559488	-0.329667
C85	C	0.670890	0.559491	-0.264874
C86	C	0.670903	0.559473	-0.590970
C87	C	0.670901	0.559476	-0.655771
C88	C	0.596663	0.707949	-0.735126
C89	C	0.596660	0.707952	-0.670333
C90	C	0.633786	0.633712	-0.598257
C91	C	0.633780	0.633715	-0.528000
C92	C	0.633772	0.633724	-0.472005
C93	C	0.633784	0.633715	0.203191
C94	C	0.633787	0.633712	0.272153
C95	C	0.823853	0.443640	-0.000011
C96	C	0.888365	0.379128	-0.000014
C97	C	0.633779	0.443636	0.203188
C98	C	0.633781	0.379123	0.272149
C99	C	0.823863	0.443632	0.203183
C100	C	0.888378	0.379117	0.272143
C101	C	0.443685	0.823813	-0.203191
C102	C	0.379170	0.888329	-0.272151
C103	C	0.443695	0.823805	0.000003
C104	C	0.379183	0.888318	0.000006
C105	C	0.633769	0.823809	-0.203195
C106	C	0.633767	0.888322	-0.272157
C107	C	0.881540	0.348835	-0.039699
C108	C	0.942149	0.288227	-0.039716
C109	C	1.009583	0.257909	-0.000044
C110	C	1.016406	0.288208	0.039642
C111	C	0.955797	0.348819	0.039655
C112	C	0.670901	0.348824	0.344218
C113	C	0.670900	0.288215	0.409020
C114	C	0.633782	0.257902	0.401753
C115	C	0.596657	0.288207	0.329676
C116	C	0.596654	0.348819	0.264875
C117	C	0.955796	0.348821	0.264849
C118	C	1.016420	0.288210	0.329638
C119	C	1.009624	0.257893	0.401720
C120	C	0.942198	0.288195	0.409013
C121	C	0.881576	0.348809	0.344225
C122	C	0.311752	0.918632	-0.264857
C123	C	0.251128	0.979261	-0.329646
C124	C	0.257924	1.009582	-0.401728
C125	C	0.325350	0.979275	-0.409021
C126	C	0.385972	0.918652	-0.344233
C127	C	0.386008	0.918617	0.039684
C128	C	0.325398	0.979242	0.039684
C129	C	0.257965	1.009561	0.000009
C130	C	0.251142	0.979259	-0.039674
C131	C	0.311751	0.918640	-0.039677
C132	C	0.670892	0.918616	-0.264865
C133	C	0.670905	0.979226	-0.329655
C134	C	0.633787	1.009544	-0.401737
C135	C	0.596661	0.979244	-0.409027
C136	C	0.596654	0.918632	-0.344238
H137	H	0.538537	0.358773	-0.101822
N138	N	0.332271	1.010252	-0.482661
N139	N	0.306708	1.003490	-0.527662
H140	H	0.311592	1.025367	-0.579673
N141	N	0.935157	0.257294	-0.080260
N142	N	0.874943	0.284368	-0.115669
H143	H	0.870002	0.262523	-0.144304
N144	N	0.812659	0.379815	-0.080233
N145	N	0.758542	0.433935	-0.080229
H146	H	0.709895	0.455816	-0.108862
H147	H	0.538529	0.468739	-0.101816
N148	N	0.708826	0.887638	-0.191240
N149	N	0.757700	0.813219	-0.146239
H150	H	0.784497	0.791338	-0.094242
H151	H	0.701134	0.263548	0.467702
H152	H	0.196232	1.003926	-0.323693
H153	H	0.208555	1.058945	-0.454477
N154	N	0.739895	-0.218456	0.113453
N155	N	0.786758	-0.238256	0.163554
H156	H	0.824630	-0.297988	0.204044
H157	H	0.566419	0.893973	-0.350185
H158	H	0.440910	0.893935	0.071997
N159	N	0.708837	1.010160	-0.322196
N160	N	0.774282	0.962786	-0.288378
H161	H	0.801073	0.984631	-0.283108
H162	H	0.633799	1.058899	-0.454486
H163	H	0.633790	0.208548	0.454524
N164	N	0.739879	0.273675	0.113428
N165	N	0.739871	0.327802	0.113422
H166	H	0.777734	0.311806	0.153904
N167	N	1.085294	0.257255	0.322192
N168	N	1.127405	0.264027	0.349479
H169	H	1.176047	0.242165	0.344220
H170	H	0.373541	0.633744	-0.101811
H171	H	0.566441	1.003939	-0.467725
H172	H	0.306204	0.893949	-0.206169
H173	H	1.058928	0.208555	-0.000060
H174	H	1.071318	0.263515	0.071942
N175	N	0.332391	1.010178	0.080224
N176	N	0.392605	0.983089	0.115649
H177	H	0.397546	1.004936	0.144281
H178	H	0.961344	0.373496	0.206161
N179	N	0.010261	0.633705	-0.113433
N180	N	0.032203	0.576284	-0.120303
H181	H	0.054081	0.576258	-0.160771
N182	N	0.527669	-0.006211	-0.113447
N183	N	0.480807	0.067723	-0.163547
H184	H	0.442934	0.083743	-0.204038
H185	H	0.566410	0.768422	-0.350173
N186	N	0.454832	0.887697	-0.351705
N187	N	0.472889	0.853892	-0.385526
H188	H	0.521520	0.832033	-0.390809
N189	N	0.527668	0.116305	-0.113448
N190	N	0.480808	0.136108	-0.163554
H191	H	0.442942	0.195841	-0.204050
H192	H	0.729012	-0.091322	0.101807
N193	N	0.962787	0.379749	0.080200
N194	N	1.023002	0.352666	0.115617
H195	H	1.027944	0.374508	0.144254
H196	H	0.729012	0.168294	0.101803
H197	H	0.701127	0.373499	0.350150
H198	H	0.566430	0.768404	-0.676269
N199	N	0.257305	0.633733	-0.113441
N200	N	0.284368	0.633740	-0.163542
H201	H	0.262509	0.633742	-0.204029
N202	N	1.071560	0.195979	0.467888
N203	N	1.131749	0.168938	0.461356
H204	H	1.175494	0.125209	0.508085
H205	H	0.263579	0.633716	0.101809
N206	N	0.196051	1.071485	0.000006
N207	N	0.152421	1.139139	-0.061095
H208	H	0.108695	1.182873	-0.061095
H209	H	0.566437	0.263517	0.323770
N210	N	0.708827	0.483646	-0.648346
N211	N	0.708821	0.483659	-0.706205
H212	H	0.735604	0.430109	-0.700964
N213	N	0.379829	0.633705	0.113456
N214	N	0.352765	0.633698	0.163556
H215	H	0.374625	0.633690	0.204048
H216	H	-0.105994	0.633719	-0.101816
H217	H	-0.105999	0.633709	0.101801
N218	N	0.558744	0.379742	0.191266
N219	N	0.574490	0.332360	0.171958
H220	H	0.547714	0.354195	0.119973
N221	N	0.010242	0.633711	0.113436
N222	N	-0.016825	0.633707	0.163534
H223	H	0.005034	0.633699	0.204026
H224	H	0.566425	0.768416	-0.467714
N225	N	0.935275	0.257211	0.482652
N226	N	0.989413	0.203086	0.540485
H227	H	0.984526	0.181196	0.592495
N228	N	0.182254	1.010246	-0.080196
N229	N	0.128151	1.064367	-0.080178
H230	H	0.079496	1.086251	-0.108794
N231	N	0.304761	0.887701	-0.080213
N232	N	0.244546	0.914784	-0.115630
H233	H	0.239604	0.892937	-0.144261
N234	N	0.558741	0.783779	-0.808759
N235	N	0.558745	0.783771	-0.866607
H236	H	0.531960	0.837324	-0.918608
H237	H	0.701120	0.499042	-0.323743
N238	N	0.708807	0.483635	-0.517359
N239	N	0.741931	0.417359	-0.510872
H240	H	0.768695	0.363793	-0.458880
N241	N	0.708825	0.483654	-0.191255
N242	N	0.741976	0.417375	-0.184762
H243	H	0.768777	0.363812	-0.132768
H244	H	0.826682	0.373468	0.350175
