data_functionalizedCrystal
_audit_creation_method	'MofGen! by Chris Wilmer'
_symmetry_space_group_name_H-M	'P1'
_symmetry_Int_Tables_number	1
_symmetry_cell_setting	triclinic
loop_
_symmetry_equiv_pos_as_xyz
  x,y,z
_cell_length_a	12.759401
_cell_length_b	19.121063
_cell_length_c	12.759393
_cell_angle_alpha	92.404024
_cell_angle_beta	89.981708
_cell_angle_gamma	92.469017
loop_
_atom_site_label
_atom_site_type_symbol
_atom_site_fract_x
_atom_site_fract_y
_atom_site_fract_z
Zn1	Zn	1.588319	-0.279576	-0.611772
Zn2	Zn	1.580678	-0.397043	-0.443567
Zn3	Zn	1.412619	-0.279611	-0.436113
Zn4	Zn	1.405077	-0.396991	-0.619205
O5	O	1.496673	-0.338305	-0.527664
O6	O	1.734326	-0.295166	-0.589468
O7	O	1.558343	-0.381501	-0.295559
O8	O	1.442280	-0.181322	-0.453185
O9	O	1.728712	-0.381468	-0.465888
O10	O	1.571366	-0.181297	-0.582240
O11	O	1.434871	-0.295224	-0.290083
O12	O	1.264598	-0.295174	-0.460392
O13	O	1.429426	-0.381380	-0.765238
O14	O	1.259057	-0.381413	-0.594909
O15	O	1.564052	-0.295115	-0.759777
O16	O	1.551030	-0.495320	-0.473096
O17	O	1.422017	-0.495282	-0.602136
C18	C	1.223707	-0.338292	-0.527649
C19	C	1.106929	-0.338304	-0.527669
C20	C	1.049205	-0.383280	-0.597605
C21	C	0.939480	-0.383289	-0.597617
C22	C	0.945214	-0.293343	-0.457747
C23	C	1.054937	-0.293331	-0.457741
C24	C	1.045894	-0.435212	-0.678355
C25	C	0.936169	-0.435221	-0.678367
C26	C	1.484905	-0.520785	-0.539254
C27	C	1.479966	-0.598851	-0.544248
C28	C	1.544869	-0.635523	-0.479465
C29	C	1.540230	-0.708874	-0.484167
C30	C	1.470684	-0.745551	-0.553648
C31	C	1.405778	-0.708874	-0.618438
C32	C	1.410423	-0.635525	-0.613740
C33	C	1.453302	-0.967020	-0.571196
C34	C	1.448660	-1.040375	-0.575887
C35	C	1.583114	-1.040369	-0.441616
C36	C	1.587748	-0.967018	-0.436920
C37	C	1.522847	-0.930348	-0.501714
C38	C	1.465938	-0.820528	-0.558454
C39	C	1.527598	-0.855372	-0.496913
C40	C	1.770706	-0.338319	-0.527680
C41	C	1.887482	-0.338324	-0.527687
C42	C	1.496750	-0.338238	-0.801693
C43	C	1.496783	-0.338209	-0.918468
C44	C	1.508516	-0.155113	-0.516052
C45	C	1.513563	-0.077047	-0.511104
C46	C	1.561079	-0.383116	-0.976178
C47	C	1.561113	-0.383087	-1.085900
C48	C	1.432545	-0.293240	-1.080193
C49	C	1.432517	-0.293267	-0.970473
C50	C	1.635304	-0.434991	-0.979474
C51	C	1.635337	-0.434961	-1.089196
C52	C	1.496660	-0.338322	-0.254698
C53	C	1.496844	-0.338152	-0.137911
H54	H	0.902885	-0.489603	-0.659895
F55	F	1.364153	-0.245412	-1.135550
F56	F	0.893353	-0.409844	-0.777853
H57	H	1.357574	-0.605667	-0.666495
H58	H	1.593080	-0.738729	-0.431413
F59	F	1.602259	-0.506047	-1.132629
F60	F	1.742880	-0.415968	-0.939353
F61	F	1.331767	-0.747912	-0.692391
H62	H	1.584227	-0.825507	-0.440345
F63	F	1.391923	-0.859569	-0.632398
H64	H	0.902869	-0.256727	-0.400816
F65	F	1.116369	-0.245450	-0.383321
F66	F	1.592822	-0.502534	-0.939264
H67	H	1.380170	-0.256694	-0.923489
F68	F	1.618884	-0.596494	-0.405507
F69	F	1.738038	-0.409513	-1.132076
F70	F	1.086076	-0.416254	-0.783551
H71	H	1.076595	-0.486855	-0.652356
H72	H	1.644379	-0.937157	-0.380344
H73	H	1.635955	-1.070234	-0.388867
H74	H	1.392040	-1.070236	-0.632485
H75	H	1.400455	-0.937169	-0.623952
