data_functionalizedCrystal
_audit_creation_method	'MofGen! by Chris Wilmer'
_symmetry_space_group_name_H-M	'P1'
_symmetry_Int_Tables_number	1
_symmetry_cell_setting	triclinic
loop_
_symmetry_equiv_pos_as_xyz
  x,y,z
_cell_length_a	10.686220
_cell_length_b	29.839131
_cell_length_c	10.685880
_cell_angle_alpha	94.334932
_cell_angle_beta	89.641569
_cell_angle_gamma	94.423467
loop_
_atom_site_label
_atom_site_type_symbol
_atom_site_fract_x
_atom_site_fract_y
_atom_site_fract_z
Zn1	Zn	1.972071	-0.140242	-0.562341
Zn2	Zn	1.955762	-0.210103	-0.352573
Zn3	Zn	1.746200	-0.141157	-0.368663
Zn4	Zn	1.762165	-0.221522	-0.578342
O5	O	1.859049	-0.178256	-0.465480
O6	O	2.145457	-0.144347	-0.521085
O7	O	1.914457	-0.196561	-0.179167
O8	O	1.776306	-0.078166	-0.394393
O9	O	2.133475	-0.195673	-0.366969
O10	O	1.942253	-0.077493	-0.536687
O11	O	1.760492	-0.145907	-0.190989
O12	O	1.572768	-0.156980	-0.409908
O13	O	1.803516	-0.215136	-0.751760
O14	O	1.584497	-0.216024	-0.563958
O15	O	1.957734	-0.155420	-0.740004
O16	O	1.929937	-0.274488	-0.382484
O17	O	1.787702	-0.282877	-0.548356
C18	C	1.533115	-0.187841	-0.490416
C19	C	1.393681	-0.191953	-0.501114
C20	C	1.858818	-0.294984	-0.465435
C21	C	1.858837	-0.344918	-0.465449
C22	C	1.933266	-0.650174	-0.379217
C23	C	1.933425	-0.837844	-0.379253
O24	O	1.996524	-0.858382	-0.305901
N25	N	1.859317	-0.865693	-0.465555
C26	C	1.785170	-0.846622	-0.551858
O27	O	1.722150	-0.874616	-0.625272
C28	C	1.785019	-0.658953	-0.551826
C29	C	1.859122	-0.631106	-0.465511
C30	C	2.007365	-0.622327	-0.292909
C31	C	2.007319	-0.575413	-0.292897
C32	C	1.933175	-0.556345	-0.379191
C33	C	1.859077	-0.584191	-0.465498
C34	C	1.710880	-0.639883	-0.638135
C35	C	1.710852	-0.592962	-0.638121
C36	C	1.784955	-0.565115	-0.551806
C37	C	1.784887	-0.518209	-0.551780
N38	N	1.858996	-0.490360	-0.465479
C39	C	1.933139	-0.509428	-0.379184
C40	C	1.785253	-0.945151	-0.551867
C41	C	1.785289	-0.992068	-0.551874
C42	C	1.933545	-0.983286	-0.379270
C43	C	1.933502	-0.936368	-0.379259
C44	C	1.859361	-0.917301	-0.465566
C45	C	1.933037	-0.410904	-0.379163
C46	C	1.932981	-0.363986	-0.379155
C47	C	1.784730	-0.372772	-0.551762
C48	C	1.784780	-0.419686	-0.551767
C49	C	1.858944	-0.438750	-0.465462
O50	O	1.721832	-0.497640	-0.625103
O51	O	1.996171	-0.481426	-0.305800
C52	C	1.933312	-0.697088	-0.379229
C53	C	1.859214	-0.724935	-0.465537
C54	C	1.785070	-0.705867	-0.551831
C55	C	1.859249	-0.771852	-0.465543
C56	C	1.933393	-0.790920	-0.379249
C57	C	2.007501	-0.763071	-0.292948
C58	C	2.007456	-0.716156	-0.292935
C59	C	1.710962	-0.733716	-0.638132
C60	C	1.711012	-0.780631	-0.638137
C61	C	1.785156	-0.799699	-0.551843
C62	C	2.186257	-0.168634	-0.440447
C63	C	2.325693	-0.164534	-0.429779
C64	C	1.884225	-0.186449	-0.792670
C65	C	1.894953	-0.189941	-0.932099
C66	C	1.859318	-0.061072	-0.465550
C67	C	1.859432	-0.011135	-0.465580
C68	C	1.834044	-0.170060	-0.139557
C69	C	1.823559	-0.166435	-0.000111
H70	H	1.374157	-0.137914	-0.360521
H71	H	1.993324	-0.341314	-0.308862
F72	F	1.330331	-0.226754	-0.591635
F73	F	2.011970	-0.431187	-0.287308
F74	F	1.985583	-0.219742	-0.995415
F75	F	2.086288	-0.642613	-0.201057
F76	F	2.086206	-0.545781	-0.201041
H77	H	1.724359	-0.357239	-0.622019
H78	H	1.993844	-0.913697	-0.308974
H79	H	1.993917	-0.998819	-0.309006
F80	F	1.706403	-1.021700	-0.643729
F81	F	1.706335	-0.924865	-0.643732
H82	H	1.754218	-0.143640	-0.951672
F83	F	1.632020	-0.669510	-0.730015
H84	H	1.724444	-0.442360	-0.622055
F85	F	1.631941	-0.572673	-0.729986
F86	F	2.086331	-0.686525	-0.201069
F87	F	2.086407	-0.783372	-0.201103
F88	F	1.632132	-0.810263	-0.730009
H89	H	1.650587	-0.718196	-0.708405
