data_functionalizedCrystal
_audit_creation_method	'MofGen! by Chris Wilmer'
_symmetry_space_group_name_H-M	'P1'
_symmetry_Int_Tables_number	1
_symmetry_cell_setting	triclinic
loop_
_symmetry_equiv_pos_as_xyz
  x,y,z
_cell_length_a	10.654550
_cell_length_b	14.519709
_cell_length_c	9.130313
_cell_angle_alpha	89.997798
_cell_angle_beta	89.996220
_cell_angle_gamma	84.082524
loop_
_atom_site_label
_atom_site_type_symbol
_atom_site_fract_x
_atom_site_fract_y
_atom_site_fract_z
O1	O	1.666589	0.129528	-0.121923
O2	O	1.300991	0.141869	-0.121900
O3	O	1.493483	0.001510	-0.121899
O4	O	1.474097	0.269887	-0.121924
O5	O	1.493481	0.001514	0.121700
O6	O	1.300989	0.141873	0.121699
O7	O	1.666586	0.129532	0.121676
Cu8	Cu	1.483787	0.135703	0.143930
Cu9	Cu	1.483790	0.135698	-0.144154
O10	O	1.474094	0.269891	0.121675
C11	C	1.254201	0.140965	-0.000098
C12	C	1.114784	0.138254	-0.000088
C13	C	1.034504	0.220895	-0.000117
C14	C	0.903507	0.218342	-0.000143
C15	C	0.933085	0.050500	-0.000116
C16	C	1.064078	0.053054	-0.000080
C17	C	1.017426	0.317797	-0.000139
C18	C	0.886430	0.315244	-0.000164
C19	C	1.492579	-0.032852	-0.000099
C20	C	1.489871	-0.135247	-0.000098
C21	C	1.479904	-0.510195	-0.000136
C22	C	1.482672	-0.405873	-0.000125
C23	C	1.484887	-0.322725	-0.000116
C24	C	1.487656	-0.218396	-0.000108
C25	C	1.713377	0.130436	-0.000130
C26	C	1.852794	0.133147	-0.000149
C27	C	1.474999	0.304253	-0.000128
C28	C	1.477707	0.406648	-0.000139
N29	N	1.483795	0.135705	0.346552
N30	N	1.483793	0.135688	-0.346777
C31	C	1.569052	0.073576	0.423205
C32	C	1.569048	0.073565	0.576542
C33	C	1.398527	0.197821	0.576560
C34	C	1.398525	0.197827	0.423226
C35	C	1.667505	0.001840	0.423195
C36	C	1.667502	0.001829	0.576532
H37	H	1.046392	0.355697	0.101809
O38	O	1.315754	0.258291	0.650880
C39	C	1.336378	0.349730	0.613449
H40	H	1.384789	0.349956	0.502118
H41	H	1.242080	0.394499	0.608206
H42	H	1.398940	0.378676	0.699750
H43	H	1.052786	0.348651	-0.105314
H44	H	1.763861	0.017630	0.618141
H45	H	1.129439	-0.014241	-0.000035
O46	O	1.642503	-0.082686	0.373619
C47	C	1.523321	-0.102099	0.425259
H48	H	1.463802	-0.034482	0.452507
H49	H	1.473908	-0.140695	0.337129
H50	H	1.535880	-0.146819	0.527893
O51	O	1.631676	-0.078008	0.633330
C52	C	1.522941	-0.057741	0.720232
H53	H	1.471375	0.011281	0.684427
H54	H	1.457973	-0.114794	0.706397
H55	H	1.551548	-0.053322	0.840141
O56	O	1.776017	0.028774	0.366633
C57	C	1.791233	0.119281	0.414460
H58	H	1.735465	0.134416	0.519809
H59	H	1.895447	0.125514	0.435755
H60	H	1.755095	0.171100	0.326491
H61	H	1.329091	0.248409	0.360817
O62	O	0.883617	-0.032180	-0.000181
C63	C	0.750783	-0.016716	-0.000174
H64	H	0.720193	0.055056	-0.046306
H65	H	0.710459	-0.071284	-0.070901
H66	H	0.714286	-0.021415	0.116685
O67	O	0.831769	0.350089	0.125442
C68	C	0.881940	0.297796	0.245888
H69	H	0.978612	0.261745	0.215720
H70	H	0.891726	0.345675	0.343265
H71	H	0.816054	0.243686	0.276076
H72	H	0.844347	0.351754	-0.102121
