data_functionalizedCrystal
_audit_creation_method	'MofGen! by Chris Wilmer'
_symmetry_space_group_name_H-M	'P1'
_symmetry_Int_Tables_number	1
_symmetry_cell_setting	triclinic
loop_
_symmetry_equiv_pos_as_xyz
  x,y,z
_cell_length_a	10.723023
_cell_length_b	10.723023
_cell_length_c	8.140239
_cell_angle_alpha	89.997483
_cell_angle_beta	89.997738
_cell_angle_gamma	84.467548
loop_
_atom_site_label
_atom_site_type_symbol
_atom_site_fract_x
_atom_site_fract_y
_atom_site_fract_z
O1	O	1.657186	0.175021	-0.136593
O2	O	1.294033	0.191775	-0.136599
O3	O	1.483986	0.001822	-0.136589
O4	O	1.467232	0.364974	-0.136603
O5	O	1.483976	0.001819	0.136638
O6	O	1.294022	0.191773	0.136628
O7	O	1.657175	0.175018	0.136634
Zn8	Zn	1.475597	0.183395	0.180012
Zn9	Zn	1.475611	0.183398	-0.179977
O10	O	1.467222	0.364972	0.136624
C11	C	1.247528	0.190555	0.000013
C12	C	1.108974	0.186908	0.000011
C13	C	1.482762	-0.044679	0.000023
C14	C	1.479115	-0.183233	0.000017
C15	C	1.047196	0.185280	0.141549
C16	C	0.903993	0.181511	0.141550
C17	C	1.477494	-0.244998	-0.141525
C18	C	1.473725	-0.388201	-0.141534
C19	C	1.703680	0.176239	0.000018
C20	C	1.842234	0.179886	0.000010
C21	C	1.468446	0.411473	0.000009
C22	C	1.472093	0.550027	0.000003
N23	N	1.475597	0.183393	0.425694
N24	N	1.475621	0.183391	-0.425659
H25	H	1.100325	0.186671	0.262725
H26	H	0.850865	0.180118	0.262726
H27	H	0.895352	0.181293	-0.121173
H28	H	1.055847	0.185507	-0.121165
O29	O	1.479025	-0.181452	-0.285980
C30	C	1.374988	-0.021109	-0.458653
C31	C	1.373103	-0.092957	-0.294983
H32	H	1.289346	0.050437	-0.466001
H33	H	1.463723	0.029257	-0.465979
H34	H	1.373252	-0.089906	-0.565210
H35	H	1.374793	-0.024245	-0.188333
H36	H	1.284375	-0.143343	-0.287800
H37	H	1.477704	-0.236371	0.121190
O38	O	1.471835	-0.451592	-0.286060
C39	C	1.360073	-0.585591	-0.458633
C40	C	1.362045	-0.513829	-0.294913
H41	H	1.271330	-0.635948	-0.465828
H42	H	1.361803	-0.516855	-0.565270
H43	H	1.445689	-0.657170	-0.465954
H44	H	1.276444	-0.442249	-0.287431
H45	H	1.360379	-0.582640	-0.188353
O46	O	1.473533	-0.386539	0.144539
C47	C	1.369514	-0.226129	0.317120
C48	C	1.367715	-0.297906	0.153396
H49	H	1.283984	-0.154435	0.324319
H50	H	1.367618	-0.294849	0.423753
H51	H	1.458336	-0.175907	0.324447
H52	H	1.278907	-0.348132	0.145908
H53	H	1.369678	-0.229127	0.046841
