data_functionalizedCrystal
_audit_creation_method	'MofGen! by Chris Wilmer'
_symmetry_space_group_name_H-M	'P1'
_symmetry_Int_Tables_number	1
_symmetry_cell_setting	triclinic
loop_
_symmetry_equiv_pos_as_xyz
  x,y,z
_cell_length_a	15.944551
_cell_length_b	15.944551
_cell_length_c	14.750779
_cell_angle_alpha	77.355667
_cell_angle_beta	102.647229
_cell_angle_gamma	83.498738
loop_
_atom_site_label
_atom_site_type_symbol
_atom_site_fract_x
_atom_site_fract_y
_atom_site_fract_z
O1	O	1.096314	0.126533	-0.079730
O2	O	0.851758	0.139895	-0.079754
O3	O	0.980716	0.010937	-0.079733
O4	O	0.967356	0.255491	-0.079751
O5	O	1.017171	-0.025514	0.079924
O6	O	0.888213	0.103444	0.079902
O7	O	1.132768	0.090082	0.079926
Zn8	Zn	1.016279	0.090976	0.105263
Zn9	Zn	0.968248	0.139001	-0.105091
O10	O	1.003811	0.219040	0.079905
C11	C	0.838691	0.121116	0.000071
C12	C	0.745443	0.119455	0.000062
C13	C	0.998389	-0.038582	0.000095
C14	C	0.996727	-0.131829	0.000096
C15	C	0.912818	-0.346680	0.000074
C16	C	0.969755	-0.425671	0.078798
C17	C	0.993718	-0.302553	0.000088
C18	C	0.933833	-0.389717	-0.078610
C19	C	0.990805	-0.467463	0.000077
C20	C	1.050693	-0.380330	0.078877
C21	C	1.014743	-0.344353	-0.078602
C22	C	1.071744	-0.423331	0.000141
C23	C	0.995394	-0.207552	0.000096
C24	C	0.989136	-0.562464	0.000076
C25	C	0.530592	0.035545	0.000087
C26	C	0.451597	0.092481	-0.078635
C27	C	0.574720	0.116445	0.000074
C28	C	0.487561	0.056562	0.078774
C29	C	0.409811	0.113531	0.000089
C30	C	0.496938	0.173418	-0.078713
C31	C	0.532925	0.137472	0.078766
C32	C	0.453943	0.194470	0.000025
C33	C	0.669720	0.118122	0.000064
C34	C	0.314810	0.111862	0.000092
C35	C	1.145835	0.108862	0.000099
C36	C	1.239082	0.110524	0.000102
C37	C	0.986137	0.268560	0.000074
C38	C	0.987798	0.361808	0.000068
N39	N	1.049065	0.058199	0.248824
N40	N	0.935469	0.171771	-0.248652
C41	C	0.843903	0.263275	0.600608
C42	C	0.866883	0.240313	0.701111
C43	C	0.981099	0.126162	0.701093
C44	C	0.958125	0.149112	0.600588
C45	C	0.889527	0.217670	0.550354
C46	C	1.003749	0.103507	0.550333
C47	C	0.980780	0.126459	0.449837
C48	C	0.912187	0.195015	0.399596
C49	C	0.866558	0.240621	0.449857
C50	C	1.072351	0.034954	0.600569
C51	C	1.117976	-0.010651	0.550315
C52	C	1.095003	0.012296	0.449817
C53	C	1.026409	0.080853	0.399575
C54	C	1.140632	-0.033310	0.399555
C55	C	1.117663	-0.010358	0.299059
C56	C	1.003440	0.103804	0.299079
H57	H	0.845686	-0.313389	0.000146
C58	C	0.973365	-0.227667	-0.222115
C59	C	1.040381	-0.296655	-0.168441
H60	H	0.989191	-0.198215	-0.277579
H61	H	0.921253	-0.249891	-0.241014
H62	H	0.964213	-0.188101	-0.184154
H63	H	1.049529	-0.336224	-0.206399
H64	H	1.092508	-0.274431	-0.149543
H65	H	0.950734	-0.460973	0.145347
C66	C	1.118300	-0.286022	0.168040
C67	C	1.117379	-0.373887	0.168828
H68	H	1.159463	-0.282046	0.223576
H69	H	1.134098	-0.257389	0.112219
H70	H	1.061963	-0.259047	0.167807
H71	H	1.173715	-0.400861	0.169055
H72	H	1.101586	-0.402532	0.224664
C73	C	0.540564	0.245667	0.169419
C74	C	0.580625	0.163111	0.168607
H75	H	0.570014	0.261484	0.224892
H76	H	0.543154	0.287231	0.113545
H77	H	0.481358	0.244267	0.170387
H78	H	0.639830	0.164513	0.167632
H79	H	0.578044	0.121537	0.224496
H80	H	0.416292	0.073458	-0.145184
C81	C	1.223463	-0.464081	0.082701
C82	C	1.162481	-0.468120	0.000208
H83	H	1.279478	-0.491740	0.082747
H84	H	1.225122	-0.404826	0.083223
H85	H	1.207153	-0.492954	0.138082
H86	H	1.178789	-0.439241	-0.055173
H87	H	1.160825	-0.527386	-0.000323
H88	H	1.091053	0.016273	0.682400
C89	C	0.783957	-0.357272	-0.168305
C90	C	0.867115	-0.396317	-0.168459
H91	H	0.742767	-0.361341	-0.223775
H92	H	0.768535	-0.386337	-0.112417
H93	H	0.784169	-0.297653	-0.168635
H94	H	0.866904	-0.455939	-0.168122
H95	H	0.882540	-0.367255	-0.224362
H96	H	0.563904	-0.031572	-0.000005
C97	C	1.293100	-0.089610	0.430468
C98	C	1.216033	-0.108667	0.454777
H99	H	1.339649	-0.136134	0.464563
H100	H	1.285943	-0.082474	0.363432
H101	H	1.305982	-0.037305	0.446940
H102	H	1.203148	-0.160969	0.438298
H103	H	1.223190	-0.115814	0.521828
H104	H	0.501713	0.222820	-0.145339
H105	H	0.829725	0.277457	0.742024
H106	H	0.420773	0.261689	-0.000024
C107	C	0.520001	-0.093313	0.168460
C108	C	0.480959	-0.010155	0.168619
H109	H	0.515930	-0.134502	0.223926
H110	H	0.490935	-0.108732	0.112569
H111	H	0.579622	-0.093103	0.168794
H112	H	0.421337	-0.010363	0.168277
H113	H	0.510024	0.005268	0.224525
C114	C	0.958411	0.244893	0.255615
C115	C	0.886935	0.220246	0.289128
H116	H	0.942821	0.260464	0.187418
H117	H	0.975094	0.293391	0.278345
H118	H	1.005789	0.197531	0.278345
H119	H	0.839560	0.267610	0.266404
H120	H	0.870241	0.171743	0.266388
H121	H	0.947575	0.159624	0.258176
H122	H	0.810693	0.296442	0.408955
C123	C	1.174347	-0.163100	0.581250
C124	C	1.193369	-0.086015	0.605540
H125	H	1.220893	-0.209627	0.615340
H126	H	1.122061	-0.176005	0.597731
H127	H	1.167201	-0.155948	0.514204
H128	H	1.200509	-0.093164	0.672585
H129	H	1.245670	-0.073108	0.589065
C130	C	0.733294	0.373820	0.610711
C131	C	0.768497	0.338635	0.545381
H132	H	0.686749	0.420345	0.576613
H133	H	0.712039	0.329884	0.649909
H134	H	0.777220	0.395105	0.649906
H135	H	0.724572	0.317343	0.506190
H136	H	0.789750	0.382578	0.506166
C137	C	1.037470	-0.026287	0.732028
C138	C	1.056492	0.050799	0.756318
H139	H	1.084016	-0.072814	0.766118
H140	H	0.985184	-0.039192	0.748509
H141	H	1.030324	-0.019135	0.664982
H142	H	1.063631	0.043649	0.823363
H143	H	1.108793	0.063705	0.739844
H144	H	1.154816	-0.047494	0.258141
