data_functionalizedCrystal
_audit_creation_method	'MofGen! by Chris Wilmer'
_symmetry_space_group_name_H-M	'P1'
_symmetry_Int_Tables_number	1
_symmetry_cell_setting	triclinic
loop_
_symmetry_equiv_pos_as_xyz
  x,y,z
_cell_length_a	18.050591
_cell_length_b	18.050589
_cell_length_c	13.032268
_cell_angle_alpha	82.850583
_cell_angle_beta	82.842055
_cell_angle_gamma	90.024669
loop_
_atom_site_label
_atom_site_type_symbol
_atom_site_fract_x
_atom_site_fract_y
_atom_site_fract_z
Zn1	Zn	1.081955	-0.349040	0.591013
Zn2	Zn	1.581955	0.150960	1.091013
Zn3	Zn	1.097635	-0.457476	0.416282
Zn4	Zn	1.597635	0.042524	0.916282
Zn5	Zn	0.973544	-0.333296	0.416274
Zn6	Zn	1.473544	0.166704	0.916274
Zn7	Zn	0.957728	-0.473179	0.590953
Zn8	Zn	1.457728	0.026821	1.090953
O9	O	1.027716	-0.403248	0.503631
O10	O	1.527716	0.096752	1.003631
O11	O	1.187957	-0.363441	0.567863
O12	O	1.687957	0.136559	1.067863
O13	O	1.094355	-0.427843	0.270052
O14	O	1.594355	0.072157	0.770052
O15	O	0.987982	-0.231462	0.439475
O16	O	1.487982	0.268538	0.939475
O17	O	1.199477	-0.443109	0.439489
O18	O	1.699477	0.056891	0.939489
O19	O	1.067632	-0.243029	0.567855
O20	O	1.567632	0.256971	1.067855
O21	O	1.003186	-0.336608	0.270046
O22	O	1.503186	0.163392	0.770046
O23	O	0.867524	-0.351835	0.439417
O24	O	1.367524	0.148165	0.939417
O25	O	0.961026	-0.469873	0.737191
O26	O	1.461026	0.030127	1.237191
O27	O	0.855904	-0.454607	0.567753
O28	O	1.355904	0.045393	1.067753
O29	O	1.052295	-0.378668	0.737234
O30	O	1.552295	0.121332	1.237234
O31	O	1.079019	-0.563482	0.439431
O32	O	1.579019	-0.063482	0.939431
O33	O	0.976230	-0.575019	0.567761
O34	O	1.476230	-0.075019	1.067761
C35	C	0.834768	-0.403217	0.503578
C36	C	1.334768	0.096783	1.003578
C37	C	0.752222	-0.403224	0.503581
C38	C	1.252222	0.096776	1.003581
C39	C	1.027628	-0.596198	0.503613
C40	C	1.527628	-0.096198	1.003613
C41	C	1.027655	-0.678747	0.503641
C42	C	1.527655	-0.178747	1.003641
C43	C	0.509679	-0.347300	0.433957
C44	C	1.009679	0.152700	0.933957
C45	C	0.550505	-0.337813	0.529321
C46	C	1.050505	0.162187	1.029321
C47	C	0.455094	-0.403269	0.503666
C48	C	0.955094	0.096731	1.003666
C49	C	0.561353	-0.412699	0.408266
C50	C	1.061353	0.087301	0.908266
C51	C	0.601083	-0.403245	0.503619
C52	C	1.101083	0.096755	1.003619
C53	C	0.494828	-0.393752	0.599081
C54	C	0.994828	0.106248	1.099081
C55	C	0.505678	-0.468664	0.477962
C56	C	1.005678	0.031336	0.977962
C57	C	0.546475	-0.459209	0.573392
C58	C	1.046475	0.040791	1.073392
C59	C	0.370994	-0.403282	0.503692
C60	C	0.870994	0.096718	1.003692
C61	C	0.685181	-0.403234	0.503604
C62	C	1.185181	0.096766	1.003604
C63	C	0.971809	-0.884496	0.573402
C64	C	1.471809	-0.384496	1.073402
C65	C	0.962317	-0.925335	0.478047
C66	C	1.462317	-0.425335	0.978047
C67	C	1.027726	-0.829878	0.503655
C68	C	1.527726	-0.329878	1.003655
C69	C	1.037254	-0.936122	0.599021
C70	C	1.537254	-0.436122	1.099021
C71	C	1.027794	-0.975865	0.503676
C72	C	1.527794	-0.475865	1.003676
C73	C	1.018203	-0.869626	0.408248
C74	C	1.518203	-0.369626	0.908248
C75	C	1.093166	-0.880414	0.529287
C76	C	1.593166	-0.380414	1.029287
C77	C	1.083706	-0.921225	0.433866
C78	C	1.583706	-0.421225	0.933866
C79	C	1.027686	-0.745779	0.503643
C80	C	1.527686	-0.245779	1.003643
C81	C	1.027835	-1.059962	0.503676
C82	C	1.527835	-0.559962	1.003676
C83	C	1.221416	-0.403279	0.503684
C84	C	1.721416	0.096721	1.003684
C85	C	1.303960	-0.403293	0.503706
C86	C	1.803960	0.096707	1.003706
C87	C	1.003147	-0.427778	0.776188
C88	C	1.503147	0.072222	1.276188
C89	C	0.992678	-0.438231	0.892336
C90	C	1.492678	0.061769	1.392336
C91	C	1.027822	-0.209546	0.503671
C92	C	1.527822	0.290454	1.003671
C93	C	1.027868	-0.127002	0.503688
C94	C	1.527868	0.372998	1.003688
C95	C	1.052231	-0.378759	0.232134
C96	C	1.552231	0.121241	0.732134
C97	C	1.062845	-0.368097	0.115986
C98	C	1.562845	0.131903	0.615986
C99	C	1.033168	-0.397765	0.944140
C100	C	1.533168	0.102235	1.444140
C101	C	1.022348	-0.408568	1.064185
C102	C	1.522348	0.091432	1.564185
H103	H	0.493311	-0.299954	0.375098
H104	H	0.993311	0.200046	0.875098
H105	H	0.907007	-0.945160	0.456386
H106	H	1.407007	-0.445160	0.956386
H107	H	1.105520	-0.325447	1.071470
H108	H	1.605520	0.174553	1.571470
H109	H	0.570255	-0.282500	0.551061
H110	H	1.070255	0.217500	1.051061
F111	F	0.457123	-0.383227	0.704540
F112	F	0.957123	0.116773	1.204540
F113	F	1.145561	-0.942389	0.356697
F114	F	1.645561	-0.442389	0.856697
F115	F	0.966560	-0.464306	1.122368
F116	F	1.466560	0.035694	1.622368
H117	H	0.562695	-0.506536	0.632391
H118	H	1.062695	-0.006536	1.132391
F119	F	1.088935	-0.342013	0.885953
F120	F	1.588935	0.157987	1.385953
H121	H	0.590293	-0.420686	0.327607
H122	H	1.090293	0.079314	0.827607
F123	F	0.936892	-0.493965	0.950523
F124	F	1.436892	0.006035	1.450523
H125	H	0.485900	-0.523957	0.456206
H126	H	0.985900	-0.023957	0.956206
F127	F	0.909932	-0.863135	0.650390
F128	F	1.409932	-0.363135	1.150390
F129	F	1.007622	-0.831937	0.302813
F130	F	1.507622	-0.331937	0.802813
H131	H	1.148459	-0.860595	0.550993
H132	H	1.648459	-0.360595	1.050993
H133	H	1.045287	-0.965046	0.679663
H134	H	1.545287	-0.465046	1.179663
