data_functionalizedCrystal
_audit_creation_method	'MofGen! by Chris Wilmer'
_symmetry_space_group_name_H-M	'P1'
_symmetry_Int_Tables_number	1
_symmetry_cell_setting	triclinic
loop_
_symmetry_equiv_pos_as_xyz
  x,y,z
_cell_length_a	6.817900
_cell_length_b	13.167930
_cell_length_c	14.858572
_cell_angle_alpha	99.382144
_cell_angle_beta	104.524003
_cell_angle_gamma	105.754568
loop_
_atom_site_label
_atom_site_type_symbol
_atom_site_fract_x
_atom_site_fract_y
_atom_site_fract_z
V1	V	-4.058282	-0.149602	-0.302870
O2	O	-4.024746	0.006492	-0.283880
O3	O	-4.029251	-0.295964	-0.313517
O4	O	-4.014656	-0.147606	-0.429159
O5	O	-4.039442	-0.142893	-0.167438
V6	V	-4.538782	-0.130895	-0.285126
O7	O	-4.326173	-0.190636	-0.341793
O8	O	-4.721089	-0.089860	-0.246204
O9	O	-4.344606	0.015468	-0.274479
O10	O	-4.689715	-0.286988	-0.304116
O11	O	-4.675019	-0.137603	-0.420559
O12	O	-4.359202	-0.132890	-0.158837
C13	C	-3.878809	-0.331635	-0.312021
C14	C	-3.936392	-0.451290	-0.321568
C15	C	-3.953186	-0.644996	-0.166473
C16	C	-4.007288	-0.757422	-0.175439
C17	C	-4.098711	-0.788571	-0.348465
C18	C	-4.044610	-0.676145	-0.339500
C19	C	-3.971844	-0.604361	-0.248500
C20	C	-3.917728	-0.491932	-0.239535
C21	C	-4.009166	-0.523084	-0.412561
C22	C	-4.063268	-0.635510	-0.421527
C23	C	-3.860191	-0.142388	-0.459533
C24	C	-3.905933	-0.141725	-0.562859
C25	C	-4.073352	-0.139302	-0.941218
C26	C	-4.026762	-0.139976	-0.835947
C27	C	-3.989644	-0.140515	-0.752042
C28	C	-3.943051	-0.141187	-0.646764
C29	C	-4.158391	0.051133	-0.275973
C30	C	-4.080047	0.170787	-0.266432
C31	C	-4.177009	-0.138112	-0.128459
C32	C	-4.110505	-0.138769	-0.025131
H33	H	-3.893910	-0.586547	-0.092377
H34	H	-4.122527	-0.693971	-0.495616
H35	H	-4.024349	-0.489987	-0.479353
N36	N	-3.839256	-0.414495	-0.141396
H37	H	-3.690297	-0.363422	-0.130338
H38	H	-3.835786	-0.457373	-0.090850
N39	N	-4.177278	-0.866026	-0.446599
H40	H	-4.077329	-0.909652	-0.450704
H41	H	-4.180942	-0.823172	-0.497164
H42	H	-3.992092	-0.790502	-0.108644
