data_functionalizedCrystal
_audit_creation_method	'MofGen! by Chris Wilmer'
_symmetry_space_group_name_H-M	'P1'
_symmetry_Int_Tables_number	1
_symmetry_cell_setting	triclinic
loop_
_symmetry_equiv_pos_as_xyz
  x,y,z
_cell_length_a	19.377625
_cell_length_b	20.875641
_cell_length_c	20.875641
_cell_angle_alpha	60.089808
_cell_angle_beta	75.531195
_cell_angle_gamma	54.401971
loop_
_atom_site_label
_atom_site_type_symbol
_atom_site_fract_x
_atom_site_fract_y
_atom_site_fract_z
Zr1	Zr	0.725429	0.682400	-0.268073
O2	O	0.620081	0.810375	-0.347768
O3	O	0.753783	0.550678	-0.239485
O4	O	0.764369	0.674527	-0.375326
O5	O	0.605628	0.694044	-0.109503
O6	O	0.882670	0.672579	-0.401794
O7	O	0.609495	0.686526	-0.211927
O8	O	0.863732	0.451036	-0.158800
O9	O	0.624565	0.915587	-0.352497
O10	O	0.858923	0.604791	-0.252068
O11	O	0.767751	0.611855	-0.155878
O12	O	0.780215	0.757671	-0.315813
O13	O	0.689043	0.764735	-0.219622
Zr14	Zr	0.907937	0.691282	-0.146931
Zr15	Zr	0.914105	0.679293	-0.310286
Zr16	Zr	0.719262	0.694389	-0.104718
Zr17	Zr	0.732580	0.850200	-0.275616
Zr18	Zr	0.900786	0.523482	-0.139389
O19	O	0.879584	0.823004	-0.175519
O20	O	0.888354	0.805957	-0.407789
O21	O	0.611312	0.827422	-0.115498
O22	O	1.013285	0.563307	-0.067237
O23	O	1.022055	0.546260	-0.299507
O24	O	0.745013	0.567725	-0.007216
O25	O	1.027739	0.679638	-0.305502
O26	O	0.868997	0.699155	-0.039679
O27	O	0.750697	0.701103	-0.013211
O28	O	1.023872	0.687156	-0.203078
O29	O	0.774537	0.913117	-0.386051
O30	O	0.858830	0.460565	-0.028954
O31	O	1.008801	0.458095	-0.062508
O32	O	1.013704	0.448566	-0.192353
O33	O	0.619663	0.925116	-0.222651
O34	O	0.769635	0.922646	-0.256205
O35	O	0.853151	0.616011	-0.099192
O36	O	0.944324	0.608947	-0.195383
O37	O	0.865616	0.761827	-0.259127
O38	O	0.774443	0.768891	-0.162936
C39	C	0.807738	0.476949	-0.198068
C40	C	0.804703	0.405713	-0.194866
C41	C	0.850865	0.368560	-0.243572
C42	C	0.848014	0.301622	-0.240556
C43	C	0.798996	0.271844	-0.188838
C44	C	0.752832	0.309001	-0.140127
C45	C	0.755688	0.375933	-0.143139
C46	C	0.785356	0.072057	-0.174440
C47	C	0.782502	0.005122	-0.171433
C48	C	0.877685	-0.002253	-0.271862
C49	C	0.880533	0.064684	-0.274873
C50	C	0.834373	0.101832	-0.226159
N51	N	0.796079	0.203425	-0.185756
N52	N	0.837295	0.170245	-0.229238
C53	C	0.580679	0.690728	-0.154700
C54	C	0.500581	0.692047	-0.136780
C55	C	0.247791	0.675646	-0.359929
C56	C	0.172530	0.676880	-0.343067
C57	C	0.168290	0.685162	-0.230222
C58	C	0.243550	0.683933	-0.247076
C59	C	0.283296	0.679174	-0.311931
C60	C	0.279054	0.687461	-0.199078
C61	C	0.354310	0.686227	-0.215929
C62	C	0.394062	0.681466	-0.280780
C63	C	0.358552	0.677940	-0.328783
C64	C	0.239311	0.692214	-0.134221
C65	C	0.274815	0.695742	-0.086222
C66	C	0.350069	0.694514	-0.103076
C67	C	0.389821	0.689753	-0.167927
C68	C	0.385580	0.698040	-0.055073
C69	C	0.460836	0.696806	-0.071925
C70	C	0.465077	0.688519	-0.184778
C71	C	1.052688	0.682954	-0.260305
C72	C	1.132785	0.681635	-0.278225
C73	C	0.824398	0.671845	-0.411835
C74	C	0.827017	0.666755	-0.481183
C75	C	0.825628	0.896733	-0.216937
C76	C	0.828664	0.967969	-0.220139
C77	C	0.787163	0.744164	-0.547037
C78	C	0.789635	0.739376	-0.612197
C79	C	0.831954	0.657179	-0.611500
C80	C	0.871813	0.579765	-0.545640
C81	C	0.869346	0.584553	-0.480482
C82	C	0.843742	0.634301	-0.802804
C83	C	0.846203	0.629518	-0.867968
C84	C	0.764026	0.789130	-0.934521
C85	C	0.761559	0.793911	-0.869359
C86	C	0.801421	0.716497	-0.803505
N87	N	0.834479	0.652283	-0.678103
N88	N	0.798901	0.721394	-0.736905
C89	C	0.808968	0.701837	-0.003170
C90	C	0.806350	0.706927	0.066178
C91	C	1.043743	0.473062	-0.250870
C92	C	1.120805	0.400508	-0.265589
C93	C	0.800024	0.491945	0.006264
C94	C	0.794369	0.425799	0.078815
C95	C	1.036028	0.488059	-0.046538
C96	C	1.110471	0.420594	0.008092
C97	C	0.597339	0.885623	-0.368467
C98	C	0.522895	0.953088	-0.423097
C99	C	0.589624	0.900620	-0.164135
C100	C	0.512562	0.973174	-0.149416
C101	C	0.833343	0.881737	-0.421269
C102	C	0.838997	0.947883	-0.493820
C103	C	1.112416	0.364265	-0.302097
C104	C	1.184818	0.296101	-0.315940
C105	C	1.265607	0.264176	-0.293271
C106	C	1.273994	0.300425	-0.256761
C107	C	1.201594	0.368592	-0.242923
C108	C	0.836292	0.396906	0.142481
C109	C	0.830976	0.334765	0.210657
C110	C	0.783742	0.301514	0.215163
C111	C	0.741815	0.330413	0.151490
C112	C	0.747126	0.392557	0.083317
C113	C	1.193030	0.385224	-0.016465
C114	C	1.262985	0.321842	0.034857
C115	C	1.250380	0.293827	0.110737
C116	C	1.167813	0.329203	0.135294
C117	C	1.097860	0.392588	0.083972
C118	C	0.440337	0.988466	-0.398540
C119	C	0.370383	1.051869	-0.449863
C120	C	0.382988	1.079888	-0.525743
C121	C	0.465554	1.044507	-0.550301
C122	C	0.535507	0.981110	-0.498978
C123	C	0.520951	1.009423	-0.112915
C124	C	0.448551	1.077605	-0.099090
C125	C	0.367762	1.109532	-0.121762
C126	C	0.359375	1.073280	-0.158269
C127	C	0.431774	1.005104	-0.172098
C128	C	0.886238	0.981115	-0.498303
C129	C	0.891568	1.043257	-0.566469
C130	C	0.849650	1.072171	-0.630150
C131	C	0.802408	1.038932	-0.625665
C132	C	0.797084	0.976786	-0.557501
H133	H	0.885604	0.271371	-0.280216
H134	H	0.920373	0.957583	-0.446457
H135	H	0.731573	0.852157	-0.988145
Br136	Br	0.947052	0.105101	-0.345071
H137	H	0.308817	1.165046	-0.110497
Br138	Br	1.375030	0.273843	0.001513
Br139	Br	1.345328	0.207802	0.180380
Br140	Br	0.288041	1.165928	-0.595387
H141	H	0.874755	0.423974	0.138826
Br142	Br	0.482647	1.082540	-0.653284
Br143	Br	0.249725	1.116618	-0.189031
H144	H	0.890777	0.392804	-0.285689
Br145	Br	0.955682	1.088357	-0.572537
H146	H	1.046641	0.390257	-0.320569
H147	H	0.865123	0.311243	0.262494
H148	H	0.424932	0.975592	-0.201817
Br149	Br	0.940330	-0.052672	-0.337968
H150	H	0.602728	0.952306	-0.518982
H151	H	0.742581	-0.019119	-0.129317
H152	H	0.586727	0.983434	-0.094445
H153	H	0.768280	1.062483	-0.677524
Br154	Br	0.301726	0.669205	-0.447956
Br155	Br	0.903640	0.517958	-0.867018
Br156	Br	0.856883	1.156514	-0.722654
H157	H	0.143627	0.674006	-0.382158
H158	H	0.703357	0.303330	0.155170
H159	H	0.747772	0.102292	-0.134772
Br160	Br	0.114349	0.691615	-0.142205
Br161	Br	0.985818	0.440579	0.117314
H162	H	0.718095	0.406185	-0.103480
Br163	Br	0.776542	0.217174	0.307691
H164	H	0.758612	0.949735	-0.553860
Br165	Br	0.690228	0.431758	-0.003084
H166	H	0.455397	1.107110	-0.069363
H167	H	0.901799	0.521519	-0.426861
Br168	Br	0.897801	0.529238	-0.713430
Br169	Br	1.150721	0.291173	0.238277
H170	H	0.489744	0.699677	-0.032839
Br171	Br	0.423206	0.950452	-0.295563
Br172	Br	0.258338	1.099870	-0.416519
H173	H	0.712925	0.284746	-0.098013
Br174	Br	1.210160	0.423235	-0.119442
Br175	Br	0.519012	0.682078	-0.272805
Br176	Br	0.220874	0.702194	0.001794
H177	H	0.390909	0.674074	-0.381598
Br178	Br	0.331642	0.704480	0.032947
H179	H	0.727100	0.860845	-0.869935
H180	H	0.455343	0.680457	-0.294497
H181	H	0.752696	0.811098	-0.547612
Br182	Br	0.735546	0.844436	-0.701571
H183	H	0.178035	0.693214	-0.120502
Br184	Br	0.929252	0.468210	-0.544693
Br185	Br	1.173415	0.246918	-0.365487
H186	H	1.324553	0.208668	-0.304543
H187	H	1.339782	0.274421	-0.238307
H188	H	1.208435	0.398093	-0.213191
