data_functionalizedCrystal
_audit_creation_method	'MofGen! by Chris Wilmer'
_symmetry_space_group_name_H-M	'P1'
_symmetry_Int_Tables_number	1
_symmetry_cell_setting	triclinic
loop_
_symmetry_equiv_pos_as_xyz
  x,y,z
_cell_length_a	12.645331
_cell_length_b	12.645330
_cell_length_c	17.640968
_cell_angle_alpha	78.768500
_cell_angle_beta	78.774960
_cell_angle_gamma	90.012860
loop_
_atom_site_label
_atom_site_type_symbol
_atom_site_fract_x
_atom_site_fract_y
_atom_site_fract_z
Zn1	Zn	1.741939	-0.300830	-0.446969
Zn2	Zn	1.706003	-0.513958	-0.314790
Zn3	Zn	1.528822	-0.336707	-0.314798
Zn4	Zn	1.564640	-0.478063	-0.446931
O5	O	1.635351	-0.407389	-0.380872
O6	O	1.885522	-0.329109	-0.429448
O7	O	1.652471	-0.520482	-0.204176
O8	O	1.557142	-0.183596	-0.332350
O9	O	1.859121	-0.485693	-0.332337
O10	O	1.713718	-0.157236	-0.429456
O11	O	1.522297	-0.390257	-0.204182
O12	O	1.385223	-0.355451	-0.332313
O13	O	1.618188	-0.424515	-0.557551
O14	O	1.411538	-0.459304	-0.429390
O15	O	1.748448	-0.294303	-0.557579
O16	O	1.687202	-0.657549	-0.332299
O17	O	1.583343	-0.631177	-0.429383
C18	C	1.359915	-0.407376	-0.380849
C19	C	1.242087	-0.407391	-0.380857
C20	C	1.635293	-0.682824	-0.380853
C21	C	1.635372	-0.800649	-0.380872
C22	C	1.180642	-0.341903	-0.319886
C23	C	1.058139	-0.341543	-0.320094
C24	C	1.096877	-0.354973	-0.464302
C25	C	1.219371	-0.354463	-0.463921
C26	C	1.191003	-0.525329	-0.359172
C27	C	1.067905	-0.525235	-0.357363
C28	C	1.700545	-0.984793	-0.319673
C29	C	1.700852	-0.862192	-0.319823
C30	C	1.688260	-0.822438	-0.464194
C31	C	1.688821	-0.945124	-0.463870
C32	C	1.517502	-0.973753	-0.359569
C33	C	1.517533	-0.851655	-0.357700
C34	C	1.911863	-0.407403	-0.380896
C35	C	2.029696	-0.407409	-0.380906
C36	C	1.691322	-0.351403	-0.587049
C37	C	1.715174	-0.327545	-0.674909
C38	C	1.635443	-0.130874	-0.380908
C39	C	1.635482	-0.013040	-0.380923
C40	C	1.454560	-0.588060	-0.963796
C41	C	1.476995	-0.565628	-1.046354
C42	C	1.612624	-0.430050	-1.046373
C43	C	1.590197	-0.452467	-0.963813
C44	C	1.511165	-0.531474	-0.922531
C45	C	1.646801	-0.395880	-0.922549
C46	C	1.624380	-0.418300	-0.839996
C47	C	1.545354	-0.497305	-0.798708
C48	C	1.488744	-0.553893	-0.839979
C49	C	1.725838	-0.316879	-0.963832
C50	C	1.782443	-0.260292	-0.922568
C51	C	1.760016	-0.282706	-0.840014
C52	C	1.680990	-0.361712	-0.798726
C53	C	1.816627	-0.226118	-0.798743
C54	C	1.794205	-0.248537	-0.716191
C55	C	1.658569	-0.384131	-0.716173
C56	C	1.579659	-0.463082	-0.175497
C57	C	1.556013	-0.486641	-0.087638
H58	H	1.011236	-0.376914	-0.258267
H59	H	1.478063	-0.839285	-0.296382
N60	N	1.373813	-0.668753	-0.921632
N61	N	1.323266	-0.719264	-0.958482
H62	H	1.266239	-0.776250	-0.928705
N63	N	1.656025	-0.845539	-0.242331
N64	N	1.648566	-0.751925	-0.229187
H65	H	1.616892	-0.740166	-0.174458
N66	N	1.407994	-0.634576	-0.797800
N67	N	1.312677	-0.625027	-0.807011
H68	H	1.255650	-0.682006	-0.777221
N69	N	1.196452	-0.386007	-0.242054
N70	N	1.117204	-0.420600	-0.188326
H71	H	1.128380	-0.451737	-0.133354
H72	H	1.215314	-0.255486	-0.334098
H73	H	1.880982	-0.161798	-0.832367
H74	H	1.594188	-0.448441	-0.682559
H75	H	1.676974	-0.365725	-1.079996
N76	N	1.451118	-0.799197	-0.409548
N77	N	1.368377	-0.753788	-0.382671
H78	H	1.321474	-0.716738	-0.419294
H79	H	1.048468	-0.578431	-0.398509
N80	N	1.748764	-0.293990	-1.048158
N81	N	1.780904	-0.366682	-1.084994
H82	H	1.797098	-0.350518	-1.144549
N83	N	1.522448	-0.520187	-0.714383
N84	N	1.490307	-0.447494	-0.677548
H85	H	1.474128	-0.463652	-0.617993
H86	H	1.261833	-0.398886	-0.510923
N87	N	1.456312	-0.994976	-0.415514
N88	N	1.359885	-0.969667	-0.409019
H89	H	1.316675	-0.984659	-0.448532
H90	H	1.080440	-0.400236	-0.510993
N91	N	1.852035	-0.190730	-0.674047
N92	N	1.922592	-0.120191	-0.710914
H93	H	1.963438	-0.079364	-0.681150
N94	N	1.064716	-0.247031	-0.487705
N95	N	0.992370	-0.208507	-0.443109
H96	H	0.969655	-0.132272	-0.459633
N97	N	1.419135	-0.623400	-1.088506
N98	N	1.318815	-0.618835	-1.079281
H99	H	1.277947	-0.659624	-1.109055
N100	N	1.026265	-0.232486	-0.338154
N101	N	1.094535	-0.156402	-0.350650
H102	H	1.072026	-0.079375	-0.363406
N103	N	1.261491	-0.245487	-0.486924
N104	N	1.200388	-0.170337	-0.503145
H105	H	1.230129	-0.093369	-0.519392
N106	N	1.863172	-0.179602	-0.964751
N107	N	1.883187	-0.159597	-1.038458
H108	H	1.940202	-0.102607	-1.068251
H109	H	1.022130	-0.564373	-0.295987
N110	N	1.209388	-0.579820	-0.284149
N111	N	1.260372	-0.532386	-0.245749
H112	H	1.273355	-0.570859	-0.192760
N113	N	1.796240	-0.777590	-0.487259
N114	N	1.873423	-0.837411	-0.500889
H115	H	1.949686	-0.805741	-0.517174
N116	N	1.631880	-0.769930	-0.522996
N117	N	1.662601	-0.778239	-0.593279
H118	H	1.622783	-0.741152	-0.634809
H119	H	1.665026	-1.031147	-0.257709
N120	N	1.242570	-0.586878	-0.414872
N121	N	1.341743	-0.600549	-0.423198
H122	H	1.378170	-0.644010	-0.462538
N123	N	1.808975	-1.018598	-0.337197
N124	N	1.838543	-1.063402	-0.394601
H125	H	1.915122	-1.087278	-0.406980
H126	H	1.775731	-0.968732	-0.481958
N127	N	1.809902	-0.820503	-0.337540
N128	N	1.886020	-0.881971	-0.349839
H129	H	1.963042	-0.852530	-0.362354
H130	H	1.644742	-0.961991	-0.511078
H131	H	1.473764	-1.020950	-0.299868
