data_functionalizedCrystal
_audit_creation_method	'MofGen! by Chris Wilmer'
_symmetry_space_group_name_H-M	'P1'
_symmetry_Int_Tables_number	1
_symmetry_cell_setting	triclinic
loop_
_symmetry_equiv_pos_as_xyz
  x,y,z
_cell_length_a	10.489741
_cell_length_b	10.489741
_cell_length_c	8.965430
_cell_angle_alpha	90.000707
_cell_angle_beta	89.998843
_cell_angle_gamma	84.539174
loop_
_atom_site_label
_atom_site_type_symbol
_atom_site_fract_x
_atom_site_fract_y
_atom_site_fract_z
O1	O	1.694053	0.179958	-0.123946
O2	O	1.322858	0.196851	-0.123969
O3	O	1.516902	0.002807	-0.123948
O4	O	1.500009	0.374003	-0.123967
O5	O	1.516886	0.002820	0.124130
O6	O	1.322841	0.196864	0.124110
O7	O	1.694037	0.179971	0.124133
Cu8	Cu	1.508438	0.188419	0.146773
Cu9	Cu	1.508457	0.188404	-0.146609
O10	O	1.499993	0.374016	0.124112
C11	C	1.275318	0.195582	0.000067
C12	C	1.133688	0.191765	0.000059
C13	C	1.065548	0.068300	0.000079
C14	C	0.973430	0.126617	-0.122237
C15	C	0.973447	0.126659	0.122349
C16	C	1.043435	0.250133	-0.122358
C17	C	1.043462	0.250158	0.122338
C18	C	0.951371	0.308564	-0.000007
C19	C	1.515618	-0.044718	0.000090
C20	C	1.511801	-0.186348	0.000087
C21	C	1.388336	-0.254488	0.000069
C22	C	1.446652	-0.346604	0.122388
C23	C	1.446697	-0.346591	-0.122198
C24	C	1.570167	-0.276599	0.122508
C25	C	1.570195	-0.276576	-0.122189
C26	C	1.628600	-0.368665	0.000161
C27	C	1.741577	0.181241	0.000093
C28	C	1.883206	0.185058	0.000092
C29	C	1.501277	0.421541	0.000070
C30	C	1.505094	0.563170	0.000063
N31	N	1.508433	0.188429	0.353122
N32	N	1.508471	0.188384	-0.352958
C33	C	1.418666	0.278138	0.450418
C34	C	1.534163	0.303949	0.549838
C35	C	1.392986	0.162629	0.549830
C36	C	1.623988	0.214298	0.450352
C37	C	1.482735	0.072927	0.450336
C38	C	1.598314	0.098690	0.549711
H39	H	0.901947	0.410168	-0.000079
H40	H	1.674327	0.022803	0.593034
H41	H	1.460937	-0.024699	0.406596
H42	H	1.115238	-0.033196	-0.000069
O43	O	1.276391	0.136760	0.601777
C44	C	1.182035	0.231624	0.551214
H45	H	1.217672	0.278689	0.446524
H46	H	1.161686	0.307085	0.641811
C47	C	1.014545	0.111928	0.643602
C48	C	1.058310	0.169727	0.515012
H49	H	0.938223	0.073751	0.621277
H50	H	1.078113	0.048018	0.677673
H51	H	0.997597	0.174823	0.719088
H52	H	1.075272	0.106830	0.439537
H53	H	0.994741	0.233625	0.480928
O54	O	1.384123	-0.383519	0.245640
C55	C	1.257494	-0.324815	0.245222
H56	H	1.228150	-0.297382	0.126190
H57	H	1.251625	-0.235157	0.317715
C58	C	1.202778	-0.452558	0.453827
C59	C	1.166733	-0.418873	0.307629
H60	H	1.146792	-0.510574	0.492328
H61	H	1.288091	-0.492105	0.454113
H62	H	1.197887	-0.377833	0.514219
H63	H	1.171640	-0.493595	0.247236
H64	H	1.081418	-0.379341	0.307334
O65	O	1.632288	-0.239571	-0.245705
C66	C	1.566892	-0.274880	-0.374425
H67	H	1.462799	-0.286102	-0.345126
H68	H	1.614273	-0.369569	-0.419051
C69	C	1.699912	-0.156598	-0.530310
C70	C	1.572061	-0.170371	-0.494328
H71	H	1.703105	-0.092136	-0.604276
H72	H	1.743975	-0.132814	-0.443591
H73	H	1.739382	-0.235513	-0.567491
H74	H	1.532598	-0.091462	-0.457131
H75	H	1.527992	-0.194140	-0.581044
O76	O	1.740412	0.240733	0.398425
C77	C	1.725963	0.352886	0.310966
H78	H	1.633902	0.412767	0.344037
H79	H	1.721157	0.325818	0.188079
C80	C	1.954101	0.357522	0.296138
C81	C	1.841036	0.431074	0.336766
H82	H	2.025086	0.405750	0.312046
H83	H	1.963837	0.281960	0.355056
H84	H	1.950079	0.334971	0.193734
H85	H	1.845053	0.453610	0.439172
H86	H	1.831303	0.506642	0.277865
O87	O	0.936352	0.064505	-0.245715
C88	C	0.852205	0.148262	-0.330987
H89	H	0.868656	0.251560	-0.303645
H90	H	0.749032	0.131354	-0.303570
C91	C	0.857231	-0.003817	-0.531684
C92	C	0.877444	0.123055	-0.498111
H93	H	0.872794	-0.019368	-0.634774
H94	H	0.913918	-0.060248	-0.474233
H95	H	0.771253	-0.017892	-0.508825
H96	H	0.963424	0.137123	-0.520952
H97	H	0.820771	0.179488	-0.555570
H98	H	1.074270	0.302327	-0.225883
H99	H	1.342824	0.354072	0.406821
O100	O	1.267175	-0.195398	0.000002
C101	C	1.201636	-0.232576	-0.127765
H102	H	1.248372	-0.328379	-0.169955
H103	H	1.206201	-0.156994	-0.218489
C104	C	1.003341	-0.128204	-0.035965
C105	C	1.060737	-0.245876	-0.087777
H106	H	0.916426	-0.136403	-0.011303
H107	H	1.047496	-0.103151	0.050112
H108	H	1.007158	-0.065231	-0.111577
H109	H	1.056933	-0.308842	-0.012159
H110	H	1.016577	-0.270940	-0.173840
H111	H	1.074502	0.302361	0.225749
H112	H	1.622355	-0.245761	0.226035
H113	H	0.942463	0.074402	0.225758
H114	H	1.730204	-0.418089	0.000235
H115	H	1.394447	-0.377561	-0.225620
H116	H	1.555925	0.401606	0.593543
