data_functionalizedCrystal
_audit_creation_method	'MofGen! by Chris Wilmer'
_symmetry_space_group_name_H-M	'P1'
_symmetry_Int_Tables_number	1
_symmetry_cell_setting	triclinic
loop_
_symmetry_equiv_pos_as_xyz
  x,y,z
_cell_length_a	10.654546
_cell_length_b	10.654541
_cell_length_c	9.130313
_cell_angle_alpha	89.998951
_cell_angle_beta	89.998822
_cell_angle_gamma	84.483706
loop_
_atom_site_label
_atom_site_type_symbol
_atom_site_fract_x
_atom_site_fract_y
_atom_site_fract_z
O1	O	1.667835	0.176373	-0.121831
O2	O	1.302356	0.193183	-0.121827
O3	O	1.493500	0.002038	-0.121820
O4	O	1.476691	0.367518	-0.121838
O5	O	1.493498	0.002043	0.121779
O6	O	1.302354	0.193188	0.121772
O7	O	1.667833	0.176378	0.121768
Cu8	Cu	1.485093	0.184784	0.144013
Cu9	Cu	1.485096	0.184777	-0.144071
O10	O	1.476688	0.367523	0.121761
C11	C	1.255557	0.191952	-0.000027
C12	C	1.116113	0.188262	-0.000025
C13	C	1.050620	0.186513	-0.132817
C14	C	0.919599	0.183036	-0.132829
C15	C	0.919578	0.183052	0.132756
C16	C	1.050595	0.186538	0.132766
C17	C	1.050632	0.186499	-0.286151
C18	C	0.919611	0.183021	-0.286162
C19	C	1.492265	-0.044757	-0.000021
C20	C	1.488575	-0.184201	-0.000024
C21	C	1.717139	-0.212174	-0.000008
C22	C	1.829683	-0.291670	0.000003
C23	C	1.826207	-0.422688	-0.000001
C24	C	1.710176	-0.474212	-0.000021
C25	C	1.597633	-0.394716	-0.000032
C26	C	1.601121	-0.263697	-0.000023
C27	C	1.369071	-0.366743	-0.000059
C28	C	1.372543	-0.235724	-0.000044
C29	C	1.253039	-0.418266	-0.000079
C30	C	1.140493	-0.338770	-0.000079
C31	C	1.143974	-0.207745	-0.000073
C32	C	1.260000	-0.156229	-0.000055
C33	C	1.714632	0.177608	-0.000035
C34	C	1.854075	0.181299	-0.000047
C35	C	1.477923	0.414318	-0.000041
C36	C	1.481614	0.553762	-0.000048
N37	N	1.485100	0.184787	0.346635
N38	N	1.485098	0.184764	-0.346694
C39	C	1.569761	0.100177	0.423290
C40	C	1.569757	0.100162	0.576627
C41	C	1.400429	0.269378	0.576640
C42	C	1.400427	0.269386	0.423306
C43	C	1.667525	0.002485	0.423284
C44	C	1.667522	0.002470	0.576621
H45	H	0.867899	0.272461	-0.333759
H46	H	1.719981	-0.105494	0.000016
H47	H	1.637009	-0.088752	0.624172
H48	H	1.924153	-0.249705	0.000032
H49	H	1.764033	0.023987	0.618235
H50	H	1.102355	0.097056	-0.333714
Cl51	Cl	1.293977	0.375738	0.326939
H52	H	1.103913	0.187976	0.240898
Cl53	Cl	1.634419	-0.146548	0.359021
H54	H	0.866216	0.181649	0.240870
Cl55	Cl	1.808295	0.049725	0.349841
H56	H	1.250218	-0.524949	-0.000091
Cl57	Cl	1.293988	0.375725	0.673036
H58	H	1.046030	-0.380733	-0.000105
H59	H	0.894797	0.094338	-0.345030
Cl60	Cl	1.088961	0.323404	-0.377051
H61	H	1.052327	-0.143026	-0.000088
H62	H	1.917850	-0.487415	-0.000004
H63	H	1.707356	-0.580895	-0.000043
H64	H	1.262845	-0.049549	-0.000041
