data_functionalizedCrystal
_audit_creation_method	'MofGen! by Chris Wilmer'
_symmetry_space_group_name_H-M	'P1'
_symmetry_Int_Tables_number	1
_symmetry_cell_setting	triclinic
loop_
_symmetry_equiv_pos_as_xyz
  x,y,z
_cell_length_a	33.428889
_cell_length_b	33.428139
_cell_length_c	33.424847
_cell_angle_alpha	60.004234
_cell_angle_beta	60.008465
_cell_angle_gamma	59.994972
loop_
_atom_site_label
_atom_site_type_symbol
_atom_site_fract_x
_atom_site_fract_y
_atom_site_fract_z
O1	O	0.055565	-0.584504	0.488714
O2	O	0.020982	-0.455083	0.393778
O3	O	0.102943	-0.536959	0.393689
O4	O	-0.026396	-0.502628	0.488803
O5	O	0.130140	-0.509767	0.420792
O6	O	0.048179	-0.427891	0.420881
O7	O	0.082762	-0.557312	0.515817
Cu8	Cu	0.067954	-0.490119	0.470823
Cu9	Cu	0.035790	-0.522276	0.438771
O10	O	0.000801	-0.475436	0.515906
N11	N	0.090577	-0.467504	0.493370
N12	N	0.013171	-0.544895	0.416225
C13	C	0.143377	-0.280390	0.546067
C14	C	0.143515	-0.414755	0.680369
C15	C	0.143392	-0.414735	0.546069
C16	C	0.277766	-0.414702	0.545966
C17	C	0.158177	-0.324719	0.560828
C18	C	0.158255	-0.399967	0.636038
C19	C	0.233434	-0.399936	0.560773
C20	C	0.158186	-0.399955	0.560829
C21	C	0.124540	-0.223964	0.527278
C22	C	0.124565	-0.433545	0.527281
C23	C	0.177014	-0.381145	0.579617
C24	C	0.359814	-0.400540	0.502735
C25	C	0.411105	-0.417624	0.485606
C26	C	0.411136	-0.500620	0.517255
C27	C	0.359845	-0.483534	0.534385
C28	C	0.136887	-0.198305	0.476855
C29	C	0.119761	-0.147011	0.459777
C30	C	0.077945	-0.147038	0.543547
C31	C	0.095072	-0.198332	0.560625
C32	C	0.074134	-0.421169	0.539710
C33	C	0.057023	-0.438269	0.522625
C34	C	0.140770	-0.480120	0.480694
C35	C	0.157883	-0.463020	0.497773
C36	C	0.074339	-0.421208	0.762475
C37	C	0.057288	-0.438323	0.813768
C38	C	0.141075	-0.480183	0.813699
C39	C	0.158125	-0.463069	0.762404
C40	C	0.124756	-0.433580	0.736794
C41	C	0.334186	-0.433494	0.527123
C42	C	-0.173769	-0.597444	0.363037
C43	C	-0.039302	-0.597595	0.228856
C44	C	-0.039496	-0.597587	0.363300
C45	C	-0.039512	-0.731889	0.363237
C46	C	-0.129442	-0.612265	0.348329
C47	C	-0.054138	-0.612351	0.273187
C48	C	-0.054257	-0.687554	0.348440
C49	C	-0.054247	-0.612346	0.348477
C50	C	-0.230191	-0.578579	0.381758
C51	C	-0.020722	-0.578803	0.382168
C52	C	-0.073020	-0.631130	0.329609
C53	C	-0.053713	-0.813916	0.406386
C54	C	-0.036654	-0.865210	0.423504
C55	C	0.046338	-0.865293	0.391984
C56	C	0.029278	-0.813999	0.374865
C57	C	-0.255900	-0.590938	0.432169
C58	C	-0.307191	-0.573786	0.449185
C59	C	-0.307060	-0.531922	0.365377
C60	C	-0.255769	-0.549074	0.348360
C61	C	-0.033081	-0.528377	0.369764
C62	C	-0.016014	-0.511306	0.386922
C63	C	0.025770	-0.595083	0.428877
C64	C	0.008703	-0.612156	0.411725
C65	C	-0.032755	-0.528393	0.146761
C66	C	-0.015585	-0.511324	0.095468
C67	C	0.026262	-0.595106	0.095516
C68	C	0.009094	-0.612174	0.146811
C69	C	-0.020417	-0.578816	0.172432
C70	C	-0.020748	-0.788312	0.382068
N71	N	0.436037	-0.467415	0.493101
O72	O	0.592642	-0.471896	0.376066
O73	O	0.592838	-0.567146	0.505347
O74	O	0.592754	-0.566928	0.423360
O75	O	0.592727	-0.472113	0.458053
O76	O	0.511269	-0.539835	0.450606
O77	O	0.511353	-0.540052	0.532594
O78	O	0.511157	-0.444802	0.403312
Cu79	Cu	0.503815	-0.489954	0.470441
Cu80	Cu	0.600180	-0.521995	0.438219
O81	O	0.511242	-0.445020	0.485300
N82	N	0.667959	-0.544533	0.415554
N83	N	0.090544	-0.122107	0.493359
O84	O	-0.026406	0.034587	0.488773
O85	O	0.102877	0.034627	0.393499
O86	O	0.020848	0.034591	0.393771
O87	O	0.055623	0.034623	0.488500
O88	O	0.048051	-0.046899	0.420925
O89	O	0.130080	-0.046864	0.420653
O90	O	0.000796	-0.046903	0.515927
Cu91	Cu	0.067922	-0.054324	0.470769
Cu92	Cu	0.035752	0.042048	0.438656
O93	O	0.082825	-0.046867	0.515655
N94	N	0.013123	0.109830	0.416068
N95	N	0.090892	-0.467554	0.838649
O96	O	0.086330	-0.584488	0.995334
O97	O	-0.008902	-0.455160	0.995379
O98	O	-0.008679	-0.537172	0.995355
O99	O	0.086107	-0.502475	0.995358
O100	O	0.018452	-0.509990	0.913868
O101	O	0.018230	-0.427978	0.913891
O102	O	0.113461	-0.557306	0.913847
Cu103	Cu	0.068323	-0.490160	0.906429
Cu104	Cu	0.036237	-0.522306	1.002797
O105	O	0.113239	-0.475293	0.913870
N106	N	0.013667	-0.544916	1.070577
C107	C	0.031339	-0.425179	0.394250
C108	C	0.132837	-0.526572	0.394139
C109	C	0.072405	-0.587216	0.515344
C110	C	-0.029093	-0.485823	0.515455
C111	C	0.552119	-0.566716	0.535258
C112	C	0.552016	-0.566447	0.433726
C113	C	0.551873	-0.445232	0.373402
C114	C	0.551980	-0.445502	0.474933
C115	C	0.132731	-0.006013	0.393923
C116	C	0.031182	-0.006158	0.394293
C117	C	-0.029092	-0.006163	0.515469
C118	C	0.072491	-0.006119	0.515133
C119	C	-0.008451	-0.425276	0.954641
C120	C	-0.008170	-0.526833	0.954596
C121	C	0.113010	-0.587190	0.954585
C122	C	0.112735	-0.485627	0.954611
H123	H	0.016234	-0.428240	0.834672
H124	H	-0.066220	-0.006175	0.545378
O125	O	0.551942	-0.601939	0.424880
C126	C	0.509728	-0.625346	0.403330
C127	C	0.509746	-0.585114	0.413347
H128	H	0.475621	-0.611754	0.393994
H129	H	0.509753	-0.659582	0.437300
H130	H	0.543822	-0.634475	0.371245
H131	H	0.475657	-0.575943	0.445417
H132	H	0.509746	-0.550903	0.379353
O133	O	0.551821	-0.409614	0.329076
C134	C	0.551684	-0.386816	0.248399
C135	C	0.551756	-0.427201	0.298572
H136	H	0.551620	-0.401017	0.223727
H137	H	0.585771	-0.376097	0.230739
H138	H	0.517568	-0.353420	0.253604
H139	H	0.585848	-0.460623	0.293410
H140	H	0.517646	-0.437878	0.316215
H141	H	0.023949	-0.388000	0.364433
O142	O	0.551946	-0.410013	0.483873
C143	C	0.552026	-0.387609	0.542056
C144	C	0.552052	-0.427839	0.532001
H145	H	0.552123	-0.402010	0.580964
H146	H	0.517887	-0.354184	0.537748
H147	H	0.586089	-0.376858	0.514883
H148	H	0.518013	-0.438631	0.559165
H149	H	0.586215	-0.461237	0.536293
O150	O	0.081211	-0.631605	0.550874
C151	C	0.102734	-0.718782	0.574357
C152	C	0.092763	-0.668542	0.534082
H153	H	0.112086	-0.748660	0.560791
H154	H	0.068739	-0.718989	0.608563
H155	H	0.134794	-0.725891	0.583521
H156	H	0.060719	-0.661401	0.524875
H157	H	0.126782	-0.668359	0.499901
O158	O	0.176952	-0.005705	0.358196
C159	C	0.257542	-0.005302	0.335249
C160	C	0.207481	-0.005639	0.375749
H161	H	0.282242	-0.005258	0.349430
H162	H	0.252204	0.028885	0.301944
H163	H	0.275251	-0.039321	0.324399
H164	H	0.189744	0.028358	0.386641
H165	H	0.212851	-0.039848	0.409028
H166	H	0.023733	-0.006162	0.364531
H167	H	0.142910	-0.624330	0.954565
O168	O	-0.073387	-0.477049	0.551103
C169	C	-0.132384	-0.427480	0.602781
C170	C	-0.082208	-0.437370	0.562416
H171	H	-0.139536	-0.395394	0.611933
H172	H	-0.132491	-0.461496	0.636972
H173	H	-0.162289	-0.418208	0.589294
H174	H	-0.052275	-0.446630	0.575857
H175	H	-0.082143	-0.403347	0.528234
O176	O	0.081464	-0.006140	0.550596
C177	C	0.139700	-0.006100	0.572955
C178	C	0.129606	-0.006083	0.532752
H179	H	0.178618	-0.006043	0.558539
H180	H	0.135378	-0.040219	0.606394
H181	H	0.112555	0.027989	0.583685
H182	H	0.156741	-0.040148	0.521979
H183	H	0.133910	0.028058	0.499338
H184	H	0.015959	-0.428182	0.532734
O185	O	0.552205	-0.602345	0.579573
C186	C	0.552265	-0.625117	0.660276
C187	C	0.552179	-0.584728	0.610108
H188	H	0.552234	-0.610884	0.684980
H189	H	0.586395	-0.658517	0.655126
H190	H	0.518192	-0.635841	0.677873
H191	H	0.586229	-0.573962	0.592483
H192	H	0.518027	-0.551354	0.615290
O193	O	0.148217	-0.476683	0.954583
C194	C	0.170616	-0.418479	0.954619
C195	C	0.130394	-0.428538	0.954640
H196	H	0.156217	-0.379558	0.954675
H197	H	0.204047	-0.422822	0.920500
H198	H	0.181351	-0.445629	0.988705
H199	H	0.119617	-0.401397	0.920577
H200	H	0.096989	-0.424212	0.988781
O201	O	-0.043699	-0.535592	0.954489
C202	C	-0.097098	-0.512014	0.912205
C203	C	-0.056871	-0.502034	0.912270
H204	H	-0.107752	-0.484895	0.878069
H205	H	-0.130572	-0.507611	0.946278
H206	H	-0.082723	-0.550953	0.912206
H207	H	-0.071199	-0.463097	0.912252
H208	H	-0.023405	-0.506470	0.878199
O209	O	-0.044061	-0.380925	0.954591
C210	C	-0.067754	-0.293759	0.912382
C211	C	-0.027380	-0.343954	0.912384
H212	H	-0.054286	-0.263856	0.878257
H213	H	-0.076993	-0.286549	0.946466
H214	H	-0.101890	-0.293720	0.912409
H215	H	0.006781	-0.344029	0.912340
H216	H	-0.018184	-0.351144	0.878303
O217	O	0.041856	-0.392582	0.737675
C218	C	-0.043050	-0.352842	0.743161
C219	C	-0.006318	-0.385270	0.771308
H220	H	-0.082007	-0.346911	0.770342
H221	H	-0.037199	-0.371623	0.719163
H222	H	-0.037134	-0.315952	0.719136
H223	H	-0.012212	-0.422165	0.795360
H224	H	-0.012178	-0.366451	0.795276
H225	H	0.168250	-0.504186	0.834549
H226	H	0.199181	-0.473148	0.741498
H227	H	0.047002	-0.397168	0.563734
H228	H	0.198948	-0.473094	0.487648
O229	O	0.173204	-0.508734	0.452020
C230	C	0.258078	-0.548468	0.412259
C231	C	0.221403	-0.516052	0.444727
H232	H	0.297055	-0.554403	0.406361
H233	H	0.252170	-0.529674	0.375357
H234	H	0.252157	-0.585356	0.431053
H235	H	0.227302	-0.479158	0.425976
H236	H	0.227321	-0.534884	0.481626
O237	O	0.335028	-0.515611	0.558048
C238	C	0.340480	-0.599741	0.587655
C239	C	0.368645	-0.563463	0.560840
H240	H	0.367647	-0.638438	0.589930
H241	H	0.316454	-0.589487	0.566707
H242	H	0.316481	-0.598154	0.626214
H243	H	0.392671	-0.565032	0.522279
H244	H	0.392640	-0.573729	0.581825
H245	H	0.338923	-0.359792	0.496821
H246	H	0.169984	-0.533889	0.364272
H247	H	0.431972	-0.390789	0.465748
O248	O	0.165488	-0.223126	0.444394
C249	C	0.205174	-0.217685	0.359501
C250	C	0.172769	-0.189512	0.396208
H251	H	0.211079	-0.190520	0.320534
H252	H	0.186390	-0.241696	0.365391
H253	H	0.242074	-0.241703	0.365409
H254	H	0.135864	-0.165468	0.390322
H255	H	0.191591	-0.165533	0.390308
H256	H	0.432025	-0.541365	0.523165
H257	H	0.129813	-0.126117	0.418717
H258	H	0.085016	-0.219221	0.601683
O259	O	0.049311	-0.122213	0.576006
C260	C	0.009679	-0.127654	0.660899
C261	C	0.042103	-0.155827	0.624193
H262	H	0.003850	-0.154819	0.699866
H263	H	-0.027254	-0.103664	0.655060
H264	H	0.028470	-0.103617	0.654941
H265	H	0.023355	-0.179892	0.630129
H266	H	0.079035	-0.179787	0.630041
H267	H	-0.025639	-0.470264	0.074572
H268	H	0.050281	-0.622271	0.074658
O269	O	-0.061404	-0.495921	0.171571
C270	C	-0.101131	-0.411018	0.166105
C271	C	-0.068675	-0.447737	0.137947
H272	H	-0.107029	-0.372054	0.138932
H273	H	-0.082393	-0.416902	0.190161
H274	H	-0.138031	-0.416918	0.190074
H275	H	-0.031770	-0.441859	0.113951
H276	H	-0.087452	-0.441844	0.113922
H277	H	-0.057039	-0.501216	0.345698
O278	O	0.021107	-0.661174	0.171670
C279	C	0.064444	-0.742472	0.166302
C280	C	0.050868	-0.686994	0.138090
H281	H	0.088516	-0.763364	0.139165
H282	H	0.029633	-0.752553	0.190248
H283	H	0.085260	-0.752570	0.190387
H284	H	0.030064	-0.676857	0.113979
H285	H	0.085697	-0.676944	0.114175
O286	O	-0.028033	-0.462306	0.374800
C287	C	-0.071269	-0.381008	0.331366
C288	C	-0.057692	-0.436486	0.345055
H289	H	-0.095258	-0.360117	0.307324
H290	H	-0.036454	-0.370943	0.310513
H291	H	-0.092173	-0.370895	0.366162
H292	H	-0.036800	-0.446639	0.310284
H293	H	-0.092525	-0.446521	0.365927
H294	H	0.049734	-0.622248	0.452940
H295	H	0.056124	-0.793157	0.355062
O296	O	0.020771	-0.661157	0.423800
C297	C	0.063992	-0.742453	0.467251
C298	C	0.050371	-0.686974	0.453605
H299	H	0.087917	-0.763342	0.491359
H300	H	0.084946	-0.752599	0.432471
H301	H	0.029163	-0.752488	0.488056
H302	H	0.085174	-0.676899	0.432812
H303	H	0.029397	-0.676858	0.488403
H304	H	-0.063498	-0.886058	0.443304
O305	O	0.094948	-0.890224	0.384902
C306	C	0.176554	-0.905976	0.326332
C307	C	0.121516	-0.877718	0.334282
H308	H	0.198050	-0.895868	0.285408
H309	H	0.183117	-0.947041	0.342709
H310	H	0.189242	-0.895912	0.345001
H311	H	0.108791	-0.887740	0.315613
H312	H	0.114984	-0.836660	0.317918
O313	O	-0.102320	-0.789038	0.413388
C314	C	-0.182834	-0.794373	0.446450
C315	C	-0.127800	-0.822605	0.438550
H316	H	-0.203452	-0.821500	0.466804
H317	H	-0.188503	-0.770383	0.409442
H318	H	-0.197293	-0.770330	0.468984
H319	H	-0.113304	-0.846675	0.416034
H320	H	-0.122163	-0.846565	0.475576
H321	H	-0.235077	-0.614964	0.459366
O322	O	-0.332093	-0.585859	0.498172
C323	C	-0.326810	-0.629181	0.579504
C324	C	-0.298551	-0.615552	0.524040
H325	H	-0.299704	-0.653181	0.600435
H326	H	-0.350816	-0.650060	0.589573
H327	H	-0.350838	-0.594356	0.589565
H328	H	-0.274497	-0.650352	0.513939
H329	H	-0.274576	-0.594654	0.514001
H330	H	-0.327887	-0.507903	0.338181
H331	H	-0.234840	-0.539009	0.307312
