data_functionalizedCrystal
_audit_creation_method	'MofGen! by Chris Wilmer'
_symmetry_space_group_name_H-M	'P1'
_symmetry_Int_Tables_number	1
_symmetry_cell_setting	triclinic
loop_
_symmetry_equiv_pos_as_xyz
  x,y,z
_cell_length_a	27.731993
_cell_length_b	27.732046
_cell_length_c	15.021413
_cell_angle_alpha	90.002303
_cell_angle_beta	90.004294
_cell_angle_gamma	97.368814
loop_
_atom_site_label
_atom_site_type_symbol
_atom_site_fract_x
_atom_site_fract_y
_atom_site_fract_z
O1	O	0.640947	-0.057385	-0.073805
O2	O	0.500150	-0.066158	-0.073861
O3	O	0.574922	0.008626	-0.073811
O4	O	0.566175	-0.132169	-0.073854
O5	O	0.574910	0.008615	0.074253
O6	O	0.500138	-0.066169	0.074204
O7	O	0.640935	-0.057396	0.074260
Zn8	Zn	0.570534	-0.061784	0.097740
Zn9	Zn	0.570550	-0.061770	-0.097341
O10	O	0.566163	-0.132180	0.074210
C11	C	0.482136	-0.065983	0.000165
C12	C	0.428480	-0.065441	0.000144
C13	C	0.574732	0.026628	0.000224
C14	C	0.574180	0.080282	0.000234
C15	C	0.045326	-0.061505	-0.080521
C16	C	0.246984	-0.063572	-0.080546
O17	O	0.273062	-0.063815	-0.149188
N18	N	0.272197	-0.063836	0.000162
C19	C	0.246994	-0.063581	0.080882
O20	O	0.273068	-0.063848	0.149528
C21	C	0.045338	-0.061510	0.080906
C22	C	0.020126	-0.061251	0.000192
C23	C	0.020114	-0.061245	-0.161228
C24	C	-0.030297	-0.060731	-0.161221
C25	C	-0.055497	-0.060476	-0.080507
C26	C	-0.030285	-0.060737	0.000199
C27	C	0.020136	-0.061251	0.161624
C28	C	-0.030281	-0.060732	0.161623
C29	C	-0.055492	-0.060473	0.080910
C30	C	-0.105897	-0.059968	0.080920
N31	N	-0.131111	-0.059704	0.000212
C32	C	-0.105911	-0.059958	-0.080501
C33	C	0.352866	-0.064669	0.080864
C34	C	0.403280	-0.065187	0.080858
C35	C	0.403266	-0.065177	-0.080570
C36	C	0.352851	-0.064662	-0.080564
C37	C	0.327653	-0.064404	0.000156
C38	C	-0.211779	-0.058879	-0.080481
C39	C	-0.262195	-0.058367	-0.080466
C40	C	-0.262177	-0.058374	0.080961
C41	C	-0.211765	-0.058889	0.080947
C42	C	-0.186567	-0.059139	0.000219
O43	O	-0.132006	-0.059720	0.149526
O44	O	-0.131992	-0.059680	-0.149138
C45	C	0.095738	-0.062019	-0.080528
C46	C	0.120950	-0.062279	0.000178
C47	C	0.095750	-0.062025	0.080892
C48	C	0.171363	-0.062797	0.000173
C49	C	0.196563	-0.063051	-0.080541
C50	C	0.171350	-0.062787	-0.161249
C51	C	0.120938	-0.062273	-0.161242
C52	C	0.120964	-0.062289	0.161600
C53	C	0.171375	-0.062804	0.161586
C54	C	0.196575	-0.063058	0.080873
C55	C	0.614886	0.419106	0.000219
C56	C	0.612837	0.620765	0.000215
O57	O	0.650059	0.652028	0.000192
N58	N	0.568500	0.639880	0.000199
C59	C	0.524673	0.608577	0.000178
O60	O	0.486916	0.629463	0.000155
C61	C	0.526724	0.406919	0.000176
C62	C	0.571063	0.387807	0.000201
C63	C	0.659222	0.399993	0.000243
C64	C	0.659734	0.349581	0.000249
C65	C	0.615910	0.318282	0.000231
C66	C	0.571575	0.337395	0.000207
C67	C	0.482897	0.375616	0.000149
C68	C	0.483414	0.325199	0.000146
C69	C	0.527753	0.306087	0.000171
C70	C	0.528263	0.255683	0.000195
N71	N	0.572600	0.236568	0.000211
C72	C	0.616423	0.267868	0.000229
C73	C	0.523600	0.714451	0.000181
C74	C	0.523087	0.764865	0.000183
C75	C	0.611251	0.777050	0.000218
C76	C	0.611763	0.726635	0.000222
C77	C	0.567936	0.695336	0.000197
C78	C	0.617495	0.161999	0.000242
C79	C	0.618003	0.111582	0.000252
C80	C	0.529840	0.099401	0.000212
C81	C	0.529332	0.149814	0.000207
C82	C	0.573163	0.181112	0.000219
O83	O	0.491061	0.224392	0.000208
O84	O	0.654175	0.246972	0.000232
C85	C	0.614375	0.469518	0.000213
C86	C	0.570039	0.488630	0.000189
C87	C	0.526215	0.457331	0.000171
C88	C	0.569526	0.539045	0.000191
C89	C	0.613350	0.570344	0.000209
C90	C	0.657686	0.551229	0.000225
C91	C	0.658198	0.500817	0.000231
C92	C	0.481879	0.476446	0.000155
C93	C	0.481371	0.526859	0.000150
C94	C	0.525194	0.558158	0.000168
C95	C	0.658948	-0.057570	0.000232
C96	C	0.712605	-0.058113	0.000247
N97	N	0.570527	-0.061793	0.230878
C98	C	0.566354	0.849819	0.000184
C99	C	0.566911	0.796165	0.000201
N100	N	0.570561	-0.061757	-0.230479
C101	C	0.535948	-0.096357	0.470538
C102	C	0.579558	-0.105405	0.529886
C103	C	0.570540	-0.061781	0.412485
C104	C	0.526941	-0.052744	0.529878
C105	C	0.570548	-0.061770	0.587909
C106	C	0.614172	-0.070850	0.470527
C107	C	0.561527	-0.018171	0.470513
C108	C	0.605169	-0.027199	0.529835
C109	C	0.570534	-0.061788	0.311427
C110	C	0.570558	-0.061763	0.688964
H111	H	-0.191269	-0.059084	-0.146217
N112	N	0.095198	-0.061999	-0.243698
N113	N	0.105548	-0.027966	-0.297727
H114	H	0.087372	-0.027772	-0.355968
N115	N	-0.287917	-0.058118	0.163412
N116	N	-0.287001	-0.092262	0.217453
H117	H	-0.305180	-0.092078	0.275686
N118	N	0.660441	-0.080497	0.437982
N119	N	0.693413	-0.087349	0.491479
H120	H	0.726089	-0.094164	0.468494
N121	N	-0.186015	-0.059151	0.163398
N122	N	-0.153174	-0.025351	0.181429
H123	H	-0.134992	-0.025533	0.239665
N124	N	0.656016	0.809027	0.000212
N125	N	0.685587	0.807480	-0.062199
H126	H	0.717201	0.830067	-0.062211
N127	N	0.499287	-0.133070	0.437884
N128	N	0.500919	-0.176706	0.456936
H129	H	0.475029	-0.202636	0.433875
H130	H	0.653187	0.187476	0.000248
H131	H	0.695840	0.334025	0.000266
N132	N	-0.056028	-0.060476	0.244071
N133	N	-0.101040	-0.060019	0.244073
H134	H	-0.119225	-0.059840	0.302301
N135	N	0.480690	-0.043151	0.562600
N136	N	0.473409	-0.041255	0.644571
H137	H	0.440744	-0.034482	0.667681
H138	H	0.040656	-0.061461	0.227350
H139	H	-0.050820	-0.060517	-0.226946
H140	H	0.647868	0.711078	0.000242
H141	H	0.040627	-0.061450	-0.226958
H142	H	0.445262	0.542414	0.000138
H143	H	0.191876	-0.062996	-0.226969
H144	H	0.694911	0.425473	0.000254
H145	H	0.191898	-0.063019	0.227318
N146	N	0.703494	0.481307	0.000260
N147	N	0.742615	0.509266	0.000277
H148	H	0.774609	0.495490	0.000297
H149	H	0.587189	-0.142280	0.555966
H150	H	0.332327	-0.064451	-0.146287
H151	H	0.487909	0.688971	0.000160
N152	N	0.477792	0.784377	0.000178
N153	N	0.438669	0.756419	0.000163
H154	H	0.406677	0.770197	0.000157
H155	H	0.100451	-0.062080	0.227328
N156	N	0.437601	0.395122	0.000122
N157	N	0.398481	0.367162	0.000096
H158	H	0.366487	0.380936	0.000074
H159	H	0.447724	0.299717	0.000125
N160	N	0.641913	0.009489	0.562284
N161	N	0.685528	0.007852	0.543076
H162	H	0.711481	0.033762	0.565994
H163	H	0.553882	0.018692	0.444412
N164	N	0.429020	-0.065432	-0.163011
N165	N	0.474033	-0.065890	-0.162994
H166	H	0.492225	-0.066065	-0.221213
H167	H	0.654111	0.096024	0.000274
H168	H	0.423802	-0.065406	0.146583
N169	N	0.484037	0.169331	0.000209
N170	N	0.444913	0.141378	0.000207
H171	H	0.412922	0.155158	0.000206
N172	N	0.485082	0.067418	0.000202
N173	N	0.485551	0.022407	0.000204
H174	H	0.453940	-0.000183	0.000192
H175	H	0.332355	-0.064457	0.146599
N176	N	0.437112	0.444479	0.000125
N177	N	0.407543	0.446030	-0.062299
H178	H	0.375923	0.423454	-0.062318
H179	H	0.693369	0.576722	0.000244
H180	H	-0.282721	-0.058157	-0.146196
