data_functionalizedCrystal
_audit_creation_method	'MofGen! by Chris Wilmer'
_symmetry_space_group_name_H-M	'P1'
_symmetry_Int_Tables_number	1
_symmetry_cell_setting	triclinic
loop_
_symmetry_equiv_pos_as_xyz
  x,y,z
_cell_length_a	12.759401
_cell_length_b	15.297327
_cell_length_c	12.759393
_cell_angle_alpha	99.641734
_cell_angle_beta	89.981504
_cell_angle_gamma	99.706546
loop_
_atom_site_label
_atom_site_type_symbol
_atom_site_fract_x
_atom_site_fract_y
_atom_site_fract_z
Zn1	Zn	1.533799	-0.359102	-0.666297
Zn2	Zn	1.503249	-0.509990	-0.521002
Zn3	Zn	1.358091	-0.359150	-0.490645
Zn4	Zn	1.327659	-0.509920	-0.696630
O5	O	1.430699	-0.434541	-0.593643
O6	O	1.676766	-0.379127	-0.647033
O7	O	1.483944	-0.490029	-0.369964
O8	O	1.406921	-0.232898	-0.488547
O9	O	1.654320	-0.489984	-0.540286
O10	O	1.536012	-0.232864	-0.617597
O11	O	1.377297	-0.379208	-0.347661
O12	O	1.207035	-0.379140	-0.517960
O13	O	1.355053	-0.489865	-0.839617
O14	O	1.184677	-0.489911	-0.669295
O15	O	1.506503	-0.379060	-0.817332
O16	O	1.454435	-0.636226	-0.569698
O17	O	1.325430	-0.636175	-0.698731
C18	C	1.157735	-0.434524	-0.593626
C19	C	1.040956	-0.434539	-0.593648
C20	C	0.974461	-0.492309	-0.672355
C21	C	0.864734	-0.492321	-0.672369
C22	C	0.888009	-0.376788	-0.514958
C23	C	0.997734	-0.376773	-0.514949
C24	C	0.961022	-0.559014	-0.763233
C25	C	0.851295	-0.559025	-0.763247
C26	C	1.383343	-0.668934	-0.640823
C27	C	1.363180	-0.769208	-0.661042
C28	C	1.575241	-1.051846	-0.449495
C29	C	1.594185	-0.957633	-0.430493
C30	C	1.536436	-0.910523	-0.488129
C31	C	1.459739	-0.957634	-0.564769
C32	C	1.440787	-1.051856	-0.583767
C33	C	1.401982	-0.910532	-0.622401
C34	C	1.325285	-0.957643	-0.699042
C35	C	1.306338	-1.051856	-0.718037
C36	C	1.364087	-1.098967	-0.660401
C37	C	1.420933	-0.816310	-0.603403
C38	C	1.286480	-0.816320	-0.737676
C39	C	1.267536	-0.910532	-0.756677
C40	C	1.704729	-0.434558	-0.593662
C41	C	1.821504	-0.434565	-0.593670
C42	C	1.430791	-0.434450	-0.867659
C43	C	1.430831	-0.434411	-0.984427
C44	C	1.478269	-0.199232	-0.546302
C45	C	1.498541	-0.098957	-0.526129
C46	C	1.509701	-0.376709	-1.027686
C47	C	1.509733	-0.376676	-1.137404
C48	C	1.352019	-0.492055	-1.160596
C49	C	1.351984	-0.492083	-1.050879
C50	C	1.600759	-0.310099	-1.014298
C51	C	1.600790	-0.310066	-1.124015
C52	C	1.430681	-0.434566	-0.320681
C53	C	1.430897	-0.434351	-0.203862
H54	H	0.807405	-0.628879	-0.755382
H55	H	1.287822	-0.539007	-1.214714
C56	C	1.565635	-0.161623	-1.058381
C57	C	1.579591	-0.220448	-1.151943
H58	H	1.552553	-0.106298	-1.075626
H59	H	1.506847	-0.187736	-1.021734
H60	H	1.628052	-0.150930	-1.014336
H61	H	1.517171	-0.231146	-1.195984
H62	H	1.638385	-0.194330	-1.188606
H63	H	1.239453	-0.777962	-0.784606
H64	H	1.678385	-0.328779	-1.157562
C65	C	0.863076	-0.332661	-0.328261
C66	C	0.840500	-0.313297	-0.428447
H67	H	0.833754	-0.293459	-0.274852
H68	H	0.832845	-0.393254	-0.324973
H69	H	0.937944	-0.324387	-0.317007
H70	H	0.765632	-0.321578	-0.439704
H71	H	0.870727	-0.252690	-0.431737
H72	H	1.483380	-0.777960	-0.541002
H73	H	1.551863	-0.833810	-0.472652
H74	H	1.656629	-0.919279	-0.368092
C75	C	1.123640	-0.364061	-0.371090
C76	C	1.070828	-0.313263	-0.428438
H77	H	1.168769	-0.324848	-0.317685
H78	H	1.072896	-0.403320	-0.338729
H79	H	1.165086	-0.398454	-0.417966
H80	H	1.029376	-0.278875	-0.381564
H81	H	1.121580	-0.273988	-0.460800
C82	C	0.924093	-0.518603	-0.931640
C83	C	1.006349	-0.533853	-0.868056
H84	H	0.952081	-0.503064	-0.996346
H85	H	0.872038	-0.571628	-0.946638
H86	H	0.892389	-0.470760	-0.895060
H87	H	1.038049	-0.581700	-0.904632
H88	H	1.058423	-0.480821	-0.853059
C89	C	0.895266	-0.707390	-0.727636
C90	C	0.988882	-0.648563	-0.741743
H91	H	0.912469	-0.762674	-0.714373
H92	H	0.858634	-0.681230	-0.668928
H93	H	0.851213	-0.718173	-0.790051
H94	H	1.032932	-0.637775	-0.679324
H95	H	1.025530	-0.674729	-0.800456
H96	H	0.822330	-0.534085	-0.835577
H97	H	1.622246	-1.090213	-0.402570
C98	C	1.196078	-0.606106	-1.084825
C99	C	1.265273	-0.555496	-1.003326
H100	H	1.142546	-0.645256	-1.055465
H101	H	1.163870	-0.566779	-1.119714
H102	H	1.234890	-0.640618	-1.134559
H103	H	1.226462	-0.520978	-0.953596
H104	H	1.297483	-0.594828	-0.968420
C105	C	1.664386	-0.420187	-0.928726
C106	C	1.698252	-0.343904	-0.975151
H107	H	1.724575	-0.441061	-0.904566
H108	H	1.620928	-0.405137	-0.870264
H109	H	1.624701	-0.466105	-0.979873
H110	H	1.737930	-0.297985	-0.924001
H111	H	1.741727	-0.358952	-1.033620
H112	H	1.348670	-1.175683	-0.675871
H113	H	1.593087	-0.240232	-0.970472
C114	C	1.175342	-1.042400	-0.848856
C115	C	1.222027	-1.103642	-0.802275
H116	H	1.123298	-1.074372	-0.900865
H117	H	1.142559	-1.005712	-0.795651
H118	H	1.228511	-1.005592	-0.881659
H119	H	1.168860	-1.140446	-0.769465
H120	H	1.254811	-1.140346	-0.855489
H121	H	1.205089	-0.948904	-0.819079
