data_functionalizedCrystal
_audit_creation_method	'MofGen! by Chris Wilmer'
_symmetry_space_group_name_H-M	'P1'
_symmetry_Int_Tables_number	1
_symmetry_cell_setting	triclinic
loop_
_symmetry_equiv_pos_as_xyz
  x,y,z
_cell_length_a	16.959455
_cell_length_b	21.295417
_cell_length_c	16.959447
_cell_angle_alpha	90.034146
_cell_angle_beta	90.014322
_cell_angle_gamma	90.026649
loop_
_atom_site_label
_atom_site_type_symbol
_atom_site_fract_x
_atom_site_fract_y
_atom_site_fract_z
Zn1	Zn	1.208331	-0.250648	0.446888
Zn2	Zn	1.708331	0.249352	0.946888
Zn3	Zn	1.208231	-0.355925	0.314700
Zn4	Zn	1.708231	0.144075	0.814700
Zn5	Zn	1.076159	-0.250668	0.314725
Zn6	Zn	1.576159	0.249332	0.814725
Zn7	Zn	1.076102	-0.355878	0.446839
Zn8	Zn	1.576102	0.144122	0.946839
O9	O	1.142206	-0.303280	0.380788
O10	O	1.642206	0.196720	0.880788
O11	O	1.318929	-0.264625	0.429363
O12	O	1.818929	0.235375	0.929363
O13	O	1.190694	-0.341990	0.204093
O14	O	1.690694	0.158010	0.704093
O15	O	1.093758	-0.162576	0.332288
O16	O	1.593758	0.337424	0.832288
O17	O	1.318855	-0.341971	0.332245
O18	O	1.818855	0.158029	0.832245
O19	O	1.190864	-0.162561	0.429387
O20	O	1.690864	0.337439	0.929387
O21	O	1.093661	-0.264658	0.204111
O22	O	1.593661	0.235342	0.704111
O23	O	0.965541	-0.264613	0.332240
O24	O	1.465541	0.235387	0.832240
O25	O	1.093660	-0.341891	0.557456
O26	O	1.593660	0.158109	1.057456
O27	O	0.965499	-0.341910	0.429304
O28	O	1.465499	0.158090	0.929304
O29	O	1.190808	-0.264579	0.557492
O30	O	1.690808	0.235421	1.057492
O31	O	1.190638	-0.444008	0.332198
O32	O	1.690638	0.055992	0.832198
O33	O	1.093563	-0.443973	0.429280
O34	O	1.593563	0.056027	0.929280
C35	C	0.936840	-0.303259	0.380770
C36	C	1.436840	0.196741	0.880770
C37	C	0.848983	-0.303265	0.380781
C38	C	1.348983	0.196735	0.880781
C39	C	0.477505	-0.262998	0.330353
C40	C	0.977505	0.237002	0.830353
C41	C	0.477510	-0.343613	0.431269
C42	C	0.977510	0.156387	0.931269
C43	C	0.560056	-0.343604	0.431264
C44	C	1.060056	0.156396	0.931264
C45	C	0.601330	-0.303292	0.380802
C46	C	1.101330	0.196708	0.880802
C47	C	0.560058	-0.262989	0.330345
C48	C	1.060058	0.237011	0.830345
C49	C	0.601333	-0.383911	0.481714
C50	C	1.101333	0.116089	0.981714
C51	C	0.683884	-0.383904	0.481711
C52	C	1.183884	0.116096	0.981711
C53	C	0.725160	-0.343588	0.431252
C54	C	1.225160	0.156412	0.931252
C55	C	0.683884	-0.303283	0.380794
C56	C	1.183884	0.196717	0.880794
C57	C	0.725158	-0.262971	0.330332
C58	C	1.225158	0.237029	0.830332
C59	C	0.683883	-0.222662	0.279877
C60	C	1.183883	0.277338	0.779877
C61	C	0.601334	-0.222673	0.279886
C62	C	1.101334	0.277327	0.779886
C63	C	0.807709	-0.343577	0.431243
C64	C	1.307709	0.156423	0.931243
C65	C	0.807711	-0.262962	0.330324
C66	C	1.307711	0.237038	0.830324
C67	C	1.142105	-0.466831	0.380748
C68	C	1.642105	0.033169	0.880748
C69	C	1.142134	-0.536799	0.380757
C70	C	1.642134	-0.036799	0.880757
C71	C	1.192668	-0.569601	0.431353
C72	C	1.692668	-0.069601	0.931353
C73	C	1.192696	-0.635344	0.431372
C74	C	1.692696	-0.135344	0.931372
C75	C	1.142198	-0.668282	0.380782
C76	C	1.642198	-0.168282	0.880782
C77	C	1.091654	-0.635472	0.330183
C78	C	1.591654	-0.135472	0.830183
C79	C	1.091622	-0.569731	0.330170
C80	C	1.591622	-0.069731	0.830170
N81	N	1.136233	-0.771547	0.311606
N82	N	1.636233	-0.271547	0.811606
N83	N	1.136268	-0.833998	0.311620
N84	N	1.636268	-0.333998	0.811620
C85	C	1.142291	-0.866356	0.380818
C86	C	1.642291	-0.366356	0.880818
N87	N	1.148292	-0.833904	0.450002
N88	N	1.648292	-0.333904	0.950002
N89	N	1.148261	-0.771447	0.449987
N90	N	1.648261	-0.271447	0.949987
C91	C	1.142227	-0.739567	0.380790
C92	C	1.642227	-0.239567	0.880790
C93	C	1.192858	-0.970444	0.431439
C94	C	1.692858	-0.470444	0.931439
C95	C	1.192880	-1.036188	0.431460
C96	C	1.692880	-0.536188	0.931460
C97	C	1.091842	-1.036315	0.330263
C98	C	1.591842	-0.536315	0.830263
C99	C	1.091816	-0.970572	0.330249
C100	C	1.591816	-0.470572	0.830249
C101	C	1.142328	-0.937641	0.380836
C102	C	1.642328	-0.437641	0.880836
C103	C	1.348374	-0.303301	0.380807
C104	C	1.848374	0.196699	0.880807
C105	C	1.436231	-0.303310	0.380815
C106	C	1.936231	0.196690	0.880815
C107	C	1.142239	-0.303228	0.586956
C108	C	1.642239	0.196772	1.086956
C109	C	1.142253	-0.303205	0.674813
C110	C	1.642253	0.196795	1.174813
C111	C	1.142328	-0.139089	0.380845
C112	C	1.642328	0.360911	0.880845
C113	C	1.142381	-0.069121	0.380870
C114	C	1.642381	0.430879	0.880870
C115	C	1.142219	-0.303286	0.175422
C116	C	1.642219	0.196714	0.675422
C117	C	1.142358	-0.303131	0.087566
C118	C	1.642358	0.196869	0.587566
C119	C	1.091767	-0.343392	1.046273
C120	C	1.591767	0.156608	1.546273
C121	C	1.192928	-0.262886	1.046305
C122	C	1.692928	0.237114	1.546305
C123	C	1.192907	-0.262900	0.963759
C124	C	1.692907	0.237100	1.463759
C125	C	1.142316	-0.303160	0.922466
C126	C	1.642316	0.196840	1.422466
C127	C	1.091746	-0.343407	0.963719
C128	C	1.591746	0.156593	1.463719
C129	C	1.243482	-0.222658	0.922500
C130	C	1.743482	0.277342	1.422500
C131	C	1.243463	-0.222670	0.839949
C132	C	1.743463	0.277330	1.339949
C133	C	1.192867	-0.262928	0.798654
C134	C	1.692867	0.237072	1.298654
C135	C	1.142295	-0.303176	0.839912
C136	C	1.642295	0.196824	1.339912
C137	C	1.091704	-0.343437	0.798619
C138	C	1.591704	0.156563	1.298619
C139	C	1.041126	-0.383682	0.839876
C140	C	1.541126	0.116318	1.339876
C141	C	1.041150	-0.383665	0.922425
C142	C	1.541150	0.116335	1.422425
C143	C	1.192844	-0.262945	0.716106
C144	C	1.692844	0.237055	1.216106
C145	C	1.091683	-0.343453	0.716066
C146	C	1.591683	0.156547	1.216066
H147	H	0.717483	-0.416725	0.522795
H148	H	1.217483	0.083275	1.022795
H149	H	0.999939	-0.416465	0.806244
H150	H	1.499939	0.083535	1.306244
H151	H	1.284675	-0.189883	0.956127
H152	H	1.784675	0.310117	1.456127
H153	H	1.050721	-1.063132	0.289077
H154	H	1.550721	-0.563132	0.789077
H155	H	1.234031	-1.062894	0.472665
H156	H	1.734031	-0.562894	0.972665
H157	H	0.841311	-0.376398	0.472320
H158	H	1.341311	0.123602	0.972320
H159	H	1.233796	-0.542790	0.472546
H160	H	1.733796	-0.042790	0.972546
C161	C	1.292919	-0.183312	1.038048
C162	C	1.792919	0.316688	1.538048
C163	C	1.248537	-0.218634	1.091691
C164	C	1.748537	0.281366	1.591691
H165	H	1.327254	-0.155994	1.066071
H166	H	1.827254	0.344006	1.566071
H167	H	1.258489	-0.159236	1.005866
H168	H	1.758489	0.340764	1.505866
H169	H	1.323125	-0.210752	1.005834
H170	H	1.823125	0.289248	1.505834
H171	H	1.218328	-0.191194	1.123901
H172	H	1.718328	0.308806	1.623901
H173	H	1.282972	-0.242712	1.123887
H174	H	1.782972	0.257288	1.623887
C175	C	1.292843	-0.183371	0.724434
C176	C	1.792843	0.316629	1.224434
C177	C	1.248431	-0.218710	0.670757
C178	C	1.748431	0.281290	1.170757
H179	H	1.327158	-0.156059	0.696436
H180	H	1.827158	0.343941	1.196436
H181	H	1.323064	-0.210797	0.756614
H182	H	1.823064	0.289203	1.256614
H183	H	1.258425	-0.159284	0.756646
H184	H	1.758425	0.340716	1.256646
H185	H	1.282849	-0.242802	0.638548
H186	H	1.782849	0.257198	1.138548
H187	H	1.218208	-0.191281	0.638563
H188	H	1.718208	0.308719	1.138563
C189	C	1.053183	-0.449976	1.071634
C190	C	1.553183	0.050024	1.571634
C191	C	1.036174	-0.387630	1.091615
C192	C	1.536174	0.112370	1.591615
H193	H	1.018858	-0.477285	1.099624
H194	H	1.518858	0.022715	1.599624
H195	H	1.106280	-0.459187	1.085166
H196	H	1.606280	0.040813	1.585166
H197	H	1.045933	-0.455739	1.016559
H198	H	1.545933	0.044261	1.516559
H199	H	1.043430	-0.381866	1.146689
H200	H	1.543430	0.118134	1.646689
H201	H	0.983064	-0.378416	1.078088
H202	H	1.483064	0.121584	1.578088
C203	C	1.080875	-0.896708	0.223906
C204	C	1.580875	-0.396708	0.723906
C205	C	1.036275	-0.934509	0.274627
C206	C	1.536275	-0.434509	0.774627
H207	H	1.046581	-0.874442	0.189571
H208	H	1.546581	-0.374442	0.689571
H209	H	1.115336	-0.922350	0.193708
H210	H	1.615336	-0.422350	0.693708
H211	H	1.110944	-0.867688	0.254043
H212	H	1.610944	-0.367688	0.754043
H213	H	1.006210	-0.963532	0.244489
H214	H	1.506210	-0.463532	0.744489
H215	H	1.001799	-0.908865	0.304827
H216	H	1.501799	-0.408865	0.804827
H217	H	1.050478	-0.376232	0.682451
H218	H	1.550478	0.123768	1.182451
H219	H	0.841311	-0.230131	0.289236
H220	H	1.341311	0.269869	0.789236
H221	H	0.567722	-0.416735	0.522792
H222	H	1.067722	0.083265	1.022792
H223	H	1.233841	-0.662056	0.472583
H224	H	1.733841	-0.162056	0.972583
H225	H	0.999975	-0.416433	0.956023
H226	H	1.499975	0.083567	1.456023
C227	C	0.957792	-0.549603	0.291541
C228	C	1.457792	-0.049603	0.791541
C229	C	1.036075	-0.533672	0.274547
C230	C	1.536075	-0.033672	0.774547
H231	H	0.923501	-0.527343	0.257196
H232	H	1.423501	-0.027343	0.757196
H233	H	0.946191	-0.538800	0.344630
H234	H	1.446191	-0.038800	0.844630
H235	H	0.950591	-0.593471	0.284308
H236	H	1.450591	-0.093471	0.784308
H237	H	1.043277	-0.489805	0.281786
H238	H	1.543277	0.010195	0.781786
H239	H	1.047679	-0.544471	0.221445
H240	H	1.547679	-0.044471	0.721445
C241	C	1.046850	-0.736306	0.285263
C242	C	1.546850	-0.236306	0.785263
C243	C	1.036148	-0.671675	0.274571
C244	C	1.536148	-0.171675	0.774571
H245	H	1.012582	-0.758654	0.250927
H246	H	1.512582	-0.258654	0.750927
H247	H	1.035252	-0.747054	0.338356
H248	H	1.535252	-0.247054	0.838356
H249	H	1.099974	-0.747043	0.273742
H250	H	1.599974	-0.247043	0.773742
H251	H	0.983025	-0.660938	0.286098
H252	H	1.483025	-0.160938	0.786098
H253	H	1.047740	-0.660923	0.221465
H254	H	1.547740	-0.160923	0.721465
H255	H	1.233985	-0.943630	0.472632
H256	H	1.733985	-0.443630	0.972632
H257	H	1.284646	-0.189899	0.806365
H258	H	1.784646	0.310101	1.306365
C259	C	0.384643	-0.254149	0.224056
C260	C	0.884643	0.245851	0.724056
C261	C	0.432141	-0.218692	0.274892
C262	C	0.932141	0.281308	0.774892
H263	H	0.356641	-0.226796	0.189814
H264	H	0.856641	0.273204	0.689814
H265	H	0.348249	-0.278150	0.254110
H266	H	0.848249	0.221850	0.754110
H267	H	0.416830	-0.281542	0.193756
H268	H	0.916830	0.218458	0.693756
H269	H	0.399953	-0.191303	0.305196
H270	H	0.899953	0.308697	0.805196
H271	H	0.468539	-0.194681	0.244835
H272	H	0.968539	0.305319	0.744835
H273	H	0.567721	-0.189857	0.238807
H274	H	1.067721	0.310143	0.738807
C275	C	0.776689	-0.213812	0.173570
C276	C	1.276689	0.286188	0.673570
C277	C	0.729261	-0.178354	0.224409
C278	C	1.229261	0.321646	0.724409
H279	H	0.804709	-0.186458	0.139332
H280	H	1.304709	0.313542	0.639332
H281	H	0.744458	-0.241200	0.143275
H282	H	1.244458	0.258800	0.643275
H283	H	0.813074	-0.237816	0.203628
H284	H	1.313074	0.262184	0.703628
H285	H	0.692871	-0.154353	0.194352
H286	H	1.192871	0.345647	0.694352
H287	H	0.761494	-0.150955	0.254708
H288	H	1.261494	0.349045	0.754708
C289	C	0.350971	-0.379420	0.476085
C290	C	0.850971	0.120580	0.976085
C291	C	0.432143	-0.387922	0.486734
C292	C	0.932143	0.112078	0.986734
H293	H	0.322963	-0.406773	0.510334
H294	H	0.822963	0.093227	1.010334
H295	H	0.337428	-0.388585	0.422963
H296	H	0.837428	0.111415	0.922963
H297	H	0.337471	-0.337135	0.487750
H298	H	0.837471	0.162865	0.987750
H299	H	0.445644	-0.430206	0.475064
H300	H	0.945644	0.069794	0.975064
H301	H	0.445691	-0.378761	0.539869
H302	H	0.945691	0.121239	1.039869
