data_functionalizedCrystal
_audit_creation_method	'MofGen! by Chris Wilmer'
_symmetry_space_group_name_H-M	'P1'
_symmetry_Int_Tables_number	1
_symmetry_cell_setting	triclinic
loop_
_symmetry_equiv_pos_as_xyz
  x,y,z
_cell_length_a	12.759401
_cell_length_b	18.215405
_cell_length_c	18.215399
_cell_angle_alpha	89.967040
_cell_angle_beta	89.985126
_cell_angle_gamma	90.026410
loop_
_atom_site_label
_atom_site_type_symbol
_atom_site_fract_x
_atom_site_fract_y
_atom_site_fract_z
Zn1	Zn	1.606129	-0.292944	-0.416064
Zn2	Zn	1.939462	0.040389	-0.082731
Zn3	Zn	2.272796	0.373722	0.250602
Zn4	Zn	1.606008	-0.416021	-0.292992
Zn5	Zn	1.939341	-0.082688	0.040341
Zn6	Zn	2.272674	0.250646	0.373674
Zn7	Zn	1.430446	-0.292976	-0.293016
Zn8	Zn	1.763780	0.040357	0.040318
Zn9	Zn	2.097113	0.373691	0.373651
Zn10	Zn	1.430389	-0.415977	-0.416022
Zn11	Zn	1.763722	-0.082644	-0.082688
Zn12	Zn	2.097055	0.250690	0.250645
O13	O	1.518243	-0.354480	-0.354524
O14	O	1.851576	-0.021146	-0.021190
O15	O	2.184910	0.312187	0.312143
O16	O	1.753134	-0.309276	-0.399747
O17	O	2.086467	0.024057	-0.066413
O18	O	2.419801	0.357391	0.266920
O19	O	1.582692	-0.399730	-0.190011
O20	O	1.916026	-0.066397	0.143322
O21	O	2.249359	0.266936	0.476655
O22	O	1.453826	-0.189988	-0.309366
O23	O	1.787160	0.143346	0.023967
O24	O	2.120493	0.476679	0.357300
O25	O	1.753045	-0.399700	-0.309326
O26	O	2.086378	-0.066366	0.024007
O27	O	2.419711	0.266967	0.357340
O28	O	1.582900	-0.189964	-0.399769
O29	O	1.916233	0.143369	-0.066436
O30	O	2.249566	0.476702	0.266897
O31	O	1.453708	-0.309330	-0.190028
O32	O	1.787042	0.024004	0.143305
O33	O	2.120375	0.357337	0.476638
O34	O	1.283418	-0.309287	-0.309325
O35	O	1.616751	0.024046	0.024009
O36	O	1.950084	0.357379	0.357342
O37	O	1.453728	-0.399625	-0.519011
O38	O	1.787061	-0.066292	-0.185678
O39	O	2.120394	0.267042	0.147655
O40	O	1.283375	-0.399656	-0.399696
O41	O	1.616709	-0.066322	-0.066363
O42	O	1.950042	0.267011	0.266970
O43	O	1.582843	-0.309233	-0.519043
O44	O	1.916177	0.024100	-0.185710
O45	O	2.249510	0.357433	0.147624
O46	O	1.582636	-0.518999	-0.309285
O47	O	1.915970	-0.185666	0.024049
O48	O	2.249303	0.147667	0.357382
O49	O	1.453610	-0.518967	-0.399674
O50	O	1.786943	-0.185634	-0.066340
O51	O	2.120276	0.147700	0.266993
C52	C	1.245276	-0.354471	-0.354509
C53	C	1.578609	-0.021137	-0.021176
C54	C	1.911942	0.312196	0.312158
C55	C	1.128499	-0.354484	-0.354520
C56	C	1.461832	-0.021151	-0.021187
C57	C	1.795166	0.312182	0.312147
C58	C	1.073642	-0.401611	-0.401503
C59	C	1.406976	-0.068278	-0.068169
C60	C	1.740309	0.265056	0.265164
C61	C	0.963918	-0.401614	-0.401517
C62	C	1.297252	-0.068280	-0.068184
C63	C	1.630585	0.265053	0.265149
C64	C	0.963917	-0.307362	-0.307560
C65	C	1.297250	0.025972	0.025773
C66	C	1.630584	0.359305	0.359106
C67	C	1.073639	-0.307356	-0.307550
C68	C	1.406972	0.025978	0.025783
C69	C	1.740306	0.359311	0.359117
C70	C	1.518132	-0.545686	-0.354488
C71	C	1.851465	-0.212353	-0.021155
C72	C	2.184799	0.120981	0.312179
C73	C	1.518181	-0.627485	-0.354498
C74	C	1.851514	-0.294151	-0.021164
C75	C	2.184847	0.039182	0.312169
C76	C	1.585522	-0.815671	-0.307519
C77	C	1.918856	-0.482338	0.025815
C78	C	2.252189	-0.149004	0.359148
C79	C	1.585569	-0.892530	-0.307536
C80	C	1.918903	-0.559196	0.025797
C81	C	2.252236	-0.225863	0.359130
C82	C	1.451098	-0.892536	-0.401581
C83	C	1.784431	-0.559203	-0.068248
C84	C	2.117764	-0.225869	0.265085
C85	C	1.451057	-0.815679	-0.401567
C86	C	1.784390	-0.482345	-0.068233
C87	C	2.117724	-0.149012	0.265100
C88	C	1.518268	-0.777248	-0.354531
C89	C	1.851601	-0.443915	-0.021198
C90	C	2.184934	-0.110582	0.312136
C91	C	1.518356	-0.930964	-0.354564
C92	C	1.851689	-0.597631	-0.021230
C93	C	2.185022	-0.264298	0.312103
C94	C	1.518406	-1.014298	-0.354583
C95	C	1.851739	-0.680965	-0.021250
C96	C	2.185073	-0.347631	0.312083
C97	C	1.518219	-0.693909	-0.354512
C98	C	1.851552	-0.360576	-0.021179
C99	C	2.184886	-0.027243	0.312154
C100	C	1.792276	-0.354489	-0.354539
C101	C	2.125609	-0.021156	-0.021205
C102	C	2.458943	0.312178	0.312128
C103	C	1.909053	-0.354493	-0.354545
C104	C	2.242386	-0.021160	-0.021212
C105	C	2.575719	0.312173	0.312122
C106	C	1.518293	-0.354421	-0.546477
C107	C	1.851626	-0.021087	-0.213143
C108	C	2.184959	0.312246	0.120190
C109	C	1.518314	-0.354396	-0.628275
C110	C	1.851647	-0.021062	-0.294942
C111	C	2.184980	0.312271	0.038391
C112	C	1.518383	-0.162527	-0.354575
C113	C	1.851716	0.170807	-0.021242
C114	C	2.185050	0.504140	0.312092
C115	C	1.518443	-0.080728	-0.354597
C116	C	1.851776	0.252606	-0.021264
C117	C	2.185109	0.585939	0.312070
C118	C	1.451209	-0.307292	-0.816479
C119	C	1.784542	0.026041	-0.483146
C120	C	2.117875	0.359374	-0.149813
C121	C	1.451227	-0.307278	-0.893338
C122	C	1.784560	0.026056	-0.560005
C123	C	2.117893	0.359389	-0.226671
C124	C	1.585545	-0.401411	-0.893310
C125	C	1.918878	-0.068078	-0.559976
C126	C	2.252211	0.265255	-0.226643
C127	C	1.585520	-0.401429	-0.816452
C128	C	1.918854	-0.068096	-0.483119
C129	C	2.252187	0.265237	-0.149785
C130	C	1.518354	-0.354366	-0.778039
C131	C	1.851687	-0.021032	-0.444706
C132	C	2.185020	0.312301	-0.111372
C133	C	1.518396	-0.354333	-0.931755
C134	C	1.851730	-0.021000	-0.598422
C135	C	2.185063	0.312334	-0.265089
C136	C	1.518417	-0.354317	-1.015089
C137	C	1.851750	-0.020984	-0.681756
C138	C	2.185083	0.312350	-0.348422
C139	C	1.518332	-0.354382	-0.694700
C140	C	1.851665	-0.021049	-0.361367
C141	C	2.184998	0.312284	-0.028033
C142	C	1.518254	-0.354485	-0.163317
C143	C	1.851587	-0.021152	0.170016
C144	C	2.184921	0.312182	0.503349
C145	C	1.518436	-0.354303	-0.081519
C146	C	1.851770	-0.020969	0.251815
C147	C	2.185103	0.312364	0.585148
H148	H	1.118306	-0.439984	-0.439750
H149	H	1.451639	-0.106651	-0.106417
H150	H	1.784973	0.226682	0.226916
C151	C	0.903581	-0.453463	-0.453195
C152	C	1.236914	-0.120130	-0.119862
C153	C	1.570248	0.213203	0.213472
N154	N	0.858136	-0.492521	-0.492119
N155	N	1.191469	-0.159187	-0.158786
N156	N	1.524802	0.174146	0.174548
C157	C	1.377158	-0.934817	-0.453309
C158	C	1.710491	-0.601484	-0.119976
C159	C	2.043825	-0.268150	0.213357
N160	N	1.321461	-0.966662	-0.492269
N161	N	1.654794	-0.633329	-0.158935
N162	N	1.988127	-0.299995	0.174398
C163	C	1.659551	-0.934791	-0.255816
C164	C	1.992884	-0.601458	0.077517
C165	C	2.326218	-0.268125	0.410851
N166	N	1.715276	-0.966622	-0.216857
N167	N	2.048610	-0.633289	0.116476
N168	N	2.381943	-0.299955	0.449810
C169	C	0.903561	-0.255527	-0.255892
C170	C	1.236894	0.077807	0.077441
C171	C	1.570228	0.411140	0.410774
N172	N	0.858102	-0.216485	-0.216973
N173	N	1.191435	0.116848	0.116360
N174	N	1.524769	0.450181	0.449694
C175	C	1.133985	-0.255510	-0.255863
C176	C	1.467318	0.077823	0.077471
C177	C	1.800652	0.411156	0.410804
N178	N	1.179437	-0.216461	-0.216935
N179	N	1.512771	0.116872	0.116399
N180	N	1.846104	0.450205	0.449732
H181	H	1.396549	-0.268946	-0.924633
H182	H	1.729883	0.064387	-0.591300
H183	H	2.063216	0.397720	-0.257966
C184	C	1.659462	-0.773400	-0.255782
C185	C	1.992795	-0.440067	0.077551
C186	C	2.326129	-0.106733	0.410884
N187	N	1.715158	-0.741564	-0.216815
N188	N	2.048491	-0.408230	0.116519
N189	N	2.381825	-0.074897	0.449852
C190	C	1.659193	-0.453339	-0.935571
C191	C	1.992526	-0.120006	-0.602237
C192	C	2.325860	0.213327	-0.268904
N193	N	1.714583	-0.492511	-0.967401
N194	N	2.047917	-0.159177	-0.634068
N195	N	2.381250	0.174156	-0.300734
C196	C	1.659408	-0.453203	-0.774165
C197	C	1.992742	-0.119869	-0.440832
C198	C	2.326075	0.213464	-0.107499
N199	N	1.715064	-0.492193	-0.742315
N200	N	2.048397	-0.158860	-0.408981
N201	N	2.381731	0.174474	-0.075648
H202	H	1.396290	-0.784393	-0.439853
H203	H	1.729623	-0.451060	-0.106520
H204	H	2.062956	-0.117726	0.226813
C205	C	1.377315	-0.255527	-0.774228
C206	C	1.710648	0.077806	-0.440894
C207	C	2.043982	0.411140	-0.107561
N208	N	1.321653	-0.216538	-0.742406
N209	N	1.654986	0.116795	-0.409072
N210	N	1.988319	0.450128	-0.075739
