data_functionalizedCrystal
_audit_creation_method	'MofGen! by Chris Wilmer'
_symmetry_space_group_name_H-M	'P1'
_symmetry_Int_Tables_number	1
_symmetry_cell_setting	triclinic
loop_
_symmetry_equiv_pos_as_xyz
  x,y,z
_cell_length_a	10.654550
_cell_length_b	10.489741
_cell_length_c	9.130313
_cell_angle_alpha	89.999004
_cell_angle_beta	89.996220
_cell_angle_gamma	84.512038
loop_
_atom_site_label
_atom_site_type_symbol
_atom_site_fract_x
_atom_site_fract_y
_atom_site_fract_z
O1	O	1.667918	0.179156	-0.121919
O2	O	1.302447	0.196226	-0.121895
O3	O	1.493499	0.002089	-0.121899
O4	O	1.476867	0.373293	-0.121915
O5	O	1.493497	0.002094	0.121700
O6	O	1.302445	0.196231	0.121703
O7	O	1.667916	0.179161	0.121680
Cu8	Cu	1.485180	0.187697	0.143934
Cu9	Cu	1.485183	0.187690	-0.144150
O10	O	1.476864	0.373298	0.121683
C11	C	1.255648	0.194975	-0.000093
C12	C	1.116203	0.191225	-0.000084
C13	C	1.036771	0.305530	-0.000110
C14	C	0.905748	0.301999	-0.000135
C15	C	0.933603	0.069849	-0.000114
C16	C	1.064623	0.073381	-0.000078
C17	C	1.020688	0.439560	-0.000129
C18	C	0.889665	0.436029	-0.000154
C19	C	1.492241	-0.045439	-0.000100
C20	C	1.488483	-0.187067	-0.000103
C21	C	1.366923	-0.255148	-0.000106
C22	C	1.424346	-0.347296	0.119997
C23	C	1.424377	-0.347276	-0.120172
C24	C	1.545956	-0.277349	0.120099
C25	C	1.545970	-0.277320	-0.120178
C26	C	1.603481	-0.369440	-0.000045
C27	C	1.714715	0.180412	-0.000126
C28	C	1.854160	0.184162	-0.000145
C29	C	1.478122	0.420826	-0.000118
C30	C	1.481880	0.562454	-0.000126
N31	N	1.485187	0.187700	0.346557
N32	N	1.485186	0.187677	-0.346772
C33	C	1.569807	0.101766	0.423207
C34	C	1.569803	0.101751	0.576544
C35	C	1.400557	0.273615	0.576567
C36	C	1.400555	0.273623	0.423232
C37	C	1.667524	0.002545	0.423195
C38	C	1.667520	0.002530	0.576532
H39	H	0.847957	0.486527	-0.102110
C40	C	1.615399	-0.235401	-0.257360
C41	C	1.564384	-0.262542	-0.410899
C42	C	1.633801	-0.220619	-0.548095
C43	C	1.754232	-0.151555	-0.531754
C44	C	1.805253	-0.124411	-0.378209
C45	C	1.735836	-0.166334	-0.241013
H46	H	1.475228	-0.313671	-0.423001
H47	H	1.596031	-0.240714	-0.661759
H48	H	1.805618	-0.120521	-0.633315
H49	H	1.894409	-0.073282	-0.366106
H50	H	1.773606	-0.146239	-0.127349
C51	C	1.790723	0.044516	0.358927
C52	C	1.917577	-0.032250	0.394302
C53	C	2.040774	0.009729	0.330035
C54	C	2.037117	0.128474	0.230393
C55	C	1.910257	0.205247	0.195013
C56	C	1.787060	0.163268	0.259280
H57	H	1.920290	-0.120158	0.468067
H58	H	2.134684	-0.047104	0.356226
H59	H	2.128314	0.159549	0.182818
H60	H	1.907545	0.293156	0.121247
H61	H	1.693150	0.220101	0.233089
C62	C	1.354874	-0.389099	-0.257345
C63	C	1.216277	-0.338367	-0.283685
C64	C	1.146765	-0.380184	-0.420849
C65	C	1.215850	-0.472733	-0.531673
C66	C	1.354455	-0.523470	-0.505336
C67	C	1.423967	-0.481653	-0.368172
H68	H	1.165129	-0.269852	-0.201644
H69	H	1.044160	-0.342624	-0.440345
H70	H	1.164392	-0.503689	-0.633210
H71	H	1.405602	-0.591986	-0.587377
H72	H	1.526572	-0.519213	-0.348676
H73	H	1.703518	-0.418912	0.000015
C74	C	1.638486	-0.129898	0.366962
C75	C	1.734834	-0.209531	0.269988
C76	C	1.705795	-0.341969	0.213754
C77	C	1.580409	-0.394776	0.254495
C78	C	1.484053	-0.315142	0.351475
C79	C	1.513092	-0.182703	0.407708
H80	H	1.827660	-0.170441	0.239824
H81	H	1.777125	-0.400919	0.141963
H82	H	1.558913	-0.492815	0.212868
H83	H	1.391227	-0.354232	0.381639
H84	H	1.441762	-0.123754	0.479499
H85	H	1.266977	-0.205449	0.000022
H86	H	1.372910	-0.378281	0.221542
H87	H	1.331641	0.343586	0.360825
H88	H	1.764042	0.024385	0.618141
C89	C	1.060358	0.510373	0.137592
C90	C	1.031556	0.459082	0.290780
C91	C	1.071226	0.529892	0.428498
C92	C	1.139699	0.651993	0.413028
C93	C	1.168505	0.703291	0.259834
C94	C	1.128834	0.632481	0.122116
H95	H	0.980865	0.368689	0.302238
H96	H	1.049902	0.491917	0.541903
H97	H	1.169066	0.704411	0.514975
H98	H	1.219196	0.793684	0.248376
H99	H	1.150159	0.670456	0.008711
C100	C	1.626254	-0.122642	0.640771
C101	C	1.701886	-0.251452	0.605349
C102	C	1.660620	-0.376623	0.669582
C103	C	1.543720	-0.372982	0.769237
C104	C	1.468081	-0.244167	0.804664
C105	C	1.509347	-0.118997	0.740431
H106	H	1.788428	-0.254151	0.531574
H107	H	1.716614	-0.471980	0.643355
H108	H	1.513172	-0.465641	0.816786
H109	H	1.381538	-0.241468	0.878439
H110	H	1.453353	-0.023639	0.766658
H111	H	1.129293	-0.019697	-0.000036
H112	H	1.331651	0.343570	0.639012
H113	H	0.891590	-0.026096	-0.000132
H114	H	0.844012	0.476537	0.105012
H115	H	1.597345	-0.246540	0.221751
H116	H	1.056364	0.482235	-0.105303
