data_functionalizedCrystal
_audit_creation_method	'MofGen! by Chris Wilmer'
_symmetry_space_group_name_H-M	'P1'
_symmetry_Int_Tables_number	1
_symmetry_cell_setting	triclinic
loop_
_symmetry_equiv_pos_as_xyz
  x,y,z
_cell_length_a	16.959455
_cell_length_b	12.645330
_cell_length_c	16.959447
_cell_angle_alpha	89.973930
_cell_angle_beta	89.985678
_cell_angle_gamma	90.014639
loop_
_atom_site_label
_atom_site_type_symbol
_atom_site_fract_x
_atom_site_fract_y
_atom_site_fract_z
Zn1	Zn	1.208397	-0.422105	-0.446932
Zn2	Zn	1.208325	-0.599396	-0.314763
Zn3	Zn	1.076225	-0.422138	-0.314770
Zn4	Zn	1.076195	-0.599317	-0.446902
O5	O	1.142286	-0.510739	-0.380842
O6	O	1.318998	-0.445642	-0.429410
O7	O	1.190784	-0.575930	-0.204153
O8	O	1.093801	-0.273786	-0.332316
O9	O	1.318945	-0.575898	-0.332306
O10	O	1.190907	-0.273762	-0.429416
O11	O	1.093731	-0.445699	-0.204158
O12	O	0.965610	-0.445622	-0.332287
O13	O	1.093750	-0.575763	-0.557517
O14	O	0.965589	-0.575795	-0.429364
O15	O	1.190878	-0.445565	-0.557539
O16	O	1.190755	-0.747733	-0.332277
O17	O	1.093680	-0.747675	-0.429358
C18	C	0.936919	-0.510704	-0.380824
C19	C	0.849063	-0.510715	-0.380835
C20	C	0.477574	-0.442903	-0.330399
C21	C	0.477600	-0.578663	-0.431329
C22	C	0.560146	-0.578648	-0.431325
C23	C	0.601410	-0.510760	-0.380855
C24	C	0.560128	-0.442888	-0.330391
C25	C	0.601434	-0.646526	-0.481782
C26	C	0.683985	-0.646515	-0.481779
C27	C	0.725251	-0.578621	-0.431313
C28	C	0.683963	-0.510745	-0.380847
C29	C	0.725227	-0.442857	-0.330378
C30	C	0.683941	-0.374975	-0.279916
C31	C	0.601393	-0.374994	-0.279925
C32	C	0.807799	-0.578602	-0.431304
C33	C	0.807781	-0.442842	-0.330370
C34	C	1.142228	-0.786169	-0.380831
C35	C	1.142276	-0.903999	-0.380852
C36	C	1.081458	-1.071570	-0.442115
C37	C	1.081147	-0.949011	-0.441918
C38	C	1.119734	-0.948594	-0.297551
C39	C	1.119363	-1.071192	-0.297922
C40	C	1.226007	-1.071094	-0.402216
C41	C	1.225494	-0.948487	-0.404038
C42	C	1.348454	-0.510775	-0.380860
C43	C	1.436310	-0.510790	-0.380868
C44	C	1.142319	-0.510651	-0.587010
C45	C	1.142333	-0.510614	-0.674867
C46	C	1.142365	-0.234234	-0.380870
C47	C	1.142399	-0.116404	-0.380882
C48	C	1.091857	-0.578290	-1.046333
C49	C	1.192997	-0.442715	-1.046352
C50	C	1.192976	-0.442737	-0.963806
C51	C	1.142395	-0.510538	-0.922520
C52	C	1.091836	-0.578317	-0.963780
C53	C	1.243540	-0.374967	-0.922539
C54	C	1.243522	-0.374988	-0.839988
C55	C	1.192937	-0.442784	-0.798701
C56	C	1.142375	-0.510565	-0.839966
C57	C	1.091794	-0.578366	-0.798680
C58	C	1.041227	-0.646142	-0.839944
C59	C	1.041251	-0.646113	-0.922492
C60	C	1.192913	-0.442813	-0.716153
C61	C	1.091773	-0.578393	-0.716127
C62	C	1.142298	-0.510750	-0.175475
C63	C	1.142437	-0.510489	-0.087619
H64	H	0.443998	-0.633940	-0.472414
C65	C	1.318335	-0.850519	-0.482151
C66	C	1.248459	-0.909188	-0.486808
H67	H	1.332513	-0.826278	-0.533256
H68	H	1.310622	-0.791607	-0.448295
H69	H	1.359262	-0.893893	-0.461755
H70	H	1.207530	-0.865812	-0.507199
H71	H	1.256167	-0.968109	-0.520677
H72	H	1.000085	-0.701296	-0.956097
H73	H	0.841372	-0.387553	-0.289276
C74	C	0.934351	-0.638865	-0.476100
C75	C	0.853181	-0.653213	-0.486763
H76	H	0.962366	-0.684934	-0.510338
H77	H	0.947884	-0.567664	-0.487764
H78	H	0.947852	-0.654283	-0.422967
H79	H	0.839679	-0.637787	-0.539895
H80	H	0.839643	-0.724430	-0.475104
C81	C	0.998223	-1.223881	-0.427121
C82	C	0.998303	-1.113272	-0.423276
H83	H	0.946888	-1.249625	-0.415483
H84	H	1.013031	-1.245703	-0.478619
H85	H	1.034686	-1.251328	-0.389856
H86	H	0.961844	-1.085825	-0.460546
H87	H	0.983485	-1.091440	-0.371771
H88	H	1.273288	-0.917841	-0.362687
H89	H	1.284696	-0.319800	-0.806398
H90	H	1.019163	-0.919772	-0.427784
H91	H	1.000048	-0.701350	-0.806318
C92	C	1.231467	-0.263327	-0.690761
C93	C	1.248489	-0.368323	-0.670793
H94	H	1.265777	-0.217339	-0.662754
H95	H	1.238725	-0.253616	-0.745826
H96	H	1.178358	-0.247816	-0.677234
H97	H	1.301596	-0.383837	-0.684326
H98	H	1.241237	-0.378038	-0.615716
H99	H	1.050577	-0.633596	-0.682518
C100	C	1.046972	-0.638453	-1.172861
C101	C	1.036278	-0.652790	-1.091686
H102	H	1.012662	-0.684453	-1.200858
H103	H	1.035425	-0.567228	-1.186395
H104	H	1.100081	-0.653975	-1.186382
H105	H	0.983170	-0.637261	-1.078163
H106	H	1.047819	-0.724031	-1.078146
H107	H	0.717549	-0.319706	-0.238821
C108	C	1.237939	-0.382487	-1.172901
C109	C	1.248596	-0.368194	-1.091731
H110	H	1.272262	-0.336473	-1.200916
H111	H	1.249491	-0.453705	-1.186408
H112	H	1.184836	-0.366957	-1.186426
H113	H	1.301697	-0.383732	-1.078205
H114	H	1.237049	-0.296960	-1.078218
C115	C	0.575981	-0.195423	-0.241653
C116	C	0.556016	-0.300383	-0.224457
H117	H	0.547962	-0.149364	-0.207410
H118	H	0.631043	-0.185706	-0.234425
H119	H	0.562465	-0.180013	-0.294783
H120	H	0.569538	-0.315795	-0.171328
H121	H	0.500941	-0.310105	-0.231678
H122	H	1.058245	-1.099880	-0.279850
H123	H	1.271410	-1.100086	-0.357618
C124	C	1.211185	-1.024796	-0.195896
C125	C	1.176671	-1.111243	-0.234225
H126	H	1.246556	-1.049521	-0.156567
H127	H	1.239205	-0.983118	-0.233149
H128	H	1.171199	-0.983132	-0.171966
H129	H	1.216656	-1.152903	-0.258160
H130	H	1.148650	-1.152938	-0.196966
C131	C	0.452123	-0.391036	-0.196622
C132	C	0.432199	-0.368288	-0.274931
H133	H	0.424113	-0.344966	-0.162380
H134	H	0.438575	-0.462235	-0.184970
H135	H	0.507194	-0.381314	-0.189404
H136	H	0.377129	-0.378017	-0.282150
H137	H	0.445741	-0.297072	-0.286587
H138	H	1.284725	-0.319774	-0.956160
C139	C	0.987014	-0.992859	-0.260880
C140	C	1.038084	-0.907283	-0.272708
H141	H	0.936607	-0.967356	-0.245542
H142	H	0.982287	-1.031971	-0.308446
H143	H	1.007508	-1.037279	-0.220619
H144	H	1.017592	-0.862867	-0.312972
H145	H	1.042808	-0.868154	-0.225136
C146	C	1.328288	-1.071023	-0.500138
C147	C	1.253773	-1.112726	-0.482824
H148	H	1.345424	-1.096733	-0.549901
H149	H	1.325295	-0.996048	-0.501709
H150	H	1.364683	-1.092022	-0.460550
H151	H	1.217376	-1.091720	-0.522408
H152	H	1.256762	-1.187718	-0.481258
C153	C	0.474904	-0.706814	-0.526609
C154	C	0.556077	-0.721145	-0.537255
H155	H	0.446901	-0.752878	-0.560862
H156	H	0.461359	-0.722242	-0.473488
H157	H	0.461399	-0.635604	-0.538271
H158	H	0.569583	-0.792354	-0.525587
H159	H	0.569627	-0.705725	-0.590388
H160	H	0.717593	-0.701788	-0.522869
C161	C	1.099933	-0.797562	-0.525282
C162	C	1.100181	-0.908293	-0.525301
H163	H	1.111687	-0.772431	-0.576762
H164	H	1.049403	-0.772766	-0.509754
H165	H	1.138553	-0.772394	-0.489326
H166	H	1.061556	-0.933461	-0.561253
H167	H	1.150718	-0.933100	-0.540838
H168	H	1.095430	-1.100982	-0.504085
H169	H	1.162714	-0.919440	-0.250681
