data_functionalizedCrystal
_audit_creation_method	'MofGen! by Chris Wilmer'
_symmetry_space_group_name_H-M	'P1'
_symmetry_Int_Tables_number	1
_symmetry_cell_setting	triclinic
loop_
_symmetry_equiv_pos_as_xyz
  x,y,z
_cell_length_a	16.959454
_cell_length_b	12.759401
_cell_length_c	12.759393
_cell_angle_alpha	90.020086
_cell_angle_beta	89.970996
_cell_angle_gamma	89.981716
loop_
_atom_site_label
_atom_site_type_symbol
_atom_site_fract_x
_atom_site_fract_y
_atom_site_fract_z
Zn1	Zn	-0.314686	-1.606222	-0.594016
Zn2	Zn	-0.446884	-1.606098	-0.418339
Zn3	Zn	-0.314719	-1.430522	-0.418352
Zn4	Zn	-0.446822	-1.430496	-0.593977
O5	O	-0.380778	-1.518335	-0.506171
O6	O	-0.332234	-1.753227	-0.570723
O7	O	-0.429391	-1.582767	-0.271319
O8	O	-0.204104	-1.453892	-0.441676
O9	O	-0.429359	-1.753136	-0.441653
O10	O	-0.204080	-1.582978	-0.570736
O11	O	-0.332290	-1.453772	-0.271329
O12	O	-0.332231	-1.283498	-0.441639
O13	O	-0.429255	-1.453848	-0.741003
O14	O	-0.429287	-1.283479	-0.570669
O15	O	-0.332175	-1.582953	-0.741032
O16	O	-0.557486	-1.582741	-0.441615
O17	O	-0.557441	-1.453727	-0.570656
C18	C	-0.380756	-1.245367	-0.506152
C19	C	-0.380766	-1.128591	-0.506169
C20	C	-0.330283	-1.073777	-0.573478
C21	C	-0.330288	-0.964053	-0.573483
C22	C	-0.431266	-0.963966	-0.438867
C23	C	-0.431256	-1.073688	-0.438857
C24	C	-0.586144	-1.518247	-0.506153
C25	C	-0.674001	-1.518305	-0.506181
C26	C	-1.045483	-1.451255	-0.573355
C27	C	-1.045470	-1.585707	-0.439094
C28	C	-0.962924	-1.585671	-0.439084
C29	C	-0.921654	-1.518424	-0.506210
C30	C	-0.962929	-1.451214	-0.573345
C31	C	-0.921642	-1.652872	-0.371942
C32	C	-0.839091	-1.652837	-0.371929
C33	C	-0.797819	-1.585595	-0.439061
C34	C	-0.839100	-1.518383	-0.506200
C35	C	-0.797830	-1.451136	-0.573326
C36	C	-0.839109	-1.383928	-0.640471
C37	C	-0.921657	-1.383971	-0.640477
C38	C	-0.715271	-1.585552	-0.439055
C39	C	-0.715276	-1.451095	-0.573316
C40	C	-0.174610	-1.518452	-0.506212
C41	C	-0.086753	-1.518502	-0.506229
C42	C	-0.380704	-1.518411	-0.780204
C43	C	-0.380673	-1.518444	-0.896981
C44	C	-0.380793	-0.792368	-0.506187
C45	C	-0.380780	-0.909145	-0.506184
C46	C	-0.431175	-1.585639	-1.061573
C47	C	-0.431212	-1.585613	-0.951849
C48	C	-0.330099	-1.451287	-0.951843
C49	C	-0.330066	-1.451309	-1.061565
C50	C	-0.380794	-1.518319	-0.233204
C51	C	-0.380603	-1.518490	-0.116427
H52	H	-0.289168	-1.118475	-0.628284
Br53	Br	-1.101479	-1.676965	-0.347997
Br54	Br	-0.499760	-1.676812	-1.136027
Br55	Br	-0.261769	-0.889666	-0.664831
H56	H	-0.288953	-1.396592	-0.907160
H57	H	-0.288883	-1.396623	-1.106228
Br58	Br	-0.499786	-0.889449	-0.347522
Br59	Br	-0.499763	-1.148086	-0.347487
Br60	Br	-0.659273	-1.359835	-0.664430
Br61	Br	-0.783090	-1.292660	-0.731559
H62	H	-0.681665	-1.640267	-0.384381
H63	H	-0.955274	-1.329253	-0.695142
Br64	Br	-0.499851	-1.676744	-0.877408
H65	H	-1.079096	-1.396539	-0.628026
H66	H	-0.805487	-1.707562	-0.317257
Br67	Br	-0.977654	-1.744135	-0.280853
