data_functionalizedCrystal
_audit_creation_method	'MofGen! by Chris Wilmer'
_symmetry_space_group_name_H-M	'P1'
_symmetry_Int_Tables_number	1
_symmetry_cell_setting	triclinic
loop_
_symmetry_equiv_pos_as_xyz
  x,y,z
_cell_length_a	20.919309
_cell_length_b	20.919320
_cell_length_c	20.919309
_cell_angle_alpha	89.828473
_cell_angle_beta	60.101124
_cell_angle_gamma	65.116602
loop_
_atom_site_label
_atom_site_type_symbol
_atom_site_fract_x
_atom_site_fract_y
_atom_site_fract_z
Zr1	Zr	0.739281	0.626308	-0.132075
O2	O	0.858060	0.536101	-0.231538
O3	O	0.610250	0.650351	-0.097975
O4	O	0.734154	0.660006	-0.231537
O5	O	0.741774	0.522936	0.003275
O6	O	0.741772	0.761851	-0.235642
O7	O	0.734156	0.526446	-0.097976
O8	O	0.520129	0.744580	0.003277
O9	O	0.963417	0.540208	-0.235643
O10	O	0.672803	0.740972	-0.090855
O11	O	0.672804	0.662347	-0.012229
O12	O	0.818686	0.673715	-0.169482
O13	O	0.818687	0.595090	-0.090856
Zr14	Zr	0.763580	0.783141	0.022863
Zr15	Zr	0.751429	0.788739	-0.138621
Zr16	Zr	0.751431	0.620710	0.029409
Zr17	Zr	0.907312	0.632857	-0.138622
Zr18	Zr	0.595548	0.776592	0.029410
O19	O	0.892611	0.759098	-0.011237
O20	O	0.875334	0.767058	-0.240846
O21	O	0.875337	0.528142	-0.001929
O22	O	0.644800	0.873348	0.122326
O23	O	0.627524	0.881307	-0.107283
O24	O	0.627526	0.642392	0.131634
O25	O	0.761086	0.886513	-0.112487
O26	O	0.768706	0.749443	0.122325
O27	O	0.761089	0.647598	0.126430
O28	O	0.768705	0.883003	-0.011236
O29	O	0.973073	0.669319	-0.240847
O30	O	0.529787	0.740130	0.131635
O31	O	0.539444	0.869241	0.126431
O32	O	0.529786	0.873691	-0.001926
O33	O	0.973075	0.535758	-0.107286
O34	O	0.982731	0.664870	-0.112489
O35	O	0.684175	0.735734	0.060270
O36	O	0.684174	0.814359	-0.018356
O37	O	0.830056	0.747102	-0.096982
O38	O	0.830057	0.668477	-0.018357
C39	C	0.541249	0.696532	-0.046416
C40	C	0.469915	0.693752	-0.043637
C41	C	0.436402	0.733485	-0.083372
C42	C	0.369372	0.730874	-0.080753
C43	C	0.335861	0.688525	-0.038403
C44	C	0.369377	0.648791	0.001338
C45	C	0.436402	0.651406	-0.001277
C46	C	0.133486	0.678579	-0.028450
C47	C	0.066459	0.675964	-0.025840
C48	C	0.066457	0.758049	-0.107930
C49	C	0.133486	0.760657	-0.110545
C50	C	0.166994	0.720926	-0.070801
C51	C	0.267347	0.685853	-0.035727
C52	C	0.235502	0.723602	-0.073473
C53	C	0.736234	0.501548	-0.046418
C54	C	0.731077	0.432591	-0.043639
C55	C	0.736232	0.711726	-0.256597
C56	C	0.731074	0.714103	-0.325151
C57	C	0.961612	0.712917	-0.062796
C58	C	1.032945	0.715698	-0.065575
C59	C	0.698060	0.044362	-0.025840
C60	C	0.702912	0.109151	-0.028460
C61	C	0.781489	0.106434	-0.070808
C62	C	0.855218	0.038922	-0.110545
C63	C	0.850365	-0.025865	-0.107930
C64	C	0.799952	0.300293	-0.080761
C65	C	0.804800	0.365087	-0.083372
C66	C	0.652494	0.435311	-0.001287
C67	C	0.647648	0.370519	0.001328
C68	C	0.721376	0.303014	-0.038412
C69	C	0.786451	0.172658	-0.073484
C70	C	0.716413	0.236792	-0.035740
C71	C	0.766626	0.907901	-0.062794
C72	C	0.771784	0.976858	-0.065573
C73	C	0.804797	0.680113	-0.398401
C74	C	0.799946	0.682355	-0.462812
C75	C	0.721370	0.718584	-0.453972
C76	C	0.647641	0.752578	-0.380716
C77	C	0.652493	0.750340	-0.316306
C78	C	0.702910	0.727102	-0.646394
C79	C	0.698063	0.729336	-0.710811
C80	C	0.850369	0.659114	-0.792904
C81	C	0.855214	0.656876	-0.728489
C82	C	0.781485	0.690873	-0.655238
C83	C	0.716409	0.720875	-0.519810
C84	C	0.786447	0.688586	-0.589402
C85	C	0.766629	0.697723	0.147385
C86	C	0.771787	0.695346	0.215939
C87	C	0.556445	0.899709	-0.054604
C88	C	0.490268	0.965885	-0.054604
C89	C	0.556447	0.689530	0.155575
C90	C	0.490272	0.684373	0.226909
C91	C	0.571643	0.892707	0.147387
C92	C	0.510625	0.956506	0.215942
C93	C	0.931217	0.516742	-0.256599
C94	C	0.992235	0.452943	-0.325154
C95	C	0.946416	0.509740	-0.054608
C96	C	1.012592	0.443564	-0.054608
C97	C	0.946413	0.719919	-0.264787
C98	C	1.012589	0.725076	-0.336121
C99	C	0.453256	0.958655	-0.092454
C100	C	0.391084	1.020829	-0.092469
C101	C	0.365922	1.090231	-0.054628
C102	C	0.402941	1.097460	-0.016777
C103	C	0.465116	1.035287	-0.016767
C104	C	0.465131	0.720258	0.298258
C105	C	0.402961	0.715410	0.365290
C106	C	0.365930	0.674681	0.360970
C107	C	0.391077	0.638792	0.289613
C108	C	0.453249	0.643636	0.222583
C109	C	0.481971	1.027516	0.207093
C110	C	0.424647	1.087469	0.271501
C111	C	0.395974	1.076411	0.344756
C112	C	0.424635	1.005394	0.353603
C113	C	0.481962	0.945443	0.289196
C114	C	1.020898	0.381934	-0.316306
C115	C	1.078242	0.321981	-0.380714
C116	C	1.106918	0.333039	-0.453969
C117	C	1.078254	0.404056	-0.462816
C118	C	1.020915	0.464007	-0.398408
C119	C	1.049611	0.450795	-0.016765
C120	C	1.111800	0.388622	-0.016769
C121	C	1.136965	0.319220	-0.054612
C122	C	1.099942	0.311991	-0.092460
C123	C	1.037759	0.374163	-0.092460
C124	C	1.049601	0.765811	-0.331776
C125	C	1.111773	0.770671	-0.398796
C126	C	1.136935	0.734790	-0.470159
C127	C	1.099916	0.694053	-0.474502
C128	C	1.037741	0.689199	-0.407483
H129	H	0.463689	0.619049	0.031078
N130	N	0.631665	0.759936	-0.510287
H131	H	0.596367	0.736734	-0.479602
H132	H	0.602130	0.813048	-0.482693
N133	N	0.030320	0.800898	-0.150797
H134	H	-0.017224	0.792816	-0.142717
H135	H	0.008269	0.854583	-0.131243
N136	N	0.393740	1.164059	0.261950
H137	H	0.420599	1.161961	0.205769
H138	H	0.330479	1.189185	0.288427
N139	N	0.572973	0.508117	0.041564
H140	H	0.541685	0.510881	0.097897
H141	H	0.588032	0.548708	0.033422
H142	H	1.120441	0.255475	-0.123271
N143	N	1.109186	0.415977	-0.541828
H144	H	1.149855	0.367219	-0.581281
H145	H	1.059694	0.442830	-0.546961
N146	N	0.512847	0.868858	0.298754
H147	H	0.497151	0.840623	0.275405
H148	H	0.576100	0.843739	0.272336
H149	H	0.360949	1.014929	-0.123292
H150	H	0.634075	0.046583	0.008647
N151	N	0.480383	0.883805	-0.133270
H152	H	0.542535	0.859149	-0.174425
H153	H	0.469236	0.853507	-0.095431
H154	H	0.349295	1.125234	0.397194
N155	N	0.989986	0.540593	-0.407959
H156	H	0.949306	0.576900	-0.356047
H157	H	1.039476	0.549581	-0.438682
H158	H	0.910398	-0.080829	-0.140286
H159	H	0.473710	0.614416	0.164490
N160	N	1.168757	0.268377	-0.523437
H161	H	1.222036	0.239364	-0.524370
H162	H	1.143020	0.236342	-0.521251
H163	H	0.642878	0.164114	0.003884
N164	N	0.298862	1.157287	-0.054643
H165	H	0.279236	1.142168	-0.084364
H166	H	0.249639	1.184426	-0.000295
H167	H	0.463685	0.767966	-0.117863
H168	H	0.382495	0.744639	0.423385
H169	H	0.342083	0.614313	0.035825
H170	H	1.187563	0.738749	-0.524724
N171	N	0.889550	0.362166	-0.129045
H172	H	0.924852	0.334225	-0.108600
H173	H	0.919080	0.336879	-0.184460
H174	H	0.315306	0.670742	0.415556
H175	H	1.007619	0.368265	-0.123275
N176	N	0.375798	1.172318	0.024035
H177	H	0.330792	1.210601	0.018283
H178	H	0.352629	1.175331	0.080037
H179	H	0.360916	0.605630	0.286107
N180	N	0.879448	0.645704	-0.541827
H181	H	0.883667	0.683235	-0.571903
H182	H	0.929929	0.622402	-0.537611
N183	N	0.505031	1.043090	0.024063
H184	H	0.479650	1.096492	0.048032
H185	H	0.494461	1.016115	0.065191
N186	N	0.879470	0.227490	-0.123615
H187	H	0.929983	0.235603	-0.150833
H188	H	0.883622	0.197769	-0.086378
H189	H	0.342085	0.763228	-0.113109
H190	H	0.160770	0.795141	-0.145031
N191	N	1.022478	0.525646	0.024054
H192	H	1.055376	0.520781	0.048021
H193	H	1.033556	0.555964	-0.013773
N194	N	1.151723	0.396428	0.024056
H195	H	1.126335	0.449829	0.048034
H196	H	1.141166	0.369444	0.065177
N197	N	0.512881	1.039453	0.128088
H198	H	0.486024	1.093538	0.132268
H199	H	0.576143	1.017904	0.098032
H200	H	0.919197	0.036715	-0.145030
N201	N	0.393705	0.993473	0.432615
H202	H	0.353038	1.042231	0.472068
H203	H	0.364244	0.963541	0.440823
H204	H	0.495276	0.753424	0.301790
N205	N	0.989972	0.369996	-0.237300
H206	H	1.016841	0.315912	-0.241480
H207	H	1.005652	0.394623	-0.210321
H208	H	0.039177	0.641475	0.008648
H209	H	1.141908	0.803842	-0.395245
N210	N	0.572976	0.787001	-0.237300
H211	H	0.587972	0.780090	-0.197838
H212	H	0.541734	0.840880	-0.232177
N213	N	0.169619	0.635731	0.014419
H214	H	0.138218	0.608507	0.041642
H215	H	0.231194	0.599722	-0.022808
N216	N	0.271644	0.769274	-0.119155
H217	H	0.265692	0.807492	-0.084139
H218	H	0.333202	0.736826	-0.159996
H219	H	0.868782	0.650607	-0.405607
H220	H	0.240055	0.651373	-0.001244
H221	H	0.583662	0.372740	0.035814
H222	H	1.101571	0.264162	-0.373496
N223	N	1.204035	0.252165	-0.054608
H224	H	1.223662	0.267284	-0.024888
H225	H	1.180017	0.219320	-0.030008
H226	H	0.652436	0.239001	-0.001265
H227	H	1.029125	0.795030	-0.273675
N228	N	0.871196	0.169738	-0.119147
H229	H	0.906493	0.141803	-0.098695
H230	H	0.900732	0.144444	-0.174561
N231	N	0.939965	0.617809	-0.738024
H232	H	0.985934	0.596620	-0.794203
H233	H	0.948140	0.653517	-0.714623
N234	N	1.127059	0.655356	-0.551475
H235	H	1.172066	0.664614	-0.593265
H236	H	1.150228	0.601159	-0.556292
N237	N	0.997825	0.645259	-0.412175
H238	H	1.023205	0.623268	-0.467554
H239	H	1.008394	0.604955	-0.386023
N240	N	0.929886	0.622466	-0.871909
H241	H	0.980399	0.599180	-0.867734
H242	H	0.928346	0.583706	-0.898894
N243	N	0.613314	0.768416	-0.701287
H244	H	0.605056	0.732750	-0.724644
H245	H	0.567390	0.789618	-0.645100
N246	N	0.623383	0.763759	-0.567400
H247	H	0.619148	0.726237	-0.537313
H248	H	0.624888	0.802562	-0.540436
N249	N	0.562890	0.791660	-0.371177
H250	H	0.571001	0.787919	-0.423094
H251	H	0.527628	0.768444	-0.340456
H252	H	0.850424	0.659092	-0.596597
