data_functionalizedCrystal
_audit_creation_method	'MofGen! by Chris Wilmer'
_symmetry_space_group_name_H-M	'P1'
_symmetry_Int_Tables_number	1
_symmetry_cell_setting	triclinic
loop_
_symmetry_equiv_pos_as_xyz
  x,y,z
_cell_length_a	12.759394
_cell_length_b	12.827893
_cell_length_c	12.759387
_cell_angle_alpha	89.982367
_cell_angle_beta	90.031405
_cell_angle_gamma	89.985192
loop_
_atom_site_label
_atom_site_type_symbol
_atom_site_fract_x
_atom_site_fract_y
_atom_site_fract_z
Zn1	Zn	-0.418215	-1.597657	0.594010
Zn2	Zn	0.081785	-1.097657	1.094010
Zn3	Zn	-0.593931	-1.597558	0.418328
Zn4	Zn	-0.093931	-1.097558	0.918328
Zn5	Zn	-0.418266	-1.422903	0.418346
Zn6	Zn	0.081734	-0.922903	0.918346
Zn7	Zn	-0.593852	-1.422885	0.593966
Zn8	Zn	-0.093852	-0.922885	1.093966
O9	O	-0.506066	-1.510251	0.506162
O10	O	-0.006066	-1.010251	1.006162
O11	O	-0.441535	-1.743880	0.570717
O12	O	0.058465	-1.243880	1.070717
O13	O	-0.570683	-1.574355	0.271309
O14	O	-0.070683	-1.074355	0.771309
O15	O	-0.271238	-1.446134	0.441674
O16	O	0.228762	-0.946134	0.941674
O17	O	-0.570633	-1.743807	0.441644
O18	O	-0.070633	-1.243807	0.941644
O19	O	-0.271200	-1.574524	0.570734
O20	O	0.228800	-1.074524	1.070734
O21	O	-0.441623	-1.446037	0.271322
O22	O	0.058377	-0.946037	0.771322
O23	O	-0.441547	-1.276665	0.441631
O24	O	0.058453	-0.776665	0.941631
O25	O	-0.570499	-1.446103	0.740993
O26	O	-0.070499	-0.946103	1.240993
O27	O	-0.570549	-1.276651	0.570658
O28	O	-0.070549	-0.776651	1.070658
O29	O	-0.441459	-1.574507	0.741025
O30	O	0.058541	-1.074507	1.241025
O31	O	-0.740941	-1.574338	0.441601
O32	O	-0.240941	-1.074338	0.941601
O33	O	-0.740884	-1.446007	0.570641
O34	O	-0.240884	-0.946007	1.070641
C35	C	-0.506046	-1.238741	0.506142
C36	C	-0.006046	-0.738741	1.006142
C37	C	-0.506062	-1.122588	0.506159
C38	C	-0.006062	-0.622588	1.006159
C39	C	-0.779033	-1.510188	0.506137
C40	C	-0.279033	-1.010188	1.006137
C41	C	-0.895810	-1.510257	0.506161
C42	C	-0.395810	-1.010257	1.006161
C43	C	-0.505964	-1.510314	0.780196
C44	C	-0.005964	-1.010314	1.280196
C45	C	-0.505921	-1.510341	0.896973
C46	C	-0.005921	-1.010341	1.396973
C47	C	-0.895817	-1.643988	0.371892
C48	C	-0.395817	-1.143988	0.871892
C49	C	-0.950681	-1.710881	0.304770
C50	C	-0.450681	-1.210881	0.804770
C51	C	-1.060403	-1.710942	0.304799
C52	C	-0.560403	-1.210942	0.804799
C53	C	-1.115263	-1.644106	0.371959
C54	C	-0.615263	-1.144106	0.871959
C55	C	-1.060398	-1.577213	0.439081
C56	C	-0.560398	-1.077213	0.939081
C57	C	-0.950674	-1.577156	0.439043
C58	C	-0.450674	-1.077156	0.939043
C59	C	-1.060392	-1.443488	0.573354
C60	C	-0.560392	-0.943488	1.073354
C61	C	-0.950670	-1.443420	0.573321
C62	C	-0.450670	-0.943420	1.073321
C63	C	-1.115251	-1.376651	0.640514
C64	C	-0.615251	-0.876651	1.140514
C65	C	-1.060387	-1.309752	0.707632
C66	C	-0.560387	-0.809752	1.207632
C67	C	-0.950659	-1.309692	0.707600
C68	C	-0.450659	-0.809692	1.207600
C69	C	-0.895806	-1.376527	0.640444
C70	C	-0.395806	-0.876527	1.140444
C71	C	-0.232032	-1.510342	0.506211
C72	C	0.267968	-1.010342	1.006211
C73	C	-0.115256	-1.510381	0.506232
C74	C	0.384744	-1.010381	1.006232
C75	C	-0.506087	-1.782821	0.506183
C76	C	-0.006087	-1.282821	1.006183
C77	C	-0.506096	-1.898974	0.506192
C78	C	-0.006096	-1.398974	1.006192
C79	C	-0.569996	-1.070824	0.569907
C80	C	-0.069996	-0.570824	1.069907
C81	C	-0.570015	-0.950774	0.569925
C82	C	-0.070015	-0.450774	1.069925
C83	C	-0.506091	-1.510248	0.233195
C84	C	-0.006091	-1.010248	0.733195
C85	C	-0.505839	-1.510423	0.116419
C86	C	-0.005839	-1.010423	0.616419
C87	C	-0.640238	-1.644032	1.116384
C88	C	-0.140238	-1.144032	1.616384
C89	C	-0.707454	-1.710820	1.061506
C90	C	-0.207454	-1.210820	1.561506
C91	C	-0.707495	-1.710786	0.951785
C92	C	-0.207495	-1.210786	1.451785
C93	C	-0.640313	-1.643953	0.896938
C94	C	-0.140313	-1.143953	1.396938
C95	C	-0.573097	-1.577164	0.951816
C96	C	-0.073097	-1.077164	1.451816
C97	C	-0.573062	-1.577208	1.061541
C98	C	-0.073062	-1.077208	1.561541
C99	C	-0.438705	-1.443552	0.951851
C100	C	0.061295	-0.943552	1.451851
C101	C	-0.438658	-1.443590	1.061573
C102	C	0.061342	-0.943590	1.561573
C103	C	-0.371523	-1.376719	0.897005
C104	C	0.128477	-0.876719	1.397005
C105	C	-0.304300	-1.309934	0.951883
C106	C	0.195700	-0.809934	1.451883
C107	C	-0.304262	-1.309972	1.061611
C108	C	0.195738	-0.809972	1.561611
C109	C	-0.371441	-1.376802	1.116451
C110	C	0.128559	-0.876802	1.616451
H111	H	-0.806476	-1.643931	0.371849
H112	H	-0.306476	-1.143931	0.871849
H113	H	-0.451361	-0.943483	0.451608
H114	H	0.048639	-0.443483	0.951608
Cl115	Cl	-0.371395	-1.376860	1.254387
Cl116	Cl	0.128605	-0.876860	1.754387
Cl117	Cl	-0.219848	-1.225931	0.882929
Cl118	Cl	0.280152	-0.725931	1.382929
H119	H	-0.762155	-1.765231	1.106174
H120	H	-0.262155	-1.265231	1.606174
H121	H	-0.624715	-1.115384	0.624474
H122	H	-0.124715	-0.615384	1.124474
H123	H	-0.371565	-1.376692	0.807663
H124	H	0.128435	-0.876692	1.307663
Cl125	Cl	-0.881710	-1.794905	0.220349
Cl126	Cl	-0.381710	-1.294905	0.720349
H127	H	-0.451336	-1.078028	0.451599
H128	H	0.048664	-0.578028	0.951599
Cl129	Cl	-0.792002	-1.794743	0.882792
Cl130	Cl	-0.292002	-1.294743	1.382792
H131	H	-1.204593	-1.376711	0.640537
H132	H	-0.704593	-0.876711	1.140537
H133	H	-1.105073	-1.765417	0.250147
H134	H	-0.605073	-1.265417	0.750147
Cl135	Cl	-1.253198	-1.643743	0.371547
Cl136	Cl	-0.753198	-1.143743	0.871547
Cl137	Cl	-0.219758	-1.226002	1.130591
Cl138	Cl	0.280242	-0.726002	1.630591
Cl139	Cl	-0.654534	-0.882051	0.654188
Cl140	Cl	-0.154534	-0.382051	1.154188
H141	H	-0.640361	-1.643922	0.807597
H142	H	-0.140361	-1.143922	1.307597
Cl143	Cl	-1.129358	-1.225745	0.792059
Cl144	Cl	-0.629358	-0.725745	1.292059
Cl145	Cl	-0.757870	-1.376762	0.640703
Cl146	Cl	-0.257870	-0.876762	1.140703
H147	H	-0.905994	-1.255224	0.762263
H148	H	-0.405994	-0.755224	1.262263
H149	H	-0.640202	-1.644076	1.205726
H150	H	-0.140202	-1.144076	1.705726
