data_functionalizedCrystal
_audit_creation_method	'MofGen! by Chris Wilmer'
_symmetry_space_group_name_H-M	'P1'
_symmetry_Int_Tables_number	1
_symmetry_cell_setting	triclinic
loop_
_symmetry_equiv_pos_as_xyz
  x,y,z
_cell_length_a	10.654550
_cell_length_b	14.044220
_cell_length_c	9.730223
_cell_angle_alpha	89.994583
_cell_angle_beta	89.999957
_cell_angle_gamma	88.836904
loop_
_atom_site_label
_atom_site_type_symbol
_atom_site_fract_x
_atom_site_fract_y
_atom_site_fract_z
O1	O	1.681228	0.133232	-0.114191
O2	O	1.317025	0.145925	-0.114216
O3	O	1.493659	0.001558	-0.114190
O4	O	1.504593	0.277599	-0.114217
O5	O	1.493647	0.001554	0.114390
O6	O	1.317012	0.145921	0.114364
O7	O	1.681215	0.133228	0.114389
Zn8	Zn	1.499111	0.139574	0.150668
Zn9	Zn	1.499128	0.139579	-0.150496
O10	O	1.504580	0.277595	0.114363
C11	C	1.270127	0.144991	0.000070
C12	C	1.130403	0.142202	0.000061
C13	C	1.059459	0.227204	0.000057
C14	C	0.928175	0.224578	0.000081
C15	C	0.938790	0.051942	0.000108
C16	C	1.070072	0.054569	0.000094
C17	C	1.488867	-0.033790	0.000100
C18	C	1.474592	-0.139110	0.000101
C19	C	1.448493	-0.331943	0.000079
C20	C	1.549741	-0.388910	0.000082
C21	C	1.535219	-0.496209	0.000070
C22	C	1.463013	-0.224634	0.000091
C23	C	1.728113	0.134162	0.000099
C24	C	1.867836	0.136950	0.000100
C25	C	1.509372	0.312943	0.000070
C26	C	1.523648	0.418262	0.000060
N27	N	1.499109	0.139570	0.356205
N28	N	1.499140	0.139576	-0.356032
C29	C	1.577355	0.075671	0.428142
C30	C	1.577367	0.075671	0.572025
C31	C	1.420885	0.203477	0.572021
C32	C	1.420867	0.203471	0.428140
H33	H	0.889652	-0.019406	0.000143
O34	O	1.138806	-0.028095	0.000035
C35	C	1.135492	-0.199604	0.000148
C36	C	1.057499	-0.106065	0.000175
H37	H	1.069788	-0.262666	0.000290
H38	H	1.197184	-0.202755	-0.095539
H39	H	1.197258	-0.202632	0.095781
H40	H	0.995661	-0.102974	-0.095394
H41	H	0.995889	-0.102953	0.095925
H42	H	1.647328	-0.357098	-0.000004
H43	H	1.350913	-0.363754	0.000069
O44	O	1.653384	0.013502	0.358476
C45	C	1.808641	-0.113230	0.373673
C46	C	1.722581	-0.042886	0.452735
H47	H	1.864628	-0.158825	0.449848
H48	H	1.749127	-0.161068	0.306370
H49	H	1.875947	-0.071821	0.306256
H50	H	1.655260	-0.084218	0.520228
H51	H	1.782173	0.004951	0.519952
O52	O	1.344707	0.265455	0.641844
C53	C	1.132414	0.319536	0.685833
C54	C	1.218538	0.249276	0.606700
H55	H	1.030391	0.306493	0.657427
H56	H	1.145761	0.308564	0.801041
H57	H	1.157350	0.395621	0.657541
H58	H	1.193656	0.173163	0.634877
H59	H	1.205178	0.260330	0.491511
H60	H	1.357144	0.255506	0.369565
O61	O	1.117867	0.312408	0.000098
C62	C	1.093475	0.483361	0.000001
C63	C	1.027174	0.386931	-0.000018
H64	H	1.020181	0.543638	-0.000122
H65	H	1.154644	0.488971	0.095676
H66	H	1.154701	0.488858	-0.095644
H67	H	0.965884	0.381369	0.095563
H68	H	0.966083	0.381363	-0.095756
O69	O	0.859127	0.307085	-0.000115
C70	C	0.704795	0.404336	-0.118581
C71	C	0.782891	0.310846	-0.118515
H72	H	0.643159	0.407416	-0.214312
H73	H	0.642992	0.407442	-0.022978
H74	H	0.770498	0.467400	-0.118540
H75	H	0.717283	0.247730	-0.118604
H76	H	0.844709	0.307823	-0.214110
H77	H	1.641080	0.023638	0.630593
