data_functionalizedCrystal
_audit_creation_method	'MofGen! by Chris Wilmer'
_symmetry_space_group_name_H-M	'P1'
_symmetry_Int_Tables_number	1
_symmetry_cell_setting	triclinic
loop_
_symmetry_equiv_pos_as_xyz
  x,y,z
_cell_length_a	27.732064
_cell_length_b	27.731988
_cell_length_c	9.730223
_cell_angle_alpha	89.994634
_cell_angle_beta	90.002793
_cell_angle_gamma	97.366104
loop_
_atom_site_label
_atom_site_type_symbol
_atom_site_fract_x
_atom_site_fract_y
_atom_site_fract_z
O1	O	0.057377	-0.640947	-0.114100
O2	O	0.066153	-0.500150	-0.114140
O3	O	-0.008632	-0.574917	-0.114124
O4	O	0.132162	-0.566179	-0.114116
O5	O	-0.008630	-0.574916	0.114456
O6	O	0.066155	-0.500149	0.114440
O7	O	0.057379	-0.640946	0.114480
Zn8	Zn	0.061767	-0.570547	0.150752
Zn9	Zn	0.061765	-0.570548	-0.150412
O10	O	0.132164	-0.566179	0.114464
C11	C	0.065974	-0.482142	0.000145
C12	C	0.065433	-0.428485	0.000129
C13	C	0.062025	-0.095765	0.124789
C14	C	0.059967	0.105894	0.124810
O15	O	0.059681	0.131967	0.230777
N16	N	0.059710	0.131108	0.000212
C17	C	0.059965	0.105904	-0.124400
O18	O	0.059694	0.131977	-0.230378
C19	C	0.062019	-0.095754	-0.124420
C20	C	0.062281	-0.120965	0.000187
C21	C	0.062285	-0.120977	0.249386
C22	C	0.062803	-0.171388	0.249379
C23	C	0.063059	-0.196588	0.124776
C24	C	0.062798	-0.171377	0.000180
C25	C	0.062270	-0.120958	-0.249030
C26	C	0.062783	-0.171375	-0.249024
C27	C	0.063044	-0.196587	-0.124418
C28	C	0.063571	-0.246988	-0.124429
N29	N	0.063827	-0.272202	0.000169
C30	C	0.063571	-0.247002	0.124772
C31	C	0.058887	0.211778	-0.124381
C32	C	0.058375	0.262192	-0.124377
C33	C	0.058376	0.262178	0.124834
C34	C	0.058892	0.211763	0.124828
C35	C	0.059144	0.186563	0.000217
C36	C	0.064658	-0.352870	0.124749
C37	C	0.065177	-0.403285	0.124731
C38	C	0.065173	-0.403267	-0.124479
C39	C	0.064657	-0.352855	-0.124462
C40	C	0.064397	-0.327658	0.000163
O41	O	0.063852	-0.273093	-0.230340
O42	O	0.063831	-0.273085	0.230734
C43	C	0.061507	-0.045354	0.124796
C44	C	0.061247	-0.020143	0.000200
C45	C	0.061503	-0.045343	-0.124403
C46	C	0.060734	0.030272	0.000204
C47	C	0.060478	0.055472	0.124807
C48	C	0.060734	0.030257	0.249405
C49	C	0.061251	-0.020154	0.249399
C50	C	0.061246	-0.020128	-0.249001
C51	C	0.060730	0.030283	-0.248984
C52	C	0.060473	0.055483	-0.124382
C53	C	-0.026638	-0.574732	0.000161
C54	C	-0.080292	-0.574176	0.000148
C55	C	-0.457354	-0.526207	0.000129
C56	C	-0.255695	-0.528253	0.000128
O57	O	-0.224434	-0.491031	0.000063
N58	N	-0.236577	-0.572589	0.000141
C59	C	-0.267877	-0.616416	0.000144
O60	O	-0.246989	-0.654173	0.000141
C61	C	-0.469536	-0.614369	0.000136
C62	C	-0.488651	-0.570031	0.000137
C63	C	-0.476470	-0.481872	0.000129
C64	C	-0.526882	-0.481361	0.000137
C65	C	-0.558178	-0.525185	0.000145
C66	C	-0.539063	-0.569520	0.000145
C67	C	-0.500835	-0.658196	0.000130
C68	C	-0.551253	-0.657680	0.000124
C69	C	-0.570368	-0.613342	0.000126
C70	C	-0.620771	-0.612833	0.000161
N71	N	-0.639889	-0.568497	0.000148
C72	C	-0.608593	-0.524673	0.000140
C73	C	-0.162003	-0.617488	0.000152
C74	C	-0.111588	-0.618000	0.000156
C75	C	-0.099409	-0.529837	0.000138
C76	C	-0.149825	-0.529325	0.000143
C77	C	-0.181121	-0.573152	0.000139
C78	C	-0.714462	-0.523603	0.000158
C79	C	-0.764879	-0.523096	0.000171
C80	C	-0.777054	-0.611259	0.000183
C81	C	-0.726641	-0.611766	0.000177
C82	C	-0.695346	-0.567934	0.000160
O83	O	-0.652060	-0.650035	0.000211
O84	O	-0.629491	-0.486922	0.000113
C85	C	-0.406942	-0.526718	0.000122
C86	C	-0.387827	-0.571053	0.000122
C87	C	-0.419123	-0.614877	0.000130
C88	C	-0.337412	-0.571565	0.000126
C89	C	-0.306116	-0.527741	0.000118
C90	C	-0.325234	-0.483406	0.000106
C91	C	-0.375646	-0.482895	0.000114
C92	C	-0.400005	-0.659213	0.000142
C93	C	-0.349593	-0.659720	0.000136
C94	C	-0.318296	-0.615896	0.000128
C95	C	0.150170	-0.566364	0.000175
C96	C	0.203824	-0.566920	0.000179
N97	N	0.061769	-0.570550	0.356288
C98	C	0.057563	0.341047	0.000199
C99	C	0.058119	0.287392	0.000226
N100	N	0.061760	-0.570549	-0.355948
C101	C	0.028665	-0.603665	0.428221
C102	C	0.028659	-0.603664	0.572104
C103	C	0.094865	-0.537431	0.572108
C104	C	0.094868	-0.537430	0.428228
C105	C	-0.004434	-0.636785	0.356282
C106	C	-0.037541	-0.669903	0.428215
C107	C	-0.037546	-0.669902	0.572098
C108	C	-0.004446	-0.636783	0.644048
H109	H	0.061464	-0.040676	0.350866
C110	C	0.059175	0.184035	0.261904
N111	N	0.059386	0.163152	0.365155
C112	C	-0.328573	-0.708499	0.000137
N113	N	-0.312743	-0.745239	0.000125
H114	H	0.062057	-0.100439	-0.350498
C115	C	0.063083	-0.199114	0.386457
N116	N	0.063291	-0.219995	0.489712
C117	C	0.058090	0.289907	0.261899
N118	N	0.057870	0.310794	0.365129
H119	H	-0.064492	-0.696865	0.369626
H120	H	0.121814	-0.510467	0.630699
C121	C	-0.479821	-0.706973	0.000121
N122	N	-0.463994	-0.743714	0.000111
H123	H	-0.542440	-0.445256	0.000126
C124	C	-0.073970	-0.706326	0.651220
N125	N	-0.101405	-0.733761	0.710812
H126	H	-0.425483	-0.694900	0.000147
C127	C	-0.004455	-0.636783	0.802324
N128	N	-0.004459	-0.636787	0.921536
H129	H	0.062076	-0.100464	0.350858
H130	H	0.064452	-0.332326	-0.225927
C131	C	0.058091	0.289919	-0.261453
N132	N	0.057873	0.310801	-0.364704
H133	H	-0.004432	-0.636790	0.239125
C134	C	0.131274	-0.500991	0.349097
N135	N	0.158690	-0.473539	0.289496
C136	C	-0.170846	-0.480550	0.000132
N137	N	-0.186677	-0.443810	0.000118
C138	C	0.065462	-0.431015	0.261814
N139	N	0.065675	-0.451899	0.365062
H140	H	-0.802544	-0.646939	0.000196
H141	H	-0.391204	-0.446790	0.000116
C142	C	0.059164	0.184064	-0.261473
N143	N	0.059374	0.163193	-0.364732
C144	C	-0.442051	-0.433658	0.000120
N145	N	-0.416129	-0.397340	0.000122
H146	H	0.064451	-0.332360	0.226230
H147	H	0.062988	-0.191890	-0.350500
H148	H	0.065384	-0.423794	-0.225927
H149	H	-0.073919	-0.494154	0.000137
C150	C	-0.785902	-0.474318	0.000168
N151	N	-0.801735	-0.437580	0.000161
H152	H	-0.299743	-0.447723	0.000108
H153	H	-0.096030	-0.654104	0.000177
C154	C	-0.196423	-0.665704	0.000171
N155	N	-0.222346	-0.702021	0.000198
C156	C	0.060451	0.057987	0.386468
N157	N	0.060235	0.078875	0.489699
C158	C	0.061526	-0.047842	-0.386082
N159	N	0.061739	-0.068713	-0.489340
H160	H	0.060521	0.050806	-0.350462
H161	H	-0.576732	-0.693370	0.000114
H162	H	-0.688987	-0.487911	0.000143
C163	C	-0.705614	-0.660540	0.000183
N164	N	-0.689780	-0.697278	0.000172
