data_functionalizedCrystal
_audit_creation_method	'MofGen! by Chris Wilmer'
_symmetry_space_group_name_H-M	'P1'
_symmetry_Int_Tables_number	1
_symmetry_cell_setting	triclinic
loop_
_symmetry_equiv_pos_as_xyz
  x,y,z
_cell_length_a	10.654550
_cell_length_b	14.044220
_cell_length_c	9.130313
_cell_angle_alpha	89.994483
_cell_angle_beta	89.999724
_cell_angle_gamma	88.836904
loop_
_atom_site_label
_atom_site_type_symbol
_atom_site_fract_x
_atom_site_fract_y
_atom_site_fract_z
O1	O	1.681228	0.133232	-0.121694
O2	O	2.181228	0.633232	0.378306
O3	O	1.317025	0.145925	-0.121721
O4	O	1.817025	0.645925	0.378279
O5	O	1.493660	0.001558	-0.121693
O6	O	1.993660	0.501558	0.378307
O7	O	1.504593	0.277599	-0.121721
O8	O	2.004593	0.777599	0.378279
O9	O	1.493646	0.001554	0.121906
O10	O	1.993646	0.501554	0.621906
O11	O	1.317011	0.145921	0.121878
O12	O	1.817011	0.645921	0.621878
O13	O	1.681214	0.133227	0.121905
O14	O	2.181214	0.633227	0.621905
Cu15	Cu	1.499112	0.139574	0.144134
Cu16	Cu	1.999112	0.639574	0.644134
Cu17	Cu	1.499128	0.139579	-0.143950
Cu18	Cu	1.999128	0.639579	0.356050
O19	O	1.504580	0.277595	0.121877
O20	O	2.004580	0.777595	0.621877
C21	C	1.270127	0.144991	0.000075
C22	C	1.770127	0.644991	0.500075
C23	C	1.130403	0.142202	0.000065
C24	C	1.630403	0.642202	0.500065
C25	C	1.488867	-0.033790	0.000106
C26	C	1.988867	0.466210	0.500106
C27	C	1.474592	-0.139110	0.000107
C28	C	1.974592	0.360890	0.500107
C29	C	1.059459	0.227204	0.000061
C30	C	1.559459	0.727204	0.500061
C31	C	0.928175	0.224578	0.000086
C32	C	1.428175	0.724578	0.500086
C33	C	0.938790	0.051942	0.000115
C34	C	1.438790	0.551942	0.500115
C35	C	1.070072	0.054569	0.000100
C36	C	1.570072	0.554569	0.500100
C37	C	1.448493	-0.331943	0.000084
C38	C	1.948493	0.168057	0.500084
C39	C	1.549741	-0.388910	0.000087
C40	C	2.049741	0.111090	0.500087
C41	C	1.535219	-0.496209	0.000074
C42	C	2.035219	0.003791	0.500074
C43	C	1.463013	-0.224634	0.000097
C44	C	1.963013	0.275366	0.500097
C45	C	1.728113	0.134162	0.000106
C46	C	2.228113	0.634162	0.500106
C47	C	1.867836	0.136950	0.000106
C48	C	2.367836	0.636950	0.500106
C49	C	1.509372	0.312943	0.000075
C50	C	2.009372	0.812943	0.500075
C51	C	1.523648	0.418262	0.000064
C52	C	2.023648	0.918262	0.500064
N53	N	1.499109	0.139570	0.346757
N54	N	1.999109	0.639570	0.846757
N55	N	1.499139	0.139575	-0.346572
N56	N	1.999139	0.639575	0.153428
C57	C	1.577355	0.075671	0.423421
C58	C	2.077355	0.575671	0.923421
C59	C	1.577367	0.075671	0.576758
C60	C	2.077367	0.575671	1.076758
C61	C	1.420885	0.203477	0.576753
C62	C	1.920885	0.703477	1.076753
C63	C	1.420867	0.203472	0.423419
C64	C	1.920867	0.703472	0.923419
H65	H	1.108577	0.298560	0.000044
H66	H	1.608577	0.798560	0.500044
H67	H	1.350913	-0.363754	0.000073
H68	H	1.850913	0.136246	0.500073
Br69	Br	1.683538	-0.011055	0.319385
Br70	Br	2.183538	0.488945	0.819385
H71	H	1.647328	-0.357098	-0.000004
H72	H	2.147328	0.142902	0.499996
H73	H	1.641080	0.023638	0.639173
H74	H	2.141080	0.523638	1.139173
H75	H	0.870417	0.293795	0.000086
H76	H	1.370417	0.793795	0.500086
H77	H	0.889652	-0.019406	0.000152
H78	H	1.389652	0.480594	0.500152
Br79	Br	1.314706	0.290200	0.680799
Br80	Br	1.814706	0.790200	1.180799
H81	H	1.127837	-0.014653	0.000108
H82	H	1.627837	0.485347	0.500108
Br83	Br	1.314659	0.290190	0.319362
Br84	Br	1.814659	0.790190	0.819362
