data_functionalizedCrystal
_audit_creation_method	'MofGen! by Chris Wilmer'
_symmetry_space_group_name_H-M	'P1'
_symmetry_Int_Tables_number	1
_symmetry_cell_setting	triclinic
loop_
_symmetry_equiv_pos_as_xyz
  x,y,z
_cell_length_a	10.654550
_cell_length_b	10.654550
_cell_length_c	9.130313
_cell_angle_alpha	89.996647
_cell_angle_beta	89.999724
_cell_angle_gamma	84.484917
loop_
_atom_site_label
_atom_site_type_symbol
_atom_site_fract_x
_atom_site_fract_y
_atom_site_fract_z
O1	O	1.667839	0.176399	-0.121686
O2	O	1.302361	0.193205	-0.121712
O3	O	1.493503	0.002063	-0.121693
O4	O	1.476697	0.367541	-0.121705
O5	O	1.493490	0.002057	0.121906
O6	O	1.302348	0.193199	0.121886
O7	O	1.667826	0.176393	0.121913
Cu8	Cu	1.485086	0.184796	0.144142
Cu9	Cu	1.485101	0.184802	-0.143942
O10	O	1.476684	0.367535	0.121894
C11	C	1.255556	0.191968	0.000084
C12	C	1.116113	0.188276	0.000073
C13	C	1.036627	0.300818	0.000074
C14	C	0.905607	0.297341	0.000100
C15	C	0.933570	0.068772	0.000118
C16	C	1.064588	0.072250	0.000103
C17	C	1.492263	-0.044738	0.000104
C18	C	1.488571	-0.184181	0.000099
C19	C	1.601112	-0.263667	0.000112
C20	C	1.597636	-0.394688	0.000101
C21	C	1.369066	-0.366725	0.000072
C22	C	1.372544	-0.235706	0.000072
C23	C	1.733075	-0.279813	0.000135
C24	C	1.729599	-0.410834	0.000125
C25	C	1.714631	0.177630	0.000114
C26	C	1.854074	0.181322	0.000114
C27	C	1.477924	0.414336	0.000093
C28	C	1.481616	0.553779	0.000089
N29	N	1.485084	0.184790	0.346765
N30	N	1.485113	0.184798	-0.346564
C31	C	1.569751	0.100188	0.423425
C32	C	1.569763	0.100189	0.576762
C33	C	1.400437	0.269404	0.576765
C34	C	1.400420	0.269396	0.423431
H35	H	0.840894	0.388984	0.000103
C36	C	1.328554	0.486140	0.623940
C37	C	1.307379	0.362407	0.661032
H38	H	1.271096	0.543556	0.675954
H39	H	1.412477	0.500559	0.649065
H40	H	1.316429	0.498222	0.521644
H41	H	1.319514	0.350322	0.763327
H42	H	1.223436	0.347983	0.635917
C43	C	1.228161	-0.056443	0.125321
C44	C	1.151970	-0.051466	0.000101
H45	H	1.282100	-0.132820	0.125325
H46	H	1.277591	0.013146	0.125299
H47	H	1.176460	-0.053051	0.210263
H48	H	1.203671	-0.054849	-0.084842
H49	H	1.102535	-0.121074	0.000110
C50	C	1.700293	-0.146625	0.211428
C51	C	1.789683	-0.231536	0.142101
H52	H	1.735204	-0.116776	0.299071
H53	H	1.677412	-0.077522	0.148017
H54	H	1.627645	-0.188000	0.234236
H55	H	1.862327	-0.190158	0.119284
H56	H	1.812581	-0.300650	0.205526
H57	H	1.331468	0.338290	0.361009
H58	H	1.078574	0.395294	0.000061
H59	H	0.891602	-0.025693	0.000151
H60	H	1.779315	-0.452596	0.102072
H61	H	1.784696	-0.250452	-0.101800
H62	H	1.769485	-0.456474	-0.105052
C63	C	1.641654	-0.116542	0.623971
C64	C	1.662836	0.007194	0.661024
H65	H	1.699121	-0.173954	0.675985
H66	H	1.557735	-0.130958	0.649123
H67	H	1.653761	-0.128632	0.521675
H68	H	1.650719	0.019288	0.763319
H69	H	1.746774	0.021616	0.635883
C70	C	1.262244	-0.555151	0.000055
C71	C	1.241534	-0.423366	0.000054
H72	H	1.183508	-0.590114	0.000054
H73	H	1.308628	-0.582352	-0.084885
H74	H	1.308626	-0.582361	0.085012
H75	H	1.195160	-0.396155	-0.084910
H76	H	1.195130	-0.396154	0.085002
H77	H	1.638687	0.031295	0.361008
C78	C	1.178813	-0.171547	-0.125193
C79	C	1.248832	-0.148339	0.000044
H80	H	1.102432	-0.117615	-0.125204
H81	H	1.226352	-0.155807	-0.210115
H82	H	1.160154	-0.256956	-0.125180
H83	H	1.267500	-0.062932	0.000025
H84	H	1.201284	-0.164069	0.084987
