data_functionalizedCrystal
_audit_creation_method	'MofGen! by Chris Wilmer'
_symmetry_space_group_name_H-M	'P1'
_symmetry_Int_Tables_number	1
_symmetry_cell_setting	triclinic
loop_
_symmetry_equiv_pos_as_xyz
  x,y,z
_cell_length_a	14.044191
_cell_length_b	11.026607
_cell_length_c	10.065875
_cell_angle_alpha	100.731764
_cell_angle_beta	99.551392
_cell_angle_gamma	79.111103
loop_
_atom_site_label
_atom_site_type_symbol
_atom_site_fract_x
_atom_site_fract_y
_atom_site_fract_z
O1	O	1.319591	-0.281488	0.113356
O2	O	1.569591	-0.031488	0.363356
O3	O	1.819591	0.218512	0.613356
O4	O	2.069591	0.468512	0.863356
O5	O	1.041788	-0.270718	0.113386
O6	O	1.291788	-0.020718	0.363386
O7	O	1.541788	0.229282	0.613386
O8	O	1.791788	0.479282	0.863386
O9	O	1.157665	-0.096957	0.113369
O10	O	1.407665	0.153043	0.363369
O11	O	1.657665	0.403043	0.613369
O12	O	1.907665	0.653043	0.863369
O13	O	1.203714	-0.455249	0.113373
O14	O	1.453714	-0.205249	0.363373
O15	O	1.703714	0.044751	0.613373
O16	O	1.953714	0.294751	0.863373
O17	O	1.135594	-0.130236	-0.113617
O18	O	1.385594	0.119764	0.136383
O19	O	1.635594	0.369764	0.386383
O20	O	1.885594	0.619764	0.636383
O21	O	1.019716	-0.303997	-0.113599
O22	O	1.269716	-0.053997	0.136401
O23	O	1.519716	0.196003	0.386401
O24	O	1.769716	0.446003	0.636401
O25	O	1.297520	-0.314767	-0.113630
O26	O	1.547520	-0.064767	0.136370
O27	O	1.797520	0.185233	0.386370
O28	O	2.047520	0.435233	0.636370
Zn29	Zn	1.155114	-0.314666	-0.149653
Zn30	Zn	1.405114	-0.064666	0.100347
Zn31	Zn	1.655114	0.185334	0.350347
Zn32	Zn	1.905114	0.435334	0.600347
Zn33	Zn	1.184194	-0.270819	0.149410
Zn34	Zn	1.434194	-0.020819	0.399410
Zn35	Zn	1.684194	0.229181	0.649410
Zn36	Zn	1.934194	0.479181	0.899410
O37	O	1.181643	-0.488528	-0.113612
O38	O	1.431643	-0.238528	0.136388
O39	O	1.681643	0.011472	0.386388
O40	O	1.931643	0.261472	0.636388
C41	C	0.994634	-0.282648	-0.000102
C42	C	1.244634	-0.032648	0.249898
C43	C	1.494634	0.217352	0.499898
C44	C	1.744634	0.467352	0.749898
C45	C	0.887013	-0.268599	-0.000091
C46	C	1.137013	-0.018599	0.249909
C47	C	1.387013	0.231401	0.499909
C48	C	1.637013	0.481401	0.749909
C49	C	1.344674	-0.302837	-0.000138
C50	C	1.594674	-0.052837	0.249862
C51	C	1.844674	0.197163	0.499862
C52	C	2.094674	0.447163	0.749862
C53	C	1.452296	-0.316885	-0.000141
C54	C	1.702296	-0.066885	0.249859
C55	C	1.952296	0.183115	0.499859
C56	C	2.202296	0.433115	0.749859
C57	C	1.138134	-0.067466	-0.000122
C58	C	1.388134	0.182534	0.249878
C59	C	1.638134	0.432534	0.499878
C60	C	1.888134	0.682534	0.749878
C61	C	1.112811	0.069992	-0.000114
C62	C	1.362811	0.319992	0.249886
C63	C	1.612811	0.569992	0.499886
C64	C	1.862811	0.819992	0.749886
C65	C	1.689968	-0.242935	-0.000114
C66	C	1.939968	0.007065	0.249886
C67	C	2.189968	0.257065	0.499886
C68	C	2.439968	0.507065	0.749886
C69	C	1.649335	-0.342543	-0.000118
C70	C	1.899335	-0.092543	0.249882
C71	C	2.149335	0.157457	0.499882
C72	C	2.399335	0.407457	0.749882
C73	C	1.539692	-0.328263	-0.000131
C74	C	1.789692	-0.078263	0.249869
C75	C	2.039692	0.171737	0.499869
C76	C	2.289692	0.421737	0.749869
C77	C	1.799620	-0.257213	-0.000101
C78	C	2.049620	-0.007213	0.249899
C79	C	2.299620	0.242787	0.499899
C80	C	2.549620	0.492787	0.749899
C81	C	1.201174	-0.518019	-0.000119
C82	C	1.451174	-0.268019	0.249881
C83	C	1.701174	-0.018019	0.499881
C84	C	1.951174	0.231981	0.749881
C85	C	1.226498	-0.655475	-0.000118
C86	C	1.476498	-0.405475	0.249882
C87	C	1.726498	-0.155475	0.499882
C88	C	1.976498	0.094525	0.749882
N89	N	1.135274	-0.344590	-0.353756
N90	N	1.385274	-0.094590	-0.103756
N91	N	1.635274	0.155410	0.146244
N92	N	1.885274	0.405410	0.396244
C93	C	1.182735	0.136225	-0.000120
C94	C	1.432735	0.386225	0.249880
C95	C	1.682735	0.636225	0.499880
C96	C	1.932735	0.886225	0.749880
C97	C	1.156564	0.278294	-0.000112
C98	C	1.406564	0.528294	0.249888
C99	C	1.656564	0.778294	0.499888
C100	C	1.906564	1.028294	0.749888
C101	C	1.177284	-0.281222	-0.421541
C102	C	1.427284	-0.031222	-0.171541
C103	C	1.677284	0.218778	0.078459
C104	C	1.927284	0.468778	0.328459
C105	C	1.162024	-0.304263	-0.578706
C106	C	1.412024	-0.054263	-0.328706
C107	C	1.662024	0.195737	-0.078706
C108	C	1.912024	0.445737	0.171294
N109	N	1.204039	-0.240886	0.353512
N110	N	1.454039	0.009114	0.603512
N111	N	1.704039	0.259114	0.853512
N112	N	1.954039	0.509114	1.103512
H113	H	1.696892	-0.438544	-0.000111
H114	H	1.946892	-0.188544	0.249889
H115	H	2.196892	0.061456	0.499889
H116	H	2.446892	0.311456	0.749889
H117	H	1.642414	-0.146942	-0.000122
H118	H	1.892414	0.103058	0.249878
H119	H	2.142414	0.353058	0.499878
H120	H	2.392414	0.603058	0.749878
H121	H	1.224543	-0.209908	-0.363224
H122	H	1.474543	0.040092	-0.113224
H123	H	1.724543	0.290092	0.136776
H124	H	1.974543	0.540092	0.386776
H125	H	1.261975	0.087751	-0.000137
H126	H	1.511975	0.337751	0.249863
H127	H	1.761975	0.587751	0.499863
H128	H	2.011975	0.837751	0.749863
Cl129	Cl	1.034215	0.353119	-0.000085
Cl130	Cl	1.284215	0.603119	0.249915
Cl131	Cl	1.534215	0.853119	0.499915
Cl132	Cl	1.784215	1.103119	0.749915
H133	H	1.305754	0.296074	-0.000024
H134	H	1.555754	0.546074	0.249976
H135	H	1.805754	0.796074	0.499976
H136	H	2.055754	1.046074	0.749976
H137	H	1.033571	0.118466	-0.000096
H138	H	1.283571	0.368466	0.249904
H139	H	1.533571	0.618466	0.499904
H140	H	1.783571	0.868466	0.749904
H141	H	1.114753	-0.375572	-0.637020
H142	H	1.364753	-0.125572	-0.387020
H143	H	1.614753	0.124428	-0.137020
H144	H	1.864753	0.374428	0.112980
H145	H	1.251301	-0.169567	-0.588174
H146	H	1.501301	0.080433	-0.338174
H147	H	1.751301	0.330433	-0.088174
H148	H	2.001301	0.580433	0.161826
H149	H	1.088007	-0.415895	-0.412075
H150	H	1.338007	-0.165895	-0.162075
H151	H	1.588007	0.084105	0.087925
H152	H	1.838007	0.334105	0.337925
