data_functionalizedCrystal
_audit_creation_method	'MofGen! by Chris Wilmer'
_symmetry_space_group_name_H-M	'P1'
_symmetry_Int_Tables_number	1
_symmetry_cell_setting	triclinic
loop_
_symmetry_equiv_pos_as_xyz
  x,y,z
_cell_length_a	11.792254
_cell_length_b	23.532407
_cell_length_c	10.268362
_cell_angle_alpha	89.990068
_cell_angle_beta	89.995475
_cell_angle_gamma	83.523637
loop_
_atom_site_label
_atom_site_type_symbol
_atom_site_fract_x
_atom_site_fract_y
_atom_site_fract_z
O1	O	1.505062	0.078089	-0.108314
O2	O	1.174534	0.086126	-0.108318
O3	O	1.349765	-0.000765	-0.108292
O4	O	1.329831	0.164980	-0.108340
O5	O	1.349750	-0.000768	0.108309
O6	O	1.174519	0.086123	0.108283
O7	O	1.505047	0.078086	0.108287
Cu8	Cu	1.339781	0.082104	0.128062
Cu9	Cu	1.339799	0.082108	-0.128093
O10	O	1.329816	0.164976	0.108261
C11	C	1.132247	0.085618	-0.000018
C12	C	1.006270	0.084103	-0.000018
C13	C	0.903963	0.082872	-0.000024
C14	C	0.775612	0.081332	-0.000024
C15	C	1.349250	-0.021986	0.000012
C16	C	1.347724	-0.085212	0.000022
C17	C	1.441849	-0.483755	-0.000048
C18	C	1.440432	-0.543163	-0.000058
O19	O	1.527687	-0.579389	-0.000105
N20	N	1.336257	-0.566409	-0.000059
C21	C	1.233493	-0.530243	-0.000062
O22	O	1.144754	-0.555471	-0.000065
C23	C	1.234912	-0.470836	-0.000062
C24	C	1.339093	-0.447593	-0.000048
C25	C	1.546023	-0.460512	-0.000036
C26	C	1.547440	-0.401107	-0.000024
C27	C	1.444684	-0.364946	-0.000024
C28	C	1.340511	-0.388189	-0.000036
C29	C	1.132149	-0.434671	-0.000075
C30	C	1.133577	-0.375260	-0.000075
C31	C	1.237759	-0.352017	-0.000062
C32	C	1.239172	-0.292622	-0.000023
N33	N	1.343347	-0.269376	-0.000023
C34	C	1.446103	-0.305538	-0.000023
C35	C	1.230521	-0.655003	-0.000066
C36	C	1.229101	-0.714410	-0.000057
C37	C	1.436040	-0.727326	-0.000055
C38	C	1.437459	-0.667918	-0.000055
C39	C	1.334696	-0.631757	-0.000065
C40	C	1.449071	-0.180784	0.000004
C41	C	1.450480	-0.121373	0.000022
C42	C	1.243541	-0.108462	0.000013
C43	C	1.242132	-0.167867	0.000002
C44	C	1.344907	-0.204027	-0.000007
O45	O	1.151962	-0.256362	0.000018
O46	O	1.534827	-0.280302	-0.000038
C47	C	1.547333	0.078594	-0.000016
C48	C	1.673311	0.080109	-0.000024
C49	C	1.330331	0.186197	-0.000046
C50	C	1.331857	0.249423	-0.000064
N51	N	1.339777	0.082100	0.308228
N52	N	1.339813	0.082107	-0.308259
C53	C	1.339794	0.082107	0.573899
C54	C	1.339781	0.082105	0.426061
H55	H	1.535320	-0.102453	0.000036
F56	F	1.558456	-0.219260	-0.000006
F57	F	1.021263	-0.459394	-0.000095
F58	F	1.545403	-0.765822	-0.000062
H59	H	1.632275	-0.382189	-0.000018
F60	F	1.121138	-0.616522	-0.000065
F61	F	1.655400	-0.498990	-0.000037
H62	H	1.522293	-0.648999	-0.000045
H63	H	1.049893	-0.345819	-0.000086
H64	H	1.144266	-0.733328	-0.000046
F65	F	1.131251	-0.192605	0.000011
F66	F	1.134187	-0.069966	0.000014
