data_functionalizedCrystal
_audit_creation_method	'MofGen! by Chris Wilmer'
_symmetry_space_group_name_H-M	'P1'
_symmetry_Int_Tables_number	1
_symmetry_cell_setting	triclinic
loop_
_symmetry_equiv_pos_as_xyz
  x,y,z
_cell_length_a	13.033409
_cell_length_b	13.032721
_cell_length_c	10.686551
_cell_angle_alpha	86.664748
_cell_angle_beta	87.737689
_cell_angle_gamma	89.138002
loop_
_atom_site_label
_atom_site_type_symbol
_atom_site_fract_x
_atom_site_fract_y
_atom_site_fract_z
Zn1	Zn	1.559804	-0.578125	0.562407
Zn2	Zn	1.525299	-0.759833	0.384556
Zn3	Zn	1.374828	-0.566428	0.378051
Zn4	Zn	1.369619	-0.725408	0.614150
O5	O	1.457388	-0.657448	0.484791
O6	O	1.697793	-0.621531	0.519883
O7	O	1.493078	-0.743689	0.210453
O8	O	1.415986	-0.425401	0.378129
O9	O	1.672442	-0.755031	0.389216
O10	O	1.551888	-0.433994	0.513575
O11	O	1.382528	-0.601595	0.205674
O12	O	1.231571	-0.568215	0.428302
O13	O	1.407108	-0.696359	0.780526
O14	O	1.227744	-0.685017	0.601763
O15	O	1.546836	-0.588151	0.742511
O16	O	1.488027	-0.897845	0.439389
O17	O	1.373650	-0.872553	0.608071
C18	C	1.192692	-0.621612	0.519942
C19	C	1.079453	-0.606304	0.535014
C20	C	0.899386	-0.649622	0.492527
C21	C	1.016423	-0.665447	0.476945
C22	C	1.426558	-0.922171	0.530074
C23	C	1.413466	-1.035430	0.549476
C24	C	1.464279	-1.098409	0.474714
C25	C	1.450748	-1.215469	0.494764
C26	C	1.723117	-0.693426	0.449504
C27	C	1.836355	-0.708757	0.434466
C28	C	1.480240	-0.639719	0.807694
C29	C	1.489979	-0.632164	0.945295
C30	C	1.488367	-0.391695	0.439355
C31	C	1.501569	-0.278446	0.419992
C32	C	1.434691	-0.675043	0.163124
C33	C	1.425184	-0.682338	0.025448
H34	H	1.046776	-0.543957	0.596266
H35	H	1.552910	-0.583431	0.981948
H36	H	1.359950	-1.068176	0.628330
N37	N	0.856108	-0.567041	0.573663
H38	H	0.778635	-0.567443	0.573296
H39	H	0.881770	-0.497787	0.539637
H40	H	1.397229	-1.248209	0.573624
H41	H	0.869038	-0.771107	0.373230
N42	N	1.341826	-0.746880	0.976898
H43	H	1.272451	-0.719976	1.006302
H44	H	1.350812	-0.820590	1.009688
N45	N	1.059691	-0.748039	0.395810
H46	H	1.101911	-0.798493	0.448274
H47	H	1.104559	-0.715548	0.325604
N48	N	1.535184	-1.055050	0.370272
H49	H	1.534802	-0.977572	0.370756
H50	H	1.510998	-1.076359	0.287098
H51	H	1.555097	-1.245707	0.341140
