data_functionalizedCrystal
_audit_creation_method	'MofGen! by Chris Wilmer'
_symmetry_space_group_name_H-M	'P1'
_symmetry_Int_Tables_number	1
_symmetry_cell_setting	triclinic
loop_
_symmetry_equiv_pos_as_xyz
  x,y,z
_cell_length_a	10.654550
_cell_length_b	18.266242
_cell_length_c	10.654550
_cell_angle_alpha	89.995070
_cell_angle_beta	95.515069
_cell_angle_gamma	90.005694
loop_
_atom_site_label
_atom_site_type_symbol
_atom_site_fract_x
_atom_site_fract_y
_atom_site_fract_z
O1	O	1.667849	0.060826	-0.176399
O2	O	1.302371	0.060840	-0.193205
O3	O	1.493513	0.060828	-0.002063
O4	O	1.476707	0.060838	-0.367541
O5	O	1.493480	-0.060934	-0.002057
O6	O	1.302338	-0.060922	-0.193199
O7	O	1.667816	-0.060936	-0.176393
Zn8	Zn	1.485072	-0.080262	-0.184795
Zn9	Zn	1.485115	0.080165	-0.184803
O10	O	1.476674	-0.060924	-0.367535
C11	C	1.255556	-0.000040	-0.191968
C12	C	1.116113	-0.000035	-0.188276
N13	N	1.485051	-0.189748	-0.184789
C14	C	1.036628	-0.000034	-0.300818
C15	C	0.905607	-0.000047	-0.297341
C16	C	0.933570	-0.000058	-0.068772
C17	C	1.064588	-0.000051	-0.072250
C18	C	1.561873	-0.228052	-0.261676
C19	C	1.561894	-0.304697	-0.261673
C20	C	1.485070	-0.343035	-0.184797
C21	C	1.408243	-0.304723	-0.107895
C22	C	1.408234	-0.228079	-0.107891
N23	N	1.375038	-0.463384	-0.180409
N24	N	1.375050	-0.536192	-0.180420
C25	C	1.485095	-0.573958	-0.184802
N26	N	1.595129	-0.536165	-0.189197
N27	N	1.595115	-0.463350	-0.189193
C28	C	1.485072	-0.426142	-0.184792
C29	C	1.561946	-0.695368	-0.261689
C30	C	1.561969	-0.772015	-0.261677
C31	C	1.408306	-0.772039	-0.107906
C32	C	1.408295	-0.695394	-0.107912
C33	C	1.485112	-0.657063	-0.184810
C34	C	1.714631	-0.000055	-0.177630
C35	C	1.854074	-0.000055	-0.181322
C36	C	1.492263	-0.000053	0.044738
C37	C	1.488571	-0.000051	0.184181
N38	N	1.485146	0.189652	-0.184799
C39	C	1.477925	-0.000042	-0.414336
C40	C	1.481616	-0.000039	-0.553779
C41	C	1.601112	-0.000055	0.263667
C42	C	1.597636	-0.000046	0.394688
C43	C	1.369066	-0.000032	0.366725
C44	C	1.372544	-0.000036	0.235706
H45	H	1.078574	-0.000026	-0.395294
Cl46	Cl	1.311740	-0.820229	-0.011247
Cl47	Cl	1.231051	-0.000025	0.135774
H48	H	1.624452	-0.335890	-0.324286
Cl49	Cl	1.658420	-0.179869	-0.358372
Cl50	Cl	0.805687	-0.000046	-0.438829
Cl51	Cl	1.311668	-0.352918	-0.011247
Cl52	Cl	1.223212	-0.000014	0.431509
Cl53	Cl	1.311641	-0.179924	-0.011234
Cl54	Cl	1.311688	-0.647238	-0.011273
H55	H	1.695588	-0.000066	0.221720
H56	H	1.129309	-0.000054	0.019401
H57	H	0.891602	-0.000076	0.025693
H58	H	1.624496	-0.664158	-0.324303
H59	H	1.689279	-0.000048	0.459401
Cl60	Cl	1.658561	-0.820169	-0.358337
