data_functionalizedCrystal
_audit_creation_method	'MofGen! by Chris Wilmer'
_symmetry_space_group_name_H-M	'P1'
_symmetry_Int_Tables_number	1
_symmetry_cell_setting	triclinic
loop_
_symmetry_equiv_pos_as_xyz
  x,y,z
_cell_length_a	21.395364
_cell_length_b	18.050589
_cell_length_c	21.395355
_cell_angle_alpha	89.987098
_cell_angle_beta	89.975273
_cell_angle_gamma	90.026554
loop_
_atom_site_label
_atom_site_type_symbol
_atom_site_fract_x
_atom_site_fract_y
_atom_site_fract_z
Zn1	Zn	0.957870	-0.295779	-0.354289
Zn2	Zn	1.291203	0.037555	-0.020955
Zn3	Zn	1.624537	0.370888	0.312378
Zn4	Zn	0.957777	-0.419950	-0.249522
Zn5	Zn	1.291110	-0.086617	0.083812
Zn6	Zn	1.624444	0.246716	0.417145
Zn7	Zn	0.853085	-0.295775	-0.249525
Zn8	Zn	1.186418	0.037558	0.083808
Zn9	Zn	1.519752	0.370892	0.417141
Zn10	Zn	0.853059	-0.419928	-0.354261
Zn11	Zn	1.186392	-0.086594	-0.020928
Zn12	Zn	1.519725	0.246739	0.312405
O13	O	0.905448	-0.357858	-0.301899
O14	O	1.238781	-0.024525	0.031434
O15	O	1.572114	0.308809	0.364767
O16	O	1.045535	-0.312261	-0.340401
O17	O	1.378869	0.021072	-0.007068
O18	O	1.712202	0.354406	0.326266
O19	O	0.943861	-0.403486	-0.161844
O20	O	1.277195	-0.070153	0.171489
O21	O	1.610528	0.263180	0.504823
O22	O	0.867035	-0.191851	-0.263435
O23	O	1.200368	0.141482	0.069898
O24	O	1.533701	0.474816	0.403231
O25	O	1.045467	-0.403490	-0.263429
O26	O	1.378800	-0.070156	0.069904
O27	O	1.712134	0.263177	0.403238
O28	O	0.944020	-0.191853	-0.340405
O29	O	1.277353	0.141480	-0.007071
O30	O	1.610686	0.474813	0.326262
O31	O	0.866945	-0.312255	-0.161847
O32	O	1.200278	0.021078	0.171487
O33	O	1.533611	0.354411	0.504820
O34	O	0.765403	-0.312233	-0.263409
O35	O	1.098737	0.021100	0.069925
O36	O	1.432070	0.354433	0.403258
O37	O	0.866990	-0.403451	-0.441943
O38	O	1.200323	-0.070118	-0.108610
O39	O	1.533657	0.263216	0.224724
O40	O	0.765384	-0.403448	-0.340358
O41	O	1.098718	-0.070114	-0.007025
O42	O	1.432051	0.263219	0.326309
O43	O	0.943994	-0.312239	-0.441963
O44	O	1.277328	0.021094	-0.108630
O45	O	1.610661	0.354428	0.224704
O46	O	0.943836	-0.523872	-0.263403
O47	O	1.277169	-0.190539	0.069931
O48	O	1.610503	0.142795	0.403264
O49	O	0.866900	-0.523855	-0.340354
O50	O	1.200233	-0.190522	-0.007021
O51	O	1.533566	0.142811	0.326312
C52	C	0.742660	-0.357838	-0.301881
C53	C	1.075993	-0.024505	0.031452
C54	C	1.409327	0.308829	0.364786
C55	C	0.673019	-0.357847	-0.301888
C56	C	1.006352	-0.024514	0.031445
C57	C	1.339685	0.308819	0.364778
C58	C	0.171229	-0.405440	-0.341928
C59	C	0.504562	-0.072107	-0.008595
C60	C	0.837896	0.261227	0.324739
C61	C	0.236664	-0.405440	-0.341921
C62	C	0.569998	-0.072107	-0.008588
C63	C	0.903331	0.261226	0.324745
C64	C	0.269380	-0.357874	-0.301919
C65	C	0.602714	-0.024541	0.031414
C66	C	0.936047	0.308793	0.364748
C67	C	0.236656	-0.310318	-0.261909
C68	C	0.569989	0.023016	0.071424
C69	C	0.903322	0.356349	0.404758
C70	C	0.171221	-0.310324	-0.261912
C71	C	0.504555	0.023009	0.071421
C72	C	0.837888	0.356343	0.404754
C73	C	0.373067	-0.290946	-0.297062
C74	C	0.706400	0.042387	0.036271
C75	C	1.039733	0.375721	0.369604
C76	C	0.438500	-0.290938	-0.297063
C77	C	0.771833	0.042395	0.036270
C78	C	1.105166	0.375728	0.369603
C79	C	0.471201	-0.357855	-0.301905
C80	C	0.804534	-0.024521	0.031428
C81	C	1.137868	0.308812	0.364761
C82	C	0.438462	-0.424781	-0.306759
C83	C	0.771795	-0.091447	0.026574
C84	C	1.105128	0.241886	0.359907
C85	C	0.373027	-0.424787	-0.306763
C86	C	0.706361	-0.091454	0.026571
C87	C	1.039694	0.241879	0.359904
C88	C	0.340333	-0.357862	-0.301911
C89	C	0.673666	-0.024529	0.031423
C90	C	1.006999	0.308805	0.364756
C91	C	0.574871	-0.405412	-0.341903
C92	C	0.908204	-0.072079	-0.008569
C93	C	1.241537	0.261255	0.324764
C94	C	0.640307	-0.405413	-0.341892
C95	C	0.973640	-0.072080	-0.008558
C96	C	1.306974	0.261253	0.324775
C97	C	0.640297	-0.310284	-0.261883
C98	C	0.973631	0.023049	0.071451
C99	C	1.306964	0.356383	0.404784
C100	C	0.574862	-0.310289	-0.261890
C101	C	0.908195	0.023044	0.071443
C102	C	1.241529	0.356377	0.404776
C103	C	0.542152	-0.357852	-0.301904
C104	C	0.875486	-0.024519	0.031430
C105	C	1.208819	0.308815	0.364763
C106	C	0.905372	-0.550810	-0.301889
C107	C	1.238705	-0.217477	0.031445
C108	C	1.572039	0.115857	0.364778
C109	C	0.905397	-0.633356	-0.301905
C110	C	1.238730	-0.300022	0.031428
C111	C	1.572064	0.033311	0.364761
C112	C	0.863600	-0.832824	-0.343737
C113	C	1.196933	-0.499491	-0.010404
C114	C	1.530267	-0.166158	0.322930
C115	C	0.848322	-0.882251	-0.286564
C116	C	1.181655	-0.548918	0.046769
C117	C	1.514989	-0.215585	0.380103
C118	C	0.905458	-0.784486	-0.301913
C119	C	1.238792	-0.451153	0.031420
C120	C	1.572125	-0.117819	0.364753
C121	C	0.920767	-0.882141	-0.359093
C122	C	1.254101	-0.548807	-0.025760
C123	C	1.587434	-0.215474	0.307573
C124	C	0.905517	-0.930471	-0.301926
C125	C	1.238850	-0.597138	0.031407
C126	C	1.572183	-0.263805	0.364740
C127	C	0.890150	-0.832826	-0.244710
C128	C	1.223484	-0.499493	0.088623
C129	C	1.556817	-0.166159	0.421957
C130	C	0.962622	-0.832711	-0.317278
C131	C	1.295956	-0.499378	0.016055
C132	C	1.629289	-0.166044	0.349389
C133	C	0.947366	-0.882116	-0.260065
C134	C	1.280699	-0.548782	0.073268
C135	C	1.614032	-0.215449	0.406601
C136	C	0.905423	-0.700388	-0.301907
C137	C	1.238757	-0.367055	0.031426
C138	C	1.572090	-0.033721	0.364760
C139	C	0.905552	-1.014568	-0.301927
C140	C	1.238885	-0.681234	0.031407
C141	C	1.572219	-0.347901	0.364740
C142	C	1.068871	-0.357878	-0.301918
C143	C	1.402204	-0.024545	0.031416
C144	C	1.735537	0.308788	0.364749
C145	C	1.138512	-0.357887	-0.301926
C146	C	1.471845	-0.024554	0.031408
C147	C	1.805179	0.308780	0.364741
C148	C	0.905500	-0.357843	-0.465323
C149	C	1.238833	-0.024509	-0.131989
C150	C	1.572166	0.308824	0.201344
C151	C	0.905522	-0.357836	-0.534964
C152	C	1.238855	-0.024503	-0.201631
C153	C	1.572188	0.308830	0.131703
C154	C	0.905541	-0.164152	-0.301923
C155	C	1.238874	0.169181	0.031410
C156	C	1.572207	0.502514	0.364743
C157	C	0.905580	-0.081606	-0.301934
C158	C	1.238914	0.251727	0.031400
C159	C	1.572247	0.585060	0.364733
C160	C	0.945616	-0.310340	-0.567688
C161	C	1.278950	0.022993	-0.234355
C162	C	1.612283	0.356326	0.098978
C163	C	0.945615	-0.310309	-0.633124
C164	C	1.278949	0.023025	-0.299791
C165	C	1.612282	0.356358	0.033543
C166	C	0.905527	-0.357786	-0.665832
C167	C	1.238860	-0.024452	-0.332499
C168	C	1.572193	0.308881	0.000834
C169	C	0.865424	-0.405285	-0.633100
C170	C	1.198758	-0.071952	-0.299766
C171	C	1.532091	0.261382	0.033567
C172	C	0.865422	-0.405310	-0.567666
C173	C	1.198755	-0.071977	-0.234332
C174	C	1.532089	0.261356	0.099001
C175	C	0.900553	-0.424655	-0.769503
C176	C	1.233886	-0.091321	-0.436170
C177	C	1.567220	0.242012	-0.102837
C178	C	0.900560	-0.424631	-0.834936
C179	C	1.233893	-0.091297	-0.501603
C180	C	1.567227	0.242036	-0.168270
C181	C	0.905530	-0.357707	-0.867653
C182	C	1.238864	-0.024374	-0.534320
C183	C	1.572197	0.308959	-0.200986
C184	C	0.910507	-0.290806	-0.834929
C185	C	1.243841	0.042527	-0.501596
C186	C	1.577174	0.375861	-0.168262
C187	C	0.910505	-0.290831	-0.769495
C188	C	1.243838	0.042502	-0.436161
C189	C	1.577172	0.375835	-0.102828
C190	C	0.905525	-0.357763	-0.736785
C191	C	1.238858	-0.024430	-0.403451
C192	C	1.572191	0.308903	-0.070118
C193	C	0.945626	-0.310173	-0.971330
C194	C	1.278960	0.023161	-0.637997
C195	C	1.612293	0.356494	-0.304664
C196	C	0.945621	-0.310140	-1.036767
C197	C	1.278954	0.023194	-0.703434
C198	C	1.612288	0.356527	-0.370100
C199	C	0.865433	-0.405123	-1.036742
C200	C	1.198767	-0.071789	-0.703408
C201	C	1.532100	0.261544	-0.370075
C202	C	0.865435	-0.405149	-0.971306
C203	C	1.198769	-0.071816	-0.637973
C204	C	1.532102	0.261517	-0.304639
C205	C	0.905535	-0.357675	-0.938604
C206	C	1.238868	-0.024342	-0.605271
C207	C	1.572202	0.308991	-0.271938
C208	C	0.905432	-0.357819	-0.139112
C209	C	1.238765	-0.024486	0.194222
C210	C	1.572098	0.308847	0.527555
C211	C	0.905531	-0.357616	-0.069471
C212	C	1.238864	-0.024283	0.263863
C213	C	1.572198	0.309050	0.597196
H214	H	0.144584	-0.271599	-0.229337
H215	H	0.477917	0.061735	0.103996
H216	H	0.811250	0.395068	0.437329
C217	C	0.821330	-0.457403	-0.935308
C218	C	1.154664	-0.124069	-0.601974
C219	C	1.487997	0.209264	-0.268641
N220	N	0.788107	-0.496760	-0.908194
N221	N	1.121440	-0.163427	-0.574861
N222	N	1.454773	0.169906	-0.241527
C223	C	0.895097	-0.498282	-0.733521
C224	C	1.228430	-0.164948	-0.400188
C225	C	1.561764	0.168385	-0.066855
N226	N	0.890992	-0.553736	-0.706421
N227	N	1.224325	-0.220403	-0.373087
N228	N	1.557659	0.112930	-0.039754
H229	H	0.832782	-0.443939	-0.659735
H230	H	1.166115	-0.110606	-0.326402
H231	H	1.499449	0.222728	0.006932
H232	H	0.978264	-0.271628	-0.659773
H233	H	1.311597	0.061706	-0.326440
H234	H	1.644930	0.395039	0.006893
H235	H	0.832786	-0.443772	-1.063372
H236	H	1.166119	-0.110439	-0.730039
H237	H	1.499452	0.222894	-0.396705
H238	H	0.828150	-0.811180	-0.379056
H239	H	1.161483	-0.477847	-0.045723
H240	H	1.494817	-0.144513	0.287611
H241	H	1.010926	-0.810936	-0.330289
H242	H	1.344259	-0.477603	0.003045
H243	H	1.677592	-0.144269	0.336378
H244	H	0.933693	-0.903802	-0.407444
H245	H	1.267026	-0.570469	-0.074111
H246	H	1.600359	-0.237136	0.259222
H247	H	0.877169	-0.811254	-0.196346
H248	H	1.210502	-0.477921	0.136988
H249	H	1.543836	-0.144587	0.470321
H250	H	0.978270	-0.271458	-1.063410
H251	H	1.311603	0.061875	-0.730077
H252	H	1.644936	0.395208	-0.396744
H253	H	0.832769	-0.443986	-0.541022
H254	H	1.166103	-0.110653	-0.207688
H255	H	1.499436	0.222680	0.125645
C256	C	0.915974	-0.217184	-0.870912
C257	C	1.249307	0.116149	-0.537579
C258	C	1.582641	0.449483	-0.204246
N259	N	0.920092	-0.161734	-0.898018
N260	N	1.253425	0.171599	-0.564685
N261	N	1.586759	0.504933	-0.231351
H262	H	0.896511	-0.479106	-0.861575
H263	H	1.229845	-0.145772	-0.528242
H264	H	1.563178	0.187561	-0.194909
C265	C	0.995219	-0.911177	-0.212237
C266	C	1.328552	-0.577844	0.121097
C267	C	1.661886	-0.244511	0.454430
N268	N	1.031259	-0.933069	-0.176210
N269	N	1.364592	-0.599736	0.157123
N270	N	1.697925	-0.266403	0.490456
H271	H	0.144601	-0.444172	-0.374508
H272	H	0.477934	-0.110839	-0.041175
H273	H	0.811268	0.222494	0.292159
C274	C	0.989731	-0.257944	-0.935356
C275	C	1.323064	0.075389	-0.602023
C276	C	1.656397	0.408722	-0.268690
N277	N	1.022950	-0.218604	-0.908262
N278	N	1.356283	0.114729	-0.574929
N279	N	1.689616	0.448063	-0.241596
H280	H	0.914556	-0.236358	-0.742853
H281	H	1.247889	0.096975	-0.409520
H282	H	1.581222	0.430309	-0.076187
C283	C	0.989719	-0.258108	-0.531720
C284	C	1.323052	0.075226	-0.198387
C285	C	1.656386	0.408559	0.134946
N286	N	1.022935	-0.218762	-0.504628
N287	N	1.356268	0.114571	-0.171295
N288	N	1.689602	0.447905	0.162038
C289	C	0.783048	-0.911649	-0.269010
C290	C	1.116382	-0.578316	0.064323
C291	C	1.449715	-0.244983	0.397656
N292	N	0.733883	-0.933790	-0.255793
N293	N	1.067216	-0.600457	0.077540
N294	N	1.400550	-0.267123	0.410874
H295	H	0.346373	-0.479281	-0.310713
H296	H	0.679707	-0.145947	0.022620
H297	H	1.013040	0.187386	0.355953
C298	C	0.272660	-0.457749	-0.385933
C299	C	0.605993	-0.124416	-0.052600
C300	C	0.939327	0.208917	0.280734
N301	N	0.299770	-0.497147	-0.419085
N302	N	0.633104	-0.163813	-0.085751
N303	N	0.966437	0.169520	0.247582
H304	H	0.666934	-0.271557	-0.229310
H305	H	1.000267	0.061776	0.104024
H306	H	1.333601	0.395110	0.437357
C307	C	0.538888	-0.457737	-0.385913
C308	C	0.872221	-0.124403	-0.052580
C309	C	1.205555	0.208930	0.280753
N310	N	0.511788	-0.497149	-0.419062
N311	N	0.845121	-0.163815	-0.085729
N312	N	1.178454	0.169518	0.247604
C313	C	0.474428	-0.498395	-0.312085
C314	C	0.807761	-0.165062	0.021248
C315	C	1.141095	0.168272	0.354581
N316	N	0.501521	-0.553839	-0.316098
N317	N	0.834854	-0.220506	0.017235
N318	N	1.168188	0.112828	0.350569
C319	C	0.474507	-0.217318	-0.291725
C320	C	0.807840	0.116015	0.041609
C321	C	1.141174	0.449348	0.374942
N322	N	0.501626	-0.161866	-0.287702
N323	N	0.834959	0.171467	0.045631
N324	N	1.168293	0.504801	0.378964
C325	C	0.676296	-0.457732	-0.385897
C326	C	1.009629	-0.124399	-0.052563
C327	C	1.342962	0.208935	0.280770
N328	N	0.703402	-0.497140	-0.419042
N329	N	1.036736	-0.163806	-0.085709
N330	N	1.370069	0.169527	0.247624
H331	H	0.548224	-0.271564	-0.229318
H332	H	0.881557	0.061770	0.104015
H333	H	1.214890	0.395103	0.437349
H334	H	0.346447	-0.236452	-0.293109
H335	H	0.679780	0.096882	0.040224
H336	H	1.013113	0.430215	0.373558
H337	H	0.263297	-0.271590	-0.229338
H338	H	0.596631	0.061743	0.103995
H339	H	0.929964	0.395077	0.437329
