data_functionalizedCrystal
_audit_creation_method	'MofGen! by Chris Wilmer'
_symmetry_space_group_name_H-M	'P1'
_symmetry_Int_Tables_number	1
_symmetry_cell_setting	triclinic
loop_
_symmetry_equiv_pos_as_xyz
  x,y,z
_cell_length_a	19.188905
_cell_length_b	19.188924
_cell_length_c	8.140239
_cell_angle_alpha	90.005577
_cell_angle_beta	90.009842
_cell_angle_gamma	83.138260
loop_
_atom_site_label
_atom_site_type_symbol
_atom_site_fract_x
_atom_site_fract_y
_atom_site_fract_z
O1	O	0.926152	0.087084	0.136892
O2	O	0.722838	0.098836	0.136836
O3	O	0.830365	-0.008697	0.136846
O4	O	0.818625	0.194616	0.136882
O5	O	0.830359	-0.008698	-0.136381
O6	O	0.722832	0.098835	-0.136391
O7	O	0.926146	0.087082	-0.136336
Zn8	Zn	0.824488	0.092959	-0.179744
Zn9	Zn	0.824496	0.092960	0.180245
O10	O	0.818619	0.194615	-0.136345
C11	C	0.696824	0.098458	0.000216
C12	C	0.619318	0.097324	0.000194
C13	C	0.582930	0.096780	0.149134
C14	C	0.510106	0.095707	0.149154
C15	C	0.473676	0.095164	0.000226
C16	C	0.510073	0.095712	-0.148734
C17	C	0.582894	0.096792	-0.148750
N18	N	0.364654	0.053735	-0.110615
N19	N	0.295477	0.052707	-0.110589
C20	C	0.254269	0.091911	0.000265
N21	N	0.284853	0.132173	0.111118
N22	N	0.354037	0.133198	0.111097
C23	C	0.394713	0.093993	0.000227
C24	C	0.138917	0.090205	0.149237
C25	C	0.066091	0.089136	0.149251
C26	C	0.066060	0.089134	-0.148641
C27	C	0.138883	0.090210	-0.148651
C28	C	0.175308	0.090742	0.000293
C29	C	0.829982	-0.034708	0.000231
C30	C	0.828844	-0.112213	0.000226
C31	C	0.828315	-0.148611	0.149163
C32	C	0.827235	-0.221434	0.149175
C33	C	0.826698	-0.257857	0.000242
C34	C	0.827222	-0.221450	-0.148714
C35	C	0.828295	-0.148628	-0.148722
N36	N	0.864744	-0.377524	-0.110594
N37	N	0.863726	-0.446703	-0.110577
C38	C	0.823464	-0.477266	0.000257
N39	N	0.784267	-0.436039	0.111098
N40	N	0.785287	-0.366855	0.111085
C41	C	0.825534	-0.336821	0.000234
C42	C	0.821764	-0.592627	0.149217
C43	C	0.820679	-0.665450	0.149223
C44	C	0.820673	-0.665466	-0.148670
C45	C	0.821750	-0.592643	-0.148672
C46	C	0.822299	-0.556228	0.000276
C47	C	0.952160	0.087461	0.000289
C48	C	1.029666	0.088594	0.000321
C49	C	0.819002	0.220627	0.000273
C50	C	0.820141	0.298132	0.000289
N51	N	0.824488	0.092957	-0.425426
N52	N	0.824502	0.092956	0.425927
H53	H	0.480406	0.095272	-0.269993
O54	O	0.828891	-0.113177	0.293753
C55	C	0.889917	-0.079077	0.302771
H56	H	0.931919	-0.106694	0.218454
H57	H	0.877037	-0.022082	0.262581
C58	C	0.865655	-0.047593	0.584369
C59	C	0.917244	-0.081516	0.480820
H60	H	0.882510	-0.049094	0.694198
H61	H	0.824539	-0.070564	0.578293
H62	H	0.854926	-0.000100	0.550858
H63	H	0.927966	-0.129010	0.514319
H64	H	0.958363	-0.058553	0.486906
H65	H	0.820246	-0.695084	0.270510
O66	O	0.174415	0.090701	0.293766
C67	C	0.246492	0.091783	0.261816
H68	H	0.259385	0.069827	0.133811
H69	H	0.259653	0.148090	0.268875
C70	C	0.274192	0.073527	0.547515
C71	C	0.290029	0.046555	0.390301
H72	H	0.301049	0.045631	0.626773
H73	H	0.225633	0.072800	0.569043
H74	H	0.285160	0.120449	0.553374
H75	H	0.279053	-0.000363	0.384438
H76	H	0.338588	0.047272	0.368775
H77	H	0.480473	0.095265	0.270443
O78	O	0.826731	-0.256694	0.294005
C79	C	0.827410	-0.208933	0.425465
H80	H	0.850295	-0.159993	0.381831
H81	H	0.771517	-0.193669	0.471194
C82	C	0.844632	-0.303599	0.619828
C83	C	0.872745	-0.243493	0.566239
H84	H	0.872594	-0.324917	0.706668
H85	H	0.844172	-0.335777	0.531262
H86	H	0.798056	-0.290870	0.657924
H87	H	0.919317	-0.256223	0.528125
H88	H	0.873214	-0.211318	0.654802
H89	H	0.828722	-0.118992	-0.270007
H90	H	0.822186	-0.563008	-0.269952
O91	O	0.030853	0.088578	0.294088
C92	C	0.078620	0.089296	0.425535
H93	H	0.133486	0.067965	0.381851
H94	H	0.078864	0.145410	0.471354
C95	C	-0.011037	0.069289	0.619892
C96	C	0.056350	0.043086	0.566241
H97	H	-0.024775	0.040788	0.706690
H98	H	-0.043220	0.068809	0.531335
H99	H	-0.010825	0.116051	0.658063
H100	H	0.056134	-0.003671	0.528053
H101	H	0.088532	0.043557	0.654796
O102	O	0.822342	-0.557147	0.293750
C103	C	0.823402	-0.485066	0.261808
H104	H	0.845628	-0.478092	0.133791
H105	H	0.767713	-0.456882	0.268900
C106	C	0.842467	-0.462386	0.547499
C107	C	0.869771	-0.453821	0.390271
H108	H	0.871066	-0.443111	0.626744
H109	H	0.841750	-0.510948	0.569021
H110	H	0.796059	-0.438900	0.553385
H111	H	0.916174	-0.477315	0.384381
H112	H	0.870496	-0.405263	0.368751
O113	O	0.820043	-0.700894	-0.293250
C114	C	0.758949	-0.734892	-0.302173
H115	H	0.738648	-0.743101	-0.172854
H116	H	0.717024	-0.701146	-0.375650
C117	C	0.801205	-0.796442	-0.546186
C118	C	0.776274	-0.806530	-0.387352
H119	H	0.811890	-0.840631	-0.598735
H120	H	0.842364	-0.773536	-0.540179
H121	H	0.766264	-0.768319	-0.607396
H122	H	0.811218	-0.834646	-0.326139
H123	H	0.735121	-0.829444	-0.393351
H124	H	0.612582	0.097214	0.270416
H125	H	0.036399	0.088696	-0.269902
O126	O	0.618142	0.097283	-0.293585
C127	C	0.570373	0.096595	-0.425036
H128	H	0.521429	0.073729	-0.381368
H129	H	0.555120	0.152482	-0.470821
C130	C	0.665029	0.079321	-0.619398
C131	C	0.604917	0.051231	-0.565767
H132	H	0.686337	0.051341	-0.706212
H133	H	0.697212	0.079787	-0.530838
H134	H	0.652309	0.125893	-0.657541
H135	H	0.617638	0.004664	-0.527607
H136	H	0.572737	0.050756	-0.654324
H137	H	0.168512	0.090648	-0.269935
H138	H	0.826783	-0.251110	-0.269976
