data_functionalizedCrystal
_audit_creation_method	'MofGen! by Chris Wilmer'
_symmetry_space_group_name_H-M	'P1'
_symmetry_Int_Tables_number	1
_symmetry_cell_setting	triclinic
loop_
_symmetry_equiv_pos_as_xyz
  x,y,z
_cell_length_a	16.974885
_cell_length_b	16.992695
_cell_length_c	16.053948
_cell_angle_alpha	87.280976
_cell_angle_beta	96.523943
_cell_angle_gamma	92.977267
loop_
_atom_site_label
_atom_site_type_symbol
_atom_site_fract_x
_atom_site_fract_y
_atom_site_fract_z
O1	O	-1.055530	0.099979	-0.001836
O2	O	-0.825426	0.112054	0.013698
O3	O	-0.939555	-0.008128	0.006001
O4	O	-0.941401	0.220161	0.005861
O5	O	-0.945868	-0.002221	-0.133282
O6	O	-0.831739	0.117961	-0.125585
O7	O	-1.061843	0.105886	-0.141118
Zn8	Zn	-0.947793	0.112861	-0.155466
Zn9	Zn	-0.939476	0.105079	0.028045
O10	O	-0.947714	0.226068	-0.133421
C11	C	-0.799003	0.114439	-0.053947
C12	C	-0.710866	0.112737	-0.047996
C13	C	-1.088266	0.103500	-0.073472
C14	C	-1.176403	0.105202	-0.079417
C15	C	-0.940338	-0.034392	-0.063477
C16	C	-0.933257	-0.121449	-0.062988
C17	C	-0.214376	0.102782	-0.006295
C18	C	-0.297191	0.104382	-0.011897
C19	C	-0.342031	0.108407	-0.090622
C20	C	-0.304053	0.110825	-0.163749
C21	C	-0.221240	0.109220	-0.158146
C22	C	-0.590075	0.113550	-0.115521
C23	C	-0.672893	0.115157	-0.121118
C24	C	-0.666025	0.108712	0.030735
C25	C	-0.583211	0.107112	0.036331
C26	C	-0.545240	0.109526	-0.036797
N27	N	-0.426681	0.110045	-0.096350
N28	N	-0.460592	0.107882	-0.031068
N29	N	-0.953476	0.118172	-0.280707
C30	C	-0.946931	0.252331	-0.063942
C31	C	-0.954012	0.339388	-0.064425
C32	C	-0.885688	0.389508	-0.059813
C33	C	-0.892346	0.471306	-0.060252
C34	C	-0.967329	0.502983	-0.065309
C35	C	-1.035658	0.452856	-0.069920
C36	C	-1.028999	0.371059	-0.069475
C37	C	-0.994927	0.746628	-0.067153
C38	C	-1.001581	0.828431	-0.067600
C39	C	-0.858268	0.846876	-0.057931
C40	C	-0.851616	0.765077	-0.057491
C41	C	-0.919945	0.714957	-0.062097
N42	N	-0.974136	0.586593	-0.065761
N43	N	-0.913137	0.631348	-0.061640
C44	C	-0.904368	0.072357	-0.321107
C45	C	-0.908363	0.076082	-0.408782
C46	C	-0.961471	0.125617	-0.456055
C47	C	-1.010581	0.171437	-0.415649
C48	C	-1.006581	0.167716	-0.327976
C49	C	-0.978910	0.141861	-0.718635
C50	C	-0.982908	0.145576	-0.806314
C51	C	-0.880688	0.050222	-0.799440
C52	C	-0.876696	0.046502	-0.711766
C53	C	-0.925803	0.092325	-0.671367
N54	N	-0.965558	0.129423	-0.545673
N55	N	-0.921712	0.088522	-0.581751
N56	N	-0.933800	0.099761	0.153286
H57	H	-0.177872	0.099510	0.057811
C58	C	-1.142576	0.801986	-0.077083
C59	C	-1.084007	0.863250	-0.073143
H60	H	-1.193459	0.823484	-0.080498
H61	H	-1.139214	0.772532	-0.125279
H62	H	-1.134783	0.768399	-0.028135
H63	H	-1.091798	0.896834	-0.122095
H64	H	-1.087372	0.892717	-0.024943
C65	C	-0.584745	0.100878	0.185868
C66	C	-0.533926	0.102672	0.122868
H67	H	-0.554317	0.098132	0.239292
H68	H	-0.614028	0.147328	0.180746
H69	H	-0.620348	0.055949	0.180299
H70	H	-0.498326	0.147605	0.128433
H71	H	-0.504630	0.056217	0.127992
C72	C	-1.051269	0.304025	-0.445302
C73	C	-1.068959	0.225888	-0.467610
H74	H	-1.087309	0.337639	-0.477383
H75	H	-1.055916	0.308362	-0.387312
H76	H	-0.998585	0.319070	-0.456095
H77	H	-1.121641	0.210841	-0.456811
H78	H	-1.064319	0.221548	-0.525614
H79	H	-0.328105	0.102406	0.047646
C80	C	-0.789922	0.108304	0.089575
C81	C	-0.707766	0.106049	0.111112
H82	H	-0.815689	0.106652	0.139200
H83	H	-0.801747	0.155580	0.057683
H84	H	-0.808050	0.064200	0.057245
H85	H	-0.689637	0.150156	0.143437
H86	H	-0.695936	0.058767	0.143018
H87	H	-0.868374	0.038774	-0.441671
C88	C	-1.080360	0.236475	-0.734249
C89	C	-1.032897	0.192219	-0.674237
H90	H	-1.113695	0.267560	-0.706835
H91	H	-1.047459	0.269975	-0.766127
H92	H	-1.112125	0.201900	-0.770475
H93	H	-1.001128	0.226794	-0.638014
H94	H	-1.065802	0.158716	-0.642344
C95	C	-0.671370	0.121344	-0.270663
C96	C	-0.722185	0.119571	-0.207659
H97	H	-0.701803	0.124063	-0.324085
H98	H	-0.635775	0.166272	-0.265118
H99	H	-0.642079	0.074890	-0.265521
H100	H	-0.751471	0.166028	-0.212798
H101	H	-0.757793	0.074639	-0.213206
C102	C	-0.779370	0.946514	0.018786
C103	C	-0.783163	0.901967	-0.052856
H104	H	-0.732998	0.980520	0.021922
H105	H	-0.824974	0.977083	0.015701
H106	H	-0.777553	0.912146	0.067322
H107	H	-0.784986	0.936335	-0.101393
H108	H	-0.737548	0.871395	-0.049779
C109	C	-0.302518	0.117025	-0.313285
C110	C	-0.353339	0.115245	-0.250287
H111	H	-0.332946	0.119749	-0.366710
H112	H	-0.266923	0.161952	-0.307732
H113	H	-0.273227	0.070571	-0.308145
H114	H	-0.382625	0.161702	-0.255423
H115	H	-0.388948	0.070314	-0.255842
C116	C	-1.123034	0.531105	-0.004433
C117	C	-1.118079	0.487676	-0.075479
H118	H	-1.173918	0.552605	-0.007871
H119	H	-1.115262	0.497515	0.044504
H120	H	-1.083290	0.572659	-0.001759
H121	H	-1.157820	0.446119	-0.078149
H122	H	-1.125861	0.521270	-0.124429
C123	C	-0.505609	0.048112	-0.197639
C124	C	-0.548352	0.116198	-0.195907
H125	H	-0.479856	0.049744	-0.247273
H126	H	-0.467047	0.045492	-0.149965
H127	H	-0.540939	0.002924	-0.196867
H128	H	-0.513021	0.161386	-0.196672
H129	H	-0.586918	0.118826	-0.243593
H130	H	-0.840707	0.012917	-0.832342
C131	C	-1.094378	0.154913	-0.912098
C132	C	-1.041284	0.200032	-0.858282
H133	H	-1.130418	0.188529	-0.944177
H134	H	-1.065703	0.128160	-0.948699
H135	H	-1.123031	0.117457	-0.879913
H136	H	-1.012627	0.237484	-0.890468
H137	H	-1.069963	0.226797	-0.821677
H138	H	-0.790557	0.739292	-0.053363
H139	H	-1.050566	0.705830	-0.070909
H140	H	-1.046568	0.205026	-0.295084
H141	H	-0.190323	0.111199	-0.217690
C142	C	-0.758246	0.377002	0.020174
C143	C	-0.803265	0.354691	-0.054249
H144	H	-0.707362	0.355504	0.023612
H145	H	-0.752435	0.432883	0.020563
H146	H	-0.784405	0.357737	0.066823
H147	H	-0.777108	0.373961	-0.100898
H148	H	-0.809073	0.298798	-0.054645
C149	C	-0.813437	0.570939	0.016464
C150	C	-0.817239	0.526394	-0.055180
H151	H	-0.767063	0.604943	0.019597
H152	H	-0.859037	0.601511	0.013385
H153	H	-0.811618	0.536569	0.064999
H154	H	-0.819064	0.560764	-0.103716
H155	H	-0.771626	0.495820	-0.052109
H156	H	-1.084636	0.330252	-0.073227
C157	C	-0.776050	-0.047371	-0.713781
C158	C	-0.818314	-0.007945	-0.659805
H159	H	-0.740006	-0.080981	-0.681700
H160	H	-0.812071	-0.077968	-0.750289
H161	H	-0.747400	-0.009898	-0.745949
H162	H	-0.846969	-0.045418	-0.627640
H163	H	-0.782288	0.022654	-0.623282
H164	H	-0.861124	0.032018	-0.282623
