data_functionalizedCrystal
_audit_creation_method	'MofGen! by Chris Wilmer'
_symmetry_space_group_name_H-M	'P1'
_symmetry_Int_Tables_number	1
_symmetry_cell_setting	triclinic
loop_
_symmetry_equiv_pos_as_xyz
  x,y,z
_cell_length_a	12.645331
_cell_length_b	12.594516
_cell_length_c	12.645323
_cell_angle_alpha	89.976054
_cell_angle_beta	89.977324
_cell_angle_gamma	90.015032
loop_
_atom_site_label
_atom_site_type_symbol
_atom_site_fract_x
_atom_site_fract_y
_atom_site_fract_z
Zn1	Zn	1.620743	-0.423763	-0.599453
Zn2	Zn	1.620630	-0.601766	-0.422196
Zn3	Zn	1.443458	-0.423799	-0.422197
Zn4	Zn	1.443445	-0.601696	-0.599411
O5	O	1.532069	-0.512756	-0.510814
O6	O	1.769076	-0.447389	-0.575956
O7	O	1.597086	-0.578202	-0.273849
O8	O	1.467028	-0.274848	-0.445729
O9	O	1.768992	-0.578167	-0.445726
O10	O	1.597279	-0.274822	-0.575958
O11	O	1.466918	-0.447451	-0.273850
O12	O	1.295109	-0.447383	-0.445688
O13	O	1.467006	-0.578049	-0.747764
O14	O	1.295099	-0.578084	-0.575887
O15	O	1.597266	-0.447322	-0.747795
O16	O	1.597073	-0.750702	-0.445686
O17	O	1.466896	-0.750651	-0.575885
C18	C	1.256639	-0.512731	-0.510784
C19	C	1.138809	-0.512745	-0.510796
C20	C	0.971216	-0.430143	-0.429340
C21	C	1.093776	-0.430357	-0.428981
C22	C	1.094292	-0.624870	-0.480283
C23	C	0.971694	-0.624419	-0.479727
C24	C	0.971659	-0.484290	-0.623079
C25	C	1.094265	-0.481785	-0.622456
C26	C	1.532000	-0.789297	-0.510804
C27	C	1.532067	-0.907602	-0.510835
C28	C	1.461256	-0.976866	-0.581601
C29	C	1.435425	-1.047727	-0.484868
C30	C	1.557995	-1.047540	-0.607584
C31	C	1.506184	-0.976905	-0.414051
C32	C	1.628799	-0.976712	-0.536833
C33	C	1.603004	-1.047541	-0.440033
C34	C	1.808574	-0.512782	-0.510846
C35	C	1.926404	-0.512793	-0.510859
C36	C	1.532147	-0.512674	-0.787320
C37	C	1.532180	-0.512639	-0.905150
C38	C	1.532168	-0.235135	-0.510848
C39	C	1.532210	-0.116830	-0.510862
C40	C	1.449981	-0.594491	-1.072695
C41	C	1.450196	-0.594897	-0.950135
C42	C	1.643881	-0.543081	-0.949670
C43	C	1.643430	-0.543595	-1.072269
C44	C	1.503736	-0.399885	-1.072346
C45	C	1.501244	-0.400561	-0.949740
C46	C	1.532052	-0.512761	-0.235385
C47	C	1.532224	-0.512496	-0.117555
H48	H	0.943049	-0.648590	-0.397688
H49	H	1.662947	-1.078377	-0.380132
C50	C	1.476502	-0.935166	-0.303501
N51	N	1.454141	-0.903725	-0.220238
C52	C	1.739190	-0.934521	-0.566581
N53	N	1.822334	-0.902734	-0.589003
C54	C	1.587545	-1.089457	-0.718104
N55	N	1.609795	-1.121023	-0.801350
C56	C	1.338297	-0.569157	-0.909465
N57	N	1.254009	-0.549774	-0.878838
H58	H	1.366905	-0.575624	-1.102168
H59	H	1.353687	-1.078944	-0.462901
C60	C	1.475149	-0.706574	-1.114315
N61	N	1.494114	-0.790995	-1.145659
C62	C	1.133566	-0.370309	-0.653535
N63	N	1.163170	-0.286343	-0.676939
C64	C	1.729036	-0.466436	-1.112365
N65	N	1.793520	-0.408328	-1.142560
H66	H	1.469003	-0.678380	-0.920822
H67	H	1.706802	-0.485249	-0.920534
C68	C	1.677061	-0.653132	-0.908222
N69	N	1.702045	-0.736025	-0.877005
H70	H	1.123463	-0.688096	-0.537794
C71	C	1.676043	-0.654809	-1.110925
N72	N	1.700604	-0.738580	-1.140036
H73	H	1.556770	-0.336240	-0.919117
C74	C	1.395606	-0.362403	-1.114084
N75	N	1.314158	-0.334184	-1.145520
C76	C	1.133334	-0.455814	-0.316636
N77	N	1.163129	-0.474993	-0.232014
C78	C	1.380215	-0.934931	-0.662325
N79	N	1.319173	-0.903341	-0.723120
H80	H	0.942051	-0.688084	-0.536513
C81	C	0.931404	-0.317478	-0.454894
N82	N	0.901409	-0.232615	-0.474142
H83	H	0.940369	-0.448774	-0.346669
H84	H	1.563638	-0.338796	-1.101359
H85	H	1.419042	-0.377603	-0.920640
H86	H	1.124948	-0.649457	-0.399125
C87	C	1.134440	-0.318028	-0.454803
N88	N	1.165063	-0.233415	-0.474246
H89	H	0.940760	-0.403956	-0.650830
H90	H	1.124924	-0.537592	-0.686442
H91	H	0.942682	-0.544489	-0.683818
