data_functionalizedCrystal
_audit_creation_method	'MofGen! by Chris Wilmer'
_symmetry_space_group_name_H-M	'P1'
_symmetry_Int_Tables_number	1
_symmetry_cell_setting	triclinic
loop_
_symmetry_equiv_pos_as_xyz
  x,y,z
_cell_length_a	18.426585
_cell_length_b	12.478028
_cell_length_c	12.478026
_cell_angle_alpha	60.562461
_cell_angle_beta	95.297774
_cell_angle_gamma	57.042640
loop_
_atom_site_label
_atom_site_type_symbol
_atom_site_fract_x
_atom_site_fract_y
_atom_site_fract_z
Zr1	Zr	0.601556	1.298541	-0.261682
O2	O	0.458026	1.546019	-0.456481
O3	O	0.657281	1.051057	-0.186052
O4	O	0.626333	1.298542	-0.433538
O5	O	0.500049	1.298534	-0.031876
O6	O	0.745758	1.298551	-0.433544
O7	O	0.488975	1.298533	-0.208994
O8	O	0.801119	0.855844	0.009165
O9	O	0.444687	1.741240	-0.474584
O10	O	0.756007	1.152859	-0.173027
O11	O	0.675146	1.152853	-0.040841
O12	O	0.638708	1.444236	-0.332225
O13	O	0.557847	1.444230	-0.200039
Zr14	Zr	0.809688	1.298555	0.020793
Zr15	Zr	0.792025	1.298554	-0.261691
Zr16	Zr	0.619219	1.298542	0.020802
Zr17	Zr	0.580283	1.609897	-0.290554
Zr18	Zr	0.830961	0.987199	0.049666
O19	O	0.753962	1.546039	-0.054837
O20	O	0.728848	1.546037	-0.456493
O21	O	0.483140	1.546020	-0.054825
O22	O	0.953218	1.051077	0.215592
O23	O	0.928104	1.051075	-0.186064
O24	O	0.682395	1.051058	0.215604
O25	O	0.911195	1.298562	-0.209013
O26	O	0.784911	1.298553	0.192650
O27	O	0.665486	1.298545	0.192655
O28	O	0.922269	1.298563	-0.031894
O29	O	0.596085	1.741251	-0.474591
O30	O	0.815159	0.855845	0.233702
O31	O	0.966556	0.855855	0.233695
O32	O	0.952517	0.855854	0.009158
O33	O	0.458727	1.741241	-0.250047
O34	O	0.610124	1.741252	-0.250054
O35	O	0.772536	1.152860	0.091336
O36	O	0.853397	1.152866	-0.040849
O37	O	0.736098	1.444242	-0.200047
O38	O	0.655237	1.444237	-0.067862
C39	C	0.732231	0.909089	-0.084330
C40	C	0.741262	0.776910	-0.072073
C41	C	0.467374	1.298531	-0.120434
C42	C	0.386515	1.298526	-0.120430
C43	C	0.090395	1.298576	-0.120458
C44	C	0.172782	1.298569	-0.120455
C45	C	0.238452	1.298551	-0.120445
C46	C	0.320844	1.298544	-0.120439
C47	C	0.943870	1.298564	-0.120455
C48	C	1.024729	1.298570	-0.120458
C49	C	0.683529	1.298546	-0.473789
C50	C	0.676030	1.298546	-0.593711
C51	C	0.679012	1.688007	-0.156559
C52	C	0.669981	1.820186	-0.168816
C53	C	0.727715	1.298549	0.232900
C54	C	0.735213	1.298550	0.352822
C55	C	0.970479	0.909105	-0.084340
C56	C	1.060369	0.776932	-0.072087
C57	C	0.754325	0.909090	0.269015
C58	C	0.770854	0.776912	0.401194
C59	C	0.992573	0.909107	0.269004
C60	C	1.089961	0.776934	0.401180
C61	C	0.418671	1.687989	-0.509893
C62	C	0.321283	1.820162	-0.642068
C63	C	0.440765	1.687991	-0.156548
C64	C	0.350874	1.820164	-0.168802
C65	C	0.656919	1.688005	-0.509903
C66	C	0.640390	1.820184	-0.642082
C67	C	1.051745	0.714858	-0.135340
C68	C	1.136196	0.590685	-0.123855
C69	C	1.229272	0.528578	-0.049107
C70	C	1.237894	0.590664	0.014147
C71	C	1.153442	0.714844	0.002652
C72	C	1.177912	0.714867	0.394251
C73	C	1.269424	0.590694	0.518431
C74	C	1.272984	0.528582	0.649539
C75	C	1.185023	0.590661	0.656464
C76	C	1.093512	0.714840	0.532285
C77	C	0.233331	1.882244	-0.635141
C78	C	0.141816	2.006455	-0.759325
C79	C	0.138256	2.068574	-0.890434
C80	C	0.226218	2.006487	-0.897358
C81	C	0.317730	1.882286	-0.773176
C82	C	0.359497	1.882250	-0.105562
C83	C	0.275041	2.006458	-0.117081
C84	C	0.181965	2.068569	-0.191833
C85	C	0.173344	2.006477	-0.255081
C86	C	0.257798	1.882280	-0.243570
C87	C	0.705466	0.822389	0.453297
C88	C	0.720977	0.698211	0.577481
C89	C	0.801881	0.528557	0.649564
C90	C	0.867271	0.483080	0.597451
C91	C	0.851756	0.607257	0.473264
C92	C	0.559482	1.989818	-0.714128
C93	C	0.543947	2.114031	-0.838315
C94	C	0.609317	2.068606	-0.890459
C95	C	0.690234	1.898955	-0.818401
C96	C	0.705771	1.774746	-0.694212
H97	H	0.602045	0.958361	-0.261026
N98	N	0.454573	1.818799	-0.029201
N99	N	0.523450	1.666336	0.075793
H100	H	0.590596	1.621532	0.129721
H101	H	0.809207	0.638723	0.020137
H102	H	1.175032	0.765421	0.287508
N103	N	0.283878	2.069850	-0.052464
N104	N	0.366993	2.014358	0.014285
H105	H	0.373238	2.059124	0.059922
H106	H	0.933144	0.344932	0.656161
H107	H	0.596652	2.169762	-0.991587
N108	N	0.756982	1.852576	-0.871704
N109	N	0.768358	1.766729	-0.904547
H110	H	0.815493	1.733978	-0.942203
N111	N	0.918564	0.560760	0.420071
N112	N	0.990793	0.409272	0.484457
H113	H	1.037981	0.376420	0.446896
H114	H	1.298030	0.427462	-0.039757
N115	N	0.051969	2.069833	-0.752253
N116	N	-0.029737	2.180712	-0.863126
H117	H	-0.093189	2.225462	-0.858130
N118	N	0.407559	1.818895	-0.780289
N119	N	0.404355	1.874381	-0.897366
H120	H	0.467795	1.829619	-0.902401
N121	N	0.492722	2.036271	-0.660859
N122	N	0.420515	2.187749	-0.725185
H123	H	0.373374	2.220572	-0.687552
H124	H	0.791625	1.298545	-0.601206
H125	H	0.619622	1.298533	-0.639679
N126	N	0.956687	0.778251	-0.211688
N127	N	0.949019	0.722794	-0.268151
H128	H	0.881886	0.767558	-0.322078
H129	H	0.478055	2.252159	-0.896971
N130	N	1.127358	0.527300	-0.188480
N131	N	1.044248	0.582761	-0.255197
H132	H	1.038002	0.538000	-0.300839
H133	H	0.771653	1.636624	-0.635564
N134	N	0.248966	1.818860	-0.308154
N135	N	0.215877	1.749588	-0.272456
H136	H	0.209632	1.704803	-0.318073
H137	H	0.236211	1.831673	-0.528397
H138	H	0.097551	2.057067	-0.315944
N139	N	0.622806	0.995679	0.379660
N140	N	0.558512	1.088961	0.254780
H141	H	0.500126	1.211347	0.202774
N142	N	1.332979	0.527194	0.090494
N143	N	1.408367	0.416311	0.100745
H144	H	1.475525	0.371472	0.154673
N145	N	1.162278	0.778222	0.067280
N146	N	1.245391	0.722742	0.134013
H147	H	1.251639	0.767498	0.179660
N148	N	1.359254	0.527317	0.511312
N149	N	1.356054	0.582783	0.394238
H150	H	1.419494	0.538027	0.389205
H151	H	0.667725	0.735272	0.619894
H152	H	1.347504	0.427467	0.750644
H153	H	0.814503	0.427461	0.750683
N154	N	1.003691	0.778172	0.539415
N155	N	0.991375	0.681072	0.607234
H156	H	0.927943	0.725787	0.612285
H157	H	1.187936	0.540070	0.763230
H158	H	0.063734	2.169706	-0.991540
N159	N	0.095701	2.195451	-0.203603
N160	N	0.070315	2.334041	-0.261101
H161	H	0.009393	2.423652	-0.269409
H162	H	0.223307	2.057081	-1.004122
