data_functionalizedCrystal
_audit_creation_method	'MofGen! by Chris Wilmer'
_symmetry_space_group_name_H-M	'P1'
_symmetry_Int_Tables_number	1
_symmetry_cell_setting	triclinic
loop_
_symmetry_equiv_pos_as_xyz
  x,y,z
_cell_length_a	12.759401
_cell_length_b	12.759400
_cell_length_c	12.759393
_cell_angle_alpha	89.968436
_cell_angle_beta	90.019125
_cell_angle_gamma	89.985672
loop_
_atom_site_label
_atom_site_type_symbol
_atom_site_fract_x
_atom_site_fract_y
_atom_site_fract_z
Zn1	Zn	1.606256	0.418214	0.593999
Zn2	Zn	2.106256	0.918214	1.093999
Zn3	Zn	1.606150	0.593933	0.418319
Zn4	Zn	2.106150	1.093933	0.918319
Zn5	Zn	1.430557	0.418268	0.418336
Zn6	Zn	1.930557	0.918268	0.918336
Zn7	Zn	1.430546	0.593851	0.593959
Zn8	Zn	1.930546	1.093851	1.093959
O9	O	1.518377	0.506066	0.506153
O10	O	2.018377	1.006066	1.006153
O11	O	1.753263	0.441536	0.570704
O12	O	2.253263	0.941536	1.070704
O13	O	1.582818	0.570688	0.271300
O14	O	2.082818	1.070688	0.771300
O15	O	1.453913	0.271240	0.441663
O16	O	1.953913	0.771240	0.941663
O17	O	1.753185	0.570636	0.441633
O18	O	2.253185	1.070636	0.941633
O19	O	1.582998	0.271200	0.570721
O20	O	2.082998	0.771200	1.070721
O21	O	1.453811	0.441627	0.271313
O22	O	1.953811	0.941627	0.771313
O23	O	1.283535	0.441547	0.441623
O24	O	1.783535	0.941547	0.941623
O25	O	1.453894	0.570495	0.740985
O26	O	1.953894	1.070495	1.240985
O27	O	1.283527	0.570547	0.570652
O28	O	1.783527	1.070547	1.070652
O29	O	1.582987	0.441456	0.741015
O30	O	2.082987	0.941456	1.241015
O31	O	1.582807	0.740943	0.441594
O32	O	2.082807	1.240943	0.941594
O33	O	1.453791	0.740883	0.570636
O34	O	1.953791	1.240883	1.070636
C35	C	1.245410	0.506045	0.506136
C36	C	1.745410	1.006045	1.006136
C37	C	1.128633	0.506061	0.506154
C38	C	1.628633	1.006061	1.006154
C39	C	0.964020	0.438825	0.439097
C40	C	1.464020	0.938825	0.939097
C41	C	1.073744	0.438803	0.439087
C42	C	1.573744	0.938803	0.939087
C43	C	1.073793	0.573338	0.573243
C44	C	1.573793	1.073338	1.073243
C45	C	0.964071	0.573354	0.573258
C46	C	1.464071	1.073354	1.073258
C47	C	0.909136	0.371570	0.372018
C48	C	1.409136	0.871570	0.872018
C49	C	0.963969	0.304291	0.304930
C50	C	1.463969	0.804291	0.804930
C51	C	1.073693	0.304269	0.304919
C52	C	1.573693	0.804269	0.804919
C53	C	1.128584	0.371526	0.371997
C54	C	1.628584	0.871526	0.871997
C55	C	1.518315	0.779034	0.506131
C56	C	2.018315	1.279034	1.006131
C57	C	1.518384	0.895810	0.506157
C58	C	2.018384	1.395810	1.006157
C59	C	1.518451	0.505960	0.780187
C60	C	2.018451	1.005960	1.280187
C61	C	1.518482	0.505915	0.896963
C62	C	2.018482	1.005915	1.396963
C63	C	1.792410	0.506089	0.506171
C64	C	2.292410	1.006089	1.006171
C65	C	1.909187	0.506099	0.506179
C66	C	2.409187	1.006099	1.006179
C67	C	1.518468	0.232033	0.506198
C68	C	2.018468	0.732033	1.006198
C69	C	1.518507	0.115257	0.506217
C70	C	2.018507	0.615257	1.006217
C71	C	1.585637	0.950669	0.439039
C72	C	2.085637	1.450669	0.939039
C73	C	1.585702	1.060393	0.439072
C74	C	2.085702	1.560393	0.939072
C75	C	1.451252	1.060390	0.573343
C76	C	1.951252	1.560390	1.073343
C77	C	1.451193	0.950668	0.573315
C78	C	1.951193	1.450668	1.073315
C79	C	1.652828	0.895811	0.371882
C80	C	2.152828	1.395811	0.871882
C81	C	1.720086	0.950670	0.304758
C82	C	2.220086	1.450670	0.804758
C83	C	1.720150	1.060394	0.304790
C84	C	2.220150	1.560394	0.804790
C85	C	1.652957	1.115260	0.371947
C86	C	2.152957	1.615260	0.871947
C87	C	1.518364	0.506096	0.233186
C88	C	2.018364	1.006096	0.733186
C89	C	1.518537	0.505845	0.116410
C90	C	2.018537	1.005845	0.616410
C91	C	1.585710	0.438718	0.951843
C92	C	2.085710	0.938718	1.451843
C93	C	1.585735	0.438680	1.061567
C94	C	2.085735	0.938680	1.561567
C95	C	1.451301	0.573046	1.061523
C96	C	1.951301	1.073046	1.561523
C97	C	1.451272	0.573077	0.951801
C98	C	1.951272	1.073077	1.451801
C99	C	1.652920	0.371556	0.897005
C100	C	2.152920	0.871556	1.397005
C101	C	1.720155	0.304354	0.951885
C102	C	2.220155	0.804354	1.451885
C103	C	1.720180	0.304316	1.061609
C104	C	2.220180	0.804316	1.561609
C105	C	1.652970	0.371480	1.116454
C106	C	2.152970	0.871480	1.616454
H107	H	0.819793	0.371582	0.372017
H108	H	1.319793	0.871582	0.872017
F109	F	0.905549	0.232707	0.233554
F110	F	1.405549	0.732707	0.733554
F111	F	1.791665	0.232864	0.893514
F112	F	2.291665	0.732864	1.393514
F113	F	1.132047	0.232657	0.233529
F114	F	1.632047	0.732657	0.733529
F115	F	1.245364	0.371494	0.371987
F116	F	1.745364	0.871494	0.871987
F117	F	1.791739	1.118776	0.233362
F118	F	2.291739	1.618776	0.733362
F119	F	1.791602	0.892278	0.233298
F120	F	2.291602	1.392278	0.733298
H121	H	1.396431	0.906002	0.627969
H122	H	1.896431	1.406002	1.127969
H123	H	1.653024	1.204604	0.371976
H124	H	2.153024	1.704604	0.871976
F125	F	1.132215	0.644917	0.644621
F126	F	1.632215	1.144917	1.144621
F127	F	1.791735	0.232796	1.120012
F128	F	2.291735	0.732796	1.620012
H129	H	1.652984	0.371431	1.205799
H130	H	2.152984	0.871431	1.705799
H131	H	1.652910	0.371582	0.807663
H132	H	2.152910	0.871582	1.307663
H133	H	1.396546	1.105070	0.628017
H134	H	1.896546	1.605070	1.128017
H135	H	1.396513	0.627779	0.907117
H136	H	1.896513	1.127779	1.407117
F137	F	0.905710	0.644951	0.644657
F138	F	1.405710	1.144951	1.144657
H139	H	1.652780	0.806469	0.371845
H140	H	2.152780	1.306469	0.871845
F141	F	1.379780	0.644523	1.119896
F142	F	1.879780	1.144523	1.619896
