data_functionalizedCrystal
_audit_creation_method	'MofGen! by Chris Wilmer'
_symmetry_space_group_name_H-M	'P1'
_symmetry_Int_Tables_number	1
_symmetry_cell_setting	triclinic
loop_
_symmetry_equiv_pos_as_xyz
  x,y,z
_cell_length_a	23.532355
_cell_length_b	16.992695
_cell_length_c	15.455313
_cell_angle_alpha	87.152573
_cell_angle_beta	87.341931
_cell_angle_gamma	93.252139
loop_
_atom_site_label
_atom_site_type_symbol
_atom_site_fract_x
_atom_site_fract_y
_atom_site_fract_z
O1	O	0.762326	-0.091511	-0.072013
O2	O	1.095660	0.241822	0.261320
O3	O	1.428993	0.575155	0.594654
O4	O	0.597145	-0.105320	-0.072041
O5	O	0.930478	0.228014	0.261293
O6	O	1.263811	0.561347	0.594626
O7	O	0.679073	0.015722	-0.072020
O8	O	1.012406	0.349055	0.261313
O9	O	1.345740	0.682388	0.594647
O10	O	0.680398	-0.212552	-0.072033
O11	O	1.013731	0.120781	0.261300
O12	O	1.347065	0.454114	0.594633
O13	O	0.674387	0.008828	0.072241
O14	O	1.007720	0.342162	0.405574
O15	O	1.341053	0.675495	0.738908
O16	O	0.592458	-0.112213	0.072220
O17	O	0.925792	0.221120	0.405554
O18	O	1.259125	0.554454	0.738887
O19	O	0.757640	-0.098405	0.072248
O20	O	1.090973	0.234929	0.405581
O21	O	1.424307	0.568262	0.738915
Cu22	Cu	0.674621	-0.105938	0.085406
Cu23	Cu	1.007955	0.227395	0.418740
Cu24	Cu	1.341288	0.560728	0.752073
Cu25	Cu	0.680163	-0.097786	-0.085199
Cu26	Cu	1.013497	0.235547	0.248134
Cu27	Cu	1.346830	0.568881	0.581468
O28	O	0.675712	-0.219446	0.072227
O29	O	1.009045	0.113888	0.405561
O30	O	1.342378	0.447221	0.738894
C31	C	0.573568	-0.108421	0.000086
C32	C	0.906901	0.224912	0.333420
C33	C	1.240235	0.558246	0.666753
C34	C	0.510298	-0.107383	0.000076
C35	C	0.843632	0.225951	0.333409
C36	C	1.176965	0.559284	0.666743
C37	C	0.115405	-0.104621	0.078749
C38	C	0.448738	0.228712	0.412083
C39	C	0.782072	0.562046	0.745416
C40	C	0.055957	-0.103634	0.078753
C41	C	0.389290	0.229700	0.412086
C42	C	0.722623	0.563033	0.745420
O43	O	0.023039	-0.106292	0.145629
O44	O	0.356372	0.227041	0.478963
O45	O	0.689705	0.560375	0.812296
N46	N	0.028778	-0.099387	0.000117
N47	N	0.362112	0.233947	0.333450
N48	N	0.695445	0.567280	0.666783
C49	C	0.061052	-0.096119	-0.078528
C50	C	0.394386	0.237215	0.254805
C51	C	0.727719	0.570548	0.588138
O52	O	0.032476	-0.092415	-0.145414
O53	O	0.365810	0.240919	0.187919
O54	O	0.699143	0.574252	0.521252
C55	C	0.120500	-0.097100	-0.078531
C56	C	0.453833	0.236233	0.254802
C57	C	0.787167	0.569566	0.588136
C58	C	0.147675	-0.101356	0.000111
C59	C	0.481008	0.231978	0.333444
C60	C	0.814341	0.565311	0.666777
C61	C	0.142580	-0.108875	0.157384
C62	C	0.475913	0.224458	0.490718
C63	C	0.809247	0.557791	0.824051
C64	C	0.202024	-0.109864	0.157381
C65	C	0.535358	0.223470	0.490714
C66	C	0.868691	0.556803	0.824047
C67	C	0.234294	-0.106598	0.078742
C68	C	0.567627	0.226735	0.412075
C69	C	0.900960	0.560068	0.745409
C70	C	0.207119	-0.102344	0.000107
C71	C	0.540452	0.230989	0.333440
C72	C	0.873786	0.564322	0.666774
C73	C	0.152773	-0.093827	-0.157175
C74	C	0.486106	0.239507	0.176159
C75	C	0.819440	0.572840	0.509492
C76	C	0.212224	-0.094808	-0.157171
C77	C	0.545558	0.238525	0.176163
C78	C	0.878891	0.571859	0.509496
C79	C	0.239399	-0.099063	-0.078529
C80	C	0.572732	0.234270	0.254804
C81	C	0.906066	0.567603	0.588138
C82	C	0.298833	-0.100067	-0.078536
C83	C	0.632166	0.233266	0.254798
C84	C	0.965499	0.566599	0.588131
N85	N	0.326011	-0.104314	0.000101
N86	N	0.659344	0.229019	0.333434
N87	N	0.992678	0.562352	0.666767
C88	C	0.293742	-0.107580	0.078739
C89	C	0.627075	0.225753	0.412073
C90	C	0.960408	0.559087	0.745406
C91	C	-0.063792	-0.094056	-0.078517
C92	C	0.269541	0.239277	0.254816
C93	C	0.602875	0.572611	0.588150
C94	C	-0.123239	-0.093080	-0.078516
C95	C	0.210094	0.240253	0.254818
C96	C	0.543428	0.573587	0.588151
C97	C	-0.128330	-0.100594	0.078766
C98	C	0.205003	0.232740	0.412099
C99	C	0.538336	0.566073	0.745433
C100	C	-0.068883	-0.101575	0.078764
C101	C	0.264451	0.231758	0.412097
C102	C	0.597784	0.565091	0.745430
C103	C	-0.036614	-0.098303	0.000119
C104	C	0.296720	0.235030	0.333453
C105	C	0.630053	0.568364	0.666786
C106	C	0.418579	-0.109657	0.078726
C107	C	0.751912	0.223677	0.412059
C108	C	1.085246	0.557010	0.745392
C109	C	0.478029	-0.110648	0.078715
C110	C	0.811362	0.222685	0.412048
C111	C	1.144695	0.556018	0.745382
C112	C	0.483115	-0.103130	-0.078566
C113	C	0.816449	0.230203	0.254767
C114	C	1.149782	0.563537	0.588101
C115	C	0.423671	-0.102143	-0.078556
C116	C	0.757004	0.231191	0.254777
C117	C	1.090337	0.564524	0.588111
C118	C	0.391404	-0.105404	0.000097
C119	C	0.724737	0.227930	0.333430
C120	C	1.058071	0.561263	0.666764
O121	O	0.331787	-0.097408	-0.145378
O122	O	0.665121	0.235925	0.187955
O123	O	0.998454	0.569259	0.521289
O124	O	0.322326	-0.111273	0.145614
O125	O	0.655659	0.222060	0.478948
O126	O	0.988992	0.555394	0.812281
C127	C	0.675026	0.041474	0.000110
C128	C	1.008360	0.374807	0.333444
C129	C	1.341693	0.708140	0.666777
C130	C	0.669943	0.128477	0.000109
C131	C	1.003276	0.461810	0.333442
C132	C	1.336610	0.795144	0.666776
C133	C	0.781217	-0.095303	0.000119
C134	C	1.114550	0.238030	0.333453
C135	C	1.447883	0.571363	0.666786
C136	C	0.844487	-0.096341	0.000124
C137	C	1.177820	0.236992	0.333457
C138	C	1.511153	0.570325	0.666791
C139	C	0.679758	-0.245198	0.000095
C140	C	1.013092	0.088135	0.333429
C141	C	1.346425	0.421469	0.666762
C142	C	0.684842	-0.332201	0.000091
C143	C	1.018175	0.001132	0.333424
C144	C	1.351509	0.334466	0.666758
N145	N	0.670727	-0.111672	0.205401
N146	N	1.004061	0.221662	0.538734
N147	N	1.337394	0.554995	0.872068
C148	C	0.718990	0.179112	0.000118
C149	C	1.052323	0.512445	0.333452
C150	C	1.385656	0.845778	0.666785
C151	C	0.714210	0.260860	0.000109
C152	C	1.047544	0.594194	0.333443
C153	C	1.380877	0.927527	0.666776
C154	C	0.660383	0.291972	0.000097
C155	C	0.993717	0.625306	0.333431
C156	C	1.327050	0.958639	0.666764
C157	C	0.611333	0.241331	0.000086
C158	C	0.944667	0.574665	0.333419
C159	C	1.278000	0.907998	0.666752
C160	C	0.616113	0.159585	0.000088
C161	C	0.949447	0.492918	0.333422
C162	C	1.282780	0.826251	0.666755
C163	C	0.640572	0.535411	0.000082
C164	C	0.973905	0.868745	0.333415
C165	C	1.307238	1.202078	0.666749
C166	C	0.635795	0.617164	0.000082
C167	C	0.969129	0.950498	0.333415
C168	C	1.302462	1.283831	0.666748
C169	C	0.738673	0.636688	0.000104
C170	C	1.072006	0.970021	0.333437
C171	C	1.405340	1.303354	0.666770
C172	C	0.743448	0.554938	0.000112
C173	C	1.076781	0.888272	0.333445
C174	C	1.410115	1.221605	0.666778
C175	C	0.694398	0.504305	0.000096
C176	C	1.027731	0.837638	0.333429
C177	C	1.361065	1.170971	0.666762
N178	N	0.655497	0.375532	0.000091
N179	N	0.988830	0.708865	0.333424
N180	N	1.322163	1.042199	0.666757
N181	N	0.699285	0.420747	0.000096
N182	N	1.032619	0.754080	0.333429
N183	N	1.365952	1.087414	0.666762
N184	N	0.684061	-0.092047	-0.205193
N185	N	1.017395	0.241287	0.128140
N186	N	1.350728	0.574620	0.461473
C187	C	0.705547	-0.060268	0.250804
C188	C	1.038880	0.273066	0.584137
C189	C	1.372214	0.606399	0.917471
C190	C	0.702608	-0.064611	0.341611
C191	C	1.035941	0.268723	0.674944
C192	C	1.369275	0.602056	1.008278
C193	C	0.664851	-0.120362	0.387014
C194	C	0.998185	0.212971	0.720347
C195	C	1.331518	0.546305	1.053680
C196	C	0.630028	-0.171768	0.341604
C197	C	0.963361	0.161565	0.674938
C198	C	1.296695	0.494899	1.008271
C199	C	0.632965	-0.167421	0.250799
C200	C	0.966298	0.165913	0.584132
C201	C	1.299631	0.499246	0.917466
C202	C	0.652175	-0.139105	0.658592
C203	C	0.985508	0.194228	0.991925
C204	C	1.318841	0.527561	1.325259
C205	C	0.649242	-0.143450	0.749404
C206	C	0.982575	0.189883	1.082737
C207	C	1.315908	0.523216	1.416070
C208	C	0.721821	-0.036292	0.749404
C209	C	1.055155	0.297042	1.082737
C210	C	1.388488	0.630375	1.416071
C211	C	0.724757	-0.031952	0.658597
C212	C	1.058091	0.301381	0.991930
C213	C	1.391424	0.634714	1.325263
C214	C	0.689931	-0.083356	0.613196
C215	C	1.023265	0.249978	0.946529
C216	C	1.356598	0.583311	1.279862
N217	N	0.661847	-0.124804	0.479833
N218	N	0.995181	0.208529	0.813166
N219	N	1.328514	0.541863	1.146500
N220	N	0.692933	-0.078909	0.520378
N221	N	1.026266	0.254424	0.853711
N222	N	1.359600	0.587757	1.187044
H223	H	-0.145360	-0.089627	-0.142553
H224	H	0.187973	0.243706	0.190780
H225	H	0.521307	0.577039	0.524113
H226	H	0.730960	-0.022753	0.378578
H227	H	1.064294	0.310580	0.711911
H228	H	1.397627	0.643913	1.045244
H229	H	0.599283	-0.217159	0.378576
H230	H	0.932616	0.116174	0.711910
H231	H	1.265949	0.449507	1.045243
H232	H	0.755501	0.013445	0.621632
H233	H	1.088835	0.346778	0.954965
H234	H	1.422168	0.680111	1.288298
H235	H	0.736295	-0.014872	0.213843
H236	H	1.069628	0.318461	0.547176
H237	H	1.402962	0.651794	0.880510
H238	H	0.778607	0.677922	0.000115
H239	H	1.111940	1.011255	0.333449
H240	H	1.445273	1.344589	0.666782
H241	H	0.623819	-0.180962	0.621633
H242	H	0.957152	0.152372	0.954967
H243	H	1.290486	0.485705	1.288300
H244	H	0.787279	0.529614	0.000122
H245	H	1.120613	0.862947	0.333455
H246	H	1.453946	1.196280	0.666788
H247	H	-0.046761	-0.105041	0.142800
H248	H	0.286572	0.228292	0.476134
H249	H	0.619905	0.561625	0.809467
H250	H	0.750174	0.005559	0.786378
H251	H	1.083508	0.338893	1.119711
H252	H	1.416841	0.672226	1.453045
H253	H	0.604610	-0.209278	0.213833
H254	H	0.937943	0.124055	0.547166
H255	H	1.271277	0.457389	0.880499
H256	H	0.224145	-0.113324	0.221419
H257	H	0.557478	0.220009	0.554752
H258	H	0.890811	0.553343	0.888085
H259	H	0.591960	0.642491	0.000086
H260	H	0.925294	0.975825	0.333419
H261	H	1.258627	1.309158	0.666753
H262	H	0.500151	-0.114116	0.142757
H263	H	0.833485	0.219217	0.476090
H264	H	1.166818	0.552551	0.809424
H265	H	0.600631	0.494195	0.000069
H266	H	0.933965	0.827528	0.333402
H267	H	1.267298	1.160861	0.666736
H268	H	0.754149	0.302084	0.000118
H269	H	1.087483	0.635418	0.333452
H270	H	1.420816	0.968751	0.666785
H271	H	0.392314	-0.112319	0.142772
H272	H	0.725647	0.221014	0.476106
H273	H	1.058981	0.554348	0.809439
H274	H	0.401543	-0.098690	-0.142592
H275	H	0.734877	0.234643	0.190741
H276	H	1.068210	0.567976	0.524075
H277	H	-0.037522	-0.091398	-0.142563
H278	H	0.295811	0.241935	0.190771
H279	H	0.629144	0.575268	0.524104
H280	H	-0.154615	-0.103251	0.142798
H281	H	0.178718	0.230082	0.476131
H282	H	0.512052	0.563415	0.809465
H283	H	0.567506	0.266669	0.000070
H284	H	0.900840	0.600003	0.333404
H285	H	1.234173	0.933336	0.666737
H286	H	0.130658	-0.090360	-0.221213
H287	H	0.463991	0.242973	0.112120
H288	H	0.797325	0.576306	0.445453
H289	H	0.238495	-0.092144	-0.221214
H290	H	0.571828	0.241190	0.112120
H291	H	0.905162	0.574523	0.445453
H292	H	0.762821	0.153787	0.000133
H293	H	1.096154	0.487120	0.333467
H294	H	1.429488	0.820454	0.666800
H295	H	0.576174	0.118358	0.000081
H296	H	0.909507	0.451691	0.333414
H297	H	1.242841	0.785025	0.666747
H298	H	0.116312	-0.111533	0.221425
H299	H	0.449646	0.221801	0.554759
H300	H	0.782979	0.555134	0.888092
H301	H	0.509400	-0.100475	-0.142592
H302	H	0.842733	0.232859	0.190742
H303	H	1.176066	0.566192	0.524075
H304	H	0.618494	-0.188853	0.786366
H305	H	0.951828	0.144480	1.119700
H306	H	1.285161	0.477814	1.453033
