data_functionalizedCrystal
_audit_creation_method	'MofGen! by Chris Wilmer'
_symmetry_space_group_name_H-M	'P1'
_symmetry_Int_Tables_number	1
_symmetry_cell_setting	triclinic
loop_
_symmetry_equiv_pos_as_xyz
  x,y,z
_cell_length_a	19.077105
_cell_length_b	12.827892
_cell_length_c	19.076919
_cell_angle_alpha	92.275535
_cell_angle_beta	90.076224
_cell_angle_gamma	87.711903
loop_
_atom_site_label
_atom_site_type_symbol
_atom_site_fract_x
_atom_site_fract_y
_atom_site_fract_z
Zn1	Zn	1.058323	-0.505562	-0.440440
Zn2	Zn	1.062981	-0.673587	-0.322941
Zn3	Zn	0.945540	-0.491563	-0.318233
Zn4	Zn	0.940802	-0.672957	-0.435693
O5	O	1.001912	-0.585917	-0.379327
O6	O	1.157274	-0.533973	-0.428810
O7	O	1.051334	-0.643846	-0.223985
O8	O	0.960534	-0.347187	-0.334460
O9	O	1.160695	-0.657421	-0.342484
O10	O	1.043396	-0.357472	-0.424245
O11	O	0.965050	-0.510114	-0.220526
O12	O	0.846579	-0.509503	-0.329857
O13	O	0.952460	-0.656347	-0.534655
O14	O	0.843098	-0.642772	-0.416155
O15	O	1.038802	-0.533362	-0.538142
O16	O	1.046740	-0.819737	-0.337881
O17	O	0.956976	-0.819274	-0.420720
C18	C	0.819342	-0.574551	-0.371981
C19	C	0.741237	-0.569714	-0.368855
C20	C	0.702753	-0.636925	-0.412246
C21	C	0.629365	-0.632367	-0.409312
C22	C	0.594463	-0.560602	-0.362983
C23	C	0.632953	-0.493385	-0.319590
C24	C	0.706339	-0.497938	-0.322528
C25	C	0.375174	-0.539528	-0.349389
C26	C	0.301782	-0.534981	-0.346453
C27	C	0.298199	-0.673963	-0.436177
C28	C	0.371587	-0.678514	-0.439108
C29	C	0.410071	-0.611293	-0.395717
N30	N	0.519449	-0.555944	-0.359982
N31	N	0.485083	-0.615947	-0.398723
C32	C	1.001868	-0.857424	-0.379313
C33	C	1.001913	-0.973581	-0.379333
C34	C	1.046380	-1.025566	-0.338391
C35	C	1.046427	-1.145620	-0.338411
C36	C	1.185194	-0.597329	-0.386702
C37	C	1.263298	-0.602192	-0.389845
C38	C	0.994583	-0.596346	-0.562607
C39	C	0.991460	-0.600790	-0.640711
C40	C	1.001974	-0.313353	-0.379357
C41	C	1.002000	-0.197202	-0.379370
C42	C	1.034945	-0.538849	-0.679221
C43	C	1.032002	-0.543020	-0.752607
C44	C	0.985578	-0.609138	-0.787481
C45	C	0.942089	-0.671081	-0.748966
C46	C	0.945028	-0.666904	-0.675581
C47	C	0.971962	-0.628492	-1.006763
C48	C	0.969027	-0.632667	-1.080153
C49	C	1.058939	-0.504604	-1.083789
C50	C	1.061878	-0.500438	-1.010402
C51	C	1.018386	-0.562376	-0.971894
N52	N	0.982570	-0.613406	-0.862494
N53	N	1.021391	-0.558103	-0.896882
C54	C	1.009252	-0.575456	-0.196761
C55	C	1.012511	-0.570727	-0.118663
H56	H	0.604530	-0.434948	-0.281871
H57	H	0.598034	-0.687098	-0.444645
H58	H	0.963881	-1.017954	-0.414402
H59	H	0.931220	-0.686511	-1.108546
H60	H	0.273368	-0.476530	-0.308731
C61	C	0.482491	-0.747192	-0.483456
C62	C	0.409950	-0.757390	-0.490041
H63	H	0.506173	-0.795892	-0.514899
H64	H	0.494108	-0.678344	-0.494299
H65	H	0.496388	-0.760443	-0.436706
H66	H	0.396051	-0.744131	-0.536791
H67	H	0.398328	-0.826254	-0.479203
C68	C	0.184113	-0.728689	-0.471520
C69	C	0.255897	-0.747840	-0.483877
H70	H	0.157998	-0.774295	-0.500974
H71	H	0.173964	-0.740447	-0.423814
H72	H	0.171691	-0.658340	-0.481402
H73	H	0.268320	-0.818187	-0.473989
H74	H	0.266049	-0.736090	-0.531593
H75	H	0.963926	-1.152504	-0.414421
H76	H	0.737673	-0.443203	-0.287198
C77	C	0.371334	-0.401695	-0.260409
C78	C	0.417468	-0.465640	-0.301694
H79	H	0.397448	-0.356081	-0.230961
H80	H	0.341495	-0.361772	-0.289927
H81	H	0.343777	-0.443868	-0.232331
H82	H	0.445021	-0.423467	-0.329776
H83	H	0.447319	-0.505566	-0.272173
C84	C	0.909610	-0.717357	-0.561471
C85	C	0.897230	-0.734990	-0.633248
H86	H	0.880094	-0.759386	-0.535338
H87	H	0.957294	-0.734911	-0.551349
H88	H	0.899824	-0.645816	-0.549048
H89	H	0.907021	-0.806530	-0.645672
H90	H	0.849534	-0.717443	-0.643374
H91	H	1.094347	-0.454176	-1.115150
H92	H	1.067413	-0.492584	-0.783958
H93	H	1.099683	-0.446600	-0.982013
C94	C	1.123517	-0.412676	-0.690192
C95	C	1.085974	-0.466167	-0.640890
H96	H	1.155016	-0.367798	-0.666528
H97	H	1.149238	-0.461508	-0.719891
H98	H	1.091754	-0.372432	-0.717587
H99	H	1.117737	-0.506417	-0.613498
H100	H	1.060251	-0.417328	-0.611179
H101	H	0.936558	-0.678943	-0.975419
C102	C	0.928987	-0.815738	-0.831079
C103	C	0.891058	-0.743761	-0.787299
H104	H	0.897482	-0.860612	-0.854739
H105	H	0.954457	-0.779446	-0.864515
H106	H	0.960737	-0.855983	-0.803671
H107	H	0.859311	-0.703510	-0.814707
H108	H	0.865576	-0.780056	-0.753859
C109	C	0.691832	-0.773833	-0.500645
C110	C	0.741113	-0.715808	-0.463176
H111	H	0.715514	-0.822526	-0.532092
H112	H	0.664426	-0.810215	-0.468838
H113	H	0.662142	-0.728107	-0.526426
H114	H	0.770800	-0.761534	-0.437391
H115	H	0.768532	-0.679425	-0.494987
H116	H	1.084418	-0.981195	-0.303327
C117	C	1.087959	-1.313216	-0.300309
C118	C	1.097849	-1.205965	-0.291117
H119	H	1.119717	-1.350470	-0.271121
H120	H	1.041179	-1.327610	-0.288073
H121	H	1.096287	-1.334305	-0.347966
H122	H	1.089516	-1.184874	-0.243461
H123	H	1.144641	-1.191564	-0.303348
