data_functionalizedCrystal
_audit_creation_method	'MofGen! by Chris Wilmer'
_symmetry_space_group_name_H-M	'P1'
_symmetry_Int_Tables_number	1
_symmetry_cell_setting	triclinic
loop_
_symmetry_equiv_pos_as_xyz
  x,y,z
_cell_length_a	21.606444
_cell_length_b	23.196402
_cell_length_c	23.196402
_cell_angle_alpha	60.000975
_cell_angle_beta	90.002270
_cell_angle_gamma	60.004848
loop_
_atom_site_label
_atom_site_type_symbol
_atom_site_fract_x
_atom_site_fract_y
_atom_site_fract_z
Zr1	Zr	0.596301	0.630976	-0.075622
O2	O	0.497486	0.751237	-0.167670
O3	O	0.626583	0.510715	-0.047407
O4	O	0.626593	0.630976	-0.167672
O5	O	0.497479	0.630976	0.047466
O6	O	0.728445	0.630976	-0.167671
O7	O	0.497477	0.630976	-0.047405
O8	O	0.728428	0.415850	0.047461
O9	O	0.497497	0.846101	-0.167666
O10	O	0.715521	0.560180	-0.035369
O11	O	0.639512	0.560180	0.035431
O12	O	0.639523	0.701772	-0.106166
O13	O	0.563514	0.701772	-0.035366
Zr14	Zr	0.758747	0.630976	0.075688
Zr15	Zr	0.758743	0.630976	-0.075619
Zr16	Zr	0.596305	0.630976	0.075686
Zr17	Zr	0.596317	0.782273	-0.075616
Zr18	Zr	0.758730	0.479678	0.075683
O19	O	0.728464	0.751237	0.047474
O20	O	0.728458	0.751237	-0.167666
O21	O	0.497492	0.751237	0.047471
O22	O	0.857561	0.510714	0.167736
O23	O	0.857555	0.510714	-0.047404
O24	O	0.626589	0.510714	0.167733
O25	O	0.857568	0.630976	-0.047399
O26	O	0.728454	0.630975	0.167739
O27	O	0.626602	0.630976	0.167737
O28	O	0.857571	0.630975	0.047471
O29	O	0.626617	0.846101	-0.167664
O30	O	0.728431	0.415850	0.167731
O31	O	0.857551	0.415850	0.167733
O32	O	0.857548	0.415850	0.047463
O33	O	0.497500	0.846101	-0.047397
O34	O	0.626620	0.846101	-0.047395
O35	O	0.715524	0.560180	0.106233
O36	O	0.791533	0.560180	0.035433
O37	O	0.715536	0.701772	-0.035364
O38	O	0.639527	0.701772	0.035436
C39	C	0.677503	0.441726	0.000026
C40	C	0.677496	0.377496	0.000024
C41	C	0.733609	0.295068	0.052285
C42	C	0.733615	0.234707	0.052291
C43	C	0.677512	0.256780	0.000026
C44	C	0.621389	0.339223	-0.052240
C45	C	0.621381	0.399581	-0.052241
C46	C	0.660040	0.201193	-0.063766
C47	C	0.660053	0.140834	-0.063765
C48	C	0.677533	0.070619	0.000029
C49	C	0.695016	0.060760	0.063827
C50	C	0.695008	0.121118	0.063826
C51	C	0.677514	0.191338	0.000022
C52	C	0.733655	-0.077263	0.052301
C53	C	0.733655	-0.137623	0.052308
C54	C	0.621432	-0.033104	-0.052228
C55	C	0.621429	0.027253	-0.052230
C56	C	0.677544	0.005168	0.000035
C57	C	0.474333	0.630976	0.000030
C58	C	0.405372	0.630976	0.000029
C59	C	0.372973	0.630978	-0.052237
C60	C	0.308179	0.630974	-0.052235
C61	C	0.275783	0.630974	0.000032
C62	C	0.308188	0.630969	0.052304
C63	C	0.372984	0.630967	0.052304
C64	C	0.046875	0.630975	0.052307
C65	C	-0.017927	0.630979	0.052302
C66	C	-0.017931	0.630982	-0.052232
C67	C	0.046865	0.630980	-0.052232
C68	C	0.079267	0.630971	0.000042
C69	C	0.149525	0.630974	0.000039
C70	C	0.205523	0.630977	0.000032
C71	C	0.880714	0.630975	0.000036
C72	C	0.949675	0.630975	0.000037
C73	C	0.677519	0.630976	-0.189230
C74	C	0.677517	0.630976	-0.253464
C75	C	0.677544	0.820225	0.000040
C76	C	0.677551	0.884455	0.000043
C77	C	0.621414	0.630985	-0.716305
C78	C	0.621414	0.630980	-0.655947
C79	C	0.677525	0.630980	-0.625765
C80	C	0.733651	0.630966	-0.655934
C81	C	0.733654	0.630964	-0.716287
C82	C	0.695015	0.678484	-0.553897
C83	C	0.695007	0.678492	-0.493548
C84	C	0.677520	0.630985	-0.439616
C85	C	0.660024	0.583480	-0.446045
C86	C	0.660027	0.583478	-0.506398
C87	C	0.677528	0.630983	-0.560322
C88	C	0.621400	0.630987	-0.344004
C89	C	0.621405	0.630976	-0.283643
C90	C	0.733639	0.630971	-0.283635
C91	C	0.733637	0.630974	-0.343991
C92	C	0.677514	0.630985	-0.374174
C93	C	0.677529	0.630976	0.189296
C94	C	0.677531	0.630975	0.253530
C95	C	0.880694	0.441726	0.000029
C96	C	0.949648	0.377496	0.000028
C97	C	0.677508	0.441726	0.189289
C98	C	0.677503	0.377496	0.253521
C99	C	0.880699	0.441725	0.189292
C100	C	0.949654	0.377496	0.253525
C101	C	0.474349	0.820226	-0.189225
C102	C	0.405393	0.884456	-0.253458
C103	C	0.474354	0.820226	0.000038
C104	C	0.405400	0.884455	0.000039
C105	C	0.677539	0.820226	-0.189223
C106	C	0.677544	0.884455	-0.253454
C107	C	0.942351	0.347333	-0.036937
C108	C	1.007135	0.286991	-0.036953
C109	C	1.079214	0.256808	0.000001
C110	C	1.086509	0.286977	0.036967
C111	C	1.021726	0.347322	0.036978
C112	C	0.717179	0.347333	0.320649
C113	C	0.717171	0.286991	0.381007
C114	C	0.677492	0.256809	0.374236
C115	C	0.637811	0.286978	0.307101
C116	C	0.637815	0.347323	0.246744
C117	C	1.021719	0.347333	0.246732
C118	C	1.086517	0.286990	0.307080
C119	C	1.079248	0.256808	0.374220
C120	C	1.007175	0.286977	0.381011
C121	C	0.942379	0.347322	0.320664
C122	C	0.333328	0.914626	-0.246666
C123	C	0.268531	0.974987	-0.307013
C124	C	0.275800	1.005173	-0.374153
C125	C	0.347873	0.975000	-0.380944
C126	C	0.412668	0.914644	-0.320597
C127	C	0.412696	0.914625	0.036998
C128	C	0.347913	0.974984	0.036996
C129	C	0.275834	1.005168	0.000040
C130	C	0.268539	0.974996	-0.036923
C131	C	0.333322	0.914643	-0.036925
C132	C	0.717231	0.914618	-0.246660
C133	C	0.717251	0.974961	-0.307007
C134	C	0.677579	1.005144	-0.374147
C135	C	0.637891	0.974975	-0.380940
C136	C	0.637876	0.914629	-0.320594
H137	H	0.779309	0.167581	0.094851
F138	F	0.191821	1.007128	-0.076250
H139	H	0.575703	0.630993	-0.368578
H140	H	0.223033	1.054318	-0.423286
F141	F	0.865645	0.379447	-0.076274
H142	H	0.575740	0.094372	-0.094790
H143	H	0.575710	0.630979	-0.259080
F144	F	0.999450	0.254846	0.452471
F145	F	0.641433	0.275922	-0.131669
H146	H	0.471381	0.890053	0.067096
H147	H	0.575717	0.630992	-0.740877
H148	H	0.749486	0.262434	0.435666
H149	H	0.327395	0.890052	-0.192003
F150	F	0.325544	0.882536	-0.076260
F151	F	0.865684	0.379414	0.327904
H152	H	0.073250	0.630969	0.094869
H153	H	-0.044302	0.630977	0.094867
F154	F	1.029473	0.379448	0.175283
F155	F	0.759459	0.882507	-0.175210
F156	F	0.677495	0.192583	0.438480
F157	F	0.793383	0.630953	-0.748392
H158	H	0.223090	1.054312	0.000048
F159	F	0.595585	0.254846	0.299905
H160	H	0.209852	0.999543	-0.301470
F161	F	0.793360	0.630964	-0.251512
H162	H	0.605509	0.371874	0.192088
F163	F	0.407467	0.630961	0.107936
H164	H	0.575752	-0.015130	-0.094783
F165	F	1.163227	0.254845	0.076296
F166	F	0.355597	1.007132	-0.452405
H167	H	0.471345	0.890080	-0.326136
F168	F	0.561684	0.630990	-0.623839
H169	H	0.575684	0.466702	-0.094797
F170	F	1.148155	0.192582	-0.000016
F171	F	0.355693	1.007081	0.076342
H172	H	0.605591	0.999559	-0.435613
H173	H	1.027677	0.371873	0.067084
H174	H	0.749569	0.999518	-0.301462
F175	F	0.677600	1.069371	-0.438367
F176	F	0.081339	0.630985	-0.107864
F177	F	0.759416	0.379442	0.327872
H178	H	0.709244	0.003591	0.115773
H179	H	0.605555	0.890077	-0.326135
H180	H	0.709241	0.113088	0.115771
F181	F	0.273713	0.630962	0.107935
H182	H	0.779302	0.277078	0.094843
H183	H	0.645784	0.544797	-0.511628
F184	F	0.793361	0.630968	-0.376100
H185	H	0.709249	0.717176	-0.488321
H186	H	0.709254	0.717176	-0.597809
F187	F	0.793370	0.630963	-0.623810
F188	F	1.148216	0.192582	0.438441
F189	F	0.793375	-0.100765	0.107926
H190	H	1.145196	0.262433	0.301538
H191	H	0.645820	0.148866	-0.115712
F192	F	0.793377	-0.225356	0.107939
H193	H	0.575710	0.357192	-0.094794
H194	H	0.399343	0.630984	-0.094802
H195	H	0.645782	0.544797	-0.402133
H196	H	0.281800	0.630975	-0.094794
H197	H	1.001180	0.262435	-0.067055
H198	H	-0.044318	0.630986	-0.094795
