data_functionalizedCrystal
_audit_creation_method	'MofGen! by Chris Wilmer'
_symmetry_space_group_name_H-M	'P1'
_symmetry_Int_Tables_number	1
_symmetry_cell_setting	triclinic
loop_
_symmetry_equiv_pos_as_xyz
  x,y,z
_cell_length_a	9.065218
_cell_length_b	10.654551
_cell_length_c	8.140239
_cell_angle_alpha	89.998240
_cell_angle_beta	89.997198
_cell_angle_gamma	84.750657
loop_
_atom_site_label
_atom_site_type_symbol
_atom_site_fract_x
_atom_site_fract_y
_atom_site_fract_z
O1	O	1.959392	0.184157	-0.136611
O2	O	1.530025	0.199263	-0.136612
O3	O	1.754580	0.009010	-0.136608
O4	O	1.734838	0.374410	-0.136615
O5	O	1.754567	0.009008	0.136619
O6	O	1.530012	0.199261	0.136615
O7	O	1.959380	0.184155	0.136616
Zn8	Zn	1.744694	0.191707	0.179996
Zn9	Zn	1.744711	0.191711	-0.179992
O10	O	1.734825	0.374408	0.136612
C11	C	1.475040	0.197810	0.000001
C12	C	1.311221	0.193469	0.000000
C13	C	1.753123	-0.037795	0.000003
C14	C	1.748785	-0.177255	-0.000005
C15	C	1.746756	-0.242766	-0.148942
C16	C	1.742668	-0.373802	-0.148944
C17	C	1.742644	-0.373807	0.148944
C18	C	1.746722	-0.242771	0.148943
C19	C	1.650816	-0.544237	-0.327882
C20	C	1.648812	-0.609754	-0.476828
C21	C	1.736451	-0.575866	-0.608326
C22	C	1.826129	-0.476465	-0.590884
C23	C	1.828146	-0.410956	-0.441936
C24	C	1.740473	-0.444839	-0.310444
C25	C	1.838586	-0.072336	0.327871
C26	C	1.840614	-0.006825	0.476821
C27	C	1.752984	-0.040712	0.608333
C28	C	1.663328	-0.140119	0.590908
C29	C	1.661300	-0.205630	0.441958
C30	C	1.748927	-0.171733	0.310445
C31	C	2.014365	0.185608	-0.000000
C32	C	2.178184	0.189949	-0.000010
C33	C	1.736281	0.421213	-0.000003
C34	C	1.740619	0.560673	-0.000006
N35	N	1.744694	0.191705	0.425679
N36	N	1.744723	0.191703	-0.425675
H37	H	1.901162	-0.330027	-0.427735
H38	H	1.754655	0.012631	0.729620
C39	C	1.486240	-0.330806	0.569676
C40	C	1.562736	-0.314893	0.422792
H41	H	1.425386	-0.398254	0.557835
H42	H	1.555247	-0.349487	0.656015
H43	H	1.426187	-0.255472	0.594775
H44	H	1.622797	-0.390224	0.397699
H45	H	1.493720	-0.296219	0.336427
C46	C	1.901763	-0.517709	-0.869853
C47	C	1.922474	-0.439222	-0.735433
H48	H	1.961236	-0.494706	-0.959095
H49	H	1.929538	-0.602818	-0.840198
H50	H	1.800469	-0.508815	-0.901444
H51	H	2.023767	-0.448124	-0.703834
H52	H	1.894709	-0.354093	-0.765091
C53	C	1.473699	-0.734902	-0.349142
C54	C	1.550228	-0.719004	-0.496007
H55	H	1.412838	-0.802345	-0.360994
H56	H	1.542686	-0.753584	-0.262785
H57	H	1.413649	-0.659562	-0.324063
H58	H	1.610286	-0.794341	-0.521081
H59	H	1.481232	-0.700329	-0.582392
C60	C	2.087497	0.057670	0.470593
C61	C	1.939179	0.102436	0.495998
H62	H	2.148343	0.125124	0.482429
H63	H	2.115924	-0.005976	0.549051
H64	H	2.098813	0.023520	0.363054
H65	H	1.927861	0.136577	0.603542
H66	H	1.910744	0.166104	0.417536
C67	C	1.455064	-0.478615	-0.139382
C68	C	1.554462	-0.581490	-0.183346
H69	H	1.395575	-0.501626	-0.050158
H70	H	1.508743	-0.410053	-0.107664
H71	H	1.393445	-0.454414	-0.230505
H72	H	1.616088	-0.605686	-0.092226
H73	H	1.500778	-0.650074	-0.215057
C74	C	1.587697	-0.098876	0.869874
C75	C	1.566992	-0.177373	0.735462
H76	H	1.528219	-0.121872	0.959115
H77	H	1.688977	-0.107760	0.901465
H78	H	1.559911	-0.013760	0.840203
H79	H	1.594789	-0.262489	0.765130
H80	H	1.465690	-0.168500	0.703869
C81	C	1.893952	0.090393	0.139627
C82	C	1.934910	-0.035082	0.183300
H83	H	1.953427	0.113391	0.050385
H84	H	1.792672	0.099266	0.108036
H85	H	1.908004	0.143620	0.230840
H86	H	1.920847	-0.088310	0.092090
H87	H	2.036214	-0.043966	0.214885
H88	H	1.748432	-0.189426	-0.270225
H89	H	1.734817	-0.629219	-0.729600
H90	H	1.740967	-0.427166	0.270211
