data_functionalizedCrystal
_audit_creation_method	'MofGen! by Chris Wilmer'
_symmetry_space_group_name_H-M	'P1'
_symmetry_Int_Tables_number	1
_symmetry_cell_setting	triclinic
loop_
_symmetry_equiv_pos_as_xyz
  x,y,z
_cell_length_a	27.731994
_cell_length_b	26.210047
_cell_length_c	14.044220
_cell_angle_alpha	90.004027
_cell_angle_beta	92.095294
_cell_angle_gamma	90.002872
loop_
_atom_site_label
_atom_site_type_symbol
_atom_site_fract_x
_atom_site_fract_y
_atom_site_fract_z
O1	O	0.646226	0.042357	-0.112454
O2	O	0.506235	0.042374	-0.129645
O3	O	0.574129	0.042361	0.016903
O4	O	0.578332	0.042371	-0.259003
O5	O	0.574116	-0.042497	0.016881
O6	O	0.506222	-0.042484	-0.129668
O7	O	0.646212	-0.042501	-0.112477
Cu8	Cu	0.576216	-0.050241	-0.121075
Cu9	Cu	0.576232	0.050114	-0.121047
O10	O	0.578318	-0.042488	-0.259025
C11	C	0.488205	-0.000053	-0.129304
C12	C	0.434499	-0.000046	-0.128241
C13	C	0.101459	-0.046322	-0.121560
C14	C	-0.100389	-0.046328	-0.117520
O15	O	-0.126494	-0.085667	-0.116967
N16	N	-0.125620	-0.000072	-0.117006
C17	C	-0.100386	0.046189	-0.117495
O18	O	-0.126478	0.085532	-0.116956
C19	C	0.101461	0.046194	-0.121529
C20	C	0.126689	-0.000065	-0.122052
C21	C	0.126687	-0.092578	-0.122083
C22	C	0.177146	-0.092576	-0.123098
C23	C	0.202376	-0.046318	-0.123590
C24	C	0.177148	-0.000063	-0.123068
C25	C	0.126694	0.092454	-0.122011
C26	C	0.177159	0.092452	-0.123017
C27	C	0.202387	0.046193	-0.123541
C28	C	0.252837	0.046196	-0.124575
N29	N	0.278068	-0.000060	-0.125089
C30	C	0.252838	-0.046317	-0.124597
C31	C	-0.206359	0.046183	-0.115380
C32	C	-0.256820	0.046181	-0.114373
C33	C	-0.256820	-0.046336	-0.114396
C34	C	-0.206357	-0.046334	-0.115410
C35	C	-0.181128	-0.000073	-0.115894
C36	C	0.358805	-0.046310	-0.126730
C37	C	0.409268	-0.046304	-0.127749
C38	C	0.409263	0.046213	-0.127721
C39	C	0.358804	0.046208	-0.126707
C40	C	0.333577	-0.000058	-0.126208
O41	O	0.278974	0.085515	-0.125117
O42	O	0.278939	-0.085655	-0.125116
C43	C	0.051000	-0.046324	-0.120545
C44	C	0.025772	-0.000069	-0.120022
C45	C	0.051002	0.046188	-0.120515
C46	C	-0.024690	-0.000070	-0.119016
C47	C	-0.049920	-0.046327	-0.118523
C48	C	-0.024689	-0.092583	-0.119037
C49	C	0.025769	-0.092581	-0.120052
C50	C	0.025771	0.092444	-0.120000
C51	C	-0.024688	0.092439	-0.118986
C52	C	-0.049918	0.046181	-0.118494
N53	N	0.576208	-0.120824	-0.121093
C54	C	0.606293	-0.473344	-0.056170
C55	C	0.606303	-0.687003	-0.056157
O56	O	0.631863	-0.714630	-0.000962
N57	N	0.576233	-0.713718	-0.121027
C58	C	0.546157	-0.687016	-0.185900
O59	O	0.520578	-0.714641	-0.241069
C60	C	0.546145	-0.473358	-0.185908
C61	C	0.576220	-0.446646	-0.121041
C62	C	0.636364	-0.446632	0.008693
C63	C	0.636363	-0.393220	0.008685
C64	C	0.606291	-0.366521	-0.056185
C65	C	0.576219	-0.393234	-0.121048
C66	C	0.516067	-0.446657	-0.250776
C67	C	0.516066	-0.393239	-0.250771
C68	C	0.546140	-0.366526	-0.185903
C69	C	0.546145	-0.313124	-0.185926
N70	N	0.576214	-0.286409	-0.121056
C71	C	0.606287	-0.313107	-0.056186
C72	C	0.546167	-0.799189	-0.185893
C73	C	0.546170	-0.852603	-0.185892
C74	C	0.606315	-0.852587	-0.056147
C75	C	0.606313	-0.799172	-0.056153
C76	C	0.576236	-0.772474	-0.121023
C77	C	0.606283	-0.200939	-0.056207
C78	C	0.606281	-0.147523	-0.056223
C79	C	0.546135	-0.147544	-0.185963
C80	C	0.546139	-0.200956	-0.185951
C81	C	0.576214	-0.227652	-0.121065
O82	O	0.520595	-0.285464	-0.241085
O83	O	0.631855	-0.285473	-0.001011
C84	C	0.606293	-0.526756	-0.056163
C85	C	0.576222	-0.553469	-0.121026
C86	C	0.546149	-0.526770	-0.185896
C87	C	0.576225	-0.606883	-0.121025
C88	C	0.606298	-0.633581	-0.056155
C89	C	0.636367	-0.606866	0.008715
C90	C	0.636366	-0.553455	0.008708
C91	C	0.516080	-0.553485	-0.250766
C92	C	0.516084	-0.606897	-0.250754
C93	C	0.546156	-0.633595	-0.185883
C94	C	0.664243	-0.000073	-0.112818
C95	C	0.717949	-0.000076	-0.113881
C96	C	0.572283	-0.000068	0.052179
C97	C	0.566796	-0.000068	0.157322
N98	N	0.576243	0.120698	-0.121021
C99	C	0.580165	-0.000057	-0.294301
C100	C	0.585652	-0.000054	-0.399444
C101	C	0.556764	-0.000059	0.349833
C102	C	0.595681	-0.000063	0.408051
C103	C	0.590100	-0.000058	0.515170
C104	C	0.562345	-0.000064	0.242703
H105	H	0.338270	-0.083983	-0.126332
O106	O	0.050325	0.137349	-0.120613
C107	C	0.077560	0.140129	-0.203284
H108	H	0.084478	0.099967	-0.230802
H109	H	0.056747	0.162951	-0.260358
C110	C	0.117583	0.215913	-0.145523
C111	C	0.126083	0.166586	-0.179316
H112	H	0.147513	0.232236	-0.130740
H113	H	0.099233	0.214042	-0.089827
H114	H	0.100238	0.234925	-0.193090
H115	H	0.143422	0.147574	-0.131745
H116	H	0.144437	0.168455	-0.235003
O117	O	0.512007	0.000035	0.386294
C118	C	0.486765	0.043977	0.354947
H119	H	0.513630	0.074694	0.334693
H120	H	0.462567	0.034040	0.290226
C121	C	0.422594	0.026182	0.460367
C122	C	0.455590	0.063910	0.435499
H123	H	0.403362	0.038476	0.510053
H124	H	0.439599	-0.003424	0.481484
H125	H	0.402434	0.017904	0.406426
H126	H	0.475753	0.072182	0.489437
H127	H	0.438588	0.093518	0.414393
H128	H	-0.185821	0.083856	-0.115774
O129	O	0.640443	0.000015	0.371592
C130	C	0.665699	0.043952	0.402946
H131	H	0.638845	0.074679	0.423191
H132	H	0.689889	0.034013	0.467673
C133	C	0.729871	0.026127	0.297543
C134	C	0.696888	0.063868	0.322402
H135	H	0.749111	0.038411	0.247863
H136	H	0.712856	-0.003475	0.276422
H137	H	0.750024	0.017847	0.351490
H138	H	0.676731	0.072142	0.268459
H139	H	0.713900	0.093472	0.343513
O140	O	0.433701	0.091191	-0.128243
C141	C	0.400618	0.132023	-0.127542
H142	H	0.363936	0.118468	-0.156825
H143	H	0.397052	0.146242	-0.051406
C144	C	0.463903	0.192376	-0.154101
C145	C	0.418850	0.175729	-0.190074
H146	H	0.475150	0.219337	-0.192670
H147	H	0.486193	0.164867	-0.154570
H148	H	0.460925	0.204222	-0.090655
H149	H	0.421829	0.163877	-0.253514
H150	H	0.396561	0.203236	-0.189617
H151	H	0.521654	-0.222706	-0.238781
H152	H	-0.185820	-0.084002	-0.115837
O153	O	0.516935	-0.773338	-0.249008
C154	C	0.490392	-0.808377	-0.306241
H155	H	0.510250	-0.846448	-0.307023
H156	H	0.453182	-0.814064	-0.275983
C157	C	0.460449	-0.740785	-0.407616
C158	C	0.484841	-0.787543	-0.408583
H159	H	0.457022	-0.727934	-0.470745
H160	H	0.478330	-0.717178	-0.369056
H161	H	0.429443	-0.745530	-0.382397
H162	H	0.515848	-0.782797	-0.433790
H163	H	0.466965	-0.811150	-0.447150
H164	H	0.046306	-0.130250	-0.120479
O165	O	-0.049220	-0.137506	-0.118386
C166	C	-0.076476	-0.140264	-0.035741
H167	H	-0.059907	-0.114015	0.021318
H168	H	-0.115157	-0.127831	-0.053524
C169	C	-0.096730	-0.227767	-0.068598
C170	C	-0.076377	-0.195531	0.001486
H171	H	-0.096671	-0.261859	-0.045637
H172	H	-0.078369	-0.225908	-0.124280
H173	H	-0.128962	-0.217400	-0.083411
H174	H	-0.044144	-0.205894	0.016289
H175	H	-0.094733	-0.197393	0.057171
H176	H	0.197682	-0.130245	-0.123519
O177	O	0.433701	-0.091288	-0.128210
C178	C	0.400606	-0.132114	-0.127578
H179	H	0.365346	-0.118552	-0.096851
H180	H	0.393439	-0.146335	-0.203497
C181	C	0.465073	-0.192476	-0.103580
C182	C	0.421768	-0.175821	-0.065833
H183	H	0.478127	-0.219438	-0.065496
H184	H	0.487370	-0.164971	-0.104009
H185	H	0.459095	-0.204324	-0.166845
H186	H	0.427748	-0.163968	-0.002574
H187	H	0.399473	-0.203325	-0.065391
O188	O	0.102256	-0.137561	-0.121652
C189	C	0.135355	-0.178380	-0.122303
H190	H	0.170615	-0.164807	-0.153012
H191	H	0.142518	-0.192609	-0.046393
C192	C	0.070895	-0.238754	-0.146360
C193	C	0.114201	-0.222084	-0.184084
H194	H	0.057846	-0.265714	-0.184466
H195	H	0.048595	-0.211254	-0.145918
H196	H	0.076870	-0.250608	-0.083103
H197	H	0.108224	-0.210225	-0.247336
H198	H	0.136499	-0.249584	-0.184539
O199	O	0.665606	-0.472618	0.071582
C200	C	0.697607	-0.503501	0.021266
H201	H	0.681560	-0.511516	-0.053122
H202	H	0.733580	-0.482904	0.015313
C203	C	0.725354	-0.544386	0.166195
C204	C	0.705643	-0.554234	0.074833
H205	H	0.730313	-0.575679	0.199238
H206	H	0.703796	-0.523578	0.200094
H207	H	0.755330	-0.527221	0.161221
H208	H	0.675665	-0.571393	0.079808
H209	H	0.727196	-0.575045	0.040935
H210	H	0.491577	-0.468399	-0.303597
H211	H	0.491571	-0.371504	-0.303595
O212	O	0.665508	-0.632830	0.071825
C213	C	0.637114	-0.663735	0.129882
H214	H	0.598952	-0.647635	0.130949
H215	H	0.635856	-0.704216	0.100194
C216	C	0.706222	-0.684332	0.230652
C217	C	0.659351	-0.664555	0.231969
H218	H	0.719939	-0.684840	0.293624
H219	H	0.725352	-0.663513	0.191536
H220	H	0.705167	-0.718065	0.205908
H221	H	0.660407	-0.630821	0.256702
H222	H	0.640221	-0.685368	0.271092
O223	O	0.102144	0.137358	-0.121368
C224	C	0.074908	0.140127	-0.038698
H225	H	0.067988	0.099962	-0.011206
H226	H	0.095720	0.162944	0.018392
C227	C	0.034889	0.215914	-0.096415
C228	C	0.026386	0.166583	-0.062653
H229	H	0.004959	0.232236	-0.111189
H230	H	0.053239	0.214050	-0.152110
H231	H	0.052233	0.234923	-0.048834
H232	H	0.009047	0.147574	-0.110238
H233	H	0.008031	0.168444	-0.006966
H234	H	-0.045225	0.130111	-0.118568
H235	H	0.197699	0.130123	-0.123412
H236	H	0.521651	-0.125798	-0.238783
H237	H	0.630773	-0.125775	-0.003400
H238	H	-0.277371	-0.084000	-0.113997
H239	H	0.660856	-0.531709	0.061529
H240	H	0.338262	0.083875	-0.126296
O241	O	-0.281249	0.091163	-0.113836
C242	C	-0.248153	0.131988	-0.114509
H243	H	-0.211475	0.118422	-0.085231
H244	H	-0.244581	0.146214	-0.190635
C245	C	-0.311420	0.192352	-0.087918
C246	C	-0.266373	0.175691	-0.051951
H247	H	-0.322660	0.219312	-0.049334
H248	H	-0.333718	0.164848	-0.087468
H249	H	-0.308438	0.204204	-0.151356
H250	H	-0.269358	0.163834	0.011481
H251	H	-0.244076	0.203194	-0.052389
O252	O	0.635543	-0.226788	0.006860
C253	C	0.662072	-0.191748	0.064118
H254	H	0.664286	-0.153678	0.025272
H255	H	0.643353	-0.186060	0.134268
C256	C	0.710624	-0.259341	0.132085
C257	C	0.713348	-0.212583	0.084371
H258	H	0.742253	-0.272193	0.144583
H259	H	0.692750	-0.282948	0.093513
H260	H	0.695023	-0.254594	0.190538
H261	H	0.728943	-0.217331	0.025915
H262	H	0.731226	-0.188977	0.122935
H263	H	0.660851	-0.371474	0.061509
H264	H	0.630802	-0.777425	-0.003332
H265	H	0.491594	-0.628642	-0.303585
O266	O	0.635500	-0.878471	0.007002
C267	C	0.623592	-0.865428	0.100664
H268	H	0.604979	-0.826645	0.100288
H269	H	0.598280	-0.895490	0.129612
C270	C	0.692780	-0.910594	0.164841
C271	C	0.669923	-0.862959	0.164380
H272	H	0.721358	-0.909073	0.204147
H273	H	0.700802	-0.919383	0.101740
H274	H	0.671682	-0.935641	0.188962
H275	H	0.691019	-0.837914	0.140249
H276	H	0.661906	-0.854165	0.227479
H277	H	0.491590	-0.531751	-0.303590
H278	H	0.521686	-0.874349	-0.238723
