data_functionalizedCrystal
_audit_creation_method	'MofGen! by Chris Wilmer'
_symmetry_space_group_name_H-M	'P1'
_symmetry_Int_Tables_number	1
_symmetry_cell_setting	triclinic
loop_
_symmetry_equiv_pos_as_xyz
  x,y,z
_cell_length_a	19.188929
_cell_length_b	19.188905
_cell_length_c	9.616153
_cell_angle_alpha	89.986020
_cell_angle_beta	90.024050
_cell_angle_gamma	96.860334
loop_
_atom_site_label
_atom_site_type_symbol
_atom_site_fract_x
_atom_site_fract_y
_atom_site_fract_z
O1	O	-0.087082	0.926159	-0.115941
O2	O	0.412918	1.426159	0.384059
O3	O	-0.098834	0.722845	-0.115902
O4	O	0.401166	1.222845	0.384098
O5	O	0.008698	0.830369	-0.115837
O6	O	0.508698	1.330369	0.384163
O7	O	-0.194614	0.818635	-0.116006
O8	O	0.305386	1.318635	0.383994
O9	O	0.008696	0.830354	0.115455
O10	O	0.508696	1.330354	0.615455
O11	O	-0.098836	0.722830	0.115389
O12	O	0.401164	1.222830	0.615389
O13	O	-0.087084	0.926144	0.115351
O14	O	0.412916	1.426144	0.615351
Zn15	Zn	-0.092961	0.824485	0.152092
Zn16	Zn	0.407039	1.324485	0.652092
Zn17	Zn	-0.092957	0.824504	-0.152644
Zn18	Zn	0.407043	1.324504	0.347356
O19	O	-0.194616	0.818620	0.115285
O20	O	0.305384	1.318620	0.615285
C21	C	-0.098458	0.696826	-0.000250
C22	C	0.401542	1.196826	0.499750
C23	C	-0.097324	0.619321	-0.000231
C24	C	0.402676	1.119321	0.499769
C25	C	-0.096778	0.582937	-0.126311
C26	C	0.403222	1.082937	0.373689
C27	C	-0.095705	0.510113	-0.126327
C28	C	0.404295	1.010113	0.373673
C29	C	-0.095164	0.473678	-0.000256
C30	C	0.404836	0.973678	0.499744
C31	C	-0.095714	0.510070	0.125840
C32	C	0.404286	1.010070	0.625840
C33	C	-0.096794	0.582892	0.125853
C34	C	0.403206	1.082892	0.625853
N35	N	-0.053736	0.364652	0.093600
N36	N	0.446264	0.864652	0.593600
N37	N	-0.052709	0.295475	0.093579
N38	N	0.447291	0.795475	0.593579
C39	C	-0.091911	0.254272	-0.000287
C40	C	0.408089	0.754272	0.499713
N41	N	-0.132171	0.284860	-0.094154
N42	N	0.367829	0.784860	0.405846
N43	N	-0.133196	0.354043	-0.094137
N44	N	0.366804	0.854043	0.405863
C45	C	-0.093993	0.394716	-0.000256
C46	C	0.406007	0.894716	0.499744
C47	C	-0.090203	0.138924	-0.126394
C48	C	0.409797	0.638924	0.373606
C49	C	-0.089134	0.066098	-0.126405
C50	C	0.410866	0.566098	0.373595
C51	C	-0.089136	0.066058	0.125766
C52	C	0.410864	0.566058	0.625766
C53	C	-0.090212	0.138881	0.125774
C54	C	0.409788	0.638881	0.625774
C55	C	-0.090742	0.175310	-0.000310
C56	C	0.409258	0.675310	0.499690
C57	C	-0.220626	0.819007	-0.000383
C58	C	0.279374	1.319007	0.499617
C59	C	-0.298131	0.820148	-0.000449
C60	C	0.201869	1.320148	0.499551
C61	C	-0.343060	0.757056	-0.000409
C62	C	0.156940	1.257056	0.499591
C63	C	-0.415884	0.758128	-0.000378
C64	C	0.084116	1.258128	0.499622
C65	C	-0.443775	0.822295	-0.000359
C66	C	0.056225	1.322295	0.499641
C67	C	-0.398835	0.885395	-0.000407
C68	C	0.101165	1.385395	0.499593
C69	C	-0.326013	0.884321	-0.000452
C70	C	0.173987	1.384321	0.499548
N71	N	-0.551740	0.871337	0.078433
N72	N	-0.051740	1.371337	0.578433
N73	N	-0.620918	0.872353	0.078479
N74	N	-0.120918	1.372353	0.578479
C75	C	-0.663183	0.825533	-0.000226
C76	C	-0.163183	1.325533	0.499774
N77	N	-0.633658	0.777649	-0.078961
N78	N	-0.133658	1.277649	0.421039
N79	N	-0.564473	0.776631	-0.079000
N80	N	-0.064473	1.276631	0.421000
C81	C	-0.522737	0.823466	-0.000311
C82	C	-0.022737	1.323466	0.499689
C83	C	-0.787077	0.763599	-0.000154
C84	C	-0.287077	1.263599	0.499846
C85	C	-0.859902	0.764673	-0.000131
C86	C	-0.359902	1.264673	0.499869
C87	C	-0.842851	0.891942	-0.000146
C88	C	-0.342851	1.391942	0.499854
C89	C	-0.770028	0.890866	-0.000183
C90	C	-0.270028	1.390866	0.499817
C91	C	-0.742146	0.826693	-0.000180
C92	C	-0.242146	1.326693	0.499820
C93	C	0.034708	0.829982	-0.000172
C94	C	0.534708	1.329982	0.499828
C95	C	0.112213	0.828841	-0.000115
C96	C	0.612213	1.328841	0.499885
C97	C	-0.087460	0.952163	-0.000305
C98	C	0.412540	1.452163	0.499695
C99	C	-0.088594	1.029668	-0.000333
C100	C	0.411406	1.529668	0.499667
N101	N	-0.092962	0.824477	0.360067
N102	N	0.407038	1.324477	0.860067
N103	N	-0.092950	0.824518	-0.360619
N104	N	0.407050	1.324518	0.139381
C105	C	-0.150296	0.766787	0.580402
C106	C	0.349704	1.266787	1.080402
C107	C	-0.150507	0.766910	0.419234
C108	C	0.349493	1.266910	0.919234
C109	C	-0.108646	0.897282	0.418486
C110	C	0.391354	1.397282	0.918486
C111	C	-0.109051	0.896967	0.579703
C112	C	0.390949	1.396967	1.079703
C113	C	-0.019750	0.810090	0.580044
C114	C	0.480250	1.310090	1.080044
C115	C	-0.020246	0.808408	0.418817
C116	C	0.479754	1.308408	0.918817
H117	H	-0.088699	0.036392	0.228416
H118	H	0.411301	0.536392	0.728416
H119	H	-0.090651	0.168505	0.228442
H120	H	0.409349	0.668505	0.728442
H121	H	-0.161415	0.910336	0.378047
H122	H	0.338585	1.410336	0.878047
H123	H	-0.004610	0.758169	0.620806
H124	H	0.495390	1.258169	1.120806
H125	H	-0.008338	0.754853	0.380640
H126	H	0.491662	1.254853	0.880640
F127	F	-0.095141	0.471292	0.260014
F128	F	0.404859	0.971292	0.760014
H129	H	-0.090642	0.168585	-0.229059
H130	H	0.409358	0.668585	0.270941
H131	H	-0.289431	0.935700	-0.000486
H132	H	0.210569	1.435700	0.499514
F133	F	-0.088559	0.027376	-0.260605
F134	F	0.411441	0.527376	0.239395
F135	F	-0.178819	0.913629	0.628775
F136	F	0.321181	1.413629	1.128775
H137	H	-0.865559	0.944188	-0.000232
H138	H	-0.365559	1.444188	0.499768
F139	F	0.038122	0.859820	0.366201
F140	F	0.538122	1.359820	0.866201
F141	F	0.036027	0.865120	0.629898
F142	F	0.536027	1.365120	1.129898
H143	H	-0.764374	0.711345	-0.000144
H144	H	-0.264374	1.211345	0.499856
F145	F	-0.097375	0.621615	0.260051
F146	F	0.402625	1.121615	0.760051
H147	H	-0.141141	0.712491	0.619234
H148	H	0.358859	1.212491	1.119234
F149	F	-0.313390	0.688757	-0.000417
F150	F	0.186610	1.188757	0.499583
F151	F	-0.428520	0.953686	-0.000394
F152	F	0.071480	1.453686	0.499606
H153	H	-0.452473	0.706750	-0.000342
H154	H	0.047527	1.206750	0.499658
H155	H	-0.896483	0.713294	-0.000108
H156	H	-0.396483	1.213294	0.499892
H157	H	-0.733445	0.942242	-0.000206
H158	H	-0.233445	1.442242	0.499794
H159	H	-0.204834	0.776096	0.380606
H160	H	0.295166	1.276096	0.880606
H161	H	-0.204317	0.775849	0.620853
H162	H	0.295683	1.275849	1.120853
F163	F	-0.097345	0.621703	-0.260502
F164	F	0.402655	1.121703	0.239498
H165	H	-0.095262	0.480484	-0.229000
H166	H	0.404738	0.980484	0.271000
F167	F	-0.138373	0.696155	0.367608
F168	F	0.361627	1.196155	0.867608
F169	F	-0.056464	0.954738	0.630700
F170	F	0.443536	1.454738	1.130700
F171	F	-0.055494	0.954758	0.368395
F172	F	0.444506	1.454758	0.868395
