data_functionalizedCrystal
_audit_creation_method	'MofGen! by Chris Wilmer'
_symmetry_space_group_name_H-M	'P1'
_symmetry_Int_Tables_number	1
_symmetry_cell_setting	triclinic
loop_
_symmetry_equiv_pos_as_xyz
  x,y,z
_cell_length_a	10.654541
_cell_length_b	14.519709
_cell_length_c	9.730217
_cell_angle_alpha	89.995799
_cell_angle_beta	89.999932
_cell_angle_gamma	84.082037
loop_
_atom_site_label
_atom_site_type_symbol
_atom_site_fract_x
_atom_site_fract_y
_atom_site_fract_z
O1	O	1.666593	0.129520	-0.114251
O2	O	2.166593	0.629520	0.385749
O3	O	1.300995	0.141863	-0.114263
O4	O	1.800995	0.641863	0.385737
O5	O	1.493488	0.001504	-0.114245
O6	O	1.993488	0.501504	0.385755
O7	O	1.474101	0.269880	-0.114270
O8	O	1.974101	0.769880	0.385730
O9	O	1.493482	0.001502	0.114335
O10	O	1.993482	0.501502	0.614335
O11	O	1.300990	0.141862	0.114317
O12	O	1.800990	0.641862	0.614317
O13	O	1.666587	0.129519	0.114329
O14	O	2.166587	0.629519	0.614329
Zn15	Zn	1.483787	0.135690	0.150615
Zn16	Zn	1.983787	0.635690	0.650615
Zn17	Zn	1.483795	0.135692	-0.150549
Zn18	Zn	1.983795	0.635692	0.349451
O19	O	1.474095	0.269879	0.114310
O20	O	1.974095	0.769879	0.614310
C21	C	1.254203	0.140957	0.000025
C22	C	1.754203	0.640957	0.500025
C23	C	1.114786	0.138247	0.000021
C24	C	1.614786	0.638247	0.500021
C25	C	1.492581	-0.032862	0.000046
C26	C	1.992581	0.467138	0.500046
C27	C	1.489874	-0.135257	0.000046
C28	C	1.989874	0.364743	0.500046
C29	C	1.085201	0.306085	-0.000012
C30	C	1.585201	0.806085	0.499988
C31	C	1.004912	0.388727	-0.000034
C32	C	1.504912	0.888727	0.499966
C33	C	0.873919	0.386175	-0.000035
C34	C	1.373919	0.886175	0.499965
C35	C	0.823213	0.300972	-0.000010
C36	C	1.323213	0.800972	0.499990
C37	C	0.903502	0.218330	0.000012
C38	C	1.403502	0.718330	0.500012
C39	C	1.034496	0.220891	0.000009
C40	C	1.534496	0.720891	0.500009
C41	C	0.933086	0.050493	0.000055
C42	C	1.433086	0.550493	0.500055
C43	C	1.064080	0.053043	0.000046
C44	C	1.564080	0.553043	0.500046
C45	C	0.882380	-0.034710	0.000080
C46	C	1.382380	0.465290	0.500080
C47	C	0.962669	-0.117354	0.000092
C48	C	1.462669	0.382646	0.500092
C49	C	1.093670	-0.114798	0.000091
C50	C	1.593670	0.385202	0.500091
C51	C	1.144369	-0.029599	0.000068
C52	C	1.644369	0.470401	0.500068
C53	C	1.479906	-0.510204	0.000010
C54	C	1.979906	-0.010204	0.500010
C55	C	1.482674	-0.405882	0.000021
C56	C	1.982674	0.094118	0.500021
C57	C	1.484890	-0.322734	0.000030
C58	C	1.984890	0.177266	0.500030
C59	C	1.487658	-0.218405	0.000037
C60	C	1.987658	0.281595	0.500037
C61	C	1.713380	0.130425	0.000037
C62	C	2.213380	0.630425	0.500037
C63	C	1.852797	0.133135	0.000033
C64	C	2.352797	0.633135	0.500033
C65	C	1.475002	0.304244	0.000017
C66	C	1.975002	0.804244	0.500017
C67	C	1.477709	0.406639	0.000007
C68	C	1.977709	0.906639	0.500007
N69	N	1.483791	0.135689	0.356151
N70	N	1.983791	0.635689	0.856151
N71	N	1.483801	0.135686	-0.356086
N72	N	1.983801	0.635686	0.143914
C73	C	1.654312	0.011436	0.356159
C74	C	2.154312	0.511436	0.856159
C75	C	1.739581	-0.050687	0.428102
C76	C	2.239581	0.449313	0.928102
C77	C	1.739594	-0.050688	0.571982
C78	C	2.239594	0.449312	1.071982
C79	C	1.654326	0.011440	0.643921
C80	C	2.154326	0.511440	1.143921
C81	C	1.569057	0.073564	0.571978
C82	C	2.069057	0.573564	1.071978
C83	C	1.569056	0.073559	0.428095
C84	C	2.069056	0.573559	0.928095
C85	C	1.398532	0.197810	0.571971
C86	C	1.898532	0.697810	1.071971
C87	C	1.398523	0.197816	0.428091
C88	C	1.898523	0.697816	0.928091
C89	C	1.313264	0.259938	0.643910
C90	C	1.813264	0.759938	1.143910
C91	C	1.227999	0.322067	0.571967
C92	C	1.727999	0.822067	1.071967
C93	C	1.227991	0.322066	0.428078
C94	C	1.727991	0.822066	0.928078
C95	C	1.313254	0.259940	0.356147
C96	C	1.813254	0.759940	0.856147
H97	H	1.046212	0.458098	-0.000051
H98	H	1.546212	0.958098	0.499949
H99	H	1.809023	-0.101277	0.630559
H100	H	2.309023	0.398723	1.130559
H101	H	1.654332	0.011428	0.761076
H102	H	2.154332	0.511428	1.261076
H103	H	0.808546	0.453470	-0.000043
H104	H	1.308546	0.953470	0.499957
H105	H	0.716550	0.298901	0.000005
H106	H	1.216550	0.798901	0.500005
H107	H	0.775717	-0.036782	0.000086
H108	H	1.275717	0.463218	0.500086
H109	H	1.158550	0.372650	0.369509
H110	H	1.658550	0.872650	0.869509
H111	H	1.191861	0.308172	-0.000042
H112	H	1.691861	0.808172	0.499958
H113	H	0.921373	-0.186720	0.000111
H114	H	1.421373	0.313280	0.500111
H115	H	1.159035	-0.182096	0.000114
H116	H	1.659035	0.317904	0.500114
H117	H	1.251028	-0.027510	0.000051
H118	H	1.751028	0.472490	0.500051
H119	H	1.809004	-0.101273	0.369517
H120	H	2.309004	0.398727	0.869517
H121	H	1.313260	0.259936	0.238993
H122	H	1.813260	0.759936	0.738993
H123	H	1.654321	0.011438	0.239004
H124	H	2.154321	0.511438	0.739004
H125	H	1.313273	0.259931	0.761065
H126	H	1.813273	0.759931	1.261065
H127	H	1.158575	0.372643	0.630549
H128	H	1.658575	0.872643	1.130549
