data_functionalizedCrystal
_audit_creation_method	'MofGen! by Chris Wilmer'
_symmetry_space_group_name_H-M	'P1'
_symmetry_Int_Tables_number	1
_symmetry_cell_setting	triclinic
loop_
_symmetry_equiv_pos_as_xyz
  x,y,z
_cell_length_a	18.426585
_cell_length_b	19.377372
_cell_length_c	19.377574
_cell_angle_alpha	55.725413
_cell_angle_beta	104.492692
_cell_angle_gamma	72.113872
loop_
_atom_site_label
_atom_site_type_symbol
_atom_site_fract_x
_atom_site_fract_y
_atom_site_fract_z
Zr1	Zr	0.782213	0.780167	-0.236070
O2	O	0.656904	0.928875	-0.377066
O3	O	0.806395	0.631463	-0.174003
O4	O	0.787787	0.780167	-0.349882
O5	O	0.706378	0.780169	-0.083885
O6	O	0.907219	0.780162	-0.349875
O7	O	0.675512	0.780171	-0.201187
O8	O	0.940504	0.514158	-0.035259
O9	O	0.673094	1.046173	-0.398501
O10	O	0.923033	0.692622	-0.170293
O11	O	0.856938	0.692624	-0.082758
O12	O	0.835030	0.867704	-0.289833
O13	O	0.768935	0.867706	-0.202298
Zr14	Zr	1.021922	0.780155	-0.048976
Zr15	Zr	0.972693	0.780159	-0.236058
Zr16	Zr	0.831442	0.780163	-0.048988
Zr17	Zr	0.808033	0.967244	-0.270256
Zr18	Zr	0.996102	0.593078	-0.014789
O19	O	0.997740	0.928859	-0.111042
O20	O	0.927743	0.928864	-0.377048
O21	O	0.726902	0.928870	-0.111059
O22	O	1.147230	0.631447	0.092020
O23	O	1.077233	0.631452	-0.173986
O24	O	0.876392	0.631458	0.092003
O25	O	1.097756	0.780153	-0.201160
O26	O	1.016347	0.780155	0.064837
O27	O	0.896915	0.780160	0.064829
O28	O	1.128623	0.780151	-0.083859
O29	O	0.824500	1.046167	-0.398491
O30	O	0.979635	0.514155	0.113446
O31	O	1.131041	0.514149	0.113456
O32	O	1.091911	0.514152	-0.035250
O33	O	0.712224	1.046171	-0.249796
O34	O	0.863631	1.046164	-0.249786
O35	O	0.969104	0.692619	0.004788
O36	O	1.035199	0.692616	-0.082747
O37	O	0.947197	0.867698	-0.202287
O38	O	0.881102	0.867701	-0.114752
C39	C	0.869771	0.546156	-0.099760
C40	C	0.858809	0.466737	-0.085247
C41	C	0.995276	0.205518	-0.265956
C42	C	0.984968	0.130891	-0.252305
C43	C	0.915970	0.130902	-0.160925
C44	C	0.926267	0.205535	-0.174573
C45	C	0.965922	0.242836	-0.227088
C46	C	0.896914	0.242853	-0.135704
C47	C	0.907215	0.317476	-0.149347
C48	C	0.946870	0.354780	-0.201857
C49	C	0.976223	0.317459	-0.240730
C50	C	0.857265	0.205545	-0.083184
C51	C	0.827912	0.242863	-0.044315
C52	C	0.838207	0.317492	-0.057963
C53	C	0.877862	0.354797	-0.110473
C54	C	0.808854	0.354813	-0.019090
C55	C	0.819155	0.429436	-0.032732
C56	C	0.888163	0.429419	-0.124115
C57	C	0.663806	0.780171	-0.142538
C58	C	0.582942	0.780174	-0.142543
C59	C	0.517272	0.780178	-0.142543
C60	C	0.434892	0.780174	-0.142535
C61	C	0.369235	0.780163	-0.142522
C62	C	0.286849	0.780159	-0.142515
C63	C	1.140329	0.780151	-0.142507
C64	C	1.221193	0.780148	-0.142502
C65	C	0.840489	0.780165	-0.376534
C66	C	0.819590	0.780167	-0.455955
C67	C	0.934364	1.014166	-0.185285
C68	C	0.945325	1.093585	-0.199798
C69	C	1.079812	0.780151	-0.717158
C70	C	1.060150	0.780154	-0.791787
C71	C	0.928566	0.780159	-0.791777
C72	C	0.948214	0.780161	-0.717149
C73	C	1.023838	0.780156	-0.679845
C74	C	0.892241	0.780166	-0.679837
C75	C	0.911890	0.780163	-0.605212
C76	C	0.987512	0.780155	-0.567900
C77	C	1.043488	0.780153	-0.605220
C78	C	0.816620	0.780165	-0.717138
C79	C	0.760647	0.780170	-0.679825
C80	C	0.780292	0.780173	-0.605204
C81	C	0.855915	0.780165	-0.567892
C82	C	0.724317	0.780175	-0.567884
C83	C	0.743966	0.780172	-0.493259
C84	C	0.875564	0.780162	-0.493267
C85	C	0.963645	0.780157	0.091488
C86	C	0.984544	0.780155	0.170909
C87	C	1.108032	0.546146	-0.099745
C88	C	1.177935	0.466724	-0.085227
C89	C	0.931348	0.546152	0.134251
C90	C	0.941286	0.466731	0.228185
C91	C	1.169610	0.546142	0.134266
C92	C	1.260412	0.466718	0.228205
C93	C	0.634524	1.014180	-0.419311
C94	C	0.543723	1.093604	-0.513250
C95	C	0.696102	1.014176	-0.185300
C96	C	0.626200	1.093598	-0.199818
C97	C	0.872786	1.014170	-0.419296
C98	C	0.862848	1.093591	-0.513230
C99	C	1.152210	0.429429	-0.124115
C100	C	1.217881	0.354813	-0.110493
C101	C	1.309276	0.317489	-0.057976
C102	C	1.335000	0.354791	-0.019088
C103	C	1.269330	0.429410	-0.032717
C104	C	1.004505	0.429432	0.318003
C105	C	1.013842	0.354818	0.406270
C106	C	0.959965	0.317500	0.404717
C107	C	0.896739	0.354807	0.314888
C108	C	0.887398	0.429425	0.226623
C109	C	1.337562	0.429419	0.226628
C110	C	1.422887	0.354802	0.314885
C111	C	1.431058	0.317481	0.404719
C112	C	1.353900	0.354787	0.406293
C113	C	1.268578	0.429408	0.318036
C114	C	0.466574	1.130913	-0.511675
C115	C	0.381252	1.205553	-0.599936
C116	C	0.373081	1.242878	-0.689771
C117	C	0.450239	1.205566	-0.691344
C118	C	0.535560	1.130933	-0.603085
C119	C	0.651923	1.130901	-0.160939
C120	C	0.586250	1.205537	-0.174586
C121	C	0.494855	1.242864	-0.227105
C122	C	0.469131	1.205559	-0.265989
C123	C	0.534803	1.130929	-0.252349
C124	C	0.916739	1.130885	-0.511644
C125	C	0.907419	1.205499	-0.599897
C126	C	0.844204	1.242823	-0.689734
C127	C	0.790312	1.205521	-0.691317
C128	C	0.799636	1.130903	-0.603065
H129	H	0.955253	0.415546	-0.212967
Br130	Br	0.704516	1.256194	-0.813250
H131	H	1.205763	0.459768	0.319335
Br132	Br	1.002538	1.080249	-0.389734
Br133	Br	0.621182	1.256148	-0.121805
H134	H	0.473209	1.100527	-0.438534
Br135	Br	0.405739	1.344149	-0.245609
Br136	Br	0.439134	1.256230	-0.813272
Br137	Br	0.640256	1.080304	-0.605240
Br138	Br	0.775955	1.080263	-0.089662
H139	H	1.027558	0.235898	-0.308728
Br140	Br	0.823627	0.304150	0.312797
H141	H	1.105738	0.780148	-0.822162
H142	H	1.077794	0.459818	-0.166890
Br143	Br	1.014186	0.780140	-0.466615
Br144	Br	0.980563	1.256111	-0.597726
H145	H	0.920445	0.459799	-0.166888
H146	H	1.048381	0.459808	0.319287
H147	H	0.866995	0.780160	-0.822156
Br148	Br	0.345090	1.256225	-0.337261
Br149	Br	1.099654	0.304202	0.528166
H150	H	0.513845	1.100559	-0.284007
Br151	Br	0.658021	0.780170	-0.730452
H152	H	0.836620	1.303582	-0.761588
Br153	Br	1.024836	0.080223	-0.305034
H154	H	0.755747	1.100547	-0.604370
H155	H	0.662749	0.780170	-0.598260
H156	H	0.967580	0.256742	0.476595
Br157	Br	0.801597	0.480032	0.104731
Br158	Br	1.326498	0.480058	0.104721
Br159	Br	0.774113	0.192219	0.026970
Br160	Br	0.668004	0.780170	-0.442612
Br161	Br	1.030027	0.368101	-0.312015
H162	H	1.485703	0.324434	0.313586
H163	H	1.141388	0.780157	-0.686790
Br164	Br	1.546861	0.216209	0.524489
Br165	Br	0.789962	0.780158	-0.818408
Br166	Br	1.146113	0.780166	-0.554602
H167	H	1.196918	0.324451	-0.142163
H168	H	1.360567	0.324390	0.479448
Br169	Br	1.398390	0.216218	-0.039490
H170	H	0.883687	0.100518	-0.118164
Br171	Br	1.459042	0.304123	0.052186
Br172	Br	0.843295	0.104263	-0.064662
H173	H	1.290289	0.459766	-0.001042
Br174	Br	0.276553	1.256172	-0.597777
H175	H	0.776576	0.324424	0.023676
H176	H	0.795246	0.459826	-0.001088
Br177	Br	0.257282	1.344168	-0.809544
H178	H	0.937140	0.780168	-0.462900
