data_functionalizedCrystal
_audit_creation_method	'MofGen! by Chris Wilmer'
_symmetry_space_group_name_H-M	'P1'
_symmetry_Int_Tables_number	1
_symmetry_cell_setting	triclinic
loop_
_symmetry_equiv_pos_as_xyz
  x,y,z
_cell_length_a	19.188930
_cell_length_b	19.188930
_cell_length_c	16.176319
_cell_angle_alpha	90.008567
_cell_angle_beta	90.019857
_cell_angle_gamma	83.144779
loop_
_atom_site_label
_atom_site_type_symbol
_atom_site_fract_x
_atom_site_fract_y
_atom_site_fract_z
O1	O	0.926147	0.087166	0.069022
O2	O	1.426147	0.587166	0.569022
O3	O	0.722835	0.098900	0.068966
O4	O	1.222835	0.598900	0.568966
O5	O	0.830358	-0.008622	0.068979
O6	O	1.330358	0.491378	0.568979
O7	O	0.818624	0.194689	0.069008
O8	O	1.318624	0.694689	0.569008
O9	O	0.830345	-0.008623	-0.068514
O10	O	1.330345	0.491377	0.431486
O11	O	0.722823	0.098900	-0.068527
O12	O	1.222823	0.598900	0.431473
O13	O	0.926134	0.087166	-0.068472
O14	O	1.426134	0.587166	0.431528
Cu15	Cu	0.824477	0.093033	-0.081054
Cu16	Cu	1.324477	0.593033	0.418946
Cu17	Cu	0.824492	0.093033	0.081548
Cu18	Cu	1.324492	0.593033	0.581548
O19	O	0.818611	0.194689	-0.068485
O20	O	1.318611	0.694689	0.431515
C21	C	0.696818	0.098520	0.000212
C22	C	1.196818	0.598520	0.500212
C23	C	0.619313	0.097380	0.000190
C24	C	1.119313	0.597380	0.500190
C25	C	0.574389	0.160470	0.000212
C26	C	1.074389	0.660470	0.500212
C27	C	0.501566	0.159399	0.000221
C28	C	1.001566	0.659399	0.500221
C29	C	0.473669	0.095233	0.000225
C30	C	0.973669	0.595233	0.500225
C31	C	0.518603	0.032133	0.000198
C32	C	1.018603	0.532133	0.500198
C33	C	0.591425	0.033207	0.000181
C34	C	1.091425	0.533207	0.500181
N35	N	0.365693	0.046186	0.047046
N36	N	0.865693	0.546186	0.547046
N37	N	0.296515	0.045170	0.047064
N38	N	0.796515	0.545170	0.547064
C39	C	0.254260	0.091994	0.000275
C40	C	0.754260	0.591994	0.500275
N41	N	0.283797	0.139883	-0.046523
N42	N	0.783797	0.639883	0.453477
N43	N	0.352982	0.140901	-0.046537
N44	N	0.852982	0.640901	0.453463
C45	C	0.394707	0.094062	0.000243
C46	C	0.894707	0.594062	0.500243
C47	C	0.130372	0.153928	0.000305
C48	C	0.630372	0.653928	0.500305
C49	C	0.057547	0.152853	0.000309
C50	C	0.557547	0.652853	0.500309
C51	C	0.074586	0.025586	0.000294
C52	C	0.574586	0.525586	0.500294
C53	C	0.147409	0.026662	0.000282
C54	C	0.647409	0.526662	0.500282
C55	C	0.175298	0.090835	0.000292
C56	C	0.675298	0.590835	0.500292
C57	C	0.829972	-0.034634	0.000230
C58	C	1.329972	0.465366	0.500230
C59	C	0.828831	-0.112138	0.000223
C60	C	1.328831	0.387862	0.500223
C61	C	0.891922	-0.157062	0.000236
C62	C	1.391922	0.342938	0.500236
C63	C	0.890850	-0.229886	0.000249
C64	C	1.390850	0.270114	0.500249
C65	C	0.826684	-0.257782	0.000232
C66	C	1.326684	0.242218	0.500232
C67	C	0.763585	-0.212849	0.000223
C68	C	1.263585	0.287151	0.500223
C69	C	0.764658	-0.140026	0.000219
C70	C	1.264658	0.359974	0.500219
N71	N	0.777632	-0.365787	-0.046573
N72	N	1.277632	0.134213	0.453427
N73	N	0.776617	-0.434966	-0.046570
N74	N	1.276617	0.065034	0.453430
C75	C	0.823446	-0.477191	0.000248
C76	C	1.323446	0.022809	0.500248
N77	N	0.871339	-0.447625	0.047053
N78	N	1.371339	0.052375	0.547053
N79	N	0.872357	-0.378441	0.047047
N80	N	1.372357	0.121559	0.547047
C81	C	0.825513	-0.336745	0.000238
C82	C	1.325513	0.163255	0.500238
C83	C	0.885379	-0.601079	0.000276
C84	C	1.385379	-0.101079	0.500276
C85	C	0.884305	-0.673904	0.000294
C86	C	1.384305	-0.173904	0.500294
C87	C	0.757038	-0.656865	0.000261
C88	C	1.257038	-0.156865	0.500261
C89	C	0.758114	-0.584042	0.000251
C90	C	1.258114	-0.084042	0.500251
C91	C	0.822286	-0.556154	0.000255
C92	C	1.322286	-0.056154	0.500255
C93	C	0.952151	0.087546	0.000284
C94	C	1.452151	0.587546	0.500284
C95	C	1.029656	0.088687	0.000311
C96	C	1.529656	0.588687	0.500311
C97	C	0.818997	0.220700	0.000266
C98	C	1.318997	0.720700	0.500266
C99	C	0.820138	0.298204	0.000279
C100	C	1.320138	0.798204	0.500279
N101	N	0.824472	0.093032	-0.195419
N102	N	1.324472	0.593032	0.304581
C103	C	0.866684	0.135276	-0.238661
C104	C	1.366684	0.635276	0.261339
C105	C	0.866692	0.135273	-0.325208
C106	C	1.366692	0.635273	0.174792
C107	C	0.824482	0.093030	-0.368511
C108	C	1.324482	0.593030	0.131489
C109	C	0.782268	0.050782	-0.325263
C110	C	1.282268	0.550782	0.174737
C111	C	0.782265	0.050781	-0.238718
C112	C	1.282265	0.550781	0.261282
C113	C	0.782281	0.050782	-0.674292
C114	C	1.282281	0.550782	-0.174292
C115	C	0.782286	0.050788	-0.760843
C116	C	1.282286	0.550788	-0.260843
C117	C	0.866708	0.135275	-0.760782
C118	C	1.366708	0.635275	-0.260782
C119	C	0.866705	0.135274	-0.674236
C120	C	1.366705	0.635274	-0.174236
C121	C	0.824494	0.093023	-0.630996
C122	C	1.324494	0.593023	-0.130996
C123	C	0.824487	0.093026	-0.537152
C124	C	1.324487	0.593026	-0.037152
C125	C	0.824485	0.093031	-0.462354
C126	C	1.324485	0.593031	0.037646
N127	N	0.824503	0.093028	0.195913
N128	N	1.324503	0.593028	0.695913
H129	H	0.051874	-0.026659	0.000349
H130	H	0.551874	0.473341	0.500349
O131	O	0.491624	-0.030259	0.000169
O132	O	0.991624	0.469741	0.500169
C133	C	0.516208	-0.156374	0.000203
C134	C	1.016208	0.343626	0.500203
C135	C	0.546853	-0.085763	0.000220
C136	C	1.046853	0.414237	0.500220
H137	H	0.560845	-0.201268	0.000262
H138	H	1.060845	0.298732	0.500262
H139	H	0.482536	-0.160108	-0.057342
H140	H	0.982536	0.339892	0.442658
H141	H	0.482545	-0.160019	0.057740
H142	H	0.982545	0.339981	0.557740
H143	H	0.580547	-0.082070	-0.057278
H144	H	1.080547	0.417930	0.442722
H145	H	0.580484	-0.082060	0.057802
H146	H	1.080484	0.417940	0.557802
O147	O	0.741284	0.009810	-0.367451
O148	O	1.241284	0.509810	0.132549
C149	C	0.703860	-0.027630	-0.500800
C150	C	1.203860	0.472370	-0.000800
C151	C	0.750299	0.018815	-0.453130
C152	C	1.250299	0.518815	0.046870
H153	H	0.711143	-0.020377	-0.570079
H154	H	1.211143	0.479623	-0.070079
H155	H	0.646471	-0.011947	-0.483830
H156	H	1.146471	0.488053	0.016170
H157	H	0.719623	-0.084996	-0.483773
H158	H	1.219623	0.415004	0.016227
H159	H	0.734598	0.076194	-0.470132
H160	H	1.234598	0.576194	0.029868
H161	H	0.807676	0.003072	-0.470104
H162	H	1.307676	0.503072	0.029896
H163	H	0.944176	-0.134360	0.000242
H164	H	1.444176	0.365640	0.500242
O165	O	0.601363	0.222867	0.000176
O166	O	1.101363	0.722867	0.500176
C167	C	0.576774	0.348982	0.000243
C168	C	1.076774	0.848982	0.500243
C169	C	0.546132	0.278369	0.000268
C170	C	1.046132	0.778369	0.500268
H171	H	0.532135	0.393874	0.000335
H172	H	1.032135	0.893874	0.500335
H173	H	0.610388	0.352715	-0.057320
H174	H	1.110388	0.852715	0.442680
H175	H	0.610495	0.352629	0.057761
H176	H	1.110495	0.852629	0.557761
H177	H	0.512380	0.274674	-0.057211
H178	H	1.012380	0.774674	0.442789
H179	H	0.512559	0.274666	0.057870
H180	H	1.012559	0.774666	0.557870
O181	O	0.457845	0.220641	0.000358
O182	O	0.957845	0.720641	0.500358
C183	C	0.365800	0.293292	0.071660
C184	C	0.865800	0.793292	0.571660
C185	C	0.415260	0.223903	0.071596
C186	C	0.915260	0.723903	0.571596
H187	H	0.331367	0.295958	0.129258
H188	H	0.831367	0.795958	0.629258
H189	H	0.331202	0.295983	0.014169
H190	H	0.831202	0.795983	0.514169
H191	H	0.398255	0.339330	0.071622
H192	H	0.898255	0.839330	0.571622
H193	H	0.382860	0.177826	0.071663
H194	H	0.882860	0.677826	0.571663
H195	H	0.449859	0.221273	0.129082
H196	H	0.949859	0.721273	0.629082
O197	O	0.696780	-0.540471	0.000338
O198	O	1.196780	-0.040471	0.500338
C199	C	0.588361	-0.503588	0.071561
C200	C	1.088361	-0.003588	0.571561
C201	C	0.657791	-0.552983	0.071553
C202	C	1.157791	-0.052983	0.571553
H203	H	0.556825	-0.513676	0.129141
H204	H	1.056825	-0.013676	0.629141
H205	H	0.556718	-0.513723	0.014052
H206	H	1.056718	-0.013723	0.514052
H207	H	0.600165	-0.446754	0.071520
H208	H	1.100165	0.053246	0.571520
H209	H	0.646050	-0.609834	0.071623
H210	H	1.146050	-0.109834	0.571623
H211	H	0.689413	-0.542786	0.129057
H212	H	1.189413	-0.042786	0.629057
H213	H	0.747891	0.016382	-0.203511
H214	H	1.247891	0.516382	0.296489
H215	H	0.628003	-0.018171	0.000163
H216	H	1.128003	0.481829	0.500163
H217	H	0.901073	0.169675	-0.638983
H218	H	1.401073	0.669675	-0.138983
O219	O	0.157352	0.216323	0.000269
O220	O	0.657352	0.716323	0.500269
C221	C	0.132768	0.342438	0.000332
C222	C	0.632768	0.842438	0.500332
C223	C	0.102123	0.271826	0.000354
C224	C	0.602123	0.771826	0.500354
H225	H	0.088130	0.387332	0.000418
H226	H	0.588130	0.887332	0.500418
H227	H	0.166387	0.346169	-0.057227
H228	H	0.666387	0.846169	0.442773
H229	H	0.166483	0.346085	0.057854
H230	H	0.666483	0.846085	0.557854
H231	H	0.068376	0.268132	-0.057129
H232	H	0.568376	0.768132	0.442871
H233	H	0.068544	0.268126	0.057951
H234	H	0.568544	0.768126	0.557951
O235	O	0.947668	-0.573898	0.000401
O236	O	1.447668	-0.073898	0.500401
C237	C	1.022757	-0.501583	0.071671
C238	C	1.522757	-0.001583	0.571671
C239	C	0.952185	-0.532304	0.071622
C240	C	1.452185	-0.032304	0.571622
H241	H	1.026438	-0.467959	0.129256
H242	H	1.526438	0.032041	0.629256
H243	H	1.026448	-0.467882	0.014167
H244	H	1.526448	0.032118	0.514167
H245	H	1.067657	-0.546214	0.071651
H246	H	1.567657	-0.046214	0.571651
H247	H	0.907244	-0.487718	0.071671
H248	H	1.407244	0.012282	0.571671
H249	H	0.948555	-0.566024	0.129122
H250	H	1.448555	-0.066024	0.629122
H251	H	0.020970	0.204232	0.000322
H252	H	0.520970	0.704232	0.500322
H253	H	0.183988	-0.024713	0.000269
H254	H	0.683988	0.475287	0.500269
H255	H	0.704792	-0.679578	0.000251
H256	H	1.204792	-0.179578	0.500251
H257	H	0.942228	-0.266470	0.000263
H258	H	1.442228	0.233530	0.500263
H259	H	0.711340	-0.235567	0.000212
H260	H	1.211340	0.264433	0.500212
O261	O	0.907646	0.176412	-0.196691
O262	O	1.407646	0.676412	0.303309
C263	C	0.934518	0.293861	-0.170141
C264	C	1.434518	0.793861	0.329859
C265	C	0.888088	0.247356	-0.217735
C266	C	1.388088	0.747356	0.282265
H267	H	0.918712	0.351229	-0.187125
H268	H	1.418712	0.851229	0.312875
H269	H	0.991903	0.278209	-0.187151
H270	H	1.491903	0.778209	0.312849
H271	H	0.927279	0.286570	-0.100861
H272	H	1.427279	0.786570	0.399139
H273	H	0.895265	0.254623	-0.287026
H274	H	1.395265	0.754623	0.212974
H275	H	0.830720	0.263019	-0.200656
H276	H	1.330720	0.763019	0.299344
O277	O	0.907795	0.176272	-0.367118
O278	O	1.407795	0.676272	0.132882
C279	C	1.025216	0.203234	-0.393562
C280	C	1.525216	0.703234	0.106438
C281	C	0.978745	0.156763	-0.346036
C282	C	1.478745	0.656763	0.153964
H283	H	1.082590	0.187468	-0.376548
H284	H	1.582590	0.687468	0.123452
H285	H	1.009522	0.260611	-0.376524
H286	H	1.509522	0.760611	0.123476
H287	H	1.017938	0.195994	-0.462853
H288	H	1.517938	0.695994	0.037147
H289	H	0.985999	0.163941	-0.276734
H290	H	1.485999	0.663941	0.223266
H291	H	0.994450	0.099403	-0.363143
H292	H	1.494450	0.599403	0.136857
O293	O	0.907739	0.176377	-0.802659
O294	O	1.407739	0.676377	-0.302659
C295	C	0.991507	0.260148	-0.793460
C296	C	1.491507	0.760148	-0.293460
C297	C	0.945065	0.213646	-0.745935
C298	C	1.445065	0.713646	-0.245935
H299	H	1.021709	0.290281	-0.747620
H300	H	1.521709	0.790281	-0.247620
H301	H	0.957084	0.298840	-0.833967
H302	H	1.457084	0.798840	-0.333967
H303	H	1.030149	0.225704	-0.833987
H304	H	1.530149	0.725704	-0.333987
H305	H	0.906417	0.248034	-0.705364
H306	H	1.406417	0.748034	-0.205364
H307	H	0.979532	0.174949	-0.705480
H308	H	1.479532	0.674949	-0.205480
H309	H	0.935683	-0.710481	0.000310
H310	H	1.435683	-0.210481	0.500310
O311	O	0.741267	0.009682	-0.802783
O312	O	1.241267	0.509682	-0.302783
C313	C	0.657506	-0.074098	-0.793720
C314	C	1.157506	0.425902	-0.293720
C315	C	0.703935	-0.027597	-0.746120
C316	C	1.203935	0.472403	-0.246120
H317	H	0.627299	-0.104239	-0.747928
H318	H	1.127299	0.395761	-0.247928
H319	H	0.691939	-0.112784	-0.834210
H320	H	1.191939	0.387216	-0.334210
H321	H	0.618868	-0.039653	-0.834270
H322	H	1.118868	0.460347	-0.334270
H323	H	0.742578	-0.061986	-0.705524
H324	H	1.242578	0.438014	-0.205524
H325	H	0.669457	0.011093	-0.705682
H326	H	1.169457	0.511093	-0.205682
H327	H	0.747911	0.016379	-0.639096
H328	H	1.247911	0.516379	-0.139096
H329	H	0.713281	-0.103449	0.000208
H330	H	1.213281	0.396551	0.500208
