data_functionalizedCrystal
_audit_creation_method	'MofGen! by Chris Wilmer'
_symmetry_space_group_name_H-M	'P1'
_symmetry_Int_Tables_number	1
_symmetry_cell_setting	triclinic
loop_
_symmetry_equiv_pos_as_xyz
  x,y,z
_cell_length_a	16.120530
_cell_length_b	12.827892
_cell_length_c	12.827885
_cell_angle_alpha	90.029786
_cell_angle_beta	87.081295
_cell_angle_gamma	92.888896
loop_
_atom_site_label
_atom_site_type_symbol
_atom_site_fract_x
_atom_site_fract_y
_atom_site_fract_z
Zn1	Zn	1.274619	0.497099	-0.671825
Zn2	Zn	1.607952	0.830432	-0.338492
Zn3	Zn	1.941286	1.163765	-0.005158
Zn4	Zn	1.274534	0.671871	-0.497080
Zn5	Zn	1.607867	1.005204	-0.163747
Zn6	Zn	1.941201	1.338537	0.169587
Zn7	Zn	1.135196	0.488277	-0.488241
Zn8	Zn	1.468530	0.821610	-0.154908
Zn9	Zn	1.801863	1.154943	0.178425
Zn10	Zn	1.135185	0.662925	-0.662927
Zn11	Zn	1.468518	0.996258	-0.329594
Zn12	Zn	1.801852	1.329591	0.003739
O13	O	1.204884	0.580043	-0.580018
O14	O	1.538217	0.913376	-0.246685
O15	O	1.871550	1.246709	0.086648
O16	O	1.391274	0.527718	-0.656068
O17	O	1.724608	0.861052	-0.322734
O18	O	2.057941	1.194385	0.010599
O19	O	1.256020	0.647568	-0.349669
O20	O	1.589353	0.980902	-0.016336
O21	O	1.922686	1.314235	0.316997
O22	O	1.153731	0.343213	-0.512619
O23	O	1.487065	0.676547	-0.179285
O24	O	1.820398	1.009880	0.154048
O25	O	1.391212	0.656122	-0.527683
O26	O	1.724545	0.989456	-0.194350
O27	O	2.057879	1.322789	0.138983
O28	O	1.256164	0.349695	-0.647497
O29	O	1.589498	0.683028	-0.314164
O30	O	1.922831	1.016361	0.019170
O31	O	1.153649	0.512683	-0.343176
O32	O	1.486982	0.846016	-0.009842
O33	O	1.820316	1.179349	0.323491
O34	O	1.018528	0.504008	-0.503991
O35	O	1.351861	0.837342	-0.170658
O36	O	1.685195	1.170675	0.162676
O37	O	1.153712	0.640876	-0.810346
O38	O	1.487045	0.974209	-0.477012
O39	O	1.820379	1.307542	-0.143679
O40	O	1.018520	0.632322	-0.632332
O41	O	1.351853	0.965655	-0.298999
O42	O	1.685186	1.298988	0.034335
O43	O	1.256154	0.519044	-0.816883
O44	O	1.589487	0.852377	-0.483550
O45	O	1.922820	1.185711	-0.150216
O46	O	1.256009	0.816917	-0.519055
O47	O	1.589342	1.150251	-0.185722
O48	O	1.922675	1.483584	0.147611
O49	O	1.153630	0.810345	-0.640902
O50	O	1.486963	1.143678	-0.307569
O51	O	1.820296	1.477012	0.025764
C52	C	0.988274	0.566238	-0.566237
C53	C	1.321607	0.899571	-0.232904
C54	C	1.654940	1.232904	0.100429
C55	C	0.895607	0.560357	-0.560366
C56	C	1.228940	0.893690	-0.227033
C57	C	1.562274	1.227024	0.106300
C58	C	1.204831	0.851549	-0.579997
C59	C	1.538165	1.184883	-0.246663
C60	C	1.871498	1.518216	0.086670
C61	C	1.204885	0.967706	-0.580027
C62	C	1.538219	1.301039	-0.246694
C63	C	1.871552	1.634372	0.086640
C64	C	1.204959	0.307477	-0.580065
C65	C	1.538292	0.640811	-0.246731
C66	C	1.871625	0.974144	0.086602
C67	C	1.204991	0.191326	-0.580084
C68	C	1.538324	0.524659	-0.246751
C69	C	1.871657	0.857993	0.086582
C70	C	0.725944	0.549596	-0.549657
C71	C	1.059277	0.882929	-0.216324
C72	C	1.392610	1.216263	0.117010
C73	C	0.684664	0.610566	-0.610456
C74	C	1.017997	0.943899	-0.277123
C75	C	1.351331	1.277233	0.056210
C76	C	0.590258	0.604579	-0.604497
C77	C	0.923591	0.937912	-0.271164
C78	C	1.256924	1.271245	0.062169
C79	C	0.820359	0.555582	-0.555614
C80	C	1.153692	0.888915	-0.222281
C81	C	1.487025	1.222249	0.111052
C82	C	1.422339	0.593902	-0.593854
C83	C	1.755673	0.927236	-0.260521
C84	C	2.089006	1.260569	0.072813
C85	C	1.515006	0.599808	-0.599750
C86	C	1.848339	0.933142	-0.266417
C87	C	2.181673	1.266475	0.066917
C88	C	1.204941	0.579946	-0.852592
C89	C	1.538274	0.913279	-0.519259
C90	C	1.871608	1.246613	-0.185926
C91	C	1.204966	0.579905	-0.968747
C92	C	1.538299	0.913238	-0.635414
C93	C	1.871632	1.246571	-0.302080
C94	C	1.255606	1.022712	-0.519808
C95	C	1.588939	1.356045	-0.186474
C96	C	1.922273	1.689379	0.146859
C97	C	1.255663	1.142766	-0.519838
C98	C	1.588996	1.476099	-0.186504
C99	C	1.922329	1.809433	0.146829
C100	C	1.154325	0.513148	-1.017320
C101	C	1.487659	0.846481	-0.683986
C102	C	1.820992	1.179814	-0.350653
C103	C	1.154350	0.513104	-1.137372
C104	C	1.487683	0.846437	-0.804038
C105	C	1.821016	1.179770	-0.470705
C106	C	1.204874	0.580067	-0.308508
C107	C	1.538208	0.913400	0.024825
C108	C	1.871541	1.246733	0.358159
C109	C	1.205011	0.579824	-0.192364
C110	C	1.538345	0.913157	0.140969
C111	C	1.871678	1.246490	0.474303
H112	H	0.720225	0.667260	-0.666985
H113	H	1.053558	1.000593	-0.333652
H114	H	1.386891	1.333926	-0.000318
O115	O	1.313203	1.205396	-0.451559
O116	O	1.646536	1.538730	-0.118225
O117	O	1.979869	1.872063	0.215108
H118	H	1.304229	1.289863	-0.462312
H119	H	1.637563	1.623196	-0.128978
H120	H	1.970896	1.956530	0.204355
H121	H	1.161561	1.144042	-0.631639
H122	H	1.494894	1.477375	-0.298306
H123	H	1.828228	1.810709	0.035027
O124	O	0.678833	0.474521	-0.474775
O125	O	1.012166	0.807854	-0.141441
O126	O	1.345500	1.141187	0.191892
H127	H	0.695488	0.393551	-0.493854
H128	H	1.028821	0.726884	-0.160521
H129	H	1.362154	1.060217	0.172812
H130	H	1.248337	0.637026	-1.016040
H131	H	1.581671	0.970360	-0.682707
H132	H	1.915004	1.303693	-0.349374
H133	H	1.298991	0.980928	-0.468233
H134	H	1.632325	1.314261	-0.134899
H135	H	1.965658	1.647595	0.198434
H136	H	1.161507	1.009493	-0.631610
H137	H	1.494841	1.342826	-0.298277
H138	H	1.828174	1.676159	0.035057
H139	H	1.110949	0.456031	-0.970026
H140	H	1.444283	0.789365	-0.636693
H141	H	1.777616	1.122698	-0.303359
O142	O	1.096930	0.437380	-1.192712
O143	O	1.430263	0.770713	-0.859379
O144	O	1.763596	1.104047	-0.526046
H145	H	1.054540	0.481466	-1.239739
H146	H	1.387874	0.814799	-0.906406
H147	H	1.721207	1.148132	-0.573072
O148	O	1.262452	0.655538	-1.137042
O149	O	1.595785	0.988871	-0.803709
O150	O	1.929119	1.322204	-0.470376
H151	H	1.225080	0.706306	-1.084933
H152	H	1.558414	1.039639	-0.751600
H153	H	1.891747	1.372972	-0.418266
