data_functionalizedCrystal
_audit_creation_method	'MofGen! by Chris Wilmer'
_symmetry_space_group_name_H-M	'P1'
_symmetry_Int_Tables_number	1
_symmetry_cell_setting	triclinic
loop_
_symmetry_equiv_pos_as_xyz
  x,y,z
_cell_length_a	19.805407
_cell_length_b	18.101395
_cell_length_c	19.805380
_cell_angle_alpha	89.896172
_cell_angle_beta	89.929483
_cell_angle_gamma	90.031104
loop_
_atom_site_label
_atom_site_type_symbol
_atom_site_fract_x
_atom_site_fract_y
_atom_site_fract_z
Zn1	Zn	1.035054	-0.294271	-0.382732
Zn2	Zn	1.535054	0.205729	0.117268
Zn3	Zn	1.034859	-0.418285	-0.269549
Zn4	Zn	1.534859	0.081715	0.230451
Zn5	Zn	0.921768	-0.294462	-0.269557
Zn6	Zn	1.421768	0.205538	0.230443
Zn7	Zn	0.921823	-0.418076	-0.382696
Zn8	Zn	1.421823	0.081924	0.117304
O9	O	0.978376	-0.356273	-0.326133
O10	O	1.478376	0.143727	0.173867
O11	O	1.129745	-0.310730	-0.367730
O12	O	1.629745	0.189270	0.132270
O13	O	1.019753	-0.402027	-0.174833
O14	O	1.519753	0.097973	0.325167
O15	O	0.936854	-0.190804	-0.284588
O16	O	1.436854	0.309196	0.215412
O17	O	1.129601	-0.401842	-0.284575
O18	O	1.629601	0.098158	0.215425
O19	O	1.020085	-0.190664	-0.367738
O20	O	1.520085	0.309336	0.132262
O21	O	0.936665	-0.311055	-0.174839
O22	O	1.436665	0.188945	0.325161
O23	O	0.827059	-0.310852	-0.284553
O24	O	1.327059	0.189148	0.215447
O25	O	0.936948	-0.401485	-0.477418
O26	O	1.436948	0.098515	0.022582
O27	O	0.827099	-0.401670	-0.367676
O28	O	1.327099	0.098330	0.132324
O29	O	1.020138	-0.310527	-0.477444
O30	O	1.520138	0.189473	0.022556
O31	O	1.019806	-0.521890	-0.284539
O32	O	1.519806	-0.021890	0.215461
O33	O	0.936759	-0.521736	-0.367668
O34	O	1.436759	-0.021736	0.132332
C35	C	0.802520	-0.356259	-0.326112
C36	C	1.302520	0.143741	0.173888
C37	C	0.727288	-0.356271	-0.326118
C38	C	1.227288	0.143729	0.173882
C39	C	0.978286	-0.548684	-0.326113
C40	C	1.478286	-0.048684	0.173887
C41	C	0.978309	-0.630998	-0.326128
C42	C	1.478309	-0.130998	0.173872
C43	C	0.691983	-0.403632	-0.369330
C44	C	1.191983	0.096368	0.130670
C45	C	0.621294	-0.403633	-0.369340
C46	C	1.121294	0.096367	0.130660
C47	C	0.585913	-0.356277	-0.326133
C48	C	1.085913	0.143723	0.173867
C49	C	0.621223	-0.308911	-0.282919
C50	C	1.121223	0.191089	0.217081
C51	C	0.691910	-0.308907	-0.282914
C52	C	1.191910	0.191093	0.217086
C53	C	0.336150	-0.308927	-0.282942
C54	C	0.836150	0.191073	0.217058
C55	C	0.265458	-0.308937	-0.282949
C56	C	0.765458	0.191063	0.217051
C57	C	0.265534	-0.403654	-0.369368
C58	C	0.765534	0.096346	0.130632
C59	C	0.336221	-0.403649	-0.369362
C60	C	0.836221	0.096351	0.130638
C61	C	0.371525	-0.356281	-0.326151
C62	C	0.871525	0.143719	0.173849
C63	C	0.448174	-0.356279	-0.326142
C64	C	0.948174	0.143721	0.173858
C65	C	0.509265	-0.356282	-0.326138
C66	C	1.009265	0.143718	0.173862
C67	C	0.978457	-0.930089	-0.326164
C68	C	1.478457	-0.430089	0.173836
C69	C	0.926328	-0.898698	-0.378596
C70	C	1.426328	-0.398698	0.121404
C71	C	0.926080	-0.813080	-0.378432
C72	C	1.426080	-0.313080	0.121568
C73	C	0.978384	-0.781707	-0.326147
C74	C	1.478384	-0.281707	0.173853
C75	C	0.959009	-0.812962	-0.254812
C76	C	1.459009	-0.312962	0.245188
C77	C	0.958673	-0.898607	-0.255125
C78	C	1.458673	-0.398607	0.244875
C79	C	1.050075	-0.898406	-0.344439
C80	C	1.550075	-0.398406	0.155561
C81	C	1.049655	-0.812753	-0.346003
C82	C	1.549655	-0.312753	0.153997
C83	C	0.978343	-0.697847	-0.326132
C84	C	1.478343	-0.197847	0.173868
C85	C	0.978496	-1.013948	-0.326174
C86	C	1.478496	-0.513948	0.173826
C87	C	1.154919	-0.356288	-0.326156
C88	C	1.654919	0.143712	0.173844
C89	C	1.230151	-0.356294	-0.326165
C90	C	1.730151	0.143706	0.173835
C91	C	0.978571	-0.355961	-0.502677
C92	C	1.478571	0.144039	-0.002677
C93	C	0.978654	-0.355828	-0.577909
C94	C	1.478654	0.144172	-0.077909
C95	C	0.978485	-0.163111	-0.326168
C96	C	1.478485	0.336889	0.173832
C97	C	0.978532	-0.080797	-0.326183
C98	C	1.478532	0.419203	0.173817
C99	C	0.978221	-0.356531	-0.150277
C100	C	1.478221	0.143469	0.349723
C101	C	0.978269	-0.356455	-0.075045
C102	C	1.478269	0.143545	0.424955
C103	C	0.935056	-0.308852	0.386710
C104	C	1.435056	0.191148	0.886710
C105	C	0.934999	-0.308944	0.316022
C106	C	1.434999	0.191056	0.816022
C107	C	0.978543	-0.356008	0.280716
C108	C	1.478543	0.143992	0.780716
C109	C	1.022143	-0.402989	0.316102
C110	C	1.522143	0.097011	0.816102
C111	C	1.022197	-0.402901	0.386789
C112	C	1.522197	0.097099	0.886789
C113	C	1.021926	-0.403345	0.031029
C114	C	1.521926	0.096655	0.531029
C115	C	1.021871	-0.403428	-0.039663
C116	C	1.521871	0.096572	0.460337
C117	C	0.934728	-0.309388	-0.039738
C118	C	1.434728	0.190612	0.460262
C119	C	0.934782	-0.309300	0.030949
C120	C	1.434782	0.190700	0.530949
C121	C	0.978379	-0.356284	0.066329
C122	C	1.478379	0.143716	0.566329
C123	C	0.978440	-0.356185	0.142977
C124	C	1.478440	0.143815	0.642977
C125	C	0.978486	-0.356103	0.204069
C126	C	1.478486	0.143897	0.704069
H127	H	0.592552	-0.442199	-0.404527
H128	H	1.092552	0.057801	0.095473
O129	O	0.729990	-0.257832	-0.236297
O130	O	1.229990	0.242168	0.263703
H131	H	0.716459	-0.199709	-0.247993
H132	H	1.216459	0.300291	0.252007
O133	O	1.068838	-0.454197	-0.077741
O134	O	1.568838	0.045803	0.422259
H135	H	1.061480	-0.446356	-0.132838
H136	H	1.561480	0.053644	0.367162
O137	O	0.888093	-0.258087	0.424789
O138	O	1.388093	0.241913	0.924789
H139	H	0.857764	-0.225441	0.388308
H140	H	1.357764	0.274559	0.888308
O141	O	0.942131	-0.785048	-0.448491
O142	O	1.442131	-0.285048	0.051509
H143	H	0.899401	-0.751102	-0.467225
H144	H	1.399401	-0.251102	0.032775
O145	O	0.887981	-0.258271	0.277858
O146	O	1.387981	0.241729	0.777858
H147	H	0.857719	-0.225521	0.314284
H148	H	1.357719	0.274479	0.814284
H149	H	0.236780	-0.442220	-0.404555
H150	H	0.736780	0.057780	0.095445
H151	H	0.899326	-0.270973	0.059692
H152	H	1.399326	0.229027	0.559692
H153	H	1.067726	-0.919879	-0.395570
H154	H	1.567726	-0.419879	0.104430
H155	H	0.906319	-0.918672	-0.239645
H156	H	1.406319	-0.418672	0.260355
O157	O	1.069022	-0.785669	-0.415537
O158	O	1.569022	-0.285669	0.084463
H159	H	1.028064	-0.750240	-0.435874
H160	H	1.528064	-0.250240	0.064126
H161	H	0.592410	-0.270350	-0.247743
H162	H	1.092410	0.229650	0.252257
H163	H	1.057704	-0.441148	0.415595
H164	H	1.557704	0.058852	0.915595
H165	H	0.720785	-0.442197	-0.404512
H166	H	1.220785	0.057803	0.095488
H167	H	0.938337	-0.919168	-0.431662
H168	H	1.438337	-0.419168	0.068338
O169	O	1.069105	-0.453758	0.278026
O170	O	1.569105	0.046242	0.778026
H171	H	1.122159	-0.440631	0.291458
H172	H	1.622159	0.059369	0.791458
H173	H	0.995781	-0.792651	-0.214680
H174	H	1.495781	-0.292651	0.285320
O175	O	0.890393	-0.784677	-0.233933
O176	O	1.390393	-0.284677	0.266067
H177	H	0.869979	-0.748368	-0.274243
H178	H	1.369979	-0.248368	0.225757
H179	H	0.873567	-0.920302	-0.366643
H180	H	1.373567	-0.420302	0.133357
O181	O	0.887699	-0.258713	-0.077896
O182	O	1.387699	0.241287	0.422104
H183	H	0.898979	-0.200487	-0.064507
H184	H	1.398979	0.299513	0.435493
H185	H	1.090554	-0.791392	-0.310598
H186	H	1.590554	-0.291392	0.189402
O187	O	1.068963	-0.453999	0.069186
O188	O	1.568963	0.046001	0.569186
H189	H	1.099242	-0.486727	0.032757
H190	H	1.599242	0.013273	0.532757
O191	O	0.227291	-0.257852	-0.236353
O192	O	0.727291	0.242148	0.263647
H193	H	0.263716	-0.224906	-0.206309
H194	H	0.763716	0.275094	0.293691
O195	O	0.374213	-0.257856	-0.236315
O196	O	0.874213	0.242144	0.263685
H197	H	0.360681	-0.199731	-0.248002
H198	H	0.860681	0.300269	0.251998
H199	H	0.872996	-0.792674	-0.366327
H200	H	1.372996	-0.292674	0.133673
H201	H	0.365025	-0.442214	-0.404543
H202	H	0.865025	0.057786	0.095457
H203	H	0.994992	-0.919383	-0.214727
H204	H	1.494992	-0.419383	0.285273
O205	O	1.101561	-0.925467	-0.293969
O206	O	1.601561	-0.425467	0.206031
H207	H	1.076305	-0.961287	-0.256037
H208	H	1.576305	-0.461287	0.243963
