data_functionalizedCrystal
_audit_creation_method	'MofGen! by Chris Wilmer'
_symmetry_space_group_name_H-M	'P1'
_symmetry_Int_Tables_number	1
_symmetry_cell_setting	triclinic
loop_
_symmetry_equiv_pos_as_xyz
  x,y,z
_cell_length_a	10.489741
_cell_length_b	16.109301
_cell_length_c	14.586319
_cell_angle_alpha	89.998390
_cell_angle_beta	89.996802
_cell_angle_gamma	84.000327
loop_
_atom_site_label
_atom_site_type_symbol
_atom_site_fract_x
_atom_site_fract_y
_atom_site_fract_z
O1	O	-1.692355	-0.117293	0.076187
O2	O	-1.321000	-0.128303	0.076202
O3	O	-1.516879	-0.001830	0.076184
O4	O	-1.496476	-0.243766	0.076204
O5	O	-1.516855	-0.001837	-0.076296
O6	O	-1.320976	-0.128311	-0.076279
O7	O	-1.692331	-0.117300	-0.076294
Cu8	Cu	-1.506652	-0.122806	-0.090209
Cu9	Cu	-1.506680	-0.122797	0.090117
O10	O	-1.496452	-0.243774	-0.076277
C11	C	-1.273468	-0.127475	-0.000037
C12	C	-1.131875	-0.124987	-0.000032
C13	C	-1.739863	-0.118128	-0.000053
C14	C	-1.881456	-0.120616	-0.000052
C15	C	-1.516041	0.029146	-0.000056
C16	C	-1.513563	0.121457	-0.000058
C17	C	-1.064902	-0.044516	-0.000047
C18	C	-0.972236	-0.082526	0.075135
C19	C	-0.972246	-0.082553	-0.075199
C20	C	-1.041073	-0.163031	0.075212
C21	C	-1.041093	-0.163046	-0.075189
C22	C	-0.948453	-0.201115	0.000011
C23	C	-1.497291	-0.274750	-0.000034
C24	C	-1.499769	-0.367060	-0.000027
N25	N	-1.506641	-0.122812	-0.217041
C26	C	-1.624032	0.343048	-0.000047
C27	C	-1.621694	0.429783	-0.000040
C28	C	-1.389290	0.411341	-0.000034
C29	C	-1.391630	0.324608	-0.000035
C30	C	-1.509004	0.290464	-0.000047
C31	C	-1.504327	0.463932	-0.000038
C32	C	-1.501791	0.557974	-0.000030
C33	C	-1.511541	0.196417	-0.000053
C34	C	-1.583996	-0.173717	-0.452046
C35	C	-1.584010	-0.173712	-0.548028
C36	C	-1.429342	-0.071874	-0.548039
C37	C	-1.429336	-0.071876	-0.452060
C38	C	-1.506661	-0.122802	-0.404066
C39	C	-1.506680	-0.122795	-0.596027
C40	C	-1.506694	-0.122788	-0.700094
C41	C	-1.506650	-0.122808	-0.299992
N42	N	-1.506701	-0.122785	0.216949
H43	H	-0.941726	-0.048474	0.138692
C44	C	-1.082375	-0.209011	-0.161050
C45	C	-1.224750	-0.220438	-0.176303
C46	C	-1.266038	-0.266396	-0.262171
C47	C	-1.164950	-0.300927	-0.332786
C48	C	-1.022566	-0.289501	-0.317535
C49	C	-0.981278	-0.243543	-0.231667
H50	H	-1.299590	-0.194876	-0.124027
H51	H	-1.371441	-0.274855	-0.273460
H52	H	-1.195514	-0.334948	-0.396351
H53	H	-0.947726	-0.315064	-0.369811
H54	H	-0.875875	-0.235085	-0.220378
H55	H	-0.898069	-0.267337	0.000057
C56	C	-1.260183	0.448902	-0.000033
C57	C	-1.133653	0.391058	-0.000030
C58	C	-1.004542	0.428617	-0.000032
C59	C	-1.001962	0.524019	-0.000038
C60	C	-1.128496	0.581869	-0.000040
C61	C	-1.257607	0.544310	-0.000038
H62	H	-1.135559	0.320430	-0.000026
H63	H	-0.910873	0.385792	-0.000030
H64	H	-0.906386	0.551822	-0.000039
H65	H	-1.126590	0.652497	-0.000044
H66	H	-1.351276	0.587135	-0.000040
C67	C	-1.344259	-0.015867	-0.399275
C68	C	-1.363097	0.079471	-0.412470
C69	C	-1.278028	0.135479	-0.359685
C70	C	-1.174121	0.096150	-0.293705
C71	C	-1.155278	0.000808	-0.280506
C72	C	-1.240347	-0.055201	-0.333291
H73	H	-1.440020	0.108589	-0.461316
H74	H	-1.291977	0.206058	-0.369456
H75	H	-1.111147	0.137611	-0.254630
H76	H	-1.078355	-0.028310	-0.231660
H77	H	-1.226398	-0.125780	-0.323520
H78	H	-1.715362	0.472594	-0.000038
H79	H	-0.941752	-0.048492	-0.138760
C80	C	-1.265091	0.266757	-0.000035
C81	C	-1.234739	0.204592	-0.079212
C82	C	-1.108208	0.146741	-0.079207
C83	C	-1.012029	0.151055	-0.000027
C84	C	-1.042380	0.213223	0.079155
C85	C	-1.168910	0.271074	0.079151
H86	H	-1.305938	0.201397	-0.137831
H87	H	-1.085741	0.100721	-0.137824
H88	H	-0.918364	0.108230	-0.000024
H89	H	-0.971180	0.216418	0.137775
H90	H	-1.191377	0.317094	0.137768
H91	H	-1.646959	-0.215185	-0.412972
C92	C	-1.669076	-0.229722	-0.600806
C93	C	-1.754127	-0.285736	-0.548011
C94	C	-1.839198	-0.341748	-0.600789
C95	C	-1.839218	-0.341746	-0.706363
C96	C	-1.754164	-0.285730	-0.759164
C97	C	-1.669093	-0.229718	-0.706386
H98	H	-1.754115	-0.285739	-0.469853
H99	H	-1.902161	-0.383214	-0.561701
H100	H	-1.902193	-0.383209	-0.745432
H101	H	-1.754176	-0.285727	-0.837321
H102	H	-1.606130	-0.188252	-0.745473
H103	H	-1.366385	-0.030412	-0.587128
H104	H	-1.071418	-0.197050	0.138845
H105	H	-1.115552	0.021636	0.000042
C106	C	-1.753140	0.305488	-0.000049
C107	C	-1.786707	0.248402	-0.079230
C108	C	-1.915819	0.210845	-0.079228
C109	C	-2.011363	0.230373	-0.000046
C110	C	-1.977798	0.287462	0.079140
C111	C	-1.848687	0.325020	0.079139
H112	H	-1.715978	0.233943	-0.137850
H113	H	-1.940665	0.168583	-0.137848
H114	H	-2.106939	0.202571	-0.000045
H115	H	-2.048528	0.301921	0.137761
H116	H	-1.823841	0.367281	0.137758
