data_functionalizedCrystal
_audit_creation_method	'MofGen! by Chris Wilmer'
_symmetry_space_group_name_H-M	'P1'
_symmetry_Int_Tables_number	1
_symmetry_cell_setting	triclinic
loop_
_symmetry_equiv_pos_as_xyz
  x,y,z
_cell_length_a	13.635800
_cell_length_b	27.923496
_cell_length_c	10.943567
_cell_angle_alpha	84.542255
_cell_angle_beta	108.837784
_cell_angle_gamma	81.036054
loop_
_atom_site_label
_atom_site_type_symbol
_atom_site_fract_x
_atom_site_fract_y
_atom_site_fract_z
V1	V	2.033092	-0.067115	0.403368
O2	O	2.037786	0.003236	0.394849
O3	O	1.997835	-0.133088	0.401417
O4	O	2.022452	-0.066077	0.578922
O5	O	2.012999	-0.064238	0.216115
V6	V	2.274581	-0.058700	0.380873
O7	O	2.164317	-0.085572	0.452712
O8	O	2.368454	-0.040243	0.331528
O9	O	2.198235	0.007273	0.382824
O10	O	2.328585	-0.129051	0.389391
O11	O	2.353373	-0.061577	0.568125
O12	O	2.173618	-0.059738	0.205319
V13	V	2.533092	-0.067115	0.403368
O14	O	2.537786	0.003236	0.394849
O15	O	2.497835	-0.133088	0.401417
O16	O	2.522452	-0.066077	0.578922
O17	O	2.512999	-0.064238	0.216115
V18	V	2.774581	-0.058700	0.380873
O19	O	2.664317	-0.085572	0.452712
O20	O	2.868454	-0.040243	0.331528
O21	O	2.698235	0.007273	0.382824
O22	O	2.828585	-0.129051	0.389391
O23	O	2.853373	-0.061577	0.568125
O24	O	2.673618	-0.059738	0.205319
C25	C	1.917207	-0.149171	0.395262
C26	C	1.929114	-0.203104	0.394837
C27	C	2.094236	-0.540032	0.398814
C28	C	2.139056	-0.742741	0.397278
O29	O	2.222377	-0.771057	0.402640
N30	N	2.053514	-0.765616	0.390608
C31	C	1.956763	-0.737811	0.384330
O32	O	1.885036	-0.761920	0.378635
C33	C	1.911946	-0.535104	0.385876
C34	C	1.997491	-0.512231	0.392533
C35	C	2.179774	-0.517159	0.405473
C36	C	2.168567	-0.466484	0.405849
C37	C	2.071822	-0.438683	0.399568
C38	C	1.986284	-0.461556	0.392910
C39	C	1.815198	-0.507300	0.379607
C40	C	1.804002	-0.456620	0.379998
C41	C	1.889547	-0.433747	0.386655
C42	C	1.878332	-0.383080	0.387006
N43	N	1.963874	-0.360205	0.393676
C44	C	2.060619	-0.388006	0.399957
C45	C	1.980298	-0.844236	0.383516
C46	C	1.991501	-0.894912	0.383127
C47	C	2.173795	-0.899839	0.396078
C48	C	2.162588	-0.849161	0.396457
C49	C	2.065839	-0.821361	0.390186
C50	C	2.037076	-0.281586	0.400747
C51	C	2.025859	-0.230906	0.401118
C52	C	1.843568	-0.225984	0.388174
C53	C	1.854782	-0.276659	0.387797
C54	C	1.951545	-0.304459	0.394088
O55	O	1.795048	-0.354735	0.381661
O56	O	2.132339	-0.363890	0.405680
C57	C	2.105443	-0.590707	0.398437
C58	C	2.019905	-0.613580	0.391779
C59	C	1.923160	-0.585778	0.385498
C60	C	2.031108	-0.664257	0.391390
C61	C	2.127853	-0.692058	0.397672
C62	C	2.213395	-0.669183	0.404342
C63	C	2.202188	-0.618508	0.404719
C64	C	1.837618	-0.608653	0.378828
C65	C	1.848832	-0.659328	0.378450
C66	C	1.945577	-0.687130	0.384731
C67	C	1.948608	-0.063692	0.621685
C68	C	1.980477	-0.063280	0.765207
C69	C	2.110533	0.023353	0.388975
C70	C	2.088246	0.077286	0.389408
C71	C	2.079132	-0.062125	0.162548
C72	C	2.036882	-0.062534	0.019025
C73	C	2.417207	-0.149171	0.395262
C74	C	2.429114	-0.203104	0.394837
C75	C	1.922993	-0.060253	0.928166
C76	C	1.938621	-0.021580	0.828539
C77	C	1.964394	-0.101939	0.862918
C78	C	2.052921	-0.023822	0.921274
C79	C	2.078694	-0.104217	0.955675
C80	C	2.094397	-0.065536	0.856087
C81	C	2.448608	-0.063692	0.621685
C82	C	2.480477	-0.063280	0.765207
C83	C	2.610533	0.023353	0.388975
C84	C	2.588246	0.077286	0.389408
C85	C	2.579132	-0.062125	0.162548
C86	C	2.536882	-0.062534	0.019025
C87	C	2.525859	-0.230906	0.401118
C88	C	2.537065	-0.281584	0.400739
C89	C	2.451524	-0.304459	0.394068
C90	C	2.354772	-0.276654	0.387791
C91	C	2.343569	-0.225977	0.388179
C92	C	2.663995	0.105088	0.383131
C93	C	2.643061	0.155765	0.383516
C94	C	2.546379	0.178640	0.390189
C95	C	2.470624	0.150835	0.396464
C96	C	2.491556	0.100159	0.396068
C97	C	2.403911	-0.060505	0.842321
C98	C	2.483455	-0.101707	0.948812
C99	C	2.457730	-0.021349	0.914448
C100	C	2.559613	-0.104521	0.869822
C101	C	2.533861	-0.024127	0.835434
C102	C	2.613469	-0.065341	0.941896
H103	H	2.095523	-0.212285	0.406534
H104	H	1.879105	0.013355	0.773377
F105	F	2.240593	-0.196393	0.381484
H106	H	2.554798	0.008673	0.786052
H107	H	1.764798	-0.203339	0.383054
H108	H	2.285129	-0.295287	0.382360
F109	F	2.729670	-0.068025	0.998454
H110	H	1.926624	-0.134949	0.836803
F111	F	2.102153	0.019381	0.955144
H112	H	2.742724	0.086470	0.377698
F113	F	2.188830	-0.068448	0.814735
H114	H	1.785127	-0.295283	0.382384
F115	F	1.900444	-0.919248	0.376014
F116	F	2.156453	-0.149880	1.027817
H117	H	2.615852	-0.304216	0.405847
H118	H	2.414964	0.013793	0.934783
H119	H	2.271849	-0.599890	0.410139
H120	H	2.704757	0.178397	0.378409
H121	H	1.758838	-0.586022	0.373714
F122	F	2.259615	-0.442147	0.412924
F123	F	2.616915	-0.206571	0.408226
F124	F	2.463463	-0.358394	0.393654
H125	H	2.529348	0.219904	0.390509
H126	H	2.258558	-0.539790	0.410592
F127	F	2.140060	-0.311165	0.407443
H128	H	2.391905	0.169468	0.401895
F129	F	2.410926	0.070576	0.402755
H130	H	2.462477	-0.134505	0.998160
H131	H	2.315042	-0.058515	0.798848
H132	H	2.232247	-0.830541	0.401875
H133	H	2.602379	-0.139711	0.849705
H134	H	1.901510	-0.821605	0.378407
H135	H	2.252566	-0.922483	0.401178
H136	H	1.850845	-0.057965	0.960020
F137	F	1.701028	-0.427036	0.373328
F138	F	2.316358	-0.698780	0.411019
F139	F	1.724141	-0.531631	0.372510
H140	H	1.779162	-0.677946	0.373020
