data_functionalizedCrystal
_audit_creation_method	'MofGen! by Chris Wilmer'
_symmetry_space_group_name_H-M	'P1'
_symmetry_Int_Tables_number	1
_symmetry_cell_setting	triclinic
loop_
_symmetry_equiv_pos_as_xyz
  x,y,z
_cell_length_a	13.033293
_cell_length_b	19.120786
_cell_length_c	13.032268
_cell_angle_alpha	94.409956
_cell_angle_beta	89.079182
_cell_angle_gamma	99.298280
loop_
_atom_site_label
_atom_site_type_symbol
_atom_site_fract_x
_atom_site_fract_y
_atom_site_fract_z
Zn1	Zn	1.486522	-0.218229	-0.766087
Zn2	Zn	1.819855	0.115105	-0.432753
Zn3	Zn	2.153188	0.448438	-0.099420
Zn4	Zn	1.502749	-0.319030	-0.587002
Zn5	Zn	1.836082	0.014303	-0.253669
Zn6	Zn	2.169416	0.347637	0.079664
Zn7	Zn	1.336584	-0.214525	-0.572524
Zn8	Zn	1.669918	0.118809	-0.239190
Zn9	Zn	2.003251	0.452142	0.094143
Zn10	Zn	1.307400	-0.348271	-0.734979
Zn11	Zn	1.640733	-0.014938	-0.401646
Zn12	Zn	1.974066	0.318396	-0.068313
O13	O	1.408314	-0.275014	-0.665148
O14	O	1.741647	0.058320	-0.331815
O15	O	2.074980	0.391653	0.001519
O16	O	1.633178	-0.220913	-0.761409
O17	O	1.966511	0.112420	-0.428075
O18	O	2.299844	0.445754	-0.094742
O19	O	1.499712	-0.291380	-0.442146
O20	O	1.833045	0.041954	-0.108813
O21	O	2.166379	0.375287	0.224521
O22	O	1.361897	-0.116857	-0.605159
O23	O	1.695230	0.216476	-0.271826
O24	O	2.028563	0.549810	0.061507
O25	O	1.645100	-0.294971	-0.629836
O26	O	1.978433	0.038362	-0.296503
O27	O	2.311766	0.371695	0.036831
O28	O	1.472055	-0.119578	-0.747369
O29	O	1.805388	0.213755	-0.414036
O30	O	2.138721	0.547088	-0.080703
O31	O	1.377632	-0.214600	-0.431509
O32	O	1.710965	0.118733	-0.098175
O33	O	2.044298	0.452067	0.235158
O34	O	1.188210	-0.242954	-0.574996
O35	O	1.521543	0.090380	-0.241663
O36	O	1.854876	0.423713	0.091671
O37	O	1.312156	-0.344808	-0.882042
O38	O	1.645489	-0.011475	-0.548708
O39	O	1.978822	0.321858	-0.215375
O40	O	1.166768	-0.341216	-0.694351
O41	O	1.500101	-0.007883	-0.361018
O42	O	1.833434	0.325450	-0.027685
O43	O	1.443756	-0.249267	-0.904896
O44	O	1.777089	0.084067	-0.571563
O45	O	2.110422	0.417400	-0.238229
O46	O	1.471413	-0.421068	-0.599673
O47	O	1.804746	-0.087735	-0.266339
O48	O	2.138079	0.245599	0.066994
O49	O	1.327891	-0.442551	-0.708391
O50	O	1.661224	-0.109218	-0.375057
O51	O	1.994557	0.224115	-0.041724
C52	C	1.140020	-0.294857	-0.629728
C53	C	1.473354	0.038477	-0.296394
C54	C	1.806687	0.371810	0.036939
C55	C	1.025239	-0.303365	-0.614598
C56	C	1.358573	0.029969	-0.281264
C57	C	1.691906	0.363302	0.052069
C58	C	0.968151	-0.270591	-0.673043
C59	C	1.301484	0.062743	-0.339710
C60	C	1.634817	0.396076	-0.006376
C61	C	0.849518	-0.279384	-0.657407
C62	C	1.182851	0.053950	-0.324074
C63	C	1.516185	0.387283	0.009260
C64	C	1.398271	-0.457261	-0.652253
C65	C	1.731604	-0.123928	-0.318920
C66	C	2.064937	0.209405	0.014414
C67	C	1.394064	-0.535224	-0.646783
C68	C	1.727397	-0.201891	-0.313450
C69	C	2.060731	0.131443	0.019883
C70	C	1.449385	-0.573216	-0.718301
C71	C	1.782718	-0.239883	-0.384968
C72	C	2.116052	0.093450	-0.051635
C73	C	1.445428	-0.646471	-0.713163
C74	C	1.778761	-0.313138	-0.379830
C75	C	2.112095	0.020196	-0.046496
C76	C	1.386156	-0.681731	-0.636502
C77	C	1.719489	-0.348398	-0.303168
C78	C	2.052822	-0.015064	0.030165
C79	C	1.330828	-0.643734	-0.564980
C80	C	1.664161	-0.310401	-0.231647
C81	C	1.997495	0.022933	0.101687
C82	C	1.334780	-0.570481	-0.570124
C83	C	1.668113	-0.237148	-0.236790
C84	C	2.001446	0.096185	0.096543
C85	C	1.371352	-0.902838	-0.617269
C86	C	1.704686	-0.569505	-0.283936
C87	C	2.038019	-0.236172	0.049398
C88	C	1.367407	-0.976096	-0.612129
C89	C	1.700741	-0.642762	-0.278796
C90	C	2.034074	-0.309429	0.054538
C91	C	1.482006	-0.978828	-0.760314
C92	C	1.815340	-0.645495	-0.426980
C93	C	2.148673	-0.312161	-0.093647
C94	C	1.485958	-0.905573	-0.765447
C95	C	1.819291	-0.572240	-0.432113
C96	C	2.152624	-0.238907	-0.098780
C97	C	1.430626	-0.867583	-0.693928
C98	C	1.763959	-0.534250	-0.360595
C99	C	2.097293	-0.200916	-0.027262
C100	C	1.382112	-0.756609	-0.631246
C101	C	1.715445	-0.423275	-0.297912
C102	C	2.048779	-0.089942	0.035421
C103	C	1.434664	-0.792708	-0.699190
C104	C	1.767997	-0.459374	-0.365856
C105	C	2.101331	-0.126041	-0.032523
C106	C	1.677655	-0.255094	-0.700707
C107	C	2.010988	0.078240	-0.367374
C108	C	2.344321	0.411573	-0.034041
C109	C	1.792432	-0.246605	-0.715861
C110	C	2.125765	0.086728	-0.382527
C111	C	2.459098	0.420062	-0.049194
C112	C	1.372890	-0.300712	-0.931567
C113	C	1.706223	0.032621	-0.598233
C114	C	2.039557	0.365954	-0.264900
C115	C	1.357794	-0.311664	-1.045098
C116	C	1.691128	0.021670	-0.711765
C117	C	2.024461	0.355003	-0.378432
C118	C	1.418421	-0.092054	-0.678119
C119	C	1.751754	0.241279	-0.344786
C120	C	2.085088	0.574612	-0.011453
C121	C	1.422728	-0.014088	-0.683647
C122	C	1.756062	0.319245	-0.350313
C123	C	2.089395	0.652579	-0.016980
C124	C	1.416177	-0.269274	-1.107022
C125	C	1.749511	0.064059	-0.773689
C126	C	2.082844	0.397393	-0.440356
C127	C	1.400577	-0.280592	-1.224364
C128	C	1.733910	0.052742	-0.891030
C129	C	2.067244	0.386075	-0.557697
C130	C	1.443662	-0.249360	-0.399777
C131	C	1.776995	0.083974	-0.066444
C132	C	2.110328	0.417307	0.266890
C133	C	1.458968	-0.238196	-0.286286
C134	C	1.792301	0.095137	0.047047
C135	C	2.125635	0.428470	0.380380
H136	H	1.497656	-0.544512	-0.780723
H137	H	1.830989	-0.211178	-0.447390
H138	H	2.164323	0.122155	-0.114057
H139	H	1.296255	-0.356330	-1.078954
H140	H	1.629588	-0.022996	-0.745620
H141	H	1.962921	0.310337	-0.412287
H142	H	1.333856	-0.785325	-0.568825
H143	H	1.667189	-0.451992	-0.235492
H144	H	2.000522	-0.118658	0.097842
H145	H	1.339033	-0.325261	-1.258214
H146	H	1.672366	0.008073	-0.924881
H147	H	2.005700	0.341406	-0.591548
H148	H	0.986288	-0.337932	-0.552982
H149	H	1.319621	-0.004598	-0.219649
H150	H	1.652955	0.328735	0.113684
H151	H	1.490485	-0.677400	-0.771394
H152	H	1.823819	-0.344066	-0.438060
H153	H	2.157152	-0.010733	-0.104727
H154	H	1.326301	-0.871912	-0.559034
H155	H	1.659635	-0.538579	-0.225701
H156	H	1.992968	-0.205246	0.107632
H157	H	1.007103	-0.236019	-0.734653
H158	H	1.340436	0.097314	-0.401319
H159	H	1.673769	0.430647	-0.067986
H160	H	1.534222	-0.876866	-0.827870
H161	H	1.867555	-0.543533	-0.494537
H162	H	2.200889	-0.210199	-0.161204
H163	H	1.520501	-0.193519	-1.252436
H164	H	1.853834	0.139814	-0.919103
H165	H	2.187167	0.473147	-0.585770
H166	H	0.831378	-0.212030	-0.777474
H167	H	1.164711	0.121304	-0.444140
H168	H	1.498045	0.454637	-0.110807
H169	H	1.527053	-1.009767	-0.818540
H170	H	1.860386	-0.676434	-0.485207
H171	H	2.193720	-0.343101	-0.151874
H172	H	1.319136	-1.004803	-0.549700
H173	H	1.652469	-0.671469	-0.216367
H174	H	1.985802	-0.338136	0.116966
H175	H	1.477707	-0.224602	-1.073166
H176	H	1.811041	0.108732	-0.739833
H177	H	2.144374	0.442065	-0.406500
H178	H	0.810571	-0.313953	-0.595787
H179	H	1.143905	0.019381	-0.262454
H180	H	1.477238	0.352714	0.070879
H181	H	1.289730	-0.539549	-0.511887
H182	H	1.623063	-0.206216	-0.178554
H183	H	1.956397	0.127118	0.154779
H184	H	1.282562	-0.672449	-0.502564
H185	H	1.615896	-0.339116	-0.169231
H186	H	1.949229	-0.005783	0.164102
H187	H	1.482919	-0.763998	-0.761611
H188	H	1.816253	-0.430664	-0.428278
H189	H	2.149586	-0.097331	-0.094944
