data_functionalizedCrystal
_audit_creation_method	'MofGen! by Chris Wilmer'
_symmetry_space_group_name_H-M	'P1'
_symmetry_Int_Tables_number	1
_symmetry_cell_setting	triclinic
loop_
_symmetry_equiv_pos_as_xyz
  x,y,z
_cell_length_a	9.065215
_cell_length_b	7.540329
_cell_length_c	10.654550
_cell_angle_alpha	90.002039
_cell_angle_beta	84.749800
_cell_angle_gamma	90.001076
loop_
_atom_site_label
_atom_site_type_symbol
_atom_site_fract_x
_atom_site_fract_y
_atom_site_fract_z
O1	O	1.959391	0.147457	0.184140
O2	O	1.530023	0.147465	0.199249
O3	O	1.754579	0.147454	0.008994
O4	O	1.734835	0.147467	0.374395
O5	O	1.754572	-0.147511	0.008993
O6	O	1.530016	-0.147501	0.199248
O7	O	1.959384	-0.147508	0.184138
Cu8	Cu	1.744699	-0.174437	0.191693
Cu9	Cu	1.744708	0.174393	0.191695
O10	O	1.734828	-0.147498	0.374393
C11	C	1.475041	-0.000017	0.197797
C12	C	1.311221	-0.000014	0.193458
N13	N	1.744703	-0.419785	0.191691
C14	C	2.014366	-0.000023	0.185590
C15	C	2.178186	-0.000014	0.189930
C16	C	1.753126	-0.000026	-0.037810
C17	C	1.748789	-0.000020	-0.177271
N18	N	1.744715	0.419742	0.191687
C19	C	1.881003	-0.000028	-0.256234
C20	C	1.876919	-0.000015	-0.387271
C21	C	1.608393	0.000005	-0.360369
C22	C	1.612479	0.000005	-0.229334
C23	C	2.036035	-0.000047	-0.271767
C24	C	2.031951	-0.000035	-0.402804
C25	C	1.736281	-0.000013	0.421198
C26	C	1.740618	-0.000008	0.560658
H27	H	1.504817	0.000036	-0.165046
C28	C	2.011009	-0.267729	-0.521921
C29	C	2.110770	-0.166690	-0.458872
H30	H	2.059666	-0.370608	-0.556538
H31	H	1.929909	-0.301985	-0.464246
H32	H	1.975814	-0.199119	-0.587754
H33	H	2.145956	-0.235295	-0.393033
H34	H	2.191896	-0.132436	-0.516552
C35	C	2.012314	0.316909	-0.415249
C36	C	2.095214	0.171882	-0.464176
H37	H	2.051377	0.423040	-0.453133
H38	H	1.912067	0.303327	-0.432757
H39	H	2.017299	0.322730	-0.326673
H40	H	2.090220	0.166053	-0.552750
H41	H	2.195487	0.185467	-0.446676
H42	H	1.497415	0.000027	-0.402775
H43	H	2.096676	0.123385	-0.242168
H44	H	2.085399	-0.127408	-0.235946
