data_functionalizedCrystal
_audit_creation_method	'MofGen! by Chris Wilmer'
_symmetry_space_group_name_H-M	'P1'
_symmetry_Int_Tables_number	1
_symmetry_cell_setting	triclinic
loop_
_symmetry_equiv_pos_as_xyz
  x,y,z
_cell_length_a	12.759401
_cell_length_b	12.827892
_cell_length_c	12.759393
_cell_angle_alpha	89.969094
_cell_angle_beta	89.980163
_cell_angle_gamma	90.016917
loop_
_atom_site_label
_atom_site_type_symbol
_atom_site_fract_x
_atom_site_fract_y
_atom_site_fract_z
Zn1	Zn	1.606250	-0.415928	-0.594025
Zn2	Zn	1.606142	-0.590709	-0.418348
Zn3	Zn	1.430552	-0.415987	-0.418361
Zn4	Zn	1.430538	-0.590633	-0.593985
O5	O	1.518371	-0.503314	-0.506180
O6	O	1.753257	-0.439121	-0.570733
O7	O	1.582810	-0.567589	-0.271328
O8	O	1.453909	-0.269744	-0.441685
O9	O	1.753178	-0.567531	-0.441663
O10	O	1.582994	-0.269700	-0.570745
O11	O	1.453805	-0.439221	-0.271338
O12	O	1.283529	-0.439147	-0.441646
O13	O	1.453886	-0.567401	-0.741011
O14	O	1.283519	-0.567458	-0.570676
O15	O	1.582981	-0.439047	-0.741041
O16	O	1.582797	-0.736935	-0.441624
O17	O	1.453782	-0.736879	-0.570664
C18	C	1.245403	-0.503302	-0.506159
C19	C	1.128627	-0.503321	-0.506175
C20	C	1.073787	-0.570235	-0.573255
C21	C	0.964063	-0.570239	-0.573276
C22	C	0.964028	-0.436413	-0.439127
C23	C	1.073750	-0.436405	-0.439112
C24	C	1.518305	-0.774824	-0.506161
C25	C	1.518373	-0.890977	-0.506188
C26	C	1.582290	-0.942755	-0.442406
C27	C	1.582361	-1.062806	-0.442433
C28	C	1.792404	-0.503328	-0.506201
C29	C	1.909181	-0.503334	-0.506210
C30	C	1.518444	-0.503209	-0.780213
C31	C	1.518475	-0.503164	-0.896990
C32	C	1.518465	-0.230744	-0.506221
C33	C	1.518506	-0.114591	-0.506239
C34	C	1.451326	-0.436311	-0.951856
C35	C	1.451351	-0.436278	-1.061580
C36	C	1.585682	-0.569955	-1.061562
C37	C	1.585652	-0.569992	-0.951840
C38	C	1.518358	-0.503344	-0.233212
C39	C	1.518530	-0.503095	-0.116436
H40	H	1.118402	-0.381909	-0.384487
H41	H	1.396670	-0.381841	-1.106248
H42	H	1.396627	-0.381895	-0.907201
H43	H	0.919334	-0.381934	-0.384525
Br44	Br	1.148260	-0.661047	-0.664270
Br45	Br	1.676846	-0.660646	-1.136008
H46	H	0.919417	-0.624725	-0.627901
Br47	Br	1.673423	-0.868517	-0.351363
Br48	Br	1.673565	-1.137014	-0.351404
H49	H	1.640335	-0.624436	-0.907166
Br50	Br	1.427282	-1.040389	-0.597253
H51	H	1.463709	-0.935525	-0.560818
