data_functionalizedCrystal
_audit_creation_method	'MofGen! by Chris Wilmer'
_symmetry_space_group_name_H-M	'P1'
_symmetry_Int_Tables_number	1
_symmetry_cell_setting	triclinic
loop_
_symmetry_equiv_pos_as_xyz
  x,y,z
_cell_length_a	10.540510
_cell_length_b	10.540539
_cell_length_c	10.268362
_cell_angle_alpha	89.996859
_cell_angle_beta	89.995180
_cell_angle_gamma	84.519401
loop_
_atom_site_label
_atom_site_type_symbol
_atom_site_fract_x
_atom_site_fract_y
_atom_site_fract_z
O1	O	1.685909	0.178721	-0.108302
O2	O	1.316491	0.195617	-0.108302
O3	O	1.509628	0.002462	-0.108300
O4	O	1.492772	0.371876	-0.108303
O5	O	1.509611	0.002454	0.108300
O6	O	1.316474	0.195609	0.108299
O7	O	1.685892	0.178713	0.108299
Cu8	Cu	1.501182	0.187160	0.128076
Cu9	Cu	1.501202	0.187170	-0.128079
O10	O	1.492755	0.371868	0.108297
C11	C	1.269179	0.194354	-0.000002
C12	C	1.128229	0.190587	-0.000002
C13	C	0.910774	0.324771	-0.000501
C14	C	1.057370	0.328789	-0.000005
C15	C	1.083460	0.119836	0.123685
C16	C	0.936699	0.116797	0.123781
C17	C	0.936912	0.113928	-0.122534
C18	C	1.083253	0.120483	-0.124161
C19	C	1.508356	-0.044845	-0.000002
C20	C	1.504574	-0.185793	-0.000009
C21	C	1.359655	-0.369204	-0.000495
C22	C	1.363489	-0.222587	-0.000008
C23	C	1.572461	-0.247462	0.123680
C24	C	1.567646	-0.394006	0.123785
C25	C	1.570534	-0.394516	-0.122531
C26	C	1.571834	-0.247534	-0.124166
C27	C	1.733204	0.179976	-0.000004
C28	C	1.874154	0.183743	-0.000012
C29	C	1.494028	0.419175	-0.000004
C30	C	1.497810	0.560123	-0.000005
N31	N	1.501177	0.187153	0.308242
N32	N	1.501217	0.187167	-0.308245
C33	C	1.501195	0.187167	0.573913
C34	C	1.501181	0.187163	0.426075
H35	H	0.913703	0.013430	0.129401
O36	O	1.286124	-0.409191	0.116350
H37	H	1.279776	-0.513643	0.112887
H38	H	1.517460	-0.422204	0.216245
O39	O	1.705522	-0.457077	-0.123655
H40	H	1.703919	-0.562151	-0.127380
O41	O	0.907568	-0.023515	-0.123660
H42	H	0.848579	-0.042074	-0.037430
H43	H	0.894371	0.157514	-0.216283
O44	O	1.096265	0.402127	-0.117435
H45	H	1.010296	0.435040	-0.175089
H46	H	0.868827	0.378616	-0.089204
H47	H	0.867260	0.378300	0.087699
O48	O	1.509978	-0.191039	0.245609
H49	H	1.558816	-0.235395	0.332405
H50	H	1.303930	-0.397795	-0.089195
O51	O	1.510131	-0.436334	-0.246737
H52	H	1.477284	-0.351233	-0.305720
O53	O	1.292247	-0.167257	0.117649
H54	H	1.254928	-0.245241	0.174427
O55	O	1.124321	0.184905	0.245616
H56	H	1.092125	0.134006	0.332410
O57	O	1.146246	-0.014926	0.129813
H58	H	1.210182	-0.032947	0.044564
O59	O	1.095023	0.402383	0.117734
H60	H	1.008474	0.435244	0.174536
H61	H	1.522162	-0.206667	-0.215668
H62	H	1.669112	-0.441986	0.129396
H63	H	1.310071	-0.179974	-0.088674
O64	O	1.708093	-0.215482	-0.134070
H65	H	1.730105	-0.154782	-0.050276
H66	H	0.896475	0.165142	0.216238
O67	O	1.709698	-0.217855	0.129795
H68	H	1.760895	-0.256294	0.041693
O69	O	1.148251	-0.013168	-0.134049
H70	H	1.203174	-0.023234	-0.226304
H71	H	1.111879	0.171961	-0.215664
