data_functionalizedCrystal
_audit_creation_method	'MofGen! by Chris Wilmer'
_symmetry_space_group_name_H-M	'P1'
_symmetry_Int_Tables_number	1
_symmetry_cell_setting	triclinic
loop_
_symmetry_equiv_pos_as_xyz
  x,y,z
_cell_length_a	13.897448
_cell_length_b	12.759395
_cell_length_c	12.759387
_cell_angle_alpha	90.021426
_cell_angle_beta	90.032712
_cell_angle_gamma	90.018380
loop_
_atom_site_label
_atom_site_type_symbol
_atom_site_fract_x
_atom_site_fract_y
_atom_site_fract_z
Zn1	Zn	-0.383946	1.606247	0.594017
Zn2	Zn	-0.545274	1.606128	0.418331
Zn3	Zn	-0.383997	1.430545	0.418351
Zn4	Zn	-0.545203	1.430528	0.593968
O5	O	-0.464605	1.518362	0.506167
O6	O	-0.405355	1.753252	0.570724
O7	O	-0.523931	1.582794	0.271313
O8	O	-0.249008	1.453909	0.441682
O9	O	-0.523882	1.753165	0.441649
O10	O	-0.248971	1.582996	0.570743
O11	O	-0.405441	1.453794	0.271327
O12	O	-0.405372	1.283522	0.441634
O13	O	-0.523761	1.453880	0.740995
O14	O	-0.523810	1.283509	0.570659
O15	O	-0.405287	1.582980	0.741032
O16	O	-0.680246	1.582778	0.441601
O17	O	-0.680194	1.453765	0.570640
C18	C	-0.464589	1.245395	0.506144
C19	C	-0.464606	1.128618	0.506160
C20	C	-0.588157	0.909220	0.640336
C21	C	-0.649912	0.964105	0.707399
C22	C	-0.649900	1.073826	0.707386
C23	C	-0.588129	1.128666	0.640299
C24	C	-0.526373	1.073781	0.573236
C25	C	-0.526390	0.964057	0.573259
C26	C	-0.402851	1.073733	0.439096
C27	C	-0.402856	0.964012	0.439114
C28	C	-0.341079	1.128573	0.372010
C29	C	-0.279317	1.073688	0.304951
C30	C	-0.279331	0.963960	0.304968
C31	C	-0.341101	0.909127	0.372050
C32	C	-0.715219	1.518285	0.506136
C33	C	-0.822433	1.518349	0.506158
C34	C	-1.018728	1.518459	0.506224
C35	C	-0.909496	1.518395	0.506191
C36	C	-0.213012	1.518468	0.506220
C37	C	-0.105798	1.518513	0.506243
C38	C	-0.464510	1.518441	0.780200
C39	C	-0.464470	1.518475	0.896977
C40	C	-0.464621	1.792395	0.506190
C41	C	-0.464628	1.909172	0.506200
C42	C	-0.464630	1.518344	0.233199
C43	C	-0.464398	1.518513	0.116423
C44	C	-0.341111	1.652916	0.897034
C45	C	-0.279416	1.720151	0.951924
C46	C	-0.279381	1.720176	1.061646
C47	C	-0.341045	1.652958	1.116480
C48	C	-0.402739	1.585723	1.061591
C49	C	-0.402770	1.585707	0.951867
C50	C	-0.526092	1.451278	1.061534
C51	C	-0.526134	1.451256	0.951812
C52	C	-0.587756	1.384059	1.116368
C53	C	-0.649456	1.316828	1.061479
C54	C	-0.649490	1.316806	0.951750
C55	C	-0.587828	1.384021	0.896922
H56	H	-0.229043	0.919279	0.250356
H57	H	-0.587719	1.384081	1.205709
O58	O	-0.341152	1.235155	0.371826
C59	C	-0.365784	1.271758	0.271074
H60	H	-0.407800	1.208499	0.227569
H61	H	-0.412032	1.345160	0.278499
H62	H	-0.297441	1.291214	0.225686
O63	O	-0.219350	1.785336	1.115018
C64	C	-0.157042	1.725564	1.178514
H65	H	-0.151080	1.642815	1.145432
H66	H	-0.082815	1.763602	1.179793
H67	H	-0.186847	1.721943	1.261659
O68	O	-0.588130	0.802637	0.640558
C69	C	-0.563429	0.766070	0.741302
H70	H	-0.579997	0.829331	0.801766
H71	H	-0.606930	0.692644	0.759919
H72	H	-0.483389	0.746667	0.743686
H73	H	-0.700189	1.118513	0.761992
O74	O	-0.587861	1.384201	0.790339
C75	C	-0.612683	1.484870	0.753703
H76	H	-0.596201	1.545400	0.816957
H77	H	-0.569194	1.503564	0.680319
H78	H	-0.692723	1.487049	0.734206
H79	H	-0.229032	1.118347	0.250330
O80	O	-0.341139	1.652703	0.790452
C81	C	-0.316333	1.552026	0.753781
H82	H	-0.332785	1.491511	0.816994
H83	H	-0.359856	1.533314	0.680358
H84	H	-0.236302	1.549843	0.734338
H85	H	-0.588133	1.218007	0.640285
H86	H	-0.341114	0.819786	0.372076
H87	H	-0.341003	1.652975	1.205822
H88	H	-0.699653	1.262098	1.106134
O89	O	-0.219615	1.785417	0.898495
C90	C	-0.232857	1.770967	0.789881
H91	H	-0.307294	1.736508	0.774870
H92	H	-0.226347	1.849661	0.748199
H93	H	-0.175639	1.715050	0.758745
H94	H	-0.699718	1.262044	0.907066
H95	H	-0.700208	0.919443	0.762017
