data_functionalizedCrystal
_audit_creation_method	'MofGen! by Chris Wilmer'
_symmetry_space_group_name_H-M	'P1'
_symmetry_Int_Tables_number	1
_symmetry_cell_setting	triclinic
loop_
_symmetry_equiv_pos_as_xyz
  x,y,z
_cell_length_a	38.077489
_cell_length_b	38.067077
_cell_length_c	38.067005
_cell_angle_alpha	89.998202
_cell_angle_beta	59.997601
_cell_angle_gamma	60.000226
loop_
_atom_site_label
_atom_site_type_symbol
_atom_site_fract_x
_atom_site_fract_y
_atom_site_fract_z
O1	O	0.251368	-0.240985	-0.550849
O2	O	0.179452	-0.189901	-0.427830
O3	O	0.251366	-0.189900	-0.499762
O4	O	0.179454	-0.240986	-0.478916
O5	O	0.309777	-0.248327	-0.499762
O6	O	0.237862	-0.248328	-0.427829
O7	O	0.309778	-0.299412	-0.550849
Zn8	Zn	0.283094	-0.283146	-0.489339
Zn9	Zn	0.206136	-0.206167	-0.489339
O10	O	0.237864	-0.299413	-0.478916
C11	C	0.386291	-0.064623	-0.514624
C12	C	0.365355	-0.085958	-0.514922
C13	C	0.449886	-0.128236	-0.514624
C14	C	0.428853	-0.149475	-0.514922
C15	C	0.386290	-0.128235	-0.514624
C16	C	0.428854	-0.085959	-0.514922
C17	C	0.381297	0.004129	-0.509462
C18	C	0.358022	0.047573	-0.506204
C19	C	0.314508	0.069362	-0.504570
C20	C	0.289269	0.116467	-0.501035
C21	C	0.294266	0.047711	-0.506197
C22	C	0.317541	0.004269	-0.509457
C23	C	0.361055	-0.017520	-0.511088
C24	C	0.317390	-0.128069	-0.509462
C25	C	0.293976	-0.148092	-0.506204
C26	C	0.314071	-0.189983	-0.504569
C27	C	0.288685	-0.211695	-0.501034
C28	C	0.357585	-0.211858	-0.506197
C29	C	0.380999	-0.191836	-0.509457
C30	C	0.360900	-0.149941	-0.511088
C31	C	0.513459	-0.128072	-0.509462
C32	C	0.553630	-0.148095	-0.506198
C33	C	0.573778	-0.189986	-0.504564
C34	C	0.617336	-0.211699	-0.501028
C35	C	0.553759	-0.211858	-0.506189
C36	C	0.513588	-0.191837	-0.509451
C37	C	0.493440	-0.149944	-0.511087
C38	C	0.431926	-0.400358	-0.895743
C39	C	0.474489	-0.442635	-0.916983
C40	C	0.431924	-0.400359	-0.832129
C41	C	0.474487	-0.442636	-0.853465
C42	C	0.495521	-0.463971	-0.895744
C43	C	0.410988	-0.379120	-0.853465
C44	C	0.317401	-0.297316	-0.934588
C45	C	0.293989	-0.277152	-0.954611
C46	C	0.314087	-0.298888	-0.996506
C47	C	0.288698	-0.277030	-1.018215
C48	C	0.357601	-0.340788	-1.018379
C49	C	0.381014	-0.360946	-0.998359
C50	C	0.360912	-0.339209	-0.956461
C51	C	0.637371	-0.617371	-0.998787
C52	C	0.677546	-0.660813	-1.018951
C53	C	0.697698	-0.682608	-0.997216
C54	C	0.741253	-0.729711	-1.019072
C55	C	0.677674	-0.660955	-0.955315
C56	C	0.637506	-0.617514	-0.935154
C57	C	0.617354	-0.595724	-0.956895
C58	C	0.317393	-0.297321	-0.678724
C59	C	0.293974	-0.277161	-0.635279
C60	C	0.314070	-0.298898	-0.613486
C61	C	0.288679	-0.277041	-0.566380
C62	C	0.357581	-0.340796	-0.635138
C63	C	0.380995	-0.360955	-0.678581
C64	C	0.360900	-0.339212	-0.700372
C65	C	0.386300	-0.361072	-0.934754
C66	C	0.406537	-0.378498	-0.917451
C67	C	0.406533	-0.378501	-0.785025
C68	C	0.386294	-0.361076	-0.747478
C69	C	0.539076	-0.511074	-0.917604
C70	C	0.573796	-0.548620	-0.935030
C71	C	0.057322	-0.463709	-0.457699
C72	C	0.014759	-0.442374	-0.457402
C73	C	0.057320	-0.400096	-0.457699
C74	C	0.014758	-0.378857	-0.457402
C75	C	-0.006274	-0.400097	-0.457699
C76	C	0.078257	-0.442373	-0.457402
C77	C	0.171850	-0.617110	-0.469216
C78	C	0.195264	-0.660552	-0.472473
C79	C	0.175168	-0.682345	-0.474108
C80	C	0.200558	-0.729450	-0.477646
C81	C	0.131654	-0.660693	-0.472482
C82	C	0.108240	-0.617253	-0.469220
C83	C	0.128340	-0.595461	-0.467587
C84	C	-0.148120	-0.361255	-0.469216
C85	C	-0.188294	-0.341233	-0.472472
C86	C	-0.208447	-0.299341	-0.474109
C87	C	-0.252002	-0.277631	-0.477645
C88	C	-0.188426	-0.277468	-0.472483
C89	C	-0.148258	-0.297485	-0.469219
C90	C	-0.128106	-0.339384	-0.467589
C91	C	0.171845	-0.361248	-0.469216
C92	C	0.195262	-0.341227	-0.472478
C93	C	0.175164	-0.299332	-0.474113
C94	C	0.200553	-0.277622	-0.477651
C95	C	0.131654	-0.277462	-0.472489
C96	C	0.108242	-0.297485	-0.469229
C97	C	0.128339	-0.339378	-0.467589
C98	C	0.102950	-0.548358	-0.464054
C99	C	0.082712	-0.510812	-0.461236
C100	C	0.082709	-0.378388	-0.461236
C101	C	0.102947	-0.361084	-0.464054
C102	C	-0.049829	-0.378391	-0.461236
C103	C	-0.084547	-0.361088	-0.464054
O104	O	0.733742	-0.240997	-0.478916
O105	O	0.631599	-0.189908	-0.499762
O106	O	0.631596	-0.189910	-0.427829
O107	O	0.733744	-0.240995	-0.550848
O108	O	0.631593	-0.248336	-0.427829
O109	O	0.631596	-0.248333	-0.499762
O110	O	0.733739	-0.299423	-0.478916
Zn111	Zn	0.682667	-0.283154	-0.489339
Zn112	Zn	0.682671	-0.206176	-0.489339
O113	O	0.733742	-0.299420	-0.550848
O114	O	0.179463	0.255017	-0.478917
O115	O	0.251375	0.132001	-0.499762
O116	O	0.179460	0.203931	-0.427830
O117	O	0.251377	0.183087	-0.550849
O118	O	0.237871	0.203931	-0.427830
O119	O	0.309785	0.132002	-0.499762
O120	O	0.237873	0.255018	-0.478917
Zn121	Zn	0.283103	0.193510	-0.489339
Zn122	Zn	0.206145	0.193509	-0.489340
O123	O	0.309787	0.183088	-0.550849
O124	O	0.857644	-0.868262	-1.047782
O125	O	0.755510	-0.745244	-0.996700
O126	O	0.755499	-0.817169	-0.996695
O127	O	0.857655	-0.796336	-1.047787
O128	O	0.755501	-0.817168	-1.055123
O129	O	0.755512	-0.745242	-1.055128
O130	O	0.857646	-0.868260	-1.106210
Zn131	Zn	0.806580	-0.806751	-1.089945
Zn132	Zn	0.806577	-0.806753	-1.012964
O133	O	0.857658	-0.796335	-1.106215
O134	O	0.237874	-0.248321	-1.105929
O135	O	0.309792	-0.299403	-1.054849
O136	O	0.237873	-0.299401	-1.054836
O137	O	0.309793	-0.248323	-1.105941
O138	O	0.179467	-0.240972	-0.996411
O139	O	0.251386	-0.240974	-0.996424
O140	O	0.179467	-0.189891	-1.047504
Zn141	Zn	0.206153	-0.206156	-1.012688
Zn142	Zn	0.283106	-0.283139	-1.089665
O143	O	0.251386	-0.189894	-1.047517
C144	C	0.039356	-0.064614	-0.167594
C145	C	0.060390	-0.085949	-0.146356
C146	C	0.102949	-0.128228	-0.231206
C147	C	0.123886	-0.149467	-0.209871
C148	C	0.102952	-0.128227	-0.167594
C149	C	0.060387	-0.085951	-0.209871
C150	C	-0.024217	0.004138	-0.167760
C151	C	-0.064390	0.047582	-0.147736
C152	C	-0.084537	0.069372	-0.105846
C153	C	-0.128094	0.116477	-0.084134
C154	C	-0.064518	0.047721	-0.083972
C155	C	-0.024348	0.004279	-0.103994
C156	C	-0.004197	-0.017511	-0.145888
C157	C	0.107950	-0.128060	-0.103840
C158	C	0.131227	-0.148084	-0.083679
C159	C	0.174740	-0.189975	-0.105416
C160	C	0.199981	-0.211687	-0.083559
C161	C	0.194979	-0.211850	-0.147313
C162	C	0.171703	-0.191828	-0.167472
C163	C	0.128190	-0.149933	-0.145736
C164	C	0.107942	-0.128065	-0.299958
C165	C	0.131220	-0.148088	-0.343404
C166	C	0.174733	-0.189980	-0.365192
C167	C	0.199972	-0.211693	-0.412297
C168	C	0.194976	-0.211851	-0.343543
C169	C	0.171701	-0.191830	-0.300099
C170	C	0.128185	-0.149937	-0.278309
C171	C	0.386276	-0.128248	-0.167587
C172	C	0.365339	-0.085971	-0.146346
C173	C	0.449874	-0.128247	-0.231200
C174	C	0.428842	-0.085970	-0.209863
C175	C	0.386277	-0.064636	-0.167585
C176	C	0.428840	-0.149486	-0.209865
C177	C	0.381279	-0.192003	-0.167754
C178	C	0.358001	-0.212164	-0.147730
C179	C	0.314486	-0.190429	-0.105838
C180	C	0.289244	-0.212286	-0.084126
C181	C	0.294244	-0.148531	-0.083963
C182	C	0.317522	-0.128371	-0.103985
C183	C	0.361037	-0.150107	-0.145880
C184	C	0.317376	0.004115	-0.103827
C185	C	0.293963	0.047558	-0.083664
C186	C	0.314061	0.069347	-0.105400
C187	C	0.288676	0.116452	-0.083541
C188	C	0.357577	0.047697	-0.147299
C189	C	0.380990	0.004256	-0.167460
C190	C	0.360888	-0.017533	-0.145724
C191	C	0.513449	-0.192000	-0.299955
C192	C	0.553622	-0.212159	-0.343402
C193	C	0.573772	-0.190422	-0.365190
C194	C	0.617332	-0.212278	-0.412296
C195	C	0.553754	-0.148526	-0.343539
C196	C	0.513581	-0.128366	-0.300094
C197	C	0.493431	-0.150105	-0.278304
C198	C	0.102937	0.218790	-0.167586
C199	C	0.060373	0.219087	-0.146347
C200	C	0.102941	0.218791	-0.231201
C201	C	0.060377	0.219087	-0.209865
C202	C	0.039342	0.218790	-0.167587
C203	C	0.123875	0.219088	-0.209864
C204	C	0.171835	0.213629	-0.167750
C205	C	0.195247	0.210371	-0.147725
C206	C	0.175148	0.208736	-0.105833
C207	C	0.200532	0.205201	-0.084119
C208	C	0.131634	0.210362	-0.083959
C209	C	0.108222	0.213622	-0.103982
C210	C	0.128325	0.215254	-0.145878
C211	C	-0.024234	0.213626	-0.103830
C212	C	-0.064409	0.210368	-0.083669
C213	C	-0.084556	0.208733	-0.105407
C214	C	-0.128115	0.205198	-0.083549
C215	C	-0.064535	0.210361	-0.147306
C216	C	-0.024364	0.213621	-0.167466
C217	C	-0.004213	0.215252	-0.145728
C218	C	0.171843	0.213630	-0.299954
C219	C	0.195262	0.210367	-0.343401
C220	C	0.175167	0.208732	-0.365191
C221	C	0.200555	0.205198	-0.412297
C222	C	0.131657	0.210357	-0.343542
C223	C	0.108237	0.213618	-0.300097
C224	C	0.128332	0.215255	-0.278305
C225	C	1.057357	-0.463722	-0.895735
C226	C	1.078304	-0.442391	-0.916971
C227	C	0.993763	-0.400110	-0.832120
C228	C	1.014807	-0.378876	-0.853453
C229	C	1.057375	-0.400117	-0.895730
C230	C	1.014790	-0.442384	-0.853458
C231	C	1.107673	-0.617110	-0.934587
C232	C	1.130938	-0.660550	-0.954611
C233	C	1.174460	-0.682345	-0.996505
C234	C	1.199693	-0.729447	-1.018215
C235	C	1.194713	-0.660697	-1.018374
C236	C	1.171444	-0.617259	-0.998352
C237	C	1.127922	-0.595466	-0.956457
C238	C	1.171938	-0.361294	-0.998760
C239	C	1.195363	-0.341278	-1.018921
C240	C	1.175276	-0.299389	-0.997184
C241	C	1.200673	-0.277684	-1.019036
C242	C	1.131757	-0.277514	-0.955284
C243	C	1.108330	-0.297526	-0.935128
C244	C	1.128428	-0.339421	-0.956870
C245	C	0.851889	-0.361255	-0.678722
C246	C	0.811713	-0.341232	-0.635278
C247	C	0.791567	-0.299341	-0.613484
C248	C	0.748007	-0.277631	-0.566379
C249	C	0.811601	-0.277476	-0.635132
C250	C	0.851777	-0.297500	-0.678574
C251	C	0.871916	-0.339389	-0.700367
C252	C	1.102696	-0.548366	-0.934748
C253	C	1.082587	-0.510822	-0.917443
C254	C	0.950203	-0.378401	-0.785018
C255	C	0.915480	-0.361096	-0.747472
C256	C	1.082776	-0.378417	-0.917586
C257	C	1.103023	-0.361119	-0.935009
O258	O	0.237842	0.255006	-0.054829
O259	O	0.309763	0.131989	-0.105915
O260	O	0.237836	0.203916	-0.105903
O261	O	0.309768	0.183079	-0.054841
O262	O	0.179436	0.203910	-0.047468
O263	O	0.251362	0.131983	-0.047480
O264	O	0.179441	0.255000	0.003606
Zn265	Zn	0.206130	0.193490	-0.012659
Zn266	Zn	0.283075	0.193499	-0.089650
O267	O	0.251368	0.183073	0.003594
C268	C	0.495252	0.161876	-0.895745
C269	C	0.474219	0.161578	-0.916983
C270	C	0.431655	0.161875	-0.832130
C271	C	0.410719	0.161577	-0.853465
C272	C	0.431656	0.161875	-0.895743
C273	C	0.474218	0.161578	-0.853467
C274	C	0.637100	0.173393	-0.934593
C275	C	0.677276	0.176650	-0.954617
C276	C	0.697429	0.178285	-0.996512
C277	C	0.740984	0.181824	-1.018223
C278	C	0.677407	0.176660	-1.018384
C279	C	0.637239	0.173398	-0.998363
C280	C	0.617086	0.171764	-0.956465
C281	C	0.381310	0.173393	-0.998784
C282	C	0.358038	0.176649	-1.018947
C283	C	0.314519	0.178285	-0.997211
C284	C	0.289279	0.181822	-1.019067
C285	C	0.294277	0.176659	-0.955310
C286	C	0.317553	0.173395	-0.935151
C287	C	0.361071	0.171765	-0.956892
C288	C	0.381304	0.173389	-0.678725
C289	C	0.358027	0.176651	-0.635280
C290	C	0.314509	0.178285	-0.613486
C291	C	0.289268	0.181823	-0.566380
C292	C	0.294268	0.176661	-0.635138
C293	C	0.317545	0.173402	-0.678581
C294	C	0.361067	0.171762	-0.700372
C295	C	0.573527	0.168231	-0.934757
C296	C	0.538807	0.165413	-0.917453
C297	C	0.406417	0.165411	-0.785026
C298	C	0.386301	0.168228	-0.747478
C299	C	0.406419	0.165412	-0.917602
C300	C	0.386304	0.168230	-0.935028
H301	H	0.446452	-0.068827	-0.515395
O302	O	0.993794	-0.462808	-0.832978
C303	C	0.993538	-0.464934	-0.795881
H304	H	1.023670	-0.462189	-0.799762
H305	H	1.000975	-0.496942	-0.791297
H306	H	0.955761	-0.437392	-0.766586
H307	H	0.497059	-0.093962	-0.510797
O308	O	-0.208086	-0.236752	-0.474014
C309	C	-0.258488	-0.209677	-0.438930
H310	H	-0.273504	-0.229831	-0.427092
H311	H	-0.280654	-0.185159	-0.449537
H312	H	-0.262061	-0.192148	-0.411791
O313	O	0.377582	-0.252838	-0.168958
C314	C	0.342660	-0.252819	-0.172878
H315	H	0.303702	-0.223689	-0.146723
H316	H	0.345047	-0.283519	-0.169240
H317	H	0.350993	-0.251234	-0.205840
O318	O	0.191427	-0.596002	-0.467612
C319	C	0.234855	-0.624428	-0.469754
H320	H	0.233678	-0.651836	-0.458567
H321	H	0.237229	-0.606337	-0.448087
H322	H	0.268776	-0.638097	-0.504339
H323	H	1.112554	-0.459523	-0.951709
H324	H	0.072810	0.214940	-0.282471
O325	O	0.112104	0.208843	-0.364706
C326	C	0.100387	0.243915	-0.380056
H327	H	0.095044	0.270734	-0.360081
H328	H	0.064679	0.256282	-0.377325
H329	H	0.131961	0.233088	-0.415176
H330	H	0.570159	-0.245967	-0.504847
H331	H	0.042781	-0.068821	-0.226997
H332	H	0.258833	0.177990	-0.617391
O333	O	0.423504	-0.213073	-0.208477
C334	C	0.415504	-0.189724	-0.235548
H335	H	0.374062	-0.168248	-0.220913
H336	H	0.436114	-0.213074	-0.268533
H337	H	0.429865	-0.168970	-0.239089
O338	O	0.297841	-0.087347	-0.510977
C339	C	0.286118	-0.060278	-0.475902
H340	H	0.280772	-0.074911	-0.449082
H341	H	0.250411	-0.027292	-0.463535
H342	H	0.317691	-0.056740	-0.486725
H343	H	0.230692	-0.678178	-0.473797
H344	H	0.188205	0.214960	-0.201862
O345	O	1.191539	-0.402007	-1.019906
C346	C	1.239973	-0.430107	-1.030593
H347	H	1.255729	-0.411042	-1.031649
H348	H	1.264609	-0.455529	-1.063447
H349	H	1.238746	-0.446474	-1.005324
H350	H	0.795220	-0.243377	-0.617376
O351	O	0.423245	-0.401664	-1.019539
C352	C	0.415314	-0.428816	-0.996284
H353	H	0.383414	-0.408740	-0.961074
H354	H	0.450493	-0.453402	-0.998752
H355	H	0.405621	-0.446261	-1.010222
O356	O	0.251920	-0.127405	-0.043295
C357	C	0.213180	-0.123582	-0.043392
H358	H	0.221952	-0.126066	-0.077014
H359	H	0.176876	-0.091110	-0.019527
H360	H	0.209383	-0.150478	-0.033711
H361	H	0.491826	0.161098	-0.951722
O362	O	0.252055	0.178168	-0.934205
C363	C	0.261713	0.140417	-0.923499
H364	H	0.303100	0.113682	-0.946068
H365	H	0.239791	0.130158	-0.926886
H366	H	0.250060	0.146884	-0.888886
O367	O	0.251741	0.068586	-0.042939
C368	C	0.259660	0.083924	-0.015786
H369	H	0.301098	0.064025	-0.030418
H370	H	0.239104	0.081069	0.017143
H371	H	0.245181	0.119079	-0.012128
O372	O	0.993882	-0.337463	-0.833009
C373	C	1.028603	-0.335114	-0.830880
H374	H	1.057599	-0.368015	-0.833648
H375	H	1.008638	-0.310572	-0.798860
H376	H	1.047650	-0.324857	-0.858408
O377	O	0.423562	0.171826	-0.699823
C378	C	0.436440	0.173953	-0.671401
H379	H	0.401959	0.189789	-0.636833
H380	H	0.452357	0.193731	-0.678514
H381	H	0.465419	0.140060	-0.675873
O382	O	1.112251	-0.236802	-0.934232
C383	C	1.100521	-0.209723	-0.957573
H384	H	1.123852	-0.229875	-0.992748
H385	H	1.108789	-0.185212	-0.955225
H386	H	1.059438	-0.192186	-0.943620
O387	O	0.039343	0.219733	-0.230289
C388	C	0.025130	0.256978	-0.242223
H389	H	0.019927	0.282541	-0.220752
H390	H	-0.011267	0.269810	-0.238346
H391	H	0.055236	0.248699	-0.277219
H392	H	-0.131962	-0.279673	-0.467894
O393	O	1.237596	-0.362550	-1.059638
C394	C	1.227856	-0.373239	-1.087664
H395	H	1.194016	-0.374175	-1.068515
H396	H	1.261405	-0.406147	-1.113023
H397	H	1.220273	-0.348039	-1.104117
H398	H	0.373946	-0.245971	-0.504866
O399	O	0.111623	-0.126834	-0.364470
C400	C	0.146553	-0.122928	-0.399393
H401	H	0.173962	-0.125487	-0.393185
H402	H	0.126465	-0.090398	-0.403111
H403	H	0.167478	-0.149740	-0.430123
O404	O	0.449838	-0.065511	-0.230232
C405	C	0.464081	-0.053611	-0.207215
H406	H	0.441189	-0.051334	-0.172302
H407	H	0.457390	-0.021052	-0.208457
H408	H	0.505179	-0.078825	-0.222275
H409	H	-0.007814	-0.013602	-0.201871
H410	H	0.376472	0.161094	-0.836335
O411	O	-0.083761	0.068552	-0.169051
C412	C	-0.057367	0.040002	-0.210318
H413	H	-0.018820	0.012637	-0.220212
H414	H	-0.053703	0.057995	-0.234446
H415	H	-0.078236	0.026288	-0.209666
O416	O	-0.084175	0.068918	-0.043257
C417	C	-0.134577	0.084250	-0.016177
H418	H	-0.149596	0.087438	-0.036328
H419	H	-0.156741	0.117027	0.008344
H420	H	-0.138148	0.060683	0.001350
H421	H	0.620942	0.172073	-1.016174
O422	O	0.191351	0.215166	-0.278754
C423	C	0.203091	0.180083	-0.263423
H424	H	0.179762	0.168245	-0.260242
H425	H	0.194828	0.190690	-0.230641
H426	H	0.244175	0.152946	-0.286987
H427	H	0.569927	-0.130283	-0.504876
O428	O	0.297824	0.171894	-0.894423
C429	C	0.249366	0.209652	-0.866410
H430	H	0.245285	0.236380	-0.881075
H431	H	0.242367	0.219920	-0.834160
H432	H	0.221262	0.203190	-0.861342
O433	O	-0.128487	-0.401949	-0.467623
C434	C	-0.088753	-0.414924	-0.464379
H435	H	-0.073377	-0.395239	-0.477467
H436	H	-0.058224	-0.450515	-0.483838
H437	H	-0.102526	-0.409511	-0.429209
H438	H	0.373938	0.065445	-0.164996
H439	H	0.497281	-0.094252	-0.282467
O440	O	0.696898	0.178303	-1.059059
C441	C	0.659961	0.214478	-1.059974
H442	H	0.621719	0.224431	-1.031841
H443	H	0.664757	0.206059	-1.091511
H444	H	0.663538	0.242196	-1.057308
O445	O	0.039303	-0.065522	-0.104885
C446	C	-0.009841	-0.053642	-0.078756
H447	H	-0.024131	-0.051327	-0.099381
H448	H	-0.034469	-0.021106	-0.052853
H449	H	-0.010662	-0.078888	-0.062906
O450	O	-0.084146	0.208849	-0.168414
C451	C	-0.101522	0.246602	-0.179117
H452	H	-0.109431	0.273336	-0.156544
H453	H	-0.137086	0.256862	-0.175734
H454	H	-0.072102	0.240137	-0.213729
H455	H	0.491822	0.161101	-0.836339
H456	H	-0.008051	-0.013349	-0.086182
H457	H	0.072811	-0.599626	-0.467894
O458	O	1.065402	-0.595882	-0.893888
C459	C	1.049200	-0.552897	-0.880908
H460	H	1.081969	-0.550612	-0.900601
H461	H	1.033088	-0.541833	-0.845318
H462	H	1.019443	-0.531490	-0.886306
H463	H	-0.204593	-0.359045	-0.473795
O464	O	0.423216	-0.401679	-0.699612
C465	C	0.415299	-0.428829	-0.714955
H466	H	0.373861	-0.414198	-0.695058
H467	H	0.435851	-0.461759	-0.712100
H468	H	0.429783	-0.432487	-0.750112
H469	H	0.492086	-0.459765	-0.836333
H470	H	0.158135	-0.184204	-0.227002
O471	O	1.191037	-0.596163	-1.019541
C472	C	1.161174	-0.553153	-0.992879
H473	H	1.122051	-0.543575	-0.967713
H474	H	1.159594	-0.531196	-1.013246
H475	H	1.177729	-0.549907	-0.976120
O476	O	0.297783	-0.087665	-0.082686
C477	C	0.254387	-0.072804	-0.041412
H478	H	0.238596	-0.091536	-0.041451
H479	H	0.225716	-0.037112	-0.032518
H480	H	0.263756	-0.077747	-0.016893
O481	O	0.112202	-0.681900	-0.474148
C482	C	0.147219	-0.716829	-0.512994
H483	H	0.174546	-0.710540	-0.537844
H484	H	0.127202	-0.720671	-0.525443
H485	H	0.168224	-0.747520	-0.507107
H486	H	0.795407	-0.359040	-0.617654
H487	H	0.230674	0.209048	-0.165537
O488	O	1.111218	-0.681519	-0.933297
C489	C	1.067813	-0.652968	-0.892030
H490	H	1.069112	-0.625603	-0.882139
H491	H	1.065344	-0.670960	-0.867901
H492	H	1.033884	-0.639254	-0.892679
O493	O	0.617802	-0.596266	-1.019930
C494	C	0.600406	-0.616625	-1.030619
H495	H	0.620535	-0.651451	-1.031680
H496	H	0.607833	-0.615845	-1.063472
H497	H	0.558784	-0.599044	-1.005350
O498	O	0.871411	-0.401956	-0.699821
C499	C	0.845111	-0.416960	-0.671402
H500	H	0.826384	-0.398310	-0.636833
H501	H	0.871986	-0.452659	-0.678514
H502	H	0.815697	-0.412043	-0.675878
H503	H	1.230147	-0.678445	-1.052485
O504	O	0.573327	-0.127430	-0.364765
C505	C	0.569393	-0.123588	-0.399684
H506	H	0.566297	-0.149701	-0.409397
H507	H	0.603779	-0.127353	-0.428059
H508	H	0.534923	-0.090603	-0.389831
O509	O	0.423234	-0.016704	-0.208172
C510	C	0.435957	0.011842	-0.223035
H511	H	0.401403	0.046368	-0.204294
H512	H	0.451848	0.004836	-0.258725
H513	H	0.464908	0.007405	-0.218105
H514	H	0.072508	-0.093954	-0.282217
O515	O	0.251743	-0.236443	-0.614217
C516	C	0.259673	-0.209292	-0.598894
H517	H	0.291569	-0.229369	-0.595588
H518	H	0.224492	-0.184705	-0.566173
H519	H	0.269371	-0.191848	-0.622528
O520	O	0.065966	-0.276172	-0.467634
C521	C	0.053254	-0.234906	-0.469785
H522	H	0.070724	-0.225014	-0.458596
H523	H	0.011144	-0.210779	-0.448123
H524	H	0.067613	-0.235556	-0.504373
H525	H	0.376737	-0.344384	-0.836336
H526	H	-0.002843	-0.344121	-0.456924
O527	O	0.297873	-0.016734	-0.511090
C528	C	0.296176	-0.015881	-0.547260
H529	H	0.296128	0.012378	-0.557218
H530	H	0.260962	-0.012133	-0.538830
H531	H	0.330064	-0.047196	-0.574979
O532	O	0.696991	-0.681904	-1.059627
C533	C	0.693046	-0.716813	-1.059601
H534	H	0.690067	-0.726647	-1.030468
H535	H	0.727375	-0.745129	-1.090300
H536	H	0.658509	-0.706891	-1.058016
O537	O	1.066075	-0.276225	-0.894422
C538	C	1.053357	-0.234956	-0.879560
H539	H	1.087918	-0.235000	-0.898288
H540	H	1.037446	-0.226061	-0.843865
H541	H	1.024424	-0.210434	-0.884507
H542	H	0.694085	-0.678701	-0.937618
H543	H	0.301024	-0.279616	-0.696463
O544	O	0.065669	-0.087371	-0.082655
C545	C	0.052803	-0.072357	-0.041357
H546	H	0.070194	-0.100943	-0.031347
H547	H	0.010680	-0.051888	-0.017313
H548	H	0.067130	-0.052102	-0.042017
O549	O	-0.083855	0.208726	-0.042993
C550	C	-0.079916	0.169874	-0.043017
H551	H	-0.076934	0.157061	-0.072152
H552	H	-0.114248	0.175897	-0.012320
H553	H	-0.045382	0.145247	-0.044599
H554	H	0.258832	0.065459	-0.504865
H555	H	0.331095	-0.068848	-0.111606
H556	H	-0.008070	0.214955	-0.201577
H557	H	0.416730	-0.013611	-0.510793
H558	H	0.416744	0.172062	-1.016490
O559	O	0.495496	-0.463008	-0.958446
C560	C	0.509735	-0.439987	-0.984591
H561	H	0.486830	-0.405072	-0.963973
H562	H	0.503058	-0.441240	-1.010466
H563	H	0.550829	-0.455034	-1.000478
H564	H	0.114741	-0.130269	-0.049566
H565	H	0.258548	-0.130277	-0.504881
H566	H	0.868083	-0.279692	-0.696199
O567	O	0.237301	-0.252517	-0.168440
C568	C	0.276045	-0.252425	-0.172267
H569	H	0.267277	-0.218804	-0.169785
H570	H	0.312347	-0.276290	-0.204740
H571	H	0.279840	-0.262105	-0.145370
O572	O	0.449876	-0.190949	-0.230262
C573	C	0.464089	-0.217103	-0.207237
H574	H	0.469290	-0.200838	-0.186875
H575	H	0.500487	-0.249632	-0.230813
H576	H	0.433984	-0.221987	-0.185404
O577	O	0.112121	0.208825	-0.043243
C578	C	0.100378	0.243907	-0.016164
H579	H	0.123709	0.255745	-0.036315
H580	H	0.108637	0.233297	0.008355
H581	H	0.059295	0.271044	0.001366
H582	H	0.374510	0.177975	-0.617654
H583	H	0.569917	-0.246271	-0.361026
H584	H	0.301030	-0.279612	-0.900474
H585	H	0.373962	-0.358481	-1.052491
H586	H	0.374506	0.065196	-0.504880
O587	O	-0.006190	-0.462865	-0.456816
C588	C	0.021500	-0.504826	-0.456594
H589	H	0.060948	-0.515358	-0.470513
H590	H	0.022651	-0.527882	-0.476937
H591	H	0.003294	-0.505169	-0.422154
H592	H	0.112505	-0.459503	-0.456922
O593	O	0.251711	-0.236462	-0.933295
C594	C	0.238997	-0.221597	-0.892028
H595	H	0.256470	-0.250261	-0.882138
H596	H	0.196888	-0.201140	-0.867899
H597	H	0.253352	-0.201369	-0.892676
O598	O	0.617602	0.171788	-0.893902
C599	C	0.643880	0.173930	-0.878889
H600	H	0.682465	0.162744	-0.907476
H601	H	0.647455	0.152262	-0.858423
H602	H	0.622971	0.208514	-0.858630
O603	O	0.423218	-0.213068	-0.510962
C604	C	0.413484	-0.223783	-0.473205
H605	H	0.372104	-0.201142	-0.446473
H606	H	0.435462	-0.220513	-0.462943
H607	H	0.425014	-0.258357	-0.479668
H608	H	0.115291	-0.243349	-0.473821
H609	H	0.497287	-0.209646	-0.510771
O610	O	0.618102	-0.596552	-0.894447
C611	C	0.644508	-0.625097	-0.879587
H612	H	0.663197	-0.659623	-0.898319
H613	H	0.617717	-0.618084	-0.843894
H614	H	0.673961	-0.620666	-0.884531
O615	O	0.065970	0.215178	-0.082683
C616	C	0.053242	0.213047	-0.041409
H617	H	0.087796	0.197212	-0.041446
H618	H	0.037333	0.193266	-0.032512
H619	H	0.024303	0.246938	-0.016892
O620	O	0.191438	-0.213128	-0.208177
C621	C	0.234831	-0.254402	-0.223039
H622	H	0.250625	-0.254363	-0.204311
H623	H	0.263500	-0.263299	-0.258734
H624	H	0.225456	-0.278917	-0.218090
H625	H	0.373943	-0.358496	-0.617391
O626	O	0.696720	0.178295	-0.933392
C627	C	0.692774	0.217150	-0.929475
H628	H	0.689795	0.229961	-0.955629
H629	H	0.727101	0.211131	-0.933115
H630	H	0.658236	0.241775	-0.896513
O631	O	0.191416	-0.213143	-0.279127
C632	C	0.234821	-0.254409	-0.307678
H633	H	0.233522	-0.264302	-0.335043
H634	H	0.237288	-0.278536	-0.289683
H635	H	0.268750	-0.253759	-0.321394
H636	H	0.230411	-0.245964	-0.361288
H637	H	0.497046	-0.209705	-0.282215
O638	O	0.237511	-0.362525	-0.474032
C639	C	0.250233	-0.403797	-0.471897
H640	H	0.215676	-0.403757	-0.456063
H641	H	0.266136	-0.412691	-0.452112
H642	H	0.279174	-0.428315	-0.505788
O643	O	-0.004737	0.215291	-0.082666
C644	C	-0.041681	0.251456	-0.044794
H645	H	-0.071745	0.276393	-0.048375
H646	H	-0.024349	0.266007	-0.039059
H647	H	-0.058820	0.241212	-0.016323
O648	O	0.191297	-0.401914	-0.467548
C649	C	0.156276	-0.401814	-0.428701
H650	H	0.128954	-0.368193	-0.403852
H651	H	0.176289	-0.425682	-0.416251
H652	H	0.135265	-0.411488	-0.434586
H653	H	0.301007	-0.013624	-0.086124
O654	O	0.039374	0.219716	-0.104887
C655	C	0.025136	0.256973	-0.078735
H656	H	0.048033	0.268986	-0.099350
H657	H	0.031823	0.249031	-0.052867
H658	H	-0.015961	0.283028	-0.062839
H659	H	0.374521	0.177974	-1.053062
H660	H	0.158125	0.219567	-0.226991
O661	O	0.237510	0.208815	-0.364359
C662	C	0.250227	0.210953	-0.335811
H663	H	0.215667	0.226791	-0.301285
H664	H	0.266134	0.230735	-0.342827
H665	H	0.279164	0.177064	-0.340234
O666	O	0.297802	0.171884	-0.699552
C667	C	0.249354	0.209651	-0.679108
H668	H	0.233724	0.224338	-0.644321
H669	H	0.224652	0.201454	-0.679762
H670	H	0.250508	0.233699	-0.696710
O671	O	0.324554	-0.065567	-0.515577
C672	C	0.335666	-0.088597	-0.552833
H673	H	0.377488	-0.108952	-0.578387
H674	H	0.315982	-0.065026	-0.565672
H675	H	0.322514	-0.110436	-0.544564
O676	O	0.449849	-0.190931	-0.515542
C677	C	0.464106	-0.217098	-0.552800
H678	H	0.441221	-0.196497	-0.564828
H679	H	0.457419	-0.242965	-0.544853
H680	H	0.505206	-0.232993	-0.578848
