data_functionalizedCrystal
_audit_creation_method	'MofGen! by Chris Wilmer'
_symmetry_space_group_name_H-M	'P1'
_symmetry_Int_Tables_number	1
_symmetry_cell_setting	triclinic
loop_
_symmetry_equiv_pos_as_xyz
  x,y,z
_cell_length_a	17.699083
_cell_length_b	17.699083
_cell_length_c	16.176319
_cell_angle_alpha	89.992304
_cell_angle_beta	89.998611
_cell_angle_gamma	83.283015
loop_
_atom_site_label
_atom_site_type_symbol
_atom_site_fract_x
_atom_site_fract_y
_atom_site_fract_z
O1	O	1.004079	0.095713	-0.068632
O2	O	1.337412	0.429046	0.264701
O3	O	1.670745	0.762380	0.598034
O4	O	0.783700	0.108166	-0.068660
O5	O	1.117034	0.441499	0.264674
O6	O	1.450367	0.774832	0.598007
O7	O	0.900116	-0.008250	-0.068638
O8	O	1.233449	0.325083	0.264695
O9	O	1.566782	0.658417	0.598029
O10	O	0.887663	0.212129	-0.068654
O11	O	1.220997	0.545462	0.264679
O12	O	1.554330	0.878795	0.598013
O13	O	0.900100	-0.008257	0.068855
O14	O	1.233433	0.325076	0.402189
O15	O	1.566766	0.658409	0.735522
O16	O	0.783684	0.108158	0.068834
O17	O	1.117018	0.441492	0.402167
O18	O	1.450351	0.774825	0.735500
O19	O	1.004063	0.095706	0.068861
O20	O	1.337396	0.429039	0.402194
O21	O	1.670729	0.762372	0.735528
Cu22	Cu	0.893872	0.101931	0.081401
Cu23	Cu	1.227205	0.435265	0.414735
Cu24	Cu	1.560539	0.768598	0.748068
Cu25	Cu	0.893891	0.101940	-0.081200
Cu26	Cu	1.227224	0.435273	0.252133
Cu27	Cu	1.560558	0.768607	0.585467
O28	O	0.887647	0.212121	0.068839
O29	O	1.220981	0.545454	0.402173
O30	O	1.554314	0.878788	0.735506
C31	C	0.755495	0.107716	0.000084
C32	C	1.088829	0.441049	0.333417
C33	C	1.422162	0.774382	0.666750
C34	C	0.671477	0.106377	0.000073
C35	C	1.004811	0.439710	0.333407
C36	C	1.338144	0.773044	0.666740
C37	C	0.622856	0.174710	0.000069
C38	C	0.956190	0.508044	0.333402
C39	C	1.289523	0.841377	0.666735
C40	C	0.543913	0.173448	0.000079
C41	C	0.877246	0.506782	0.333413
C42	C	1.210580	0.840115	0.666746
C43	C	0.513592	0.103852	0.000089
C44	C	0.846926	0.437185	0.333422
C45	C	1.180259	0.770518	0.666756
C46	C	0.562219	0.035513	0.000096
C47	C	0.895553	0.368846	0.333430
C48	C	1.228886	0.702180	0.666763
C49	C	0.641161	0.036776	0.000091
C50	C	0.974495	0.370109	0.333425
C51	C	1.307828	0.703443	0.666758
C52	C	0.243856	0.030418	0.000117
C53	C	0.577190	0.363751	0.333450
C54	C	0.910523	0.697085	0.666784
C55	C	0.164908	0.029160	0.000120
C56	C	0.498242	0.362493	0.333453
C57	C	0.831575	0.695827	0.666786
C58	C	0.146608	0.167090	0.000105
C59	C	0.479942	0.500423	0.333438
C60	C	0.813275	0.833757	0.666772
C61	C	0.225550	0.168353	0.000100
C62	C	0.558883	0.501686	0.333434
C63	C	0.892217	0.835020	0.666767
C64	C	0.274170	0.100015	0.000112
C65	C	0.607504	0.433348	0.333445
C66	C	0.940837	0.766681	0.666778
C67	C	0.359769	0.101384	0.000102
C68	C	0.693103	0.434718	0.333435
C69	C	1.026436	0.768051	0.666768
C70	C	0.427995	0.102481	0.000093
C71	C	0.761328	0.435815	0.333427
C72	C	1.094661	0.769148	0.666760
C73	C	0.899662	-0.036451	0.000109
C74	C	1.232995	0.296883	0.333442
C75	C	1.566328	0.630216	0.666775
C76	C	0.898323	-0.120469	0.000109
C77	C	1.231656	0.212865	0.333442
C78	C	1.564990	0.546198	0.666776
C79	C	0.966656	-0.169090	0.000119
C80	C	1.299990	0.164244	0.333452
C81	C	1.633323	0.497577	0.666785
C82	C	0.965394	-0.248033	0.000111
C83	C	1.298727	0.085300	0.333444
C84	C	1.632061	0.418634	0.666778
C85	C	0.895798	-0.278354	0.000100
C86	C	1.229131	0.054980	0.333433
C87	C	1.562464	0.388313	0.666767
C88	C	0.827459	-0.229727	0.000088
C89	C	1.160792	0.103607	0.333421
C90	C	1.494126	0.436940	0.666754
C91	C	0.828722	-0.150785	0.000089
C92	C	1.162055	0.182549	0.333423
C93	C	1.495389	0.515882	0.666756
C94	C	0.822364	-0.548090	0.000080
C95	C	1.155697	-0.214756	0.333414
C96	C	1.489030	0.118577	0.666747
C97	C	0.821106	-0.627038	0.000081
C98	C	1.154439	-0.293704	0.333415
C99	C	1.487773	0.039629	0.666748
C100	C	0.959036	-0.645338	0.000102
C101	C	1.292369	-0.312004	0.333436
C102	C	1.625703	0.021329	0.666769
C103	C	0.960299	-0.566396	0.000104
C104	C	1.293632	-0.233063	0.333437
C105	C	1.626966	0.100271	0.666770
C106	C	0.891961	-0.517776	0.000087
C107	C	1.225294	-0.184442	0.333421
C108	C	1.558627	0.148891	0.666754
C109	C	0.893330	-0.432177	0.000094
C110	C	1.226664	-0.098843	0.333427
C111	C	1.559997	0.234490	0.666760
C112	C	0.894427	-0.363951	0.000099
C113	C	1.227761	-0.030618	0.333433
C114	C	1.561094	0.302715	0.666766
C115	C	1.032268	0.096156	0.000116
C116	C	1.365601	0.429489	0.333449
C117	C	1.698934	0.762822	0.666783
C118	C	1.116286	0.097494	0.000121
C119	C	1.449619	0.430828	0.333454
C120	C	1.782953	0.764161	0.666787
C121	C	0.888102	0.240322	0.000091
C122	C	1.221435	0.573655	0.333424
C123	C	1.554768	0.906989	0.666757
C124	C	0.889440	0.324340	0.000085
C125	C	1.222773	0.657673	0.333418
C126	C	1.556107	0.991007	0.666752
N127	N	0.893864	0.101925	0.195767
N128	N	1.227198	0.435258	0.529100
N129	N	1.560531	0.768591	0.862433
N130	N	0.893905	0.101941	-0.195565
N131	N	1.227238	0.435274	0.137768
N132	N	1.560571	0.768607	0.471101
C133	C	0.945429	0.050397	0.239040
C134	C	1.278762	0.383730	0.572374
C135	C	1.612095	0.717064	0.905707
C136	C	0.945432	0.050396	0.325588
C137	C	1.278766	0.383729	0.658921
C138	C	1.612099	0.717063	0.992254
C139	C	0.893875	0.101927	0.368859
C140	C	1.227208	0.435261	0.702193
C141	C	1.560542	0.768594	1.035526
C142	C	0.842305	0.153457	0.325579
C143	C	1.175639	0.486791	0.658913
C144	C	1.508972	0.820124	0.992246
C145	C	0.842299	0.153454	0.239034
C146	C	1.175632	0.486787	0.572367
C147	C	1.508965	0.820121	0.905701
C148	C	0.842331	0.153472	0.674608
C149	C	1.175665	0.486805	1.007941
C150	C	1.508998	0.820138	1.341274
C151	C	0.842344	0.153473	0.761159
C152	C	1.175677	0.486806	1.094493
C153	C	1.509010	0.820139	1.427826
C154	C	0.945465	0.050414	0.761161
C155	C	1.278799	0.383747	1.094495
C156	C	1.612132	0.717080	1.427828
C157	C	0.945458	0.050410	0.674616
C158	C	1.278792	0.383744	1.007949
C159	C	1.612125	0.717077	1.341283
C160	C	0.893886	0.101937	0.631344
C161	C	1.227220	0.435271	0.964677
C162	C	1.560553	0.768604	1.298010
C163	C	0.893882	0.101937	0.537499
C164	C	1.227215	0.435270	0.870833
C165	C	1.560548	0.768603	1.204166
C166	C	0.893883	0.101932	0.462702
C167	C	1.227216	0.435265	0.796035
C168	C	1.560549	0.768599	1.129369
H169	H	0.250232	0.225025	0.000089
H170	H	0.583566	0.558359	0.333422
H171	H	0.916899	0.891692	0.666755
C172	C	0.490430	0.248613	0.000066
C173	C	0.823763	0.581946	0.333399
C174	C	1.157097	0.915280	0.666733
H175	H	0.439072	0.237895	0.000078
H176	H	0.772406	0.571229	0.333412
H177	H	1.105739	0.904562	0.666745
H178	H	0.499606	0.277154	-0.047888
H179	H	0.832939	0.610488	0.285446
H180	H	1.166273	0.943821	0.618779
H181	H	0.499609	0.277158	0.048012
H182	H	0.832942	0.610492	0.381345
H183	H	1.166275	0.943825	0.714679
C184	C	0.785626	0.210167	0.627015
C185	C	1.118959	0.543500	0.960348
C186	C	1.452292	0.876834	1.293682
H187	H	0.793001	0.202787	0.569274
H188	H	1.126334	0.536121	0.902607
H189	H	1.459667	0.869454	1.235940
H190	H	0.793766	0.260664	0.641197
H191	H	1.127099	0.593998	0.974530
H192	H	1.460432	0.927331	1.307864
H193	H	0.735124	0.202021	0.641202
H194	H	1.068458	0.535354	0.974535
H195	H	1.401791	0.868687	1.307868
H196	H	0.800323	0.195413	0.360816
H197	H	1.133656	0.528746	0.694150
H198	H	1.466989	0.862079	1.027483
C199	C	0.093124	0.242262	0.000103
C200	C	0.426457	0.575595	0.333437
C201	C	0.759791	0.908929	0.666770
H202	H	0.041766	0.231546	0.000117
H203	H	0.375099	0.564879	0.333450
H204	H	0.708433	0.898213	0.666784
H205	H	0.102299	0.270807	-0.047848
H206	H	0.435632	0.604141	0.285486
H207	H	0.768965	0.937474	0.618819
H208	H	0.102306	0.270802	0.048052
H209	H	0.435639	0.604136	0.381386
H210	H	0.768973	0.937469	0.714719
C211	C	1.002141	-0.006289	0.191449
C212	C	1.335475	0.327044	0.524782
C213	C	1.668808	0.660377	0.858116
H214	H	1.032846	-0.036982	0.229620
H215	H	1.366180	0.296351	0.562953
H216	H	1.699513	0.629685	0.896287
H217	H	1.033593	0.020894	0.157677
H218	H	1.366926	0.354227	0.491010
H219	H	1.700260	0.687560	0.824343
H220	H	0.974968	-0.037766	0.157700
H221	H	1.308301	0.295567	0.491033
H222	H	1.641634	0.628901	0.824367
H223	H	1.016971	-0.541714	0.000117
H224	H	1.350305	-0.208380	0.333450
H225	H	1.683638	0.124953	0.666784
C226	C	0.753558	-0.097298	0.000078
C227	C	1.086891	0.236035	0.333412
C228	C	1.420224	0.569368	0.666745
H229	H	0.764277	-0.045941	0.000072
H230	H	1.097610	0.287392	0.333405
H231	H	1.430944	0.620725	0.666739
H232	H	0.725004	-0.106478	0.048019
H233	H	1.058337	0.226855	0.381353
H234	H	1.391670	0.560189	0.714686
H235	H	0.725024	-0.106472	-0.047880
H236	H	1.058357	0.226862	0.285453
H237	H	1.391691	0.560195	0.618786
C238	C	0.656206	0.251266	0.000055
C239	C	0.989539	0.584599	0.333389
C240	C	1.322873	0.917932	0.666722
H241	H	0.710185	0.242234	0.000045
H242	H	1.043518	0.575567	0.333379
H243	H	1.376851	0.908900	0.666712
H244	H	0.639510	0.279395	0.048000
H245	H	0.972843	0.612728	0.381333
H246	H	1.306176	0.946062	0.714667
H247	H	0.639505	0.279395	-0.047900
H248	H	0.972838	0.612729	0.285433
H249	H	1.306172	0.946062	0.618767
C250	C	0.785581	0.210137	0.191433
C251	C	1.118914	0.543471	0.524766
C252	C	1.452248	0.876804	0.858099
H253	H	0.754881	0.240833	0.229597
H254	H	1.088214	0.574167	0.562931
H255	H	1.421547	0.907500	0.896264
H256	H	0.754126	0.182949	0.157680
H257	H	1.087459	0.516283	0.491013
H258	H	1.420793	0.849616	0.824347
H259	H	0.812749	0.241611	0.157663
H260	H	1.146082	0.574945	0.490996
H261	H	1.479415	0.908278	0.824329
C262	C	0.750902	-0.263074	0.000069
C263	C	1.084236	0.070260	0.333402
C264	C	1.417569	0.403593	0.666736
H265	H	0.710386	-0.222808	0.000054
H266	H	1.043720	0.110525	0.333388
H267	H	1.377053	0.443858	0.666721
H268	H	0.747532	-0.293495	0.048013
H269	H	1.080865	0.039838	0.381347
H270	H	1.414199	0.373171	0.714680
H271	H	0.747553	-0.293481	-0.047886
H272	H	1.080886	0.039853	0.285447
H273	H	1.414220	0.373186	0.618780
C274	C	1.034210	-0.698819	0.000111
C275	C	1.367543	-0.365485	0.333444
C276	C	1.700877	-0.032152	0.666778
H277	H	1.075838	-0.669453	0.000127
H278	H	1.409172	-0.336120	0.333461
H279	H	1.742505	-0.002786	0.666794
H280	H	1.036595	-0.729989	-0.047836
H281	H	1.369928	-0.396655	0.285497
H282	H	1.703262	-0.063322	0.618830
H283	H	1.036577	-0.730000	0.048063
H284	H	1.369910	-0.396666	0.381397
H285	H	1.703244	-0.063333	0.714730
H286	H	0.800357	0.195437	0.796390
H287	H	1.133690	0.528770	1.129723
H288	H	1.467023	0.862104	1.463056
H289	H	0.764429	-0.651721	0.000074
H290	H	1.097762	-0.318388	0.333407
H291	H	1.431096	0.014946	0.666741
C292	C	0.528869	-0.041041	0.000105
C293	C	0.862202	0.292292	0.333439
C294	C	1.195535	0.625625	0.666772
H295	H	0.474890	-0.032008	0.000099
H296	H	0.808223	0.301325	0.333432
H297	H	1.141557	0.634658	0.666765
H298	H	0.545567	-0.069176	0.048053
H299	H	0.878900	0.264157	0.381387
H300	H	1.212233	0.597491	0.714720
H301	H	0.545567	-0.069166	-0.047847
H302	H	0.878900	0.264167	0.285487
H303	H	1.212234	0.597500	0.618820
H304	H	1.023330	-0.144409	0.000133
H305	H	1.356663	0.188924	0.333466
H306	H	1.689997	0.522258	0.666799
C307	C	1.040561	-0.301513	0.000130
C308	C	1.373894	0.031820	0.333463
C309	C	1.707228	0.365154	0.666797
H310	H	1.082190	-0.272149	0.000149
H311	H	1.415524	0.061185	0.333482
H312	H	1.748857	0.394518	0.666816
H313	H	1.042949	-0.332684	-0.047816
H314	H	1.376282	0.000649	0.285517
H315	H	1.709615	0.333982	0.618851
H316	H	1.042924	-0.332692	0.048084
H317	H	1.376257	0.000641	0.381417
H318	H	1.709590	0.333974	0.714751
C319	C	1.002187	-0.006274	0.808763
C320	C	1.335520	0.327060	1.142096
C321	C	1.668853	0.660393	1.475430
H322	H	0.994804	0.001100	0.866504
H323	H	1.328137	0.334433	1.199837
H324	H	1.661470	0.667766	1.533171
H325	H	1.052680	0.001883	0.794572
H326	H	1.386013	0.335216	1.127906
H327	H	1.719347	0.668549	1.461239
H328	H	0.994057	-0.056780	0.794586
H329	H	1.327391	0.276554	1.127920
H330	H	1.660724	0.609887	1.461253
C331	C	0.131553	-0.047398	0.000133
C332	C	0.464887	0.285936	0.333466
C333	C	0.798220	0.619269	0.666800
H334	H	0.077575	-0.038359	0.000124
H335	H	0.410908	0.294974	0.333457
H336	H	0.744242	0.628307	0.666791
H337	H	0.148247	-0.075530	0.048083
H338	H	0.481581	0.257803	0.381417
H339	H	0.814914	0.591137	0.714750
H340	H	0.148251	-0.075527	-0.047817
H341	H	0.481584	0.257806	0.285517
H342	H	0.814917	0.591140	0.618850
C343	C	0.297328	-0.044751	0.000124
C344	C	0.630662	0.288582	0.333457
C345	C	0.963995	0.621916	0.666791
H346	H	0.267962	-0.086379	0.000122
H347	H	0.601295	0.246955	0.333455
H348	H	0.934628	0.580288	0.666788
H349	H	0.328505	-0.047130	0.048070
H350	H	0.661838	0.286203	0.381404
H351	H	0.995171	0.619536	0.714737
H352	H	0.328503	-0.047125	-0.047830
H353	H	0.661836	0.286208	0.285504
H354	H	0.995170	0.619542	0.618837
H355	H	0.680748	-0.018868	0.000095
H356	H	1.014082	0.314465	0.333428
H357	H	1.347415	0.647799	0.666761
H358	H	0.766718	-0.508512	0.000067
H359	H	1.100052	-0.175179	0.333401
H360	H	1.433385	0.158155	0.666734
H361	H	0.987419	0.008438	0.360821
H362	H	1.320753	0.341771	0.694154
H363	H	1.654086	0.675105	1.027487
H364	H	0.987444	0.008451	0.639387
H365	H	1.320777	0.341785	0.972720
H366	H	1.654110	0.675118	1.306053
