data_functionalizedCrystal
_audit_creation_method	'MofGen! by Chris Wilmer'
_symmetry_space_group_name_H-M	'P1'
_symmetry_Int_Tables_number	1
_symmetry_cell_setting	triclinic
loop_
_symmetry_equiv_pos_as_xyz
  x,y,z
_cell_length_a	14.044220
_cell_length_b	14.853558
_cell_length_c	13.930277
_cell_angle_alpha	89.993309
_cell_angle_beta	90.003087
_cell_angle_gamma	91.589994
loop_
_atom_site_label
_atom_site_type_symbol
_atom_site_fract_x
_atom_site_fract_y
_atom_site_fract_z
O1	O	-0.123724	1.206176	-0.079817
O2	O	0.376276	1.706176	0.420183
O3	O	-0.138477	0.944884	-0.079821
O4	O	0.361523	1.444884	0.420179
O5	O	0.006889	1.071608	-0.079815
O6	O	0.506889	1.571608	0.420185
O7	O	-0.269091	1.079452	-0.079823
O8	O	0.230909	1.579452	0.420177
O9	O	0.006892	1.071589	0.079847
O10	O	0.506892	1.571589	0.579847
O11	O	-0.138474	0.944865	0.079840
O12	O	0.361526	1.444865	0.579840
O13	O	-0.123721	1.206157	0.079845
O14	O	0.376279	1.706157	0.579845
Zn15	Zn	-0.131097	1.075508	0.105192
Zn16	Zn	0.368903	1.575508	0.605192
Zn17	Zn	-0.131101	1.075533	-0.105169
Zn18	Zn	0.368899	1.575533	0.394831
O19	O	-0.269087	1.079433	0.079838
O20	O	0.230913	1.579433	0.579838
C21	C	-0.137809	0.911233	0.000009
C22	C	0.362191	1.411233	0.500009
C23	C	-0.135810	0.810990	0.000007
C24	C	0.364190	1.310990	0.500007
C25	C	-0.134875	0.763907	-0.087028
C26	C	0.365125	1.263907	0.412972
C27	C	-0.134860	0.763883	0.087042
C28	C	0.365140	1.263883	0.587042
C29	C	-0.132978	0.669700	0.087043
C30	C	0.367022	1.169700	0.587043
C31	C	-0.132042	0.622616	0.000008
C32	C	0.367958	1.122616	0.500008
C33	C	-0.132989	0.669715	-0.087029
C34	C	0.367011	1.169715	0.412971
C35	C	-0.132021	0.622594	0.174079
C36	C	0.367979	1.122594	0.674079
C37	C	-0.130137	0.528406	0.174084
C38	C	0.369863	1.028406	0.674084
C39	C	-0.129208	0.481320	0.087047
C40	C	0.370792	0.981320	0.587047
C41	C	-0.130156	0.528425	0.000007
C42	C	0.369844	1.028425	0.500007
C43	C	-0.129221	0.481341	-0.087028
C44	C	0.370779	0.981341	0.412972
C45	C	-0.130176	0.528444	-0.174070
C46	C	0.369824	1.028444	0.325930
C47	C	-0.132061	0.622629	-0.174065
C48	C	0.367939	1.122629	0.325935
C49	C	-0.127324	0.387134	0.087043
C50	C	0.372676	0.887134	0.587043
C51	C	-0.127335	0.387149	-0.087029
C52	C	0.372665	0.887149	0.412971
C53	C	-0.304408	1.082876	0.000006
C54	C	0.195592	1.582876	0.500006
C55	C	-0.409647	1.093118	0.000003
C56	C	0.090353	1.593118	0.500003
C57	C	-0.602332	1.111842	0.000008
C58	C	-0.102332	1.611842	0.500008
C59	C	-0.659872	1.039203	0.000007
C60	C	-0.159872	1.539203	0.500007
C61	C	-0.767089	1.049621	0.000010
C62	C	-0.267089	1.549621	0.500010
C63	C	-0.495105	1.101425	0.000005
C64	C	0.004895	1.601425	0.500005
C65	C	0.042209	1.068165	0.000015
C66	C	0.542209	1.568165	0.500015
C67	C	0.147448	1.057923	0.000012
C68	C	0.647448	1.557923	0.500012
C69	C	-0.124390	1.239808	0.000012
C70	C	0.375610	1.739808	0.500012
C71	C	-0.126388	1.340050	0.000008
C72	C	0.373612	1.840050	0.500008
N73	N	-0.131094	1.075497	0.248758
N74	N	0.368906	1.575497	0.748758
N75	N	-0.131097	1.075551	-0.248735
N76	N	0.368903	1.575551	0.251265
C77	C	-0.195444	1.019416	0.701025
C78	C	0.304556	1.519416	1.201025
C79	C	-0.066751	1.131675	0.701000
C80	C	0.433249	1.631675	1.201000
C81	C	-0.066748	1.131664	0.600504
C82	C	0.433252	1.631664	1.100504
C83	C	-0.131095	1.075529	0.550264
C84	C	0.368905	1.575529	1.050264
C85	C	-0.195445	1.019405	0.600520
C86	C	0.304555	1.519405	1.100520
C87	C	-0.002406	1.187794	0.550241
C88	C	0.497594	1.687794	1.050241
C89	C	-0.002401	1.187786	0.449739
C90	C	0.497599	1.687786	0.949739
C91	C	-0.066744	1.131646	0.399497
C92	C	0.433256	1.631646	0.899497
C93	C	-0.131096	1.075518	0.449759
C94	C	0.368904	1.575518	0.949759
C95	C	-0.195443	1.019383	0.399519
C96	C	0.304557	1.519383	0.899519
C97	C	-0.259791	0.963250	0.449779
C98	C	0.240209	1.463250	0.949779
C99	C	-0.259788	0.963264	0.550278
C100	C	0.240212	1.463264	1.050278
C101	C	-0.066747	1.131632	0.298998
C102	C	0.433253	1.631632	0.798998
C103	C	-0.195444	1.019372	0.299014
C104	C	0.304556	1.519372	0.799014
H105	H	-0.126555	0.348787	0.157911
H106	H	0.373445	0.848787	0.657911
Cl107	Cl	-0.136035	0.823075	0.196451
Cl108	Cl	0.363965	1.323075	0.696451
H109	H	-0.628611	0.969190	0.000007
H110	H	-0.128611	1.469190	0.500007
H111	H	-0.132774	0.660937	0.244938
H112	H	0.367226	1.160937	0.744938
H113	H	-0.129409	0.490096	-0.244934
H114	H	0.370591	0.990096	0.255066
Cl115	Cl	-0.650594	1.219930	0.000015
Cl116	Cl	-0.150594	1.719930	0.500015
H117	H	-0.132837	0.660989	-0.244930
H118	H	0.367163	1.160989	0.255070
Cl119	Cl	-0.136076	0.823118	-0.196446
Cl120	Cl	0.363924	1.323118	0.303554
H121	H	-0.247840	0.973656	0.258115
H122	H	0.252160	1.473656	0.758115
Cl123	Cl	-0.340687	0.892689	0.386610
Cl124	Cl	0.159313	1.392689	0.886610
Cl125	Cl	-0.128949	0.469199	0.283505
Cl126	Cl	0.371051	0.969199	0.783505
H127	H	0.049995	1.233491	0.408824
H128	H	0.549995	1.733491	0.908824
H129	H	-0.312179	0.917564	0.591206
H130	H	0.187821	1.417564	1.091206
Cl131	Cl	-0.276332	0.948848	0.764204
Cl132	Cl	0.223668	1.448848	1.264204
Cl133	Cl	0.014133	1.202249	0.764156
Cl134	Cl	0.514133	1.702249	1.264156
H135	H	0.049979	1.233503	0.591150
H136	H	0.549979	1.733503	1.091150
H137	H	-0.126579	0.348820	-0.157905
H138	H	0.373421	0.848820	0.342095
Cl139	Cl	0.014136	1.202199	0.235821
Cl140	Cl	0.514136	1.702199	0.735821
