data_functionalizedCrystal
_audit_creation_method	'MofGen! by Chris Wilmer'
_symmetry_space_group_name_H-M	'P1'
_symmetry_Int_Tables_number	1
_symmetry_cell_setting	triclinic
loop_
_symmetry_equiv_pos_as_xyz
  x,y,z
_cell_length_a	15.455313
_cell_length_b	16.109301
_cell_length_c	16.109298
_cell_angle_alpha	96.539166
_cell_angle_beta	87.330355
_cell_angle_gamma	87.322220
loop_
_atom_site_label
_atom_site_type_symbol
_atom_site_fract_x
_atom_site_fract_y
_atom_site_fract_z
O1	O	0.072066	-1.106773	0.103233
O2	O	0.072078	-0.864711	0.116532
O3	O	0.072078	-0.992393	-0.011149
O4	O	0.072066	-0.979090	0.230914
O5	O	-0.072184	-0.985092	-0.003878
O6	O	-0.072184	-0.857410	0.123803
O7	O	-0.072196	-1.099471	0.110504
Cu8	Cu	-0.085362	-0.977774	0.117818
Cu9	Cu	0.085244	-0.986408	0.109218
O10	O	-0.072196	-0.971789	0.238185
C11	C	-0.000051	-0.830086	0.119629
C12	C	-0.000046	-0.737791	0.118013
N13	N	-0.205358	-0.971707	0.123865
C14	C	-0.000050	-0.988204	-0.038489
C15	C	-0.000040	-0.986591	-0.130785
C16	C	-0.250752	-1.025969	0.069642
C17	C	-0.341560	-1.021389	0.074223
C18	C	-0.386972	-0.962549	0.133032
C19	C	-0.341571	-0.908280	0.187258
C20	C	-0.250765	-0.912857	0.182672
C21	C	-0.658553	-0.942791	0.152804
C22	C	-0.749366	-0.938220	0.157388
C23	C	-0.749349	-1.051327	0.044351
C24	C	-0.658541	-1.055903	0.039774
C25	C	-0.613148	-1.001632	0.093996
N26	N	-0.479792	-0.957867	0.137718
N27	N	-0.520329	-1.006310	0.089306
N28	N	0.205240	-0.992482	0.103164
C29	C	-0.000065	-1.134097	0.107407
C30	C	-0.000065	-1.226392	0.109022
C31	C	-0.000059	-0.515517	0.190022
C32	C	-0.000065	-0.428796	0.188498
C33	C	-0.000054	-0.448673	0.037008
C34	C	-0.000055	-0.535391	0.038533
C35	C	-0.000053	-0.568811	0.115042
C36	C	-0.000058	-0.395372	0.111993
C37	C	-0.000064	-0.301345	0.110341
C38	C	-0.000049	-0.662843	0.116695
C39	C	0.078580	-0.985302	-0.433816
C40	C	0.078586	-0.986831	-0.347096
C41	C	-0.078697	-0.978882	-0.339154
C42	C	-0.078702	-0.977360	-0.425873
C43	C	-0.000061	-0.980566	-0.473201
C44	C	-0.000050	-0.983616	-0.299763
C45	C	-0.000044	-0.985273	-0.205738
C46	C	-0.000067	-0.978911	-0.567233
C47	C	-0.000067	-0.975978	0.265524
C48	C	-0.000071	-0.977592	0.357820
H49	H	-0.213784	-1.073886	0.021757
Br50	Br	-0.185418	-0.974528	-0.274918
H51	H	-0.142744	-0.973505	-0.457942
H52	H	-0.000072	-0.385407	0.249554
Br53	Br	-0.403170	-1.095029	0.000630
Br54	Br	-0.596954	-0.869141	0.226391
Br55	Br	-0.596909	-1.135761	-0.040036
H56	H	-0.000061	-0.421451	-0.025282
H57	H	-0.786316	-1.095512	0.000204
Br58	Br	-0.000060	-0.560870	0.293854
H59	H	-0.378551	-0.860367	0.235139
H60	H	-0.000052	-0.578786	-0.022528
H61	H	-0.786336	-0.890302	0.205280
H62	H	-0.213806	-0.868670	0.226826
Br63	Br	0.185306	-0.989656	-0.498045
Br64	Br	0.185317	-0.993265	-0.293649
