data_functionalizedCrystal
_audit_creation_method	'MofGen! by Chris Wilmer'
_symmetry_space_group_name_H-M	'P1'
_symmetry_Int_Tables_number	1
_symmetry_cell_setting	triclinic
loop_
_symmetry_equiv_pos_as_xyz
  x,y,z
_cell_length_a	6.394989
_cell_length_b	14.971486
_cell_length_c	14.048226
_cell_angle_alpha	90.001501
_cell_angle_beta	90.003392
_cell_angle_gamma	85.055920
loop_
_atom_site_label
_atom_site_type_symbol
_atom_site_fract_x
_atom_site_fract_y
_atom_site_fract_z
O1	O	-0.272212	-1.189891	-0.079045
O2	O	-0.304810	-0.929843	-0.079070
O3	O	0.015544	-1.063558	-0.079058
O4	O	-0.592566	-1.056176	-0.079057
O5	O	0.015563	-1.063542	0.079264
O6	O	-0.304791	-0.929827	0.079252
O7	O	-0.272193	-1.189874	0.079277
Zn8	Zn	-0.288489	-1.059848	0.104401
Zn9	Zn	-0.288514	-1.059870	-0.104194
O10	O	-0.592547	-1.056159	0.079264
C11	C	-0.303343	-0.896494	0.000088
C12	C	-0.298974	-0.797150	0.000078
C13	C	-0.273661	-1.223223	0.000117
C14	C	-0.278029	-1.322567	0.000121
N15	N	-0.288471	-1.059839	0.246762
C16	C	0.093378	-1.062090	0.000099
C17	C	0.329624	-1.057629	0.000098
N18	N	-0.288516	-1.059885	-0.246555
C19	C	-0.487173	-0.741960	0.000079
C20	C	-0.483056	-0.648616	0.000093
C21	C	-0.290737	-0.610464	0.000099
C22	C	-0.102524	-0.665661	0.000101
C23	C	-0.106643	-0.759003	0.000093
C24	C	-0.093951	-0.471106	0.000114
C25	C	-0.089830	-0.377757	0.000119
C26	C	-0.470364	-0.360719	0.000114
C27	C	-0.474483	-0.454061	0.000107
C28	C	-0.286268	-0.509252	0.000106
C29	C	-0.146677	-1.119068	0.296585
C30	C	-0.146676	-1.119074	0.396243
C31	C	-0.288480	-1.059855	0.446075
C32	C	-0.430281	-1.000620	0.396245
C33	C	-0.430271	-1.000610	0.296589
C34	C	-0.430296	-1.000646	0.603959
C35	C	-0.430310	-1.000656	0.703622
C36	C	-0.146701	-1.119110	0.703613
C37	C	-0.146691	-1.119100	0.603957
C38	C	-0.288495	-1.059866	0.554134
H39	H	-0.643782	-0.773016	0.000074
Cl40	Cl	-0.608583	-0.926204	0.766261
H41	H	-0.031233	-1.167325	0.563384
H42	H	-0.623615	-0.315778	0.000119
H43	H	-0.031240	-1.167340	0.744185
Cl44	Cl	0.129961	-0.828386	0.000095
H45	H	-0.031212	-1.167295	0.256018
Cl46	Cl	-0.608544	-0.926167	0.458889
H47	H	-0.545762	-0.952408	0.563396
H48	H	-0.545731	-0.952379	0.256024
Cl49	Cl	0.031585	-1.193533	0.458880
H50	H	0.066773	-0.346697	0.000125
H51	H	0.059314	-0.516040	0.000115
Cl52	Cl	0.139251	-0.617698	0.000114
H53	H	-0.636307	-0.603684	0.000094
H54	H	-0.631086	-0.485121	0.000093
