data_functionalizedCrystal
_audit_creation_method	'MofGen! by Chris Wilmer'
_symmetry_space_group_name_H-M	'P1'
_symmetry_Int_Tables_number	1
_symmetry_cell_setting	triclinic
loop_
_symmetry_equiv_pos_as_xyz
  x,y,z
_cell_length_a	19.288864
_cell_length_b	27.732048
_cell_length_c	17.766277
_cell_angle_alpha	89.988664
_cell_angle_beta	89.976791
_cell_angle_gamma	82.889449
loop_
_atom_site_label
_atom_site_type_symbol
_atom_site_fract_x
_atom_site_fract_y
_atom_site_fract_z
O1	O	0.920977	0.060300	-0.062844
O2	O	1.420977	0.560300	0.437156
O3	O	0.718666	0.068434	-0.062793
O4	O	1.218666	0.568434	0.437207
O5	O	0.826105	-0.006011	-0.062806
O6	O	1.326105	0.493989	0.437194
O7	O	0.813538	0.134745	-0.062831
O8	O	1.313538	0.634745	0.437169
O9	O	0.826086	-0.006014	0.062383
O10	O	1.326086	0.493986	0.562383
O11	O	0.718647	0.068430	0.062395
O12	O	1.218647	0.568430	0.562395
O13	O	0.920958	0.060296	0.062345
O14	O	1.420958	0.560296	0.562345
Cu15	Cu	0.819801	0.064363	0.073801
Cu16	Cu	1.319801	0.564363	0.573801
Cu17	Cu	0.819823	0.064367	-0.074249
Cu18	Cu	1.319823	0.564367	0.425751
O19	O	0.813519	0.134741	0.062357
O20	O	1.313519	0.634741	0.562357
C21	C	0.692781	0.068171	-0.000192
C22	C	1.192781	0.568171	0.499808
C23	C	0.615683	0.067385	-0.000172
C24	C	1.115683	0.567385	0.499828
C25	C	0.570714	0.111066	-0.000192
C26	C	1.070714	0.611066	0.499808
C27	C	0.498271	0.110328	-0.000200
C28	C	0.998271	0.610328	0.499800
C29	C	0.470801	0.065906	-0.000204
C30	C	0.970801	0.565906	0.499796
C31	C	0.515780	0.022219	-0.000180
C32	C	1.015780	0.522219	0.499820
C33	C	0.588220	0.022959	-0.000164
C34	C	1.088220	0.522959	0.499836
C35	C	0.362763	0.030987	-0.044082
C36	C	0.862763	0.530987	0.455918
C37	C	0.290324	0.030250	-0.044102
C38	C	0.790324	0.530250	0.455898
C39	C	0.247370	0.063624	-0.000249
C40	C	0.747370	0.563624	0.499751
C41	C	0.276863	0.097744	0.043615
C42	C	0.776863	0.597744	0.543615
C43	C	0.349304	0.098483	0.043631
C44	C	0.849304	0.598483	0.543631
C45	C	0.392252	0.065099	-0.000220
C46	C	0.892252	0.565099	0.499780
C47	C	0.123850	0.106507	-0.000277
C48	C	0.623850	0.606507	0.499723
C49	C	0.051406	0.105767	-0.000280
C50	C	0.551406	0.605767	0.499720
C51	C	0.068916	0.017658	-0.000267
C52	C	0.568916	0.517658	0.499733
C53	C	0.141358	0.018399	-0.000256
C54	C	0.641358	0.518399	0.499744
C55	C	0.168820	0.062825	-0.000264
C56	C	0.668820	0.562825	0.499736
C57	C	0.825831	-0.024020	-0.000209
C58	C	1.325831	0.475980	0.499791
C59	C	0.825037	-0.077678	-0.000203
C60	C	1.325037	0.422322	0.499797
C61	C	0.883526	-0.416316	-0.000256
C62	C	1.383526	0.083684	0.499744
C63	C	0.880579	-0.617985	-0.000266
C64	C	1.380579	-0.117985	0.499734
O65	O	0.934063	-0.649079	-0.000312
O66	O	1.434063	-0.149079	0.499688
N67	N	0.816872	-0.637301	-0.000249
N68	N	1.316872	-0.137301	0.499751
C69	C	0.753897	-0.606196	-0.000235
C70	C	1.253897	-0.106196	0.499765
O71	O	0.699643	-0.627253	-0.000229
O72	O	1.199643	-0.127253	0.499771
C73	C	0.756845	-0.404529	-0.000231
C74	C	1.256845	0.095471	0.499769
C75	C	0.820556	-0.385216	-0.000240
C76	C	1.320556	0.114784	0.499760
C77	C	0.947232	-0.397002	-0.000266
C78	C	1.447232	0.102998	0.499734
C79	C	0.947968	-0.346588	-0.000259
C80	C	1.447968	0.153412	0.499741
C81	C	0.884998	-0.315488	-0.000243
C82	C	1.384998	0.184512	0.499757
C83	C	0.821292	-0.334801	-0.000233
C84	C	1.321292	0.165199	0.499767
C85	C	0.693871	-0.373425	-0.000222
C86	C	1.193871	0.126575	0.499778
C87	C	0.694614	-0.323006	-0.000223
C88	C	1.194614	0.176994	0.499777
C89	C	0.758325	-0.303693	-0.000232
C90	C	1.258325	0.196307	0.499768
C91	C	0.759059	-0.253287	-0.000210
C92	C	1.259059	0.246713	0.499790
N93	N	0.822766	-0.233971	-0.000227
N94	N	1.322766	0.266029	0.499773
C95	C	0.885735	-0.265071	-0.000243
C96	C	1.385735	0.234929	0.499757
C97	C	0.752354	-0.712075	-0.000236
C98	C	1.252354	-0.212075	0.499764
C99	C	0.751617	-0.762492	-0.000236
C100	C	1.251617	-0.262492	0.499764
C101	C	0.878299	-0.774276	-0.000268
C102	C	1.378299	-0.274276	0.499732
C103	C	0.879035	-0.723859	-0.000263
C104	C	1.379035	-0.223859	0.499737
C105	C	0.816061	-0.692759	-0.000253
C106	C	1.316061	-0.192759	0.499747
C107	C	0.887276	-0.159197	-0.000229
C108	C	1.387276	0.340803	0.499771
C109	C	0.888007	-0.108778	-0.000219
C110	C	1.388007	0.391222	0.499781
C111	C	0.761325	-0.096998	-0.000191
C112	C	1.261325	0.403002	0.499809
C113	C	0.760595	-0.147412	-0.000197
C114	C	1.260595	0.352588	0.499803
C115	C	0.823576	-0.178511	-0.000218
C116	C	1.323576	0.321489	0.499782
O117	O	0.705603	-0.222164	-0.000172
O118	O	1.205603	0.277836	0.499828
O119	O	0.939982	-0.244005	-0.000266
O120	O	1.439982	0.255995	0.499734
C121	C	0.882790	-0.466730	-0.000263
C122	C	1.382790	0.033270	0.499737
C123	C	0.819084	-0.486044	-0.000253
C124	C	1.319084	0.013956	0.499747
C125	C	0.756114	-0.454943	-0.000236
C126	C	1.256114	0.045057	0.499764
C127	C	0.818347	-0.536461	-0.000253
C128	C	1.318347	-0.036461	0.499747
C129	C	0.881317	-0.567561	-0.000269
C130	C	1.381317	-0.067561	0.499731
C131	C	0.945023	-0.548245	-0.000285
C132	C	1.445023	-0.048245	0.499715
C133	C	0.945760	-0.497831	-0.000279
C134	C	1.445760	0.002169	0.499721
C135	C	0.692407	-0.474260	-0.000220
C136	C	1.192407	0.025740	0.499780
C137	C	0.691676	-0.524674	-0.000226
C138	C	1.191676	-0.024674	0.499774
C139	C	0.754646	-0.555775	-0.000242
C140	C	1.254646	-0.055775	0.499758
C141	C	0.946842	0.060560	-0.000258
C142	C	1.446842	0.560560	0.499742
C143	C	1.023941	0.061345	-0.000282
C144	C	1.523941	0.561345	0.499718
C145	C	0.813792	0.152751	-0.000241
C146	C	1.313792	0.652751	0.499759
C147	C	0.814587	0.206408	-0.000252
C148	C	1.314587	0.706408	0.499748
N149	N	0.819790	0.064359	0.177931
N150	N	1.319790	0.564359	0.677931
N151	N	0.819839	0.064367	-0.178379
N152	N	1.319839	0.564367	0.321621
C153	C	0.867380	0.031411	0.217313
C154	C	1.367380	0.531411	0.717313
C155	C	0.867384	0.031409	0.296114
C156	C	1.367384	0.531409	0.796114
C157	C	0.819805	0.064363	0.335532
C158	C	1.319805	0.564363	0.835532
C159	C	0.772207	0.097314	0.296141
C160	C	1.272207	0.597314	0.796141
C161	C	0.772200	0.097312	0.217341
C162	C	1.272200	0.597312	0.717341
C163	C	0.810231	0.108406	0.460363
C164	C	1.310231	0.608406	0.960363
C165	C	0.810244	0.108408	0.539162
C166	C	1.310244	0.608408	1.039162
C167	C	0.819823	0.064369	0.578578
C168	C	1.319823	0.564369	1.078578
C169	C	0.829406	0.020325	0.539186
C170	C	1.329406	0.520325	1.039186
C171	C	0.829399	0.020323	0.460385
C172	C	1.329399	0.520323	0.960385
C173	C	0.819807	0.064369	0.420977
C174	C	1.319807	0.564369	0.920977
C175	C	0.867420	0.031416	0.703405
C176	C	1.367420	0.531416	1.203405
C177	C	0.867419	0.031413	0.782209
C178	C	1.367419	0.531413	1.282209
C179	C	0.772245	0.097322	0.782234
C180	C	1.272245	0.597322	1.282234
C181	C	0.772243	0.097321	0.703432
C182	C	1.272243	0.597321	1.203432
C183	C	0.819834	0.064368	0.664023
C184	C	1.319834	0.564368	1.164023
H185	H	0.266316	0.002469	-0.079822
H186	H	0.766316	0.502469	0.420178
H187	H	0.701070	-0.686757	-0.000228
H188	H	1.201070	-0.186757	0.499772
H189	H	0.999848	-0.330868	-0.000270
H190	H	1.499848	0.169132	0.499730
O191	O	0.918718	-0.004138	0.660884
O192	O	1.418718	0.495862	1.160884
H193	H	0.952261	0.016138	0.624950
H194	H	1.452261	0.516138	1.124950
H195	H	0.241891	0.124920	0.079325
H196	H	0.741891	0.624920	0.579325
O197	O	0.947750	-0.703028	-0.000286
O198	O	1.447750	-0.203028	0.499714
H199	H	0.991409	-0.733129	-0.000304
H200	H	1.491409	-0.233129	0.499696
O201	O	0.625153	-0.394248	-0.000212
O202	O	1.125153	0.105752	0.499788
H203	H	0.594940	-0.381737	-0.051235
H204	H	1.094940	0.118263	0.448765
H205	H	0.906138	0.004578	0.328185
H206	H	1.406138	0.504578	0.828185
O207	O	0.839748	-0.027174	0.581699
O208	O	1.339748	0.472826	1.081699
H209	H	0.891164	-0.047373	0.566561
H210	H	1.391164	0.452627	1.066561
O211	O	0.624486	-0.440718	-0.000200
O212	O	1.124486	0.059282	0.499800
H213	H	0.621788	-0.417474	0.050827
H214	H	1.121788	0.082526	0.550827
O215	O	0.682901	-0.783321	-0.000216
O216	O	1.182901	-0.283321	0.499784
H217	H	0.639242	-0.753220	-0.000212
H218	H	1.139242	-0.253220	0.499788
H219	H	0.733467	0.124145	0.328238
H220	H	1.233467	0.624145	0.828238
H221	H	0.708716	-0.163138	-0.000169
H222	H	1.208716	0.336862	0.499831
O223	O	0.720920	0.132860	0.660945
O224	O	1.220920	0.632860	1.160945
H225	H	0.729367	0.170528	0.676043
H226	H	1.229367	0.670528	1.176043
H227	H	0.733446	0.124143	0.185276
H228	H	1.233446	0.624143	0.685276
H229	H	0.996296	-0.573576	-0.000295
H230	H	1.496296	-0.073576	0.499705
O231	O	0.799896	0.155905	0.417844
O232	O	1.299896	0.655905	0.917844
H233	H	0.842124	0.177937	0.432925
H234	H	1.342124	0.677937	0.932925
O235	O	0.720930	0.132876	0.824725
O236	O	1.220930	0.632876	1.324725
H237	H	0.687389	0.112598	0.860660
H238	H	1.187389	0.612598	1.360660
H239	H	0.624835	-0.012613	-0.000148
H240	H	1.124835	0.487387	0.499852
H241	H	0.837199	-0.015539	0.428315
H242	H	1.337199	0.484461	0.928315
O243	O	0.189862	-0.028716	-0.000241
O244	O	0.689862	0.471284	0.499759
H245	H	0.244850	-0.020740	-0.000222
H246	H	0.744850	0.479260	0.499778
H247	H	0.710057	-0.071667	-0.000175
H248	H	1.210057	0.428333	0.499825
H249	H	0.939890	-0.093056	-0.000224
H250	H	1.439890	0.406944	0.499776
O251	O	0.918757	-0.004120	0.824691
O252	O	1.418757	0.495880	1.324691
H253	H	0.951853	-0.027028	0.784045
H254	H	1.451853	0.472972	1.284045
H255	H	0.802445	0.144271	0.571229
H256	H	1.302445	0.644271	1.071229
O257	O	0.622955	-0.545503	-0.000210
O258	O	1.122955	-0.045503	0.499790
H259	H	0.592739	-0.532992	-0.051231
H260	H	1.092739	-0.032992	0.448769
O261	O	0.600336	0.158980	-0.000179
O262	O	1.100336	0.658980	0.499821
H263	H	0.556891	0.189230	-0.000183
H264	H	1.056891	0.689230	0.499817
O265	O	0.955204	-0.192737	-0.000241
O266	O	1.455204	0.307263	0.499759
H267	H	0.999620	-0.170829	-0.000238
H268	H	1.499620	0.329171	0.499762
O269	O	0.409091	-0.005009	-0.091388
O270	O	0.909091	0.494991	0.408612
H271	H	0.376413	-0.028852	-0.121901
H272	H	0.876413	0.471148	0.378099
O273	O	1.015155	-0.430543	-0.000273
O274	O	1.515155	0.069457	0.499727
H275	H	1.059570	-0.408635	-0.000272
H276	H	1.559570	0.091365	0.499728
H277	H	0.014793	0.141339	-0.000292
H278	H	0.514793	0.641339	0.499708
O279	O	0.486158	-0.025694	-0.000184
O280	O	0.986158	0.474306	0.499816
H281	H	0.428229	-0.018870	-0.000206
H282	H	0.928229	0.481130	0.499794
H283	H	0.461651	0.145899	-0.000214
H284	H	0.961651	0.645899	0.499786
H285	H	0.373314	0.126263	0.079349
H286	H	0.873314	0.626263	0.579349
O287	O	0.626691	-0.289461	-0.000203
O288	O	1.126691	0.210539	0.499797
H289	H	0.582270	-0.311365	-0.000189
H290	H	1.082270	0.188635	0.499811
H291	H	0.146211	0.142682	-0.000272
H292	H	0.646211	0.642682	0.499728
H293	H	0.997640	-0.482111	-0.000286
H294	H	1.497640	0.017889	0.499714
O295	O	0.918699	-0.004136	0.174810
O296	O	1.418699	0.495864	0.674810
H297	H	0.972779	0.001924	0.189906
H298	H	1.472779	0.501924	0.689906
O299	O	0.039300	-0.030256	-0.000271
O300	O	0.539300	0.469744	0.499729
H301	H	-0.018628	-0.023433	-0.000289
H302	H	0.481372	0.476567	0.499711
H303	H	0.929571	-0.799607	-0.000281
H304	H	1.429571	-0.299607	0.499719
