data_functionalizedCrystal
_audit_creation_method	'MofGen! by Chris Wilmer'
_symmetry_space_group_name_H-M	'P1'
_symmetry_Int_Tables_number	1
_symmetry_cell_setting	triclinic
loop_
_symmetry_equiv_pos_as_xyz
  x,y,z
_cell_length_a	10.654554
_cell_length_b	10.654551
_cell_length_c	9.130313
_cell_angle_alpha	90.001552
_cell_angle_beta	90.001106
_cell_angle_gamma	84.486053
loop_
_atom_site_label
_atom_site_type_symbol
_atom_site_fract_x
_atom_site_fract_y
_atom_site_fract_z
O1	O	1.667831	0.176420	-0.121744
O2	O	1.302354	0.193220	-0.121756
O3	O	1.493495	0.002081	-0.121750
O4	O	1.476690	0.367559	-0.121749
O5	O	1.493493	0.002086	0.121849
O6	O	1.302351	0.193225	0.121843
O7	O	1.667829	0.176425	0.121855
Cu8	Cu	1.485090	0.184826	0.144091
Cu9	Cu	1.485093	0.184820	-0.143992
O10	O	1.476688	0.367564	0.121849
C11	C	1.255555	0.191988	0.000042
C12	C	1.116112	0.188294	0.000037
C13	C	0.905604	0.297367	0.000051
C14	C	1.036625	0.300839	0.000039
C15	C	1.064571	0.072269	0.000031
C16	C	0.933552	0.068799	0.000032
C17	C	0.826123	0.409919	0.000068
C18	C	0.877654	0.525944	0.000071
C19	C	1.008676	0.529416	0.000059
C20	C	1.088166	0.416863	0.000045
C21	C	1.492260	-0.044714	0.000046
C22	C	1.488567	-0.184158	0.000036
C23	C	1.486836	-0.249672	-0.132747
C24	C	1.483356	-0.380693	-0.132741
C25	C	1.483343	-0.380673	0.132844
C26	C	1.486814	-0.249654	0.132836
C27	C	1.488589	-0.184176	-0.265548
C28	C	1.486860	-0.249692	-0.398342
C29	C	1.483379	-0.380712	-0.398335
C30	C	1.481629	-0.446217	-0.265534
C31	C	1.714628	0.177657	0.000054
C32	C	1.854071	0.181351	0.000049
C33	C	1.477923	0.414360	0.000050
C34	C	1.481616	0.553803	0.000051
N35	N	1.485097	0.184829	0.346714
N36	N	1.485095	0.184806	-0.346615
C37	C	1.569756	0.100222	0.423369
C38	C	1.569753	0.100207	0.576705
C39	C	1.400427	0.269417	0.576720
C40	C	1.400426	0.269425	0.423386
C41	C	1.654428	0.015625	0.346697
C42	C	1.739095	-0.068988	0.423351
C43	C	1.739092	-0.069003	0.576688
C44	C	1.654421	0.015595	0.653370
H45	H	1.129301	-0.019365	0.000021
H46	H	1.481918	-0.434018	0.240964
H47	H	1.808022	-0.137906	0.639099
O48	O	1.478260	-0.573493	-0.265788
C49	C	1.477045	-0.617269	-0.411464
H50	H	1.518777	-0.546650	-0.486663
H51	H	1.535540	-0.712391	-0.419524
H52	H	1.375839	-0.628165	-0.446002
H53	H	1.481958	-0.434049	-0.506462
H54	H	1.654417	0.015567	0.778228
H55	H	1.331487	0.338319	0.360973
H56	H	1.488197	-0.196307	0.240960
O57	O	0.883692	-0.044004	0.000096
C58	C	0.981936	-0.142602	0.000054
H59	H	1.071237	-0.106633	0.046180
H60	H	0.953847	-0.223534	0.070769
H61	H	1.000165	-0.177368	-0.116815
O62	O	1.318138	0.351424	0.651368
C63	C	1.240062	0.283434	0.740030
H64	H	1.289231	0.185620	0.762987
H65	H	1.220656	0.335663	0.847863
H66	H	1.147169	0.274041	0.680940
H67	H	0.719437	0.407105	0.000083
O68	O	1.058789	0.642087	-0.000217
C69	C	1.133749	0.650920	-0.126372
H70	H	1.102193	0.585010	-0.214542
H71	H	1.122861	0.752033	-0.168727
H72	H	1.236806	0.622861	-0.097860
O73	O	0.800316	0.635187	-0.000117
C74	C	0.723706	0.640031	-0.126292
H75	H	0.716207	0.540286	-0.168352
H76	H	0.625662	0.685959	-0.097910
H77	H	0.767299	0.697763	-0.214639
O78	O	1.654561	0.015433	0.197747
C79	C	1.747468	-0.077350	0.146508
H80	H	1.768731	-0.151972	0.234858
H81	H	1.711700	-0.123431	0.043915
H82	H	1.837096	-0.031677	0.119316
O83	O	1.821210	-0.151360	0.348963
C84	C	1.799714	-0.275866	0.386479
H85	H	1.699152	-0.277394	0.428604
H86	H	1.813625	-0.338783	0.285657
H87	H	1.868982	-0.312098	0.475508
H88	H	1.194851	0.419699	0.000006
O89	O	1.491911	-0.056898	-0.265818
C90	C	1.493121	-0.013138	-0.411499
H91	H	1.451433	-0.083790	-0.486698
H92	H	1.434585	0.081960	-0.419579
H93	H	1.594321	-0.002199	-0.446020
H94	H	1.488273	-0.196347	-0.506463
