data_functionalizedCrystal
_audit_creation_method	'MofGen! by Chris Wilmer'
_symmetry_space_group_name_H-M	'P1'
_symmetry_Int_Tables_number	1
_symmetry_cell_setting	triclinic
loop_
_symmetry_equiv_pos_as_xyz
  x,y,z
_cell_length_a	16.109304
_cell_length_b	9.065218
_cell_length_c	7.540329
_cell_angle_alpha	89.997391
_cell_angle_beta	90.002729
_cell_angle_gamma	95.760705
loop_
_atom_site_label
_atom_site_type_symbol
_atom_site_fract_x
_atom_site_fract_y
_atom_site_fract_z
O1	O	0.121908	-1.957445	0.147561
O2	O	0.621908	-1.457445	0.647561
O3	O	0.131907	-1.527918	0.147543
O4	O	0.631907	-1.027918	0.647543
O5	O	0.005968	-1.754479	0.147553
O6	O	0.505968	-1.254479	0.647553
O7	O	0.247848	-1.730884	0.147550
O8	O	0.747848	-1.230884	0.647550
O9	O	0.005961	-1.754477	-0.147412
O10	O	0.505961	-1.254477	0.352588
O11	O	0.131900	-1.527917	-0.147422
O12	O	0.631900	-1.027917	0.352578
O13	O	0.121901	-1.957443	-0.147404
O14	O	0.621901	-1.457443	0.352596
Cu15	Cu	0.126900	-1.742680	-0.174346
Cu16	Cu	0.626900	-1.242680	0.325654
Cu17	Cu	0.126908	-1.742682	0.174485
Cu18	Cu	0.626908	-1.242682	0.674485
O19	O	0.247841	-1.730883	-0.147415
O20	O	0.747841	-1.230883	0.352585
C21	C	0.130943	-1.472954	0.000059
C22	C	0.630943	-0.972954	0.500059
C23	C	0.128069	-1.309181	0.000052
C24	C	0.628069	-0.809181	0.500052
C25	C	-0.025018	-1.753522	0.000075
C26	C	0.474982	-1.253522	0.500075
C27	C	-0.117335	-1.750654	0.000087
C28	C	0.382665	-1.250654	0.500087
C29	C	-0.329720	-1.744030	0.160865
C30	C	0.170280	-1.244030	0.660865
C31	C	-0.416461	-1.741322	0.160864
C32	C	0.083539	-1.241322	0.660864
C33	C	-0.416465	-1.741328	-0.160724
C34	C	0.083535	-1.241328	0.339276
C35	C	-0.329725	-1.744025	-0.160720
C36	C	0.170275	-1.244025	0.339280
C37	C	-0.286355	-1.745384	0.000080
C38	C	0.213645	-1.245384	0.500080
C39	C	-0.459836	-1.739978	0.000074
C40	C	0.040164	-1.239978	0.500074
C41	C	-0.553885	-1.737042	0.000071
C42	C	-0.053885	-1.237042	0.500071
C43	C	-0.192301	-1.748317	0.000084
C44	C	0.307699	-1.248317	0.500084
C45	C	0.278827	-1.731840	0.000068
C46	C	0.778827	-1.231840	0.500068
C47	C	0.371144	-1.734708	0.000068
C48	C	0.871144	-1.234708	0.500068
N49	N	0.126908	-1.742684	0.419833
N50	N	0.626908	-1.242684	0.919833
C51	C	0.122866	-1.012408	0.000073
C52	C	0.622866	-0.512408	0.500073
C53	C	0.125739	-1.176181	0.000058
C54	C	0.625739	-0.676181	0.500058
N55	N	0.126894	-1.742689	-0.419694
N56	N	0.626894	-1.242689	0.080306
H57	H	-0.294410	-1.745132	0.291799
H58	H	0.205590	-1.245132	0.791799
F59	F	-0.283570	-1.745452	-0.331859
F60	F	0.216430	-1.245452	0.168141
H61	H	-0.451764	-1.740217	0.291791
H62	H	0.048236	-1.240217	0.791791
H63	H	-0.451788	-1.740224	-0.291641
H64	H	0.048212	-1.240224	0.208359
