data_functionalizedCrystal
_audit_creation_method	'MofGen! by Chris Wilmer'
_symmetry_space_group_name_H-M	'P1'
_symmetry_Int_Tables_number	1
_symmetry_cell_setting	triclinic
loop_
_symmetry_equiv_pos_as_xyz
  x,y,z
_cell_length_a	13.897448
_cell_length_b	13.897449
_cell_length_c	11.169409
_cell_angle_alpha	89.975859
_cell_angle_beta	90.035576
_cell_angle_gamma	89.982475
loop_
_atom_site_label
_atom_site_type_symbol
_atom_site_fract_x
_atom_site_fract_y
_atom_site_fract_z
Zn1	Zn	-0.383941	-1.474715	0.678654
Zn2	Zn	0.116059	-0.974715	1.178654
Zn3	Zn	-0.545277	-1.474605	0.477959
Zn4	Zn	-0.045277	-0.974605	0.977959
Zn5	Zn	-0.383997	-1.313400	0.477973
Zn6	Zn	0.116003	-0.813400	0.977973
Zn7	Zn	-0.545195	-1.313386	0.678589
Zn8	Zn	-0.045195	-0.813386	1.178589
O9	O	-0.464602	-1.394027	0.578294
O10	O	0.035398	-0.894027	1.078294
O11	O	-0.405353	-1.609682	0.652053
O12	O	0.094647	-1.109682	1.152053
O13	O	-0.523940	-1.453181	0.310011
O14	O	-0.023940	-0.953181	0.810011
O15	O	-0.249008	-1.334851	0.504627
O16	O	0.250992	-0.834851	1.004627
O17	O	-0.523886	-1.609601	0.504603
O18	O	-0.023886	-1.109601	1.004603
O19	O	-0.248967	-1.453368	0.652066
O20	O	0.251033	-0.953368	1.152066
O21	O	-0.405448	-1.334745	0.310022
O22	O	0.094552	-0.834745	0.810022
O23	O	-0.405369	-1.178417	0.504564
O24	O	0.094631	-0.678417	1.004564
O25	O	-0.523747	-1.334826	0.846548
O26	O	-0.023747	-0.834826	1.346548
O27	O	-0.523801	-1.178406	0.651956
O28	O	-0.023801	-0.678406	1.151956
O29	O	-0.405274	-1.453354	0.846595
O30	O	0.094726	-0.953354	1.346595
O31	O	-0.680248	-1.453167	0.504541
O32	O	-0.180248	-0.953167	1.004541
O33	O	-0.680188	-1.334720	0.651942
O34	O	-0.180188	-0.834720	1.151942
C35	C	-0.715217	-1.393956	0.578259
C36	C	-0.215217	-0.893956	1.078259
C37	C	-0.822431	-1.394014	0.578285
C38	C	-0.322431	-0.894014	1.078285
C39	C	-0.464583	-1.143412	0.578255
C40	C	0.035417	-0.643412	1.078255
C41	C	-0.464598	-1.036198	0.578267
C42	C	0.035402	-0.536198	1.078267
C43	C	-1.018726	-1.394116	0.578360
C44	C	-0.518726	-0.894116	1.078360
C45	C	-0.909493	-1.394057	0.578322
C46	C	-0.409493	-0.894057	1.078322
C47	C	-0.464597	-0.839903	0.578289
C48	C	0.035403	-0.339903	1.078289
C49	C	-0.464595	-0.949136	0.578273
C50	C	0.035405	-0.449136	1.078273
C51	C	-0.213009	-1.394123	0.578355
C52	C	0.286991	-0.894123	1.078355
C53	C	-0.105796	-1.394165	0.578381
C54	C	0.394204	-0.894165	1.078381
C55	C	-0.464495	-1.394101	0.891337
C56	C	0.035505	-0.894101	1.391337
C57	C	-0.464450	-1.394132	1.024737
C58	C	0.035550	-0.894132	1.524737
C59	C	-0.464616	-0.645619	0.578322
C60	C	0.035384	-0.145619	1.078322
C61	C	-0.464606	-0.752833	0.578305
C62	C	0.035394	-0.252833	1.078305
C63	C	-0.464640	-1.394008	0.266469
C64	C	0.035360	-0.894008	0.766469
C65	C	-0.464413	-1.394164	0.133070
C66	C	0.035587	-0.894164	0.633070
