data_functionalizedCrystal
_audit_creation_method	'MofGen! by Chris Wilmer'
_symmetry_space_group_name_H-M	'P1'
_symmetry_Int_Tables_number	1
_symmetry_cell_setting	triclinic
loop_
_symmetry_equiv_pos_as_xyz
  x,y,z
_cell_length_a	17.038272
_cell_length_b	19.188930
_cell_length_c	15.500227
_cell_angle_alpha	92.813384
_cell_angle_beta	86.956295
_cell_angle_gamma	87.128169
loop_
_atom_site_label
_atom_site_type_symbol
_atom_site_fract_x
_atom_site_fract_y
_atom_site_fract_z
O1	O	1.040536	0.148564	-0.071852
O2	O	1.540536	0.648564	0.428148
O3	O	0.812914	0.146156	-0.071877
O4	O	1.312914	0.646156	0.428123
O5	O	0.933292	0.046114	-0.071847
O6	O	1.433292	0.546114	0.428153
O7	O	0.920157	0.248607	-0.071882
O8	O	1.420157	0.748607	0.428118
O9	O	0.925988	0.052159	0.072040
O10	O	1.425988	0.552159	0.572040
O11	O	0.805609	0.152202	0.072009
O12	O	1.305609	0.652202	0.572009
O13	O	1.033231	0.154610	0.072035
O14	O	1.533231	0.654610	0.572035
Cu15	Cu	0.918753	0.153958	0.085160
Cu16	Cu	1.418753	0.653958	0.585160
Cu17	Cu	0.927392	0.146808	-0.085003
Cu18	Cu	1.427392	0.646808	0.414997
O19	O	0.912852	0.254653	0.072004
O20	O	1.412852	0.754653	0.572004
C21	C	0.780140	0.146990	0.000063
C22	C	1.280140	0.646990	0.500063
C23	C	0.693368	0.140458	0.000054
C24	C	1.193368	0.640458	0.500054
C25	C	0.643067	0.200424	0.000044
C26	C	1.143067	0.700424	0.500044
C27	C	0.561535	0.194283	0.000057
C28	C	1.061535	0.694283	0.500057
C29	C	0.530306	0.128176	0.000074
C30	C	1.030306	0.628176	0.500074
C31	C	0.580613	0.068205	0.000086
C32	C	1.080613	0.568205	0.500086
C33	C	0.662143	0.074347	0.000080
C34	C	1.162143	0.574347	0.500080
C35	C	0.284614	0.106479	0.000101
C36	C	0.784614	0.606479	0.500101
C37	C	0.203078	0.100342	0.000105
C38	C	0.703078	0.600342	0.500105
C39	C	0.184005	0.226421	0.000078
C40	C	0.684005	0.726421	0.500078
C41	C	0.265538	0.232556	0.000066
C42	C	0.765538	0.732556	0.500066
C43	C	0.315838	0.172586	0.000083
C44	C	0.815838	0.672586	0.500083
C45	C	0.446967	0.121897	0.000085
C46	C	0.946967	0.621897	0.500085
C47	C	0.399174	0.178865	0.000078
C48	C	0.899174	0.678865	0.500078
C49	C	0.929214	0.023099	0.000099
C50	C	1.429214	0.523099	0.500099
C51	C	0.927937	-0.054485	0.000106
C52	C	1.427937	0.445515	0.500106
C53	C	0.998572	-0.095020	0.000118
C54	C	1.498572	0.404980	0.500118
C55	C	0.997373	-0.167919	0.000104
C56	C	1.497373	0.332081	0.500104
C57	C	0.925534	-0.200279	0.000095
C58	C	1.425534	0.299721	0.500095
C59	C	0.854890	-0.159734	0.000079
C60	C	1.354890	0.340266	0.500079
C61	C	0.856092	-0.086837	0.000084
C62	C	1.356092	0.413163	0.500084
N63	N	0.868136	-0.309638	0.049057
N64	N	1.368136	0.190362	0.549057
N65	N	0.866999	-0.378887	0.049053
N66	N	1.366999	0.121113	0.549053
C67	C	0.921909	-0.419913	0.000077
C68	C	1.421909	0.080087	0.500077
N69	N	0.978011	-0.389074	-0.048884
N70	N	1.478011	0.110926	0.451116
N71	N	0.979150	-0.319818	-0.048877
N72	N	1.479150	0.180182	0.451123
C73	C	0.924223	-0.279323	0.000089
C74	C	1.424223	0.220677	0.500089
C75	C	0.991249	-0.539494	0.000073
C76	C	1.491249	-0.039494	0.500073
C77	C	0.990047	-0.612395	0.000054
C78	C	1.490047	-0.112395	0.500054
C79	C	0.847562	-0.604208	0.000037
C80	C	1.347562	-0.104208	0.500037
C81	C	0.848767	-0.531310	0.000048
C82	C	1.348767	-0.031310	0.500048
C83	C	0.920612	-0.498957	0.000070
C84	C	1.420612	0.001043	0.500070
C85	C	1.066004	0.153776	0.000092
C86	C	1.566004	0.653776	0.500092
C87	C	1.152777	0.160308	0.000095
C88	C	1.652777	0.660308	0.500095
C89	C	0.916930	0.277667	0.000057
C90	C	1.416930	0.777667	0.500057
C91	C	0.918208	0.355250	0.000044
C92	C	1.418208	0.855250	0.500044
N93	N	0.912682	0.158986	0.204843
N94	N	1.412682	0.658986	0.704843
N95	N	0.933468	0.141775	-0.204686
N96	N	1.433468	0.641775	0.295314
C97	C	0.963709	0.116612	0.250133
C98	C	1.463709	0.616612	0.750133
C99	C	0.959125	0.120422	0.340705
C100	C	1.459125	0.620422	0.840705
C101	C	0.903518	0.166610	0.385985
C102	C	1.403518	0.666610	0.885985
C103	C	0.852486	0.208985	0.340689
C104	C	1.352486	0.708985	0.840689
C105	C	0.857067	0.205171	0.250119
C106	C	1.357067	0.705171	0.750119
C107	C	0.887017	0.180337	0.659448
C108	C	1.387017	0.680337	1.159448
C109	C	0.882442	0.184149	0.750024
C110	C	1.382442	0.684149	1.250024
C111	C	0.989080	0.095584	0.750033
C112	C	1.489080	0.595584	1.250033
C113	C	0.993659	0.091778	0.659461
C114	C	1.493659	0.591778	1.159461
C115	C	0.942624	0.134150	0.614174
C116	C	1.442624	0.634150	1.114174
C117	C	0.898833	0.170506	0.478564
C118	C	1.398833	0.670506	0.978564
C119	C	0.947306	0.130250	0.521596
C120	C	1.447306	0.630250	1.021596
H121	H	0.520582	0.243114	0.000048
H122	H	1.020582	0.743114	0.500048
H123	H	0.290958	0.286387	0.000042
H124	H	0.790958	0.786387	0.500042
H125	H	0.791248	-0.498305	0.000043
H126	H	1.291248	0.001695	0.500043
O127	O	0.676742	0.271729	0.000026
O128	O	1.176742	0.771729	0.500026
H129	H	0.741886	0.265928	0.000015
H130	H	1.241886	0.765928	0.500015
O131	O	1.023682	0.066792	0.201295
O132	O	1.523682	0.566792	0.701295
H133	H	1.058387	0.037962	0.248008
H134	H	1.558387	0.537962	0.748008
O135	O	1.066239	-0.656115	0.000063
O136	O	1.566239	-0.156115	0.500063
H137	H	1.053336	-0.712242	0.000045
H138	H	1.553336	-0.212242	0.500045
H139	H	0.845464	0.214840	0.622582
H140	H	1.345464	0.714840	1.122582
H141	H	0.421530	0.068073	0.000123
H142	H	0.921530	0.568073	0.500123
O143	O	0.792517	0.258809	0.389525
O144	O	1.292517	0.758809	0.889525
H145	H	0.732489	0.245533	0.372164
H146	H	1.232489	0.745533	0.872164
H147	H	0.424604	0.232690	0.000070
H148	H	0.924604	0.732690	0.500070
O149	O	1.076058	-0.060122	0.000134
O150	O	1.576058	0.439878	0.500134
H151	H	1.082986	-0.029558	-0.058507
H152	H	1.582986	0.470442	0.441493
H153	H	0.143042	0.275245	0.000066
H154	H	0.643042	0.775245	0.500066
O155	O	0.546931	-0.003097	0.000106
O156	O	1.046931	0.496903	0.500106
H157	H	0.564178	-0.029676	0.058762
H158	H	1.064178	0.470324	0.558762
H159	H	0.815515	0.239676	0.213246
H160	H	1.315515	0.739676	0.713246
O161	O	0.770075	-0.639098	0.000032
O162	O	1.270075	-0.139098	0.500032
H163	H	0.781104	-0.696599	0.000036
H164	H	1.281104	-0.196599	0.500036
H165	H	0.177655	0.046506	0.000118
H166	H	0.677655	0.546506	0.500118
H167	H	1.000674	0.085917	0.377579
H168	H	1.500674	0.585917	0.877579
H169	H	0.325559	0.057647	0.000115
H170	H	0.825559	0.557647	0.500115
H171	H	0.703099	0.025516	0.000087
H172	H	1.203099	0.525516	0.500087
H173	H	1.038938	0.054168	0.622596
H174	H	1.538938	0.554168	1.122596
O175	O	1.068736	-0.504594	0.000077
O176	O	1.568736	-0.004594	0.500077
H177	H	1.099697	-0.518099	0.058718
H178	H	1.599697	-0.018099	0.558718
O179	O	1.073558	-0.211652	0.000128
O180	O	1.573558	0.288348	0.500128
H181	H	1.123717	-0.176908	0.000152
H182	H	1.623717	0.323092	0.500152
O183	O	0.777404	-0.194630	0.000079
O184	O	1.277404	0.305370	0.500079
H185	H	0.788434	-0.252130	0.000089
H186	H	1.288434	0.247870	0.500089
O187	O	1.007264	0.080422	0.472755
O188	O	1.507264	0.580422	0.972755
H189	H	1.047240	0.110341	0.431470
H190	H	1.547240	0.610341	0.931470
H191	H	0.798571	-0.053833	0.000074
H192	H	1.298571	0.446167	0.500074
O193	O	1.044116	0.049877	0.798877
O194	O	1.544116	0.549877	1.298877
H195	H	1.031588	0.060282	0.869463
H196	H	1.531588	0.560282	1.369463
H197	H	0.837158	0.221763	0.786888
H198	H	1.337158	0.721763	1.286888
O199	O	0.838868	0.220332	0.527405
O200	O	1.338868	0.720332	1.027405
H201	H	0.798896	0.190410	0.568690
H202	H	1.298896	0.690410	1.068690
