data_functionalizedCrystal
_audit_creation_method	'MofGen! by Chris Wilmer'
_symmetry_space_group_name_H-M	'P1'
_symmetry_Int_Tables_number	1
_symmetry_cell_setting	triclinic
loop_
_symmetry_equiv_pos_as_xyz
  x,y,z
_cell_length_a	19.288862
_cell_length_b	15.995350
_cell_length_c	18.366186
_cell_angle_alpha	89.995992
_cell_angle_beta	90.025700
_cell_angle_gamma	96.686171
loop_
_atom_site_label
_atom_site_type_symbol
_atom_site_fract_x
_atom_site_fract_y
_atom_site_fract_z
O1	O	-0.921625	0.104442	-0.060827
O2	O	-0.719401	0.118534	-0.060766
O3	O	-0.826041	-0.010420	-0.060798
O4	O	-0.814985	0.233397	-0.060796
O5	O	-0.826023	-0.010427	0.060302
O6	O	-0.719382	0.118528	0.060333
O7	O	-0.921607	0.104436	0.060272
Zn8	Zn	-0.820492	0.111481	0.079530
Zn9	Zn	-0.820516	0.111489	-0.080024
O10	O	-0.814967	0.233390	0.060304
C11	C	-0.693514	0.118078	-0.000209
C12	C	-0.616407	0.116718	-0.000186
C13	C	-0.571907	0.192383	-0.000195
C14	C	-0.499456	0.191105	-0.000199
C15	C	-0.471509	0.114158	-0.000209
C16	C	-0.516019	0.038483	-0.000196
C17	C	-0.588468	0.039763	-0.000185
C18	C	-0.363096	0.053672	-0.042655
C19	C	-0.290648	0.052395	-0.042671
C20	C	-0.248053	0.110207	-0.000242
C21	C	-0.277913	0.169309	0.042194
C22	C	-0.350362	0.170589	0.042206
C23	C	-0.392951	0.112761	-0.000221
C24	C	-0.124993	0.184491	-0.000254
C25	C	-0.052542	0.183210	-0.000254
C26	C	-0.069106	0.030586	-0.000259
C27	C	-0.141556	0.031870	-0.000252
C28	C	-0.169495	0.108824	-0.000253
C29	C	-0.825575	-0.041616	-0.000249
C30	C	-0.824204	-0.134562	-0.000253
C31	C	-0.819283	-0.472291	-0.000249
C32	C	-0.743336	-0.424569	-0.000498
C33	C	-0.744707	-0.327884	-0.000225
C34	C	-0.821724	-0.304739	-0.000251
C35	C	-0.859174	-0.345962	0.068890
C36	C	-0.857266	-0.442591	0.068948
C37	C	-0.858855	-0.442947	-0.068765
C38	C	-0.858837	-0.346002	-0.069679
C39	C	-0.823108	-0.210047	-0.000250
C40	C	-0.817902	-0.566983	-0.000245
C41	C	0.052507	0.104895	-0.000274
C42	C	-0.024600	0.106262	-0.000263
C43	C	-0.815433	0.264587	-0.000246
C44	C	-0.816803	0.357532	-0.000248
N45	N	-0.820481	0.111475	0.188421
N46	N	-0.820532	0.111489	-0.188915
C47	C	-0.867716	0.054402	0.226507
C48	C	-0.867721	0.054398	0.302735
C49	C	-0.820496	0.111482	0.340874
C50	C	-0.773251	0.168559	0.302778
C51	C	-0.773244	0.168556	0.226552
C52	C	-0.811396	0.187773	0.461636
C53	C	-0.811408	0.187777	0.537861
C54	C	-0.820516	0.111492	0.575981
C55	C	-0.829625	0.035199	0.537867
C56	C	-0.829618	0.035196	0.461640
C57	C	-0.820499	0.111491	0.423528
C58	C	-0.867759	0.054410	0.696723
C59	C	-0.867758	0.054405	0.772952
C60	C	-0.773292	0.168574	0.772993
C61	C	-0.773290	0.168572	0.696765
C62	C	-0.820526	0.111491	0.658635
H63	H	-0.016310	0.244828	-0.000257
O64	O	-0.189556	-0.049743	-0.000245
H65	H	-0.222993	-0.052808	-0.049594
O66	O	-0.934122	-0.327531	0.072286
H67	H	-0.945501	-0.288698	0.024617
O68	O	-0.918689	-0.007184	0.655603
H69	H	-0.889435	-0.047781	0.620901
O70	O	-0.382560	0.234310	0.088003
H71	H	-0.361644	0.298779	0.070562
H72	H	-0.715268	-0.299348	-0.049788
H73	H	-0.833148	-0.317485	0.120360
O74	O	-0.825976	-0.470015	-0.138187
H75	H	-0.781058	-0.504688	-0.124628
O76	O	-0.703125	-0.448955	-0.066169
H77	H	-0.656210	-0.477305	-0.047933
O78	O	-0.409037	-0.008681	-0.088425
H79	H	-0.376103	-0.049981	-0.117944
O80	O	-0.485876	-0.044508	-0.000203
H81	H	-0.528995	-0.096910	-0.000188
H82	H	-0.266342	0.004274	-0.077228
O83	O	-0.703296	-0.450361	0.064842
H84	H	-0.700341	-0.519211	0.062907
H85	H	-0.147742	0.247152	-0.000245
O86	O	-0.918715	-0.007146	0.814037
H87	H	-0.951565	-0.046827	0.774713
O88	O	-0.918679	-0.007154	0.343825
H89	H	-0.909846	-0.072406	0.329208
O90	O	-0.722300	0.230122	0.185465
H91	H	-0.689463	0.269820	0.224788
H92	H	-0.831457	-0.318647	-0.120828
H93	H	-0.715055	-0.299910	0.049439
O94	O	-0.801563	0.270065	0.420536
H95	H	-0.754290	0.272134	0.385845
H96	H	-0.829942	-0.460791	0.120651
H97	H	-0.624700	-0.021854	-0.000178
H98	H	-0.734838	0.215049	0.804045
H99	H	-0.046352	-0.032065	-0.000312
O100	O	-0.231984	0.231666	0.087967
H101	H	-0.176590	0.220842	0.080840
H102	H	-0.913025	-0.475050	0.072067
H103	H	-0.915002	-0.330852	-0.073873
H104	H	-0.734799	0.215036	0.333834
O105	O	-0.722350	0.230139	0.655678
H106	H	-0.689516	0.269839	0.695002
H107	H	-0.914851	-0.474920	-0.069249
H108	H	-0.837041	-0.026920	0.568902
H109	H	-0.906178	0.007921	0.195464
H110	H	-0.594650	0.255045	-0.000197
H111	H	-0.837033	-0.026925	0.430611
H112	H	-0.803995	0.249899	0.568888
H113	H	-0.463218	0.252722	-0.000204
