data_functionalizedCrystal
_audit_creation_method	'MofGen! by Chris Wilmer'
_symmetry_space_group_name_H-M	'P1'
_symmetry_Int_Tables_number	1
_symmetry_cell_setting	triclinic
loop_
_symmetry_equiv_pos_as_xyz
  x,y,z
_cell_length_a	6.817900
_cell_length_b	17.982783
_cell_length_c	17.982968
_cell_angle_alpha	95.926085
_cell_angle_beta	102.451960
_cell_angle_gamma	102.448572
loop_
_atom_site_label
_atom_site_type_symbol
_atom_site_fract_x
_atom_site_fract_y
_atom_site_fract_z
V1	V	-4.009918	-0.106127	-0.237867
O2	O	-4.003034	0.004365	-0.233013
O3	O	-3.956470	-0.209725	-0.236553
O4	O	-3.956489	-0.104816	-0.341466
O5	O	-4.003015	-0.101269	-0.127374
V6	V	-4.494852	-0.092872	-0.224613
O7	O	-4.268082	-0.135201	-0.266940
O8	O	-4.686885	-0.063798	-0.195540
O9	O	-4.325093	0.010726	-0.225927
O10	O	-4.619133	-0.203364	-0.229466
O11	O	-4.619152	-0.097730	-0.335106
O12	O	-4.325074	-0.094183	-0.121014
C13	C	-3.800406	-0.234970	-0.232881
C14	C	-3.837959	-0.319665	-0.232498
C15	C	-3.819323	-0.348365	-0.162514
C16	C	-3.854628	-0.427945	-0.162156
C17	C	-3.908554	-0.478825	-0.231782
C18	C	-3.927196	-0.450120	-0.301772
C19	C	-3.891906	-0.370541	-0.302129
C20	C	-4.069522	-0.771054	-0.300333
C21	C	-4.104806	-0.850638	-0.299970
C22	C	-4.032244	-0.828458	-0.160359
C23	C	-3.996953	-0.748879	-0.160716
C24	C	-4.015609	-0.720182	-0.230705
C25	C	-3.977331	-0.633891	-0.231093
C26	C	-3.946818	-0.565113	-0.231396
C27	C	-3.800429	-0.101148	-0.366707
C28	C	-3.837995	-0.100762	-0.451402
C29	C	-4.037378	-0.104398	-0.495085
C30	C	-4.072664	-0.104036	-0.574664
C31	C	-3.908566	-0.100041	-0.610561
C32	C	-3.709166	-0.096402	-0.566872
C33	C	-3.673880	-0.096760	-0.487293
C34	C	-3.851463	-0.094959	-0.887805
C35	C	-3.886766	-0.094604	-0.967390
C36	C	-4.250247	-0.102235	-0.975176
C37	C	-4.214961	-0.102593	-0.895597
C38	C	-4.015563	-0.098949	-0.851915
C39	C	-3.977304	-0.099342	-0.765625
C40	C	-3.946825	-0.099655	-0.696849
C41	C	-4.144500	0.035967	-0.229596
C42	C	-4.086185	0.120661	-0.229985
C43	C	-4.144477	-0.097854	-0.095769
C44	C	-4.086149	-0.098236	-0.011073
H45	H	-3.907104	-0.347176	-0.359118
N46	N	-3.458831	-0.092842	-0.440178
H47	H	-3.461374	-0.093672	-0.384318
H48	H	-3.360978	-0.043641	-0.444849
N49	N	-4.163017	-0.905524	-0.375068
H50	H	-4.055690	-0.936392	-0.375443
H51	H	-4.169529	-0.875222	-0.419422
H52	H	-3.953034	-0.707455	-0.104019
N53	N	-4.012253	-0.859412	-0.084870
H54	H	-4.042839	-0.917546	-0.095205
H55	H	-4.113879	-0.843289	-0.057075
N56	N	-4.089627	-0.740107	-0.375817
H57	H	-4.129130	-0.784415	-0.419868
H58	H	-3.952968	-0.704927	-0.376411
N59	N	-3.985416	-0.504994	-0.376873
H60	H	-4.004953	-0.559763	-0.366028
H61	H	-3.871519	-0.493288	-0.404837
N62	N	-4.214375	-0.108712	-0.456372
H63	H	-4.346037	-0.110959	-0.496123
H64	H	-4.182990	-0.061555	-0.415983
H65	H	-3.839456	-0.451308	-0.105168
H66	H	-4.235015	-0.106992	-0.610227
N67	N	-4.391951	-0.106904	-0.856881
H68	H	-4.523617	-0.109150	-0.896629
H69	H	-4.360556	-0.059744	-0.816493
H70	H	-4.412608	-0.105199	-1.010752
H71	H	-3.753126	-0.091350	-0.996613
N72	N	-3.636406	-0.091043	-0.840708
H73	H	-3.638323	-0.138492	-0.815057
H74	H	-3.589094	-0.043520	-0.800019
N75	N	-3.532165	-0.092088	-0.605583
H76	H	-3.584770	-0.092415	-0.662625
H77	H	-3.471291	-0.137956	-0.597510
H78	H	-3.775397	-0.306943	-0.105815
