data_functionalizedCrystal
_audit_creation_method	'MofGen! by Chris Wilmer'
_symmetry_space_group_name_H-M	'P1'
_symmetry_Int_Tables_number	1
_symmetry_cell_setting	triclinic
loop_
_symmetry_equiv_pos_as_xyz
  x,y,z
_cell_length_a	14.971506
_cell_length_b	10.654551
_cell_length_c	14.048226
_cell_angle_alpha	89.996418
_cell_angle_beta	89.993237
_cell_angle_gamma	84.053875
loop_
_atom_site_label
_atom_site_type_symbol
_atom_site_fract_x
_atom_site_fract_y
_atom_site_fract_z
O1	O	1.187828	0.163780	-0.079161
O2	O	0.927536	0.183352	-0.079161
O3	O	1.063666	-0.009237	-0.079162
O4	O	1.051698	0.356369	-0.079161
O5	O	1.063649	-0.009248	0.079160
O6	O	0.927520	0.183340	0.079160
O7	O	1.187811	0.163768	0.079160
Zn8	Zn	1.057663	0.173553	0.104297
Zn9	Zn	1.057685	0.173568	-0.104298
O10	O	1.051681	0.356357	0.079161
C11	C	0.894199	0.182466	-0.000000
C12	C	0.794888	0.179830	-0.000000
C13	C	1.062779	-0.056031	-0.000003
C14	C	1.060149	-0.195446	-0.000009
C15	C	0.357167	0.282910	-0.000010
C16	C	0.450481	0.285378	-0.000014
C17	C	0.507085	0.172224	-0.000010
C18	C	0.470371	0.056596	-0.000012
C19	C	0.377059	0.054130	-0.000014
C20	C	0.664862	0.061744	-0.000004
C21	C	0.758180	0.064210	0.000001
C22	C	0.738284	0.292992	-0.000003
C23	C	0.644972	0.290526	-0.000006
C24	C	0.608264	0.174897	-0.000006
C25	C	1.058924	-0.260939	-0.086309
C26	C	1.056446	-0.391933	-0.086304
C27	C	1.056420	-0.391931	0.086306
C28	C	1.058893	-0.260938	0.086301
C29	C	1.060181	-0.195447	-0.172619
C30	C	1.058957	-0.260940	-0.258925
C31	C	1.056479	-0.391934	-0.258921
C32	C	1.055224	-0.457435	-0.172610
C33	C	1.221148	0.164654	-0.000003
C34	C	1.320459	0.167291	-0.000009
C35	C	1.052569	0.403151	0.000000
C36	C	1.055198	0.542567	0.000000
N37	N	1.057654	0.173542	0.246658
N38	N	1.057700	0.173569	-0.246659
C39	C	1.117952	0.088299	0.296476
C40	C	1.117958	0.088298	0.396133
C41	C	1.057670	0.173547	0.445971
C42	C	0.997366	0.258794	0.396147
C43	C	0.997356	0.258788	0.296491
C44	C	0.997392	0.258803	0.603861
C45	C	0.997402	0.258812	0.703524
C46	C	1.117993	0.088313	0.703503
C47	C	1.117984	0.088307	0.603847
C48	C	1.057681	0.173556	0.554030
H49	H	0.311086	0.375053	-0.000006
C50	C	1.055160	-0.463978	-0.353858
N51	N	1.054184	-0.518242	-0.425369
C52	C	1.062822	-0.051336	-0.172632
N53	N	1.064782	0.057214	-0.172640
C54	C	1.052497	-0.601534	-0.172611
N55	N	1.050449	-0.710068	-0.172612
H56	H	0.598887	0.382665	-0.000003
C57	C	0.336681	-0.073060	-0.000009
N58	N	0.306270	-0.168864	-0.000008
C59	C	1.184304	-0.005471	0.549028
N60	N	1.234254	-0.076110	0.507737
C61	C	1.055045	-0.463988	0.181241
N62	N	1.054013	-0.518262	0.252748
H63	H	1.059871	-0.207609	0.156573
C64	C	0.490855	0.412568	-0.000002
N65	N	0.521263	0.508374	0.000011
H66	H	0.948284	0.328218	0.563302
C67	C	1.184274	-0.005485	0.241663
N68	N	1.234227	-0.076129	0.200381
H69	H	0.768175	0.387141	-0.000003
H70	H	0.804265	-0.027929	-0.000004
C71	C	0.624486	-0.065454	-0.000002
N72	N	0.594075	-0.161258	0.000005
C73	C	1.184324	-0.005466	0.758305
N74	N	1.234284	-0.076096	0.799586
C75	C	1.060337	-0.188887	-0.353862
N76	N	1.061379	-0.134618	-0.425370
H77	H	0.948309	0.328229	0.744097
C78	C	0.931040	0.352558	0.450972
N79	N	0.881082	0.423182	0.492266
H80	H	1.167056	0.018886	0.436694
H81	H	0.948255	0.328200	0.255930
H82	H	0.516465	-0.035535	-0.000014
