data_functionalizedCrystal
_audit_creation_method	'MofGen! by Chris Wilmer'
_symmetry_space_group_name_H-M	'P1'
_symmetry_Int_Tables_number	1
_symmetry_cell_setting	triclinic
loop_
_symmetry_equiv_pos_as_xyz
  x,y,z
_cell_length_a	14.519709
_cell_length_b	10.654541
_cell_length_c	12.996460
_cell_angle_alpha	90.005903
_cell_angle_beta	90.000034
_cell_angle_gamma	95.917963
loop_
_atom_site_label
_atom_site_type_symbol
_atom_site_fract_x
_atom_site_fract_y
_atom_site_fract_z
O1	O	1.224721	-0.164626	-0.085432
O2	O	0.956345	-0.184012	-0.085464
O3	O	1.096705	0.008480	-0.085441
O4	O	1.084361	-0.357118	-0.085455
O5	O	1.096690	0.008491	0.085693
O6	O	0.956330	-0.184002	0.085670
O7	O	1.224706	-0.164615	0.085702
Cu8	Cu	1.090517	-0.174307	0.101312
Cu9	Cu	1.090534	-0.174320	-0.101074
O10	O	1.084347	-0.357107	0.085679
C11	C	0.921973	-0.183103	0.000099
C12	C	0.819578	-0.180396	0.000087
N13	N	1.090547	-0.174320	-0.243421
C14	C	1.095791	0.055275	0.000125
C15	C	1.093081	0.194692	0.000123
C16	C	0.444630	-0.170429	0.000135
C17	C	0.548952	-0.173197	0.000121
C18	C	0.632101	-0.175412	0.000110
C19	C	0.736429	-0.178181	0.000098
C20	C	1.259078	-0.165524	0.000136
C21	C	1.361474	-0.168231	0.000141
C22	C	1.085260	-0.403902	0.000110
C23	C	1.087970	-0.543319	0.000106
C24	C	1.260920	0.224277	0.000156
C25	C	1.343562	0.304566	0.000174
C26	C	1.341010	0.435559	0.000171
C27	C	1.255806	0.486265	0.000146
C28	C	1.173164	0.405976	0.000127
C29	C	1.175725	0.274981	0.000134
C30	C	1.005328	0.376392	0.000087
C31	C	1.007878	0.245398	0.000098
C32	C	0.920124	0.427098	0.000063
C33	C	0.837480	0.346809	0.000052
C34	C	0.840036	0.215808	0.000056
C35	C	0.925236	0.165109	0.000080
N36	N	1.090511	-0.174298	0.243659
C37	C	1.090533	-0.174321	0.663473
C38	C	1.090524	-0.174319	0.546668
C39	C	1.090523	-0.174310	0.453570
C40	C	1.090513	-0.174306	0.336757
H41	H	1.263006	0.117616	0.000173
O42	O	1.430141	0.522169	0.000197
H43	H	1.489817	0.464910	0.000222
H44	H	1.253736	0.592928	0.000130
H45	H	0.918052	0.533761	0.000053
O46	O	0.745590	0.401493	0.000034
H47	H	0.757699	0.506069	0.000037
H48	H	0.772738	0.150442	0.000037
H49	H	0.927325	0.058449	0.000090
H50	H	1.412933	0.263266	0.000203
