data_functionalizedCrystal
_audit_creation_method	'MofGen! by Chris Wilmer'
_symmetry_space_group_name_H-M	'P1'
_symmetry_Int_Tables_number	1
_symmetry_cell_setting	triclinic
loop_
_symmetry_equiv_pos_as_xyz
  x,y,z
_cell_length_a	16.109318
_cell_length_b	12.837942
_cell_length_c	14.586319
_cell_angle_alpha	89.996741
_cell_angle_beta	90.000075
_cell_angle_gamma	89.148752
loop_
_atom_site_label
_atom_site_type_symbol
_atom_site_fract_x
_atom_site_fract_y
_atom_site_fract_z
O1	O	1.113713	0.133327	-0.076163
O2	O	0.872969	0.149890	-0.076181
O3	O	0.988003	-0.009293	-0.076167
O4	O	0.998680	0.292509	-0.076177
O5	O	0.987994	-0.009296	0.076314
O6	O	0.872960	0.149887	0.076299
O7	O	1.113704	0.133324	0.076318
Cu8	Cu	0.993331	0.141606	0.090231
Cu9	Cu	0.993342	0.141608	-0.090095
O10	O	0.998671	0.292507	0.076303
C11	C	0.841937	0.149214	0.000057
C12	C	0.749481	0.147193	0.000050
C13	C	0.449894	0.140668	-0.083051
C14	C	0.536766	0.142560	-0.083057
C15	C	0.536774	0.142543	0.083186
C16	C	0.449904	0.140644	0.083191
C17	C	0.406466	0.139711	0.000069
C18	C	0.580208	0.143503	0.000059
C19	C	0.674398	0.145554	0.000054
C20	C	0.312270	0.137658	0.000075
C21	C	0.984392	-0.047914	0.000073
C22	C	0.973635	-0.162988	0.000070
C23	C	1.102952	-0.403980	0.000061
C24	C	1.092849	-0.512104	0.000059
C25	C	0.943326	-0.487360	0.000057
C26	C	0.953430	-0.379237	0.000059
C27	C	1.033245	-0.337551	0.000063
C28	C	1.043347	-0.229426	0.000072
C29	C	0.893826	-0.204685	0.000063
C30	C	0.883723	-0.312808	0.000061
C31	C	1.144737	0.134000	0.000078
C32	C	1.237192	0.136020	0.000079
C33	C	1.002282	0.331128	0.000062
C34	C	1.013039	0.446202	0.000058
N35	N	0.993330	0.141603	0.217063
N36	N	0.993350	0.141603	-0.216927
C37	C	1.044288	0.071140	0.452076
C38	C	1.044290	0.071138	0.548057
C39	C	0.942386	0.212069	0.548054
C40	C	0.942380	0.212065	0.452074
C41	C	0.993336	0.141602	0.404088
C42	C	0.993344	0.141603	0.596049
C43	C	0.993346	0.141601	0.700116
C44	C	0.993333	0.141603	0.300014
H45	H	0.414530	0.139907	-0.150734
H46	H	1.085778	0.013760	0.587127
H47	H	0.900901	0.269439	0.587134
O48	O	0.407585	0.139661	0.163857
C49	C	0.321597	0.137803	0.146035
H50	H	0.310578	0.104759	0.074596
H51	H	0.294803	0.220373	0.149983
C52	C	0.292281	0.109456	0.305476
C53	C	0.278748	0.068863	0.217737
H54	H	0.265848	0.066935	0.349707
H55	H	0.350213	0.110712	0.317485
H56	H	0.269953	0.178264	0.308753
H57	H	0.301085	0.000062	0.214457
H58	H	0.220819	0.067594	0.205729
O59	O	1.120859	-0.188881	0.000234
C60	C	1.131177	-0.127065	0.079193
H61	H	1.085711	-0.152631	0.134393
H62	H	1.118751	-0.041795	0.061342
C63	C	1.276493	-0.108793	0.047198
C64	C	1.220656	-0.140199	0.114998
H65	H	1.331689	-0.116889	0.069282
H66	H	1.269542	-0.150436	-0.006001
H67	H	1.266128	-0.037736	0.032328
H68	H	1.231015	-0.211257	0.129859
H69	H	1.227611	-0.098568	0.168200
O70	O	0.578821	0.143536	-0.163882
C71	C	0.521851	0.142278	-0.237241
H72	H	0.459087	0.173722	-0.212866
H73	H	0.514745	0.058967	-0.262802
C74	C	0.631093	0.172346	-0.345707
C75	C	0.554006	0.210974	-0.315772
H76	H	0.650928	0.214717	-0.394151
H77	H	0.669475	0.173190	-0.296285
H78	H	0.625161	0.102921	-0.367002
H79	H	0.559941	0.280392	-0.294467
H80	H	0.515624	0.210144	-0.365192
O81	O	0.579098	0.143507	0.163844
C82	C	0.665085	0.145367	0.146018
H83	H	0.676102	0.178428	0.074583
H84	H	0.691877	0.062794	0.149957
C85	C	0.694407	0.173671	0.305461
C86	C	0.707939	0.214286	0.217726
H87	H	0.720843	0.216179	0.349696
H88	H	0.636476	0.172414	0.317472
H89	H	0.716734	0.104861	0.308731
H90	H	0.685603	0.283089	0.214454
H91	H	0.765867	0.215556	0.205716
O92	O	1.180538	-0.363652	0.000025
C93	C	1.239899	-0.445472	0.000051
H94	H	1.210783	-0.518919	-0.028817
H95	H	1.261810	-0.460777	0.073205
C96	C	1.350235	-0.324747	-0.024288
C97	C	1.314477	-0.414954	-0.059751
H98	H	1.396240	-0.305922	-0.061173
H99	H	1.310243	-0.269623	-0.024302
H100	H	1.368487	-0.337514	0.036673
H101	H	1.296216	-0.402183	-0.120706
H102	H	1.354467	-0.470076	-0.059749
O103	O	1.160536	-0.576676	-0.000103
C104	C	1.159156	-0.639970	-0.079063
H105	H	1.119776	-0.600362	-0.134259
H106	H	1.131415	-0.718593	-0.061211
C107	C	1.296685	-0.705054	-0.047079
C108	C	1.248324	-0.656402	-0.114875
H109	H	1.351688	-0.715195	-0.069168
H110	H	1.297615	-0.662415	0.006120
H111	H	1.273558	-0.770568	-0.032208
H112	H	1.271445	-0.590884	-0.129736
H113	H	1.247400	-0.699031	-0.168078
O114	O	0.826195	-0.140006	0.000021
C115	C	0.852224	-0.035633	0.000050
H116	H	0.917854	-0.031493	-0.028816
H117	H	0.851545	-0.004373	0.073204
C118	C	0.712308	0.025474	-0.024293
C119	C	0.792914	0.030559	-0.059754
H120	H	0.675722	0.066306	-0.061179
H121	H	0.694771	-0.044844	-0.024310
H122	H	0.711755	0.051522	0.036668
H123	H	0.793469	0.004499	-0.120709
H124	H	0.810450	0.100874	-0.059749
O125	O	0.865859	-0.528036	0.000092
C126	C	0.871895	-0.637713	0.000060
H127	H	0.934766	-0.663111	0.028928
H128	H	0.865488	-0.667798	-0.073095
C129	C	0.724996	-0.651376	0.024397
C130	C	0.802213	-0.682570	0.059860
H131	H	0.682011	-0.679047	0.061280
H132	H	0.720928	-0.577484	0.024415
H133	H	0.719668	-0.676449	-0.036565
H134	H	0.807543	-0.657485	0.120816
H135	H	0.806280	-0.756458	0.059854
O136	O	0.806237	-0.353430	-0.000063
C137	C	0.795909	-0.415202	-0.079048
H138	H	0.859304	-0.442137	-0.105380
H139	H	0.762907	-0.367421	-0.134342
C140	C	0.665711	-0.477759	-0.022718
C141	C	0.743573	-0.510847	-0.055056
H142	H	0.633424	-0.536755	-0.007921
H143	H	0.672666	-0.436139	0.030494
H144	H	0.638219	-0.437941	-0.068802
H145	H	0.771067	-0.550653	-0.008968
H146	H	0.736621	-0.552476	-0.108260
O147	O	1.093801	0.002589	0.405603
C148	C	1.138786	-0.059586	0.468546
H149	H	1.104611	-0.060766	0.536965
H150	H	1.203215	-0.025903	0.478747
C151	C	1.189035	-0.169959	0.347063
C152	C	1.147056	-0.171415	0.431095
H153	H	1.194140	-0.238939	0.323961
H154	H	1.158730	-0.128068	0.304656
H155	H	1.242721	-0.141885	0.355575
H156	H	1.093368	-0.199476	0.422579
H157	H	1.177352	-0.213313	0.473499
O158	O	0.892860	0.280618	0.405595
C159	C	0.847877	0.342799	0.468528
H160	H	0.882058	0.343993	0.536944
H161	H	0.783451	0.309113	0.478743
C162	C	0.797613	0.453149	0.347025
C163	C	0.839599	0.454622	0.431052
H164	H	0.792503	0.522126	0.323908
H165	H	0.827916	0.411254	0.304625
H166	H	0.743929	0.425072	0.355549
H167	H	0.893285	0.482686	0.422525
H168	H	0.809304	0.496525	0.473450
