data_functionalizedCrystal
_audit_creation_method	'MofGen! by Chris Wilmer'
_symmetry_space_group_name_H-M	'P1'
_symmetry_Int_Tables_number	1
_symmetry_cell_setting	triclinic
loop_
_symmetry_equiv_pos_as_xyz
  x,y,z
_cell_length_a	19.288864
_cell_length_b	9.198806
_cell_length_c	19.288865
_cell_angle_alpha	89.991591
_cell_angle_beta	96.863755
_cell_angle_gamma	90.017783
loop_
_atom_site_label
_atom_site_type_symbol
_atom_site_fract_x
_atom_site_fract_y
_atom_site_fract_z
O1	O	0.921348	0.121375	-0.086646
O2	O	1.254681	0.454709	0.246687
O3	O	1.588015	0.788042	0.580021
O4	O	0.719087	0.121278	-0.098335
O5	O	1.052421	0.454611	0.234998
O6	O	1.385754	0.787945	0.568332
O7	O	0.826062	0.121301	0.008640
O8	O	1.159395	0.454634	0.341973
O9	O	1.492729	0.787967	0.675306
O10	O	0.814373	0.121353	-0.193621
O11	O	1.147707	0.454686	0.139713
O12	O	1.481040	0.788019	0.473046
O13	O	0.826054	-0.120484	0.008640
O14	O	1.159387	0.212849	0.341973
O15	O	1.492720	0.546182	0.675307
O16	O	0.719079	-0.120507	-0.098335
O17	O	1.052412	0.212826	0.234999
O18	O	1.385745	0.546160	0.568332
O19	O	0.921339	-0.120410	-0.086646
O20	O	1.254673	0.212923	0.246687
O21	O	1.588006	0.546257	0.580021
Cu22	Cu	0.820208	-0.142535	-0.092490
Cu23	Cu	1.153542	0.190798	0.240843
Cu24	Cu	1.486875	0.524131	0.574176
Cu25	Cu	0.820218	0.143403	-0.092491
Cu26	Cu	1.153552	0.476737	0.240843
Cu27	Cu	1.486885	0.810070	0.574176
O28	O	0.814365	-0.120432	-0.193621
O29	O	1.147698	0.212901	0.139713
O30	O	1.481031	0.546234	0.473046
C31	C	0.693207	0.000373	-0.097959
C32	C	1.026540	0.333706	0.235375
C33	C	1.359873	0.667039	0.568708
C34	C	0.616103	0.000334	-0.096830
C35	C	0.949436	0.333668	0.236504
C36	C	1.282770	0.667001	0.569837
N37	N	0.820206	-0.343649	-0.092490
N38	N	1.153540	-0.010316	0.240844
N39	N	1.486873	0.323017	0.574177
C40	C	0.571407	0.000373	-0.159598
C41	C	0.904740	0.333707	0.173736
C42	C	1.238073	0.667040	0.507069
C43	C	0.498960	0.000389	-0.158537
C44	C	0.832293	0.333722	0.174796
C45	C	1.165626	0.667056	0.508130
C46	C	0.471212	0.000395	-0.094705
C47	C	0.804545	0.333728	0.238629
C48	C	1.137879	0.667062	0.571962
C49	C	0.515918	0.000348	-0.031929
C50	C	0.849252	0.333681	0.301405
C51	C	1.182585	0.667015	0.634738
C52	C	0.588364	0.000317	-0.032991
C53	C	0.921697	0.333651	0.300342
C54	C	1.255030	0.666984	0.633676
C55	C	0.362953	0.085139	-0.044526
C56	C	0.696286	0.418472	0.288808
C57	C	1.029620	0.751806	0.622141
C58	C	0.290509	0.085178	-0.043466
C59	C	0.623842	0.418512	0.289868
C60	C	0.957175	0.751845	0.623201
C61	C	0.247767	0.000482	-0.091425
C62	C	0.581100	0.333816	0.241908
C63	C	0.914433	0.667149	0.575242
C64	C	0.277476	-0.084235	-0.140456
C65	C	0.610810	0.249099	0.192877
C66	C	0.944143	0.582432	0.526211
C67	C	0.349922	-0.084265	-0.141519
C68	C	0.683255	0.249068	0.191815
C69	C	1.016588	0.582402	0.525148
C70	C	0.392658	0.000427	-0.093546
C71	C	0.725991	0.333760	0.239788
C72	C	1.059325	0.667094	0.573121
C73	C	0.124514	0.000536	-0.153047
C74	C	0.457848	0.333870	0.180286
C75	C	0.791181	0.667203	0.513619
C76	C	0.052066	0.000543	-0.151984
C77	C	0.385400	0.333876	0.181349
C78	C	0.718733	0.667210	0.514683
C79	C	0.069026	0.000516	-0.025374
C80	C	0.402360	0.333850	0.307960
C81	C	0.735693	0.667183	0.641293
C82	C	0.141473	0.000495	-0.026439
C83	C	0.474806	0.333828	0.306894
C84	C	0.808140	0.667162	0.640228
C85	C	0.169212	0.000512	-0.090278
C86	C	0.502546	0.333845	0.243056
C87	C	0.835879	0.667178	0.576389
C88	C	0.865124	-0.415837	-0.047378
C89	C	1.198458	-0.082504	0.285955
C90	C	1.531791	0.250830	0.619288
C91	C	0.865135	-0.583249	-0.047376
C92	C	1.198468	-0.249916	0.285958
C93	C	1.531802	0.083418	0.619291
C94	C	0.947220	0.000499	-0.087022
C95	C	1.280553	0.333832	0.246311
C96	C	1.613887	0.667165	0.579645
C97	C	1.024324	0.000547	-0.088151
C98	C	1.357657	0.333880	0.245182
C99	C	1.690990	0.667213	0.578516
C100	C	0.825682	0.000404	0.034516
C101	C	1.159015	0.333737	0.367850
C102	C	1.492348	0.667070	0.701183
C103	C	0.824553	0.000390	0.111620
C104	C	1.157886	0.333724	0.444953
C105	C	1.491219	0.667057	0.778287
N106	N	0.820226	0.344517	-0.092486
N107	N	1.153559	0.677851	0.240848
N108	N	1.486892	1.011184	0.574181
C109	C	0.814745	0.000468	-0.219497
C110	C	1.148078	0.333801	0.113836
C111	C	1.481412	0.667134	0.447169
C112	C	0.815874	0.000491	-0.296601
C113	C	1.149207	0.333824	0.036733
C114	C	1.482541	0.667157	0.370066
C115	C	0.887321	0.000413	0.156316
C116	C	1.220654	0.333747	0.489650
C117	C	1.553987	0.667080	0.822983
C118	C	0.886260	0.000436	0.228763
C119	C	1.219593	0.333769	0.562097
C120	C	1.552927	0.667102	0.895430
C121	C	0.822428	0.000406	0.256511
C122	C	1.155761	0.333739	0.589844
C123	C	1.489094	0.667073	0.923178
C124	C	0.759652	0.000391	0.211805
C125	C	1.092985	0.333724	0.545138
C126	C	1.426318	0.667058	0.878471
C127	C	0.760714	0.000383	0.139359
C128	C	1.094047	0.333717	0.472693
C129	C	1.427381	0.667050	0.806026
C130	C	0.772245	-0.084310	0.364798
C131	C	1.105579	0.249023	0.698132
C132	C	1.438912	0.582356	1.031465
C133	C	0.771185	-0.084311	0.437243
C134	C	1.104519	0.249022	0.770576
C135	C	1.437852	0.582355	1.103909
C136	C	0.819148	0.000437	0.479956
C137	C	1.152481	0.333770	0.813290
C138	C	1.485815	0.667104	1.146623
C139	C	0.868182	0.085167	0.450218
C140	C	1.201516	0.418501	0.783552
C141	C	1.534849	0.751834	1.116885
C142	C	0.869245	0.085160	0.377773
C143	C	1.202578	0.418493	0.711106
C144	C	1.535912	0.751826	1.044439
C145	C	0.821269	0.000416	0.335065
C146	C	1.154602	0.333749	0.668398
C147	C	1.487935	0.667082	1.001732
C148	C	0.880770	0.000486	0.603209
C149	C	1.214104	0.333820	0.936542
C150	C	1.547437	0.667153	1.269875
C151	C	0.879707	0.000518	0.675657
C152	C	1.213040	0.333851	1.008990
C153	C	1.546374	0.667185	1.342323
C154	C	0.753097	0.000459	0.658697
C155	C	1.086430	0.333792	0.992030
C156	C	1.419763	0.667125	1.325363
C157	C	0.754162	0.000442	0.586250
C158	C	1.087495	0.333775	0.919583
C159	C	1.420829	0.667109	1.252917
C160	C	0.818000	0.000449	0.558511
C161	C	1.151334	0.333782	0.891844
C162	C	1.484667	0.667115	1.225177
H163	H	0.593987	0.000390	-0.211580
H164	H	0.927320	0.333723	0.121753
H165	H	1.260654	0.667056	0.455087
H166	H	0.903570	-0.353703	-0.008756
H167	H	1.236904	-0.020369	0.324578
H168	H	1.570237	0.312964	0.657911
H169	H	0.703049	0.000415	0.549857
H170	H	1.036383	0.333748	0.883190
H171	H	1.369716	0.667082	1.216524
H172	H	0.462561	0.000417	-0.209652
H173	H	0.795894	0.333750	0.123682
H174	H	1.129228	0.667083	0.457015
F175	F	0.769947	-0.424860	-0.142967
F176	F	1.103280	-0.091527	0.190366
F177	F	1.436614	0.241807	0.523700
F178	F	0.915405	-0.664386	0.003104
F179	F	1.248738	-0.331053	0.336437
F180	F	1.582072	0.002280	0.669771
H181	H	0.046435	0.000611	0.026600
H182	H	0.379769	0.333945	0.359933
H183	H	0.713102	0.667278	0.693266
F184	F	0.189044	0.000461	0.040368
F185	F	0.522377	0.333794	0.373702
F186	F	0.855711	0.667128	0.707035
H187	H	0.266324	0.154166	-0.003545
H188	H	0.599658	0.487499	0.329789
H189	H	0.932991	0.820832	0.663122
F190	F	0.769961	-0.574355	-0.142974
F191	F	1.103294	-0.241021	0.190359
F192	F	1.436627	0.092312	0.523693
F193	F	0.955264	0.000452	0.126798
F194	F	1.288597	0.333785	0.460132
F195	F	1.621930	0.667119	0.793465
H196	H	0.731256	-0.153295	0.461449
H197	H	1.064589	0.180038	0.794783
H198	H	1.397922	0.513371	1.128116
F199	F	0.635935	0.000276	0.033818
F200	F	0.969268	0.333609	0.367152
F201	F	1.302602	0.666942	0.700485
H202	H	0.493322	0.000373	0.020044
H203	H	0.826655	0.333706	0.353377
H204	H	1.159988	0.667039	0.686711
F205	F	0.953069	0.000463	0.276341
F206	F	1.286402	0.333796	0.609675
F207	F	1.619735	0.667129	0.943008
H208	H	0.397749	0.154118	-0.005470
H209	H	0.731082	0.487451	0.327863
H210	H	1.064415	0.820784	0.661197
F211	F	0.381539	-0.174428	-0.193697
F212	F	0.714872	0.158905	0.139636
F213	F	1.048206	0.492238	0.472970
F214	F	0.685161	0.000434	0.688223
F215	F	1.018495	0.333768	1.021556
F216	F	1.351828	0.667101	1.354889
F217	F	0.921426	0.175340	0.346125
F218	F	1.254760	0.508673	0.679459
F219	F	1.588093	0.842006	1.012792
F220	F	0.919232	0.175372	0.495672
F221	F	1.252565	0.508705	0.829005
F222	F	1.585898	0.842038	1.162338
H223	H	0.733186	-0.153330	0.330026
H224	H	1.066520	0.180003	0.663359
H225	H	1.399853	0.513336	0.996693
F226	F	0.948712	0.000487	0.573684
F227	F	1.282045	0.333820	0.907017
F228	F	1.615378	0.667154	1.240351
F229	F	0.946517	0.000552	0.723227
F230	F	1.279850	0.333885	1.056560
F231	F	1.613184	0.667219	1.389893
H232	H	0.707679	0.000370	0.234401
H233	H	1.041012	0.333703	0.567735
H234	H	1.374346	0.667037	0.901068
H235	H	0.709599	0.000364	0.102967
H236	H	1.042932	0.333697	0.436300
H237	H	1.376266	0.667031	0.769633
H238	H	0.147101	0.000529	-0.205028
H239	H	0.480434	0.333862	0.128305
H240	H	0.813767	0.667195	0.461638
F241	F	0.004496	0.000577	-0.218794
F242	F	0.337830	0.333910	0.114539
F243	F	0.671163	0.667244	0.447873
F244	F	0.231993	-0.174381	-0.191503
F245	F	0.565326	0.158952	0.141831
F246	F	0.898659	0.492286	0.475164
