data_functionalizedCrystal
_audit_creation_method	'MofGen! by Chris Wilmer'
_symmetry_space_group_name_H-M	'P1'
_symmetry_Int_Tables_number	1
_symmetry_cell_setting	triclinic
loop_
_symmetry_equiv_pos_as_xyz
  x,y,z
_cell_length_a	17.000383
_cell_length_b	17.019448
_cell_length_c	13.930277
_cell_angle_alpha	93.870284
_cell_angle_beta	89.989610
_cell_angle_gamma	79.510910
loop_
_atom_site_label
_atom_site_type_symbol
_atom_site_fract_x
_atom_site_fract_y
_atom_site_fract_z
O1	O	1.056073	0.028435	-0.077549
O2	O	1.389406	0.361768	0.255784
O3	O	1.722740	0.695102	0.589118
O4	O	0.824310	0.057064	-0.075173
O5	O	1.157643	0.390397	0.258161
O6	O	1.490977	0.723731	0.591494
O7	O	0.946649	-0.072527	-0.085873
O8	O	1.279983	0.260806	0.247461
O9	O	1.613316	0.594139	0.580794
O10	O	0.933733	0.158027	-0.066849
O11	O	1.267067	0.491360	0.266484
O12	O	1.600400	0.824693	0.599817
O13	O	0.946632	-0.072529	0.073789
O14	O	1.279966	0.260805	0.407123
O15	O	1.613299	0.594138	0.740456
O16	O	0.824293	0.057063	0.084489
O17	O	1.157626	0.390396	0.417822
O18	O	1.490960	0.723729	0.751156
O19	O	1.056056	0.028434	0.082113
O20	O	1.389389	0.361767	0.415446
O21	O	1.722723	0.695100	0.748779
Zn22	Zn	0.940172	0.042748	0.108651
Zn23	Zn	1.273505	0.376081	0.441984
Zn24	Zn	1.606838	0.709415	0.775317
Zn25	Zn	0.940194	0.042750	-0.101711
Zn26	Zn	1.273527	0.376083	0.231623
Zn27	Zn	1.606861	0.709416	0.564956
O28	O	0.933717	0.158025	0.092813
O29	O	1.267050	0.491358	0.426146
O30	O	1.600383	0.824692	0.759479
C31	C	0.794646	0.058601	0.004787
C32	C	1.127980	0.391934	0.338120
C33	C	1.461313	0.725268	0.671453
C34	C	0.706283	0.063173	0.005169
C35	C	1.039616	0.396506	0.338502
C36	C	1.372950	0.729840	0.671836
C37	C	0.946149	-0.101882	-0.008466
C38	C	1.279482	0.231451	0.324868
C39	C	1.612815	0.564784	0.658201
C40	C	0.944672	-0.189347	-0.015688
C41	C	1.278005	0.143986	0.317645
C42	C	1.611339	0.477319	0.650978
C43	C	0.206034	0.092695	0.007569
C44	C	0.539368	0.426029	0.340903
C45	C	0.872701	0.759362	0.674236
C46	C	0.289062	0.088393	0.007215
C47	C	0.622395	0.421727	0.340548
C48	C	0.955729	0.755060	0.673882
C49	C	0.340137	0.013720	0.001061
C50	C	0.673470	0.347053	0.334394
C51	C	1.006803	0.680387	0.667728
C52	C	0.308180	-0.056656	-0.004749
C53	C	0.641513	0.276677	0.328584
C54	C	0.974847	0.610011	0.661917
C55	C	0.225154	-0.052353	-0.004402
C56	C	0.558487	0.280980	0.328932
C57	C	0.891821	0.614313	0.662265
C58	C	0.591300	-0.002900	-0.000294
C59	C	0.924634	0.330433	0.333040
C60	C	1.257967	0.663767	0.666373
C61	C	0.674332	-0.007198	-0.000638
C62	C	1.007665	0.326136	0.332696
C63	C	1.340998	0.659469	0.666029
C64	C	0.655208	0.137852	0.011325
C65	C	0.988541	0.471186	0.344658
C66	C	1.321874	0.804519	0.677991
C67	C	0.572181	0.142149	0.011677
C68	C	0.905514	0.475482	0.345011
C69	C	1.238847	0.808815	0.678344
C70	C	0.540231	0.071773	0.005862
C71	C	0.873565	0.405106	0.339196
C72	C	1.206898	0.738439	0.672529
C73	C	0.425004	0.009321	0.000702
C74	C	0.758338	0.342654	0.334035
C75	C	1.091671	0.675987	0.667368
C76	C	0.455365	0.076173	0.006215
C77	C	0.788698	0.409506	0.339548
C78	C	1.122032	0.742839	0.672881
C79	C	0.936394	-0.684047	-0.061008
C80	C	1.269727	-0.350714	0.272325
C81	C	1.603060	-0.017380	0.605659
C82	C	0.937773	-0.601863	-0.054202
C83	C	1.271107	-0.268529	0.279131
C84	C	1.604440	0.064804	0.612464
C85	C	0.938448	-0.560786	0.036233
C86	C	1.271781	-0.227453	0.369566
C87	C	1.605114	0.105880	0.702899
C88	C	0.937750	-0.601900	0.119867
C89	C	1.271084	-0.268567	0.453200
C90	C	1.604417	0.064766	0.786533
C91	C	0.936376	-0.684085	0.113060
C92	C	1.269710	-0.350751	0.446393
C93	C	1.603043	-0.017418	0.779727
C94	C	0.942601	-0.312646	0.061139
C95	C	1.275934	0.020688	0.394472
C96	C	1.609267	0.354021	0.727806
C97	C	0.943972	-0.230455	0.067940
C98	C	1.277306	0.102878	0.401273
C99	C	1.610639	0.436211	0.734606
C100	C	0.943997	-0.230423	-0.106130
C101	C	1.277330	0.102910	0.227203
C102	C	1.610663	0.436243	0.560537
C103	C	0.942618	-0.312608	-0.112929
C104	C	1.275951	0.020725	0.220404
C105	C	1.609285	0.354059	0.553738
C106	C	0.941925	-0.353716	-0.029295
C107	C	1.275258	-0.020382	0.304038
C108	C	1.608592	0.312951	0.637372
C109	C	0.939855	-0.476780	0.043192
C110	C	1.273189	-0.143447	0.376525
C111	C	1.606522	0.189886	0.709858
C112	C	0.940523	-0.437722	-0.036255
C113	C	1.273856	-0.104388	0.297078
C114	C	1.607190	0.228945	0.630412
C115	C	1.085720	0.026897	0.002151
C116	C	1.419053	0.360230	0.335485
C117	C	1.752386	0.693563	0.668818
C118	C	1.174083	0.022325	0.001762
C119	C	1.507416	0.355658	0.335096
C120	C	1.840750	0.688991	0.668429
C121	C	0.934217	0.187380	0.015404
C122	C	1.267551	0.520713	0.348737
C123	C	1.600884	0.854047	0.682070
C124	C	0.935694	0.274845	0.022620
C125	C	1.269027	0.608179	0.355953
C126	C	1.602361	0.941512	0.689286
N127	N	0.940162	0.042746	0.252216
N128	N	1.273496	0.376079	0.585550
N129	N	1.606829	0.709412	0.918883
N130	N	0.940210	0.042745	-0.245277
N131	N	1.273543	0.376079	0.088056
N132	N	1.606877	0.709412	0.421390
C133	C	0.886020	0.100112	0.709222
C134	C	1.219354	0.433445	1.042556
C135	C	1.552687	0.766779	1.375889
C136	C	0.994390	-0.014620	0.699719
C137	C	1.327723	0.318713	1.033052
C138	C	1.661057	0.652047	1.366385
C139	C	0.994381	-0.014622	0.599223
C140	C	1.327714	0.318711	0.932556
C141	C	1.661047	0.652045	1.265890
C142	C	0.940191	0.042745	0.553722
C143	C	1.273524	0.376078	0.887056
C144	C	1.606858	0.709411	1.220389
C145	C	0.886011	0.100113	0.608717
C146	C	1.219344	0.433447	0.942051
C147	C	1.552677	0.766780	1.275384
C148	C	1.048565	-0.071984	0.544221
C149	C	1.381899	0.261349	0.877554
C150	C	1.715232	0.594682	1.210887
C151	C	1.048558	-0.071988	0.443718
C152	C	1.381892	0.261345	0.777052
C153	C	1.715225	0.594679	1.110385
C154	C	0.994364	-0.014624	0.398216
C155	C	1.327698	0.318709	0.731549
C156	C	1.661031	0.652043	1.064882
C157	C	0.940181	0.042746	0.453217
C158	C	1.273515	0.376080	0.786551
C159	C	1.606848	0.709413	1.119884
C160	C	0.885992	0.100113	0.407717
C161	C	1.219325	0.433446	0.741050
C162	C	1.552658	0.766780	1.074383
C163	C	0.831804	0.157480	0.462716
C164	C	1.165138	0.490814	0.796049
C165	C	1.498471	0.824147	1.129383
C166	C	0.831817	0.157477	0.563215
C167	C	1.165150	0.490811	0.896548
C168	C	1.498483	0.824144	1.229881
C169	C	0.994352	-0.014621	0.297717
C170	C	1.327685	0.318712	0.631051
C171	C	1.661019	0.652046	0.964384
C172	C	0.885982	0.100114	0.307212
C173	C	1.219315	0.433448	0.640545
C174	C	1.552649	0.766781	0.973878
H175	H	0.164454	0.153503	0.012588
H176	H	0.497788	0.486836	0.345921
H177	H	0.831121	0.820170	0.679255
H178	H	1.038474	-0.061325	0.252942
H179	H	1.371807	0.272008	0.586275
H180	H	1.705141	0.605341	0.919608
H181	H	0.787700	0.204185	0.608001
H182	H	1.121033	0.537518	0.941335
H183	H	1.454366	0.870851	1.274668
F184	F	0.557308	-0.077801	-0.006501
F185	F	0.890641	0.255532	0.326833
F186	F	1.223975	0.588866	0.660166
H187	H	1.092689	-0.118687	0.581271
H188	H	1.426022	0.214646	0.914604
H189	H	1.759355	0.547979	1.247938
H190	H	0.349772	-0.117457	-0.009766
H191	H	0.683105	0.215876	0.323568
H192	H	1.016439	0.549210	0.656901
H193	H	0.935806	-0.717553	0.181159
H194	H	1.269139	-0.384220	0.514492
H195	H	1.602473	-0.050887	0.847825
H196	H	0.942037	-0.346106	0.129240
H197	H	1.275371	-0.012772	0.462573
H198	H	1.608704	0.320561	0.795907
F199	F	0.938473	-0.558183	0.216115
F200	F	1.271806	-0.224850	0.549448
F201	F	1.605140	0.108484	0.882781
H202	H	0.315072	0.145697	0.011935
H203	H	0.648406	0.479030	0.345268
H204	H	0.981739	0.812363	0.678601
F205	F	0.828350	0.161162	0.767754
F206	F	1.161683	0.494495	1.101087
F207	F	1.495016	0.827828	1.434420
F208	F	0.517829	0.221626	0.018222
F209	F	0.851162	0.554960	0.351555
F210	F	1.184495	0.888293	0.684888
H211	H	0.944562	-0.196945	-0.174220
H212	H	1.277895	0.136389	0.159113
H213	H	1.611228	0.469722	0.492447
F214	F	0.939811	-0.481440	-0.132499
F215	F	1.273144	-0.148107	0.200834
F216	F	1.606478	0.185226	0.534167
F217	F	0.479369	-0.070150	-0.005840
F218	F	0.812702	0.263183	0.327494
F219	F	1.146035	0.596516	0.660827
H220	H	1.038514	-0.061323	0.736769
H221	H	1.371847	0.272010	1.070102
H222	H	1.705180	0.605344	1.403436
H223	H	0.940403	-0.443326	0.116824
H224	H	1.273736	-0.109993	0.450157
H225	H	1.607069	0.223340	0.783491
H226	H	0.944498	-0.197009	0.141587
H227	H	1.277831	0.136325	0.474920
H228	H	1.611164	0.469658	0.808253
H229	H	1.092680	-0.118700	0.398944
H230	H	1.426013	0.214633	0.732277
H231	H	1.759346	0.547967	1.065611
F232	F	0.728688	-0.086679	-0.007189
F233	F	1.062022	0.246654	0.326144
F234	F	1.395355	0.579987	0.659478
H235	H	0.199141	-0.109657	-0.009132
H236	H	0.532474	0.223677	0.324201
H237	H	0.865808	0.557010	0.657535
H238	H	0.681230	0.195148	0.016058
H239	H	1.014563	0.528482	0.349391
H240	H	1.347897	0.861815	0.682724
F241	F	0.828301	0.161170	0.258794
F242	F	1.161634	0.494503	0.592128
F243	F	1.494968	0.827837	0.925461
H244	H	0.787686	0.204192	0.425658
H245	H	1.121019	0.537525	0.758991
H246	H	1.454353	0.870859	1.092325
H247	H	0.935837	-0.717484	-0.134650
H248	H	1.269170	-0.384151	0.198683
H249	H	1.602504	-0.050817	0.532017
F250	F	0.938520	-0.558117	-0.143211
F251	F	1.271853	-0.224783	0.190122
F252	F	1.605186	0.108550	0.523455
F253	F	0.401007	0.155643	0.012758
F254	F	0.734340	0.488976	0.346091
F255	F	1.067673	0.822310	0.679425
H256	H	0.942075	-0.346048	-0.186571
H257	H	1.275408	-0.012714	0.146763
H258	H	1.608741	0.320619	0.480096
