data_functionalizedCrystal
_audit_creation_method	'MofGen! by Chris Wilmer'
_symmetry_space_group_name_H-M	'P1'
_symmetry_Int_Tables_number	1
_symmetry_cell_setting	triclinic
loop_
_symmetry_equiv_pos_as_xyz
  x,y,z
_cell_length_a	14.519731
_cell_length_b	14.519709
_cell_length_c	13.596369
_cell_angle_alpha	89.994194
_cell_angle_beta	90.006024
_cell_angle_gamma	83.684499
loop_
_atom_site_label
_atom_site_type_symbol
_atom_site_fract_x
_atom_site_fract_y
_atom_site_fract_z
O1	O	1.223858	0.120979	0.081780
O2	O	1.723858	0.620979	0.581780
O3	O	0.955384	0.135195	0.081779
O4	O	1.455384	0.635195	0.581779
O5	O	1.096739	-0.006151	0.081788
O6	O	1.596739	0.493849	0.581788
O7	O	1.082503	0.262325	0.081771
O8	O	1.582503	0.762325	0.581771
O9	O	1.096722	-0.006143	-0.081794
O10	O	1.596722	0.493857	0.418206
O11	O	0.955366	0.135203	-0.081803
O12	O	1.455366	0.635203	0.418197
O13	O	1.223841	0.120986	-0.081803
O14	O	1.723841	0.620986	0.418197
Zn15	Zn	1.089601	0.128096	-0.107776
Zn16	Zn	1.589601	0.628096	0.392224
Zn17	Zn	1.089624	0.128085	0.107752
Zn18	Zn	1.589624	0.628085	0.607752
O19	O	1.082485	0.262332	-0.081812
O20	O	1.582485	0.762332	0.418188
C21	C	0.921016	0.134532	-0.000012
C22	C	1.421016	0.634532	0.499988
C23	C	0.818635	0.132536	-0.000011
C24	C	1.318635	0.632536	0.499989
C25	C	1.096067	-0.040507	0.000001
C26	C	1.596067	0.459493	0.500001
C27	C	1.094079	-0.142889	0.000015
C28	C	1.594079	0.357111	0.500015
C29	C	0.735491	0.130915	-0.000007
C30	C	1.235491	0.630915	0.499993
C31	C	0.631182	0.128888	-0.000007
C32	C	1.131182	0.628888	0.499993
C33	C	0.548043	0.127280	-0.000007
C34	C	1.048043	0.627280	0.499993
C35	C	0.443728	0.125253	-0.000004
C36	C	0.943728	0.625253	0.499996
C37	C	1.258209	0.121649	-0.000010
C38	C	1.758209	0.621649	0.499990
C39	C	1.360589	0.123645	-0.000004
C40	C	1.860589	0.623645	0.499996
N41	N	1.089592	0.128102	-0.254868
N42	N	1.589592	0.628102	0.245132
C43	C	1.083157	0.296688	-0.000023
C44	C	1.583157	0.796688	0.499977
C45	C	1.085146	0.399070	-0.000030
C46	C	1.585146	0.899070	0.499970
C47	C	1.092465	0.773966	0.000009
C48	C	1.592465	1.273966	0.500009
C49	C	1.090432	0.669658	-0.000002
C50	C	1.590432	1.169658	0.499998
C51	C	1.088806	0.586521	-0.000011
C52	C	1.588806	1.086521	0.499989
C53	C	1.086773	0.482207	-0.000021
C54	C	1.586773	0.982207	0.499979
C55	C	1.089596	0.128104	-0.343865
C56	C	1.589596	0.628104	0.156135
C57	C	1.089605	0.128098	-0.455517
C58	C	1.589605	0.628098	0.044483
C59	C	1.089617	0.128088	-0.544507
C60	C	1.589617	0.628088	-0.044507
C61	C	1.089628	0.128082	-0.656166
C62	C	1.589628	0.628082	-0.156166
N63	N	1.089640	0.128072	0.254844
N64	N	1.589640	0.628072	0.754844
