data_functionalizedCrystal
_audit_creation_method	'MofGen! by Chris Wilmer'
_symmetry_space_group_name_H-M	'P1'
_symmetry_Int_Tables_number	1
_symmetry_cell_setting	triclinic
loop_
_symmetry_equiv_pos_as_xyz
  x,y,z
_cell_length_a	23.532407
_cell_length_b	9.065218
_cell_length_c	7.540329
_cell_angle_alpha	90.003038
_cell_angle_beta	89.991770
_cell_angle_gamma	96.067719
loop_
_atom_site_label
_atom_site_type_symbol
_atom_site_fract_x
_atom_site_fract_y
_atom_site_fract_z
O1	O	0.083497	-1.956284	-0.147508
O2	O	0.090346	-1.526662	-0.147513
O3	O	0.004085	-1.754428	-0.147478
O4	O	0.169758	-1.728517	-0.147543
O5	O	0.004084	-1.754415	0.147487
O6	O	0.090345	-1.526648	0.147453
O7	O	0.083496	-1.956270	0.147457
Cu8	Cu	0.086921	-1.741458	0.174387
Cu9	Cu	0.086922	-1.741474	-0.174443
O10	O	0.169757	-1.728504	0.147422
C11	C	0.089687	-1.471701	-0.000030
C12	C	0.087719	-1.307955	-0.000030
C13	C	-0.017136	-1.753761	0.000009
C14	C	-0.080368	-1.751778	0.000023
C15	C	0.084155	-2.011231	-0.000030
C16	C	0.086123	-2.174977	-0.000041
C17	C	-0.478573	-1.874123	-0.000073
C18	C	-0.537986	-1.872280	-0.000087
O19	O	-0.573898	-1.985695	-0.000151
N20	N	-0.561607	-1.736873	-0.000087
C21	C	-0.525810	-1.603300	-0.000091
O22	O	-0.551356	-1.487956	-0.000094
C23	C	-0.466397	-1.605144	-0.000090
C24	C	-0.442780	-1.740560	-0.000072
C25	C	-0.454955	-2.009527	-0.000057
C26	C	-0.395546	-2.011370	-0.000040
C27	C	-0.359753	-1.877807	-0.000040
C28	C	-0.383371	-1.742402	-0.000056
C29	C	-0.430601	-1.471573	-0.000108
C30	C	-0.371185	-1.473429	-0.000108
C31	C	-0.347568	-1.608845	-0.000090
C32	C	-0.288169	-1.610682	-0.000038
N33	N	-0.264548	-1.746089	-0.000038
C34	C	-0.300341	-1.879651	-0.000039
C35	C	-0.650581	-1.599437	-0.000096
C36	C	-0.709992	-1.597591	-0.000084
C37	C	-0.722165	-1.866571	-0.000083
C38	C	-0.662752	-1.868416	-0.000082
C39	C	-0.626960	-1.734844	-0.000096
C40	C	-0.175576	-1.883510	-0.000002
C41	C	-0.116160	-1.885340	0.000022
C42	C	-0.103993	-1.616360	0.000011
C43	C	-0.163403	-1.614529	-0.000003
C44	C	-0.199194	-1.748116	-0.000016
O45	O	-0.252222	-1.497326	0.000019
O46	O	-0.274786	-1.994976	-0.000059
C47	C	0.190979	-1.729170	-0.000069
C48	C	0.254210	-1.731154	-0.000094
N49	N	0.086919	-1.741458	0.419736
N50	N	0.086919	-1.741486	-0.419792
H51	H	-0.096935	-1.995617	0.000041
O52	O	-0.210255	-2.013409	0.000071
C53	C	-0.176659	-2.133301	0.000045
H54	H	-0.132528	-2.095163	0.055893
H55	H	-0.172200	-2.174860	-0.141459
C56	C	-0.259799	-2.306485	0.047135
C57	C	-0.205598	-2.259646	0.115742
H58	H	-0.277651	-2.384424	0.118495
H59	H	-0.282434	-2.225713	0.047146
H60	H	-0.256076	-2.341107	-0.070784
H61	H	-0.209322	-2.225007	0.233650
H62	H	-0.182964	-2.340415	0.115754
H63	H	-0.449820	-1.361303	-0.000133
O64	O	-0.756917	-1.996357	0.000213
C65	C	-0.746109	-2.078651	0.152952
H66	H	-0.726218	-2.000478	0.259738
H67	H	-0.715422	-2.163592	0.118416
C68	C	-0.827058	-2.255414	0.091044
C69	C	-0.802632	-2.159399	0.222205
H70	H	-0.861922	-2.305230	0.133759
H71	H	-0.834338	-2.199975	-0.011864
H72	H	-0.801480	-2.326185	0.062275
H73	H	-0.828206	-2.088619	0.250955
H74	H	-0.795357	-2.214828	0.325120
O75	O	-0.615896	-1.469540	-0.000006
C76	C	-0.649491	-1.349645	-0.000049
H77	H	-0.693629	-1.387773	0.055788
H78	H	-0.653932	-1.308100	-0.141558
C79	C	-0.566354	-1.176463	0.047053
C80	C	-0.620564	-1.223290	0.115647
H81	H	-0.548510	-1.098517	0.118413
H82	H	-0.543720	-1.257237	0.047076
H83	H	-0.570063	-1.141852	-0.070869
H84	H	-0.616854	-1.257917	0.233559
H85	H	-0.643196	-1.142518	0.115647
O86	O	-0.069137	-1.486759	-0.000069
C87	C	-0.011635	-1.517440	-0.000015
H88	H	-0.008756	-1.633283	-0.055841
H89	H	0.005507	-1.511576	0.141495
C90	C	0.020595	-1.260111	-0.047139
C91	C	0.024132	-1.402387	-0.115718
H92	H	0.042659	-1.189138	-0.118502
H93	H	-0.018144	-1.239439	-0.047168
H94	H	0.034879	-1.255245	0.070785
H95	H	0.009841	-1.407256	-0.233631
H96	H	0.062870	-1.423058	-0.115711
H97	H	-0.376323	-2.121639	-0.000033
H98	H	-0.342046	-1.364656	-0.000122
H99	H	-0.484092	-2.118297	-0.000064
H100	H	-0.643528	-1.978683	-0.000069
H101	H	-0.729215	-1.487322	-0.000068
H102	H	-0.182633	-1.504263	0.000031
