data_functionalizedCrystal
_audit_creation_method	'MofGen! by Chris Wilmer'
_symmetry_space_group_name_H-M	'P1'
_symmetry_Int_Tables_number	1
_symmetry_cell_setting	triclinic
loop_
_symmetry_equiv_pos_as_xyz
  x,y,z
_cell_length_a	19.805407
_cell_length_b	29.839131
_cell_length_c	19.805399
_cell_angle_alpha	89.970435
_cell_angle_beta	89.980427
_cell_angle_gamma	90.041420
loop_
_atom_site_label
_atom_site_type_symbol
_atom_site_fract_x
_atom_site_fract_y
_atom_site_fract_z
Zn1	Zn	1.034665	-0.178864	-0.382710
Zn2	Zn	1.034550	-0.253991	-0.269518
Zn3	Zn	0.921480	-0.178876	-0.269535
Zn4	Zn	0.921414	-0.253967	-0.382665
O5	O	0.978027	-0.216425	-0.326107
O6	O	1.129366	-0.188834	-0.367707
O7	O	1.019531	-0.244042	-0.174804
O8	O	0.936570	-0.116007	-0.284574
O9	O	1.129282	-0.244030	-0.284545
O10	O	1.019727	-0.115998	-0.367723
O11	O	0.936458	-0.188856	-0.174816
O12	O	0.826754	-0.188832	-0.284530
O13	O	0.936457	-0.243990	-0.477388
O14	O	0.826706	-0.244002	-0.367646
O15	O	1.019662	-0.188811	-0.477421
O16	O	1.019467	-0.316855	-0.284501
O17	O	0.936346	-0.316838	-0.367630
C18	C	0.802171	-0.216416	-0.326085
C19	C	0.726939	-0.216423	-0.326092
C20	C	0.977905	-0.333147	-0.326073
C21	C	0.977915	-0.383082	-0.326082
C22	C	0.691587	-0.245193	-0.369300
C23	C	0.620899	-0.245194	-0.369310
C24	C	0.585564	-0.216427	-0.326107
C25	C	0.620920	-0.187654	-0.282897
C26	C	0.691607	-0.187651	-0.282891
C27	C	0.335847	-0.187664	-0.282919
C28	C	0.265155	-0.187669	-0.282927
C29	C	0.265139	-0.245207	-0.369338
C30	C	0.335826	-0.245204	-0.369332
C31	C	0.371176	-0.216429	-0.326125
C32	C	0.447825	-0.216428	-0.326116
C33	C	0.508916	-0.216430	-0.326112
C34	C	1.021387	-0.692722	-0.282885
C35	C	1.021471	-0.880395	-0.282912
O36	O	1.058335	-0.904656	-0.246159
N37	N	0.978168	-0.903867	-0.326158
C38	C	0.934844	-0.880418	-0.369404
O39	O	0.898019	-0.904688	-0.406194
C40	C	0.934764	-0.692746	-0.369381
C41	C	0.978065	-0.669276	-0.326127
C42	C	1.064685	-0.669252	-0.239635
C43	C	1.064661	-0.622336	-0.239626
C44	C	1.021339	-0.598891	-0.282868
C45	C	0.978041	-0.622360	-0.326118
C46	C	0.891444	-0.669297	-0.412630
C47	C	0.891429	-0.622376	-0.412621
C48	C	0.934730	-0.598907	-0.369367
C49	C	0.934695	-0.551999	-0.369351
N50	N	0.977998	-0.528527	-0.326104
C51	C	1.021320	-0.551973	-0.282863
C52	C	0.934888	-0.978948	-0.369412
C53	C	0.934907	-1.025866	-0.369418
C54	C	1.021534	-1.025840	-0.282926
C55	C	1.021512	-0.978921	-0.282918
C56	C	0.978191	-0.955476	-0.326166
C57	C	1.021266	-0.453447	-0.282847
C58	C	1.021237	-0.406527	-0.282840
C59	C	0.934611	-0.406558	-0.369334
C60	C	0.934638	-0.453473	-0.369339
C61	C	0.977971	-0.476917	-0.326093
O62	O	0.897855	-0.527708	-0.406090
O63	O	1.058150	-0.527694	-0.246090
C64	C	1.021411	-0.739637	-0.282894
C65	C	0.978113	-0.763107	-0.326144
C66	C	0.934791	-0.739661	-0.369386
C67	C	0.978132	-0.810025	-0.326149
C68	C	1.021454	-0.833470	-0.282908
C69	C	1.064757	-0.809998	-0.239661
C70	C	1.064733	-0.763083	-0.239653
C71	C	0.891488	-0.763133	-0.412632
C72	C	0.891515	-0.810049	-0.412637
C73	C	0.934837	-0.833494	-0.369395
C74	C	1.154570	-0.216434	-0.326129
C75	C	1.229802	-0.216437	-0.326139
C76	C	0.978065	-0.216396	-0.502650
C77	C	0.978081	-0.216384	-0.577882
C78	C	0.978168	-0.099246	-0.326156
C79	C	0.978228	-0.049312	-0.326176
C80	C	1.021407	-0.187652	-0.613244
C81	C	1.021414	-0.187638	-0.683933
C82	C	0.978098	-0.216361	-0.719258
C83	C	0.934767	-0.245095	-0.683890
C84	C	0.934757	-0.245105	-0.613203
C85	C	0.934806	-0.245053	-0.968963
C86	C	0.934820	-0.245041	-1.039656
C87	C	1.021462	-0.187586	-1.039694
C88	C	1.021453	-0.187597	-0.969006
C89	C	0.978120	-0.216329	-0.933645
C90	C	0.978112	-0.216342	-0.856997
C91	C	0.978109	-0.216350	-0.795905
C92	C	0.978028	-0.216420	-0.150251
C93	C	0.978143	-0.216306	-0.075019
H94	H	0.592119	-0.268622	-0.404494
C95	C	0.582643	-0.156446	-0.235881
C96	C	0.599812	-0.166160	-0.168885
C97	C	0.564572	-0.137417	-0.125555
H98	H	0.535471	-0.160540	-0.241981
H99	H	0.594274	-0.126261	-0.245830
H100	H	0.588176	-0.196337	-0.158940
H101	H	0.646978	-0.162063	-0.162765
H102	H	0.576204	-0.107232	-0.135504
H103	H	0.517402	-0.141514	-0.131660
H104	H	0.576221	-0.144001	-0.080094
H105	H	1.100029	-0.829096	-0.204451
C106	C	0.887868	-0.276277	-0.930499
C107	C	0.926139	-0.305077	-0.889896
C108	C	0.882919	-0.333844	-0.854447
H109	H	0.862063	-0.293421	-0.961591
H110	H	0.858399	-0.259108	-0.902889
H111	H	0.955597	-0.322244	-0.917503
H112	H	0.951943	-0.287944	-0.858791
H113	H	0.853450	-0.316675	-0.826838
H114	H	0.857116	-0.350985	-0.885544
H115	H	0.908880	-0.353385	-0.826889
H116	H	0.899544	-0.268431	-1.068415
H117	H	0.720390	-0.164221	-0.247710
C118	C	1.068207	-0.478957	-0.235865
C119	C	1.029933	-0.505950	-0.192459
C120	C	1.073151	-0.529463	-0.149179
H121	H	1.094008	-0.458310	-0.210043
H122	H	1.097679	-0.497252	-0.261775
H123	H	1.000472	-0.487658	-0.166551
H124	H	1.004133	-0.526606	-0.218262
H125	H	1.102623	-0.547758	-0.175089
H126	H	1.098950	-0.508813	-0.123362
H127	H	1.047189	-0.547784	-0.119727
C128	C	1.068409	-0.156513	-0.574773
C129	C	1.059141	-0.162678	-0.505299
C130	C	1.102431	-0.134003	-0.469840
H131	H	1.058580	-0.126308	-0.586290
H132	H	1.113895	-0.163091	-0.586324
H133	H	1.013665	-0.156097	-0.493752
H134	H	1.068974	-0.192877	-0.493762
H135	H	1.147918	-0.140581	-0.481392
H136	H	1.092599	-0.103800	-0.481362
H137	H	1.096154	-0.138185	-0.422699
H138	H	0.899470	-0.268498	-0.584411
C139	C	1.068507	-0.156362	-0.930777
C140	C	1.106439	-0.131187	-0.976876
C141	C	1.149785	-0.102403	-0.941685
H142	H	1.098033	-0.173502	-0.903197
H143	H	1.042647	-0.136767	-0.903221
H144	H	1.132297	-0.150779	-1.004421
H145	H	1.076931	-0.114037	-1.004458
H146	H	1.123925	-0.082808	-0.914129
H147	H	1.179307	-0.119547	-0.914106
H148	H	1.175523	-0.085315	-0.972958
C149	C	0.226667	-0.156487	-0.236038
C150	C	0.157196	-0.162663	-0.245274
C151	C	0.121720	-0.133955	-0.202083
H152	H	0.238195	-0.126290	-0.245977
H153	H	0.238191	-0.163029	-0.190528
H154	H	0.145677	-0.156118	-0.290773
H155	H	0.145648	-0.192854	-0.235329
H156	H	0.133244	-0.140497	-0.156574
H157	H	0.133254	-0.103760	-0.212027
H158	H	0.074581	-0.138144	-0.208340
H159	H	1.056744	-0.164189	-1.068493
H160	H	1.056696	-0.164242	-0.712722
C161	C	0.887777	-0.276353	-0.722155
C162	C	0.902446	-0.320805	-0.704929
C163	C	0.859167	-0.349613	-0.740156
H164	H	0.893946	-0.272293	-0.769328
H165	H	0.842294	-0.269804	-0.710551
H166	H	0.947918	-0.327351	-0.716537
H167	H	0.896273	-0.324878	-0.657761
H168	H	0.813685	-0.343064	-0.728553
H169	H	0.865340	-0.345550	-0.787328
H170	H	0.869111	-0.379776	-0.728469
H171	H	1.056497	-0.387420	-0.247615
H172	H	0.720352	-0.268620	-0.404479
H173	H	0.364592	-0.268631	-0.404510
C174	C	0.374100	-0.156406	-0.235936
C175	C	0.328022	-0.131224	-0.198091
C176	C	0.363238	-0.102427	-0.154796
H177	H	0.401704	-0.136813	-0.261807
H178	H	0.401634	-0.173551	-0.206356
H179	H	0.300499	-0.114080	-0.227667
H180	H	0.300416	-0.150805	-0.172206
H181	H	0.390773	-0.119571	-0.125217
H182	H	0.390842	-0.082836	-0.180673
H183	H	0.331981	-0.085340	-0.129109
H184	H	0.236348	-0.268634	-0.404522
H185	H	1.099922	-0.603230	-0.204407
H186	H	1.099967	-0.688336	-0.204423
H187	H	1.056771	-0.959815	-0.247697
C188	C	1.068600	-1.051219	-0.235907
C189	C	1.106516	-1.020628	-0.198018
C190	C	1.149874	-1.043993	-0.154697
H191	H	1.098137	-1.069493	-0.261761
H192	H	1.042751	-1.069542	-0.206356
H193	H	1.132363	-1.002313	-0.227565
H194	H	1.076997	-1.002353	-0.172150
H195	H	1.124025	-1.062316	-0.125147
H196	H	1.179406	-1.062266	-0.180557
H197	H	1.175600	-1.023241	-0.128980
H198	H	0.899381	-0.472583	-0.404562
H199	H	0.899640	-1.044971	-0.404633
H200	H	0.899609	-0.959863	-0.404631
H201	H	0.856180	-0.688398	-0.447849
C202	C	0.844321	-0.597004	-0.459606
C203	C	0.806398	-0.627604	-0.497473
C204	C	0.762990	-0.604248	-0.540755
H205	H	0.870113	-0.578670	-0.489178
H206	H	0.814796	-0.578741	-0.433704
H207	H	0.835920	-0.645858	-0.523373
H208	H	0.780592	-0.645938	-0.467919
H209	H	0.733465	-0.585986	-0.514853
H210	H	0.788788	-0.585915	-0.570322
H211	H	0.737250	-0.625006	-0.566448
H212	H	0.899337	-0.387461	-0.404539
H213	H	1.099993	-0.743977	-0.204431
H214	H	0.856211	-0.744047	-0.447845
C215	C	0.844472	-0.835446	-0.459676
C216	C	0.806545	-0.804865	-0.497554
C217	C	0.763216	-0.828243	-0.540903
H218	H	0.814942	-0.853784	-0.433843
H219	H	0.870343	-0.853706	-0.489233
H220	H	0.780676	-0.786613	-0.468001
H221	H	0.836058	-0.786526	-0.523401
H222	H	0.789087	-0.846503	-0.570459
H223	H	0.733690	-0.846580	-0.515064
H224	H	0.737481	-0.807497	-0.566612
