data_functionalizedCrystal
_audit_creation_method	'MofGen! by Chris Wilmer'
_symmetry_space_group_name_H-M	'P1'
_symmetry_Int_Tables_number	1
_symmetry_cell_setting	triclinic
loop_
_symmetry_equiv_pos_as_xyz
  x,y,z
_cell_length_a	6.817900
_cell_length_b	11.102244
_cell_length_c	11.168136
_cell_angle_alpha	91.982783
_cell_angle_beta	108.508683
_cell_angle_gamma	108.604870
loop_
_atom_site_label
_atom_site_type_symbol
_atom_site_fract_x
_atom_site_fract_y
_atom_site_fract_z
V1	V	-4.110382	-0.175858	-0.393696
O2	O	-4.069442	0.008431	-0.386205
O3	O	-4.087160	-0.348677	-0.391000
O4	O	-4.086664	-0.173161	-0.565402
O5	O	-4.069942	-0.168300	-0.210596
V6	V	-4.587549	-0.153813	-0.371796
O7	O	-4.385582	-0.224213	-0.441735
O8	O	-4.762545	-0.105458	-0.323757
O9	O	-4.387563	0.019006	-0.374492
O10	O	-4.745884	-0.338102	-0.379287
O11	O	-4.745385	-0.161371	-0.554896
O12	O	-4.388059	-0.156510	-0.200090
C13	C	-3.937488	-0.390806	-0.384788
C14	C	-3.999953	-0.532089	-0.383729
C15	C	-3.969463	-0.580318	-0.267603
C16	C	-4.028171	-0.713070	-0.266622
C17	C	-4.147849	-0.749353	-0.497903
C18	C	-4.089156	-0.616604	-0.498883
C19	C	-3.900359	-0.559371	-0.134074
C20	C	-3.959067	-0.692123	-0.133093
C21	C	-3.936854	-0.166917	-0.607254
C22	C	-3.998912	-0.165856	-0.747624
C23	C	-4.201436	-0.171410	-0.816316
C24	C	-4.265581	-0.170314	-0.961396
C25	C	-4.200578	0.061129	-0.380700
C26	C	-4.117353	0.202410	-0.381768
C27	C	-4.201212	-0.162758	-0.158232
C28	C	-4.118390	-0.163813	-0.017860
H29	H	-4.114005	-0.577343	-0.593445
H30	H	-3.873008	-0.160280	-0.796220
Cl31	Cl	-4.052884	-0.498998	-0.062796
Cl32	Cl	-3.614141	-0.477836	-0.062877
Cl33	Cl	-4.533458	-0.177664	-1.052559
H34	H	-4.220484	-0.818181	-0.591658
H35	H	-4.101575	-0.731922	-0.096340
H36	H	-3.807209	-0.715139	-0.076731
Cl37	Cl	-4.395837	-0.180013	-0.741297
Cl38	Cl	-3.850519	-0.156483	-0.926708
