data_functionalizedCrystal
_audit_creation_method	'MofGen! by Chris Wilmer'
_symmetry_space_group_name_H-M	'P1'
_symmetry_Int_Tables_number	1
_symmetry_cell_setting	triclinic
loop_
_symmetry_equiv_pos_as_xyz
  x,y,z
_cell_length_a	12.759401
_cell_length_b	12.645330
_cell_length_c	12.759401
_cell_angle_alpha	89.994508
_cell_angle_beta	90.005597
_cell_angle_gamma	89.973537
loop_
_atom_site_label
_atom_site_type_symbol
_atom_site_fract_x
_atom_site_fract_y
_atom_site_fract_z
Zn1	Zn	1.606037	0.422217	0.594000
Zn2	Zn	1.605936	0.599447	0.418327
Zn3	Zn	1.430379	0.422199	0.418339
Zn4	Zn	1.430293	0.599439	0.593969
O5	O	1.518161	0.510826	0.506159
O6	O	1.753045	0.445737	0.570704
O7	O	1.582642	0.575931	0.271308
O8	O	1.453759	0.273854	0.441659
O9	O	1.752971	0.575948	0.441639
O10	O	1.582814	0.273867	0.570716
O11	O	1.453661	0.445708	0.271317
O12	O	1.283346	0.445700	0.441629
O13	O	1.453612	0.575934	0.740994
O14	O	1.283283	0.575917	0.570663
O15	O	1.582731	0.445729	0.741017
O16	O	1.582558	0.747794	0.441609
O17	O	1.453514	0.747788	0.570651
C18	C	1.245194	0.510807	0.506144
C19	C	1.128417	0.510824	0.506163
C20	C	1.518044	0.786255	0.506148
C21	C	1.518090	0.904085	0.506179
C22	C	0.963819	0.578747	0.573252
C23	C	1.073543	0.578736	0.573242
C24	C	1.073562	0.442927	0.439083
C25	C	0.963840	0.442945	0.439090
C26	C	1.437218	1.071690	0.587613
C27	C	1.436823	0.949130	0.587349
C28	C	1.488135	0.948644	0.395458
C29	C	1.487624	1.071242	0.395954
C30	C	1.629356	1.071183	0.534574
C31	C	1.628691	0.948577	0.536993
C32	C	1.792194	0.510845	0.506174
C33	C	1.908971	0.510854	0.506180
C34	C	1.518173	0.510833	0.780192
C35	C	1.518178	0.510836	0.896969
C36	C	1.518271	1.234320	0.506196
C37	C	1.518223	1.116490	0.506222
C38	C	1.585402	0.443049	0.951844
C39	C	1.585393	0.443047	1.061568
C40	C	1.450933	0.578628	1.061531
C41	C	1.450938	0.578624	0.951809
C42	C	1.518149	0.510842	1.233191
C43	C	1.518164	0.510838	1.116415
H44	H	1.118195	0.634023	0.627857
H45	H	1.455776	1.101128	0.669982
H46	H	0.919182	0.387657	0.384466
H47	H	1.692230	0.917909	0.482028
H48	H	1.118250	0.387637	0.384462
H49	H	1.396191	0.633820	1.106196
C50	C	1.376979	0.653190	0.891442
C51	C	1.294522	0.607230	0.816015
C52	C	1.220560	0.681787	0.755650
C53	C	1.229054	0.802304	0.770712
C54	C	1.311514	0.848270	0.846143
C55	C	1.385476	0.773713	0.906508
H56	H	1.288231	0.518011	0.804862
H57	H	1.159518	0.647759	0.699811
H58	H	1.174303	0.857495	0.726026
H59	H	1.317805	0.937489	0.857296
H60	H	1.446519	0.807741	0.962347
H61	H	1.640131	0.387847	1.106243
H62	H	1.355344	1.102585	0.569070
C63	C	1.325536	0.909617	0.561969
C64	C	1.236749	0.989617	0.541871
C65	C	1.125456	0.950105	0.516488
C66	C	1.102952	0.830592	0.511202
C67	C	1.191741	0.750584	0.531300
C68	C	1.303033	0.790097	0.556684
H69	H	1.253406	1.078095	0.545783
H70	H	1.059729	1.009333	0.501610
H71	H	1.020566	0.801342	0.492412
H72	H	1.175084	0.662107	0.527388
H73	H	1.368761	0.730869	0.571562
H74	H	1.689706	1.100152	0.475293
C75	C	1.462070	0.908421	0.698272
C76	C	1.482738	0.987466	0.787712
C77	C	1.507951	0.946763	0.898648
C78	C	1.512496	0.827015	0.920144
C79	C	1.491827	0.747963	0.830702
C80	C	1.466614	0.788666	0.719766
H81	H	1.479375	1.076118	0.771802
H82	H	1.523252	1.005284	0.964859
H83	H	1.531160	0.796885	1.002266
H84	H	1.495190	0.659311	0.846612
H85	H	1.451313	0.730145	0.653555
C86	C	1.377877	1.110001	0.363515
C87	C	1.332954	1.079854	0.255560
C88	C	1.223204	1.118606	0.223123
C89	C	1.158377	1.187504	0.298642
C90	C	1.203299	1.217655	0.406605
C91	C	1.313049	1.178903	0.439042
H92	H	1.380944	1.028848	0.199650
H93	H	1.189950	1.096286	0.143202
H94	H	1.077133	1.216191	0.274631
H95	H	1.155310	1.268661	0.462515
H96	H	1.346303	1.201223	0.518963
H97	H	1.544065	1.100879	0.333244
H98	H	1.545275	0.919465	0.333158
H99	H	1.407753	0.918025	0.371004
H100	H	0.919148	0.634043	0.627882
C101	C	1.666267	1.112878	0.641793
C102	C	1.595959	1.188613	0.704977
C103	C	1.632857	1.230309	0.812200
C104	C	1.740063	1.196270	0.856239
C105	C	1.810378	1.120531	0.793055
C106	C	1.773480	1.078835	0.685832
H107	H	1.516593	1.213815	0.672377
H108	H	1.580805	1.286377	0.858973
H109	H	1.767377	1.227137	0.935612
H110	H	1.889744	1.095330	0.825655
H111	H	1.825532	1.022767	0.639059
H112	H	1.651281	0.919453	0.618478
H113	H	1.640150	0.387849	0.907196
