data_functionalizedCrystal
_audit_creation_method	'MofGen! by Chris Wilmer'
_symmetry_space_group_name_H-M	'P1'
_symmetry_Int_Tables_number	1
_symmetry_cell_setting	triclinic
loop_
_symmetry_equiv_pos_as_xyz
  x,y,z
_cell_length_a	18.101398
_cell_length_b	21.295417
_cell_length_c	18.101389
_cell_angle_alpha	90.022566
_cell_angle_beta	90.024327
_cell_angle_gamma	90.025773
loop_
_atom_site_label
_atom_site_type_symbol
_atom_site_fract_x
_atom_site_fract_y
_atom_site_fract_z
Zn1	Zn	1.132124	-0.250755	0.418817
Zn2	Zn	1.132021	-0.356008	0.294967
Zn3	Zn	1.008283	-0.250748	0.294979
Zn4	Zn	1.008235	-0.355981	0.418755
O5	O	1.070166	-0.303373	0.356880
O6	O	1.235743	-0.264731	0.402409
O7	O	1.115584	-0.342054	0.191335
O8	O	1.024774	-0.162660	0.311437
O9	O	1.235668	-0.342060	0.311417
O10	O	1.115759	-0.162664	0.402421
O11	O	1.024674	-0.264720	0.191344
O12	O	0.904644	-0.264694	0.311377
O13	O	1.024692	-0.342014	0.522397
O14	O	0.904609	-0.342008	0.402315
O15	O	1.115713	-0.264705	0.522442
O16	O	1.115538	-0.444094	0.311357
O17	O	1.024592	-0.444074	0.402304
C18	C	0.877755	-0.303348	0.356841
C19	C	0.795441	-0.303352	0.356842
C20	C	0.496350	-0.303391	0.356904
C21	C	0.527673	-0.254504	0.299967
C22	C	0.613291	-0.254635	0.299724
C23	C	0.644733	-0.303371	0.356873
C24	C	0.613615	-0.369679	0.335543
C25	C	0.527970	-0.369407	0.335147
C26	C	0.527965	-0.286547	0.435305
C27	C	0.613615	-0.285070	0.434877
C28	C	0.728592	-0.303364	0.356857
C29	C	0.412491	-0.303403	0.356919
C30	C	1.070069	-0.466925	0.356839
C31	C	1.070095	-0.536893	0.356846
C32	C	1.117492	-0.569749	0.309538
C33	C	1.117527	-0.635491	0.309555
C34	C	1.070151	-0.668375	0.356871
C35	C	1.022751	-0.635511	0.404188
C36	C	1.022722	-0.569770	0.404175
N37	N	1.005367	-0.771637	0.362504
N38	N	1.005396	-0.834089	0.362512
C39	C	1.070234	-0.866450	0.356914
N40	N	1.135044	-0.834001	0.351293
N41	N	1.135014	-0.771543	0.351282
C42	C	1.070177	-0.739661	0.356891
C43	C	1.117673	-0.970592	0.309622
C44	C	1.117709	-1.036335	0.309644
C45	C	1.022926	-1.036354	0.404273
C46	C	1.022897	-0.970612	0.404255
C47	C	1.070269	-0.937734	0.356925
C48	C	1.263328	-0.303399	0.356919
C49	C	1.345642	-0.303410	0.356935
C50	C	1.070209	-0.303357	0.550042
C51	C	1.070227	-0.303350	0.632356
C52	C	1.070283	-0.139183	0.356937
C53	C	1.070334	-0.069215	0.356961
C54	C	1.070166	-0.303344	0.164469
C55	C	1.070291	-0.303173	0.082155
C56	C	1.070270	-0.303232	0.931447
C57	C	1.012805	-0.351719	0.900093
C58	C	1.012960	-0.351944	0.814475
C59	C	1.070248	-0.303291	0.783064
C60	C	1.148274	-0.321303	0.814168
C61	C	1.147953	-0.321621	0.899813
C62	C	1.050388	-0.236626	0.899877
C63	C	1.048652	-0.237011	0.814226
C64	C	1.070240	-0.303323	0.699205
C65	C	1.070283	-0.303202	1.015306
H66	H	0.633959	-0.236275	0.450961
O67	O	1.100049	-0.186613	0.785917
H68	H	1.141979	-0.208115	0.749035
O69	O	0.971768	-0.935172	0.455277
H70	H	0.979711	-0.883934	0.447324
H71	H	0.635030	-0.384213	0.278847
H72	H	0.507249	-0.407065	0.374809
H73	H	0.954772	-0.340562	0.920680
H74	H	0.955101	-0.340671	0.793443
O75	O	0.640586	-0.419223	0.388753
H76	H	0.672486	-0.455281	0.358064
O77	O	0.971826	-1.071817	0.455305
H78	H	0.984491	-1.059167	0.513439
O79	O	1.029986	-0.416714	0.928628
H80	H	1.079281	-0.414636	0.965038
O81	O	0.641940	-0.328812	0.494085
H82	H	0.678801	-0.364438	0.468726
H83	H	0.506392	-0.239037	0.454697
O84	O	1.168787	-0.935134	0.258591
H85	H	1.206424	-0.905141	0.291780
H86	H	1.192239	-0.287098	0.793825
O87	O	1.168588	-0.534288	0.258495
H88	H	1.206231	-0.504292	0.291674
O89	O	1.168831	-1.071778	0.258616
H90	H	1.201759	-1.037869	0.225699
H91	H	1.156126	-0.662248	0.271032
O92	O	1.030252	-0.417357	0.787327
H93	H	1.038559	-0.448948	0.835371
O94	O	1.170267	-0.386117	0.926288
H95	H	1.181181	-0.416787	0.877919
O96	O	0.971642	-0.670973	0.455216
H97	H	0.979616	-0.722208	0.447269
O98	O	1.206599	-0.276887	0.927300
H99	H	1.235066	-0.255127	0.879418
H100	H	0.507102	-0.205183	0.313191
O101	O	0.501130	-0.333704	0.491507
H102	H	0.465450	-0.368971	0.463784
O103	O	0.971586	-0.534326	0.455188
H104	H	0.938641	-0.568234	0.488089
H105	H	1.165420	-0.369476	0.792722
H106	H	0.994480	-0.220216	0.921464
O107	O	0.972600	-0.219004	0.787287
H108	H	0.950270	-0.257096	0.751848
H109	H	1.092243	-0.200501	0.920156
H110	H	0.506124	-0.265512	0.242211
O111	O	0.641171	-0.189501	0.317410
H112	H	0.593481	-0.157624	0.326213
O113	O	0.640378	-0.269361	0.222763
H114	H	0.619590	-0.316225	0.205728
O115	O	0.501453	-0.388321	0.259227
H116	H	0.549801	-0.397572	0.223140
