data_functionalizedCrystal
_audit_creation_method	'MofGen! by Chris Wilmer'
_symmetry_space_group_name_H-M	'P1'
_symmetry_Int_Tables_number	1
_symmetry_cell_setting	triclinic
loop_
_symmetry_equiv_pos_as_xyz
  x,y,z
_cell_length_a	14.628931
_cell_length_b	21.606444
_cell_length_c	21.606444
_cell_angle_alpha	60.000398
_cell_angle_beta	89.998967
_cell_angle_gamma	59.998844
loop_
_atom_site_label
_atom_site_type_symbol
_atom_site_fract_x
_atom_site_fract_y
_atom_site_fract_z
Zr1	Zr	0.880609	0.677448	-0.081199
O2	O	0.734647	0.806569	-0.180021
O3	O	0.925356	0.548329	-0.050908
O4	O	0.925355	0.677450	-0.180025
O5	O	0.734647	0.677445	0.050949
O6	O	1.075787	0.677450	-0.180025
O7	O	0.734648	0.677447	-0.050904
O8	O	1.075789	0.446475	0.050942
O9	O	0.734645	0.908420	-0.180018
O10	O	1.056704	0.601436	-0.037985
O11	O	0.944437	0.601435	0.038026
O12	O	0.944436	0.753459	-0.113992
O13	O	0.832170	0.753457	-0.037981
Zr14	Zr	1.120530	0.677443	0.081245
Zr15	Zr	1.120531	0.677447	-0.081199
Zr16	Zr	0.880608	0.677444	0.081245
Zr17	Zr	0.880607	0.839888	-0.081194
Zr18	Zr	1.120532	0.515003	0.081240
O19	O	1.075783	0.806563	0.050954
O20	O	1.075785	0.806568	-0.180021
O21	O	0.734645	0.806563	0.050953
O22	O	1.266492	0.548322	0.180067
O23	O	1.266494	0.548328	-0.050908
O24	O	0.925354	0.548323	0.180067
O25	O	1.266492	0.677446	-0.050903
O26	O	1.075784	0.677441	0.180071
O27	O	0.925352	0.677441	0.180071
O28	O	1.266491	0.677444	0.050950
O29	O	0.925351	0.908419	-0.180017
O30	O	1.075787	0.446472	0.180063
O31	O	1.266493	0.446472	0.180064
O32	O	1.266494	0.446475	0.050942
O33	O	0.734644	0.908416	-0.050896
O34	O	0.925350	0.908416	-0.050896
O35	O	1.056702	0.601433	0.114038
O36	O	1.168969	0.601434	0.038027
O37	O	1.056701	0.753456	-0.037980
O38	O	0.944435	0.753455	0.038031
C39	C	1.000573	0.474258	0.000016
C40	C	1.000574	0.405297	0.000014
C41	C	1.059173	0.372901	-0.039664
C42	C	1.059177	0.308101	-0.039659
C43	C	1.000574	0.275703	0.000020
C44	C	0.941973	0.308102	0.039704
C45	C	0.941976	0.372897	0.039703
C46	C	0.941960	0.046793	0.039710
C47	C	0.941958	-0.018004	0.039706
C48	C	1.059161	-0.018003	-0.039652
C49	C	1.059164	0.046791	-0.039653
C50	C	1.000568	0.079182	0.000033
C51	C	1.000566	0.149444	0.000029
C52	C	1.000569	0.205446	0.000021
C53	C	0.700464	0.677446	0.000023
C54	C	0.598611	0.677446	0.000023
C55	C	0.608894	0.602033	0.037727
C56	C	0.503624	0.602032	0.037728
C57	C	1.300675	0.677445	0.000023
C58	C	1.402528	0.677445	0.000023
C59	C	1.000571	0.677450	-0.203170
C60	C	1.000572	0.677452	-0.272131
C61	C	1.000566	0.880634	0.000030
C62	C	1.000565	0.949594	0.000032
C63	C	1.083446	0.677454	-0.304530
C64	C	1.083449	0.677447	-0.369323
C65	C	1.000573	0.677446	-0.401719
C66	C	0.917695	0.677442	-0.369315
C67	C	0.917697	0.677442	-0.304520
C68	C	0.917685	0.677441	-0.630626
C69	C	0.917687	0.677444	-0.695426
C70	C	1.083438	0.677447	-0.695428
C71	C	1.083440	0.677447	-0.630633
C72	C	1.000565	0.677438	-0.598232
C73	C	1.000564	0.677443	-0.527975
C74	C	1.000569	0.677447	-0.471978
C75	C	1.000568	0.677441	0.203216
C76	C	1.000567	0.677439	0.272177
C77	C	1.300678	0.474257	0.000017
C78	C	1.402532	0.405297	0.000015
C79	C	1.000571	0.474253	0.203209
C80	C	1.000571	0.405291	0.272169
C81	C	1.300676	0.474252	0.203209
C82	C	1.402530	0.405290	0.272169
C83	C	0.700462	0.880639	-0.203163
C84	C	0.598609	0.949601	-0.272123
C85	C	0.700461	0.880634	0.000029
C86	C	0.598606	0.949595	0.000031
C87	C	1.000568	0.880638	-0.203163
C88	C	1.000568	0.949600	-0.272123
C89	C	1.391763	0.372913	-0.039671
C90	C	1.487457	0.308127	-0.039688
C91	C	1.593919	0.275720	-0.000015
C92	C	1.604686	0.308110	0.039672
C93	C	1.508993	0.372900	0.039684
C94	C	1.059173	0.372905	0.344237
C95	C	1.059169	0.308117	0.409038
C96	C	1.000569	0.275712	0.401769
C97	C	0.941961	0.308105	0.329693
C98	C	0.941959	0.372896	0.264894
C99	C	1.508973	0.372906	0.264876
C100	C	1.604685	0.308118	0.329664
C101	C	1.593950	0.275711	0.401746
C102	C	1.487496	0.308102	0.409037
C103	C	1.391787	0.372893	0.344249
C104	C	0.492165	0.981993	-0.264830
C105	C	0.396454	1.046802	-0.329618
C106	C	0.407188	1.079212	-0.401700
C107	C	0.513643	1.046817	-0.408991
C108	C	0.609352	0.982014	-0.344203
C109	C	0.609376	0.981985	0.039710
C110	C	0.513682	1.046789	0.039709
C111	C	0.407220	1.079198	0.000034
C112	C	0.396453	1.046805	-0.039649
C113	C	0.492145	0.982006	-0.039653
C114	C	1.059178	0.981985	-0.264829
C115	C	1.059200	1.046773	-0.329618
C116	C	1.000603	1.079180	-0.401699
C117	C	0.941991	1.046789	-0.408991
C118	C	0.941976	0.981998	-0.344203
H119	H	0.894235	-0.044381	0.072021
H120	H	1.305085	0.399298	-0.071987
H121	H	0.894283	1.073185	-0.467688
Br122	Br	1.000633	1.167114	-0.489619
Br123	Br	0.251960	1.090795	-0.093489
Br124	Br	0.454047	0.785062	-0.053775
Br125	Br	1.749179	0.264118	0.093512
Br126	Br	1.523629	0.416837	0.093552
Br127	Br	0.277285	1.167160	-0.489620
Br128	Br	0.477509	0.938052	-0.093504
H129	H	1.106888	0.399278	-0.071980
Br130	Br	0.805204	0.677443	-0.739394
Br131	Br	1.472946	0.264112	0.506868
Br132	Br	1.138746	1.090721	-0.319704
Br133	Br	1.138717	0.264168	0.506845
Br134	Br	1.138716	0.416864	0.354123
H135	H	0.329310	1.131961	0.000043
H136	H	0.522471	1.073153	0.072027
Br137	Br	1.247331	0.416832	0.354161
Br138	Br	0.528192	1.090810	-0.506822
H139	H	1.478668	0.281763	-0.072005
Br140	Br	0.862445	0.090738	0.093576
Br141	Br	1.523573	0.416877	0.167059
Br142	Br	1.749144	0.264170	0.319751
H143	H	1.000580	0.222955	0.454539
H144	H	0.393891	0.742012	-0.032262
Br145	Br	1.138687	-0.061966	-0.093512
H146	H	1.106894	0.281723	-0.071968
Br147	Br	1.195921	0.677465	-0.260574
Br148	Br	0.805214	0.677432	-0.586658
H149	H	1.671829	0.222963	-0.000030
H150	H	0.894256	0.399276	0.072011
H151	H	1.671892	0.222953	0.454494
H152	H	0.894251	0.281711	0.323786
H153	H	0.309783	1.073167	-0.323667
Br154	Br	0.753808	0.938057	-0.354115
H155	H	0.894242	0.399256	0.206215
Br156	Br	0.477566	0.938020	-0.167014
H157	H	1.150922	0.677452	-0.604260
H158	H	0.696054	0.955603	0.072023
H159	H	0.894244	0.955638	-0.350152
Br160	Br	1.138690	0.090763	-0.093512
Br161	Br	0.753457	0.494417	0.091552
Br162	Br	0.862462	0.264120	0.093571
Br163	Br	0.518019	0.494414	0.091527
Br164	Br	1.138712	0.938018	-0.167013
H165	H	1.150922	0.677450	-0.721813
Br166	Br	1.195926	0.677445	-0.413291
H167	H	0.850214	0.677439	-0.278142
Br168	Br	0.805224	0.677431	-0.413275
