data_functionalizedCrystal
_audit_creation_method	'MofGen! by Chris Wilmer'
_symmetry_space_group_name_H-M	'P1'
_symmetry_Int_Tables_number	1
_symmetry_cell_setting	triclinic
loop_
_symmetry_equiv_pos_as_xyz
  x,y,z
_cell_length_a	8.559649
_cell_length_b	14.185569
_cell_length_c	8.559649
_cell_angle_alpha	78.727294
_cell_angle_beta	69.778664
_cell_angle_gamma	101.274254
loop_
_atom_site_label
_atom_site_type_symbol
_atom_site_fract_x
_atom_site_fract_y
_atom_site_fract_z
O1	O	-2.085568	0.083418	0.013738
O2	O	-1.610083	0.083418	-0.070043
O3	O	-1.889717	0.083417	0.209590
O4	O	-1.805935	0.083419	-0.265895
O5	O	-1.972322	-0.083418	0.292189
O6	O	-1.692688	-0.083417	0.012555
O7	O	-2.168173	-0.083417	0.096336
Cu8	Cu	-1.937973	-0.098650	0.061988
Cu9	Cu	-1.840283	0.098652	-0.035694
O10	O	-1.888540	-0.083416	-0.183297
C11	C	-1.591077	0.000001	-0.035093
C12	C	-1.411377	0.000001	-0.053992
N13	N	-2.006695	-0.237421	0.130694
C14	C	-1.569679	-0.605070	-0.306176
C15	C	-1.621745	-0.710091	-0.254142
C16	C	-1.869395	-0.710053	-0.006603
C17	C	-1.817345	-0.605029	-0.058612
C18	C	-1.667487	-0.552546	-0.208401
C19	C	-1.915153	-0.552506	0.039163
C20	C	-1.863112	-0.447491	-0.012848
C21	C	-1.713263	-0.395000	-0.162634
C22	C	-1.615446	-0.447531	-0.260412
C23	C	-2.065017	-0.604991	0.188945
C24	C	-2.162825	-0.552467	0.286720
C25	C	-2.110778	-0.447451	0.234716
C26	C	-1.960929	-0.394960	0.084930
C27	C	-2.208595	-0.394920	0.332494
C28	C	-2.156554	-0.289905	0.280483
C29	C	-1.908887	-0.289945	0.032919
C30	C	-1.187180	0.000001	0.061386
C31	C	-1.366879	0.000001	0.080285
C32	C	-1.937368	0.000002	0.311198
C33	C	-1.956264	0.000007	0.490894
N34	N	-1.771576	0.237423	-0.104387
C35	C	-1.840888	0.000002	-0.284906
C36	C	-1.821988	0.000003	-0.464605
H37	H	-1.311987	0.000007	-0.183423
H38	H	-1.466254	0.000006	0.209702
H39	H	-1.692570	0.000000	0.436018
H40	H	-2.085696	-0.000001	0.590286
C41	C	-1.656009	-0.279482	-0.219852
C42	C	-1.477073	-0.221749	-0.234248
C43	C	-1.419819	-0.106232	-0.291466
C44	C	-1.541501	-0.048448	-0.334287
C45	C	-1.720448	-0.106180	-0.319892
C46	C	-1.777702	-0.221697	-0.262675
H47	H	-1.386986	-0.264525	-0.202549
H48	H	-1.287349	-0.063495	-0.302121
H49	H	-1.499118	0.037065	-0.376642
H50	H	-1.810534	-0.063404	-0.351592
H51	H	-1.910171	-0.264434	-0.252019
C52	C	-1.514136	-0.767865	-0.361706
C53	C	-1.433643	-0.840077	-0.277715
C54	C	-1.326039	-0.897849	-0.385281
C55	C	-1.298929	-0.883409	-0.576839
C56	C	-1.379424	-0.811193	-0.660841
C57	C	-1.487027	-0.753422	-0.553275
H58	H	-1.453710	-0.850769	-0.135903
H59	H	-1.266451	-0.951307	-0.323096
H60	H	-1.219274	-0.926175	-0.656465
H61	H	-1.359357	-0.800501	-0.802653
H62	H	-1.546615	-0.699963	-0.615460
H63	H	-1.786848	-0.247211	-0.089044
H64	H	-1.447639	-0.562335	-0.428140
H65	H	-1.493406	-0.404797	-0.382376
H66	H	-1.991415	-0.752797	0.115354
H67	H	-2.107388	-0.690501	0.231282
H68	H	-2.284846	-0.595212	0.408677
H69	H	-2.236201	-0.247140	0.360102
H70	H	-2.330620	-0.437666	0.454445
