data_functionalizedCrystal
_audit_creation_method	'MofGen! by Chris Wilmer'
_symmetry_space_group_name_H-M	'P1'
_symmetry_Int_Tables_number	1
_symmetry_cell_setting	triclinic
loop_
_symmetry_equiv_pos_as_xyz
  x,y,z
_cell_length_a	12.759401
_cell_length_b	25.639240
_cell_length_c	12.759393
_cell_angle_alpha	89.955715
_cell_angle_beta	89.981425
_cell_angle_gamma	90.033185
loop_
_atom_site_label
_atom_site_type_symbol
_atom_site_fract_x
_atom_site_fract_y
_atom_site_fract_z
Zn1	Zn	1.606123	-0.208114	-0.593892
Zn2	Zn	1.605962	-0.295561	-0.418174
Zn3	Zn	1.430425	-0.208142	-0.418231
Zn4	Zn	1.430358	-0.295521	-0.593815
O5	O	1.518217	-0.251834	-0.506028
O6	O	1.753123	-0.219719	-0.570591
O7	O	1.582637	-0.283993	-0.271160
O8	O	1.453827	-0.134973	-0.441590
O9	O	1.753005	-0.283966	-0.441491
O10	O	1.582912	-0.134952	-0.570647
O11	O	1.453671	-0.219766	-0.271202
O12	O	1.283395	-0.219728	-0.441514
O13	O	1.453713	-0.283898	-0.740846
O14	O	1.283346	-0.283925	-0.570515
O15	O	1.582847	-0.219680	-0.740903
O16	O	1.582573	-0.368721	-0.441416
O17	O	1.453557	-0.368691	-0.570459
C18	C	1.245250	-0.251825	-0.506013
C19	C	1.128473	-0.251834	-0.506032
C20	C	1.073673	-0.218441	-0.573358
C21	C	0.963949	-0.218446	-0.573364
C22	C	0.963835	-0.285242	-0.438717
C23	C	1.073557	-0.285234	-0.438705
C24	C	1.518069	-0.387677	-0.505946
C25	C	1.518101	-0.445791	-0.505946
C26	C	1.585465	-0.806105	-0.573349
C27	C	1.585496	-0.860709	-0.573371
O28	O	1.642594	-0.888904	-0.630595
N29	N	1.518363	-0.888073	-0.506129
C30	C	1.451187	-0.860830	-0.438870
O31	O	1.394088	-0.889120	-0.381679
C32	C	1.451152	-0.806227	-0.438855
C33	C	1.518297	-0.778866	-0.506093
C34	C	1.652603	-0.778743	-0.640583
C35	C	1.652574	-0.724143	-0.640560
C36	C	1.585405	-0.696904	-0.573303
C37	C	1.518267	-0.724265	-0.506070
C38	C	1.383971	-0.778985	-0.371601
C39	C	1.383941	-0.724378	-0.371593
C40	C	1.451086	-0.697017	-0.438831
C41	C	1.451068	-0.642425	-0.438790
N42	N	1.518201	-0.615061	-0.506032
C43	C	1.585370	-0.642300	-0.573288
C44	C	1.451266	-0.975501	-0.438909
C45	C	1.451306	-1.030103	-0.438918
C46	C	1.585613	-1.029978	-0.573420
C47	C	1.585578	-0.975375	-0.573405
C48	C	1.518398	-0.948137	-0.506150
C49	C	1.585302	-0.527635	-0.573234
C50	C	1.585270	-0.473030	-0.573202
C51	C	1.450959	-0.473160	-0.438704
C52	C	1.450995	-0.527760	-0.438732
C53	C	1.518170	-0.554997	-0.506005
O54	O	1.393996	-0.614196	-0.381598
O55	O	1.642450	-0.614004	-0.630479
C56	C	1.792250	-0.251844	-0.506043
C57	C	1.909027	-0.251848	-0.506050
C58	C	1.518291	-0.251781	-0.780061
C59	C	1.518322	-0.251759	-0.896838
C60	C	1.518395	-0.115461	-0.506134
C61	C	1.518471	-0.057347	-0.506179
C62	C	1.451193	-0.218310	-0.951722
C63	C	1.451218	-0.218294	-1.061446
C64	C	1.585508	-0.285177	-1.061393
C65	C	1.585478	-0.285195	-0.951671
C66	C	1.518205	-0.251849	-0.233061
C67	C	1.518377	-0.251724	-0.116284
H68	H	1.639951	-0.450754	-0.627955
C69	C	1.133431	-0.182146	-0.646276
C70	C	1.196447	-0.148603	-0.586916
C71	C	1.251517	-0.115163	-0.654052
H72	H	1.085195	-0.162209	-0.686395
H73	H	1.176296	-0.202155	-0.691955
H74	H	1.153586	-0.128596	-0.541254
H75	H	1.244703	-0.168525	-0.546798
H76	H	1.294382	-0.135173	-0.699732
H77	H	1.203274	-0.095230	-0.694169
H78	H	1.294287	-0.092404	-0.613787
C79	C	0.904642	-0.182172	-0.646580
C80	C	0.976225	-0.152932	-0.705553
C81	C	0.921630	-0.119514	-0.773022
H82	H	0.861840	-0.159323	-0.606604
H83	H	0.861862	-0.202192	-0.692337
H84	H	1.018986	-0.132914	-0.659802
H85	H	1.019029	-0.175768	-0.745550
H86	H	0.878850	-0.139534	-0.818779
H87	H	0.878830	-0.096668	-0.733037
H88	H	0.970190	-0.099674	-0.813049
H89	H	1.640185	-0.312399	-1.106051
C90	C	1.658480	-0.321533	-0.892264
C91	C	1.717325	-0.350799	-0.963766
C92	C	1.784588	-0.384273	-0.909079
H93	H	1.618361	-0.344364	-0.849437
H94	H	1.704327	-0.301553	-0.849502
H95	H	1.671484	-0.370777	-1.006510
H96	H	1.757465	-0.327981	-1.006596
H97	H	1.830435	-0.364293	-0.866317
H98	H	1.744461	-0.407101	-0.866253
H99	H	1.824529	-0.404130	-0.957584
H100	H	0.919108	-0.312435	-0.383903
C101	C	1.133196	-0.321523	-0.365776
C102	C	1.196206	-0.355054	-0.425125
C103	C	1.251170	-0.388482	-0.357979
H104	H	1.084897	-0.341468	-0.325661
H105	H	1.176056	-0.301505	-0.320091
H106	H	1.153349	-0.375070	-0.470791
H107	H	1.244524	-0.335123	-0.465237
H108	H	1.294031	-0.368465	-0.312294
H109	H	1.202864	-0.408424	-0.317868
H110	H	1.293936	-0.411234	-0.398237
H111	H	1.396274	-0.450973	-0.383941
C112	C	1.658346	-0.557106	-0.646317
C113	C	1.717145	-0.521448	-0.705168
C114	C	1.784453	-0.548578	-0.772491
H115	H	1.618262	-0.578402	-0.692165
H116	H	1.704219	-0.578397	-0.606208
H117	H	1.671277	-0.500167	-0.745274
H118	H	1.757250	-0.500151	-0.659348
H119	H	1.830327	-0.569868	-0.732382
H120	H	1.744360	-0.569873	-0.818332
H121	H	1.824363	-0.524388	-0.812422
H122	H	1.640252	-0.953100	-0.628156
C123	C	1.310882	-0.808652	-0.298734
C124	C	1.206922	-0.795402	-0.321558
C125	C	1.139554	-0.822724	-0.254462
H126	H	1.326143	-0.799748	-0.228116
H127	H	1.320432	-0.845080	-0.308371
H128	H	1.197376	-0.758982	-0.311912
H129	H	1.191629	-0.804307	-0.392164
H130	H	1.149104	-0.859152	-0.264099
H131	H	1.154824	-0.813818	-0.183847
H132	H	1.069010	-0.813742	-0.269945
H133	H	1.707245	-0.701868	-0.695314
C134	C	1.378503	-0.181950	-1.121172
C135	C	1.438046	-0.148441	-1.184226
C136	C	1.371091	-0.114959	-1.239272
H137	H	1.338477	-0.161991	-1.072923
H138	H	1.332728	-0.201930	-1.164010
H139	H	1.483803	-0.128463	-1.141392
H140	H	1.478069	-0.168386	-1.232495
H141	H	1.325315	-0.134939	-1.282110
H142	H	1.331068	-0.095004	-1.191015
H143	H	1.411480	-0.092223	-1.282067
H144	H	1.707300	-0.800915	-0.695357
H145	H	1.640304	-1.052166	-0.628186
H146	H	1.396641	-1.052376	-0.384154
C147	C	1.310873	-0.694778	-0.298744
C148	C	1.243467	-0.663440	-0.358163
C149	C	1.176136	-0.636171	-0.291092
H150	H	1.350949	-0.673439	-0.252969
H151	H	1.270831	-0.718879	-0.258724
H152	H	1.283504	-0.639341	-0.398165
H153	H	1.203368	-0.684766	-0.403935
H154	H	1.136094	-0.660273	-0.251072
H155	H	1.216221	-0.614836	-0.245320
H156	H	1.130387	-0.614910	-0.331398
H157	H	1.396563	-0.953326	-0.384133
C158	C	1.377986	-0.557376	-0.365687
C159	C	1.319142	-0.521831	-0.306798
C160	C	1.251857	-0.549090	-0.239516
H161	H	1.418089	-0.578687	-0.319861
H162	H	1.332139	-0.578662	-0.405827
H163	H	1.364983	-0.500554	-0.266661
H164	H	1.279018	-0.500519	-0.352596
H165	H	1.206010	-0.570376	-0.279656
H166	H	1.291968	-0.570400	-0.193697
H167	H	1.211916	-0.524977	-0.199558
H168	H	1.396510	-0.191084	-0.907080
