data_functionalizedCrystal
_audit_creation_method	'MofGen! by Chris Wilmer'
_symmetry_space_group_name_H-M	'P1'
_symmetry_Int_Tables_number	1
_symmetry_cell_setting	triclinic
loop_
_symmetry_equiv_pos_as_xyz
  x,y,z
_cell_length_a	15.625950
_cell_length_b	15.538191
_cell_length_c	11.804365
_cell_angle_alpha	97.089886
_cell_angle_beta	95.719470
_cell_angle_gamma	66.741480
loop_
_atom_site_label
_atom_site_type_symbol
_atom_site_fract_x
_atom_site_fract_y
_atom_site_fract_z
O1	O	1.066672	0.192312	0.361450
O2	O	0.825156	0.186949	0.257190
O3	O	0.992929	0.056463	0.329610
O4	O	0.898900	0.322799	0.289030
O5	O	0.948772	0.090778	0.508606
O6	O	0.781000	0.221264	0.436186
O7	O	1.022515	0.226627	0.540446
Cu8	Cu	0.897726	0.227079	0.504659
Cu9	Cu	0.949946	0.186498	0.292977
O10	O	0.854743	0.357113	0.468026
C11	C	0.772923	0.200945	0.333670
C12	C	0.683073	0.191513	0.294883
C13	C	0.267144	0.254043	0.655028
C14	C	0.182722	0.245188	0.618528
C15	C	0.230901	0.207784	0.423413
C16	C	0.315328	0.216640	0.459895
C17	C	0.333442	0.239768	0.575705
C18	C	0.381626	0.202365	0.380572
C19	C	0.466047	0.211216	0.417053
C20	C	0.484170	0.234340	0.532858
C21	C	0.417864	0.248618	0.612186
C22	C	0.363513	0.179231	0.264764
C23	C	0.429811	0.164956	0.185441
C24	C	0.514231	0.173813	0.221920
C25	C	0.532354	0.196937	0.337725
C26	C	0.580538	0.159535	0.142592
C27	C	0.664959	0.168385	0.179073
C28	C	0.616775	0.205788	0.374206
C29	C	0.980689	0.039353	0.423351
C30	C	1.009994	-0.062752	0.435990
C31	C	0.718871	-0.375077	0.310341
C32	C	0.746426	-0.471019	0.322239
C33	C	0.901417	-0.480398	0.389146
C34	C	0.873877	-0.384455	0.377249
C35	C	0.782602	-0.331802	0.337847
C36	C	0.937608	-0.341180	0.404755
C37	C	0.910068	-0.245245	0.392864
C38	C	0.818797	-0.192584	0.353467
C39	C	0.755063	-0.235866	0.325956
C40	C	1.028880	-0.393834	0.444164
C41	C	1.092611	-0.350559	0.471670
C42	C	1.065074	-0.254624	0.459772
C43	C	0.973803	-0.201963	0.420375
C44	C	1.128808	-0.211342	0.487283
C45	C	1.101269	-0.115406	0.475392
C46	C	0.946263	-0.106027	0.408484
C47	C	1.074750	0.212631	0.463963
C48	C	1.164601	0.222061	0.502744
C49	C	0.866984	0.374222	0.374283
C50	C	0.837680	0.476327	0.361636
N51	N	0.861003	0.255621	0.653548
N52	N	0.986678	0.157948	0.144091
C53	C	1.074868	0.089390	1.119813
C54	C	1.102649	0.067794	1.007144
C55	C	1.042240	0.114748	0.918740
C56	C	0.954045	0.183304	0.943016
C57	C	0.926264	0.204907	1.055698
C58	C	0.893636	0.230266	0.854624
C59	C	0.805441	0.298821	0.878900
C60	C	0.777664	0.320421	0.991572
C61	C	0.838073	0.273466	1.079976
C62	C	0.921417	0.208662	0.741942
C63	C	0.772812	0.324180	0.677826
C64	C	0.745031	0.345776	0.790496
H65	H	0.631518	0.224635	0.468507
O66	O	1.133569	0.043632	1.205571
C67	C	1.221135	-0.105414	1.281589
C68	C	1.154674	-0.053708	1.184377
H69	H	1.238203	-0.184120	1.264500
H70	H	1.288227	-0.092239	1.286011
H71	H	1.186120	-0.078145	1.366277
H72	H	1.189605	-0.080945	1.099637
H73	H	1.087587	-0.066882	1.180056
O74	O	0.412259	0.142615	0.072896
C75	C	0.394220	0.186740	-0.119407
C76	C	0.414131	0.212135	0.008010
H77	H	0.395708	0.242943	-0.171901
H78	H	0.449629	0.115676	-0.148820
H79	H	0.322510	0.182828	-0.131817
H80	H	0.485815	0.216099	0.020517
H81	H	0.358666	0.283180	0.037362
O82	O	1.217503	-0.262570	0.525367
C83	C	1.361409	-0.394152	0.484936
C84	C	1.260989	-0.336205	0.441654
H85	H	1.396590	-0.453710	0.417285
H86	H	1.402295	-0.346800	0.502504
H87	H	1.359659	-0.424882	0.567112
H88	H	1.262651	-0.305466	0.359454
H89	H	1.220144	-0.383598	0.424166
H90	H	0.975732	-0.523281	0.421232
H91	H	0.432606	0.267465	0.706486
O92	O	0.714152	0.369940	0.592029
C93	C	0.626476	0.519003	0.516101
C94	C	0.692915	0.467297	0.613330
H95	H	0.609270	0.597727	0.533301
H96	H	0.661455	0.491864	0.431374
H97	H	0.559458	0.505693	0.511687
H98	H	0.759947	0.480584	0.617850
H99	H	0.657864	0.494444	0.698009
O100	O	0.284616	0.276477	0.767576
C101	C	0.227900	0.312703	0.957266
C102	C	0.208000	0.287284	0.829852
H103	H	0.165961	0.321468	1.007649
H104	H	0.293100	0.254161	0.990902
H105	H	0.239352	0.381370	0.967557
H106	H	0.196504	0.218642	0.819462
H107	H	0.142822	0.345883	0.796275
H108	H	0.128732	0.256835	0.683128
O109	O	1.188158	0.000893	0.983557
C110	C	1.274452	-0.147865	0.880727
C111	C	1.177606	-0.072000	0.907214
H112	H	1.265953	-0.206827	0.819020
H113	H	1.316482	-0.115341	0.840223
H114	H	1.312623	-0.177622	0.963406
H115	H	1.139358	-0.042214	0.824586
H116	H	1.135646	-0.104573	0.947766
H117	H	0.871940	-0.063155	0.376391
O118	O	0.562988	0.137186	0.030049
C119	C	0.544949	0.181291	-0.162264
C120	C	0.564857	0.206700	-0.034850
H121	H	0.546434	0.237488	-0.214768
H122	H	0.600361	0.110225	-0.191667
H123	H	0.473240	0.177375	-0.174670
H124	H	0.636539	0.210668	-0.022347
H125	H	0.509389	0.277746	-0.005507
H126	H	0.815453	0.291046	1.171722
H127	H	1.153165	-0.080171	0.497792
H128	H	0.216142	0.188949	0.329121
O129	O	0.281432	0.170794	0.229333
C130	C	0.113741	0.247062	0.216139
C131	C	0.206624	0.256759	0.256307
H132	H	0.053235	0.316547	0.237954
H133	H	0.112129	0.228128	0.119736
H134	H	0.107100	0.189298	0.261066
H135	H	0.213326	0.314529	0.211463
H136	H	0.208196	0.275644	0.352721
H137	H	0.705855	0.376250	1.011337
H138	H	0.718940	0.156766	0.114479
H139	H	0.673221	0.401596	0.810277
O140	O	1.055777	-0.487027	0.455830
C141	C	1.180364	-0.629854	0.509553
C142	C	1.150022	-0.524318	0.496419
H143	H	1.256568	-0.660040	0.542347
H144	H	1.135071	-0.639509	0.572904
H145	H	1.171924	-0.668159	0.423040
H146	H	1.158463	-0.485946	0.582877
H147	H	1.195316	-0.514733	0.433014
H148	H	0.552913	0.241545	0.562559
O149	O	0.792113	-0.099371	0.342104
C150	C	0.772177	0.053523	0.436135
C151	C	0.802446	-0.052020	0.449161
H152	H	0.780502	0.091840	0.522682
H153	H	0.817542	0.063187	0.372887
H154	H	0.696008	0.083688	0.403197
H155	H	0.878599	-0.082254	0.482134
H156	H	0.757016	-0.061620	0.512374
O157	O	0.684633	-0.513192	0.295406
C158	C	0.648620	-0.633810	0.177223
C159	C	0.718686	-0.586148	0.207509
H160	H	0.676116	-0.692791	0.106140
H161	H	0.639179	-0.664198	0.255980
H162	H	0.578651	-0.579671	0.147078
H163	H	0.788694	-0.640232	0.237630
H164	H	0.728046	-0.555741	0.128726
O165	O	0.666353	-0.184841	0.287701
C166	C	0.515534	-0.185668	0.222495
C167	C	0.615954	-0.243558	0.265832
H168	H	0.474763	-0.233121	0.204779
H169	H	0.480225	-0.126171	0.290155
H170	H	0.517294	-0.154860	0.140384
H171	H	0.614279	-0.274430	0.347923
H172	H	0.651223	-0.303005	0.198100
H173	H	0.644548	-0.332204	0.278248
O174	O	1.069375	0.093774	0.809357
C175	C	1.180850	0.088068	0.678553
C176	C	1.150232	0.111846	0.802481
H177	H	1.246214	0.102688	0.672948
H178	H	1.196457	0.010600	0.651387
H179	H	1.122493	0.133377	0.619554
H180	H	1.208550	0.066599	0.861565
H181	H	1.134593	0.189332	0.829552
H182	H	0.993225	0.152845	0.722187
H183	H	1.166926	-0.393442	0.503756
