data_functionalizedCrystal
_audit_creation_method	'MofGen! by Chris Wilmer'
_symmetry_space_group_name_H-M	'P1'
_symmetry_Int_Tables_number	1
_symmetry_cell_setting	triclinic
loop_
_symmetry_equiv_pos_as_xyz
  x,y,z
_cell_length_a	12.759401
_cell_length_b	13.897448
_cell_length_c	12.759393
_cell_angle_alpha	90.029434
_cell_angle_beta	89.981266
_cell_angle_gamma	89.980270
loop_
_atom_site_label
_atom_site_type_symbol
_atom_site_fract_x
_atom_site_fract_y
_atom_site_fract_z
Zn1	Zn	1.606222	0.383966	-0.593987
Zn2	Zn	1.606101	0.545292	-0.418310
Zn3	Zn	1.430524	0.384013	-0.418327
Zn4	Zn	1.430498	0.545222	-0.593951
O5	O	1.518336	0.464623	-0.506144
O6	O	1.753227	0.405377	-0.570691
O7	O	1.582770	0.523947	-0.271291
O8	O	1.453892	0.249025	-0.441650
O9	O	1.753138	0.523902	-0.441622
O10	O	1.582977	0.248991	-0.570708
O11	O	1.453774	0.405456	-0.271303
O12	O	1.283499	0.405388	-0.441616
O13	O	1.453848	0.523782	-0.740977
O14	O	1.283480	0.523827	-0.570646
O15	O	1.582952	0.405308	-0.741004
O16	O	1.582745	0.680264	-0.441587
O17	O	1.453731	0.680213	-0.570630
C18	C	1.245369	0.464606	-0.506129
C19	C	1.128592	0.464621	-0.506148
C20	C	1.073748	0.526391	-0.573223
C21	C	0.964024	0.526403	-0.573235
C22	C	0.963998	0.402873	-0.439087
C23	C	1.073720	0.402857	-0.439082
C24	C	1.128620	0.588156	-0.640290
C25	C	1.073776	0.649932	-0.707370
C26	C	0.964052	0.649944	-0.707381
C27	C	0.909172	0.588180	-0.640313
C28	C	1.518251	0.715238	-0.506126
C29	C	1.518310	0.822452	-0.506153
C30	C	1.518413	1.018747	-0.506229
C31	C	1.518353	0.909514	-0.506190
C32	C	1.792369	0.464642	-0.506159
C33	C	1.909146	0.464650	-0.506165
C34	C	1.518411	0.464532	-0.780177
C35	C	1.518443	0.464493	-0.896954
C36	C	1.518442	1.213030	-0.506197
C37	C	1.518464	1.105816	-0.506252
C38	C	1.585696	0.402748	-1.061556
C39	C	1.585673	0.402791	-0.951832
C40	C	1.451238	0.526164	-0.951805
C41	C	1.451267	0.526125	-1.061528
C42	C	1.652923	0.341035	-1.116429
C43	C	1.720129	0.279365	-1.061585
C44	C	1.720107	0.279408	-0.951861
C45	C	1.652878	0.341120	-0.896981
C46	C	1.518322	0.464645	-0.233176
C47	C	1.518494	0.464412	-0.116400
H48	H	1.652946	0.340991	-1.205772
N49	N	1.132883	0.336233	-0.366741
H50	H	1.081475	0.297113	-0.324250
H51	H	1.178383	0.375437	-0.318047
N52	N	1.652852	0.341133	-0.778635
H53	H	1.580780	0.323397	-0.752214
H54	H	1.672171	0.407318	-0.752252
H55	H	1.774870	0.229127	-1.106276
N56	N	1.792598	0.212907	-0.892704
H57	H	1.835188	0.173810	-0.944119
H58	H	1.749842	0.168283	-0.847180
N59	N	1.378730	0.592720	-0.892619
H60	H	1.388908	0.583385	-0.814788
H61	H	1.303707	0.577695	-0.911795
N62	N	0.790826	0.588198	-0.640332
H63	H	0.764362	0.605853	-0.568230
H64	H	0.764502	0.522040	-0.659815
N65	N	1.378771	0.592606	-1.120705
H66	H	1.421452	0.637292	-1.166233
H67	H	1.336174	0.631639	-1.069242
N68	N	1.246963	0.588148	-0.640288
H69	H	1.273419	0.521998	-0.659727
H70	H	1.273275	0.605833	-0.568164
N71	N	1.132955	0.716545	-0.779707
H72	H	1.178512	0.677398	-0.828464
H73	H	1.178387	0.761181	-0.736846
N74	N	0.904895	0.716567	-0.779728
H75	H	0.956309	0.755691	-0.822208
H76	H	0.859346	0.761160	-0.736873
H77	H	0.919306	0.352589	-0.384482
