data_functionalizedCrystal
_audit_creation_method	'MofGen! by Chris Wilmer'
_symmetry_space_group_name_H-M	'P1'
_symmetry_Int_Tables_number	1
_symmetry_cell_setting	triclinic
loop_
_symmetry_equiv_pos_as_xyz
  x,y,z
_cell_length_a	16.109301
_cell_length_b	14.519709
_cell_length_c	15.186229
_cell_angle_alpha	89.995307
_cell_angle_beta	89.999362
_cell_angle_gamma	83.570813
loop_
_atom_site_label
_atom_site_type_symbol
_atom_site_fract_x
_atom_site_fract_y
_atom_site_fract_z
O1	O	1.103336	0.118540	-0.073175
O2	O	1.353336	0.368540	0.176825
O3	O	1.603336	0.618540	0.426825
O4	O	1.853336	0.868540	0.676825
O5	O	0.861299	0.133292	-0.073189
O6	O	1.111299	0.383292	0.176811
O7	O	1.361299	0.633292	0.426811
O8	O	1.611299	0.883292	0.676811
O9	O	0.988735	-0.008336	-0.073174
O10	O	1.238735	0.241664	0.176826
O11	O	1.488735	0.491664	0.426826
O12	O	1.738735	0.741664	0.676826
O13	O	0.975900	0.260168	-0.073190
O14	O	1.225900	0.510168	0.176810
O15	O	1.475900	0.760168	0.426810
O16	O	1.725900	1.010168	0.676810
O17	O	0.988726	-0.008338	0.073284
O18	O	1.238726	0.241662	0.323284
O19	O	1.488726	0.491662	0.573284
O20	O	1.738726	0.741662	0.823284
O21	O	0.861291	0.133290	0.073268
O22	O	1.111291	0.383290	0.323268
O23	O	1.361291	0.633290	0.573268
O24	O	1.611291	0.883290	0.823268
O25	O	1.103327	0.118538	0.073282
O26	O	1.353327	0.368538	0.323282
O27	O	1.603327	0.618538	0.573282
O28	O	1.853327	0.868538	0.823282
Zn29	Zn	0.982308	0.125914	0.096529
Zn30	Zn	1.232308	0.375914	0.346529
Zn31	Zn	1.482308	0.625914	0.596529
Zn32	Zn	1.732308	0.875914	0.846529
Zn33	Zn	0.982319	0.125916	-0.096435
Zn34	Zn	1.232319	0.375916	0.153565
Zn35	Zn	1.482319	0.625916	0.403565
Zn36	Zn	1.732319	0.875916	0.653565
O37	O	0.975892	0.260166	0.073267
O38	O	1.225892	0.510166	0.323267
O39	O	1.475892	0.760166	0.573267
O40	O	1.725892	1.010166	0.823267
C41	C	0.830319	0.132693	0.000038
C42	C	1.080319	0.382693	0.250038
C43	C	1.330319	0.632693	0.500038
C44	C	1.580319	0.882693	0.750038
C45	C	0.738021	0.130902	0.000033
C46	C	0.988021	0.380902	0.250033
C47	C	1.238021	0.630902	0.500033
C48	C	1.488021	0.880902	0.750033
C49	C	0.515887	0.210775	0.000038
C50	C	0.765887	0.460775	0.250038
C51	C	1.015887	0.710775	0.500038
C52	C	1.265887	0.960775	0.750038
C53	C	0.429163	0.209085	0.000044
C54	C	0.679163	0.459085	0.250044
C55	C	0.929163	0.709085	0.500044
C56	C	1.179163	0.959085	0.750044
C57	C	0.448747	0.041048	0.000050
C58	C	0.698747	0.291048	0.250050
C59	C	0.948747	0.541048	0.500050
C60	C	1.198747	0.791048	0.750050
C61	C	0.535468	0.042739	0.000051
C62	C	0.785468	0.292739	0.250051
C63	C	1.035468	0.542739	0.500051
C64	C	1.285468	0.792739	0.750051
C65	C	0.569036	0.127606	0.000040
C66	C	0.819036	0.377606	0.250040
C67	C	1.069036	0.627606	0.500040
C68	C	1.319036	0.877606	0.750040
C69	C	0.395591	0.124224	0.000045
C70	C	0.645591	0.374224	0.250045
C71	C	0.895591	0.624224	0.500045
C72	C	1.145591	0.874224	0.750045
C73	C	0.301562	0.122390	0.000052
C74	C	0.551562	0.372390	0.250052
C75	C	0.801562	0.622390	0.500052
C76	C	1.051562	0.872390	0.750052
C77	C	0.663071	0.129440	0.000036
C78	C	0.913071	0.379440	0.250036
C79	C	1.163071	0.629440	0.500036
C80	C	1.413071	0.879440	0.750036
C81	C	0.988132	-0.042696	0.000055
C82	C	1.238132	0.207304	0.250055
C83	C	1.488132	0.457304	0.500055
C84	C	1.738132	0.707304	0.750055
C85	C	0.986340	-0.145073	0.000056
C86	C	1.236340	0.104927	0.250056
C87	C	1.486340	0.354927	0.500056
C88	C	1.736340	0.604927	0.750056
C89	C	0.979741	-0.519955	0.000032
C90	C	1.229741	-0.269955	0.250032
C91	C	1.479741	-0.019955	0.500032
C92	C	1.729741	0.230045	0.750032
C93	C	0.981574	-0.415651	0.000039
C94	C	1.231574	-0.165651	0.250039
C95	C	1.481574	0.084349	0.500039
C96	C	1.731574	0.334349	0.750039
C97	C	0.983041	-0.332517	0.000045
C98	C	1.233041	-0.082517	0.250045
C99	C	1.483041	0.167483	0.500045
C100	C	1.733041	0.417483	0.750045
C101	C	0.984873	-0.228207	0.000050
C102	C	1.234873	0.021793	0.250050
C103	C	1.484873	0.271793	0.500050
C104	C	1.734873	0.521793	0.750050
C105	C	1.134307	0.119136	0.000054
C106	C	1.384307	0.369136	0.250054
C107	C	1.634307	0.619136	0.500054
C108	C	1.884307	0.869136	0.750054
C109	C	1.226606	0.120928	0.000053
C110	C	1.476606	0.370928	0.250053
C111	C	1.726606	0.620928	0.500053
C112	C	1.976606	0.870928	0.750053
C113	C	0.976494	0.294526	0.000036
C114	C	1.226494	0.544526	0.250036
C115	C	1.476494	0.794526	0.500036
C116	C	1.726494	1.044526	0.750036
C117	C	0.978287	0.396903	0.000030
C118	C	1.228287	0.646903	0.250030
C119	C	1.478287	0.896903	0.500030
C120	C	1.728287	1.146903	0.750030
N121	N	0.982306	0.125911	0.228221
N122	N	1.232306	0.375911	0.478221
N123	N	1.482306	0.625911	0.728221
N124	N	1.732306	0.875911	0.978221
N125	N	0.982327	0.125911	-0.228128
N126	N	1.232327	0.375911	0.021872
N127	N	1.482327	0.625911	0.271872
N128	N	1.732327	0.875911	0.521872
C129	C	1.038754	0.063219	0.453951
C130	C	1.288754	0.313219	0.703951
C131	C	1.538754	0.563219	0.953951
C132	C	1.788754	0.813219	1.203951
C133	C	1.038756	0.063217	0.546141
C134	C	1.288756	0.313217	0.796141
C135	C	1.538756	0.563217	1.046141
C136	C	1.788756	0.813217	1.296141
C137	C	0.925873	0.188606	0.546136
C138	C	1.175873	0.438606	0.796136
C139	C	1.425873	0.688606	1.046136
C140	C	1.675873	0.938606	1.296136
C141	C	0.925867	0.188603	0.453948
C142	C	1.175867	0.438603	0.703948
C143	C	1.425867	0.688603	0.953948
C144	C	1.675867	0.938603	1.203948
C145	C	0.982312	0.125911	0.407858
C146	C	1.232312	0.375911	0.657858
C147	C	1.482312	0.625911	0.907858
C148	C	1.732312	0.875911	1.157858
C149	C	0.982321	0.125912	0.592236
C150	C	1.232321	0.375912	0.842236
C151	C	1.482321	0.625912	1.092236
C152	C	1.732321	0.875912	1.342236
C153	C	0.982323	0.125910	0.692192
C154	C	1.232323	0.375910	0.942192
C155	C	1.482323	0.625910	1.192192
C156	C	1.732323	0.875910	1.442192
C157	C	0.982309	0.125911	0.307895
C158	C	1.232309	0.375911	0.557895
C159	C	1.482309	0.625911	0.807895
C160	C	1.732309	0.875911	1.057895
H161	H	1.084714	0.012170	0.416427
H162	H	1.334714	0.262170	0.666427
H163	H	1.584714	0.512170	0.916427
H164	H	1.834714	0.762170	1.166427
O165	O	1.099642	-0.004388	0.595859
O166	O	1.349642	0.245612	0.845859
O167	O	1.599642	0.495612	1.095859
O168	O	1.849642	0.745612	1.345859
H169	H	1.138895	-0.047972	0.548319
H170	H	1.388895	0.202028	0.798319
H171	H	1.638895	0.452028	1.048319
H172	H	1.888895	0.702028	1.298319
O173	O	0.865004	0.256233	0.595846
O174	O	1.115004	0.506233	0.845846
O175	O	1.365004	0.756233	1.095846
O176	O	1.615004	1.006233	1.345846
H177	H	0.874496	0.245713	0.667694
H178	H	1.124496	0.495713	0.917694
H179	H	1.374496	0.745713	1.167694
H180	H	1.624496	0.995713	1.417694
O181	O	0.412543	-0.050485	0.000056
O182	O	0.662543	0.199515	0.250056
O183	O	0.912543	0.449515	0.500056
O184	O	1.162543	0.699515	0.750056
H185	H	0.343311	-0.037691	0.000047
H186	H	0.593311	0.212309	0.250047
H187	H	0.843311	0.462309	0.500047
H188	H	1.093311	0.712309	0.750047
O189	O	0.864992	0.256226	0.404223
O190	O	1.114992	0.506226	0.654223
O191	O	1.364992	0.756226	0.904223
O192	O	1.614992	1.006226	1.154223
H193	H	0.825752	0.299831	0.451758
H194	H	1.075752	0.549831	0.701758
H195	H	1.325752	0.799831	0.951758
H196	H	1.575752	1.049831	1.201758
H197	H	0.543214	0.279879	0.000036
H198	H	0.793214	0.529879	0.250036
H199	H	1.043214	0.779879	0.500036
H200	H	1.293214	1.029879	0.750036
H201	H	0.385892	0.276810	0.000044
H202	H	0.635892	0.526810	0.250044
H203	H	0.885892	0.776810	0.500044
H204	H	1.135892	1.026810	0.750044
O205	O	0.592798	-0.046973	0.000059
O206	O	0.842798	0.203027	0.250059
O207	O	1.092798	0.453027	0.500059
O208	O	1.342798	0.703027	0.750059
H209	H	0.658739	-0.031537	0.000069
H210	H	0.908739	0.218463	0.250069
H211	H	1.158739	0.468463	0.500069
H212	H	1.408739	0.718463	0.750069
