data_functionalizedCrystal
_audit_creation_method	'MofGen! by Chris Wilmer'
_symmetry_space_group_name_H-M	'P1'
_symmetry_Int_Tables_number	1
_symmetry_cell_setting	triclinic
loop_
_symmetry_equiv_pos_as_xyz
  x,y,z
_cell_length_a	18.215407
_cell_length_b	16.625545
_cell_length_c	18.215399
_cell_angle_alpha	90.027013
_cell_angle_beta	89.982632
_cell_angle_gamma	89.978520
loop_
_atom_site_label
_atom_site_type_symbol
_atom_site_fract_x
_atom_site_fract_y
_atom_site_fract_z
Zn1	Zn	1.125076	0.321065	-0.416072
Zn2	Zn	1.458410	0.654398	-0.082739
Zn3	Zn	1.791743	0.987732	0.250594
Zn4	Zn	1.124986	0.455905	-0.293008
Zn5	Zn	1.458320	0.789238	0.040325
Zn6	Zn	1.791653	1.122572	0.373659
Zn7	Zn	1.002009	0.321084	-0.293025
Zn8	Zn	1.335342	0.654418	0.040308
Zn9	Zn	1.668675	0.987751	0.373642
Zn10	Zn	1.001977	0.455853	-0.416038
Zn11	Zn	1.335310	0.789187	-0.082705
Zn12	Zn	1.668643	1.122520	0.250629
O13	O	1.063512	0.388477	-0.354536
O14	O	1.396845	0.721810	-0.021202
O15	O	1.730179	1.055144	0.312131
O16	O	1.228049	0.338965	-0.399755
O17	O	1.561382	0.672299	-0.066421
O18	O	1.894715	1.005632	0.266912
O19	O	1.108649	0.438051	-0.190026
O20	O	1.441983	0.771384	0.143307
O21	O	1.775316	1.104717	0.476641
O22	O	1.018385	0.208249	-0.309369
O23	O	1.351718	0.541583	0.023965
O24	O	1.685052	0.874916	0.357298
O25	O	1.227983	0.438032	-0.309340
O26	O	1.561316	0.771365	0.023993
O27	O	1.894649	1.104699	0.357327
O28	O	1.108802	0.208235	-0.399771
O29	O	1.442136	0.541568	-0.066438
O30	O	1.775469	0.874902	0.266896
O31	O	1.018298	0.338998	-0.190038
O32	O	1.351631	0.672332	0.143295
O33	O	1.684965	1.005665	0.476628
O34	O	0.899020	0.338948	-0.309336
O35	O	1.232354	0.672281	0.023998
O36	O	1.565687	1.005615	0.357331
O37	O	1.018330	0.437943	-0.519027
O38	O	1.351663	0.771277	-0.185694
O39	O	1.684997	1.104610	0.147640
O40	O	0.898997	0.437962	-0.399713
O41	O	1.232330	0.771295	-0.066380
O42	O	1.565663	1.104629	0.266954
O43	O	1.108771	0.338915	-0.519052
O44	O	1.442104	0.672248	-0.185719
O45	O	1.775438	1.005582	0.147615
O46	O	1.108618	0.568731	-0.309307
O47	O	1.441951	0.902064	0.024027
O48	O	1.775285	1.235397	0.357360
O49	O	1.018243	0.568693	-0.399697
O50	O	1.351576	0.902026	-0.066363
O51	O	1.684910	1.235359	0.266970
C52	C	0.872306	0.388452	-0.354523
C53	C	1.205639	0.721785	-0.021190
C54	C	1.538972	1.055119	0.312144
C55	C	0.790507	0.388461	-0.354535
C56	C	1.123840	0.721794	-0.021202
C57	C	1.457174	1.055128	0.312132
C58	C	0.602346	0.336983	-0.401688
C59	C	0.935680	0.670316	-0.068355
C60	C	1.269013	1.003650	0.264978
C61	C	0.525488	0.336990	-0.401691
C62	C	0.858821	0.670323	-0.068357
C63	C	1.192154	1.003657	0.264976
C64	C	0.525430	0.439993	-0.307396
C65	C	0.858763	0.773327	0.025937
C66	C	1.192096	1.106660	0.359270
C67	C	0.602287	0.439982	-0.307391
C68	C	0.935620	0.773315	0.025943
C69	C	1.268954	1.106648	0.359276
C70	C	0.640743	0.388478	-0.354541
C71	C	0.974077	0.721811	-0.021207
C72	C	1.307410	1.055144	0.312126
C73	C	0.487027	0.388496	-0.354549
C74	C	0.820361	0.721830	-0.021216
C75	C	1.153694	1.055163	0.312118
C76	C	0.403694	0.388504	-0.354551
C77	C	0.737027	0.721837	-0.021218
C78	C	1.070360	1.055171	0.312115
C79	C	0.724082	0.388469	-0.354538
C80	C	1.057416	0.721802	-0.021204
C81	C	1.390749	1.055135	0.312129
C82	C	1.063437	0.597968	-0.354512
C83	C	1.396770	0.931301	-0.021179
C84	C	1.730104	1.264634	0.312154
C85	C	1.063472	0.687589	-0.354527
C86	C	1.396806	1.020922	-0.021193
C87	C	1.730139	1.354256	0.312140
C88	C	1.063593	1.015764	-0.354615
C89	C	1.396926	1.349098	-0.021281
C90	C	1.730259	1.682431	0.312052
C91	C	1.063557	0.924456	-0.354592
C92	C	1.396890	1.257789	-0.021259
C93	C	1.730223	1.591123	0.312074
C94	C	1.063532	0.851680	-0.354570
C95	C	1.396865	1.185013	-0.021237
C96	C	1.730199	1.518346	0.312096
C97	C	1.063497	0.760365	-0.354549
C98	C	1.396831	1.093699	-0.021215
C99	C	1.730164	1.427032	0.312118
C100	C	1.255465	0.388502	-0.354549
C101	C	1.588798	0.721836	-0.021216
C102	C	1.922132	1.055169	0.312117
C103	C	1.337264	0.388513	-0.354555
C104	C	1.670597	0.721847	-0.021222
C105	C	2.003930	1.055180	0.312112
C106	C	1.063601	1.178168	-0.354584
C107	C	1.396934	1.511501	-0.021251
C108	C	1.730268	1.844835	0.312082
C109	C	1.063623	1.088547	-0.354627
C110	C	1.396956	1.421880	-0.021294
C111	C	1.730290	1.755213	0.312040
C112	C	1.063557	0.388421	-0.546489
C113	C	1.396890	0.721755	-0.213155
C114	C	1.730224	1.055088	0.120178
C115	C	1.063576	0.388398	-0.628288
C116	C	1.396909	0.721731	-0.294954
C117	C	1.730243	1.055064	0.038379
C118	C	1.110685	0.336785	-0.816496
C119	C	1.444019	0.670119	-0.483163
C120	C	1.777352	1.003452	-0.149829
C121	C	1.110694	0.336762	-0.893355
C122	C	1.444028	0.670095	-0.560021
C123	C	1.777361	1.003428	-0.226688
C124	C	1.016519	0.439885	-0.893317
C125	C	1.349852	0.773219	-0.559984
C126	C	1.683185	1.106552	-0.226651
C127	C	1.016507	0.439904	-0.816460
C128	C	1.349840	0.773237	-0.483127
C129	C	1.683173	1.106571	-0.149793
C130	C	1.063594	0.388355	-0.778051
C131	C	1.396928	0.721689	-0.444718
C132	C	1.730261	1.055022	-0.111385
C133	C	1.063615	0.388313	-0.931767
C134	C	1.396948	0.721646	-0.598434
C135	C	1.730282	1.054980	-0.265101
C136	C	1.063624	0.388288	-1.015101
C137	C	1.396957	0.721621	-0.681768
C138	C	1.730291	1.054955	-0.348435
C139	C	1.063584	0.388379	-0.694712
C140	C	1.396918	0.721712	-0.361379
C141	C	1.730251	1.055046	-0.028046
C142	C	1.063510	0.388474	-0.163330
C143	C	1.396843	0.721807	0.170004
C144	C	1.730176	1.055141	0.503337
C145	C	1.063633	0.388271	-0.081531
C146	C	1.396967	0.721604	0.251802
C147	C	1.730300	1.054937	0.585136
H148	H	0.494228	0.295057	-0.440082
H149	H	0.827561	0.628390	-0.106748
H150	H	1.160895	0.961723	0.226585
O151	O	0.965698	0.495525	-0.775001
O152	O	1.299031	0.828858	-0.441667
O153	O	1.632365	1.162192	-0.108334
H154	H	0.998600	0.536563	-0.739970
H155	H	1.331933	0.869896	-0.406637
H156	H	1.665266	1.203229	-0.073303
O157	O	0.643828	0.281425	-0.452530
O158	O	0.977161	0.614758	-0.119196
O159	O	1.310495	0.948091	0.214137
H160	H	0.604212	0.245612	-0.485308
H161	H	0.937546	0.578945	-0.151974
H162	H	1.270879	0.912278	0.181359
O163	O	0.643706	0.495521	-0.256530
O164	O	0.977039	0.828855	0.076803
O165	O	1.310372	1.162188	0.410137
H166	H	0.678733	0.536580	-0.289397
H167	H	1.012066	0.869913	0.043936
H168	H	1.345400	1.203246	0.377269
O169	O	0.483953	0.495546	-0.256546
O170	O	0.817287	0.828880	0.076787
O171	O	1.150620	1.162213	0.410121
H172	H	0.424058	0.486910	-0.264474
H173	H	0.757392	0.820243	0.068859
H174	H	1.090725	1.153576	0.402192
O175	O	1.161467	0.281187	-0.775065
O176	O	1.494800	0.614521	-0.441732
O177	O	1.828134	0.947854	-0.108398
H178	H	1.148869	0.217900	-0.789822
H179	H	1.482203	0.551233	-0.456489
H180	H	1.815536	0.884566	-0.123156
O181	O	1.161489	0.281145	-0.934823
O182	O	1.494822	0.614478	-0.601490
O183	O	1.828156	0.947812	-0.268156
H184	H	1.194232	0.245310	-0.895200
H185	H	1.527565	0.578644	-0.561867
H186	H	1.860898	0.911977	-0.228534
H187	H	0.978183	0.481856	-0.924599
H188	H	1.311516	0.815189	-0.591266
H189	H	1.644850	1.148523	-0.257933
