data_functionalizedCrystal
_audit_creation_method	'MofGen! by Chris Wilmer'
_symmetry_space_group_name_H-M	'P1'
_symmetry_Int_Tables_number	1
_symmetry_cell_setting	triclinic
loop_
_symmetry_equiv_pos_as_xyz
  x,y,z
_cell_length_a	23.532407
_cell_length_b	15.625711
_cell_length_c	22.010155
_cell_angle_alpha	71.943796
_cell_angle_beta	89.997120
_cell_angle_gamma	96.415829
loop_
_atom_site_label
_atom_site_type_symbol
_atom_site_fract_x
_atom_site_fract_y
_atom_site_fract_z
O1	O	0.074447	-1.195336	0.212697
O2	O	0.083282	-0.932830	0.154888
O3	O	-0.004032	-1.071999	0.185547
O4	O	0.161761	-1.056167	0.182038
O5	O	-0.004021	-1.071958	0.286588
O6	O	0.083293	-0.932790	0.255929
O7	O	0.074457	-1.195295	0.313739
Cu8	Cu	0.078876	-1.064039	0.294060
Cu9	Cu	0.078864	-1.064086	0.174567
O10	O	0.161771	-1.056127	0.283080
C11	C	0.082883	-0.899232	0.198014
C12	C	0.081672	-0.799181	0.175981
C13	C	0.077748	-0.469921	0.378832
C14	C	0.076621	-0.375905	0.358100
C15	C	0.076611	-0.375996	0.247959
C16	C	0.077740	-0.470013	0.268681
C17	C	0.078308	-0.516968	0.334119
C18	C	0.078301	-0.517060	0.223968
C19	C	0.079427	-0.611070	0.244689
C20	C	0.079993	-0.658032	0.310124
C21	C	0.079435	-0.610978	0.354840
C22	C	0.077729	-0.470104	0.158532
C23	C	0.078289	-0.517151	0.113818
C24	C	0.079419	-0.611161	0.134539
C25	C	0.079986	-0.658124	0.199973
C26	C	0.079978	-0.658216	0.089823
C27	C	0.081104	-0.752225	0.110544
C28	C	0.081112	-0.752133	0.220695
C29	C	-0.025244	-1.071575	0.235980
C30	C	-0.088467	-1.070363	0.235718
C31	C	-0.487237	-1.145118	0.252147
C32	C	-0.546642	-1.143992	0.251895
O33	O	-0.583079	-1.213290	0.267133
N34	N	-0.569637	-1.061256	0.233675
C35	C	-0.533222	-0.979641	0.215701
O36	O	-0.558236	-0.909164	0.200180
C37	C	-0.473818	-0.980768	0.215949
C38	C	-0.450827	-1.063509	0.234176
C39	C	-0.464246	-1.227852	0.270372
C40	C	-0.404845	-1.228978	0.270626
C41	C	-0.368435	-1.147369	0.252655
C42	C	-0.391426	-1.064635	0.234430
C43	C	-0.437405	-0.899154	0.197971
C44	C	-0.377997	-0.900288	0.198220
C45	C	-0.355007	-0.983029	0.216447
C46	C	-0.295615	-0.984151	0.216712
N47	N	-0.272621	-1.066887	0.234932
C48	C	-0.309031	-1.148496	0.252903
C49	C	-0.657975	-0.977281	0.215179
C50	C	-0.717378	-0.976153	0.214935
C51	C	-0.730794	-1.140504	0.251128
C52	C	-0.671390	-1.141631	0.251377
C53	C	-0.634981	-1.060016	0.233399
C54	C	-0.184284	-1.150854	0.253435
C55	C	-0.124877	-1.151972	0.253689
C56	C	-0.111466	-0.987621	0.217493
C57	C	-0.170868	-0.986502	0.217242
C58	C	-0.207276	-1.068126	0.235212
O59	O	-0.259144	-0.914890	0.201479
O60	O	-0.284009	-1.218961	0.268414
C61	C	0.182984	-1.056550	0.232645
C62	C	0.246207	-1.057762	0.232903
C63	C	0.074852	-0.228894	0.270620
C64	C	0.076051	-0.328948	0.292677
N65	N	0.078884	-1.064012	0.378107
N66	N	0.078851	-1.064121	0.090522
C67	C	0.044251	-1.009712	0.658758
C68	C	0.044253	-1.009704	0.595149
O69	O	0.014808	-0.963501	0.552081
N70	N	0.078866	-1.064047	0.575299
C71	C	0.113475	-1.118410	0.619063
O72	O	0.142916	-1.164633	0.596338
C73	C	0.113469	-1.118422	0.682672
C74	C	0.078858	-1.064068	0.702517
C75	C	0.009642	-0.955363	0.678604
C76	C	0.009641	-0.955370	0.742209
C77	C	0.044248	-1.009726	0.785968
C78	C	0.078856	-1.064075	0.766122
C79	C	0.148074	-1.172788	0.726436
C80	C	0.148064	-1.172796	0.790049
C81	C	0.113453	-1.118442	0.809894
C82	C	0.113462	-1.118437	0.873485
N83	N	0.078849	-1.064094	0.893336
C84	C	0.044242	-1.009738	0.849577
C85	C	0.113484	-1.118381	0.485479
C86	C	0.113494	-1.118365	0.421870
C87	C	0.044271	-1.009660	0.397961
C88	C	0.044265	-1.009672	0.461570
C89	C	0.078871	-1.064037	0.505329
C90	C	0.044241	-1.009756	0.983152
C91	C	0.044244	-1.009765	1.046763
C92	C	0.113464	-1.118473	1.070668
C93	C	0.113463	-1.118461	1.007062
C94	C	0.078847	-1.064100	0.963305
O95	O	0.142890	-1.164619	0.916589
O96	O	0.014800	-0.963531	0.872313
H97	H	0.081563	-0.790531	0.074134
Cl98	Cl	0.078469	-0.528956	0.461097
H99	H	0.076179	-0.337600	0.394516
H100	H	0.081583	-0.790365	0.273980
Cl101	Cl	-0.095978	-1.255997	0.276604
Cl102	Cl	0.156999	-1.186725	0.540484
H103	H	0.079906	-0.649210	0.408125
H104	H	0.141655	-1.162707	0.990901
H105	H	0.080910	-0.734581	0.326994
Cl106	Cl	0.075878	-0.316962	0.165699
Cl107	Cl	0.156971	-1.186798	1.125689
H108	H	0.176245	-1.217070	0.825677
Cl109	Cl	-0.033876	-0.887039	0.767148
H110	H	-0.213921	-1.217320	0.268066
H111	H	0.176257	-1.217051	0.710291
H112	H	-0.386131	-1.296354	0.285466
Cl113	Cl	0.076295	-0.351922	0.132483
Cl114	Cl	0.077556	-0.458117	0.031558
H115	H	0.079510	-0.619972	0.036544
Cl116	Cl	-0.466293	-0.795130	0.175051
H117	H	-0.493885	-1.294312	0.285005
Cl118	Cl	-0.065683	-0.885033	0.194901
H119	H	-0.652676	-1.209006	0.266218
H120	H	-0.760450	-1.206954	0.265759
Cl121	Cl	-0.746273	-0.872131	0.192032
H122	H	0.016054	-0.965490	0.947532
H123	H	-0.348355	-0.833826	0.183579
H124	H	0.016060	-0.965499	1.062916
Cl125	Cl	-0.612209	-0.874668	0.192583
Cl126	Cl	-0.033864	-0.887011	0.623601
Cl127	Cl	-0.199771	-0.882484	0.194339
H128	H	0.016082	-0.965412	0.477722
H129	H	0.016092	-0.965400	0.362320
Cl130	Cl	0.157018	-1.186680	0.396927
