data_functionalizedCrystal
_audit_creation_method	'MofGen! by Chris Wilmer'
_symmetry_space_group_name_H-M	'P1'
_symmetry_Int_Tables_number	1
_symmetry_cell_setting	triclinic
loop_
_symmetry_equiv_pos_as_xyz
  x,y,z
_cell_length_a	12.811438
_cell_length_b	9.198806
_cell_length_c	10.723023
_cell_angle_alpha	89.994178
_cell_angle_beta	84.255740
_cell_angle_gamma	95.432358
loop_
_atom_site_label
_atom_site_type_symbol
_atom_site_fract_x
_atom_site_fract_y
_atom_site_fract_z
O1	O	1.393872	0.062904	0.168098
O2	O	1.088421	0.022625	0.186371
O3	O	1.248193	0.043700	-0.004377
O4	O	1.234100	0.041829	0.358845
O5	O	1.248192	0.285485	-0.004392
O6	O	1.088420	0.264410	0.186355
O7	O	1.393872	0.304689	0.168083
Cu8	Cu	1.241146	0.306626	0.177218
Cu9	Cu	1.241146	0.020688	0.177236
O10	O	1.234100	0.283614	0.358830
C11	C	1.049309	0.138360	0.185338
C12	C	0.932770	0.122992	0.182270
C13	C	0.768510	-0.030448	0.177954
C14	C	0.878009	-0.016021	0.180836
C15	C	0.878024	0.247588	0.180819
C16	C	0.768524	0.233161	0.177937
C17	C	0.713771	0.094139	0.176507
C18	C	0.604269	0.079713	0.173634
C19	C	0.604286	0.343321	0.173608
C20	C	0.713785	0.357748	0.176490
C21	C	1.247167	0.164455	-0.050879
C22	C	1.244099	0.164046	-0.189418
C23	C	1.432983	0.188951	0.169115
C24	C	1.549523	0.204309	0.172183
N25	N	1.241147	-0.180426	0.177239
C26	C	1.308377	-0.243755	0.096971
C27	C	1.308381	-0.411167	0.096951
N28	N	1.241153	0.507741	0.177204
C29	C	1.242732	0.038612	-0.251169
C30	C	1.239561	0.038186	-0.394357
C31	C	1.235125	0.162855	0.405332
C32	C	1.238193	0.163255	0.543871
H33	H	0.723927	-0.143646	0.176803
C34	C	1.386134	-0.149572	0.004147
N35	N	1.444702	-0.078634	-0.065772
C36	C	0.938218	-0.153076	0.182428
N37	N	0.983567	-0.256313	0.183627
H38	H	1.242916	0.271119	-0.242556
C39	C	0.544065	0.480375	0.172015
N40	N	0.498705	0.583602	0.170817
C41	C	0.544043	-0.073214	0.172054
N42	N	0.498684	-0.188402	0.170858
C43	C	0.938261	0.400500	0.182490
N44	N	0.983629	0.515674	0.183789
H45	H	1.365936	-0.465662	0.028226
C46	C	0.774021	0.510664	0.178120
N47	N	0.819386	0.625844	0.179372
H48	H	1.183588	-0.437775	0.245924
H49	H	1.183596	-0.250146	0.245950
C50	C	1.244328	-0.106045	-0.179389
N51	N	1.245534	-0.215004	-0.125326
C52	C	1.237972	-0.106898	-0.466095
N53	N	1.236774	-0.216180	-0.520131
C54	C	1.239779	0.308345	-0.384398
N55	N	1.240972	0.417626	-0.330361
