data_functionalizedCrystal
_audit_creation_method	'MofGen! by Chris Wilmer'
_symmetry_space_group_name_H-M	'P1'
_symmetry_Int_Tables_number	1
_symmetry_cell_setting	triclinic
loop_
_symmetry_equiv_pos_as_xyz
  x,y,z
_cell_length_a	10.654550
_cell_length_b	9.798715
_cell_length_c	10.723023
_cell_angle_alpha	90.002139
_cell_angle_beta	84.476239
_cell_angle_gamma	90.000450
loop_
_atom_site_label
_atom_site_type_symbol
_atom_site_fract_x
_atom_site_fract_y
_atom_site_fract_z
O1	O	1.667813	0.113386	0.175272
O2	O	2.167813	0.613386	0.675272
O3	O	1.302332	0.113411	0.191971
O4	O	1.802332	0.613411	0.691971
O5	O	1.493503	0.113392	0.002047
O6	O	1.993503	0.613392	0.502047
O7	O	1.476642	0.113404	0.365197
O8	O	1.976642	0.613404	0.865197
O9	O	1.493489	-0.113590	0.002046
O10	O	1.993489	0.386410	0.502046
O11	O	1.302318	-0.113572	0.191971
O12	O	1.802318	0.386428	0.691971
O13	O	1.667799	-0.113596	0.175272
O14	O	2.167799	0.386404	0.675272
Zn15	Zn	1.485056	-0.149622	0.183621
Zn16	Zn	1.985056	0.350378	0.683621
Zn17	Zn	1.485075	0.149437	0.183622
Zn18	Zn	1.985075	0.649437	0.683622
O19	O	1.476627	-0.113578	0.365196
O20	O	1.976627	0.386422	0.865196
C21	C	1.255527	-0.000077	0.190745
C22	C	1.755527	0.499923	0.690745
C23	C	1.116084	-0.000068	0.187077
C24	C	1.616084	0.499932	0.687077
N25	N	1.485052	-0.353722	0.183620
N26	N	1.985052	0.146278	0.683620
C27	C	1.036582	-0.000068	0.298901
C28	C	1.536582	0.499932	0.798901
C29	C	0.905561	-0.000092	0.295447
C30	C	1.405561	0.499908	0.795447
C31	C	0.933559	-0.000110	0.068334
C32	C	1.433559	0.499890	0.568334
C33	C	1.064577	-0.000096	0.071789
C34	C	1.564577	0.499904	0.571789
C35	C	1.565320	-0.421507	0.103525
C36	C	2.065320	0.078493	0.603525
C37	C	1.565340	-0.578669	0.103520
C38	C	2.065340	-0.078669	0.603520
C39	C	1.714604	-0.000105	0.176498
C40	C	2.214604	0.499895	0.676498
C41	C	1.854046	-0.000106	0.180167
C42	C	2.354046	0.499894	0.680167
C43	C	1.492269	-0.000097	-0.044453
C44	C	1.992269	0.499903	0.455547
C45	C	1.488599	-0.000093	-0.183008
C46	C	1.988599	0.499907	0.316992
N47	N	1.485088	0.353536	0.183613
N48	N	1.985088	0.853536	0.683613
C49	C	1.486970	0.117493	-0.244774
C50	C	1.986970	0.617493	0.255226
C51	C	1.483176	0.117500	-0.387977
C52	C	1.983176	0.617500	0.112023
C53	C	1.477861	-0.000085	0.411696
C54	C	1.977861	0.499915	0.911696
C55	C	1.481532	-0.000081	0.550251
C56	C	1.981532	0.499919	1.050251
H57	H	1.078514	-0.000056	0.392775
H58	H	1.578514	0.499944	0.892775
Cl59	Cl	1.378987	-0.556480	0.289500
Cl60	Cl	1.878987	-0.056480	0.789500
Cl61	Cl	0.868798	-0.000136	-0.076591
Cl62	Cl	1.368798	0.499864	0.423409
Cl63	Cl	1.483704	-0.155520	-0.367756
Cl64	Cl	1.983704	0.344480	0.132244
H65	H	1.487177	-0.100756	-0.236145
H66	H	1.987177	0.399244	0.263855
Cl67	Cl	1.671115	-0.331478	-0.002629
Cl68	Cl	2.171115	0.168522	0.497371
Cl69	Cl	0.805620	-0.000094	0.436033
Cl70	Cl	1.305620	0.499906	0.936033
H71	H	1.129312	-0.000099	-0.019278
H72	H	1.629312	0.499901	0.480722
H73	H	1.416342	-0.412040	0.252185
H74	H	1.916342	0.087960	0.752185
Cl75	Cl	1.671451	-0.668662	-0.002350
Cl76	Cl	2.171451	-0.168662	0.497650
H77	H	1.481781	0.218169	-0.441095
H78	H	1.981781	0.718169	0.058905
Cl79	Cl	1.489182	0.272918	-0.162747
Cl80	Cl	1.989182	0.772918	0.337253
