data_functionalizedCrystal
_audit_creation_method	'MofGen! by Chris Wilmer'
_symmetry_space_group_name_H-M	'P1'
_symmetry_Int_Tables_number	1
_symmetry_cell_setting	triclinic
loop_
_symmetry_equiv_pos_as_xyz
  x,y,z
_cell_length_a	21.395362
_cell_length_b	12.645330
_cell_length_c	21.395355
_cell_angle_alpha	89.987670
_cell_angle_beta	89.956060
_cell_angle_gamma	90.033572
loop_
_atom_site_label
_atom_site_type_symbol
_atom_site_fract_x
_atom_site_fract_y
_atom_site_fract_z
Zn1	Zn	0.957916	-0.421713	-0.354613
Zn2	Zn	0.957842	-0.598962	-0.249846
Zn3	Zn	0.853131	-0.421762	-0.249814
Zn4	Zn	0.853124	-0.598984	-0.354551
O5	O	0.905503	-0.510355	-0.302206
O6	O	1.045584	-0.445196	-0.340754
O7	O	0.943924	-0.575468	-0.162164
O8	O	0.867065	-0.273408	-0.263728
O9	O	1.045530	-0.575420	-0.263783
O10	O	0.944050	-0.273372	-0.340723
O11	O	0.866993	-0.445280	-0.162140
O12	O	0.765452	-0.445301	-0.263668
O13	O	0.867053	-0.575457	-0.442237
O14	O	0.765447	-0.575505	-0.340618
O15	O	0.944043	-0.445217	-0.442282
O16	O	0.943918	-0.747312	-0.263724
O17	O	0.866981	-0.747328	-0.340650
C18	C	0.742716	-0.510411	-0.302133
C19	C	0.673074	-0.510461	-0.302117
C20	C	0.640375	-0.578348	-0.342125
C21	C	0.574940	-0.578322	-0.342153
C22	C	0.542206	-0.510420	-0.302162
C23	C	0.574913	-0.442520	-0.262151
C24	C	0.640348	-0.442540	-0.262129
C25	C	0.438480	-0.501880	-0.245756
C26	C	0.373047	-0.501867	-0.245777
C27	C	0.340386	-0.510351	-0.302231
C28	C	0.373165	-0.518870	-0.358665
C29	C	0.438599	-0.518890	-0.358643
C30	C	0.471254	-0.510390	-0.302182
C31	C	0.236734	-0.578213	-0.342272
C32	C	0.171297	-0.578180	-0.342301
C33	C	0.171272	-0.442383	-0.262294
C34	C	0.236707	-0.442411	-0.262271
C35	C	0.269434	-0.510332	-0.302259
C36	C	0.905458	-0.785785	-0.302197
C37	C	0.905495	-0.903615	-0.302214
C38	C	0.857295	-1.071233	-0.350758
C39	C	0.857048	-0.948674	-0.350602
C40	C	0.887617	-0.948193	-0.236177
C41	C	0.887323	-1.070792	-0.236472
C42	C	0.971870	-1.070679	-0.319173
C43	C	0.971463	-0.948073	-0.320616
C44	C	1.068927	-0.510300	-0.302279
C45	C	1.138568	-0.510276	-0.302311
C46	C	0.905555	-0.510334	-0.465629
C47	C	0.905578	-0.510325	-0.535271
C48	C	0.905566	-0.233850	-0.302228
C49	C	0.905593	-0.116020	-0.302238
C50	C	0.945665	-0.442506	-0.568008
C51	C	0.945664	-0.442460	-0.633444
C52	C	0.905582	-0.510252	-0.666139
C53	C	0.865488	-0.578076	-0.633393
C54	C	0.865485	-0.578112	-0.567959
C55	C	0.900619	-0.605707	-0.769809
C56	C	0.900626	-0.605673	-0.835242
C57	C	0.905586	-0.510140	-0.867960
C58	C	0.910553	-0.414639	-0.835237
C59	C	0.910550	-0.414676	-0.769803
C60	C	0.905580	-0.510220	-0.737091
C61	C	0.945675	-0.442266	-0.971650
C62	C	0.945669	-0.442219	-1.037087
C63	C	0.865496	-0.577844	-1.037035
C64	C	0.865498	-0.577882	-0.971600
C65	C	0.905591	-0.510095	-0.938911
C66	C	0.905488	-0.510300	-0.139418
C67	C	0.905587	-0.510011	-0.069778
H68	H	0.465068	-0.494967	-0.199781
H69	H	0.988178	-1.101533	-0.366510
H70	H	0.914593	-0.336915	-0.743162
H71	H	0.896413	-0.683481	-0.743176
H72	H	0.346364	-0.494937	-0.199825
C73	C	0.989771	-0.367690	-0.935690
N74	N	1.022984	-0.311516	-0.908607
H75	H	1.009343	-0.917393	-0.287852
H76	H	0.144674	-0.633460	-0.374884
C77	C	0.790659	-0.909200	-0.335488
N78	N	0.740648	-0.879469	-0.324120
C79	C	0.538905	-0.367827	-0.218161
N80	N	0.511784	-0.311564	-0.185027
C81	C	0.676371	-0.653059	-0.386116
N82	N	0.703484	-0.709332	-0.419250
C83	C	0.989759	-0.367923	-0.532055
N84	N	1.022969	-0.311742	-0.504973
H85	H	0.144621	-0.387091	-0.229735
H86	H	0.465285	-0.525824	-0.404593
H87	H	1.007853	-1.099637	-0.283834
C88	C	0.676318	-0.367861	-0.218112
N89	N	0.703412	-0.311615	-0.184956
C90	C	0.989768	-0.367857	-0.669462
N91	N	1.022990	-0.311669	-0.696590
H92	H	0.838874	-1.099500	-0.222129
H93	H	0.808467	-1.102153	-0.339680
H94	H	0.920975	-1.100419	-0.199087
C95	C	0.989693	-0.908663	-0.386260
N96	N	1.003427	-0.878960	-0.435698
H97	H	0.868234	-0.918533	-0.399567
H98	H	0.548311	-0.633603	-0.374734
H99	H	0.263332	-0.387135	-0.229689
C100	C	0.821395	-0.652643	-0.669360
N101	N	0.788181	-0.708805	-0.696449
H102	H	0.832855	-0.633031	-1.063655
H103	H	0.914593	-0.336848	-0.861874
C104	C	0.933630	-0.908755	-0.186000
N105	N	0.968287	-0.879045	-0.148207
H106	H	0.978312	-0.386986	-1.063741
H107	H	0.832859	-0.633114	-0.944945
C108	C	0.895163	-0.710725	-0.871231
N109	N	0.891046	-0.789853	-0.898337
H110	H	0.839674	-0.917599	-0.221575
H111	H	0.832838	-0.633337	-0.541305
H112	H	0.346573	-0.525777	-0.404635
H113	H	0.263381	-0.633513	-0.374837
H114	H	0.868378	-1.100658	-0.399884
