data_functionalizedCrystal
_audit_creation_method	'MofGen! by Chris Wilmer'
_symmetry_space_group_name_H-M	'P1'
_symmetry_Int_Tables_number	1
_symmetry_cell_setting	triclinic
loop_
_symmetry_equiv_pos_as_xyz
  x,y,z
_cell_length_a	23.532407
_cell_length_b	23.532407
_cell_length_c	18.266242
_cell_angle_alpha	89.988983
_cell_angle_beta	89.993638
_cell_angle_gamma	82.848712
loop_
_atom_site_label
_atom_site_type_symbol
_atom_site_fract_x
_atom_site_fract_y
_atom_site_fract_z
O1	O	0.755263	0.069136	-0.060842
O2	O	1.255263	0.569136	0.439158
O3	O	0.589400	0.079139	-0.060855
O4	O	1.089400	0.579139	0.439145
O5	O	0.677333	-0.008794	-0.060835
O6	O	1.177333	0.491206	0.439165
O7	O	0.667330	0.157069	-0.060862
O8	O	1.167330	0.657069	0.439138
O9	O	0.677318	-0.008798	0.060927
O10	O	1.177318	0.491202	0.560927
O11	O	0.589385	0.079135	0.060907
O12	O	1.089385	0.579135	0.560907
O13	O	0.755248	0.069132	0.060920
O14	O	1.255248	0.569132	0.560920
Zn15	Zn	0.672314	0.074133	0.080246
Zn16	Zn	1.172314	0.574133	0.580246
Zn17	Zn	0.672334	0.074138	-0.080181
Zn18	Zn	1.172334	0.574138	0.419819
O19	O	0.667315	0.157065	0.060900
O20	O	1.167315	0.657065	0.560900
C21	C	0.568176	0.078882	0.000025
C22	C	1.068176	0.578882	0.500025
C23	C	0.504959	0.078116	0.000021
C24	C	1.004959	0.578116	0.500021
C25	C	0.238792	0.022921	0.000050
C26	C	0.738792	0.522921	0.500050
C27	C	0.298192	0.023632	0.000049
C28	C	0.798192	0.523632	0.500049
O29	O	0.334937	-0.020153	0.000082
O30	O	0.834937	0.479847	0.500082
N31	N	0.320818	0.075909	0.000036
N32	N	0.820818	0.575909	0.500036
C33	C	0.284041	0.127477	0.000030
C34	C	0.784041	0.627477	0.500030
O35	O	0.308740	0.172007	0.000019
O36	O	0.808740	0.672007	0.500019
C37	C	0.224642	0.126765	0.000035
C38	C	0.724642	0.626765	0.500035
C39	C	0.202019	0.074485	0.000042
C40	C	0.702019	0.574485	0.500042
C41	C	0.216168	-0.029354	0.000057
C42	C	0.716168	0.470646	0.500057
C43	C	0.156772	-0.030066	0.000056
C44	C	0.656772	0.469934	0.500056
C45	C	0.119999	0.021499	0.000048
C46	C	0.619999	0.521499	0.500048
C47	C	0.142623	0.073774	0.000041
C48	C	0.642623	0.573774	0.500041
C49	C	0.187865	0.178333	0.000035
C50	C	0.687865	0.678333	0.500035
C51	C	0.128463	0.177616	0.000041
C52	C	0.628463	0.677616	0.500041
C53	C	0.105840	0.125336	0.000047
C54	C	0.605840	0.625336	0.500047
C55	C	0.046454	0.124627	0.000031
C56	C	0.546454	0.624627	0.500031
N57	N	0.023828	0.072351	0.000045
N58	N	0.523828	0.572351	0.500045
C59	C	0.060600	0.020787	0.000053
C60	C	0.560600	0.520787	0.500053
C61	C	0.408783	0.128968	0.000019
C62	C	0.908783	0.628968	0.500019
C63	C	0.468181	0.129681	0.000009
C64	C	0.968181	0.629681	0.500009
C65	C	0.482328	0.025836	0.000030
C66	C	0.982328	0.525836	0.500030
C67	C	0.422929	0.025124	0.000035
C68	C	0.922929	0.525124	0.500035
C69	C	0.386157	0.076692	0.000033
C70	C	0.886157	0.576692	0.500033
C71	C	-0.064136	0.019297	0.000050
C72	C	0.435864	0.519297	0.500050
C73	C	-0.123538	0.018590	0.000046
C74	C	0.376462	0.518590	0.500046
C75	C	-0.137680	0.122435	0.000029
C76	C	0.362320	0.622435	0.500029
C77	C	-0.078284	0.123142	0.000029
C78	C	0.421716	0.623142	0.500029
C79	C	-0.041512	0.071568	0.000042
C80	C	0.458488	0.571568	0.500042
O81	O	0.009675	0.168390	0.000002
O82	O	0.509675	0.668390	0.500002
O83	O	0.035892	-0.023737	0.000074
O84	O	0.535892	0.476263	0.500074
C85	C	0.677071	-0.030012	0.000048
C86	C	1.177071	0.469988	0.500048
C87	C	0.676305	-0.093229	0.000054
C88	C	1.176305	0.406771	0.500054
C89	C	0.723538	-0.492332	0.000017
C90	C	1.223538	0.007668	0.500017
C91	C	0.722827	-0.551733	0.000012
C92	C	1.222827	-0.051733	0.500012
O93	O	0.766613	-0.588477	-0.000012
O94	O	1.266613	-0.088477	0.499988
N95	N	0.670551	-0.574359	0.000008
N96	N	1.170551	-0.074359	0.500008
C97	C	0.618982	-0.537581	0.000003
C98	C	1.118982	-0.037581	0.500003
O99	O	0.574452	-0.562281	-0.000001
O100	O	1.074452	-0.062281	0.499999
C101	C	0.619695	-0.478182	0.000003
C102	C	1.119695	0.021818	0.500003
C103	C	0.671974	-0.455559	0.000014
C104	C	1.171974	0.044441	0.500014
C105	C	0.775814	-0.469709	0.000027
C106	C	1.275814	0.030291	0.500027
C107	C	0.776525	-0.410313	0.000034
C108	C	1.276525	0.089687	0.500034
C109	C	0.724961	-0.373540	0.000031
C110	C	1.224961	0.126460	0.500031
C111	C	0.672685	-0.396163	0.000021
C112	C	1.172685	0.103837	0.500021
C113	C	0.568127	-0.441406	-0.000007
C114	C	1.068127	0.058594	0.499993
C115	C	0.568843	-0.382003	-0.000007
C116	C	1.068843	0.117997	0.499993
C117	C	0.621123	-0.359381	0.000003
C118	C	1.121123	0.140619	0.500003
C119	C	0.621832	-0.299994	0.000025
C120	C	1.121832	0.200006	0.500025
N121	N	0.674109	-0.277368	0.000028
N122	N	1.174109	0.222632	0.500028
C123	C	0.725673	-0.314141	0.000032
C124	C	1.225673	0.185859	0.500032
C125	C	0.617491	-0.662324	0.000001
C126	C	1.117491	-0.162324	0.500001
C127	C	0.616778	-0.721722	0.000006
C128	C	1.116778	-0.221722	0.500006
C129	C	0.720623	-0.735869	0.000013
C130	C	1.220623	-0.235869	0.500013
C131	C	0.721335	-0.676470	0.000013
C132	C	1.221335	-0.176470	0.500013
C133	C	0.669767	-0.639698	0.000004
C134	C	1.169767	-0.139698	0.500004
C135	C	0.727163	-0.189404	0.000047
C136	C	1.227163	0.310596	0.500047
C137	C	0.727869	-0.130002	0.000057
C138	C	1.227869	0.369998	0.500057
C139	C	0.624025	-0.115860	0.000046
C140	C	1.124025	0.384140	0.500046
C141	C	0.623318	-0.175257	0.000039
C142	C	1.123318	0.324743	0.500039
C143	C	0.674891	-0.212028	0.000038
C144	C	1.174891	0.287972	0.500038
O145	O	0.578069	-0.263215	0.000046
O146	O	1.078069	0.236785	0.500046
O147	O	0.770196	-0.289433	0.000026
O148	O	1.270196	0.210567	0.500026
C149	C	0.776472	0.069389	0.000039
C150	C	1.276472	0.569389	0.500039
C151	C	0.839689	0.070155	0.000038
C152	C	1.339689	0.570155	0.500038
C153	C	0.667577	0.178283	0.000015
C154	C	1.167577	0.678283	0.500015
C155	C	0.668343	0.241500	0.000005
C156	C	1.168343	0.741500	0.500005
N157	N	0.672305	0.074128	0.189733
N158	N	1.172305	0.574128	0.689733
N159	N	0.672347	0.074138	-0.189668
N160	N	1.172347	0.574138	0.310332
C161	C	0.711255	0.035210	0.228051
C162	C	1.211255	0.535210	0.728051
C163	C	0.711258	0.035208	0.304695
C164	C	1.211258	0.535208	0.804695
C165	C	0.672318	0.074133	0.343020
C166	C	1.172318	0.574133	0.843020
C167	C	0.633361	0.113054	0.304693
C168	C	1.133361	0.613054	0.804693
C169	C	0.633355	0.113051	0.228049
C170	C	1.133355	0.613051	0.728049
N171	N	0.664784	0.124568	0.463343
N172	N	1.164784	0.624568	0.963343
N173	N	0.664793	0.124568	0.536151
N174	N	1.164793	0.624568	1.036151
C175	C	0.672334	0.074141	0.573942
C176	C	1.172334	0.574141	1.073942
N177	N	0.679876	0.023712	0.536174
N178	N	1.179876	0.523712	1.036174
N179	N	0.679869	0.023712	0.463359
N180	N	1.179869	0.523712	0.963359
C181	C	0.672320	0.074139	0.426127
C182	C	1.172320	0.574139	0.926127
C183	C	0.711289	0.035217	0.695367
C184	C	1.211289	0.535217	1.195367
C185	C	0.711289	0.035213	0.772013
C186	C	1.211289	0.535213	1.272013
C187	C	0.633394	0.113064	0.772009
C188	C	1.133394	0.613064	1.272009
C189	C	0.633392	0.113063	0.695364
C190	C	1.133392	0.613063	1.195364
C191	C	0.672342	0.074140	0.657048
C192	C	1.172342	0.574140	1.157048
H193	H	0.098525	0.219610	0.000043
H194	H	0.598525	0.719610	0.500043
H195	H	0.743003	0.003521	0.664169
H196	H	1.243003	0.503521	1.164169
O197	O	0.749121	-0.002521	0.342005
O198	O	1.249121	0.497479	0.842005
C199	C	0.784091	0.027807	0.386304
C200	C	1.284091	0.527807	0.886304
H201	H	0.761152	0.072487	0.397779
H202	H	1.261152	0.572487	0.897779
H203	H	0.793244	0.003992	0.440204
H204	H	1.293244	0.503992	0.940204
H205	H	0.826154	0.031467	0.356751
H206	H	1.326154	0.531467	0.856751
H207	H	0.819097	-0.391900	0.000040
H208	H	1.319097	0.108100	0.500040
O209	O	0.209905	0.229079	0.000118
O210	O	0.709905	0.729079	0.500118
C211	C	0.243829	0.232609	0.063182
C212	C	0.743829	0.732609	0.563182
H213	H	0.258872	0.187637	0.084219
H214	H	0.758872	0.687637	0.584219
H215	H	0.282603	0.255085	0.048985
H216	H	0.782603	0.755085	0.548985
H217	H	0.217445	0.257958	0.107336
H218	H	0.717445	0.757958	0.607336
O219	O	-0.145418	-0.032247	0.000087
O220	O	0.354582	0.467753	0.500087
C221	C	-0.100219	-0.077604	0.000078
C222	C	0.399781	0.422396	0.500078
H223	H	-0.059955	-0.061873	0.023128
H224	H	0.440045	0.438127	0.523128
H225	H	-0.112434	-0.114125	0.035435
H226	H	0.387566	0.385875	0.535435
H227	H	-0.091720	-0.093491	-0.058334
H228	H	0.408280	0.406509	0.441666
O229	O	-0.028364	-0.030763	-0.000040
O230	O	0.471636	0.469237	0.499960
C231	C	0.006411	-0.033465	-0.063112
C232	C	0.506411	0.466535	0.436888
H233	H	0.009175	0.011723	-0.084139
H234	H	0.509175	0.511723	0.415861
H235	H	0.051172	-0.054948	-0.048930
H236	H	0.551172	0.445052	0.451070
H237	H	-0.012992	-0.059353	-0.107267
H238	H	0.487008	0.440647	0.392733
O239	O	0.134896	-0.080901	0.000104
O240	O	0.634896	0.419099	0.500104
C241	C	0.180099	-0.126253	0.000096
C242	C	0.680099	0.373747	0.500096
H243	H	0.220363	-0.110516	0.023138
H244	H	0.720363	0.389484	0.523138
H245	H	0.167891	-0.162773	0.035461
H246	H	0.667891	0.337227	0.535461
H247	H	0.188596	-0.142145	-0.058315
H248	H	0.688596	0.357855	0.441685
O249	O	-0.173326	0.172574	-0.000011
O250	O	0.326674	0.672574	0.499989
C251	C	-0.140627	0.218873	0.000002
C252	C	0.359373	0.718873	0.500002
H253	H	-0.096208	0.204167	-0.023051
H254	H	0.403792	0.704167	0.476949
H255	H	-0.162741	0.254982	-0.035350
H256	H	0.337259	0.754982	0.464650
H257	H	-0.136490	0.234908	0.058416
H258	H	0.363510	0.734908	0.558416
O259	O	0.566029	-0.743761	-0.000096
O260	O	1.066029	-0.243761	0.499904
C261	C	0.562508	-0.777671	-0.063171
C262	C	1.062508	-0.277671	0.436829
H263	H	0.607483	-0.792714	-0.084191
H264	H	1.107483	-0.292714	0.415809
H265	H	0.540025	-0.816445	-0.048995
H266	H	1.040025	-0.316445	0.451005
H267	H	0.537169	-0.751275	-0.107329
H268	H	1.037169	-0.251275	0.392671
O269	O	0.251942	-0.079412	-0.000037
O270	O	0.751942	0.420588	0.499963
C271	C	0.286712	-0.082114	-0.063114
C272	C	0.786712	0.417886	0.436886
H273	H	0.289478	-0.036927	-0.084141
H274	H	0.789478	0.463073	0.415859
H275	H	0.331473	-0.103600	-0.048938
H276	H	0.831473	0.396400	0.451062
H277	H	0.267304	-0.108000	-0.107267
H278	H	0.767304	0.392000	0.392733
H279	H	0.404515	-0.017447	0.000041
H280	H	0.904515	0.482553	0.500041
H281	H	0.769159	-0.219337	0.000042
H282	H	1.269159	0.280663	0.500042
H283	H	0.762610	-0.765821	0.000013
H284	H	1.262610	-0.265821	0.500013
O285	O	0.595598	0.150885	0.190744
O286	O	1.095598	0.650885	0.690744
C287	C	0.625896	0.185876	0.146410
C288	C	1.125896	0.685876	0.646410
H289	H	0.670587	0.162966	0.134925
H290	H	1.170587	0.662966	0.634925
H291	H	0.602073	0.195008	0.092517
H292	H	1.102073	0.695008	0.592517
H293	H	0.629527	0.227948	0.175938
H294	H	1.129527	0.727948	0.675938
H295	H	0.512280	-0.016150	0.000036
H296	H	1.012280	0.483850	0.500036
O297	O	-0.056240	0.173891	0.000121
O298	O	0.443760	0.673891	0.500121
C299	C	-0.022330	0.177412	0.063199
C300	C	0.477670	0.677412	0.563199
H301	H	-0.007287	0.132437	0.084226
H302	H	0.492713	0.632437	0.584226
H303	H	0.016445	0.199894	0.049025
H304	H	0.516445	0.699894	0.549025
H305	H	-0.048725	0.202751	0.107352
H306	H	0.451275	0.702751	0.607352
O307	O	0.567342	-0.626686	0.000035
O308	O	1.067342	-0.126686	0.500035
C309	C	0.521054	-0.659400	0.000014
C310	C	1.021054	-0.159400	0.500014
H311	H	0.535773	-0.703818	0.023064
H312	H	1.035773	-0.203818	0.523064
H313	H	0.484941	-0.637300	0.035365
H314	H	0.984941	-0.137300	0.535365
H315	H	0.505020	-0.663534	-0.058402
H316	H	1.005020	-0.163534	0.441598
H317	H	0.770443	-0.111587	0.000068
H318	H	1.270443	0.388413	0.500068
H319	H	0.817806	-0.499644	0.000027
H320	H	1.317806	0.000356	0.500027
O321	O	0.595512	0.150788	0.341999
O322	O	1.095512	0.650788	0.841999
C323	C	0.560550	0.120465	0.386340
C324	C	1.060550	0.620465	0.886340
H325	H	0.583488	0.075785	0.397829
H326	H	1.083488	0.575785	0.897829
H327	H	0.551410	0.144284	0.440232
H328	H	1.051410	0.644284	0.940232
H329	H	0.518479	0.116807	0.356818
H330	H	1.018479	0.616807	0.856818
O331	O	0.517292	-0.463277	-0.000054
O332	O	1.017292	0.036723	0.499946
C333	C	0.471940	-0.418072	-0.000043
C334	C	0.971940	0.081928	0.499957
H335	H	0.487683	-0.377805	-0.023087
H336	H	0.987683	0.122195	0.476913
H337	H	0.435425	-0.430272	-0.035404
H338	H	0.935425	0.069728	0.464596
H339	H	0.456040	-0.409587	0.058369
H340	H	0.956040	0.090413	0.558369
O341	O	0.772083	-0.654429	-0.000080
O342	O	1.272083	-0.154429	0.499920
C343	C	0.775619	-0.620499	-0.063153
C344	C	1.275619	-0.120499	0.436847
H345	H	0.730649	-0.605451	-0.084181
H346	H	1.230649	-0.105451	0.415819
H347	H	0.798097	-0.581729	-0.048971
H348	H	1.298097	-0.081729	0.451029
H349	H	0.800970	-0.646881	-0.107308
H350	H	1.300970	-0.146881	0.392692
H351	H	0.601686	0.144756	0.803212
H352	H	1.101686	0.644756	1.303212
O353	O	0.490058	0.180516	0.000026
O354	O	0.990058	0.680516	0.500026
C355	C	0.444857	0.225871	-0.000001
C356	C	0.944857	0.725871	0.499999
H357	H	0.404590	0.210136	0.023054
H358	H	0.904590	0.710136	0.523054
H359	H	0.457063	0.262391	0.035342
H360	H	0.957063	0.762391	0.535342
H361	H	0.436368	0.241760	-0.058420
H362	H	0.936368	0.741760	0.441580
H363	H	0.526850	-0.352065	-0.000016
H364	H	1.026850	0.147935	0.499984
H365	H	0.743005	0.003519	0.803212
H366	H	1.243005	0.503519	1.303212
O367	O	0.572521	-0.197211	-0.000097
O368	O	1.072521	0.302789	0.499903
C369	C	0.541113	-0.178363	-0.063151
C370	C	1.041113	0.321637	0.436849
H371	H	0.571696	-0.166160	-0.107218
H372	H	1.071696	0.333840	0.392782
H373	H	0.517098	-0.214211	-0.084332
H374	H	1.017098	0.285789	0.415668
H375	H	0.509149	-0.139477	-0.048890
H376	H	1.009149	0.360523	0.451110
O377	O	0.373007	0.179028	-0.000093
O378	O	0.873007	0.679028	0.499907
C379	C	0.338239	0.181733	-0.063164
C380	C	0.838239	0.681733	0.436836
H381	H	0.335478	0.136547	-0.084174
H382	H	0.835478	0.636547	0.415826
H383	H	0.293477	0.203215	-0.048986
H384	H	0.793477	0.703215	0.451014
H385	H	0.357648	0.207624	-0.107330
H386	H	0.857648	0.707624	0.392670
O387	O	0.573990	-0.080052	0.000009
O388	O	1.073990	0.419948	0.500009
C389	C	0.585835	-0.022776	0.000032
C390	C	1.085835	0.477224	0.500032
H391	H	0.630560	-0.020747	-0.023010
H392	H	1.130560	0.479253	0.476990
H393	H	0.552956	0.004326	-0.035325
H394	H	1.052956	0.504326	0.464675
H395	H	0.583566	-0.005593	0.058448
H396	H	1.083566	0.494407	0.558448
H397	H	0.601678	0.144756	0.664164
H398	H	1.101678	0.644756	1.164164
H399	H	0.742969	0.003516	0.196856
H400	H	1.242969	0.503516	0.696856
