data_functionalizedCrystal
_audit_creation_method	'MofGen! by Chris Wilmer'
_symmetry_space_group_name_H-M	'P1'
_symmetry_Int_Tables_number	1
_symmetry_cell_setting	triclinic
loop_
_symmetry_equiv_pos_as_xyz
  x,y,z
_cell_length_a	18.760487
_cell_length_b	14.560432
_cell_length_c	18.760492
_cell_angle_alpha	120.000629
_cell_angle_beta	89.964669
_cell_angle_gamma	60.019786
loop_
_atom_site_label
_atom_site_type_symbol
_atom_site_fract_x
_atom_site_fract_y
_atom_site_fract_z
Zr1	Zr	0.686678	1.005281	0.093104
O2	O	0.572858	1.196890	0.206990
O3	O	0.721571	0.813677	0.058194
O4	O	0.721566	1.005289	0.206902
O5	O	0.572867	1.005270	-0.059024
O6	O	0.838869	1.005289	0.206830
O7	O	0.572863	1.005278	0.058282
O8	O	0.838877	0.662530	-0.059181
O9	O	0.572858	1.348028	0.206987
O10	O	0.823993	0.892484	0.043249
O11	O	0.736454	0.892478	-0.044242
O12	O	0.736448	1.118076	0.130843
O13	O	0.648909	1.118070	0.043352
Zr14	Zr	0.873769	1.005266	-0.094101
Zr15	Zr	0.873763	1.005280	0.092989
Zr16	Zr	0.686684	1.005267	-0.093986
Zr17	Zr	0.686678	1.246328	0.093100
Zr18	Zr	0.873769	0.764219	-0.094096
O19	O	0.838876	1.196870	-0.059191
O20	O	0.838868	1.196890	0.206826
O21	O	0.572866	1.196870	-0.059027
O22	O	0.987589	0.813657	-0.207987
O23	O	0.987581	0.813677	0.058031
O24	O	0.721579	0.813658	-0.207823
O25	O	0.987580	1.005278	0.058027
O26	O	0.838881	1.005258	-0.207899
O27	O	0.721578	1.005258	-0.207827
O28	O	0.987584	1.005269	-0.059279
O29	O	0.721565	1.348028	0.206896
O30	O	0.838882	0.662519	-0.207893
O31	O	0.987589	0.662519	-0.207984
O32	O	0.987585	0.662530	-0.059273
O33	O	0.572862	1.348017	0.058276
O34	O	0.721570	1.348017	0.058184
O35	O	0.823999	0.892471	-0.131840
O36	O	0.911538	0.892478	-0.044349
O37	O	0.823993	1.118069	0.043245
O38	O	0.736454	1.118063	-0.044246
C39	C	0.780224	0.703760	-0.000493
C40	C	0.780224	0.601429	-0.000491
C41	C	0.871607	0.601429	0.090858
C42	C	0.917295	0.553358	0.136534
C43	C	0.917292	0.457209	0.136533
C44	C	0.871600	0.409125	0.090848
C45	C	0.825912	0.457197	0.045172
C46	C	0.825918	0.553351	0.045181
C47	C	0.734535	0.457190	-0.046182
C48	C	0.734532	0.553346	-0.046176
C49	C	0.688843	0.409106	-0.091866
C50	C	0.643149	0.457184	-0.137538
C51	C	0.643153	0.553340	-0.137534
C52	C	0.688844	0.601417	-0.091852
C53	C	0.546209	1.005274	-0.000354
C54	C	0.466787	1.005274	-0.000306
C55	C	0.085272	1.123035	0.045073
C56	C	0.176675	0.887513	-0.046377
C57	C	0.251297	0.887511	-0.046302
C58	C	0.242910	1.005273	-0.000538
C59	C	0.159900	1.123037	0.045151
C60	C	0.334312	0.769749	-0.091983
C61	C	0.408940	0.769743	-0.091909
C62	C	0.400553	0.887506	-0.046149
C63	C	0.317537	1.005274	-0.000459
C64	C	0.309150	1.123036	0.045305
C65	C	0.226134	1.240806	0.090990
C66	C	0.151513	1.240800	0.090911
C67	C	0.475175	0.887512	-0.046070
C68	C	0.383777	1.123038	0.045383
C69	C	1.014238	1.005273	-0.000642
C70	C	1.093660	1.005273	-0.000691
C71	C	0.780216	1.005291	0.233522
C72	C	0.780214	1.005297	0.312947
C73	C	0.780223	1.306787	-0.000504
C74	C	0.780223	1.409118	-0.000506
C75	C	0.715586	1.005302	0.350302
C76	C	0.844844	1.005286	0.350218
C77	C	0.844847	1.005285	0.424839
C78	C	0.780219	1.005290	0.462194
C79	C	0.715588	1.005297	0.424928
C80	C	0.909482	1.005265	0.462106
C81	C	0.909487	1.005263	0.536730
C82	C	0.844855	1.005277	0.574090
C83	C	0.780221	1.005285	0.536820
C84	C	0.715593	1.005290	0.574175
C85	C	0.650955	1.005307	0.536910
C86	C	0.650956	1.005311	0.462288
C87	C	0.844854	1.005273	0.648712
C88	C	0.715595	1.005285	0.648801
C89	C	0.780229	1.005263	0.765483
C90	C	0.780226	1.005278	0.686067
C91	C	1.014238	0.703759	-0.000637
C92	C	1.093661	0.601428	-0.000684
C93	C	0.780231	0.703742	-0.234514
C94	C	0.780234	0.601405	-0.313936
C95	C	1.014246	0.703742	-0.234658
C96	C	1.093670	0.601405	-0.314129
C97	C	0.546201	1.306805	0.233661
C98	C	0.466776	1.409142	0.313132
C99	C	0.546209	1.306788	-0.000360
C100	C	0.466786	1.409119	-0.000313
C101	C	0.780216	1.306805	0.233517
C102	C	0.780213	1.409142	0.312939
C103	C	1.085261	0.553376	0.045027
C104	C	1.159880	0.457238	0.045000
C105	C	1.242897	0.409148	-0.000743
C106	C	1.251295	0.457210	-0.046455
C107	C	1.176678	0.553352	-0.046423
C108	C	0.825932	0.553344	-0.396967
C109	C	0.825932	0.457201	-0.471600
C110	C	0.780237	0.409115	-0.463201
C111	C	0.734533	0.457186	-0.380161
C112	C	0.734529	0.553334	-0.305530
C113	C	1.176672	0.553350	-0.305781
C114	C	1.251307	0.457206	-0.380446
C115	C	1.242939	0.409114	-0.463458
C116	C	1.159929	0.457179	-0.471805
C117	C	1.085296	0.553326	-0.397141
C118	C	0.383775	1.457209	0.304784
C119	C	0.309140	1.553382	0.379449
C120	C	0.317508	1.601480	0.462461
C121	C	0.400518	1.553409	0.470808
C122	C	0.475151	1.457244	0.396144
C123	C	0.475186	1.457181	-0.046016
C124	C	0.400567	1.553346	-0.045969
C125	C	0.317549	1.601439	-0.000223
C126	C	0.309151	1.553373	0.045486
C127	C	0.383769	1.457217	0.045443
C128	C	0.825917	1.457197	0.304512
C129	C	0.825931	1.553341	0.379131
C130	C	0.780237	1.601434	0.462176
C131	C	0.734531	1.553369	0.470602
C132	C	0.734523	1.457221	0.395984
H133	H	0.871605	0.679731	0.090874
H134	H	0.376918	1.418087	0.082658
H135	H	0.697301	1.418105	0.402858
H136	H	0.780251	1.679725	0.522928
C137	C	0.235475	1.707208	-0.000189
N138	N	0.173660	1.786870	-0.000170
H139	H	0.542732	1.418109	0.402952
C140	C	0.980596	1.005228	0.577709
N141	N	1.034158	1.005198	0.608573
H142	H	0.863127	1.418054	0.236899
C143	C	0.566499	1.404303	-0.096339
N144	N	0.635273	1.364487	-0.134241
H145	H	0.241549	1.592545	0.082731
H146	H	0.241557	1.592505	0.372636
H147	H	0.017679	1.218920	0.082266
H148	H	0.183498	0.791637	-0.083633
H149	H	0.697328	1.592541	0.538228
C150	C	0.592897	0.606204	-0.187787
N151	N	0.555044	0.646017	-0.225640
H152	H	0.697329	0.418020	-0.373335
H153	H	0.863149	1.592465	0.372253
C154	C	0.967549	0.404330	0.186779
N155	N	1.005401	0.364504	0.224626
C156	C	0.967534	0.606282	0.186805
N157	N	1.005368	0.646151	0.224676
C158	C	0.688835	0.303348	-0.091861
N159	N	0.688823	0.223696	-0.091852
H160	H	1.017671	0.592530	0.082288
C161	C	0.876198	0.606227	-0.406228
N162	N	0.914056	0.646060	-0.413211
C163	C	0.915950	1.005257	0.689702
N164	N	0.969502	1.005251	0.720576
C165	C	0.644498	1.005289	0.689885
N166	N	0.590948	1.005290	0.720828
C167	C	0.409824	1.606191	-0.096262
N168	N	0.416800	1.645988	-0.134145
H169	H	0.871611	0.330824	0.090841
C170	C	0.566485	0.757974	-0.096320
N171	N	0.635262	0.660398	-0.134174
H172	H	0.962104	1.005252	0.431685
H173	H	1.183529	0.592464	-0.083652
C174	C	0.688854	0.707183	-0.091844
N175	N	0.688866	0.786843	-0.091839
C176	C	0.592894	0.404286	-0.187787
N177	N	0.555038	0.364443	-0.225632
C178	C	0.876222	0.404327	-0.562936
N179	N	0.914103	0.364503	-0.631727
H180	H	0.219315	1.336688	0.128256
C181	C	0.374540	1.252588	0.095731
N182	N	0.367582	1.350166	0.133654
H183	H	1.153025	0.418118	0.082225
C184	C	0.060195	1.370335	0.141172
N185	N	-0.008588	1.467900	0.179033
H186	H	1.303649	0.330861	-0.000763
C187	C	1.150739	0.404252	-0.563127
N188	N	1.143820	0.364377	-0.631913
C189	C	1.342623	0.404287	-0.096777
N190	N	1.411414	0.364415	-0.134685
H191	H	0.341133	0.673874	-0.129241
H192	H	0.780247	0.330825	-0.523977
H193	H	0.476528	0.673847	-0.129108
C194	C	0.579872	1.005299	0.578004
N195	N	0.526334	1.005289	0.608958
H196	H	0.598330	1.005323	0.431941
C197	C	0.644488	1.005318	0.309309
N198	N	0.590938	1.005327	0.278431
H199	H	0.697318	0.592453	-0.237925
H200	H	0.897466	1.005273	0.319798
H201	H	0.407320	1.592583	0.538405
C202	C	1.185898	0.606241	-0.214474
N203	N	1.192854	0.646079	-0.145703
C204	C	1.342609	0.404341	-0.371245
N205	N	1.411376	0.364523	-0.364312
H206	H	1.303718	0.330824	-0.524247
C207	C	0.235400	1.707254	0.544586
N208	N	0.173552	1.786918	0.606439
H209	H	0.376945	1.418053	0.237198
H210	H	1.017715	0.592441	-0.403950
