data_functionalizedCrystal
_audit_creation_method	'MofGen! by Chris Wilmer'
_symmetry_space_group_name_H-M	'P1'
_symmetry_Int_Tables_number	1
_symmetry_cell_setting	triclinic
loop_
_symmetry_equiv_pos_as_xyz
  x,y,z
_cell_length_a	10.654550
_cell_length_b	9.065218
_cell_length_c	9.130313
_cell_angle_alpha	89.997322
_cell_angle_beta	89.999724
_cell_angle_gamma	84.750408
loop_
_atom_site_label
_atom_site_type_symbol
_atom_site_fract_x
_atom_site_fract_y
_atom_site_fract_z
O1	O	1.668660	0.207235	-0.121684
O2	O	1.303260	0.226979	-0.121710
O3	O	1.493513	0.002423	-0.121693
O4	O	1.478407	0.431791	-0.121700
O5	O	1.493500	0.002417	0.121906
O6	O	1.303247	0.226972	0.121889
O7	O	1.668647	0.207228	0.121915
Cu8	Cu	1.485946	0.217100	0.144145
Cu9	Cu	1.485961	0.217107	-0.143939
O10	O	1.478394	0.431784	0.121899
C11	C	1.256450	0.225526	0.000086
C12	C	1.116989	0.221188	0.000076
C13	C	1.038027	0.353403	0.000078
C14	C	0.906990	0.349319	0.000104
C15	C	0.933890	0.080794	0.000119
C16	C	1.064924	0.084879	0.000104
C17	C	1.492055	-0.052559	0.000104
C18	C	1.487714	-0.216378	0.000096
C19	C	1.715457	0.208681	0.000116
C20	C	1.854918	0.213019	0.000117
C21	C	1.479852	0.486766	0.000098
C22	C	1.484193	0.650585	0.000096
N23	N	1.485944	0.217093	0.346767
N24	N	1.485973	0.217102	-0.346562
C25	C	1.570217	0.117702	0.423427
C26	C	1.570229	0.117703	0.576763
C27	C	1.401691	0.316498	0.576768
C28	C	1.401674	0.316489	0.423434
H29	H	0.842704	0.456982	0.000108
C30	C	1.169758	0.513789	-0.125183
C31	C	1.095255	0.503234	0.000056
H32	H	1.205076	0.606296	-0.125196
H33	H	1.235538	0.435646	-0.125177
H34	H	1.119177	0.506609	-0.210113
H35	H	1.145838	0.510404	0.084986
H36	H	1.029466	0.581399	0.000063
C37	C	1.235085	0.513011	0.438829
C38	C	1.309037	0.425753	0.339159
H39	H	1.177902	0.580464	0.386797
H40	H	1.189221	0.451104	0.498646
H41	H	1.287981	0.566661	0.498622
H42	H	1.256141	0.372094	0.279372
H43	H	1.354904	0.487667	0.279316
C44	C	1.641031	-0.136937	0.376316
C45	C	1.662831	0.008401	0.339189
H46	H	1.698202	-0.204427	0.324318
H47	H	1.653083	-0.151109	0.478603
H48	H	1.557023	-0.153845	0.351181
H49	H	1.746836	0.025313	0.364334
H50	H	1.650789	0.022579	0.236879
C51	C	0.744966	-0.044702	0.000134
C52	C	0.876655	-0.069032	0.000130
H53	H	0.709637	-0.137202	0.000128
H54	H	0.717978	0.009781	0.085078
H55	H	0.717974	0.009798	-0.084820
H56	H	0.903647	-0.123523	0.085090
H57	H	0.903654	-0.123538	-0.084822
H58	H	1.129219	-0.022793	0.000106
H59	H	1.638850	0.036768	0.639175
H60	H	1.333082	0.397426	0.639206
