data_functionalizedCrystal
_audit_creation_method	'MofGen! by Chris Wilmer'
_symmetry_space_group_name_H-M	'P1'
_symmetry_Int_Tables_number	1
_symmetry_cell_setting	triclinic
loop_
_symmetry_equiv_pos_as_xyz
  x,y,z
_cell_length_a	12.837943
_cell_length_b	10.654550
_cell_length_c	9.730223
_cell_angle_alpha	90.004253
_cell_angle_beta	90.002123
_cell_angle_gamma	89.656935
loop_
_atom_site_label
_atom_site_type_symbol
_atom_site_fract_x
_atom_site_fract_y
_atom_site_fract_z
O1	O	-1.377801	-0.326750	-0.114265
O2	O	-0.877801	0.173250	0.385735
O3	O	-1.075880	-0.310609	-0.114273
O4	O	-0.575880	0.189391	0.385727
O5	O	-1.233782	-0.136698	-0.114260
O6	O	-0.733782	0.363302	0.385740
O7	O	-1.219899	-0.500662	-0.114278
O8	O	-0.719899	-0.000662	0.385722
O9	O	-1.233772	-0.136692	0.114320
O10	O	-0.733772	0.363308	0.614320
O11	O	-1.075869	-0.310603	0.114307
O12	O	-0.575869	0.189397	0.614307
O13	O	-1.377791	-0.326744	0.114315
O14	O	-0.877791	0.173256	0.614315
Zn15	Zn	-1.226829	-0.318672	0.150603
Zn16	Zn	-0.726829	0.181328	0.650603
Zn17	Zn	-1.226842	-0.318681	-0.150561
Zn18	Zn	-0.726842	0.181319	0.349439
O19	O	-1.219888	-0.500655	0.114302
O20	O	-0.719888	-0.000655	0.614302
C21	C	-1.037215	-0.305153	0.000016
C22	C	-0.537215	0.194847	0.500016
C23	C	-0.922021	-0.288891	0.000013
C24	C	-0.422021	0.211109	0.500013
C25	C	-1.232758	-0.089786	0.000029
C26	C	-0.732758	0.410214	0.500029
C27	C	-1.229708	0.049990	0.000027
C28	C	-0.729708	0.549990	0.500027
C29	C	-1.416456	-0.332200	0.000023
C30	C	-0.916456	0.167800	0.500023
C31	C	-1.531650	-0.348462	0.000017
C32	C	-1.031650	0.151538	0.500017
C33	C	-0.682468	-0.484395	0.000023
C34	C	-0.182468	0.015605	0.500023
C35	C	-0.574232	-0.469121	0.000021
C36	C	-0.074232	0.030879	0.500021
C37	C	-0.597312	-0.243070	0.000018
C38	C	-0.097312	0.256930	0.500018
C39	C	-0.705547	-0.258344	0.000019
C40	C	-0.205547	0.241656	0.500019
C41	C	-0.748121	-0.379010	0.000020
C42	C	-0.248121	0.120990	0.500020
C43	C	-0.856359	-0.394284	0.000012
C44	C	-0.356359	0.105716	0.500012
C45	C	-0.879436	-0.168233	0.000018
C46	C	-0.379436	0.331767	0.500018
C47	C	-0.771201	-0.152959	0.000016
C48	C	-0.271201	0.347041	0.500016
C49	C	-1.220913	-0.547568	0.000010
C50	C	-0.720913	-0.047568	0.500010
C51	C	-1.223963	-0.687344	0.000003
C52	C	-0.723963	-0.187344	0.500003
N53	N	-1.226827	-0.318667	0.356139
N54	N	-0.726827	0.181333	0.856139
C55	C	-1.322678	0.119331	0.000029
C56	C	-0.822678	0.619331	0.500029
C57	C	-1.319806	0.250665	0.000012
C58	C	-0.819806	0.750665	0.500012
C59	C	-1.130985	0.243307	-0.000003
C60	C	-0.630985	0.743307	0.499997
C61	C	-1.133858	0.111975	0.000004
C62	C	-0.633858	0.611975	0.500004
N63	N	-1.226852	-0.318677	-0.356098
N64	N	-0.726852	0.181323	0.143902
C65	C	-1.296770	-0.241698	0.428071
C66	C	-0.796770	0.258302	0.928071
C67	C	-1.296781	-0.241699	0.571954
C68	C	-0.796781	0.258301	1.071954
C69	C	-1.156901	-0.395650	0.571961
C70	C	-0.656901	0.104350	1.071961
C71	C	-1.156886	-0.395641	0.428080
C72	C	-0.656886	0.104359	0.928080
H73	H	-0.891020	-0.492536	0.000015
H74	H	-0.391020	0.007464	0.500015
O75	O	-1.372190	-0.158665	0.350470
O76	O	-0.872190	0.341335	0.850470
H77	H	-1.420819	-0.105134	0.424667
H78	H	-0.920819	0.394866	0.924667
O79	O	-0.503423	-0.582791	0.000031
O80	O	-0.003423	-0.082791	0.500031
H81	H	-0.421006	-0.551902	0.000044
H82	H	0.078994	-0.051902	0.500044
O83	O	-0.950246	-0.054554	0.000022
O84	O	-0.450246	0.445446	0.500022
H85	H	-1.032663	-0.085443	0.000031
H86	H	-0.532663	0.414557	0.500031
H87	H	-1.099958	-0.458322	0.630550
H88	H	-0.599958	0.041678	1.130550
O89	O	-1.426053	0.052469	0.000025
O90	O	-0.926053	0.552469	0.500025
H91	H	-1.490218	0.122756	0.000006
H92	H	-0.990218	0.622756	0.500006
O93	O	-1.420081	0.325458	0.000031
O94	O	-0.920081	0.825458	0.500031
H95	H	-1.487208	0.260288	0.000062
H96	H	-0.987208	0.760288	0.500062
O97	O	-1.372219	-0.158684	0.649543
O98	O	-0.872219	0.341316	1.149543
H99	H	-1.423014	-0.217674	0.715086
H100	H	-0.923014	0.282326	1.215086
O101	O	-1.081448	-0.478666	0.350481
O102	O	-0.581448	0.021334	0.850481
H103	H	-1.032828	-0.532207	0.424675
H104	H	-0.532828	-0.032207	0.924675
O105	O	-1.027607	0.310159	0.000002
O106	O	-0.527607	0.810159	0.500002
H107	H	-1.041226	0.413133	0.000017
H108	H	-0.541226	0.913133	0.500017
O109	O	-1.033579	0.037171	0.000017
O110	O	-0.533579	0.537171	0.500017
H111	H	-0.966446	0.102334	0.000026
H112	H	-0.466446	0.602334	0.500026
H113	H	-0.717132	-0.582647	0.000022
H114	H	-0.217132	-0.082647	0.500022
H115	H	-0.562629	-0.144828	0.000131
H116	H	-0.062629	0.355172	0.500131
O117	O	-0.725281	-0.022815	0.000016
O118	O	-0.225281	0.477185	0.500016
H119	H	-0.638988	-0.029896	0.000010
H120	H	-0.138988	0.470104	0.500010
