data_functionalizedCrystal
_audit_creation_method	'MofGen! by Chris Wilmer'
_symmetry_space_group_name_H-M	'P1'
_symmetry_Int_Tables_number	1
_symmetry_cell_setting	triclinic
loop_
_symmetry_equiv_pos_as_xyz
  x,y,z
_cell_length_a	14.971490
_cell_length_b	14.048226
_cell_length_c	14.971494
_cell_angle_alpha	89.995286
_cell_angle_beta	96.383397
_cell_angle_gamma	90.008793
loop_
_atom_site_label
_atom_site_type_symbol
_atom_site_fract_x
_atom_site_fract_y
_atom_site_fract_z
O1	O	-1.186948	-0.079208	0.116580
O2	O	-0.926549	-0.079199	0.130535
O3	O	-1.063724	-0.079202	-0.006642
O4	O	-1.049773	-0.079205	0.253757
O5	O	-1.063708	0.079120	-0.006650
O6	O	-0.926533	0.079123	0.130527
O7	O	-1.186932	0.079113	0.116572
Zn8	Zn	-1.056730	0.104255	0.123548
Zn9	Zn	-1.056751	-0.104340	0.123559
O10	O	-1.049757	0.079116	0.253749
C11	C	-0.893216	-0.000037	0.129907
C12	C	-0.793919	-0.000033	0.128034
C13	C	-0.366222	-0.086352	0.119961
C14	C	-0.459523	-0.086349	0.121717
C15	C	-0.506159	-0.000045	0.122597
C16	C	-0.459492	0.086261	0.121711
C17	C	-0.366194	0.086258	0.119948
C18	C	-0.653954	0.086263	0.125387
C19	C	-0.747258	0.086267	0.127151
C20	C	-0.747282	-0.086344	0.127156
C21	C	-0.653985	-0.086348	0.125393
C22	C	-0.607324	-0.000040	0.124509
C23	C	-1.063091	-0.000042	-0.039970
C24	C	-1.061217	-0.000047	-0.139267
N25	N	-1.056721	0.246615	0.123540
C26	C	-0.220265	-0.000049	0.117202
C27	C	-0.319561	-0.000052	0.119078
N28	N	-1.056767	-0.246701	0.123560
C29	C	-1.117482	0.296432	0.062823
C30	C	-1.117488	0.396090	0.062823
C31	C	-1.056737	0.445929	0.123544
C32	C	-0.995970	0.396105	0.184264
C33	C	-0.995961	0.296449	0.184260
C34	C	-0.995996	0.603819	0.184271
C35	C	-0.996007	0.703482	0.184277
C36	C	-1.117523	0.703460	0.062834
C37	C	-1.117513	0.603804	0.062829
C38	C	-1.056748	0.553987	0.123551
C39	C	-1.060348	-0.086349	-0.185908
C40	C	-1.058582	-0.086350	-0.279207
C41	C	-1.057691	-0.000048	-0.325864
C42	C	-1.058558	0.086261	-0.279217
C43	C	-1.060317	0.086261	-0.185919
C44	C	-1.054892	0.086254	-0.473680
C45	C	-1.053133	0.086255	-0.566985
C46	C	-1.053156	-0.086356	-0.566968
C47	C	-1.054916	-0.086356	-0.473670
C48	C	-1.055784	-0.000047	-0.427029
C49	C	-1.050390	-0.000045	0.287078
C50	C	-1.052264	-0.000047	0.386374
H51	H	-0.785227	0.156543	0.127872
H52	H	-0.615964	0.156543	0.124678
N53	N	-0.930444	0.449863	0.249751
H54	H	-0.964667	0.491193	0.289415
H55	H	-0.891962	0.403122	0.288153
N56	N	-1.052307	-0.179447	-0.617281
H57	H	-1.053176	-0.234118	-0.573571
H58	H	-1.107015	-0.183132	-0.663148
N59	N	-0.930472	0.757226	0.249767
H60	H	-0.890845	0.798592	0.215517
H61	H	-0.964753	0.798500	0.289423
N62	N	-1.183054	0.449808	-0.002644
H63	H	-1.172715	0.432478	-0.066153
H64	H	-1.246497	0.432400	0.007878
H65	H	-1.052400	0.156529	-0.604971
H66	H	-0.497472	0.156531	0.122421
N67	N	-1.061294	-0.179413	-0.135554
H68	H	-1.116390	-0.217168	-0.158956
H69	H	-1.005544	-0.217061	-0.144602
N70	N	-1.061257	0.179339	-0.135604
H71	H	-1.005542	0.217072	-0.144654
H72	H	-1.116388	0.216995	-0.159054
N73	N	-0.603680	-0.179429	0.124447
H74	H	-0.647395	-0.234104	0.125271
H75	H	-0.572164	-0.183180	0.068308
N76	N	-0.930422	0.242713	0.249742
H77	H	-0.891938	0.289406	0.288210
H78	H	-0.964696	0.201347	0.289342
H79	H	-0.328203	0.156532	0.119238
H80	H	-1.057878	-0.156626	-0.317177
H81	H	-1.055579	0.156537	-0.435706
N82	N	-0.930462	0.550083	0.249764
H83	H	-0.890820	0.508752	0.215516
H84	H	-0.892040	0.596834	0.288220
N85	N	-1.055886	-0.179436	-0.423344
H86	H	-1.055067	-0.234113	-0.467045
H87	H	-1.001211	-0.183192	-0.377442
H88	H	-1.057827	0.156529	-0.317213
H89	H	-0.497511	-0.156624	0.122431
N90	N	-0.315919	-0.179435	0.119012
H91	H	-0.324971	-0.217171	0.174722
H92	H	-0.339378	-0.217083	0.063877
N93	N	-0.797602	-0.179435	0.128114
H94	H	-0.863783	-0.166340	0.129360
H95	H	-0.788490	-0.217125	0.072404
H96	H	-1.166955	0.255860	0.013381
H97	H	-1.166985	0.563225	0.013390
H98	H	-1.167000	0.744027	0.013393
