data_functionalizedCrystal
_audit_creation_method	'MofGen! by Chris Wilmer'
_symmetry_space_group_name_H-M	'P1'
_symmetry_Int_Tables_number	1
_symmetry_cell_setting	triclinic
loop_
_symmetry_equiv_pos_as_xyz
  x,y,z
_cell_length_a	19.188930
_cell_length_b	19.188930
_cell_length_c	13.930277
_cell_angle_alpha	89.990320
_cell_angle_beta	89.978906
_cell_angle_gamma	83.144779
loop_
_atom_site_label
_atom_site_type_symbol
_atom_site_fract_x
_atom_site_fract_y
_atom_site_fract_z
O1	O	0.926148	0.087167	-0.080150
O2	O	1.259481	0.420500	0.253183
O3	O	1.592814	0.753834	0.586516
O4	O	0.722836	0.098901	-0.080086
O5	O	1.056170	0.432235	0.253248
O6	O	1.389503	0.765568	0.586581
O7	O	0.830359	-0.008621	-0.080101
O8	O	1.163692	0.324712	0.253232
O9	O	1.497026	0.658045	0.586566
O10	O	0.818625	0.194690	-0.080135
O11	O	1.151958	0.528023	0.253198
O12	O	1.485292	0.861357	0.586532
O13	O	0.830344	-0.008624	0.079561
O14	O	1.163678	0.324710	0.412894
O15	O	1.497011	0.658043	0.746227
O16	O	0.722821	0.098899	0.079576
O17	O	1.056155	0.432232	0.412909
O18	O	1.389488	0.765566	0.746243
O19	O	0.926133	0.087165	0.079512
O20	O	1.259466	0.420498	0.412845
O21	O	1.592799	0.753832	0.746178
Zn22	Zn	0.824475	0.093032	0.104894
Zn23	Zn	1.157808	0.426365	0.438227
Zn24	Zn	1.491141	0.759698	0.771560
Zn25	Zn	0.824494	0.093035	-0.105468
Zn26	Zn	1.157828	0.426368	0.227866
Zn27	Zn	1.491161	0.759701	0.561199
O28	O	0.818610	0.194688	0.079527
O29	O	1.151943	0.528021	0.412860
O30	O	1.485277	0.861354	0.746194
C31	C	0.696818	0.098520	-0.000246
C32	C	1.030151	0.431854	0.333087
C33	C	1.363485	0.765187	0.666420
C34	C	0.619313	0.097380	-0.000221
C35	C	0.952647	0.430713	0.333112
C36	C	1.285980	0.764046	0.666446
C37	C	0.574389	0.160470	-0.000247
C38	C	0.907723	0.493804	0.333087
C39	C	1.241056	0.827137	0.666420
C40	C	0.501566	0.159399	-0.000257
C41	C	0.834899	0.492732	0.333076
C42	C	1.168232	0.826065	0.666410
C43	C	0.473669	0.095233	-0.000261
C44	C	0.807002	0.428566	0.333072
C45	C	1.140336	0.761899	0.666406
C46	C	0.518603	0.032133	-0.000230
C47	C	0.851936	0.365467	0.333103
C48	C	1.185270	0.698800	0.666437
C49	C	0.591425	0.033207	-0.000210
C50	C	0.924758	0.366540	0.333123
C51	C	1.258092	0.699874	0.666457
N52	N	0.365694	0.046186	-0.054631
N53	N	0.699027	0.379520	0.278702
N54	N	1.032361	0.712853	0.612035
N55	N	0.296515	0.045171	-0.054652
N56	N	0.629849	0.378504	0.278681
N57	N	0.963182	0.711838	0.612014
C58	C	0.254260	0.091994	-0.000319
C59	C	0.587594	0.425328	0.333014
C60	C	0.920927	0.758661	0.666347
N61	N	0.283796	0.139882	0.054024
N62	N	0.617129	0.473216	0.387357
N63	N	0.950463	0.806549	0.720691
N64	N	0.352981	0.140900	0.054041
N65	N	0.686314	0.474233	0.387374
N66	N	1.019647	0.807567	0.720707
C67	C	0.394707	0.094062	-0.000282
C68	C	0.728040	0.427395	0.333051
C69	C	1.061373	0.760728	0.666385
C70	C	0.130372	0.153928	-0.000355
C71	C	0.463705	0.487261	0.332979
C72	C	0.797039	0.820594	0.666312
C73	C	0.057547	0.152853	-0.000359
C74	C	0.390881	0.486187	0.332974
C75	C	0.724214	0.819520	0.666308
C76	C	0.074586	0.025586	-0.000342
C77	C	0.407919	0.358920	0.332991
C78	C	0.741253	0.692253	0.666325
C79	C	0.147409	0.026662	-0.000328
C80	C	0.480743	0.359996	0.333006
C81	C	0.814076	0.693329	0.666339
C82	C	0.175298	0.090835	-0.000339
C83	C	0.508631	0.424168	0.332995
C84	C	0.841964	0.757502	0.666328
C85	C	0.829972	-0.034634	-0.000267
C86	C	1.163305	0.298700	0.333066
C87	C	1.496638	0.632033	0.666399
C88	C	0.828831	-0.112138	-0.000259
C89	C	1.162164	0.221195	0.333075
C90	C	1.495498	0.554529	0.666408
C91	C	0.891922	-0.157062	-0.000274
C92	C	1.225255	0.176271	0.333059
C93	C	1.558589	0.509605	0.666393
C94	C	0.890850	-0.229886	-0.000289
C95	C	1.224184	0.103448	0.333044
C96	C	1.557517	0.436781	0.666378
C97	C	0.826684	-0.257782	-0.000269
C98	C	1.160017	0.075551	0.333064
C99	C	1.493351	0.408884	0.666397
C100	C	0.763585	-0.212849	-0.000259
C101	C	1.096918	0.120485	0.333074
C102	C	1.430252	0.453818	0.666407
C103	C	0.764658	-0.140026	-0.000254
C104	C	1.097992	0.193307	0.333079
C105	C	1.431325	0.526640	0.666413
N106	N	0.777632	-0.365788	0.054082
N107	N	1.110965	-0.032455	0.387415
N108	N	1.444298	0.300879	0.720749
N109	N	0.776616	-0.434967	0.054079
N110	N	1.109950	-0.101633	0.387412
N111	N	1.443283	0.231700	0.720746
C112	C	0.823446	-0.477191	-0.000288
C113	C	1.156779	-0.143858	0.333045
C114	C	1.490113	0.189476	0.666379
N115	N	0.871340	-0.447625	-0.054639
N116	N	1.204673	-0.114291	0.278694
N117	N	1.538007	0.219042	0.612027
N118	N	0.872358	-0.378440	-0.054632
N119	N	1.205691	-0.045107	0.278701
N120	N	1.539024	0.288227	0.612035
C121	C	0.825513	-0.336745	-0.000276
C122	C	1.158846	-0.003412	0.333057
C123	C	1.492180	0.329922	0.666391
C124	C	0.885379	-0.601079	-0.000321
C125	C	1.218712	-0.267746	0.333012
C126	C	1.552046	0.065587	0.666346
C127	C	0.884305	-0.673904	-0.000342
C128	C	1.217638	-0.340571	0.332991
C129	C	1.550971	-0.007238	0.666325
C130	C	0.757038	-0.656865	-0.000303
C131	C	1.090371	-0.323532	0.333031
C132	C	1.423704	0.009801	0.666364
C133	C	0.758114	-0.584042	-0.000291
C134	C	1.091447	-0.250709	0.333042
C135	C	1.424781	0.082624	0.666375
C136	C	0.822286	-0.556154	-0.000296
C137	C	1.155620	-0.222821	0.333037
C138	C	1.488953	0.110513	0.666371
C139	C	0.952151	0.087546	-0.000330
C140	C	1.285485	0.420879	0.333003
C141	C	1.618818	0.754213	0.666337
C142	C	1.029656	0.088687	-0.000362
C143	C	1.362989	0.422020	0.332972
C144	C	1.696322	0.755353	0.666305
C145	C	0.818997	0.220700	-0.000309
C146	C	1.152331	0.554033	0.333024
C147	C	1.485664	0.887366	0.666358
C148	C	0.820138	0.298204	-0.000324
C149	C	1.153471	0.631538	0.333009
C150	C	1.486805	0.964871	0.666343
N151	N	0.824467	0.093029	0.248460
N152	N	1.157800	0.426362	0.581793
N153	N	1.491133	0.759696	0.915126
N154	N	0.824508	0.093031	-0.249034
N155	N	1.157842	0.426365	0.084300
N156	N	1.491175	0.759698	0.417633
C157	C	0.776882	0.140627	0.700736
C158	C	1.110215	0.473960	1.034069
C159	C	1.443548	0.807294	1.367402
C160	C	0.872126	0.045437	0.700692
C161	C	1.205460	0.378770	1.034025
C162	C	1.538793	0.712103	1.367358
C163	C	0.872118	0.045434	0.600196
C164	C	1.205452	0.378768	0.933529
C165	C	1.538785	0.712101	1.266863
C166	C	0.824492	0.093030	0.549965
C167	C	1.157825	0.426363	0.883299
C168	C	1.491158	0.759697	1.216632
C169	C	0.776873	0.140628	0.600231
C170	C	1.110206	0.473961	0.933564
C171	C	1.443540	0.807294	1.266897
C172	C	0.919740	-0.002158	0.549923
C173	C	1.253074	0.331176	0.883256
C174	C	1.586407	0.664509	1.216590
C175	C	0.919735	-0.002161	0.449421
C176	C	1.253068	0.331172	0.782755
C177	C	1.586401	0.664505	1.116088
C178	C	0.872104	0.045432	0.399189
C179	C	1.205437	0.378765	0.732522
C180	C	1.538771	0.712098	1.065856
C181	C	0.824483	0.093031	0.449460
C182	C	1.157816	0.426364	0.782794
C183	C	1.491150	0.759697	1.116127
C184	C	0.776856	0.140626	0.399230
C185	C	1.110190	0.473960	0.732563
C186	C	1.443523	0.807293	1.065897
C187	C	0.729232	0.188223	0.449500
C188	C	1.062565	0.521556	0.782833
C189	C	1.395898	0.854889	1.116166
C190	C	0.729243	0.188221	0.549999
C191	C	1.062576	0.521554	0.883332
C192	C	1.395909	0.854887	1.216665
C193	C	0.872093	0.045434	0.298690
C194	C	1.205427	0.378767	0.632023
C195	C	1.538760	0.712100	0.965357
C196	C	0.776848	0.140627	0.298725
C197	C	1.110181	0.473960	0.632058
C198	C	1.443515	0.807294	0.965392
H199	H	0.051874	-0.026659	-0.000405
H200	H	0.385207	0.306674	0.332929
H201	H	0.718540	0.640008	0.666262
H202	H	0.183988	-0.024713	-0.000312
H203	H	0.517321	0.308620	0.333021
H204	H	0.850654	0.641954	0.666354
O205	O	0.488521	-0.037077	-0.000235
O206	O	0.821855	0.296257	0.333099
O207	O	1.155188	0.629590	0.666432
H208	H	0.430335	-0.027225	-0.000262
H209	H	0.763669	0.306109	0.333071
H210	H	1.097002	0.639442	0.666404
H211	H	0.020970	0.204232	-0.000374
H212	H	0.354303	0.537565	0.332959
H213	H	0.687637	0.870898	0.666292
O214	O	0.687830	-0.686947	-0.000275
O215	O	1.021163	-0.353614	0.333058
O216	O	1.354496	-0.020280	0.666391
H217	H	0.657530	-0.668880	-0.065343
H218	H	0.990863	-0.335547	0.267990
H219	H	1.324197	-0.002213	0.601324
H220	H	0.935683	-0.710481	-0.000360
H221	H	1.269017	-0.377148	0.332974
H222	H	1.602350	-0.043815	0.666307
O223	O	0.971107	-0.053487	0.604103
O224	O	1.304440	0.279847	0.937436
O225	O	1.637773	0.613180	1.270769
H226	H	1.004225	-0.086577	0.552266
H227	H	1.337559	0.246756	0.885599
H228	H	1.670892	0.580090	1.218933
O229	O	0.677889	0.239560	0.604221
O230	O	1.011223	0.572893	0.937555
O231	O	1.344556	0.906226	1.270888
H232	H	0.623486	0.230799	0.584986
H233	H	0.956820	0.564132	0.918320
H234	H	1.290153	0.897465	1.251653
O235	O	0.453098	0.227449	-0.000280
O236	O	0.786432	0.560782	0.333053
O237	O	1.119765	0.894115	0.666387
H238	H	0.419536	0.229996	-0.065361
H239	H	0.752869	0.563329	0.267972
H240	H	1.086203	0.896662	0.601305
O241	O	0.725519	0.191966	0.754944
O242	O	1.058852	0.525300	1.088277
O243	O	1.392186	0.858633	1.421611
H244	H	0.733525	0.183976	0.833267
H245	H	1.066859	0.517309	1.166601
H246	H	1.400192	0.850643	1.499934
H247	H	0.628003	-0.018171	-0.000190
H248	H	0.961336	0.315162	0.333144
H249	H	1.294670	0.648496	0.666477
H250	H	0.910906	0.006689	0.741592
H251	H	1.244239	0.340022	1.074926
H252	H	1.577573	0.673356	1.408259
O253	O	0.160461	0.223137	-0.000347
O254	O	0.493794	0.556471	0.332986
O255	O	0.827128	0.889804	0.666320
H256	H	0.116984	0.266830	-0.000348
H257	H	0.450318	0.600164	0.332985
H258	H	0.783651	0.933497	0.666319
H259	H	0.937632	-0.578372	-0.000329
H260	H	1.270966	-0.245038	0.333004
H261	H	1.604299	0.088295	0.666338
O262	O	0.694375	-0.242930	-0.000227
O263	O	1.027708	0.090403	0.333106
O264	O	1.361041	0.423736	0.666439
H265	H	0.704227	-0.301116	-0.000220
H266	H	1.037560	0.032217	0.333113
H267	H	1.370894	0.365551	0.666446
H268	H	0.944176	-0.134360	-0.000281
H269	H	1.277509	0.198973	0.333052
H270	H	1.610843	0.532306	0.666386
O271	O	0.725471	0.191953	0.244544
O272	O	1.058804	0.525286	0.577878
O273	O	1.392137	0.858620	0.911211
H274	H	0.754745	0.225815	0.198720
H275	H	1.088078	0.559148	0.532054
H276	H	1.421412	0.892482	0.865387
H277	H	0.942228	-0.266470	-0.000305
H278	H	1.275561	0.066863	0.333028
H279	H	1.608895	0.400197	0.666361
O280	O	0.696608	-0.091565	-0.000221
O281	O	1.029942	0.241768	0.333113
O282	O	1.363275	0.575101	0.666446
H283	H	0.651807	-0.123194	-0.000203
H284	H	0.985141	0.210139	0.333131
H285	H	1.318474	0.543472	0.666464
O286	O	0.690066	-0.535581	-0.000251
O287	O	1.023399	-0.202248	0.333083
O288	O	1.356733	0.131086	0.666416
H289	H	0.645266	-0.567211	-0.000228
H290	H	0.978599	-0.233878	0.333105
H291	H	1.311932	0.099456	0.666438
O292	O	0.677852	0.239547	0.395321
O293	O	1.011185	0.572880	0.728654
O294	O	1.344518	0.906214	1.061988
H295	H	0.685846	0.231542	0.316994
H296	H	1.019179	0.564876	0.650327
H297	H	1.352512	0.898209	0.983660
O298	O	0.971090	-0.053501	0.395203
O299	O	1.304423	0.279832	0.728536
O300	O	1.637756	0.613166	1.061869
H301	H	1.004204	-0.086601	0.447016
H302	H	1.337537	0.246733	0.780350
H303	H	1.670871	0.580066	1.113683
O304	O	0.923441	-0.005900	0.244456
O305	O	1.256774	0.327434	0.577790
O306	O	1.590108	0.660767	0.911123
H307	H	0.977845	0.002853	0.263696
H308	H	1.311179	0.336187	0.597029
H309	H	1.644512	0.669520	0.930362
O310	O	0.604471	0.229682	-0.000231
O311	O	0.937805	0.563015	0.333103
O312	O	1.271138	0.896348	0.666436
H313	H	0.560993	0.273373	-0.000236
H314	H	0.894327	0.606706	0.333097
H315	H	1.227660	0.940040	0.666431
