data_functionalizedCrystal
_audit_creation_method	'MofGen! by Chris Wilmer'
_symmetry_space_group_name_H-M	'P1'
_symmetry_Int_Tables_number	1
_symmetry_cell_setting	triclinic
loop_
_symmetry_equiv_pos_as_xyz
  x,y,z
_cell_length_a	15.538191
_cell_length_b	15.500215
_cell_length_c	17.019234
_cell_angle_alpha	82.937244
_cell_angle_beta	114.625797
_cell_angle_gamma	93.909734
loop_
_atom_site_label
_atom_site_type_symbol
_atom_site_fract_x
_atom_site_fract_y
_atom_site_fract_z
O1	O	1.253152	0.052969	0.254728
O2	O	0.979132	0.059775	0.163402
O3	O	1.123332	0.047625	0.326356
O4	O	1.108952	0.065120	0.091774
O5	O	1.115495	-0.096586	0.330672
O6	O	0.971296	-0.084436	0.167718
O7	O	1.245315	-0.091242	0.259044
Cu8	Cu	1.107590	-0.101007	0.213775
Cu9	Cu	1.116858	0.069540	0.208671
O10	O	1.101116	-0.079092	0.096090
C11	C	0.940143	-0.011618	0.156005
C12	C	0.835644	-0.009497	0.127543
N13	N	1.101078	-0.220960	0.217368
C14	C	0.547113	-0.030571	0.410302
C15	C	0.448918	-0.028575	0.383538
C16	C	0.426869	-0.017348	0.232997
C17	C	0.525065	-0.019348	0.259748
C18	C	0.585180	-0.025959	0.348402
C19	C	0.563131	-0.014735	0.197848
C20	C	0.661318	-0.016730	0.224598
C21	C	0.721439	-0.023338	0.313247
C22	C	0.683367	-0.027954	0.375151
C23	C	0.503015	-0.008118	0.109195
C24	C	0.541081	-0.003505	0.047294
C25	C	0.639270	-0.005507	0.074044
C26	C	0.699391	-0.012115	0.162694
C27	C	0.677342	-0.000891	0.012140
C28	C	0.775529	-0.002886	0.038889
C29	C	0.797578	-0.014110	0.189443
C30	C	1.155828	-0.263977	0.187127
C31	C	1.150916	-0.354753	0.189852
C32	C	1.091249	-0.402511	0.222813
C33	C	1.036497	-0.359488	0.253059
C34	C	1.041415	-0.268714	0.250339
C35	C	1.073543	-0.676710	0.232613
C36	C	1.068627	-0.767491	0.235328
C37	C	1.183048	-0.762749	0.172122
C38	C	1.187956	-0.671973	0.169400
C39	C	1.133208	-0.628959	0.199650
C40	C	1.086224	-0.495299	0.225597
C41	C	1.138238	-0.536173	0.196871
C42	C	1.284304	-0.019847	0.266441
C43	C	1.388804	-0.021962	0.294903
C44	C	1.118717	-0.026663	0.357803
C45	C	1.116630	-0.033166	0.445073
N46	N	1.123377	0.189493	0.205087
C47	C	1.105731	-0.004802	0.064643
C48	C	1.107818	0.001707	-0.022627
C49	C	1.104530	-0.073851	0.938738
C50	C	1.106500	-0.067745	0.856742
C51	C	1.111764	0.013920	0.813386
C52	C	1.115049	0.089483	0.852025
C53	C	1.113072	0.083377	0.934017
C54	C	1.117939	0.036291	0.565704
C55	C	1.119918	0.042391	0.483708
C56	C	1.111367	-0.114837	0.488430
C57	C	1.109397	-0.120937	0.570425
C58	C	1.112677	-0.045373	0.609055
C59	C	1.113780	0.020163	0.729574
C60	C	1.110654	-0.051617	0.692863
H61	H	0.846527	-0.019498	0.261634
H62	H	0.996832	-0.233691	0.274964
H63	H	1.119330	0.155976	0.816716
Br64	Br	1.120973	0.130989	0.670747
H65	H	1.186823	-0.497285	0.170038
Br66	Br	1.102253	-0.231771	0.629260
Br67	Br	0.955523	-0.424302	0.297797
H68	H	1.108695	-0.176357	0.456967
Br69	Br	1.127067	0.153229	0.424869
Br70	Br	0.459490	0.005475	-0.073018
H71	H	1.120618	0.097820	0.597150
Br72	Br	1.117524	0.185924	0.986447
H73	H	1.106362	-0.118107	0.728165
H74	H	1.236546	-0.633095	0.142563
H75	H	1.037642	-0.534193	0.252434
H76	H	1.020034	-0.806373	0.262167
H77	H	0.801390	-0.024951	0.335025
H78	H	0.377911	-0.011962	0.160814
H79	H	0.596063	-0.035960	0.482493
H80	H	1.028963	-0.641699	0.257245
H81	H	0.423065	-0.006491	0.087418
H82	H	1.100248	-0.140351	0.974034
Br83	Br	0.827197	0.003379	-0.045118
Br84	Br	0.764960	-0.036941	0.495469
H85	H	0.417930	-0.032330	0.433951
H86	H	1.204410	-0.225098	0.160280
Br87	Br	1.225223	-0.413130	0.148809
H88	H	0.628383	0.004500	-0.060042
Br89	Br	1.102012	-0.170292	0.804301
Br90	Br	1.257344	-0.821131	0.131071
