data_functionalizedCrystal
_audit_creation_method	'MofGen! by Chris Wilmer'
_symmetry_space_group_name_H-M	'P1'
_symmetry_Int_Tables_number	1
_symmetry_cell_setting	triclinic
loop_
_symmetry_equiv_pos_as_xyz
  x,y,z
_cell_length_a	18.050591
_cell_length_b	19.120904
_cell_length_c	18.050589
_cell_angle_alpha	92.416977
_cell_angle_beta	90.024227
_cell_angle_gamma	92.416941
loop_
_atom_site_label
_atom_site_type_symbol
_atom_site_fract_x
_atom_site_fract_y
_atom_site_fract_z
Zn1	Zn	1.117386	-0.397248	-0.313673
Zn2	Zn	1.617386	0.102752	0.186327
Zn3	Zn	1.122590	-0.279810	-0.432568
Zn4	Zn	1.622590	0.220190	0.067432
Zn5	Zn	0.998499	-0.279802	-0.308387
Zn6	Zn	1.498499	0.220198	0.191613
Zn7	Zn	0.993155	-0.397206	-0.437815
Zn8	Zn	1.493155	0.102794	0.062185
O9	O	1.057908	-0.338516	-0.373111
O10	O	1.557908	0.161484	0.126889
O11	O	1.222000	-0.381691	-0.329461
O12	O	1.722000	0.118309	0.170539
O13	O	1.110544	-0.181526	-0.411688
O14	O	1.610544	0.318474	0.088312
O15	O	1.014328	-0.295396	-0.205165
O16	O	1.514328	0.204604	0.294835
O17	O	1.225824	-0.295409	-0.416813
O18	O	1.725824	0.204591	0.083187
O19	O	1.101674	-0.381683	-0.209048
O20	O	1.601674	0.118317	0.290952
O21	O	1.019375	-0.181521	-0.320453
O22	O	1.519375	0.318479	0.179547
O23	O	0.893867	-0.295354	-0.325540
O24	O	1.393867	0.204646	0.174460
O25	O	1.005220	-0.495493	-0.425755
O26	O	1.505220	0.004507	0.074245
O27	O	0.889940	-0.381611	-0.420630
O28	O	1.389940	0.118389	0.079370
O29	O	1.096492	-0.495525	-0.334548
O30	O	1.596492	0.004475	0.165452
O31	O	1.105362	-0.295368	-0.537188
O32	O	1.605362	0.204632	-0.037188
O33	O	1.010266	-0.381618	-0.541043
O34	O	1.510266	0.118382	-0.041043
C35	C	0.864957	-0.338477	-0.373081
C36	C	1.364957	0.161523	0.126919
C37	C	0.782411	-0.338477	-0.373087
C38	C	1.282411	0.161523	0.126913
C39	C	0.585070	-0.291679	-0.321325
C40	C	1.085070	0.208321	0.178675
C41	C	0.536429	-0.274401	-0.388283
C42	C	1.036429	0.225599	0.111717
C43	C	0.631280	-0.338509	-0.373111
C44	C	1.131280	0.161491	0.126889
C45	C	0.532839	-0.355786	-0.306177
C46	C	1.032839	0.144214	0.193823
C47	C	0.485293	-0.338539	-0.373129
C48	C	0.985293	0.161461	0.126871
C49	C	0.583728	-0.321197	-0.440103
C50	C	1.083728	0.178803	0.059897
C51	C	0.580141	-0.402613	-0.357953
C52	C	1.080141	0.097387	0.142047
C53	C	0.531521	-0.385358	-0.424959
C54	C	1.031521	0.114642	0.075041
C55	C	0.715379	-0.338491	-0.373100
C56	C	1.215379	0.161509	0.126900
C57	C	0.401196	-0.338557	-0.373147
C58	C	0.901196	0.161443	0.126853
C59	C	1.049679	-0.521705	-0.381326
C60	C	1.549679	-0.021705	0.118674
C61	C	1.046173	-0.599769	-0.384827
C62	C	1.546173	-0.099769	0.115173
C63	C	1.092043	-0.636462	-0.338988
C64	C	1.592043	-0.136462	0.161012
C65	C	1.088739	-0.709811	-0.342275
C66	C	1.588739	-0.209811	0.157725
C67	C	1.039568	-0.746467	-0.391405
C68	C	1.539568	-0.246467	0.108595
C69	C	0.993693	-0.709770	-0.437246
C70	C	1.493693	-0.209770	0.062754
C71	C	0.996993	-0.636422	-0.433955
C72	C	1.496993	-0.136422	0.066045
C73	C	1.027222	-0.967931	-0.403714
C74	C	1.527222	-0.467931	0.096286
C75	C	1.023927	-1.041284	-0.407003
C76	C	1.523927	-0.541284	0.092997
C77	C	1.118973	-1.041320	-0.312030
C78	C	1.618973	-0.541320	0.187970
C79	C	1.122272	-0.967971	-0.308746
C80	C	1.622272	-0.467971	0.191254
C81	C	1.076394	-0.931280	-0.354585
C82	C	1.576394	-0.431280	0.145415
C83	C	1.036192	-0.821442	-0.394767
C84	C	1.536192	-0.321442	0.105233
C85	C	1.079767	-0.856306	-0.351218
C86	C	1.579767	-0.356306	0.148782
C87	C	1.251611	-0.338556	-0.373141
C88	C	1.751611	0.161444	0.126859
C89	C	1.334156	-0.338572	-0.373154
C90	C	1.834156	0.161428	0.126846
C91	C	1.057818	-0.338505	-0.566062
C92	C	1.557818	0.161495	-0.066062
C93	C	1.057847	-0.338523	-0.648609
C94	C	1.557847	0.161477	-0.148609
C95	C	1.066147	-0.156040	-0.364874
C96	C	1.566147	0.343960	0.135126
C97	C	1.069797	-0.077976	-0.361163
C98	C	1.569797	0.422024	0.138837
C99	C	1.006184	-0.385410	-0.850182
C100	C	1.506184	0.114590	-0.350182
C101	C	0.990975	-0.321320	-0.896729
C102	C	1.490975	0.178680	-0.396729
C103	C	1.057920	-0.338532	-0.799740
C104	C	1.557920	0.161468	-0.299740
C105	C	1.073165	-0.402629	-0.900275
C106	C	1.573165	0.097371	-0.400275
C107	C	1.057988	-0.338547	-0.945726
C108	C	1.557988	0.161453	-0.445726
C109	C	1.042677	-0.274408	-0.845198
C110	C	1.542677	0.225592	-0.345198
C111	C	1.124896	-0.355761	-0.848741
C112	C	1.624896	0.144239	-0.348741
C113	C	1.109715	-0.291627	-0.895264
C114	C	1.609715	0.208373	-0.395264
C115	C	1.057878	-0.338525	-0.715641
C116	C	1.557878	0.161475	-0.215641
C117	C	1.058030	-0.338547	-1.029822
C118	C	1.558030	0.161453	-0.529822
C119	C	1.058017	-0.338543	-0.179406
C120	C	1.558017	0.161457	0.320594
C121	C	1.058063	-0.338555	-0.096861
C122	C	1.558063	0.161445	0.403139
H123	H	0.608514	-0.252034	-0.277574
H124	H	1.108514	0.247966	0.222426
Br125	Br	0.934733	-0.586624	-0.496164
Br126	Br	1.434733	-0.086624	0.003836
Br127	Br	0.620789	-0.296757	-0.534486
Br128	Br	1.120789	0.203243	-0.034486
H129	H	0.517134	-0.220202	-0.401117
H130	H	1.017134	0.279798	0.098883
H131	H	0.599454	-0.456795	-0.345098
H132	H	1.099454	0.043205	0.154902
H133	H	0.996160	-0.851296	-0.434773
H134	H	1.496160	-0.351296	0.065227
H135	H	1.132086	-0.606621	-0.298983
H136	H	1.632086	-0.106621	0.201017
Br137	Br	0.933168	-0.451392	-0.817067
Br138	Br	1.433168	0.048608	-0.317067
H139	H	1.153498	-0.251945	-0.914990
H140	H	1.653498	0.248055	-0.414990
H141	H	0.510474	-0.370363	-0.249571
H142	H	1.010474	0.129637	0.250429
Br143	Br	1.021125	-0.184044	-0.805188
Br144	Br	1.521125	0.315956	-0.305188
H145	H	1.181490	-0.370351	-0.827624
H146	H	1.681490	0.129649	-0.327624
Br147	Br	1.151030	-0.759605	-0.280095
Br148	Br	1.651030	-0.259605	0.219905
H149	H	0.508214	-0.424973	-0.468809
H150	H	1.008214	0.075027	0.031191
H151	H	1.162314	-0.938130	-0.268741
H152	H	1.662314	-0.438130	0.231259
H153	H	0.989876	-0.938066	-0.441050
H154	H	1.489876	-0.438066	0.058950
H155	H	1.086032	-0.456830	-0.924372
H156	H	1.586032	0.043170	-0.424372
H157	H	1.156323	-1.071202	-0.274710
H158	H	1.656323	-0.571202	0.225290
H159	H	1.119799	-0.826457	-0.311213
H160	H	1.619799	-0.326457	0.188787
Br161	Br	0.957187	-1.091032	-0.473682
Br162	Br	1.457187	-0.591032	0.026318
H163	H	0.953654	-0.739621	-0.477247
H164	H	1.453654	-0.239621	0.022753
Br165	Br	0.896621	-0.297030	-0.931900
Br166	Br	1.396621	0.202970	-0.431900
