data_functionalizedCrystal
_audit_creation_method	'MofGen! by Chris Wilmer'
_symmetry_space_group_name_H-M	'P1'
_symmetry_Int_Tables_number	1
_symmetry_cell_setting	triclinic
loop_
_symmetry_equiv_pos_as_xyz
  x,y,z
_cell_length_a	19.188929
_cell_length_b	13.339071
_cell_length_c	11.804365
_cell_angle_alpha	74.875833
_cell_angle_beta	78.231222
_cell_angle_gamma	80.612971
loop_
_atom_site_label
_atom_site_type_symbol
_atom_site_fract_x
_atom_site_fract_y
_atom_site_fract_z
O1	O	-0.339571	1.361268	-0.099271
O2	O	-0.293671	1.066937	-0.099238
O3	O	-0.216636	1.222581	-0.099182
O4	O	-0.416606	1.205624	-0.099327
O5	O	-0.236888	1.181606	0.098859
O6	O	-0.313923	1.025962	0.098803
O7	O	-0.359823	1.320293	0.098770
Cu8	Cu	-0.338722	1.169386	0.116869
Cu9	Cu	-0.314772	1.217844	-0.117337
O10	O	-0.436858	1.164649	0.098714
C11	C	-0.296043	1.008794	-0.000212
C12	C	-0.272932	0.896591	-0.000196
C13	C	-0.200862	0.856200	-0.000139
C14	C	-0.179145	0.750781	-0.000130
C15	C	-0.229497	0.685741	-0.000168
C16	C	-0.301570	0.726130	-0.000216
C17	C	-0.323288	0.831561	-0.000235
C18	C	-0.351923	0.661102	-0.000263
C19	C	-0.423995	0.701491	-0.000311
C20	C	-0.445710	0.806911	-0.000329
C21	C	-0.395358	0.871952	-0.000292
C22	C	-0.330205	0.555671	-0.000244
C23	C	-0.452631	0.531032	-0.000339
C24	C	-0.474348	0.636451	-0.000349
C25	C	-0.452848	1.185690	-0.000326
C26	C	-0.530671	1.187354	-0.000383
C27	C	-0.557712	1.096013	-0.000349
C28	C	-0.630842	1.097559	-0.000322
C29	C	-0.676931	1.190446	-0.000305
C30	C	-0.649882	1.281800	-0.000346
C31	C	-0.576751	1.280254	-0.000385
N32	N	-0.805703	1.247490	0.067160
N33	N	-0.875174	1.248951	0.067199
C34	C	-0.897270	1.195110	-0.000191
N35	N	-0.847270	1.139732	-0.067608
N36	N	-0.777794	1.138266	-0.067641
C37	C	-0.756230	1.192132	-0.000264
C38	C	-1.003607	1.105439	-0.000130
C39	C	-1.076738	1.106990	-0.000111
C40	C	-1.095777	1.291231	-0.000123
C41	C	-1.022646	1.289680	-0.000154
C42	C	-0.976565	1.196780	-0.000152
C43	C	-0.200645	1.201540	-0.000145
C44	C	-0.122822	1.199878	-0.000096
C45	C	-0.357450	1.378437	-0.000258
C46	C	-0.380560	1.490641	-0.000283
N47	N	-0.355568	1.135311	0.281597
N48	N	-0.297921	1.251927	-0.282066
C49	C	-0.257454	1.333754	0.655618
C50	C	-0.244706	1.359530	0.530966
C51	C	-0.272421	1.303477	0.468617
C52	C	-0.312885	1.221644	0.530934
C53	C	-0.325638	1.195870	0.655598
C54	C	-0.340605	1.165594	0.468598
C55	C	-0.381069	1.083760	0.530914
C56	C	-0.393820	1.057990	0.655567
C57	C	-0.366106	1.114043	0.717915
C58	C	-0.327851	1.191368	0.343933
C59	C	-0.396036	1.053484	0.343914
C60	C	-0.408783	1.027708	0.468566
H61	H	-0.211811	0.599905	-0.000159
H62	H	-0.413037	0.957792	-0.000294
C63	C	-0.200446	1.448016	0.463388
C64	C	-0.139983	1.408839	0.392124
C65	C	-0.099085	1.490226	0.329945
H66	H	-0.185688	1.477544	0.518420
H67	H	-0.228476	1.500269	0.414497
H68	H	-0.111958	1.356604	0.441010
H69	H	-0.154721	1.379319	0.337070
H70	H	-0.127115	1.542479	0.281054
H71	H	-0.084332	1.519749	0.384985
H72	H	-0.058060	1.463658	0.281577
C73	C	-1.105968	1.007692	-0.000013
C74	C	-1.049961	0.926003	0.000014
C75	C	-1.076863	0.834510	0.000121
H76	H	-1.127055	1.018600	-0.069042
H77	H	-1.141118	0.990123	0.069089
H78	H	-1.014824	0.943570	-0.069082
H79	H	-1.028868	0.915063	0.069038
H80	H	-1.112012	0.816941	0.069223
H81	H	-1.097949	0.845429	-0.068909
H82	H	-1.038867	0.779071	0.000150
H83	H	-0.966086	1.029793	-0.000121
H84	H	-1.133294	1.366880	-0.000196
H85	H	-0.262040	1.324469	0.367120
C86	C	-0.227228	1.394577	0.723165
C87	C	-0.152401	1.384769	0.692886
C88	C	-0.124529	1.440797	0.755079
H89	H	-0.240539	1.367569	0.806347
H90	H	-0.245763	1.466254	0.702689
H91	H	-0.133873	1.313106	0.713370
H92	H	-0.139070	1.411782	0.609715
H93	H	-0.143064	1.512475	0.734603
H94	H	-0.137846	1.413785	0.838257
H95	H	-0.073757	1.434159	0.734536
H96	H	-0.652864	1.023175	-0.000291
C97	C	-0.452703	0.938794	0.536016
C98	C	-0.474232	0.895197	0.454746
C99	C	-0.514682	0.813279	0.516837
H100	H	-0.493815	0.964850	0.584618
H101	H	-0.424418	0.886729	0.584650
H102	H	-0.502517	0.947253	0.406133
H103	H	-0.433135	0.869119	0.406141
H104	H	-0.486397	0.761213	0.565472
H105	H	-0.555790	0.839344	0.565437
H106	H	-0.529289	0.783682	0.461706
C107	C	-0.993427	1.388945	-0.000114
C108	C	-1.049443	1.470619	-0.000063
C109	C	-1.022556	1.562079	-0.000013
H110	H	-0.958276	1.406603	-0.069170
H111	H	-0.972352	1.377929	0.068961
H112	H	-1.070507	1.481635	-0.069131
H113	H	-1.084599	1.452996	0.068989
H114	H	-1.001480	1.551063	0.069062
H115	H	-0.987404	1.579726	-0.069070
H116	H	-1.060559	1.617503	0.000033
C117	C	-0.437651	0.969067	0.723376
C118	C	-0.395811	0.892573	0.795017
C119	C	-0.436166	0.810649	0.857508
H120	H	-0.452344	0.939248	0.668530
H121	H	-0.478712	0.995204	0.772038
H122	H	-0.354762	0.866438	0.746359
H123	H	-0.381117	0.922359	0.849885
H124	H	-0.477228	0.836786	0.906170
H125	H	-0.450857	0.780839	0.802653
H126	H	-0.407786	0.758743	0.906131
H127	H	-0.687410	1.357433	-0.000355
C128	C	-0.547532	1.379524	-0.000353
C129	C	-0.603546	1.461200	-0.000309
C130	C	-0.576658	1.552659	-0.000261
H131	H	-0.512379	1.397178	-0.069408
H132	H	-0.526459	1.368509	0.068724
H133	H	-0.624609	1.472215	-0.069379
H134	H	-0.638704	1.443581	0.068741
H135	H	-0.555584	1.541645	0.068816
H136	H	-0.541504	1.570303	-0.069317
H137	H	-0.614659	1.608085	-0.000220
C138	C	-0.283769	1.280066	0.276396
C139	C	-0.215154	1.257638	0.306819
C140	C	-0.174510	1.339314	0.244638
H141	H	-0.306431	1.343319	0.296761
H142	H	-0.280070	1.287418	0.193204
H143	H	-0.218856	1.250297	0.389992
H144	H	-0.192472	1.194399	0.286450
H145	H	-0.170810	1.346667	0.161446
H146	H	-0.197178	1.402561	0.265008
H147	H	-0.127948	1.324104	0.265263
H148	H	-0.159872	0.909166	-0.000117
H149	H	-0.271523	0.522798	-0.000205
H150	H	-0.120463	0.717905	-0.000092
H151	H	-0.418605	1.007842	0.293151
H152	H	-0.376482	1.093054	0.819417
H153	H	-0.504394	0.839796	-0.000386
H154	H	-0.533030	0.669351	-0.000389
H155	H	-0.493632	0.478076	-0.000371
H156	H	-0.520196	1.020369	-0.000357
