data_functionalizedCrystal
_audit_creation_method	'MofGen! by Chris Wilmer'
_symmetry_space_group_name_H-M	'P1'
_symmetry_Int_Tables_number	1
_symmetry_cell_setting	triclinic
loop_
_symmetry_equiv_pos_as_xyz
  x,y,z
_cell_length_a	15.944545
_cell_length_b	15.944551
_cell_length_c	10.065875
_cell_angle_alpha	98.788968
_cell_angle_beta	81.255204
_cell_angle_gamma	83.497455
loop_
_atom_site_label
_atom_site_type_symbol
_atom_site_fract_x
_atom_site_fract_y
_atom_site_fract_z
O1	O	1.126807	0.095970	-0.113407
O2	O	1.626807	0.595970	0.386593
O3	O	0.882259	0.109329	-0.113429
O4	O	1.382259	0.609329	0.386571
O5	O	1.011210	-0.019624	-0.113405
O6	O	1.511210	0.480376	0.386595
O7	O	0.997856	0.224923	-0.113431
O8	O	1.497856	0.724923	0.386569
O9	O	0.986621	0.005064	0.113579
O10	O	1.486621	0.505064	0.613579
O11	O	0.857670	0.134018	0.113555
O12	O	1.357670	0.634018	0.613555
O13	O	1.102218	0.120658	0.113578
O14	O	1.602218	0.620658	0.613578
Zn15	Zn	0.976040	0.131258	0.149605
Zn16	Zn	1.476040	0.631258	0.649605
Zn17	Zn	1.008437	0.098730	-0.149456
Zn18	Zn	1.508437	0.598730	0.350544
O19	O	0.973267	0.249612	0.113553
O20	O	1.473267	0.749612	0.613553
C21	C	0.838671	0.121119	0.000060
C22	C	1.338671	0.621119	0.500060
C23	C	0.745426	0.119458	0.000052
C24	C	1.245426	0.619458	0.500052
C25	C	0.474790	0.034567	0.000075
C26	C	0.974790	0.534567	0.500075
C27	C	0.513248	0.087669	0.111989
C28	C	1.013248	0.587669	0.611989
C29	C	0.409779	0.113540	0.000076
C30	C	0.909779	0.613540	0.500076
C31	C	0.537472	0.063349	-0.111799
C32	C	1.037472	0.563349	0.388201
C33	C	0.574694	0.116443	0.000062
C34	C	1.074694	0.616443	0.500062
C35	C	0.446999	0.166631	0.112082
C36	C	0.946999	0.666631	0.612082
C37	C	0.471230	0.142289	-0.111807
C38	C	0.971230	0.642289	0.388193
C39	C	0.509652	0.195451	0.000135
C40	C	1.009652	0.695451	0.500135
C41	C	0.314776	0.111866	0.000085
C42	C	0.814776	0.611866	0.500085
C43	C	0.669693	0.118125	0.000062
C44	C	1.169693	0.618125	0.500062
C45	C	0.998361	-0.038574	0.000087
C46	C	1.498361	0.461426	0.500087
C47	C	0.996699	-0.131820	0.000088
C48	C	1.496699	0.368180	0.500088
C49	C	0.912797	-0.346677	0.000061
C50	C	1.412797	0.153323	0.500061
C51	C	0.939635	-0.395522	0.111982
C52	C	1.439635	0.104478	0.611982
C53	C	0.993692	-0.302547	0.000077
C54	C	1.493692	0.197453	0.500077
C55	C	0.963897	-0.419846	-0.111807
C56	C	1.463897	0.080154	0.388193
C57	C	0.990783	-0.467461	0.000061
C58	C	1.490783	0.032539	0.500061
C59	C	1.020543	-0.350153	0.112090
C60	C	1.520543	0.149847	0.612090
C61	C	1.044804	-0.374482	-0.111799
C62	C	1.544804	0.125518	0.388201
C63	C	1.071698	-0.423306	0.000149
C64	C	1.571698	0.076694	0.500149
C65	C	0.995366	-0.207543	0.000088
C66	C	1.495366	0.292457	0.500088
C67	C	0.989115	-0.562462	0.000060
C68	C	1.489115	-0.062462	0.500060
C69	C	1.145807	0.108868	0.000085
C70	C	1.645807	0.608868	0.500085
C71	C	1.239053	0.110528	0.000084
C72	C	1.739053	0.610528	0.500084
C73	C	0.986117	0.268561	0.000058
C74	C	1.486117	0.768561	0.500058
C75	C	0.987780	0.361806	0.000049
C76	C	1.487780	0.861806	0.500049
N77	N	0.953936	0.153457	0.353706
N78	N	1.453936	0.653457	0.853706
N79	N	1.030548	0.076524	-0.353558
N80	N	1.530548	0.576524	0.146442
C81	C	1.000741	0.106448	0.421494
C82	C	1.500741	0.606448	0.921494
C83	C	0.983736	0.123540	0.578658
C84	C	1.483736	0.623540	1.078658
H85	H	0.576638	0.019693	-0.206408
H86	H	1.076638	0.519693	0.293592
O87	O	0.884191	0.223547	0.430931
O88	O	1.384191	0.723547	0.930931
H89	H	0.821598	0.210047	0.403615
H90	H	1.321598	0.710047	0.903615
H91	H	1.089241	-0.364644	-0.206418
H92	H	1.589241	0.135356	0.293582
H93	H	1.138898	-0.456459	0.000218
H94	H	1.638898	0.043541	0.500218
O95	O	0.913987	0.193624	0.655901
O96	O	1.413987	0.693624	1.155901
H97	H	0.927831	0.256097	0.628534
H98	H	1.427831	0.756097	1.128534
H99	H	0.531929	0.064608	0.206611
H100	H	1.031929	0.564608	0.706611
O101	O	0.454024	-0.055501	0.000220
O102	O	0.954024	0.444499	0.500220
H103	H	0.470608	-0.077973	0.093270
H104	H	0.970608	0.422027	0.593270
O105	O	1.070497	0.036367	0.344277
O106	O	1.570497	0.536367	0.844277
H107	H	1.056646	-0.026103	0.371646
H108	H	1.556646	0.473897	0.871646
H109	H	0.452534	0.165320	-0.206432
H110	H	0.952534	0.665320	0.293568
O111	O	0.395258	0.224409	0.237567
O112	O	0.895258	0.724409	0.737567
H113	H	0.325951	0.222697	0.236620
H114	H	0.825951	0.722697	0.736620
H115	H	1.083210	0.023619	0.588131
H116	H	1.583210	0.523619	1.088131
H117	H	0.845637	-0.313357	0.000167
H118	H	1.345637	0.186643	0.500167
H119	H	0.525138	0.263522	0.000193
H120	H	1.025138	0.763522	0.500193
H121	H	0.895169	-0.405339	0.206596
H122	H	1.395169	0.094661	0.706596
O123	O	0.932143	-0.460088	-0.237145
O124	O	1.432143	0.039912	0.262855
H125	H	0.866180	-0.429057	-0.236905
H126	H	1.366180	0.070943	0.263095
H127	H	1.044469	-0.319861	0.206814
H128	H	1.544469	0.180139	0.706814
