data_functionalizedCrystal
_audit_creation_method	'MofGen! by Chris Wilmer'
_symmetry_space_group_name_H-M	'P1'
_symmetry_Int_Tables_number	1
_symmetry_cell_setting	triclinic
loop_
_symmetry_equiv_pos_as_xyz
  x,y,z
_cell_length_a	9.065215
_cell_length_b	12.996460
_cell_length_c	9.065218
_cell_angle_alpha	90.001592
_cell_angle_beta	94.984709
_cell_angle_gamma	90.005726
loop_
_atom_site_label
_atom_site_type_symbol
_atom_site_fract_x
_atom_site_fract_y
_atom_site_fract_z
O1	O	1.960409	0.085550	-0.216326
O2	O	1.531123	0.085555	-0.234077
O3	O	1.754639	0.085550	-0.010559
O4	O	1.736893	0.085555	-0.439844
O5	O	1.754610	-0.085584	-0.010572
O6	O	1.531094	-0.085579	-0.234090
O7	O	1.960380	-0.085584	-0.216339
Cu8	Cu	1.745734	-0.101207	-0.225216
Cu9	Cu	1.745769	0.101178	-0.225201
O10	O	1.736864	-0.085579	-0.439857
C11	C	1.476122	-0.000012	-0.232379
C12	C	1.312279	-0.000010	-0.227281
N13	N	1.745721	-0.243554	-0.225226
C14	C	1.745728	-0.336660	-0.225229
C15	C	1.745741	-0.453465	-0.225220
C16	C	1.745759	-0.546564	-0.225204
C17	C	1.745775	-0.663376	-0.225195
C18	C	2.015381	-0.000015	-0.218038
C19	C	2.179224	-0.000010	-0.223136
C20	C	1.752919	-0.000015	0.044421
C21	C	1.747819	-0.000010	0.208264
N22	N	1.745793	0.243525	-0.225179
C23	C	1.738584	-0.000012	-0.494837
C24	C	1.743683	-0.000010	-0.658680
