data_functionalizedCrystal
_audit_creation_method	'MofGen! by Chris Wilmer'
_symmetry_space_group_name_H-M	'P1'
_symmetry_Int_Tables_number	1
_symmetry_cell_setting	triclinic
loop_
_symmetry_equiv_pos_as_xyz
  x,y,z
_cell_length_a	14.472310
_cell_length_b	10.723024
_cell_length_c	10.723024
_cell_angle_alpha	84.467869
_cell_angle_beta	90.000183
_cell_angle_gamma	89.987242
loop_
_atom_site_label
_atom_site_type_symbol
_atom_site_fract_x
_atom_site_fract_y
_atom_site_fract_z
O1	O	0.076832	-1.657205	-0.175019
O2	O	0.076835	-1.294052	-0.191772
O3	O	0.076830	-1.484005	-0.001819
O4	O	0.076837	-1.467252	-0.364972
O5	O	-0.076852	-1.483956	-0.001830
O6	O	-0.076847	-1.294003	-0.191783
O7	O	-0.076850	-1.657156	-0.175030
Cu8	Cu	-0.090881	-1.475575	-0.183407
Cu9	Cu	0.090866	-1.475633	-0.183395
O10	O	-0.076845	-1.467203	-0.364982
C11	C	-0.000005	-1.247528	-0.190558
C12	C	-0.000004	-1.108974	-0.186911
N13	N	-0.218711	-1.475543	-0.183415
C14	C	-0.000010	-1.482762	0.044675
C15	C	-0.000006	-1.479114	0.183229
C16	C	-0.592803	-1.475631	-0.183389
C17	C	-0.553634	-1.373645	-0.284683
C18	C	-0.446546	-1.373885	-0.285057
C19	C	-0.407212	-1.475586	-0.183402
C20	C	-0.446049	-1.606038	-0.212956
C21	C	-0.553171	-1.605466	-0.213678
C22	C	-0.553334	-1.448326	-0.052249
C23	C	-0.446207	-1.445347	-0.053097
C24	C	-0.302323	-1.475569	-0.183407
C25	C	-0.697691	-1.475657	-0.183387
N26	N	0.218697	-1.475675	-0.183377
C27	C	-0.000007	-1.703680	-0.176243
C28	C	-0.000002	-1.842234	-0.179891
C29	C	-0.000002	-1.033991	-0.293198
C30	C	-0.000000	-0.890788	-0.289431
C31	C	-0.000003	-1.468447	-0.411477
C32	C	0.000000	-1.472094	-0.550031
C33	C	-0.000006	-1.585401	0.258212
C34	C	-0.000002	-1.581634	0.401415
H35	H	-0.579422	-1.276402	-0.267186
H36	H	-0.419435	-1.514719	0.025899
H37	H	0.000001	-1.385328	0.225051
O38	O	-0.589262	-1.396575	-0.412841
H39	H	-0.634744	-1.480297	-0.404709
O40	O	-0.000014	-1.053585	-0.062675
H41	H	-0.000024	-1.130295	0.014610
H42	H	-0.000006	-1.672624	0.465848
H43	H	0.000002	-0.906659	-0.088896
H44	H	-0.000007	-1.381099	0.385544
H45	H	-0.419210	-1.630472	-0.307546
H46	H	-0.420290	-1.276954	-0.267285
O47	O	-0.000008	-1.709643	0.202834
H48	H	-0.000016	-1.693105	0.099046
O49	O	-0.589146	-1.324951	-0.014987
H50	H	-0.635482	-1.281714	-0.089532
H51	H	-0.420568	-1.683789	-0.141189
H52	H	-0.420910	-1.391438	-0.382351
H53	H	-0.578662	-1.522687	0.023143
H54	H	-0.578145	-1.629358	-0.309351
H55	H	-0.579078	-1.683787	-0.142869
H56	H	-0.420824	-1.349380	-0.030694
H57	H	-0.000005	-1.075814	-0.386984
O58	O	-0.000006	-0.805455	-0.409970
H59	H	-0.000014	-0.706369	-0.388095
