data_functionalizedCrystal
_audit_creation_method	'MofGen! by Chris Wilmer'
_symmetry_space_group_name_H-M	'P1'
_symmetry_Int_Tables_number	1
_symmetry_cell_setting	triclinic
loop_
_symmetry_equiv_pos_as_xyz
  x,y,z
_cell_length_a	18.215407
_cell_length_b	17.637651
_cell_length_c	18.215399
_cell_angle_alpha	78.756317
_cell_angle_beta	89.982632
_cell_angle_gamma	101.216706
loop_
_atom_site_label
_atom_site_type_symbol
_atom_site_fract_x
_atom_site_fract_y
_atom_site_fract_z
Zn1	Zn	1.065871	-0.314821	-0.356755
Zn2	Zn	1.040917	-0.447039	-0.208779
Zn3	Zn	0.942800	-0.314840	-0.233704
Zn4	Zn	0.917917	-0.446988	-0.331819
O5	O	0.991876	-0.380922	-0.282764
O6	O	1.165543	-0.332373	-0.337130
O7	O	1.027872	-0.429532	-0.109095
O8	O	0.979984	-0.204199	-0.270894
O9	O	1.147209	-0.429513	-0.228413
O10	O	1.070403	-0.204185	-0.361299
O11	O	0.955786	-0.332406	-0.127408
O12	O	0.836518	-0.332356	-0.246714
O13	O	0.937573	-0.429426	-0.438116
O14	O	0.818236	-0.429445	-0.318799
O15	O	1.046274	-0.332324	-0.456437
O16	O	1.003743	-0.557670	-0.204233
O17	O	0.913375	-0.557633	-0.294630
C18	C	0.800675	-0.380898	-0.282756
C19	C	0.718874	-0.380906	-0.282766
C20	C	0.540206	-0.330430	-0.339430
C21	C	0.463346	-0.330436	-0.339431
C22	C	0.444294	-0.431436	-0.226107
C23	C	0.521154	-0.431425	-0.226103
C24	C	0.569108	-0.380923	-0.282769
C25	C	0.415388	-0.380941	-0.282774
C26	C	0.332053	-0.380949	-0.282774
C27	C	0.652448	-0.380914	-0.282767
C28	C	0.953171	-0.586339	-0.244037
C29	C	0.936680	-0.674217	-0.227494
C30	C	1.117635	-0.962906	-0.408672
C31	C	1.102115	-1.045481	-0.393115
C32	C	1.008024	-1.045603	-0.298885
C33	C	1.023538	-0.963026	-0.314432
C34	C	1.078343	-0.921685	-0.369327
C35	C	0.984247	-0.921805	-0.275087
C36	C	0.999757	-0.839235	-0.290636
C37	C	1.054558	-0.797888	-0.345530
C38	C	1.093853	-0.839115	-0.384876
C39	C	0.929438	-0.963148	-0.220196
C40	C	0.890146	-0.921926	-0.180851
C41	C	0.905660	-0.839355	-0.196396
C42	C	0.960461	-0.798008	-0.251290
C43	C	0.866365	-0.798128	-0.157050
C44	C	0.881875	-0.715559	-0.172599
C45	C	0.975971	-0.715438	-0.266839
C46	C	1.183825	-0.380947	-0.282773
C47	C	1.265621	-0.380957	-0.282776
C48	C	0.991931	-0.380867	-0.474727
C49	C	0.991955	-0.380844	-0.556531
C50	C	1.030753	-0.174703	-0.321659
C51	C	1.047320	-0.086825	-0.338233
C52	C	1.048582	-0.330236	-0.754274
C53	C	1.048595	-0.330213	-0.831137
C54	C	0.935403	-0.431330	-0.812048
C55	C	0.935388	-0.431349	-0.735187
C56	C	0.991981	-0.380803	-0.706302
C57	C	0.992009	-0.380761	-0.860026
C58	C	0.992023	-0.380737	-0.943364
C59	C	0.991967	-0.380826	-0.622959
C60	C	0.991875	-0.380919	-0.091558
C61	C	0.992036	-0.380720	-0.009797
H62	H	0.405241	-0.472554	-0.179972
H63	H	1.162268	-0.929244	-0.453368
H64	H	0.579249	-0.289305	-0.385569
H65	H	0.439819	-0.289318	-0.385569
O66	O	0.549105	-0.480553	-0.171022
C67	C	0.490302	-0.525120	-0.121002
H68	H	0.435001	-0.527911	-0.150617
H69	H	0.487573	-0.496093	-0.070626
C70	C	0.572382	-0.605819	-0.058032
C71	C	0.504461	-0.609251	-0.094409
H72	H	0.581116	-0.657714	-0.041625
H73	H	0.612000	-0.575791	-0.091730
H74	H	0.570099	-0.581626	-0.016057
H75	H	0.506748	-0.633435	-0.136388
H76	H	0.464843	-0.639285	-0.060717
H77	H	1.020605	-0.681776	-0.311534
O78	O	1.069563	-0.717679	-0.360757
C79	C	1.055830	-0.690065	-0.436479
H80	H	1.014786	-0.737650	-0.457910
H81	H	1.110675	-0.675367	-0.471177
C82	C	1.072594	-0.557033	-0.417049
C83	C	1.022178	-0.615474	-0.443369
H84	H	1.051839	-0.511020	-0.421301
H85	H	1.081849	-0.575636	-0.366034
H86	H	1.118294	-0.544794	-0.445967
H87	H	0.976483	-0.627719	-0.414445
H88	H	1.012914	-0.596871	-0.494380
H89	H	1.138487	-0.805453	-0.429572
H90	H	0.889328	-0.472485	-0.835575
H91	H	1.094662	-0.289075	-0.730759
H92	H	1.134105	-1.079041	-0.425169
H93	H	0.963400	-1.079275	-0.254191
H94	H	0.916804	-1.030381	-0.207545
H95	H	0.845522	-0.955598	-0.136157
O96	O	1.103652	-0.281068	-0.877628
C97	C	1.153585	-0.236447	-0.835651
H98	H	1.150017	-0.268847	-0.774754
H99	H	1.137954	-0.176400	-0.838797
C100	C	1.238444	-0.185259	-0.942603
C101	C	1.234067	-0.225056	-0.867809
H102	H	1.288089	-0.178228	-0.962441
H103	H	1.204803	-0.215318	-0.970885
H104	H	1.225414	-0.135223	-0.945215
H105	H	1.247087	-0.275094	-0.865199
H106	H	1.267712	-0.195005	-0.839527
H107	H	0.821737	-0.831801	-0.112359
H108	H	0.849879	-0.681996	-0.140560
O109	O	0.880346	-0.480361	-0.688570
C110	C	0.841304	-0.435353	-0.652583
H111	H	0.848498	-0.373079	-0.687494
H112	H	0.864561	-0.432643	-0.594849
C113	C	0.748682	-0.550459	-0.601223
C114	C	0.757514	-0.473974	-0.644105
H115	H	0.696998	-0.574283	-0.595989
H116	H	0.774987	-0.580783	-0.625465
H117	H	0.768069	-0.548190	-0.553116
H118	H	0.738137	-0.476245	-0.692213
H119	H	0.731204	-0.443652	-0.619870
