data_functionalizedCrystal
_audit_creation_method	'MofGen! by Chris Wilmer'
_symmetry_space_group_name_H-M	'P1'
_symmetry_Int_Tables_number	1
_symmetry_cell_setting	triclinic
loop_
_symmetry_equiv_pos_as_xyz
  x,y,z
_cell_length_a	14.519709
_cell_length_b	12.996460
_cell_length_c	9.065218
_cell_angle_alpha	90.001592
_cell_angle_beta	95.651985
_cell_angle_gamma	90.000602
loop_
_atom_site_label
_atom_site_type_symbol
_atom_site_fract_x
_atom_site_fract_y
_atom_site_fract_z
O1	O	1.225286	0.085428	-0.193384
O2	O	1.558620	0.418762	0.139949
O3	O	1.891953	0.752095	0.473282
O4	O	0.956976	0.085459	-0.216159
O5	O	1.290310	0.418793	0.117174
O6	O	1.623643	0.752126	0.450508
O7	O	1.096677	0.085441	0.009975
O8	O	1.430011	0.418775	0.343308
O9	O	1.763344	0.752108	0.676641
O10	O	1.085585	0.085447	-0.419518
O11	O	1.418919	0.418780	-0.086185
O12	O	1.752252	0.752113	0.247149
O13	O	1.096659	-0.085693	0.009962
O14	O	1.429992	0.247641	0.343295
O15	O	1.763326	0.580974	0.676628
O16	O	0.956958	-0.085674	-0.216172
O17	O	1.290291	0.247659	0.117161
O18	O	1.623625	0.580992	0.450495
O19	O	1.225268	-0.085705	-0.193397
O20	O	1.558602	0.247628	0.139936
O21	O	1.891935	0.580961	0.473269
Cu22	Cu	1.091112	-0.101316	-0.204786
Cu23	Cu	1.424445	0.232018	0.128547
Cu24	Cu	1.757778	0.565351	0.461881
Cu25	Cu	1.091133	0.101070	-0.204770
Cu26	Cu	1.424466	0.434403	0.128563
Cu27	Cu	1.757800	0.767736	0.461896
O28	O	1.085567	-0.085687	-0.419531
O29	O	1.418901	0.247646	-0.086198
O30	O	1.752234	0.580980	0.247136
C31	C	0.922600	-0.000103	-0.215104
C32	C	1.255933	0.333230	0.118229
C33	C	1.589266	0.666563	0.451563
C34	C	0.820195	-0.000092	-0.211923
C35	C	1.153528	0.333242	0.121410
C36	C	1.486862	0.666575	0.454743
C37	C	0.445214	-0.000139	-0.200214
C38	C	0.778547	0.333195	0.133119
C39	C	1.111880	0.666528	0.466452
C40	C	0.549545	-0.000125	-0.203466
C41	C	0.882879	0.333208	0.129867
C42	C	1.216212	0.666542	0.463201
C43	C	0.632701	-0.000114	-0.206068
C44	C	0.966034	0.333219	0.127265
C45	C	1.299368	0.666553	0.460598
C46	C	0.737039	-0.000103	-0.209321
C47	C	1.070373	0.333231	0.124012
C48	C	1.403706	0.666564	0.457346
N49	N	1.091103	-0.243663	-0.204796
N50	N	1.424437	0.089670	0.128537
N51	N	1.757770	0.423004	0.461871
C52	C	1.091107	-0.336769	-0.204799
C53	C	1.424441	-0.003435	0.128534
C54	C	1.757774	0.329898	0.461867
C55	C	1.091116	-0.453574	-0.204790
C56	C	1.424449	-0.120241	0.128544
C57	C	1.757782	0.213093	0.461877
C58	C	1.091127	-0.546672	-0.204773
C59	C	1.424461	-0.213339	0.128560
C60	C	1.757794	0.119994	0.461893
C61	C	1.091137	-0.663485	-0.204765
C62	C	1.424470	-0.330151	0.128568
C63	C	1.757804	0.003182	0.461902
C64	C	1.259645	-0.000140	-0.194452
C65	C	1.592978	0.333193	0.138881
C66	C	1.926312	0.666526	0.472214
C67	C	1.362049	-0.000145	-0.197633
C68	C	1.695383	0.333188	0.135701
C69	C	2.028716	0.666521	0.469034
C70	C	1.095602	-0.000124	0.064935
C71	C	1.428936	0.333209	0.398268
C72	C	1.762269	0.666543	0.731602
C73	C	1.092415	-0.000119	0.228718
C74	C	1.425748	0.333215	0.562051
C75	C	1.759082	0.666548	0.895385
N76	N	1.091149	0.243417	-0.204749
N77	N	1.424482	0.576750	0.128585
N78	N	1.757815	0.910084	0.461918
C79	C	1.086642	-0.000120	-0.474491
C80	C	1.419976	0.333214	-0.141158
C81	C	1.753309	0.666547	0.192176
C82	C	1.089830	-0.000118	-0.638274
C83	C	1.423163	0.333215	-0.304941
C84	C	1.756496	0.666548	0.028392
