data_functionalizedCrystal
_audit_creation_method	'MofGen! by Chris Wilmer'
_symmetry_space_group_name_H-M	'P1'
_symmetry_Int_Tables_number	1
_symmetry_cell_setting	triclinic
loop_
_symmetry_equiv_pos_as_xyz
  x,y,z
_cell_length_a	12.759401
_cell_length_b	25.639240
_cell_length_c	12.759393
_cell_angle_alpha	89.961955
_cell_angle_beta	90.020938
_cell_angle_gamma	89.955312
loop_
_atom_site_label
_atom_site_type_symbol
_atom_site_fract_x
_atom_site_fract_y
_atom_site_fract_z
Zn1	Zn	1.606059	0.208104	0.593965
Zn2	Zn	1.605862	0.295549	0.418262
Zn3	Zn	1.430357	0.208132	0.418300
Zn4	Zn	1.430262	0.295513	0.593899
O5	O	1.518135	0.251825	0.506107
O6	O	1.753054	0.219708	0.570669
O7	O	1.582539	0.283980	0.271246
O8	O	1.453786	0.134963	0.441646
O9	O	1.752909	0.283953	0.441581
O10	O	1.582873	0.134943	0.570706
O11	O	1.453596	0.219755	0.271274
O12	O	1.283324	0.219720	0.441582
O13	O	1.453624	0.283891	0.740929
O14	O	1.283254	0.283918	0.570594
O15	O	1.582781	0.219672	0.740977
O16	O	1.582447	0.368710	0.441517
O17	O	1.453434	0.368683	0.570557
C18	C	1.245168	0.251818	0.506086
C19	C	1.128391	0.251828	0.506102
C20	C	1.073520	0.285307	0.573172
C21	C	0.963796	0.285309	0.573193
C22	C	0.963824	0.218352	0.439064
C23	C	1.073546	0.218347	0.439049
C24	C	1.517937	0.387667	0.506049
C25	C	1.517948	0.445781	0.506059
C26	C	1.585400	0.806146	0.438990
C27	C	1.585432	0.860750	0.439000
O28	O	1.642643	0.888988	0.381943
N29	N	1.518220	0.888064	0.506130
C30	C	1.450978	0.860770	0.573262
O31	O	1.393812	0.889017	0.630363
C32	C	1.450952	0.806167	0.573256
C33	C	1.518162	0.778856	0.506114
C34	C	1.652605	0.778835	0.371854
C35	C	1.652571	0.724234	0.371843
C36	C	1.585333	0.696945	0.438967
C37	C	1.518128	0.724256	0.506103
C38	C	1.383716	0.778874	0.640393
C39	C	1.383697	0.724267	0.640382
C40	C	1.450906	0.696957	0.573240
C41	C	1.450855	0.642365	0.573216
N42	N	1.518068	0.615052	0.506086
C43	C	1.585307	0.642341	0.438962
C44	C	1.451039	0.975441	0.573270
C45	C	1.451059	1.030043	0.573271
C46	C	1.585515	1.030019	0.439010
C47	C	1.585489	0.975416	0.439004
C48	C	1.518252	0.948127	0.506140
C49	C	1.585230	0.527676	0.438943
C50	C	1.585187	0.473071	0.438934
C51	C	1.450736	0.473100	0.573199
C52	C	1.450774	0.527700	0.573204
C53	C	1.518030	0.554987	0.506072
O54	O	1.393677	0.614093	0.630248
O55	O	1.642473	0.614088	0.381880
C56	C	1.792168	0.251831	0.506128
C57	C	1.908945	0.251834	0.506137
C58	C	1.518214	0.251774	0.780140
C59	C	1.518247	0.251753	0.896917
C60	C	1.518323	1.115452	0.506169
C61	C	1.518302	1.057338	0.506150
C62	C	1.518117	0.251837	0.233139
C63	C	1.518287	0.251711	0.116363
C64	C	1.585504	0.218309	0.951806
C65	C	1.585522	0.218286	1.061530
C66	C	1.451023	0.285156	1.061467
C67	C	1.451001	0.285176	0.951744
H68	H	1.639917	0.450836	0.384255
O69	O	1.650905	0.185871	1.114967
C70	C	1.718739	0.215628	1.178415
H71	H	1.681621	0.255247	1.194823
H72	H	1.732863	0.194316	1.255587
H73	H	1.796582	0.221383	1.136145
H74	H	0.919155	0.191094	0.384470
H75	H	1.396050	0.549938	0.627879
H76	H	1.118223	0.191082	0.384432
H77	H	1.707365	0.801048	0.317193
H78	H	1.639998	0.549887	0.384280
O79	O	1.385807	0.317608	1.114891
C80	C	1.400230	0.310411	1.223505
H81	H	1.481342	0.293289	1.238515
H82	H	1.393044	0.349567	1.265179
H83	H	1.337967	0.282560	1.254650
O84	O	1.385579	0.446559	0.638515
C85	C	1.445362	0.414910	0.706387
H86	H	1.528109	0.431327	0.712945
H87	H	1.407333	0.414272	0.787212
H88	H	1.448986	0.373540	0.673889
O89	O	1.650926	0.185914	0.898496
C90	C	1.718706	0.215690	0.834998
H91	H	1.725142	0.256863	0.868038
H92	H	1.799588	0.196779	0.833776
H93	H	1.686200	0.217505	0.751836
O94	O	1.650878	0.948969	0.373753
C95	C	1.710202	0.984771	0.314491
H96	H	1.713830	1.023676	0.357536
H97	H	1.792981	0.968961	0.303350
H98	H	1.671769	0.990627	0.234667
H99	H	1.328945	0.702052	0.695055
O100	O	0.910379	0.317857	0.638197
C101	C	0.846849	0.351600	0.578264
H102	H	0.830394	0.333112	0.498718
H103	H	0.769706	0.358636	0.621046
H104	H	0.889073	0.390338	0.566564
H105	H	1.707302	0.702001	0.317173
H106	H	1.118172	0.312568	0.627774
O107	O	1.650876	1.056614	0.373978
C108	C	1.636502	1.110664	0.388410
H109	H	1.601952	1.118092	0.469424
H110	H	1.715240	1.131363	0.381490
H111	H	1.580692	1.126243	0.325990
O112	O	1.385730	1.056489	0.638583
C113	C	1.326362	1.020687	0.697801
H114	H	1.369376	0.981740	0.701463
H115	H	1.315117	1.036433	0.780575
H116	H	1.246587	1.014935	0.659253
H117	H	1.396224	0.312410	0.907053
H118	H	1.328982	0.801102	0.695062
O119	O	1.385658	0.948877	0.638334
C120	C	1.317794	0.917360	0.578456
H121	H	1.354888	0.909183	0.498872
H122	H	1.303660	0.878958	0.621240
H123	H	1.239958	0.938452	0.566837
