data_functionalizedCrystal
_audit_creation_method	'MofGen! by Chris Wilmer'
_symmetry_space_group_name_H-M	'P1'
_symmetry_Int_Tables_number	1
_symmetry_cell_setting	triclinic
loop_
_symmetry_equiv_pos_as_xyz
  x,y,z
_cell_length_a	6.817900
_cell_length_b	7.190334
_cell_length_c	16.256275
_cell_angle_alpha	89.346849
_cell_angle_beta	103.500333
_cell_angle_gamma	60.611776
loop_
_atom_site_label
_atom_site_type_symbol
_atom_site_fract_x
_atom_site_fract_y
_atom_site_fract_z
V1	V	-4.223270	0.665751	-0.115742
O2	O	-4.206711	0.652297	0.006951
O3	O	-4.173762	0.661948	-0.230834
O4	O	-4.260428	0.955765	-0.113353
O5	O	-4.119445	0.356446	-0.111343
V6	V	-4.695955	0.628664	-0.101139
O7	O	-4.508302	0.747103	-0.147776
O8	O	-4.861120	0.547312	-0.069105
O9	O	-4.522256	0.632466	0.013952
O10	O	-4.829911	0.642118	-0.223832
O11	O	-4.917177	0.937969	-0.105538
O12	O	-4.435591	0.338650	-0.103529
C13	C	-4.015725	0.651640	-0.258909
C14	C	-4.057104	0.650464	-0.352994
C15	C	-4.126286	1.026429	-0.109047
C16	C	-4.240041	1.267978	-0.107831
C17	C	-4.350486	0.658716	-0.584799
C18	C	-4.367051	0.829176	-0.649424
C19	C	-4.132759	0.648275	-0.525247
C20	C	-4.189924	0.475762	-0.628266
C21	C	-4.205848	0.646151	-0.691635
C22	C	-4.148851	0.818896	-0.588641
C23	C	-3.971670	0.465325	-0.567469
C24	C	-3.988104	0.635820	-0.632068
C25	C	-4.090660	0.649500	-0.429395
C26	C	-4.247938	0.644940	-0.787485
C27	C	-4.343634	0.642769	0.042024
C28	C	-4.281498	0.643959	0.136107
H29	H	-4.503356	0.668627	-0.563911
H30	H	-4.534585	0.982998	-0.685000
H31	H	-3.804194	0.311501	-0.531876
O32	O	-4.127957	0.992080	-0.567549
C33	C	-4.065235	1.187465	-0.454657
C34	C	-4.088861	0.991261	-0.478427
H35	H	-4.033572	1.186843	-0.382600
H36	H	-4.232992	1.342366	-0.489208
H37	H	-3.911470	1.178356	-0.474569
H38	H	-4.242530	1.000160	-0.458517
H39	H	-3.920995	0.836442	-0.443885
O40	O	-4.210909	0.302675	-0.649453
C41	C	-4.057777	-0.025269	-0.711720
C42	C	-4.033753	0.170655	-0.687791
H43	H	-3.914540	-0.132084	-0.742704
H44	H	-4.236543	0.032886	-0.758580
H45	H	-4.039947	-0.121733	-0.651525
H46	H	-4.051473	0.267202	-0.747936
H47	H	-3.854999	0.112358	-0.640899
H48	H	-3.835169	0.626177	-0.652814
