data_functionalizedCrystal
_audit_creation_method	'MofGen! by Chris Wilmer'
_symmetry_space_group_name_H-M	'P1'
_symmetry_Int_Tables_number	1
_symmetry_cell_setting	triclinic
loop_
_symmetry_equiv_pos_as_xyz
  x,y,z
_cell_length_a	16.959455
_cell_length_b	16.959454
_cell_length_c	16.959447
_cell_angle_alpha	89.973264
_cell_angle_beta	89.979626
_cell_angle_gamma	90.017095
loop_
_atom_site_label
_atom_site_type_symbol
_atom_site_fract_x
_atom_site_fract_y
_atom_site_fract_z
Zn1	Zn	1.208384	-0.314729	-0.447056
Zn2	Zn	1.541717	0.018605	-0.113723
Zn3	Zn	1.875050	0.351938	0.219611
Zn4	Zn	1.208306	-0.446921	-0.314886
Zn5	Zn	1.541640	-0.113588	0.018448
Zn6	Zn	1.874973	0.219746	0.351781
Zn7	Zn	1.076212	-0.314754	-0.314880
Zn8	Zn	1.409546	0.018580	0.018454
Zn9	Zn	1.742879	0.351913	0.351787
Zn10	Zn	1.076177	-0.446862	-0.447010
Zn11	Zn	1.409510	-0.113529	-0.113677
Zn12	Zn	1.742844	0.219804	0.219656
O13	O	1.142270	-0.380816	-0.380958
O14	O	1.475603	-0.047483	-0.047625
O15	O	1.808937	0.285850	0.285709
O16	O	1.318984	-0.332279	-0.429545
O17	O	1.652318	0.001055	-0.096212
O18	O	1.985651	0.334388	0.237122
O19	O	1.190766	-0.429424	-0.204274
O20	O	1.524099	-0.096091	0.129059
O21	O	1.857433	0.237243	0.462393
O22	O	1.093792	-0.204140	-0.332430
O23	O	1.427126	0.129194	0.000904
O24	O	1.760459	0.462527	0.334237
O25	O	1.318927	-0.429400	-0.332440
O26	O	1.652261	-0.096066	0.000893
O27	O	1.985594	0.237267	0.334227
O28	O	1.190898	-0.204121	-0.429539
O29	O	1.524232	0.129212	-0.096206
O30	O	1.857565	0.462546	0.237128
O31	O	1.093717	-0.332321	-0.204269
O32	O	1.427051	0.001012	0.129064
O33	O	1.760384	0.334346	0.462397
O34	O	0.965597	-0.332264	-0.332385
O35	O	1.298930	0.001069	0.000948
O36	O	1.632263	0.334403	0.334281
O37	O	1.093732	-0.429299	-0.557627
O38	O	1.427065	-0.095966	-0.224294
O39	O	1.760399	0.237367	0.109039
O40	O	0.965571	-0.429324	-0.429461
O41	O	1.298904	-0.095990	-0.096128
O42	O	1.632237	0.237343	0.237205
O43	O	1.190864	-0.332221	-0.557661
O44	O	1.524197	0.001112	-0.224328
O45	O	1.857531	0.334445	0.109006
O46	O	1.190732	-0.557524	-0.332396
O47	O	1.524065	-0.224191	0.000938
O48	O	1.857399	0.109142	0.334271
O49	O	1.093657	-0.557481	-0.429467
O50	O	1.426990	-0.224148	-0.096134
O51	O	1.760324	0.109186	0.237199
C52	C	0.936904	-0.380791	-0.380918
C53	C	1.270237	-0.047457	-0.047585
C54	C	1.603570	0.285876	0.285749
C55	C	0.849047	-0.380799	-0.380920
C56	C	1.182380	-0.047465	-0.047586
C57	C	1.515714	0.285868	0.285747
C58	C	0.477531	-0.431337	-0.330370
C59	C	0.810864	-0.098004	0.002964
C60	C	1.144198	0.235329	0.336297
C61	C	0.477612	-0.330361	-0.431642
C62	C	0.810945	0.002972	-0.098309
C63	C	1.144278	0.336305	0.235024
C64	C	0.560158	-0.330348	-0.431623
C65	C	0.893491	0.002985	-0.098290
C66	C	1.226824	0.336319	0.235043
C67	C	0.601394	-0.380831	-0.380977
C68	C	0.934727	-0.047498	-0.047644
C69	C	1.268061	0.285835	0.285689
C70	C	0.560085	-0.431328	-0.330350
C71	C	0.893418	-0.097994	0.002983
C72	C	1.226751	0.235339	0.336316
C73	C	0.601473	-0.279859	-0.482255
C74	C	0.934807	0.053475	-0.148921
C75	C	1.268140	0.386808	0.184412
C76	C	0.684024	-0.279844	-0.482238
C77	C	1.017357	0.053489	-0.148905
C78	C	1.350691	0.386823	0.184428
C79	C	0.725262	-0.330324	-0.431588
C80	C	1.058595	0.003009	-0.098254
C81	C	1.391929	0.336343	0.235079
C82	C	0.683948	-0.380822	-0.380958
C83	C	1.017281	-0.047488	-0.047625
C84	C	1.350614	0.285845	0.285709
C85	C	0.725184	-0.431305	-0.330312
C86	C	1.058517	-0.097971	0.003021
C87	C	1.391851	0.235362	0.336355
C88	C	0.683871	-0.481799	-0.279678
C89	C	1.017204	-0.148466	0.053655
C90	C	1.350538	0.184868	0.386989
C91	C	0.601323	-0.481807	-0.279700
C92	C	0.934656	-0.148474	0.053633
C93	C	1.267989	0.184859	0.386967
C94	C	0.807811	-0.330315	-0.431566
C95	C	1.141144	0.003018	-0.098232
C96	C	1.474477	0.336351	0.235101
C97	C	0.807738	-0.431295	-0.330293
C98	C	1.141071	-0.097962	0.003040
C99	C	1.474404	0.235372	0.336374
C100	C	1.142204	-0.586183	-0.380944
C101	C	1.475537	-0.252849	-0.047611
C102	C	1.808870	0.080484	0.285722
C103	C	1.142248	-0.674039	-0.380965
C104	C	1.475581	-0.340706	-0.047632
C105	C	1.808914	-0.007373	0.285702
C106	C	1.091796	-1.045522	-0.431498
C107	C	1.425130	-0.712189	-0.098164
C108	C	1.758463	-0.378856	0.235169
C109	C	1.192964	-1.045507	-0.330499
C110	C	1.526297	-0.712174	0.002835
C111	C	1.859630	-0.378841	0.336168
C112	C	1.192936	-0.962962	-0.330491
C113	C	1.526269	-0.629628	0.002842
C114	C	1.859603	-0.296295	0.336175
C115	C	1.142337	-0.921692	-0.380987
C116	C	1.475670	-0.588359	-0.047654
C117	C	1.809004	-0.255026	0.285679
C118	C	1.091765	-0.962969	-0.431490
C119	C	1.425099	-0.629635	-0.098157
C120	C	1.758432	-0.296302	0.235176
C121	C	1.243501	-0.921679	-0.279984
C122	C	1.576834	-0.588346	0.053350
C123	C	1.910167	-0.255012	0.386683
C124	C	1.243475	-0.839128	-0.279974
C125	C	1.576808	-0.505795	0.053359
C126	C	1.910141	-0.172461	0.386693
C127	C	1.192879	-0.797857	-0.330474
C128	C	1.526212	-0.464524	0.002859
C129	C	1.859546	-0.131190	0.336192
C130	C	1.142306	-0.839139	-0.380980
C131	C	1.475639	-0.505805	-0.047646
C132	C	1.808973	-0.172472	0.285687
C133	C	1.091707	-0.797869	-0.431476
C134	C	1.425040	-0.464536	-0.098142
C135	C	1.758374	-0.131203	0.235191
C136	C	1.041138	-0.839150	-0.481986
C137	C	1.374471	-0.505816	-0.148652
C138	C	1.707804	-0.172483	0.184681
C139	C	1.041170	-0.921698	-0.481991
C140	C	1.374503	-0.588365	-0.148657
C141	C	1.707836	-0.255031	0.184676
C142	C	1.192847	-0.715309	-0.330469
C143	C	1.526180	-0.381975	0.002864
C144	C	1.859513	-0.048642	0.336197
C145	C	1.091676	-0.715316	-0.431468
C146	C	1.425009	-0.381983	-0.098135
C147	C	1.758343	-0.048649	0.235199
C148	C	1.348438	-0.380843	-0.380998
C149	C	1.681771	-0.047510	-0.047665
C150	C	2.015105	0.285824	0.285668
C151	C	1.436295	-0.380854	-0.381016
C152	C	1.769628	-0.047521	-0.047682
C153	C	2.102961	0.285812	0.285651
C154	C	1.142303	-0.380751	-0.587126
C155	C	1.475636	-0.047418	-0.253793
C156	C	1.808969	0.285916	0.079540
C157	C	1.142317	-0.380723	-0.674983
C158	C	1.475650	-0.047390	-0.341650
C159	C	1.808983	0.285944	-0.008316
C160	C	1.142358	-0.174648	-0.380989
C161	C	1.475691	0.158685	-0.047655
C162	C	1.809025	0.492018	0.285678
C163	C	1.142395	-0.086792	-0.381002
C164	C	1.475729	0.246542	-0.047669
C165	C	1.809062	0.579875	0.285665
C166	C	1.091839	-0.431184	-1.046444
C167	C	1.425172	-0.097850	-0.713110
C168	C	1.758506	0.235483	-0.379777
C169	C	1.192983	-0.330096	-1.046474
C170	C	1.526317	0.003237	-0.713140
C171	C	1.859650	0.336571	-0.379807
C172	C	1.192962	-0.330113	-0.963928
C173	C	1.526296	0.003221	-0.630594
C174	C	1.859629	0.336554	-0.297261
C175	C	1.142380	-0.380667	-0.922636
C176	C	1.475713	-0.047333	-0.589303
C177	C	1.809046	0.286000	-0.255969
C178	C	1.091818	-0.431204	-0.963890
C179	C	1.425151	-0.097870	-0.630557
C180	C	1.758485	0.235463	-0.297223
C181	C	1.243529	-0.279582	-0.922667
C182	C	1.576862	0.053751	-0.589334
C183	C	1.910195	0.387085	-0.256001
C184	C	1.243510	-0.279597	-0.840116
C185	C	1.576844	0.053736	-0.506783
C186	C	1.910177	0.387069	-0.173450
C187	C	1.192923	-0.330148	-0.798823
C188	C	1.526256	0.003185	-0.465490
C189	C	1.859590	0.336519	-0.132157
C190	C	1.142359	-0.380686	-0.840082
C191	C	1.475692	-0.047353	-0.506749
C192	C	1.809025	0.285980	-0.173416
C193	C	1.091776	-0.431240	-0.798791
C194	C	1.425109	-0.097907	-0.465457
C195	C	1.758443	0.235426	-0.132124
C196	C	1.041207	-0.481776	-0.840048
C197	C	1.374541	-0.148442	-0.506715
C198	C	1.707874	0.184891	-0.173382
C199	C	1.041231	-0.481754	-0.922597
C200	C	1.374564	-0.148421	-0.589263
C201	C	1.707898	0.184912	-0.255930
C202	C	1.192899	-0.330169	-0.716275
C203	C	1.526233	0.003164	-0.382941
C204	C	1.859566	0.336497	-0.049608
C205	C	1.091755	-0.431260	-0.716237
C206	C	1.425089	-0.097927	-0.382904
C207	C	1.758422	0.235406	-0.049570
C208	C	1.142283	-0.380825	-0.175592
C209	C	1.475616	-0.047491	0.157742
C210	C	1.808949	0.285842	0.491075
C211	C	1.142422	-0.380630	-0.087736
C212	C	1.475755	-0.047296	0.245598
C213	C	1.809088	0.286037	0.578931
H214	H	0.443890	-0.472446	-0.289142
H215	H	0.777224	-0.139113	0.044191
H216	H	1.110557	0.194220	0.377524
H217	H	0.999998	-0.955316	-0.523112
H218	H	1.333331	-0.621982	-0.189779
H219	H	1.666665	-0.288649	0.143554
Br220	Br	0.972464	-0.783131	-0.550507
Br221	Br	1.305797	-0.449798	-0.217174
Br222	Br	1.639131	-0.116465	0.116160
Br223	Br	0.972569	-0.550389	-0.784000
Br224	Br	1.305902	-0.217055	-0.450666
Br225	Br	1.639235	0.116278	-0.117333
Br226	Br	0.545507	-0.211363	-0.550998
Br227	Br	0.878840	0.121970	-0.217664
Br228	Br	1.212174	0.455303	0.115669
H229	H	1.000063	-0.522900	-0.956196
H230	H	1.333396	-0.189567	-0.622863
H231	H	1.666730	0.143767	-0.289530
Br232	Br	0.863695	-0.499805	-0.261548
Br233	Br	1.197028	-0.166471	0.071785
Br234	Br	1.530362	0.166862	0.405118
H235	H	1.050475	-0.681719	-0.472591
H236	H	1.383808	-0.348386	-0.139258
H237	H	1.717142	-0.015053	0.194076
Br238	Br	1.023175	-1.101541	-0.500050
Br239	Br	1.356509	-0.768208	-0.166717
Br240	Br	1.689842	-0.434874	0.166617
Br241	Br	1.261459	-0.659289	-0.261915
Br242	Br	1.594793	-0.325955	0.071418
Br243	Br	1.928126	0.007378	0.404752
H244	H	0.717654	-0.238728	-0.523467
H245	H	1.050988	0.094605	-0.190134
H246	H	1.384321	0.427938	0.143200
Br247	Br	1.261530	-0.261599	-0.660285
Br248	Br	1.594863	0.071734	-0.326952
Br249	Br	1.928196	0.405067	0.006382
Br250	Br	0.863875	-0.261800	-0.500283
Br251	Br	1.197209	0.071534	-0.166950
Br252	Br	1.530542	0.404867	0.166383
Br253	Br	0.739844	-0.550317	-0.210955
Br254	Br	1.073178	-0.216984	0.122379
Br255	Br	1.406511	0.116350	0.455712
Br256	Br	1.261636	-0.261498	-1.102513
Br257	Br	1.594969	0.071835	-0.769179
Br258	Br	1.928302	0.405168	-0.435846
H259	H	1.284715	-0.238429	-0.956293
H260	H	1.618048	0.094905	-0.622960
H261	H	1.951382	0.428238	-0.289627
H262	H	1.284651	-0.805523	-0.238847
H263	H	1.617985	-0.472189	0.094486
H264	H	1.951318	-0.138856	0.427820
H265	H	0.567678	-0.522917	-0.238476
H266	H	0.901012	-0.189583	0.094857
H267	H	1.234345	0.143750	0.428191
Br268	Br	0.421648	-0.261863	-0.500384
Br269	Br	0.754981	0.071471	-0.167051
Br270	Br	1.088315	0.404804	0.166283
H271	H	1.234154	-1.079114	-0.289383
H272	H	1.567488	-0.745781	0.043951
H273	H	1.900821	-0.412447	0.377284
H274	H	1.284690	-0.955286	-0.238867
H275	H	1.618023	-0.621953	0.094466
H276	H	1.951357	-0.288620	0.427800
H277	H	1.050665	-0.472326	-1.080039
H278	H	1.383998	-0.138993	-0.746706
H279	H	1.717332	0.194341	-0.413373
H280	H	1.050557	-0.472421	-0.682623
H281	H	1.383890	-0.139088	-0.349290
H282	H	1.717224	0.194246	-0.015956
Br283	Br	1.312136	-0.211014	-0.784131
Br284	Br	1.645469	0.122319	-0.450798
Br285	Br	1.978803	0.455652	-0.117464
