data_functionalizedCrystal
_audit_creation_method	'MofGen! by Chris Wilmer'
_symmetry_space_group_name_H-M	'P1'
_symmetry_Int_Tables_number	1
_symmetry_cell_setting	triclinic
loop_
_symmetry_equiv_pos_as_xyz
  x,y,z
_cell_length_a	19.805407
_cell_length_b	12.827892
_cell_length_c	19.805399
_cell_angle_alpha	90.022529
_cell_angle_beta	90.019573
_cell_angle_gamma	90.015392
loop_
_atom_site_label
_atom_site_type_symbol
_atom_site_fract_x
_atom_site_fract_y
_atom_site_fract_z
Zn1	Zn	1.034788	-0.416057	0.382743
Zn2	Zn	1.534788	0.083943	0.882743
Zn3	Zn	1.034724	-0.590812	0.269565
Zn4	Zn	1.534724	-0.090812	0.769565
Zn5	Zn	0.921602	-0.416086	0.269568
Zn6	Zn	1.421602	0.083914	0.769568
Zn7	Zn	0.921587	-0.590757	0.382712
Zn8	Zn	1.421587	-0.090757	0.882712
O9	O	0.978175	-0.503428	0.326147
O10	O	1.478175	-0.003428	0.826147
O11	O	1.129496	-0.439250	0.367742
O12	O	1.629496	0.060750	0.867742
O13	O	1.019698	-0.567670	0.174849
O14	O	1.519698	-0.067670	0.674849
O15	O	0.936649	-0.269846	0.284595
O16	O	1.436649	0.230154	0.784595
O17	O	1.129449	-0.567642	0.284590
O18	O	1.629449	-0.067642	0.784590
O19	O	1.019806	-0.269825	0.367745
O20	O	1.519806	0.230175	0.867745
O21	O	0.936588	-0.439299	0.174851
O22	O	1.436588	0.060701	0.674851
O23	O	0.826884	-0.439245	0.284565
O24	O	1.326884	0.060755	0.784565
O25	O	0.936624	-0.567547	0.477433
O26	O	1.436624	-0.067547	0.977433
O27	O	0.826873	-0.567575	0.367691
O28	O	1.326873	-0.067575	0.867691
O29	O	1.019792	-0.439196	0.477456
O30	O	1.519792	0.060804	0.977456
O31	O	1.019684	-0.737041	0.284560
O32	O	1.519684	-0.237041	0.784560
O33	O	0.936563	-0.737000	0.367688
O34	O	1.436563	-0.237000	0.867688
C35	C	0.802319	-0.503408	0.326125
C36	C	1.302319	-0.003408	0.826125
C37	C	0.727087	-0.503425	0.326132
C38	C	1.227087	-0.003425	0.826132
C39	C	0.691755	-0.570347	0.369346
C40	C	1.191755	-0.070347	0.869346
C41	C	0.621067	-0.570349	0.369355
C42	C	1.121067	-0.070349	0.869355
C43	C	0.585712	-0.503433	0.326147
C44	C	1.085712	-0.003433	0.826147
C45	C	0.621049	-0.436504	0.282931
C46	C	1.121049	0.063496	0.782931
C47	C	0.691736	-0.436497	0.282926
C48	C	1.191736	0.063503	0.782926
C49	C	0.335975	-0.436527	0.282954
C50	C	0.835975	0.063473	0.782954
C51	C	0.265283	-0.436540	0.282961
C52	C	0.765283	0.063460	0.782961
C53	C	0.265306	-0.570378	0.369383
C54	C	0.765306	-0.070378	0.869383
C55	C	0.335993	-0.570372	0.369378
C56	C	0.835993	-0.070372	0.869378
C57	C	0.371324	-0.503439	0.326165
C58	C	0.871324	-0.003439	0.826165
C59	C	0.447973	-0.503436	0.326156
C60	C	0.947973	-0.003436	0.826156
C61	C	0.509065	-0.503440	0.326152
C62	C	1.009065	-0.003440	0.826152
C63	C	0.978133	-0.774938	0.326135
C64	C	1.478133	-0.274938	0.826135
C65	C	0.978177	-0.891091	0.326153
C66	C	1.478177	-0.391091	0.826153
C67	C	1.019357	-0.942862	0.285064
C68	C	1.519357	-0.442862	0.785064
C69	C	1.019403	-1.062912	0.285081
C70	C	1.519403	-0.562912	0.785081
C71	C	1.154718	-0.503449	0.326169
C72	C	1.654718	-0.003449	0.826169
C73	C	1.229950	-0.503458	0.326179
C74	C	1.729950	-0.003458	0.826179
C75	C	0.978213	-0.503362	0.502690
C76	C	1.478213	-0.003362	1.002690
C77	C	0.978229	-0.503334	0.577922
C78	C	1.478229	-0.003334	1.077922
C79	C	0.978236	-0.230858	0.326174
C80	C	1.478236	0.269142	0.826174
C81	C	0.978262	-0.114705	0.326185
C82	C	1.478262	0.385295	0.826185
C83	C	0.978176	-0.503418	0.150291
C84	C	1.478176	-0.003418	0.650291
C85	C	0.978291	-0.503152	0.075060
C86	C	1.478291	-0.003152	0.575060
C87	C	1.021536	-0.436499	0.613279
C88	C	1.521536	0.063501	1.113279
C89	C	1.021543	-0.436468	0.683968
C90	C	1.521543	0.063532	1.183968
C91	C	0.978246	-0.503280	0.719298
C92	C	1.478246	-0.003280	1.219298
C93	C	0.934935	-0.570118	0.683935
C94	C	1.434935	-0.070118	1.183935
C95	C	0.934925	-0.570143	0.613248
C96	C	1.434925	-0.070143	1.113248
C97	C	0.934973	-0.570021	0.969009
C98	C	1.434973	-0.070021	1.469009
C99	C	0.934988	-0.569994	1.039701
C100	C	1.434988	-0.069994	1.539701
C101	C	1.021591	-0.436347	1.039728
C102	C	1.521591	0.063653	1.539728
C103	C	1.021581	-0.436371	0.969041
C104	C	1.521581	0.063629	1.469041
C105	C	0.978268	-0.503205	0.933685
C106	C	1.478268	-0.003205	1.433685
C107	C	0.978260	-0.503236	0.857037
C108	C	1.478260	-0.003236	1.357037
C109	C	0.978257	-0.503255	0.795945
C110	C	1.478257	-0.003255	1.295945
H111	H	0.236531	-0.624874	0.404572
H112	H	0.736531	-0.124874	0.904572
H113	H	1.054581	-0.898310	0.249875
H114	H	1.554581	-0.398310	0.749875
C115	C	1.067032	-1.123055	0.237554
C116	C	1.567032	-0.623055	0.737554
N117	N	1.102908	-1.168358	0.201755
N118	N	1.602908	-0.668358	0.701755
H119	H	0.943002	-1.070191	0.361363
H120	H	1.443002	-0.570191	0.861363
C121	C	0.887286	-0.643669	0.574356
C122	C	1.387286	-0.143669	1.074356
N123	N	0.851401	-0.699050	0.545062
N124	N	1.351401	-0.199050	1.045062
C125	C	0.887352	-0.643488	1.078562
C126	C	1.387352	-0.143488	1.578562
N127	N	0.851473	-0.698840	1.107833
N128	N	1.351473	-0.198840	1.607833
C129	C	0.374880	-0.643985	0.416909
C130	C	0.874880	-0.143985	0.916909
N131	N	0.404169	-0.699430	0.452712
N132	N	0.904169	-0.199430	0.952712
H133	H	1.056809	-0.382046	0.712753
H134	H	1.556809	0.117954	1.212753
H135	H	0.899715	-0.624457	0.940230
H136	H	1.399715	-0.124457	1.440230
H137	H	0.720536	-0.624841	0.404529
H138	H	1.220536	-0.124841	0.904529
C139	C	0.226394	-0.362916	0.235432
C140	C	0.726394	0.137084	0.735432
N141	N	0.197103	-0.307464	0.199635
N142	N	0.697103	0.192536	0.699635
C143	C	0.930592	-0.951277	0.373694
C144	C	1.430592	-0.451277	0.873694
N145	N	0.894748	-0.996607	0.409503
N146	N	1.394748	-0.496607	0.909503
H147	H	1.056795	-0.382096	0.584519
H148	H	1.556795	0.117904	1.084519
H149	H	0.364733	-0.382034	0.247762
H150	H	0.864733	0.117966	0.747762
C151	C	0.730601	-0.362880	0.235386
C152	C	1.230601	0.137120	0.735386
N153	N	0.759873	-0.307428	0.199578
N154	N	1.259873	0.192572	0.699578
C155	C	1.069208	-0.362869	0.930182
C156	C	1.569208	0.137131	1.430182
N157	N	1.105078	-0.307501	0.900915
N158	N	1.605078	0.192499	1.400915
C159	C	0.887302	-0.643602	0.722801
C160	C	1.387302	-0.143602	1.222801
N161	N	0.851423	-0.698951	0.752074
N162	N	1.351423	-0.198951	1.252074
C163	C	0.582205	-0.643988	0.416881
C164	C	1.082205	-0.143988	0.916881
N165	N	0.552934	-0.699464	0.452675
N166	N	1.052934	-0.199464	0.952675
C167	C	1.069229	-0.362814	1.078626
C168	C	1.569229	0.137186	1.578626
N169	N	1.105108	-0.307430	1.107923
N170	N	1.605108	0.192570	1.607923
C171	C	0.582156	-0.362893	0.235403
C172	C	1.082156	0.137107	0.735403
N173	N	0.552862	-0.307450	0.199603
N174	N	1.052862	0.192550	0.699603
