data_functionalizedCrystal
_audit_creation_method	'MofGen! by Chris Wilmer'
_symmetry_space_group_name_H-M	'P1'
_symmetry_Int_Tables_number	1
_symmetry_cell_setting	triclinic
loop_
_symmetry_equiv_pos_as_xyz
  x,y,z
_cell_length_a	18.215407
_cell_length_b	25.639239
_cell_length_c	18.215399
_cell_angle_alpha	90.030035
_cell_angle_beta	90.019833
_cell_angle_gamma	90.039134
loop_
_atom_site_label
_atom_site_type_symbol
_atom_site_fract_x
_atom_site_fract_y
_atom_site_fract_z
Zn1	Zn	1.125001	-0.208150	0.416105
Zn2	Zn	1.124880	-0.295586	0.293034
Zn3	Zn	1.001934	-0.208167	0.293053
Zn4	Zn	1.001870	-0.295557	0.416059
O5	O	1.063421	-0.251865	0.354563
O6	O	1.227970	-0.219754	0.399791
O7	O	1.108547	-0.284009	0.190052
O8	O	1.018337	-0.135000	0.309403
O9	O	1.227880	-0.283992	0.309372
O10	O	1.108754	-0.134987	0.399809
O11	O	1.018219	-0.219783	0.190066
O12	O	0.898941	-0.219754	0.309358
O13	O	1.018228	-0.283943	0.519050
O14	O	0.898894	-0.283959	0.399731
O15	O	1.108692	-0.219725	0.519083
O16	O	1.108485	-0.368747	0.309327
O17	O	1.018110	-0.368726	0.399713
C18	C	0.872215	-0.251856	0.354542
C19	C	0.790416	-0.251865	0.354550
C20	C	0.602217	-0.285349	0.401548
C21	C	0.525358	-0.285350	0.401557
C22	C	0.525378	-0.218391	0.307594
C23	C	0.602235	-0.218387	0.307589
C24	C	0.640653	-0.251869	0.354565
C25	C	0.486937	-0.251874	0.354579
C26	C	0.403603	-0.251876	0.354589
C27	C	0.723992	-0.251867	0.354556
C28	C	1.063298	-0.387708	0.354529
C29	C	1.063312	-0.445822	0.354539
C30	C	1.110602	-0.806183	0.307579
C31	C	1.110631	-0.860787	0.307589
O32	O	1.150711	-0.889023	0.267625
N33	N	1.063551	-0.888104	0.354612
C34	C	1.016444	-0.860813	0.401633
O35	O	0.976402	-0.889062	0.441631
C36	C	1.016420	-0.806210	0.401626
C37	C	1.063498	-0.778896	0.354595
C38	C	1.157677	-0.778869	0.260553
C39	C	1.157647	-0.724269	0.260542
C40	C	1.110543	-0.696982	0.307558
C41	C	1.063468	-0.724296	0.354584
C42	C	0.969318	-0.778920	0.448650
C43	C	0.969298	-0.724313	0.448640
C44	C	1.016376	-0.697000	0.401609
C45	C	1.016334	-0.642408	0.401590
N46	N	1.063414	-0.615092	0.354567
C47	C	1.110519	-0.642379	0.307551
C48	C	1.016500	-0.975484	0.401644
C49	C	1.016520	-1.030086	0.401648
C50	C	1.110708	-1.030057	0.307605
C51	C	1.110683	-0.975453	0.307598
C52	C	1.063580	-0.948167	0.354621
C53	C	1.110452	-0.527714	0.307532
C54	C	1.110416	-0.473108	0.307523
C55	C	1.016232	-0.473143	0.401569
C56	C	1.016265	-0.527743	0.401575
C57	C	1.063381	-0.555027	0.354554
O58	O	0.976277	-0.614138	0.441536
O59	O	1.150561	-0.614123	0.267567
C60	C	1.255374	-0.251874	0.354584
C61	C	1.337173	-0.251878	0.354594
C62	C	1.063466	-0.251829	0.546516
C63	C	1.063485	-0.251814	0.628315
C64	C	1.063566	-0.115492	0.354613
C65	C	1.063627	-0.057378	0.354634
C66	C	1.063419	-0.251863	0.163357
C67	C	1.063543	-0.251731	0.081558
C68	C	1.110607	-0.218344	0.816528
C69	C	1.110616	-0.218329	0.893386
C70	C	1.016416	-0.285202	0.893340
C71	C	1.016404	-0.285214	0.816483
C72	C	1.063504	-0.251786	0.778078
C73	C	1.063524	-0.251759	0.931795
C74	C	1.063534	-0.251742	1.015128
C75	C	1.063494	-0.251801	0.694739
H76	H	0.494089	-0.191131	0.269346
H77	H	0.633495	-0.312611	0.439801
H78	H	1.148753	-0.450871	0.269223
C79	C	1.256768	-0.840156	0.250475
C80	C	1.209511	-0.808836	0.208893
H81	H	1.288786	-0.858644	0.218585
H82	H	1.228742	-0.864259	0.278444
H83	H	1.284836	-0.818802	0.282590
H84	H	1.181440	-0.830189	0.176782
H85	H	1.237541	-0.784730	0.180912
H86	H	0.930941	-0.702100	0.486935
C87	C	1.006171	-0.914049	0.500630
C88	C	0.964711	-0.945494	0.453330
H89	H	0.974199	-0.895540	0.532541
H90	H	1.034196	-0.889965	0.472628
H91	H	1.038228	-0.935320	0.528809
H92	H	0.932658	-0.924222	0.425147
H93	H	0.936674	-0.969581	0.481335
C94	C	0.533065	-0.351541	0.494427
C95	C	0.483110	-0.322155	0.453200
H96	H	0.506981	-0.374265	0.526307
H97	H	0.563072	-0.328786	0.522631
H98	H	0.563011	-0.371508	0.462300
H99	H	0.453167	-0.302185	0.485326
H100	H	0.453090	-0.344913	0.424993
H101	H	0.633530	-0.191120	0.269329
C102	C	1.203542	-0.522185	0.214564
C103	C	1.162238	-0.557699	0.255841
H104	H	1.235505	-0.540697	0.182648
H105	H	1.231662	-0.500854	0.246652
H106	H	1.171469	-0.500923	0.186390
H107	H	1.194310	-0.578959	0.284020
H108	H	1.134116	-0.579038	0.223749
H109	H	1.148956	-0.191123	0.785261
C110	C	1.146563	-0.129793	0.917079
C111	C	1.162396	-0.181568	0.935646
H112	H	1.178535	-0.107098	0.943164
H113	H	1.097133	-0.122141	0.929673
H114	H	1.153296	-0.125027	0.865807
H115	H	1.155658	-0.186336	0.986917
H116	H	1.211838	-0.189224	0.923057
H117	H	1.195984	-0.702033	0.222248
C118	C	1.203783	-0.980921	0.214642
C119	C	1.162437	-0.945433	0.255905
H120	H	1.235738	-0.962389	0.182732
H121	H	1.171741	-1.002251	0.186468
H122	H	1.231919	-1.002187	0.246744
H123	H	1.134296	-0.924170	0.223803
H124	H	1.194483	-0.924094	0.284081
C125	C	1.006015	-0.589113	0.500567
C126	C	0.964513	-0.557773	0.453264
H127	H	0.974068	-0.607652	0.532477
H128	H	1.038042	-0.567771	0.528740
H129	H	1.034073	-0.613177	0.472561
H130	H	0.936459	-0.533707	0.481270
H131	H	0.932474	-0.579117	0.425088
H132	H	1.149065	-1.052283	0.269324
C133	C	0.974611	-0.314879	1.011137
C134	C	0.964652	-0.321949	0.935557
H135	H	0.942656	-0.337569	1.037197
H136	H	0.963876	-0.279752	1.023742
H137	H	1.024055	-0.322531	1.023730
H138	H	0.915209	-0.314293	0.922963
H139	H	0.975382	-0.357084	0.922946
C140	C	0.876235	-0.773442	0.541619
C141	C	0.917572	-0.808934	0.500354
H142	H	0.844292	-0.791971	0.573545
H143	H	0.848092	-0.752183	0.509525
H144	H	0.908288	-0.752106	0.569784
H145	H	0.885519	-0.830267	0.472186
H146	H	0.945716	-0.830202	0.532453
H147	H	0.978177	-1.052320	0.439938
H148	H	0.977877	-0.450917	0.439847
H149	H	0.978042	-0.312446	0.785176
