data_functionalizedCrystal
_audit_creation_method	'MofGen! by Chris Wilmer'
_symmetry_space_group_name_H-M	'P1'
_symmetry_Int_Tables_number	1
_symmetry_cell_setting	triclinic
loop_
_symmetry_equiv_pos_as_xyz
  x,y,z
_cell_length_a	16.109301
_cell_length_b	16.974813
_cell_length_c	14.586319
_cell_angle_alpha	86.341649
_cell_angle_beta	89.999213
_cell_angle_gamma	83.428473
loop_
_atom_site_label
_atom_site_type_symbol
_atom_site_fract_x
_atom_site_fract_y
_atom_site_fract_z
O1	O	1.103044	0.101634	-0.083721
O2	O	1.603044	0.601634	0.416279
O3	O	0.860971	0.114282	-0.084674
O4	O	1.360971	0.614282	0.415326
O5	O	0.988756	-0.007147	-0.075653
O6	O	1.488756	0.492853	0.424347
O7	O	0.975259	0.223063	-0.092743
O8	O	1.475259	0.723063	0.407257
O9	O	0.988747	-0.007149	0.076828
O10	O	1.488747	0.492851	0.576828
O11	O	0.860962	0.114280	0.067807
O12	O	1.360962	0.614280	0.567807
O13	O	1.103035	0.101632	0.068760
O14	O	1.603035	0.601632	0.568760
Cu15	Cu	0.981998	0.107956	0.082206
Cu16	Cu	1.481998	0.607956	0.582206
Cu17	Cu	0.982008	0.107958	-0.098121
Cu18	Cu	1.482008	0.607958	0.401879
O19	O	0.975250	0.223061	0.059738
O20	O	1.475250	0.723061	0.559738
C21	C	0.829992	0.113769	-0.008398
C22	C	1.329992	0.613769	0.491602
C23	C	0.737698	0.112233	-0.008289
C24	C	1.237698	0.612233	0.491711
C25	C	0.515367	0.180715	-0.013362
C26	C	1.015367	0.680715	0.486638
C27	C	0.428648	0.179265	-0.013249
C28	C	0.928648	0.679265	0.486751
C29	C	0.448646	0.035194	-0.002557
C30	C	0.948646	0.535194	0.497443
C31	C	0.535363	0.036644	-0.002664
C32	C	1.035363	0.536644	0.497336
C33	C	0.568721	0.109407	-0.008072
C34	C	1.068721	0.609407	0.491928
C35	C	0.395284	0.106507	-0.007851
C36	C	0.895284	0.606507	0.492149
C37	C	0.301260	0.104935	-0.007728
C38	C	0.801260	0.604935	0.492272
C39	C	0.662752	0.110979	-0.008193
C40	C	1.162752	0.610979	0.491807
C41	C	0.988238	-0.036606	0.002772
C42	C	1.488238	0.463394	0.502772
C43	C	0.986698	-0.124383	0.009282
C44	C	1.486698	0.375617	0.509282
C45	C	0.985981	-0.165615	-0.070776
C46	C	1.485981	0.334385	0.429224
C47	C	0.984529	-0.248090	-0.064657
C48	C	1.484529	0.251910	0.435343
C49	C	0.983800	-0.289331	0.021522
C50	C	1.483800	0.210669	0.521522
C51	C	0.984514	-0.248093	0.101586
C52	C	1.484514	0.251907	0.601586
C53	C	0.985960	-0.165619	0.095466
C54	C	1.485960	0.334381	0.595466
C55	C	0.979468	-0.535991	0.048739
C56	C	1.479468	-0.035991	0.548739
C57	C	0.978024	-0.618471	0.054854
C58	C	1.478024	-0.118471	0.554854
C59	C	0.978038	-0.618462	-0.111390
C60	C	1.478038	-0.118462	0.388610
C61	C	0.979489	-0.535987	-0.117503
C62	C	1.479489	-0.035987	0.382497
C63	C	0.980199	-0.494755	-0.037439
C64	C	1.480199	0.005245	0.462561
N65	N	0.982318	-0.373634	0.027779
N66	N	1.482318	0.126366	0.527779
N67	N	0.981675	-0.410454	-0.043697
N68	N	1.481675	0.089546	0.456303
C69	C	1.134014	0.102145	-0.007519
C70	C	1.634014	0.602145	0.492481
C71	C	1.226308	0.103681	-0.007634
C72	C	1.726308	0.603681	0.492366
C73	C	0.975768	0.252520	-0.018689
C74	C	1.475768	0.752520	0.481311
C75	C	0.977308	0.340297	-0.025205
C76	C	1.477308	0.840297	0.474795
N77	N	0.981996	0.107954	0.209038
N78	N	1.481996	0.607954	0.709038
N79	N	0.982016	0.107954	-0.224952
N80	N	1.482016	0.607954	0.275048
C81	C	1.038598	0.054203	0.448037
C82	C	1.538598	0.554203	0.948037
C83	C	1.038600	0.054201	0.544019
C84	C	1.538600	0.554201	1.044019
C85	C	0.925408	0.161707	0.536041
C86	C	1.425408	0.661707	1.036041
C87	C	0.925402	0.161705	0.440062
C88	C	1.425402	0.661705	0.940062
C89	C	0.982002	0.107954	0.396063
C90	C	1.482002	0.607954	0.896063
C91	C	0.982010	0.107954	0.588023
C92	C	1.482010	0.607954	1.088023
C93	C	0.982012	0.107952	0.692091
C94	C	1.482012	0.607952	1.192091
C95	C	0.981999	0.107954	0.291989
C96	C	1.481999	0.607954	0.791989
H97	H	0.578807	-0.021427	0.001647
H98	H	1.078807	0.478573	0.501647
C99	C	1.100847	-0.004927	0.399641
C100	C	1.600847	0.495073	0.899641
H101	H	1.134548	-0.036944	0.444346
H102	H	1.634548	0.463056	0.944346
H103	H	1.135421	0.023521	0.360081
H104	H	1.635421	0.523521	0.860081
H105	H	1.070969	-0.037853	0.364651
H106	H	1.570969	0.462147	0.864651
H107	H	0.385209	0.237332	-0.017555
H108	H	0.885209	0.737332	0.482445
H109	H	0.421475	-0.024047	0.001850
H110	H	0.921475	0.475953	0.501850
H111	H	0.542524	0.239963	-0.017758
H112	H	1.042524	0.739963	0.482242
H113	H	0.879311	0.205475	0.397741
H114	H	1.379311	0.705475	0.897741
H115	H	0.986580	-0.132042	-0.140953
H116	H	1.486580	0.367958	0.359047
C117	C	1.100859	-0.004921	0.601187
C118	C	1.600859	0.495079	1.101187
H119	H	1.134568	-0.036927	0.561233
H120	H	1.634568	0.463073	1.061233
H121	H	1.070997	-0.037846	0.641077
H122	H	1.570997	0.462154	1.141077
H123	H	1.135437	0.023539	0.636511
H124	H	1.635437	0.523539	1.136511
C125	C	0.977246	-0.663816	-0.199453
C126	C	1.477246	-0.163816	0.300547
H127	H	0.976273	-0.718840	-0.183469
H128	H	1.476273	-0.218840	0.316531
H129	H	1.025942	-0.656341	-0.234161
H130	H	1.525942	-0.156341	0.265839
H131	H	0.929017	-0.644254	-0.235053
H132	H	1.429017	-0.144254	0.264947
C133	C	0.983726	-0.293440	-0.152722
C134	C	1.483726	0.206560	0.347278
H135	H	0.984373	-0.257066	-0.204922
H136	H	1.484373	0.242934	0.295078
H137	H	0.934697	-0.319563	-0.154234
H138	H	1.434697	0.180437	0.345766
H139	H	1.031622	-0.331661	-0.153347
H140	H	1.531622	0.168339	0.346653
H141	H	0.980084	-0.502414	-0.187679
H142	H	1.480084	-0.002414	0.312321
C143	C	0.977213	-0.663835	0.149654
C144	C	1.477213	-0.163835	0.649654
H145	H	0.977833	-0.627466	0.196462
H146	H	1.477833	-0.127466	0.696462
H147	H	1.025107	-0.702050	0.155954
H148	H	1.525107	-0.202050	0.655954
H149	H	0.928182	-0.689965	0.155034
H150	H	1.428182	-0.189965	0.655034
C151	C	0.980263	-0.490649	0.136807
C152	C	1.480263	0.009351	0.636807
H153	H	0.979633	-0.527026	0.189006
H154	H	1.479633	-0.027026	0.689006
H155	H	0.932370	-0.452433	0.137433
H156	H	1.432370	0.047567	0.637433
H157	H	1.029295	-0.464521	0.138323
H158	H	1.529295	0.035479	0.638323
H159	H	0.983915	-0.281678	0.171755
H160	H	1.483915	0.218322	0.671755
H161	H	0.879327	0.205471	0.571876
H162	H	1.379327	0.705471	1.071876
C163	C	0.986750	-0.120264	0.183530
C164	C	1.486750	0.379736	0.683530
H165	H	0.986116	-0.156638	0.235732
H166	H	1.486116	0.343362	0.735732
H167	H	0.938855	-0.082050	0.184145
H168	H	1.438855	0.417950	0.684145
H169	H	1.035780	-0.094134	0.185050
H170	H	1.535780	0.405866	0.685050
