data_functionalizedCrystal
_audit_creation_method	'MofGen! by Chris Wilmer'
_symmetry_space_group_name_H-M	'P1'
_symmetry_Int_Tables_number	1
_symmetry_cell_setting	triclinic
loop_
_symmetry_equiv_pos_as_xyz
  x,y,z
_cell_length_a	10.967926
_cell_length_b	15.538191
_cell_length_c	10.065908
_cell_angle_alpha	95.296503
_cell_angle_beta	93.119940
_cell_angle_gamma	66.441135
loop_
_atom_site_label
_atom_site_type_symbol
_atom_site_fract_x
_atom_site_fract_y
_atom_site_fract_z
O1	O	1.542278	0.161791	0.249259
O2	O	1.191079	0.164439	0.166657
O3	O	1.435044	0.028388	0.224031
O4	O	1.298314	0.297842	0.191885
O5	O	1.388473	0.054442	0.440067
O6	O	1.144508	0.190493	0.382693
O7	O	1.495707	0.187844	0.465295
Zn8	Zn	1.312713	0.193305	0.458295
Zn9	Zn	1.374073	0.158978	0.173657
O10	O	1.251742	0.323896	0.407921
C11	C	1.123944	0.175305	0.264361
C12	C	0.993289	0.168854	0.233630
C13	C	0.910914	0.179474	0.331843
C14	C	0.775875	0.172807	0.300084
C15	C	1.426065	0.006822	0.335409
C16	C	1.468678	-0.096256	0.345418
C17	C	1.045345	-0.398924	0.245879
C18	C	1.085413	-0.495781	0.255307
C19	C	1.310794	-0.510301	0.308316
C20	C	1.270745	-0.413444	0.298886
C21	C	1.138019	-0.357763	0.267669
C22	C	1.363419	-0.372283	0.320676
C23	C	1.323372	-0.275434	0.311255
C24	C	1.190651	-0.219746	0.280043
C25	C	1.097972	-0.260914	0.258248
C26	C	1.496143	-0.427965	0.351903
C27	C	1.588817	-0.386804	0.373693
C28	C	1.548773	-0.289954	0.364262
C29	C	1.416051	-0.234266	0.333050
C30	C	1.641452	-0.248787	0.386057
C31	C	1.601405	-0.151937	0.376635
C32	C	1.376004	-0.137417	0.323628
C33	C	1.562844	0.176979	0.367588
C34	C	1.693500	0.183429	0.398310
C35	C	1.260722	0.345462	0.296540
C36	C	1.218111	0.448538	0.286522
N37	N	1.270846	0.216732	0.652554
C38	C	1.359495	0.167127	0.741181
C39	C	1.327279	0.185164	0.890772
N40	N	1.415940	0.135551	0.979398
H41	H	0.963842	0.154823	0.126035
H42	H	0.940366	0.193497	0.439439
H43	H	1.696882	-0.432152	0.399115
H44	H	1.158045	-0.140884	0.272380
O45	O	1.539344	-0.532424	0.362081
H46	H	1.617552	-0.571719	0.287971
H47	H	1.749514	-0.294135	0.411487
O48	O	0.954814	-0.200852	0.224574
H49	H	0.942544	-0.126593	0.221680
O50	O	0.732474	0.202039	0.540841
H51	H	0.651586	0.208808	0.607950
O52	O	0.736891	0.154227	0.157546
H53	H	0.636940	0.151913	0.154966
O54	O	1.232847	-0.077349	0.289962
H55	H	1.205467	-0.103077	0.191010
O56	O	1.701354	-0.107532	0.400122
H57	H	1.800378	-0.162523	0.423395
O58	O	0.902190	-0.338854	0.212208
H59	H	0.844467	-0.383744	0.198641
H60	H	1.171097	0.272552	0.687422
O61	O	1.491620	0.093178	0.695001
H62	H	1.551653	0.059579	0.782676
H63	H	1.009933	-0.529287	0.237579
O64	O	1.195143	0.259119	0.936932
H65	H	1.190579	0.261687	1.047183
H66	H	1.418859	-0.555649	0.333738
O67	O	1.548072	0.061593	0.933235
H68	H	1.602068	0.095126	0.880822
