data_functionalizedCrystal
_audit_creation_method	'MofGen! by Chris Wilmer'
_symmetry_space_group_name_H-M	'P1'
_symmetry_Int_Tables_number	1
_symmetry_cell_setting	triclinic
loop_
_symmetry_equiv_pos_as_xyz
  x,y,z
_cell_length_a	19.288864
_cell_length_b	12.837942
_cell_length_c	17.766277
_cell_angle_alpha	89.994736
_cell_angle_beta	89.976791
_cell_angle_gamma	88.982593
loop_
_atom_site_label
_atom_site_type_symbol
_atom_site_fract_x
_atom_site_fract_y
_atom_site_fract_z
O1	O	0.930181	0.129276	-0.062838
O2	O	0.729111	0.146715	-0.062786
O3	O	0.825187	-0.012886	-0.062806
O4	O	0.834104	0.288878	-0.062818
O5	O	0.825168	-0.012894	0.062382
O6	O	0.729091	0.146707	0.062402
O7	O	0.930161	0.129268	0.062351
Cu8	Cu	0.829625	0.137987	0.073807
Cu9	Cu	0.829647	0.137996	-0.074243
O10	O	0.834085	0.288870	0.062371
C11	C	0.703186	0.146150	-0.000185
C12	C	0.625968	0.144466	-0.000166
C13	C	0.587666	0.238113	-0.000181
C14	C	0.515111	0.236530	-0.000189
C15	C	0.480860	0.141295	-0.000197
C16	C	0.519171	0.047636	-0.000178
C17	C	0.591725	0.049221	-0.000162
C18	C	0.367493	0.066433	-0.044079
C19	C	0.294941	0.064852	-0.044099
C20	C	0.257081	0.136402	-0.000243
C21	C	0.291782	0.209552	0.043625
C22	C	0.364335	0.211137	0.043640
C23	C	0.402188	0.139566	-0.000214
C24	C	0.140106	0.228340	-0.000266
C25	C	0.067550	0.226753	-0.000270
C26	C	0.071611	0.037857	-0.000265
C27	C	0.144166	0.039446	-0.000254
C28	C	0.178409	0.134690	-0.000258
C29	C	0.822165	-0.051497	-0.000212
C30	C	0.813181	-0.166532	-0.000211
C31	C	0.921187	-0.407995	-0.000254
C32	C	0.912748	-0.516081	-0.000253
C33	C	0.787867	-0.490793	-0.000213
C34	C	0.796305	-0.382707	-0.000214
C35	C	0.862967	-0.341312	-0.000233
C36	C	0.871405	-0.233223	-0.000229
C37	C	0.746524	-0.207938	-0.000195
C38	C	0.738086	-0.316024	-0.000194
C39	C	0.956086	0.129833	-0.000252
C40	C	1.033304	0.131518	-0.000276
C41	C	0.837107	0.327480	-0.000225
C42	C	0.846091	0.442515	-0.000231
N43	N	0.829614	0.137979	0.177938
N44	N	0.829663	0.137996	-0.178373
C45	C	0.872174	0.067342	0.217316
C46	C	0.872178	0.067338	0.296118
C47	C	0.829629	0.137988	0.335538
C48	C	0.787060	0.208630	0.296151
C49	C	0.787052	0.208626	0.217350
C50	C	0.826778	0.232410	0.460374
C51	C	0.826790	0.232416	0.539173
C52	C	0.829648	0.138000	0.578584
C53	C	0.832508	0.043575	0.539188
C54	C	0.832501	0.043571	0.460387
C55	C	0.829632	0.138000	0.420984
C56	C	0.872215	0.067352	0.703409
C57	C	0.872213	0.067346	0.782212
C58	C	0.787100	0.208647	0.782243
C59	C	0.787097	0.208645	0.703442
C60	C	0.829658	0.137998	0.664029
H61	H	0.260958	0.267814	0.079337
O62	O	0.181271	-0.051620	-0.000281
C63	C	0.135486	-0.136018	-0.000270
H64	H	0.083185	-0.109460	-0.023983
H65	H	0.157889	-0.201612	-0.036610
H66	H	0.128361	-0.165231	0.059788
O67	O	0.985987	-0.367949	-0.000305
C68	C	1.035565	-0.449984	-0.000300
H69	H	1.011250	-0.523325	-0.023993
H70	H	1.081677	-0.427592	-0.036659
H71	H	1.053859	-0.465372	0.059754
H72	H	0.398313	0.008166	-0.079797
H73	H	0.834835	-0.033307	0.571275
H74	H	0.266693	0.005293	-0.079822
H75	H	0.483920	0.312791	-0.000200
O76	O	0.913584	-0.001326	0.334264
C77	C	0.951129	-0.063704	0.282579
H78	H	0.954723	-0.021223	0.226401
H79	H	1.005536	-0.079725	0.305324
H80	H	0.923488	-0.140602	0.274220
H81	H	0.752444	0.266168	0.671378
H82	H	0.491280	-0.029905	-0.000194
O83	O	0.745691	0.277351	0.179211
C84	C	0.708120	0.339689	0.230898
H85	H	0.736668	0.340754	0.287056
H86	H	0.703000	0.422490	0.208126
H87	H	0.654312	0.306235	0.239307
O88	O	0.835244	-0.048240	0.422234
C89	C	0.837787	-0.131578	0.473909
H90	H	0.815147	-0.104809	0.530093
H91	H	0.806333	-0.199004	0.451162
H92	H	0.893936	-0.158311	0.482257
H93	H	0.615542	0.315668	-0.000186
H94	H	0.036366	0.303015	-0.000278
H95	H	0.043725	-0.039685	-0.000319
O96	O	0.723167	-0.531188	-0.000163
C97	C	0.728208	-0.640886	-0.000191
H98	H	0.780716	-0.666514	0.023492
H99	H	0.685122	-0.673905	0.036166
H100	H	0.722862	-0.670946	-0.060250
H101	H	0.960157	-0.570371	-0.000272
O102	O	0.673370	-0.356365	-0.000274
C103	C	0.664750	-0.418096	-0.065118
H104	H	0.717700	-0.445260	-0.086755
H105	H	0.632391	-0.488756	-0.050527
H106	H	0.637191	-0.370193	-0.110507
H107	H	0.824466	0.309302	0.571244
O108	O	0.913596	-0.001133	0.820550
C109	C	0.960115	0.054213	0.866091
H110	H	0.937819	0.135407	0.877900
H111	H	0.968243	0.010918	0.921503
H112	H	1.011898	0.061066	0.835696
O113	O	0.690039	-0.143013	-0.000211
C114	C	0.711778	-0.038735	-0.000194
H115	H	0.766595	-0.034833	-0.023911
H116	H	0.675112	0.010425	-0.036527
H117	H	0.711206	-0.007475	0.059867
H118	H	0.622910	-0.027040	-0.000150
H119	H	0.906828	0.009816	0.185228
O120	O	0.913570	-0.001378	0.665234
C121	C	0.951144	-0.063718	0.716893
H122	H	0.922601	-0.064780	0.773079
H123	H	0.956260	-0.146520	0.694128
H124	H	1.004954	-0.030267	0.725244
H125	H	0.392586	0.270694	0.079361
H126	H	0.925684	-0.199522	-0.000242
O127	O	0.745728	0.277135	0.820609
C128	C	0.699210	0.221798	0.866204
H129	H	0.721503	0.140602	0.878005
H130	H	0.691089	0.265097	0.921617
H131	H	0.647424	0.214949	0.835861
H132	H	0.824438	0.309300	0.428291
H133	H	0.752415	0.266153	0.328251
O134	O	0.173266	0.320946	-0.000228
C135	C	0.123897	0.403265	-0.000255
H136	H	0.072761	0.374445	0.023438
H137	H	0.143422	0.469773	0.036093
H138	H	0.115587	0.432142	-0.060316
