data_functionalizedCrystal
_audit_creation_method	'MofGen! by Chris Wilmer'
_symmetry_space_group_name_H-M	'P1'
_symmetry_Int_Tables_number	1
_symmetry_cell_setting	triclinic
loop_
_symmetry_equiv_pos_as_xyz
  x,y,z
_cell_length_a	15.944545
_cell_length_b	15.944551
_cell_length_c	9.730217
_cell_angle_alpha	89.995798
_cell_angle_beta	90.001375
_cell_angle_gamma	83.497455
loop_
_atom_site_label
_atom_site_type_symbol
_atom_site_fract_x
_atom_site_fract_y
_atom_site_fract_z
O1	O	1.114524	0.108306	-0.114204
O2	O	0.869973	0.121667	-0.114227
O3	O	0.998927	-0.007289	-0.114202
O4	O	0.985571	0.237261	-0.114228
O5	O	0.998923	-0.007290	0.114378
O6	O	0.869970	0.121666	0.114353
O7	O	1.114520	0.108304	0.114376
Zn8	Zn	0.992244	0.114985	0.150657
Zn9	Zn	0.992249	0.114987	-0.150507
O10	O	0.985567	0.237260	0.114352
C11	C	0.838677	0.121113	0.000061
C12	C	0.745431	0.119453	0.000052
C13	C	0.474798	0.034559	0.000076
C14	C	0.525378	0.075487	0.112777
C15	C	0.409787	0.113532	0.000077
C16	C	0.525363	0.075510	-0.112585
C17	C	0.574701	0.116437	0.000062
C18	C	0.459139	0.154439	0.112871
C19	C	0.459120	0.154450	-0.112593
C20	C	0.509667	0.195436	0.000136
C21	C	0.314785	0.111856	0.000086
C22	C	0.669700	0.118119	0.000063
C23	C	0.998370	-0.038583	0.000088
C24	C	0.996708	-0.131829	0.000089
C25	C	0.912803	-0.346684	0.000062
C26	C	0.951764	-0.407703	0.112769
C27	C	0.993701	-0.302555	0.000078
C28	C	0.951787	-0.407685	-0.112593
C29	C	0.990790	-0.467468	0.000061
C30	C	1.032684	-0.362345	0.112878
C31	C	1.032695	-0.362321	-0.112585
C32	C	1.071715	-0.423322	0.000150
C33	C	0.995375	-0.207553	0.000088
C34	C	0.989122	-0.562469	0.000060
C35	C	1.145816	0.108859	0.000086
C36	C	1.239062	0.110519	0.000085
C37	C	0.986123	0.268555	0.000059
C38	C	0.987785	0.361801	0.000049
N39	N	0.992247	0.114983	0.356193
N40	N	0.992253	0.114981	-0.356044
C41	C	1.106481	0.000826	0.356206
C42	C	1.163604	-0.056250	0.428151
C43	C	1.163613	-0.056251	0.572031
C44	C	1.106490	0.000829	0.643968
C45	C	1.049368	0.057906	0.572022
C46	C	1.049367	0.057902	0.428139
C47	C	0.935130	0.172058	0.572010
C48	C	0.935125	0.172064	0.428130
C49	C	0.878008	0.229138	0.643947
C50	C	0.820888	0.286220	0.572001
C51	C	0.820883	0.286219	0.428113
C52	C	0.878002	0.229140	0.356184
H53	H	0.430175	0.187774	-0.207883
H54	H	0.554282	0.042144	-0.207859
H55	H	1.138922	-0.456483	0.000220
Br56	Br	1.089681	-0.328768	-0.271399
H57	H	0.917546	-0.427811	0.208048
Br58	Br	0.573592	0.019902	0.271600
Br59	Br	0.743347	0.363677	0.330485
H60	H	1.210124	-0.102730	0.630610
Br61	Br	0.894736	-0.441172	-0.271393
Br62	Br	0.411125	0.209988	0.271849
Br63	Br	0.800886	-0.291168	0.000225
H64	H	1.106487	0.000828	0.239051
H65	H	1.066869	-0.342356	0.208268
Br66	Br	0.448705	-0.078797	0.000261
Br67	Br	1.241119	-0.133719	0.330523
Br68	Br	0.535486	0.308882	0.000219
H69	H	1.106494	0.000818	0.761123
H70	H	0.878014	0.229132	0.761102
H71	H	0.774380	0.332687	0.630581
H72	H	0.878005	0.229137	0.239030
