data_functionalizedCrystal
_audit_creation_method	'MofGen! by Chris Wilmer'
_symmetry_space_group_name_H-M	'P1'
_symmetry_Int_Tables_number	1
_symmetry_cell_setting	triclinic
loop_
_symmetry_equiv_pos_as_xyz
  x,y,z
_cell_length_a	14.044220
_cell_length_b	19.188924
_cell_length_c	12.503572
_cell_angle_alpha	93.509187
_cell_angle_beta	86.164750
_cell_angle_gamma	88.165421
loop_
_atom_site_label
_atom_site_type_symbol
_atom_site_fract_x
_atom_site_fract_y
_atom_site_fract_z
O1	O	1.262478	0.164590	-0.089215
O2	O	1.762478	0.664590	0.410785
O3	O	0.986536	0.158516	-0.089242
O4	O	1.486536	0.658516	0.410758
O5	O	1.132473	0.060412	-0.089215
O6	O	1.632473	0.560412	0.410785
O7	O	1.116542	0.262694	-0.089242
O8	O	1.616542	0.762694	0.410758
O9	O	1.121498	0.067803	0.089425
O10	O	1.621498	0.567803	0.589425
O11	O	0.975561	0.165907	0.089398
O12	O	1.475561	0.665907	0.589398
O13	O	1.251503	0.171981	0.089425
O14	O	1.751503	0.671981	0.589425
Cu15	Cu	1.112530	0.169619	0.105722
Cu16	Cu	1.612530	0.669619	0.605722
Cu17	Cu	1.125509	0.160878	-0.105540
Cu18	Cu	1.625509	0.660878	0.394460
O19	O	1.105566	0.270086	0.089398
O20	O	1.605566	0.770086	0.589398
C21	C	0.945745	0.159554	0.000075
C22	C	1.445745	0.659554	0.500075
C23	C	0.840553	0.151624	0.000065
C24	C	1.340553	0.651624	0.500065
C25	C	1.126470	0.038063	0.000106
C26	C	1.626470	0.538063	0.500106
C27	C	1.124925	-0.039541	0.000108
C28	C	1.624925	0.460459	0.500108
C29	C	0.647951	0.137130	0.000088
C30	C	1.147951	0.637130	0.500088
C31	C	0.590083	0.193364	0.000085
C32	C	1.090083	0.693364	0.500085
C33	C	0.482913	0.185299	0.000098
C34	C	0.982913	0.685299	0.500098
C35	C	0.755132	0.145194	0.000075
C36	C	1.255132	0.645194	0.500075
C37	C	1.130186	-0.080016	-0.097269
C38	C	1.630186	0.419984	0.402731
C39	C	1.128721	-0.152934	-0.097277
C40	C	1.628721	0.347066	0.402723
C41	C	1.122013	-0.185374	0.000097
C42	C	1.622013	0.314626	0.500097
C43	C	1.116746	-0.144890	0.097487
C44	C	1.616746	0.355110	0.597487
C45	C	1.118201	-0.071974	0.097493
C46	C	1.618201	0.428026	0.597493
N47	N	1.169200	-0.298706	0.072576
N48	N	1.669200	0.201294	0.572576
N49	N	1.167820	-0.367974	0.072564
N50	N	1.667820	0.132026	0.572564
C51	C	1.117624	-0.405067	0.000086
C52	C	1.617624	0.094933	0.500086
N53	N	1.068874	-0.370276	-0.072395
N54	N	1.568874	0.129724	0.427605
N55	N	1.070259	-0.301002	-0.072386
N56	N	1.570259	0.198998	0.427614
C57	C	1.120433	-0.264439	0.000102
C58	C	1.620433	0.235561	0.500102
C59	C	1.121296	-0.524607	-0.097306
C60	C	1.621296	-0.024607	0.402694
C61	C	1.119824	-0.597526	-0.097310
C62	C	1.619824	-0.097526	0.402690
C63	C	1.107859	-0.589482	0.097456
C64	C	1.607859	-0.089482	0.597456
C65	C	1.109321	-0.516564	0.097458
C66	C	1.609321	-0.016564	0.597458
C67	C	1.116044	-0.484132	0.000074
C68	C	1.616044	0.015868	0.500074
C69	C	1.292294	0.170944	0.000106
C70	C	1.792294	0.670944	0.500106
C71	C	1.397486	0.178873	0.000108
C72	C	1.897486	0.678873	0.500108
C73	C	1.111569	0.292434	0.000075
C74	C	1.611569	0.792434	0.500075
C75	C	1.113115	0.370038	0.000065
C76	C	1.613115	0.870038	0.500065
N77	N	1.103407	0.175767	0.254313
N78	N	1.603407	0.675767	0.754313
N79	N	1.134639	0.154725	-0.254131
N80	N	1.634639	0.654725	0.245869
C81	C	1.089988	0.184817	0.473426
C82	C	1.589988	0.684817	0.973426
C83	C	1.148055	0.145677	0.526764
C84	C	1.648055	0.645677	1.026764
C85	C	1.140589	0.150713	0.648685
C86	C	1.640589	0.650713	1.148685
C87	C	1.097454	0.179783	0.351493
C88	C	1.597454	0.679783	0.851493
H89	H	0.621028	0.247565	0.000073
H90	H	1.121028	0.747565	0.500073
H91	H	1.034672	0.222106	0.519323
H92	H	1.534672	0.722106	1.019323
H93	H	1.203376	0.108387	0.480861
H94	H	1.703376	0.608387	0.980861
H95	H	0.617008	0.082933	0.000101
H96	H	1.117008	0.582933	0.500101
H97	H	1.124104	-0.630480	-0.176610
H98	H	1.624104	-0.130480	0.323390
H99	H	1.132999	-0.185894	-0.176575
H100	H	1.632999	0.314106	0.323425
H101	H	1.135658	-0.053614	-0.176567
H102	H	1.635658	0.446386	0.323433
H103	H	1.111281	-0.171308	0.176770
H104	H	1.611281	0.328692	0.676770
H105	H	1.126765	-0.498199	-0.176602
H106	H	1.626765	0.001801	0.323398
H107	H	1.113913	-0.039019	0.176791
H108	H	1.613913	0.460981	0.676791
H109	H	1.102390	-0.615894	0.176740
H110	H	1.602390	-0.115894	0.676740
H111	H	1.105044	-0.483609	0.176753
H112	H	1.605044	0.016391	0.676753
