data_functionalizedCrystal
_audit_creation_method	'MofGen! by Chris Wilmer'
_symmetry_space_group_name_H-M	'P1'
_symmetry_Int_Tables_number	1
_symmetry_cell_setting	triclinic
loop_
_symmetry_equiv_pos_as_xyz
  x,y,z
_cell_length_a	12.827893
_cell_length_b	16.120484
_cell_length_c	12.827885
_cell_angle_alpha	87.136062
_cell_angle_beta	90.019462
_cell_angle_gamma	92.925431
loop_
_atom_site_label
_atom_site_type_symbol
_atom_site_fract_x
_atom_site_fract_y
_atom_site_fract_z
Zn1	Zn	1.576506	-0.331866	0.611895
Zn2	Zn	2.076506	0.168134	1.111895
Zn3	Zn	1.567506	-0.471301	0.445998
Zn4	Zn	2.067506	0.028699	0.945998
Zn5	Zn	1.401744	-0.331907	0.437171
Zn6	Zn	1.901744	0.168093	0.937171
Zn7	Zn	1.392843	-0.471239	0.620694
Zn8	Zn	1.892843	0.028761	1.120694
O9	O	1.484650	-0.401579	0.528940
O10	O	1.984650	0.098421	1.028940
O11	O	1.721547	-0.350372	0.589900
O12	O	2.221547	0.149628	1.089900
O13	O	1.545476	-0.452853	0.298594
O14	O	2.045476	0.047147	0.798594
O15	O	1.432418	-0.215236	0.452972
O16	O	1.932418	0.284764	0.952972
O17	O	1.714936	-0.452814	0.468017
O18	O	2.214936	0.047186	0.968017
O19	O	1.560814	-0.215206	0.581341
O20	O	2.060814	0.284794	1.081341
O21	O	1.423691	-0.350441	0.292109
O22	O	1.923691	0.149559	0.792109
O23	O	1.254328	-0.350381	0.461505
O24	O	1.754328	0.149619	0.961505
O25	O	1.417248	-0.452708	0.765761
O26	O	1.917248	0.047292	1.265761
O27	O	1.247789	-0.452748	0.596338
O28	O	1.747789	0.047252	1.096338
O29	O	1.552184	-0.350311	0.759296
O30	O	2.052184	0.149689	1.259296
O31	O	1.536846	-0.587959	0.476549
O32	O	2.036846	-0.087959	0.976549
O33	O	1.408522	-0.587913	0.604897
O34	O	1.908522	-0.087913	1.104897
C35	C	1.213141	-0.401562	0.528919
C36	C	1.713141	0.098438	1.028919
C37	C	1.096987	-0.401576	0.528936
C38	C	1.596987	0.098424	1.028936
C39	C	1.470770	-0.618186	0.542658
C40	C	1.970770	-0.118186	1.042658
C41	C	1.464927	-0.710851	0.548562
C42	C	1.964927	-0.210851	1.048562
C43	C	1.041989	-0.452309	0.595563
C44	C	1.541989	0.047691	1.095563
C45	C	0.921938	-0.452324	0.595582
C46	C	1.421938	0.047676	1.095582
C47	C	1.454267	-0.880512	0.559362
C48	C	1.954267	-0.380512	1.059362
C49	C	1.515220	-0.921804	0.498534
C50	C	2.015220	-0.421804	0.998534
C51	C	1.509289	-1.016209	0.504544
C52	C	2.009289	-0.516209	1.004544
C53	C	1.460197	-0.786099	0.553355
C54	C	1.960197	-0.286099	1.053355
C55	C	1.757219	-0.401595	0.528962
C56	C	2.257219	0.098405	1.028962
C57	C	1.873372	-0.401602	0.528971
C58	C	2.373372	0.098398	1.028971
C59	C	1.484727	-0.401498	0.801505
C60	C	1.984727	0.098502	1.301505
C61	C	1.484760	-0.401464	0.917656
C62	C	1.984760	0.098536	1.417656
C63	C	1.498613	-0.184125	0.515191
C64	C	1.998613	0.315875	1.015191
C65	C	1.504563	-0.091460	0.509332
C66	C	2.004563	0.408540	1.009332
C67	C	1.484637	-0.401598	0.257431
C68	C	1.984637	0.098402	0.757431
C69	C	1.484822	-0.401397	0.141266
C70	C	1.984822	0.098603	0.641266
C71	C	1.424518	-0.350777	0.966231
C72	C	1.924518	0.149223	1.466231
C73	C	1.424550	-0.350741	1.086279
C74	C	1.924550	0.149259	1.586279
H75	H	1.083781	-0.495730	0.652594
H76	H	1.583781	0.004270	1.152594
H77	H	1.055196	-0.358148	0.471913
H78	H	1.555196	0.141852	0.971913
H79	H	1.372980	-0.307342	1.128065
H80	H	1.872980	0.192658	1.628065
O81	O	1.379238	-0.927590	0.634316
O82	O	1.879238	-0.427590	1.134316
H83	H	1.298256	-0.910999	0.615280
H84	H	1.798256	-0.410999	1.115280
O85	O	1.590243	-0.874719	0.423571
O86	O	2.090243	-0.374719	0.923571
H87	H	1.633985	-0.919533	0.379941
H88	H	2.133985	-0.419533	0.879941
H89	H	1.372914	-0.307413	0.918943
H90	H	1.872914	0.192587	1.418943
O91	O	1.553154	-0.458885	1.085941
O92	O	2.053154	0.041115	1.585941
H93	H	1.503606	-0.501284	1.038895
H94	H	2.003606	-0.001284	1.538895
O95	O	0.859318	-0.509861	0.671151
O96	O	1.359318	-0.009861	1.171151
H97	H	0.774852	-0.500839	0.659314
H98	H	1.274852	-0.000839	1.159314
O99	O	0.935979	-0.344062	0.453396
O100	O	1.435979	0.155938	0.953396
H101	H	0.988433	-0.301712	0.497604
H102	H	1.488433	0.198288	0.997604
O103	O	1.553113	-0.458921	0.980274
O104	O	2.053113	0.041079	1.480274
H105	H	1.608656	-0.421563	1.027640
H106	H	2.108656	0.078437	1.527640
