data_functionalizedCrystal
_audit_creation_method	'MofGen! by Chris Wilmer'
_symmetry_space_group_name_H-M	'P1'
_symmetry_Int_Tables_number	1
_symmetry_cell_setting	triclinic
loop_
_symmetry_equiv_pos_as_xyz
  x,y,z
_cell_length_a	14.519709
_cell_length_b	23.532407
_cell_length_c	12.996460
_cell_angle_alpha	89.989202
_cell_angle_beta	90.000034
_cell_angle_gamma	83.264412
loop_
_atom_site_label
_atom_site_type_symbol
_atom_site_fract_x
_atom_site_fract_y
_atom_site_fract_z
O1	O	1.222985	0.074654	-0.085444
O2	O	1.722985	0.574654	0.414556
O3	O	0.954405	0.083445	-0.085477
O4	O	1.454405	0.583445	0.414523
O5	O	1.096794	-0.003845	-0.085440
O6	O	1.596794	0.496155	0.414560
O7	O	1.080596	0.161945	-0.085480
O8	O	1.580596	0.661945	0.414520
O9	O	1.096779	-0.003850	0.085693
O10	O	1.596779	0.496150	0.585693
O11	O	0.954390	0.083441	0.085657
O12	O	1.454390	0.583441	0.585657
O13	O	1.222971	0.074649	0.085690
O14	O	1.722971	0.574649	0.585690
Cu15	Cu	1.088679	0.079044	0.101299
Cu16	Cu	1.588679	0.579044	0.601299
Cu17	Cu	1.088696	0.079050	-0.101086
Cu18	Cu	1.588696	0.579050	0.398914
O19	O	1.080581	0.161940	0.085654
O20	O	1.580581	0.661940	0.585654
C21	C	0.920042	0.083033	0.000086
C22	C	1.420042	0.583033	0.500086
C23	C	0.817676	0.081805	0.000075
C24	C	1.317676	0.581805	0.500075
C25	C	1.096374	-0.025066	0.000129
C26	C	1.596374	0.474934	0.500129
C27	C	1.095134	-0.088288	0.000137
C28	C	1.595134	0.411712	0.500137
C29	C	0.442833	0.077286	0.000123
C30	C	0.942833	0.577286	0.500123
C31	C	0.547126	0.078541	0.000109
C32	C	1.047126	0.578541	0.500109
C33	C	0.630251	0.079545	0.000098
C34	C	1.130251	0.579545	0.500098
C35	C	0.734551	0.080801	0.000086
C36	C	1.234551	0.580801	0.500086
C37	C	1.171619	-0.487046	0.000090
C38	C	1.671619	0.012954	0.500090
C39	C	1.170467	-0.546452	0.000082
C40	C	1.670467	-0.046452	0.500082
O41	O	1.241369	-0.582876	0.000052
O42	O	1.741369	-0.082876	0.500052
N43	N	1.085816	-0.569460	0.000072
N44	N	1.585816	-0.069460	0.500072
C45	C	1.002312	-0.533059	0.000060
C46	C	1.502312	-0.033059	0.500060
O47	O	0.930205	-0.558084	0.000050
O48	O	1.430205	-0.058084	0.500050
C49	C	1.003465	-0.473655	0.000061
C50	C	1.503465	0.026345	0.500061
C51	C	1.088121	-0.450650	0.000081
C52	C	1.588121	0.049350	0.500081
C53	C	1.256268	-0.464041	0.000109
C54	C	1.756268	0.035959	0.500109
C55	C	1.257420	-0.404640	0.000119
C56	C	1.757420	0.095360	0.500119
C57	C	1.173922	-0.368244	0.000110
C58	C	1.673922	0.131756	0.500110
C59	C	1.089273	-0.391249	0.000091
C60	C	1.589273	0.108751	0.500091
C61	C	0.919962	-0.437255	0.000041
C62	C	1.419962	0.062745	0.500041
C63	C	0.921123	-0.377847	0.000041
C64	C	1.421123	0.122153	0.500041
C65	C	1.005779	-0.354843	0.000061
C66	C	1.505779	0.145157	0.500061
C67	C	1.006927	-0.295451	0.000091
C68	C	1.506927	0.204549	0.500091
N69	N	1.091578	-0.272443	0.000101
N70	N	1.591578	0.227557	0.500101
C71	C	1.175075	-0.308839	0.000110
C72	C	1.675075	0.191161	0.500110
C73	C	0.999897	-0.657813	0.000057
C74	C	1.499897	-0.157813	0.500057
C75	C	0.998743	-0.717216	0.000064
C76	C	1.498743	-0.217216	0.500064
C77	C	1.166898	-0.730604	0.000084
C78	C	1.666898	-0.230604	0.500084
C79	C	1.168051	-0.671200	0.000084
C80	C	1.668051	-0.171200	0.500084
C81	C	1.084548	-0.634804	0.000067
C82	C	1.584548	-0.134804	0.500067
C83	C	1.177487	-0.184092	0.000132
C84	C	1.677487	0.315908	0.500132
C85	C	1.178632	-0.124685	0.000146
C86	C	1.678632	0.375315	0.500146
C87	C	1.010477	-0.111301	0.000121
C88	C	1.510477	0.388699	0.500121
C89	C	1.009332	-0.170703	0.000112
C90	C	1.509332	0.329297	0.500112
C91	C	1.092845	-0.207098	0.000114
C92	C	1.592845	0.292902	0.500114
O93	O	0.936062	-0.258992	0.000117
O94	O	1.436062	0.241008	0.500117
O95	O	1.247171	-0.283806	0.000106
O96	O	1.747171	0.216194	0.500106
C97	C	1.257333	0.075061	0.000125
C98	C	1.757333	0.575061	0.500125
C99	C	1.359700	0.076289	0.000130
C100	C	1.859700	0.576289	0.500130
C101	C	1.081001	0.183160	0.000082
C102	C	1.581001	0.683160	0.500082
C103	C	1.082241	0.246383	0.000067
C104	C	1.582241	0.746383	0.500067
N105	N	1.088673	0.079040	0.243647
N106	N	1.588673	0.579040	0.743647
N107	N	1.088709	0.079050	-0.243433
N108	N	1.588709	0.579050	0.256567
C109	C	1.088695	0.079051	0.663461
C110	C	1.588695	0.579051	1.163461
C111	C	1.088686	0.079050	0.546656
C112	C	1.588686	0.579050	1.046656
C113	C	1.088685	0.079046	0.453557
C114	C	1.588685	0.579046	0.953557
C115	C	1.088675	0.079044	0.336745
C116	C	1.588675	0.579044	0.836745
H117	H	1.245491	-0.213718	0.000129
H118	H	1.745491	0.286282	0.500129
H119	H	1.247572	-0.105958	0.000165
H120	H	1.747572	0.394042	0.500165
C121	C	0.824865	-0.303267	-0.087949
C122	C	1.324865	0.196733	0.412051
C123	C	0.829330	-0.337842	0.000023
C124	C	1.329330	0.162158	0.500023
H125	H	0.768194	-0.278573	-0.087959
H126	H	1.268194	0.221427	0.412041
H127	H	0.875435	-0.281063	-0.087927
H128	H	1.375435	0.218937	0.412073
H129	H	0.827923	-0.326718	-0.147622
H130	H	1.327923	0.173282	0.352378
H131	H	0.826279	-0.314391	0.059696
H132	H	1.326279	0.185609	0.559696
H133	H	0.778747	-0.360048	0.000011
H134	H	1.278747	0.139952	0.500011
H135	H	0.851027	-0.455975	0.000019
H136	H	1.351027	0.044025	0.500019
C137	C	0.867491	-0.081594	0.088064
C138	C	1.367491	0.418406	0.588064
C139	C	0.918699	-0.071287	0.000105
C140	C	1.418699	0.428713	0.500105
H141	H	0.810833	-0.056887	0.088048
H142	H	1.310833	0.443113	0.588048
H143	H	0.854684	-0.120259	0.088053
H144	H	1.354684	0.379741	0.588053
H145	H	0.902223	-0.074615	0.147745
H146	H	1.402223	0.425385	0.647745
H147	H	0.883969	-0.078270	-0.059577
H148	H	1.383969	0.421730	0.440423
H149	H	0.931503	-0.032613	0.000107
H150	H	1.431503	0.467387	0.500107
H151	H	1.324266	-0.493670	0.000112
H152	H	1.824266	0.006330	0.500112
C153	C	0.903621	-0.583250	0.088026
C154	C	1.403621	-0.083250	0.588026
C155	C	0.908103	-0.617807	0.000053
C156	C	1.408103	-0.117807	0.500053
H157	H	0.846955	-0.558552	0.088016
H158	H	1.346955	-0.058552	0.588016
H159	H	0.906664	-0.606710	0.147692
H160	H	1.406664	-0.106710	0.647692
H161	H	0.954200	-0.561045	0.088020
H162	H	1.454200	-0.061045	0.588020
H163	H	0.857528	-0.640015	0.000063
H164	H	1.357528	-0.140015	0.500063
H165	H	0.905051	-0.594344	-0.059628
H166	H	1.405051	-0.094344	0.440372
C167	C	1.423512	-0.423859	0.000127
C168	C	1.923512	0.076141	0.500127
C169	C	1.350477	-0.379359	0.000127
C170	C	1.850477	0.120641	0.500127
H171	H	1.480963	-0.408253	0.000123
H172	H	1.980963	0.091747	0.500123
H173	H	1.419557	-0.446754	0.059801
H174	H	1.919557	0.053246	0.559801
H175	H	1.419552	-0.446744	-0.059556
H176	H	1.919552	0.053256	0.440444
H177	H	1.354433	-0.356476	0.059814
H178	H	1.854433	0.143524	0.559814
H179	H	1.354433	-0.356454	-0.059553
H180	H	1.854433	0.143546	0.440447
C181	C	1.334145	-0.690415	0.000097
C182	C	1.834145	-0.190415	0.500097
C183	C	1.261107	-0.645917	0.000090
C184	C	1.761107	-0.145917	0.500090
H185	H	1.391595	-0.674807	0.000091
H186	H	1.891595	-0.174807	0.500091
H187	H	1.330192	-0.713307	0.059774
H188	H	1.830192	-0.213307	0.559774
H189	H	1.330188	-0.713302	-0.059583
H190	H	1.830188	-0.213302	0.440417
H191	H	1.265059	-0.623031	0.059774
H192	H	1.765059	-0.123031	0.559774
H193	H	1.265061	-0.623014	-0.059593
H194	H	1.765061	-0.123014	0.440407
C195	C	1.239784	-0.827616	0.000060
C196	C	1.739784	-0.327616	0.500060
C197	C	1.258683	-0.770619	0.000076
C198	C	1.758683	-0.270619	0.500076
H199	H	1.296445	-0.852319	0.000047
H200	H	1.796445	-0.352319	0.500047
H201	H	1.205057	-0.834605	0.059733
H202	H	1.705057	-0.334605	0.559733
H203	H	1.205044	-0.834581	-0.059623
H204	H	1.705044	-0.334581	0.440377
H205	H	1.293416	-0.763654	0.059763
H206	H	1.793416	-0.263654	0.559763
H207	H	1.293424	-0.763628	-0.059604
H208	H	1.793424	-0.263628	0.440396
H209	H	0.929808	-0.735940	0.000065
H210	H	1.429808	-0.235940	0.500065
C211	C	0.910464	-0.229752	0.088064
C212	C	1.410464	0.270248	0.588064
C213	C	0.916276	-0.195991	0.000101
C214	C	1.416276	0.304009	0.500101
H215	H	0.853010	-0.245356	0.088051
H216	H	1.353010	0.254644	0.588051
H217	H	0.960016	-0.259931	0.088055
H218	H	1.460016	0.240069	0.588055
H219	H	0.914407	-0.206862	0.147743
H220	H	1.414407	0.293138	0.647743
H221	H	0.912340	-0.218882	-0.059578
H222	H	1.412340	0.281118	0.440422
H223	H	0.866710	-0.165808	0.000101
H224	H	1.366710	0.334192	0.500101
