data_functionalizedCrystal
_audit_creation_method	'MofGen! by Chris Wilmer'
_symmetry_space_group_name_H-M	'P1'
_symmetry_Int_Tables_number	1
_symmetry_cell_setting	triclinic
loop_
_symmetry_equiv_pos_as_xyz
  x,y,z
_cell_length_a	10.540539
_cell_length_b	15.944551
_cell_length_c	9.016244
_cell_angle_alpha	89.996810
_cell_angle_beta	89.994699
_cell_angle_gamma	84.012115
loop_
_atom_site_label
_atom_site_type_symbol
_atom_site_fract_x
_atom_site_fract_y
_atom_site_fract_z
O1	O	1.684281	0.118370	-0.123274
O2	O	1.314716	0.129523	-0.123293
O3	O	1.509591	0.001731	-0.123269
O4	O	1.489407	0.246161	-0.123297
O5	O	1.509562	0.001734	0.123411
O6	O	1.314688	0.129525	0.123388
O7	O	1.684253	0.118372	0.123407
Cu8	Cu	1.499468	0.123949	0.145921
Cu9	Cu	1.499502	0.123946	-0.145807
O10	O	1.489378	0.246164	0.123384
C11	C	1.267411	0.128688	0.000046
C12	C	1.126497	0.126185	0.000039
C13	C	1.508739	-0.029566	0.000071
C14	C	1.506227	-0.122827	0.000072
C15	C	0.944375	0.030298	0.000626
C16	C	1.090959	0.032835	0.000054
C17	C	1.064229	0.171108	-0.140828
C18	C	0.917728	0.167922	-0.140930
C19	C	0.917181	0.169824	0.139592
C20	C	1.064151	0.170684	0.141438
C21	C	1.379430	-0.338440	0.000045
C22	C	1.438296	-0.399105	0.121677
C23	C	1.501682	-0.293580	0.000060
C24	C	1.438353	-0.399091	-0.121531
C25	C	1.497283	-0.458519	0.000043
C26	C	1.560582	-0.353017	0.121792
C27	C	1.560622	-0.352996	-0.121525
C28	C	1.619577	-0.413643	0.000136
C29	C	1.504213	-0.198563	0.000072
C30	C	1.494762	-0.553535	0.000042
C31	C	1.731559	0.119207	0.000065
C32	C	1.872473	0.121710	0.000062
C33	C	1.490231	0.277461	0.000040
C34	C	1.492743	0.370722	0.000029
N35	N	1.499453	0.123951	0.351108
N36	N	1.499526	0.123937	-0.350993
C37	C	1.394894	0.192082	0.586128
C38	C	1.395120	0.192337	0.414237
C39	C	1.631905	0.143889	0.413450
C40	C	1.631333	0.144372	0.585395
C41	C	1.472882	0.035659	0.585659
C42	C	1.469829	0.036231	0.413705
H43	H	0.916281	-0.006580	0.101649
H44	H	1.105548	0.137866	0.245651
H45	H	1.133201	-0.002764	-0.101092
N46	N	1.754099	-0.456778	0.000237
H47	H	1.768198	-0.492792	-0.091628
H48	H	1.816525	-0.412841	0.001210
H49	H	1.711623	0.096739	0.626986
H50	H	1.087450	0.238743	0.149936
N51	N	1.629082	-0.325924	-0.257727
H52	H	1.582831	-0.342503	-0.349559
H53	H	1.630979	-0.262732	-0.256057
H54	H	1.711617	0.095612	0.372555
N55	N	0.853417	0.259139	0.140852
H56	H	0.795845	0.268426	0.051531
H57	H	0.801200	0.268860	0.234369
N58	N	1.369848	-0.426112	-0.257730
H59	H	1.339717	-0.374869	-0.319065
H60	H	1.430005	-0.465823	-0.318563
H61	H	0.889981	0.134718	-0.246221
N62	N	1.264711	0.176450	0.358392
H63	H	1.206560	0.169218	0.445473
H64	H	1.228234	0.225927	0.296330
N65	N	1.663752	0.228234	0.356386
H66	H	1.592577	0.253645	0.290167
H67	H	1.674151	0.267168	0.442894
H68	H	1.277955	-0.305737	0.000161
N69	N	1.264063	0.176445	0.640950
H70	H	1.271342	0.125038	0.707083
H71	H	1.225790	0.227096	0.698902
H72	H	1.411675	0.257205	0.629315
N73	N	1.369805	-0.426142	0.257893
H74	H	1.279106	-0.398520	0.257805
H75	H	1.369437	-0.489457	0.257310
N76	N	1.417308	0.279149	0.359706
H77	H	1.427025	0.317393	0.447367
H78	H	1.497429	0.275326	0.297565
H79	H	1.654810	0.208777	0.625478
N80	N	1.628977	-0.326121	0.258162
H81	H	1.583129	-0.343281	0.349903
H82	H	1.719410	-0.354199	0.258475
H83	H	1.378403	0.016683	0.629105
N84	N	0.905016	-0.018365	-0.132400
H85	H	0.840814	0.018547	-0.193030
H86	H	0.982484	-0.036228	-0.195212
H87	H	1.372396	0.021118	0.372960
H88	H	1.107254	0.139899	-0.245656
H89	H	1.541079	-0.016915	0.370738
H90	H	1.134043	-0.002512	0.101034
N91	N	1.573933	-0.031538	0.639515
H92	H	1.660526	-0.017909	0.604715
H93	H	1.572548	-0.033580	0.751455
N94	N	0.852934	0.256839	-0.149376
H95	H	0.878403	0.290076	-0.060828
H96	H	0.879655	0.284496	-0.243514
N97	N	1.092613	0.261912	-0.147810
H98	H	1.057259	0.292811	-0.056565
H99	H	1.187941	0.264137	-0.152364
N100	N	0.875933	0.129812	0.281035
H101	H	0.827838	0.080086	0.256092
H102	H	0.953635	0.110047	0.342154
