data_functionalizedCrystal
_audit_creation_method	'MofGen! by Chris Wilmer'
_symmetry_space_group_name_H-M	'P1'
_symmetry_Int_Tables_number	1
_symmetry_cell_setting	triclinic
loop_
_symmetry_equiv_pos_as_xyz
  x,y,z
_cell_length_a	14.908783
_cell_length_b	16.959454
_cell_length_c	14.908694
_cell_angle_alpha	93.271572
_cell_angle_beta	83.203601
_cell_angle_gamma	93.311155
loop_
_atom_site_label
_atom_site_type_symbol
_atom_site_fract_x
_atom_site_fract_y
_atom_site_fract_z
Zn1	Zn	1.413394	-0.273222	-0.591789
Zn2	Zn	1.404563	-0.398208	-0.440429
Zn3	Zn	1.253290	-0.273244	-0.431694
Zn4	Zn	1.261989	-0.412563	-0.583001
O5	O	1.333309	-0.339309	-0.511728
O6	O	1.538894	-0.283785	-0.579044
O7	O	1.377159	-0.375633	-0.312603
O8	O	1.274583	-0.162628	-0.452953
O9	O	1.532405	-0.375612	-0.467841
O10	O	1.392211	-0.162613	-0.570574
O11	O	1.266020	-0.283822	-0.306185
O12	O	1.127773	-0.297741	-0.444432
O13	O	1.289410	-0.400078	-0.710834
O14	O	1.134164	-0.400099	-0.555597
O15	O	1.400646	-0.297705	-0.717290
O16	O	1.385595	-0.510725	-0.459319
O17	O	1.280847	-0.521271	-0.564067
C18	C	1.098124	-0.350481	-0.498113
C19	C	0.997512	-0.355280	-0.492310
C20	C	0.815216	-0.268826	-0.597379
C21	C	0.720682	-0.273332	-0.591929
C22	C	0.713909	-0.368795	-0.475958
C23	C	0.808443	-0.364288	-0.481407
C24	C	0.859093	-0.314303	-0.542121
C25	C	0.953629	-0.309801	-0.547574
C26	C	0.946853	-0.405259	-0.431599
C27	C	0.852320	-0.409765	-0.426149
C28	C	1.333232	-0.544678	-0.511708
C29	C	1.333284	-0.632534	-0.511735
C30	C	1.278850	-1.009525	-0.566269
C31	C	1.388025	-0.998483	-0.457294
C32	C	1.387993	-0.915938	-0.457284
C33	C	1.333388	-0.880183	-0.511766
C34	C	1.278814	-0.926973	-0.566258
C35	C	1.442558	-0.869142	-0.402786
C36	C	1.442527	-0.786592	-0.402773
C37	C	1.387926	-0.750836	-0.457261
C38	C	1.333352	-0.797631	-0.511756
C39	C	1.278747	-0.761876	-0.566238
C40	C	1.224176	-0.808669	-0.620738
C41	C	1.224213	-0.891216	-0.620746
C42	C	1.387889	-0.668289	-0.457253
C43	C	1.278711	-0.679323	-0.566227
C44	C	1.569412	-0.328095	-0.525397
C45	C	1.670025	-0.323316	-0.531222
C46	C	1.346984	-0.350490	-0.747824
C47	C	1.352811	-0.355255	-0.848434
C48	C	1.333412	-0.133138	-0.511769
C49	C	1.333456	-0.045280	-0.511787
C50	C	1.248011	-0.268609	-1.030808
C51	C	1.253483	-0.273083	-1.125340
C52	C	1.369222	-0.368682	-1.132031
C53	C	1.363750	-0.364207	-1.037499
C54	C	1.303143	-0.314168	-0.986891
C55	C	1.297676	-0.309690	-0.892358
C56	C	1.413410	-0.405292	-0.899050
C57	C	1.418883	-0.409767	-0.993582
C58	C	1.319739	-0.328112	-0.276554
C59	C	1.314088	-0.323117	-0.175955
H60	H	0.994867	-0.269101	-0.597011
H61	H	1.418553	-0.409432	-1.173251
H62	H	1.179712	-0.779548	-0.665093
H63	H	0.684961	-0.236298	-0.636924
F64	F	1.220779	-1.059325	-0.624273
F65	F	1.483378	-0.463022	-1.047452
F66	F	1.183518	-0.215347	-0.976946
F67	F	1.500672	-0.907199	-0.344811
F68	F	0.659988	-0.421980	-0.411338
F69	F	1.194800	-0.224595	-1.172077
F70	F	0.798404	-0.462958	-0.361534
H71	H	1.458307	-0.442388	-0.863283
F72	F	1.445954	-0.618492	-0.399245
H73	H	1.179784	-0.929323	-0.665116
H74	H	1.234248	-0.650217	-0.610597
H75	H	1.248330	-0.268942	-0.851154
H76	H	0.856457	-0.228129	-0.646818
F77	F	1.500611	-0.736799	-0.344776
H78	H	1.432476	-1.027600	-0.412932
F79	F	0.993557	-0.453667	-0.372790
