data_functionalizedCrystal
_audit_creation_method	'MofGen! by Chris Wilmer'
_symmetry_space_group_name_H-M	'P1'
_symmetry_Int_Tables_number	1
_symmetry_cell_setting	triclinic
loop_
_symmetry_equiv_pos_as_xyz
  x,y,z
_cell_length_a	17.699103
_cell_length_b	16.992694
_cell_length_c	16.176319
_cell_angle_alpha	90.001613
_cell_angle_beta	90.011765
_cell_angle_gamma	86.979642
loop_
_atom_site_label
_atom_site_type_symbol
_atom_site_fract_x
_atom_site_fract_y
_atom_site_fract_z
O1	O	0.160469	1.040100	0.068658
O2	O	0.158708	0.811818	0.068683
O3	O	0.049801	0.932401	0.068654
O4	O	0.269376	0.919518	0.068687
O5	O	0.049793	0.932384	-0.068839
O6	O	0.158700	0.811802	-0.068811
O7	O	0.160460	1.040084	-0.068835
Cu8	Cu	0.159579	0.925941	-0.081377
Cu9	Cu	0.159589	0.925961	0.081225
O10	O	0.269367	0.919501	-0.068806
C11	C	0.156439	0.782602	-0.000061
C12	C	0.149682	0.695570	-0.000053
C13	C	0.021572	0.931928	-0.000095
C14	C	-0.062532	0.930536	-0.000102
C15	C	0.214880	0.645210	-0.000043
C16	C	0.208526	0.563435	-0.000056
C17	C	0.136974	0.532022	-0.000071
C18	C	0.071772	0.582388	-0.000083
C19	C	0.078126	0.664161	-0.000077
C20	C	0.110638	0.288472	-0.000098
C21	C	0.104289	0.206692	-0.000101
C22	C	0.241044	0.187745	-0.000076
C23	C	0.247392	0.269521	-0.000064
C24	C	0.182189	0.319880	-0.000080
N25	N	0.130478	0.448435	-0.000081
N26	N	0.188686	0.403465	-0.000076
C27	C	-0.578770	0.922025	0.074901
C28	C	-0.499745	0.923333	0.074893
C29	C	-0.460251	0.923976	-0.000059
C30	C	-0.499786	0.923320	-0.075009
C31	C	-0.578809	0.922018	-0.075001
C32	C	-0.181092	0.928571	-0.075044
C33	C	-0.102063	0.929871	-0.075047
C34	C	-0.102028	0.929887	0.074850
C35	C	-0.181052	0.928585	0.074858
C36	C	-0.220580	0.927933	-0.000091
C37	C	-0.306268	0.926516	-0.000082
C38	C	-0.374564	0.925387	-0.000069
C39	C	0.297597	0.919974	-0.000056
C40	C	0.381701	0.921367	-0.000043
C41	C	0.162729	1.069301	-0.000089
C42	C	0.169486	1.156332	-0.000092
N43	N	0.159572	0.925933	-0.195742
C44	C	0.111370	0.979343	-0.239019
C45	C	0.111370	0.979347	-0.325566
C46	C	0.159575	0.925944	-0.368835
C47	C	0.207780	0.872529	-0.325552
C48	C	0.207776	0.872522	-0.239006
C49	C	0.207795	0.872556	-0.674580
C50	C	0.207797	0.872568	-0.761132
C51	C	0.111389	0.979381	-0.761140
C52	C	0.111386	0.979374	-0.674594
C53	C	0.159586	0.925956	-0.631319
C54	C	0.159585	0.925951	-0.537475
C55	C	0.159581	0.925952	-0.462677
N56	N	0.159591	0.925975	0.195590
H57	H	0.273144	0.670780	-0.000030
H58	H	0.247026	0.829029	-0.203771
H59	H	-0.610920	0.921494	0.135936
N60	N	0.278847	0.509120	-0.000034
H61	H	0.263967	0.452550	-0.000043
H62	H	0.309820	0.519278	-0.050994
N63	N	0.059399	1.036996	-0.807818
H64	H	0.024058	1.007110	-0.843738
H65	H	0.028916	1.070814	-0.767221
N66	N	0.027116	0.172800	-0.000134
H67	H	0.021431	0.139293	0.050831
H68	H	-0.013184	0.217148	-0.000180
H69	H	0.247044	0.829062	-0.639352
H70	H	0.072135	1.022862	-0.639368
H71	H	0.057546	0.329465	-0.000111
N72	N	0.007803	0.718476	-0.000084
H73	H	0.007391	0.752827	0.050885
H74	H	0.007430	0.752774	-0.051087
N75	N	-0.457109	0.924046	0.155726
H76	H	-0.494119	0.923437	0.203209
H77	H	-0.421126	0.876005	0.158991
H78	H	-0.213204	0.928057	0.135893
N79	N	-0.059419	0.930589	0.155708
H80	H	-0.069989	0.881777	0.188461
H81	H	-0.003376	0.931540	0.144296
H82	H	-0.069908	0.930391	-0.136086
N83	N	0.259769	0.814923	-0.372215
H84	H	0.252459	0.823032	-0.433609
H85	H	0.314008	0.823874	-0.357070
H86	H	0.013513	0.556805	-0.000108
N87	N	0.324565	0.303401	-0.000032
H88	H	0.364905	0.259089	-0.000024
H89	H	0.330187	0.336923	-0.050994
H90	H	-0.213267	0.928041	-0.136073
H91	H	0.294127	0.146734	-0.000064
H92	H	0.247053	0.829078	-0.796360
H93	H	-0.610993	0.921481	-0.136028
H94	H	-0.467623	0.923848	-0.136037
N95	N	0.059381	1.036947	-0.192354
H96	H	0.028845	1.070781	-0.232905
H97	H	0.024090	1.006995	-0.156458
N98	N	0.059408	1.036980	-0.372244
H99	H	0.028883	1.070822	-0.331701
H100	H	0.090529	1.071571	-0.408124
