data_functionalizedCrystal
_audit_creation_method	'MofGen! by Chris Wilmer'
_symmetry_space_group_name_H-M	'P1'
_symmetry_Int_Tables_number	1
_symmetry_cell_setting	triclinic
loop_
_symmetry_equiv_pos_as_xyz
  x,y,z
_cell_length_a	15.698487
_cell_length_b	12.970454
_cell_length_c	12.970454
_cell_angle_alpha	60.000396
_cell_angle_beta	90.001156
_cell_angle_gamma	60.000052
loop_
_atom_site_label
_atom_site_type_symbol
_atom_site_fract_x
_atom_site_fract_y
_atom_site_fract_z
Zr1	Zr	0.820634	1.128487	-0.135253
O2	O	0.684618	1.343579	-0.299881
O3	O	0.862330	0.913397	-0.084787
O4	O	0.862332	1.128485	-0.299875
O5	O	0.684615	1.128492	0.084873
O6	O	1.002516	1.128481	-0.299869
O7	O	0.684616	1.128491	-0.084793
O8	O	1.002513	0.743728	0.084884
O9	O	0.684618	1.513245	-0.299880
O10	O	0.984731	1.001863	-0.063258
O11	O	0.880113	1.001866	0.063358
O12	O	0.880115	1.255105	-0.189881
O13	O	0.775496	1.255108	-0.063265
Zr14	Zr	1.044211	1.128482	0.135355
Zr15	Zr	1.044212	1.128480	-0.135244
Zr16	Zr	0.820633	1.128488	0.135345
Zr17	Zr	0.820635	1.399084	-0.135251
Zr18	Zr	1.044210	0.857884	0.135353
O19	O	1.002515	1.343572	0.084889
O20	O	1.002517	1.343570	-0.299867
O21	O	0.684616	1.343581	0.084875
O22	O	1.180227	0.913390	0.299983
O23	O	1.180229	0.913388	-0.084773
O24	O	0.862328	0.913399	0.299969
O25	O	1.180230	1.128477	-0.084771
O26	O	1.002513	1.128484	0.299977
O27	O	0.862328	1.128488	0.299971
O28	O	1.180229	1.128477	0.084895
O29	O	0.862333	1.513240	-0.299872
O30	O	1.002512	0.743729	0.299974
O31	O	1.180227	0.743724	0.299982
O32	O	1.180228	0.743723	0.084892
O33	O	0.684617	1.513246	-0.084790
O34	O	0.862332	1.513241	-0.084782
O35	O	0.984730	1.001864	0.189982
O36	O	1.089349	1.001860	0.063367
O37	O	0.984732	1.255102	-0.063256
O38	O	0.880113	1.255106	0.063360
C39	C	0.932421	0.790008	0.000048
C40	C	0.932421	0.675132	0.000047
C41	C	0.652760	1.128492	0.000038
C42	C	0.557846	1.128495	0.000034
C43	C	0.480764	1.128499	0.000036
C44	C	0.384066	1.128491	0.000050
C45	C	1.212085	1.128476	0.000063
C46	C	1.306999	1.128473	0.000067
C47	C	0.932424	1.128482	-0.338427
C48	C	0.932425	1.128482	-0.453303
C49	C	0.932423	1.466961	0.000054
C50	C	0.932424	1.581836	0.000055
C51	C	0.932420	1.128486	0.338528
C52	C	0.932420	1.128487	0.453404
C53	C	1.212084	0.790000	0.000060
C54	C	1.306998	0.675121	0.000064
C55	C	0.932419	0.790010	0.338525
C56	C	0.932418	0.675134	0.453401
C57	C	1.212082	0.790002	0.338538
C58	C	1.306995	0.675124	0.453417
C59	C	0.652763	1.466967	-0.338436
C60	C	0.557850	1.581845	-0.453316
C61	C	0.652761	1.466969	0.000041
C62	C	0.557847	1.581847	0.000038
C63	C	0.932425	1.466959	-0.338424
C64	C	0.932426	1.581834	-0.453299
C65	C	1.296962	0.621174	-0.066043
C66	C	1.386135	0.513249	-0.066065
C67	C	1.485344	0.459264	0.000027
C68	C	1.495379	0.513222	0.066136
C69	C	1.406206	0.621153	0.066150
C70	C	1.406187	0.621174	0.441274
C71	C	1.495377	0.513249	0.549205
C72	C	1.485373	0.459268	0.669278
C73	C	1.386171	0.513229	0.681419
C74	C	1.296983	0.621159	0.573489
C75	C	0.458658	1.635808	-0.441172
C76	C	0.369468	1.743766	-0.549103
C77	C	0.379472	1.797753	-0.669176
C78	C	0.478674	1.743785	-0.681317
C79	C	0.567862	1.635836	-0.573388
C80	C	0.567883	1.635805	0.066134
C81	C	0.478710	1.743761	0.066126
C82	C	0.379501	1.797749	0.000030
C83	C	0.369466	1.743786	-0.066074
C84	C	0.458639	1.635840	-0.066073
H85	H	1.216189	0.665127	-0.119879
H86	H	0.486900	1.787679	0.119960
H87	H	0.450453	1.591910	-0.119892
H88	H	1.557946	0.371379	0.000007
H89	H	1.377945	0.469329	-0.119899
H90	H	1.576144	0.469325	0.539297
H91	H	1.558004	0.371384	0.757151
H92	H	0.486807	1.787755	-0.779094
H93	H	1.576166	0.469253	0.119946
Br94	Br	0.702476	1.562606	-0.589891
H95	H	1.414392	0.665063	0.119989
H96	H	0.306841	1.885651	-0.757050
Br97	Br	1.162369	0.694357	0.589993
H98	H	0.306899	1.885645	0.000039
Br99	Br	0.445052	1.562560	-0.278229
H100	H	1.414352	0.665109	0.343514
Br101	Br	0.234850	1.816982	-0.532596
Br102	Br	0.702513	1.562565	0.155842
H103	H	0.288678	1.787760	-0.119888
H104	H	1.378041	0.469262	0.779197
