data_functionalizedCrystal
_audit_creation_method	'MofGen! by Chris Wilmer'
_symmetry_space_group_name_H-M	'P1'
_symmetry_Int_Tables_number	1
_symmetry_cell_setting	triclinic
loop_
_symmetry_equiv_pos_as_xyz
  x,y,z
_cell_length_a	10.686220
_cell_length_b	29.839131
_cell_length_c	10.685880
_cell_angle_alpha	94.334932
_cell_angle_beta	89.641569
_cell_angle_gamma	94.423467
loop_
_atom_site_label
_atom_site_type_symbol
_atom_site_fract_x
_atom_site_fract_y
_atom_site_fract_z
Zn1	Zn	1.972071	-0.140242	-0.562341
Zn2	Zn	1.955762	-0.210103	-0.352573
Zn3	Zn	1.746200	-0.141157	-0.368663
Zn4	Zn	1.762165	-0.221522	-0.578342
O5	O	1.859049	-0.178256	-0.465480
O6	O	2.145457	-0.144347	-0.521085
O7	O	1.914457	-0.196561	-0.179167
O8	O	1.776306	-0.078166	-0.394393
O9	O	2.133475	-0.195673	-0.366969
O10	O	1.942253	-0.077493	-0.536687
O11	O	1.760492	-0.145907	-0.190989
O12	O	1.572768	-0.156980	-0.409908
O13	O	1.803516	-0.215136	-0.751760
O14	O	1.584497	-0.216024	-0.563958
O15	O	1.957734	-0.155420	-0.740004
O16	O	1.929937	-0.274488	-0.382484
O17	O	1.787702	-0.282877	-0.548356
C18	C	1.533115	-0.187841	-0.490416
C19	C	1.393681	-0.191953	-0.501114
C20	C	1.858818	-0.294984	-0.465435
C21	C	1.858837	-0.344918	-0.465449
C22	C	1.933266	-0.650174	-0.379217
C23	C	1.933425	-0.837844	-0.379253
O24	O	1.996524	-0.858382	-0.305901
N25	N	1.859317	-0.865693	-0.465555
C26	C	1.785170	-0.846622	-0.551858
O27	O	1.722150	-0.874616	-0.625272
C28	C	1.785019	-0.658953	-0.551826
C29	C	1.859122	-0.631106	-0.465511
C30	C	2.007365	-0.622327	-0.292909
C31	C	2.007319	-0.575413	-0.292897
C32	C	1.933175	-0.556345	-0.379191
C33	C	1.859077	-0.584191	-0.465498
C34	C	1.710880	-0.639883	-0.638135
C35	C	1.710852	-0.592962	-0.638121
C36	C	1.784955	-0.565115	-0.551806
C37	C	1.784887	-0.518209	-0.551780
N38	N	1.858996	-0.490360	-0.465479
C39	C	1.933139	-0.509428	-0.379184
C40	C	1.785253	-0.945151	-0.551867
C41	C	1.785289	-0.992068	-0.551874
C42	C	1.933545	-0.983286	-0.379270
C43	C	1.933502	-0.936368	-0.379259
C44	C	1.859361	-0.917301	-0.465566
C45	C	1.933037	-0.410904	-0.379163
C46	C	1.932981	-0.363986	-0.379155
C47	C	1.784730	-0.372772	-0.551762
C48	C	1.784780	-0.419686	-0.551767
C49	C	1.858944	-0.438750	-0.465462
O50	O	1.721832	-0.497640	-0.625103
O51	O	1.996171	-0.481426	-0.305800
C52	C	1.933312	-0.697088	-0.379229
C53	C	1.859214	-0.724935	-0.465537
C54	C	1.785070	-0.705867	-0.551831
C55	C	1.859249	-0.771852	-0.465543
C56	C	1.933393	-0.790920	-0.379249
C57	C	2.007501	-0.763071	-0.292948
C58	C	2.007456	-0.716156	-0.292935
C59	C	1.710962	-0.733716	-0.638132
C60	C	1.711012	-0.780631	-0.638137
C61	C	1.785156	-0.799699	-0.551843
C62	C	2.186257	-0.168634	-0.440447
C63	C	2.325693	-0.164534	-0.429779
C64	C	1.884225	-0.186449	-0.792670
C65	C	1.894953	-0.189941	-0.932099
C66	C	1.859318	-0.061072	-0.465550
C67	C	1.859432	-0.011135	-0.465580
C68	C	1.834044	-0.170060	-0.139557
C69	C	1.823559	-0.166435	-0.000111
H70	H	1.345210	-0.218577	-0.570369
H71	H	1.964293	-0.212739	-0.980544
H72	H	1.754218	-0.143640	-0.951672
C73	C	1.390462	-0.129102	-0.337347
C74	C	1.459462	-0.150287	-0.251138
C75	C	1.519164	-0.117661	-0.165980
H76	H	1.329251	-0.112434	-0.293896
H77	H	1.445389	-0.109272	-0.381515
H78	H	1.404539	-0.170109	-0.206974
H79	H	1.520693	-0.166952	-0.294552
H80	H	1.574092	-0.097831	-0.210148
H81	H	1.457945	-0.100995	-0.122539
H82	H	1.565997	-0.132030	-0.107484
C83	C	2.013577	-0.333828	-0.285380
C84	C	2.078544	-0.360573	-0.209837
C85	C	2.152811	-0.332809	-0.123455
H86	H	1.961542	-0.315584	-0.234223
H87	H	2.071943	-0.315100	-0.329192
H88	H	2.020185	-0.379293	-0.166029
H89	H	2.130602	-0.378816	-0.260960
H90	H	2.211177	-0.314081	-0.167267
H91	H	2.100767	-0.314567	-0.072306
H92	H	2.196909	-0.350951	-0.072196
H93	H	1.993431	-0.426421	-0.308889
H94	H	2.067664	-0.552742	-0.222615
H95	H	2.067748	-0.637846	-0.222637
H96	H	1.993917	-0.998819	-0.309006
C97	C	2.014096	-0.906212	-0.285492
C98	C	2.079049	-0.932959	-0.209943
C99	C	2.153321	-0.905198	-0.123560
H100	H	1.962065	-0.887966	-0.234338
H101	H	2.072470	-0.887487	-0.329303
H102	H	2.020682	-0.951676	-0.166136
H103	H	2.131103	-0.951205	-0.261063
H104	H	2.211695	-0.886473	-0.167371
H105	H	2.101281	-0.886952	-0.072415
H106	H	2.197410	-0.923341	-0.072298
H107	H	1.724934	-1.014737	-0.622150
H108	H	1.724875	-0.929630	-0.622151
C109	C	1.630392	-0.670033	-0.731997
C110	C	1.565494	-0.643282	-0.807583
C111	C	1.491346	-0.671039	-0.894082
H112	H	1.571979	-0.688776	-0.688316
H113	H	1.682539	-0.688260	-0.783101
H114	H	1.513351	-0.625062	-0.756486
H115	H	1.623875	-0.624539	-0.851293
H116	H	1.543494	-0.689267	-0.945186
H117	H	1.432942	-0.689782	-0.850390
H118	H	1.447314	-0.652893	-0.945384
C119	C	1.704337	-0.352121	-0.645656
C120	C	1.741113	-0.365822	-0.767708
C121	C	1.667086	-0.346811	-0.854244
H122	H	1.714874	-0.320191	-0.633458
H123	H	1.618630	-0.361870	-0.633776
H124	H	1.826800	-0.356071	-0.779583
H125	H	1.730571	-0.397749	-0.779946
H126	H	1.581379	-0.356559	-0.842364
H127	H	1.677629	-0.314881	-0.842034
H128	H	1.692020	-0.356107	-0.937066
H129	H	1.650479	-0.577441	-0.708407
C130	C	1.704528	-0.449977	-0.645526
C131	C	1.781713	-0.476805	-0.720546
C132	C	1.707836	-0.504716	-0.806928
H133	H	1.660339	-0.431956	-0.697038
H134	H	1.646256	-0.468740	-0.601715
H135	H	1.839963	-0.458044	-0.764355
H136	H	1.825901	-0.494835	-0.669069
H137	H	1.649564	-0.523479	-0.763116
H138	H	1.663651	-0.486691	-0.858431
H139	H	1.760193	-0.522924	-0.857831
C140	C	2.088053	-0.686002	-0.199167
C141	C	2.153011	-0.712751	-0.123630
C142	C	2.227288	-0.684992	-0.037245
H143	H	2.036025	-0.667757	-0.148006
H144	H	2.146425	-0.667276	-0.242978
H145	H	2.094647	-0.731469	-0.079822
H146	H	2.205062	-0.730996	-0.174756
H147	H	2.285660	-0.666265	-0.081056
H148	H	2.175251	-0.666748	0.013907
H149	H	2.271380	-0.703137	0.014010
C150	C	2.088211	-0.783795	-0.199471
C151	C	2.174065	-0.810089	-0.264465
C152	C	2.248463	-0.829182	-0.178414
H153	H	2.036252	-0.802201	-0.148396
H154	H	2.132422	-0.760502	-0.148096
H155	H	2.129858	-0.833380	-0.315818
H156	H	2.226052	-0.791694	-0.315535
H157	H	2.292674	-0.805888	-0.127040
H158	H	2.196494	-0.847585	-0.127344
H159	H	2.306731	-0.847021	-0.222500
H160	H	1.650658	-0.803301	-0.708425
H161	H	1.650587	-0.718196	-0.708405
