data_functionalizedCrystal
_audit_creation_method	'MofGen! by Chris Wilmer'
_symmetry_space_group_name_H-M	'P1'
_symmetry_Int_Tables_number	1
_symmetry_cell_setting	triclinic
loop_
_symmetry_equiv_pos_as_xyz
  x,y,z
_cell_length_a	14.908742
_cell_length_b	13.897447
_cell_length_c	13.897441
_cell_angle_alpha	89.970673
_cell_angle_beta	93.280977
_cell_angle_gamma	86.726005
loop_
_atom_site_label
_atom_site_type_symbol
_atom_site_fract_x
_atom_site_fract_y
_atom_site_fract_z
Zn1	Zn	1.379176	-0.469028	-0.460135
Zn2	Zn	1.379072	-0.630343	-0.298846
Zn3	Zn	1.228313	-0.459768	-0.308179
Zn4	Zn	1.228291	-0.620979	-0.469419
O5	O	1.303713	-0.545030	-0.384145
O6	O	1.505402	-0.498222	-0.430948
O7	O	1.359040	-0.607760	-0.165105
O8	O	1.248378	-0.326018	-0.328356
O9	O	1.505325	-0.616739	-0.312450
O10	O	1.359217	-0.332821	-0.439998
O11	O	1.248278	-0.482439	-0.171961
O12	O	1.102071	-0.473358	-0.337359
O13	O	1.248341	-0.600779	-0.603167
O14	O	1.102055	-0.591799	-0.455822
O15	O	1.359195	-0.489141	-0.596346
O16	O	1.359018	-0.764080	-0.321453
O17	O	1.248240	-0.757199	-0.446772
C18	C	1.069331	-0.530558	-0.398611
C19	C	0.969061	-0.524391	-0.404823
C20	C	0.827771	-0.454101	-0.475363
C21	C	0.921984	-0.459888	-0.469531
C22	C	0.921920	-0.583113	-0.345944
C23	C	0.827707	-0.577327	-0.351776
C24	C	0.780636	-0.512817	-0.416486
C25	C	0.686422	-0.507027	-0.422312
C26	C	0.686360	-0.630256	-0.298731
C27	C	0.780572	-0.636043	-0.292900
C28	C	1.303640	-0.795639	-0.384127
C29	C	1.303691	-0.902856	-0.384147
C30	C	1.303735	-0.989929	-0.384166
C31	C	1.303798	-1.099165	-0.384187
C32	C	1.539011	-0.559558	-0.369622
C33	C	1.639281	-0.565749	-0.363434
C34	C	1.303777	-0.544948	-0.635734
C35	C	1.303805	-0.544914	-0.742946
C36	C	1.303812	-0.293443	-0.384182
C37	C	1.303853	-0.186231	-0.384198
C38	C	1.303829	-0.544850	-0.939240
C39	C	1.303813	-0.544888	-0.830009
C40	C	1.303702	-0.545044	-0.133531
C41	C	1.303849	-0.544818	-0.026309
H42	H	0.960261	-0.635636	-0.293263
H43	H	0.648099	-0.454496	-0.474999
C44	C	0.775987	-0.383142	-0.546531
H45	H	0.713126	-0.388101	-0.541566
H46	H	0.791450	-0.398277	-0.610361
H47	H	0.791428	-0.319262	-0.531556
H48	H	0.818910	-0.688566	-0.240217
H49	H	0.960358	-0.412075	-0.517474
C50	C	0.634510	-0.694853	-0.233972
H51	H	0.571658	-0.682175	-0.246715
H52	H	0.649925	-0.681612	-0.168231
H53	H	0.649949	-0.760631	-0.247033
