data_functionalizedCrystal
_audit_creation_method	'MofGen! by Chris Wilmer'
_symmetry_space_group_name_H-M	'P1'
_symmetry_Int_Tables_number	1
_symmetry_cell_setting	triclinic
loop_
_symmetry_equiv_pos_as_xyz
  x,y,z
_cell_length_a	14.044191
_cell_length_b	9.016244
_cell_length_c	14.044220
_cell_angle_alpha	89.997102
_cell_angle_beta	86.809673
_cell_angle_gamma	90.005095
loop_
_atom_site_label
_atom_site_type_symbol
_atom_site_fract_x
_atom_site_fract_y
_atom_site_fract_z
O1	O	1.277177	0.123275	-0.230196
O2	O	1.777177	0.623275	0.269804
O3	O	1.000504	0.123294	-0.221884
O4	O	1.500504	0.623294	0.278116
O5	O	1.134687	0.123270	-0.087704
O6	O	1.634687	0.623270	0.412296
O7	O	1.142993	0.123299	-0.364376
O8	O	1.642993	0.623299	0.135624
O9	O	1.134666	-0.123411	-0.087706
O10	O	1.634666	0.376589	0.412294
O11	O	1.000483	-0.123387	-0.221885
O12	O	1.500483	0.376613	0.278115
O13	O	1.277155	-0.123406	-0.230198
O14	O	1.777155	0.376594	0.269802
Cu15	Cu	1.138817	-0.145920	-0.226042
Cu16	Cu	1.638817	0.354080	0.273958
Cu17	Cu	1.138842	0.145808	-0.226040
Cu18	Cu	1.638842	0.645808	0.273960
O19	O	1.142972	-0.123382	-0.364377
O20	O	1.642972	0.376618	0.135623
C21	C	0.964872	-0.000044	-0.218248
C22	C	1.464872	0.499956	0.281752
C23	C	0.858728	-0.000038	-0.207401
C24	C	1.358728	0.499962	0.292599
N25	N	1.138807	-0.351106	-0.226043
N26	N	1.638807	0.148894	0.273957
C27	C	0.613270	-0.000047	-0.264501
C28	C	1.113270	0.499953	0.235499
C29	C	0.664395	-0.000052	-0.187585
C30	C	1.164395	0.499948	0.312415
C31	C	0.772532	-0.000044	-0.198613
C32	C	1.272532	0.499956	0.301387
C33	C	0.505123	-0.000055	-0.253474
C34	C	1.005123	0.499945	0.246526
C35	C	1.066769	-0.586126	-0.297542
C36	C	1.566769	-0.086126	0.202458
C37	C	1.066964	-0.414235	-0.297845
C38	C	1.566964	0.085765	0.202155
C39	C	1.240264	-0.413449	-0.256228
C40	C	1.740264	0.086551	0.243772
C41	C	1.239881	-0.585394	-0.256743
C42	C	1.739881	-0.085394	0.243257
C43	C	1.110357	-0.585659	-0.124181
C44	C	1.610357	-0.085659	0.375819
C45	C	1.108118	-0.413704	-0.124658
C46	C	1.608118	0.086296	0.375342
C47	C	1.312788	-0.000064	-0.233834
C48	C	1.812788	0.499936	0.266166
C49	C	1.418931	-0.000061	-0.244681
C50	C	1.918931	0.499939	0.255319
C51	C	1.131041	-0.000071	-0.052083
C52	C	1.631041	0.499929	0.447917
C53	C	1.120197	-0.000072	0.054060
C54	C	1.620197	0.499928	0.554060
N55	N	1.138860	0.350995	-0.226032
N56	N	1.638860	0.850995	0.273968
C57	C	1.146618	-0.000038	-0.399998
C58	C	1.646618	0.499962	0.100002
C59	C	1.157463	-0.000027	-0.506142
C60	C	1.657463	0.499973	-0.006142
C61	C	1.100370	-0.000049	0.248398
C62	C	1.600370	0.499951	0.748398
C63	C	1.177285	-0.000050	0.299526
C64	C	1.677285	0.499950	0.799526
C65	C	1.166253	-0.000037	0.407663
C66	C	1.666253	0.499963	0.907663
C67	C	1.111400	-0.000062	0.140252
C68	C	1.611400	0.499938	0.640252
H69	H	0.626952	0.000045	-0.113452
H70	H	1.126952	0.500045	0.386548
O71	O	1.271448	-0.638504	-0.355471
O72	O	1.771448	-0.138504	0.144529
H73	H	1.221550	-0.595962	-0.407631
H74	H	1.721550	-0.095962	0.092369
O75	O	0.662856	-0.000017	-0.362696
O76	O	1.162856	0.499983	0.137304
H77	H	0.741240	0.000002	-0.356056
H78	H	1.241240	0.500002	0.143944
O79	O	1.313481	-0.359282	-0.189543
O80	O	1.813481	0.140718	0.310457
H81	H	1.384509	-0.404906	-0.212428
H82	H	1.884509	0.095094	0.287572
O83	O	0.967427	-0.358386	-0.272396
O84	O	1.467427	0.141614	0.227604
H85	H	0.918717	-0.454192	-0.259765
H86	H	1.418717	0.045808	0.240235
O87	O	0.966943	-0.640967	-0.272350
O88	O	1.466943	-0.140967	0.227650
H89	H	0.967639	-0.713634	-0.208596
H90	H	1.467639	-0.213634	0.291404
O91	O	1.002175	-0.000046	0.297983
O92	O	1.502175	0.499954	0.797983
H93	H	0.962846	-0.100589	0.276976
H94	H	1.462846	0.399411	0.776976
H95	H	1.251419	0.000045	0.262085
H96	H	1.751419	0.500045	0.762085
O97	O	1.091753	-0.643309	-0.396858
O98	O	1.591753	-0.143309	0.103142
H99	H	1.155294	-0.716316	-0.395511
H100	H	1.655294	-0.216316	0.104489
O101	O	1.092231	-0.359701	-0.397725
O102	O	1.592231	0.140299	0.102275
H103	H	1.104369	-0.456141	-0.445997
H104	H	1.604369	0.043859	0.054003
H105	H	1.295648	-0.626985	-0.207163
H106	H	1.795648	-0.126985	0.292837
H107	H	1.264440	-0.370365	-0.329968
H108	H	1.764440	0.129635	0.170032
H109	H	1.037530	-0.629104	-0.097247
H110	H	1.537530	-0.129104	0.402753
H111	H	1.033442	-0.372960	-0.101947
H112	H	1.533442	0.127040	0.398053
H113	H	1.156562	-0.370738	-0.068299
H114	H	1.656562	0.129262	0.431701
H115	H	1.162831	-0.626320	-0.070866
H116	H	1.662831	-0.126320	0.429134
