data_functionalizedCrystal
_audit_creation_method	'MofGen! by Chris Wilmer'
_symmetry_space_group_name_H-M	'P1'
_symmetry_Int_Tables_number	1
_symmetry_cell_setting	triclinic
loop_
_symmetry_equiv_pos_as_xyz
  x,y,z
_cell_length_a	13.033291
_cell_length_b	12.594516
_cell_length_c	13.032268
_cell_angle_alpha	97.151307
_cell_angle_beta	89.079236
_cell_angle_gamma	97.181953
loop_
_atom_site_label
_atom_site_type_symbol
_atom_site_fract_x
_atom_site_fract_y
_atom_site_fract_z
Zn1	Zn	1.498494	-0.331139	-0.781497
Zn2	Zn	1.520251	-0.484096	-0.609531
Zn3	Zn	1.348353	-0.325519	-0.587672
Zn4	Zn	1.326506	-0.528466	-0.759574
O5	O	1.423401	-0.417305	-0.684569
O6	O	1.645297	-0.335212	-0.777008
O7	O	1.515697	-0.442139	-0.462722
O8	O	1.368308	-0.177317	-0.613411
O9	O	1.661282	-0.447589	-0.650666
O10	O	1.478615	-0.181446	-0.755813
O11	O	1.389405	-0.325633	-0.446663
O12	O	1.201538	-0.368657	-0.592153
O13	O	1.331071	-0.523212	-0.906391
O14	O	1.185486	-0.517762	-0.718448
O15	O	1.457430	-0.378236	-0.922498
O16	O	1.494512	-0.638929	-0.629408
O17	O	1.352168	-0.671528	-0.739643
C18	C	1.156196	-0.447415	-0.650550
C19	C	1.041881	-0.460326	-0.636021
C20	C	0.864847	-0.423929	-0.677144
C21	C	0.982997	-0.410587	-0.692159
C22	C	1.423355	-0.693849	-0.684545
C23	C	1.423426	-0.812150	-0.684581
C24	C	1.500917	-0.863635	-0.624707
C25	C	1.514123	-0.945179	-0.721765
C26	C	1.410341	-0.941399	-0.587599
C27	C	1.436673	-0.892136	-0.781694
C28	C	1.332856	-0.888347	-0.647459
C29	C	1.346018	-0.969872	-0.744577
C30	C	1.691649	-0.387078	-0.718721
C31	C	1.805960	-0.374197	-0.733274
C32	C	1.389387	-0.456300	-0.952802
C33	C	1.374892	-0.472918	-1.067107
C34	C	1.423471	-0.139681	-0.684619
C35	C	1.423502	-0.021375	-0.684640
C36	C	1.430950	-0.408596	-1.126038
C37	C	1.415970	-0.425769	-1.244178
C38	C	1.457342	-0.378378	-0.417386
C39	C	1.472035	-0.361438	-0.303107
H40	H	1.004832	-0.512784	-0.576844
H41	H	0.827792	-0.476377	-0.617967
O42	O	1.615614	-0.978562	-0.763408
H43	H	1.679787	-0.935506	-0.713560
O44	O	1.032060	-0.341098	-0.770549
H45	H	1.117159	-0.341529	-0.770047
O46	O	1.337696	-0.515558	-1.293191
H47	H	1.298905	-0.560057	-1.232051
O48	O	1.550308	-0.271647	-1.254097
H49	H	1.589088	-0.227140	-1.315237
O50	O	1.296619	-0.562703	-1.116116
H51	H	1.336471	-0.618739	-1.170906
O52	O	0.855027	-0.304705	-0.811655
H53	H	0.897351	-0.354533	-0.870082
O54	O	1.587714	-0.802605	-0.557707
H55	H	1.662836	-0.825209	-0.588790
H56	H	1.447686	-0.870294	-0.863794
H57	H	1.490029	-0.340810	-1.089027
H58	H	1.280510	-1.015752	-0.795303
H59	H	1.256258	-0.863120	-0.616005
O60	O	1.395620	-0.970530	-0.478927
H61	H	1.460006	-0.927463	-0.429365
