data_functionalizedCrystal
_audit_creation_method	'MofGen! by Chris Wilmer'
_symmetry_space_group_name_H-M	'P1'
_symmetry_Int_Tables_number	1
_symmetry_cell_setting	triclinic
loop_
_symmetry_equiv_pos_as_xyz
  x,y,z
_cell_length_a	18.050589
_cell_length_b	18.050591
_cell_length_c	12.759393
_cell_angle_alpha	90.017879
_cell_angle_beta	89.969379
_cell_angle_gamma	89.971884
loop_
_atom_site_label
_atom_site_type_symbol
_atom_site_fract_x
_atom_site_fract_y
_atom_site_fract_z
Zn1	Zn	-0.295618	-1.135342	-0.593971
Zn2	Zn	-0.419828	-1.135238	-0.418294
Zn3	Zn	-0.295656	-1.011147	-0.418312
Zn4	Zn	-0.419770	-1.011109	-0.593937
O5	O	-0.357718	-1.073209	-0.506129
O6	O	-0.312103	-1.239253	-0.570673
O7	O	-0.403396	-1.118749	-0.271275
O8	O	-0.191726	-1.027681	-0.441635
O9	O	-0.403359	-1.239177	-0.441604
O10	O	-0.191698	-1.118927	-0.570691
O11	O	-0.312168	-1.027580	-0.271289
O12	O	-0.312112	-0.907217	-0.441603
O13	O	-0.403261	-1.027617	-0.740963
O14	O	-0.403298	-0.907190	-0.570634
O15	O	-0.312047	-1.118890	-0.740988
O16	O	-0.523745	-1.118713	-0.441572
O17	O	-0.523702	-1.027516	-0.570616
C18	C	-0.357703	-0.880257	-0.506117
C19	C	-0.357715	-0.797711	-0.506137
C20	C	-0.407409	-0.548892	-0.576205
C21	C	-0.425494	-0.598254	-0.480312
C22	C	-0.357744	-0.500591	-0.506131
C23	C	-0.339680	-0.598311	-0.602022
C24	C	-0.357732	-0.646576	-0.506139
C25	C	-0.375864	-0.548865	-0.410187
C26	C	-0.290018	-0.548918	-0.531962
C27	C	-0.308077	-0.598257	-0.436002
C28	C	-0.357753	-0.416492	-0.506128
C29	C	-0.357722	-0.730672	-0.506132
C30	C	-0.550670	-1.073119	-0.506111
C31	C	-0.633216	-1.073149	-0.506139
C32	C	-0.832670	-1.023605	-0.576289
C33	C	-0.882119	-1.005499	-0.480421
C34	C	-0.784346	-1.073222	-0.506152
C35	C	-0.881979	-1.091364	-0.602032
C36	C	-0.930331	-1.073291	-0.506174
C37	C	-0.832708	-1.055081	-0.410234
C38	C	-0.832564	-1.140977	-0.531909
C39	C	-0.881990	-1.122897	-0.435975
C40	C	-0.700248	-1.073180	-0.506141
C41	C	-1.014428	-1.073333	-0.506174
C42	C	-0.164012	-1.073319	-0.506169
C43	C	-0.081467	-1.073366	-0.506186
C44	C	-0.357643	-1.073261	-0.780162
C45	C	-0.357611	-1.073283	-0.896939
C46	C	-0.357738	-0.266915	-0.506137
C47	C	-0.357758	-0.349460	-0.506132
C48	C	-0.310111	-1.120816	-0.951815
C49	C	-0.310084	-1.120833	-1.061540
C50	C	-0.405064	-1.025784	-1.061501
C51	C	-0.405086	-1.025763	-0.951779
C52	C	-0.262636	-1.168336	-0.896975
C53	C	-0.215133	-1.215873	-0.951852
C54	C	-0.215106	-1.215891	-1.061576
C55	C	-0.262583	-1.168371	-1.116424
C56	C	-0.357739	-1.073200	-0.233161
C57	C	-0.357562	-1.073322	-0.116385
H58	H	-0.266071	-0.619795	-0.376678
H59	H	-0.903509	-1.164886	-0.376604
O60	O	-0.806606	-1.209256	-0.558110
C61	C	-0.831680	-1.228143	-0.659280
H62	H	-0.845582	-1.175505	-0.704546
H63	H	-0.883309	-1.264199	-0.652701
C64	C	-0.753469	-1.335821	-0.661941
C65	C	-0.770539	-1.271170	-0.717539
H66	H	-0.715757	-1.362365	-0.697877
H67	H	-0.736579	-1.323099	-0.593778
H68	H	-0.796499	-1.365859	-0.656462
H69	H	-0.727512	-1.241129	-0.723006
H70	H	-0.787421	-1.283888	-0.785704
H71	H	-0.903623	-1.106682	-0.683107
O72	O	-0.394192	-0.522947	-0.313493
C73	C	-0.393991	-0.444841	-0.314662
H74	H	-0.402316	-0.424410	-0.398365
H75	H	-0.338695	-0.423711	-0.283583
C76	C	-0.446996	-0.440761	-0.142049
C77	C	-0.457228	-0.415667	-0.244853
H78	H	-0.486001	-0.422763	-0.098984
H79	H	-0.447129	-0.493382	-0.141259
H80	H	-0.400914	-0.423150	-0.116163
H81	H	-0.503304	-0.433285	-0.270740
H82	H	-0.457104	-0.363048	-0.245645
O83	O	-0.493807	-0.624202	-0.454385
C84	C	-0.521386	-0.668247	-0.536867
H85	H	-0.473210	-0.689935	-0.585884
H86	H	-0.559533	-0.633485	-0.588351
C87	C	-0.624231	-0.707384	-0.431001
C88	C	-0.565060	-0.734026	-0.491199
H89	H	-0.651175	-0.747958	-0.402832
H90	H	-0.605653	-0.677707	-0.375432
H91	H	-0.656012	-0.678415	-0.473913
H92	H	-0.533276	-0.762987	-0.448283
H93	H	-0.583635	-0.763709	-0.546759
H94	H	-0.262654	-1.168329	-0.807633
O95	O	-0.221740	-0.523070	-0.558244
C96	C	-0.202907	-0.548234	-0.659435
H97	H	-0.255568	-0.562095	-0.704637
H98	H	-0.166867	-0.599909	-0.652892
C99	C	-0.095200	-0.470172	-0.662228
C100	C	-0.159881	-0.487190	-0.717749
H101	H	-0.068657	-0.432520	-0.698198
H102	H	-0.107887	-0.453220	-0.594052
H103	H	-0.065176	-0.513239	-0.656780
H104	H	-0.189908	-0.444126	-0.723185
H105	H	-0.147198	-0.504133	-0.785927
H106	H	-0.443716	-0.987096	-1.106166
O107	O	-0.806863	-0.973377	-0.646829
C108	C	-0.832134	-0.902054	-0.619298
H109	H	-0.846028	-0.900693	-0.532152
H110	H	-0.883809	-0.888134	-0.666715
C111	C	-0.754098	-0.846456	-0.749925
C112	C	-0.771157	-0.844783	-0.642889
H113	H	-0.716487	-0.811128	-0.764481
H114	H	-0.737074	-0.894508	-0.768476
H115	H	-0.797166	-0.834858	-0.789426
H116	H	-0.728092	-0.856389	-0.603390
H117	H	-0.788172	-0.796731	-0.624331
O118	O	-0.451265	-0.979702	-0.898339
C119	C	-0.499252	-1.021957	-0.834878
H120	H	-0.473063	-1.078250	-0.818475
H121	H	-0.554283	-1.030089	-0.877137
C122	C	-0.544874	-0.911943	-0.750780
C123	C	-0.512705	-0.981081	-0.730625
H124	H	-0.553175	-0.886728	-0.686473
H125	H	-0.512546	-0.883475	-0.793536
H126	H	-0.590730	-0.918730	-0.785998
H127	H	-0.466846	-0.974293	-0.695420
H128	H	-0.545025	-1.009547	-0.687859
O129	O	-0.168977	-1.261924	-0.898465
C130	C	-0.121009	-1.219659	-0.835027
H131	H	-0.147201	-1.163361	-0.818573
H132	H	-0.065964	-1.211536	-0.877331
C133	C	-0.075416	-1.329657	-0.751022
C134	C	-0.107589	-1.260513	-0.730805
H135	H	-0.067135	-1.354859	-0.686735
H136	H	-0.107731	-1.358133	-0.793763
H137	H	-0.029549	-1.322878	-0.786278
H138	H	-0.153459	-1.267293	-0.695562
H139	H	-0.075282	-1.232039	-0.688055
H140	H	-0.324406	-0.620029	-0.683112
H141	H	-0.176422	-1.254592	-1.106254
O142	O	-0.908216	-0.937233	-0.454403
C143	C	-0.986316	-0.938396	-0.453875
H144	H	-1.006419	-0.997634	-0.441716
H145	H	-1.007948	-0.916619	-0.531942
C146	C	-0.990559	-0.816302	-0.379198
C147	C	-1.015251	-0.889060	-0.364255
H148	H	-1.008409	-0.785867	-0.323920
H149	H	-0.937942	-0.815517	-0.379557
H150	H	-1.008588	-0.798165	-0.444257
H151	H	-0.997215	-0.907199	-0.299203
H152	H	-1.067867	-0.889847	-0.363882
O153	O	-0.806876	-1.036704	-0.313558
C154	C	-0.728770	-1.036877	-0.314718
H155	H	-0.708296	-1.028576	-0.398428
H156	H	-0.707585	-1.092153	-0.283577
C157	C	-0.724873	-0.983804	-0.142162
C158	C	-0.699726	-0.973603	-0.244974
H159	H	-0.706956	-0.944776	-0.099137
H160	H	-0.777495	-0.983690	-0.141377
H161	H	-0.707217	-1.029870	-0.116225
H162	H	-0.717390	-0.927542	-0.270914
H163	H	-0.647106	-0.973707	-0.245761
H164	H	-0.262548	-1.168381	-1.205769
H165	H	-0.449447	-0.527217	-0.635387
