data_functionalizedCrystal
_audit_creation_method	'MofGen! by Chris Wilmer'
_symmetry_space_group_name_H-M	'P1'
_symmetry_Int_Tables_number	1
_symmetry_cell_setting	triclinic
loop_
_symmetry_equiv_pos_as_xyz
  x,y,z
_cell_length_a	8.559649
_cell_length_b	8.597366
_cell_length_c	14.048226
_cell_angle_alpha	97.695537
_cell_angle_beta	89.995035
_cell_angle_gamma	77.624636
loop_
_atom_site_label
_atom_site_type_symbol
_atom_site_fract_x
_atom_site_fract_y
_atom_site_fract_z
O1	O	0.238018	2.053702	0.089286
O2	O	0.256285	1.594578	0.051628
O3	O	0.015181	1.864589	0.073776
O4	O	0.479122	1.783691	0.067138
O5	O	0.015166	1.864562	0.232095
O6	O	0.256270	1.594551	0.209947
O7	O	0.238003	2.053675	0.247605
Zn8	Zn	0.247134	1.824109	0.253913
Zn9	Zn	0.247153	1.824144	0.045320
O10	O	0.479107	1.783664	0.225457
C11	C	0.254317	1.536331	0.126011
C12	C	0.248456	1.362815	0.111779
C13	C	-0.044261	1.870706	0.153436
C14	C	-0.221356	1.888955	0.154928
C15	C	0.538548	1.777547	0.145795
C16	C	0.715644	1.759298	0.144297
C17	C	0.239970	2.111922	0.173220
C18	C	0.245831	2.285439	0.187446
N19	N	0.247120	1.824096	0.396272
N20	N	0.247155	1.824171	-0.097038
C21	C	0.140404	1.943685	0.455900
C22	C	0.140403	1.943695	0.555558
C23	C	0.247127	1.824122	0.595588
C24	C	0.353848	1.704521	0.535953
C25	C	0.353840	1.704506	0.436296
C26	C	0.353860	1.704565	0.743671
C27	C	0.353871	1.704582	0.843335
C28	C	0.140424	1.943755	0.862933
C29	C	0.140416	1.943739	0.763276
C30	C	0.247139	1.824140	0.703648
H31	H	0.248068	1.351946	0.263127
N32	N	-0.176354	1.593757	0.130733
H33	H	-0.060909	1.603746	0.131551
H34	H	-0.198016	1.533389	0.067095
H35	H	0.440775	1.607212	0.875921
N36	N	-0.329367	2.054505	0.168522
H37	H	-0.444813	2.044520	0.167710
H38	H	-0.307699	2.114884	0.114782
H39	H	0.053504	2.041061	0.423316
N40	N	0.025359	2.072727	0.619876
H41	H	-0.042224	2.148495	0.579397
H42	H	0.087609	2.134574	0.666264
H43	H	0.053521	2.041111	0.730685
N44	N	0.025316	2.072758	0.927240
H45	H	0.041506	2.054625	0.996446
H46	H	-0.088122	2.068316	0.909464
N47	N	0.468959	1.575565	0.679354
H48	H	0.536574	1.499820	0.719833
H49	H	0.540433	1.627021	0.642212
H50	H	0.440739	1.607155	0.568550
N51	N	0.468938	1.575511	0.371984
H52	H	0.582429	1.579896	0.389672
H53	H	0.452600	1.593710	0.302800
N54	N	0.245467	1.274750	0.011533
H55	H	0.241550	1.159126	0.015228
H56	H	0.345038	1.278564	-0.025865
