data_functionalizedCrystal
_audit_creation_method	'MofGen! by Chris Wilmer'
_symmetry_space_group_name_H-M	'P1'
_symmetry_Int_Tables_number	1
_symmetry_cell_setting	triclinic
loop_
_symmetry_equiv_pos_as_xyz
  x,y,z
_cell_length_a	10.686220
_cell_length_b	13.897448
_cell_length_c	10.686551
_cell_angle_alpha	85.592616
_cell_angle_beta	90.308082
_cell_angle_gamma	94.399460
loop_
_atom_site_label
_atom_site_type_symbol
_atom_site_fract_x
_atom_site_fract_y
_atom_site_fract_z
Zn1	Zn	1.972272	-0.235165	-0.562377
Zn2	Zn	1.956032	-0.409754	-0.352612
Zn3	Zn	1.746389	-0.259840	-0.368693
Zn4	Zn	1.762462	-0.407799	-0.578389
O5	O	1.859289	-0.328139	-0.465518
O6	O	2.145660	-0.248816	-0.521120
O7	O	1.914699	-0.401012	-0.179199
O8	O	1.776423	-0.121579	-0.394415
O9	O	2.133728	-0.377086	-0.367006
O10	O	1.942379	-0.103450	-0.536713
O11	O	1.760675	-0.290871	-0.191014
O12	O	1.572979	-0.288976	-0.409942
O13	O	1.803817	-0.373754	-0.751811
O14	O	1.584787	-0.397681	-0.564004
O15	O	1.957964	-0.246920	-0.740047
O16	O	1.930284	-0.544482	-0.382532
O17	O	1.788069	-0.543046	-0.548410
C18	C	1.533367	-0.345794	-0.490456
C19	C	1.393938	-0.353368	-0.501155
C20	C	1.859194	-0.578761	-0.465489
C21	C	1.859272	-0.685969	-0.465509
C22	C	1.859410	-0.882252	-0.465578
C23	C	1.859330	-0.773026	-0.465544
C24	C	2.186483	-0.310416	-0.440483
C25	C	2.325914	-0.302864	-0.429814
C26	C	1.884495	-0.307367	-0.792719
C27	C	1.895236	-0.298514	-0.932152
C28	C	1.859420	-0.076535	-0.465572
C29	C	1.859475	0.030683	-0.465595
C30	C	1.834253	-0.348758	-0.139584
C31	C	1.823755	-0.357325	-0.000133
H32	H	1.374343	-0.253831	-0.360550
H33	H	1.345503	-0.402411	-0.570415
C34	C	1.729972	-0.434496	-0.934663
C35	C	1.624646	-0.403686	-0.852097
C36	C	1.530862	-0.480859	-0.786618
C37	C	1.542404	-0.588842	-0.803705
C38	C	1.647734	-0.619658	-0.886275
C39	C	1.741518	-0.542485	-0.951754
H40	H	1.616099	-0.323746	-0.839445
H41	H	1.452890	-0.458046	-0.725494
H42	H	1.472979	-0.645970	-0.755234
H43	H	1.656281	-0.699598	-0.898927
H44	H	1.819490	-0.565298	-1.012877
H45	H	1.964662	-0.241392	-0.980628
