data_functionalizedCrystal
_audit_creation_method	'MofGen! by Chris Wilmer'
_symmetry_space_group_name_H-M	'P1'
_symmetry_Int_Tables_number	1
_symmetry_cell_setting	triclinic
loop_
_symmetry_equiv_pos_as_xyz
  x,y,z
_cell_length_a	18.215407
_cell_length_b	12.594516
_cell_length_c	18.215399
_cell_angle_alpha	90.023782
_cell_angle_beta	90.019833
_cell_angle_gamma	90.012264
loop_
_atom_site_label
_atom_site_type_symbol
_atom_site_fract_x
_atom_site_fract_y
_atom_site_fract_z
Zn1	Zn	1.125139	-0.423740	0.416137
Zn2	Zn	1.375139	-0.173740	0.666137
Zn3	Zn	1.625139	0.076260	0.916137
Zn4	Zn	1.875139	0.326260	1.166137
Zn5	Zn	1.125075	-0.601738	0.293080
Zn6	Zn	1.375075	-0.351738	0.543080
Zn7	Zn	1.625075	-0.101738	0.793080
Zn8	Zn	1.875075	0.148262	1.043080
Zn9	Zn	1.002071	-0.423775	0.293085
Zn10	Zn	1.252071	-0.173775	0.543085
Zn11	Zn	1.502071	0.076225	0.793085
Zn12	Zn	1.752071	0.326225	1.043085
Zn13	Zn	1.002065	-0.601679	0.416105
Zn14	Zn	1.252065	-0.351679	0.666105
Zn15	Zn	1.502065	-0.101679	0.916105
Zn16	Zn	1.752065	0.148321	1.166105
O17	O	1.063588	-0.512733	0.354602
O18	O	1.313588	-0.262733	0.604602
O19	O	1.563588	-0.012733	0.854602
O20	O	1.813588	0.237267	1.104602
O21	O	1.228115	-0.447362	0.399825
O22	O	1.478115	-0.197362	0.649825
O23	O	1.728115	0.052638	0.899825
O24	O	1.978115	0.302638	1.149825
O25	O	1.108734	-0.578170	0.190096
O26	O	1.358734	-0.328170	0.440096
O27	O	1.608734	-0.078170	0.690096
O28	O	1.858734	0.171830	0.940096
O29	O	1.018426	-0.274825	0.309423
O30	O	1.268426	-0.024825	0.559423
O31	O	1.518426	0.225175	0.809423
O32	O	1.768426	0.475175	1.059423
O33	O	1.228068	-0.578136	0.309415
O34	O	1.478068	-0.328136	0.559415
O35	O	1.728068	-0.078136	0.809415
O36	O	1.978068	0.171864	1.059415
O37	O	1.108843	-0.274799	0.399830
O38	O	1.358843	-0.024799	0.649830
O39	O	1.608843	0.225201	0.899830
O40	O	1.858843	0.475201	1.149830
O41	O	1.018364	-0.447422	0.190100
O42	O	1.268364	-0.197422	0.440100
O43	O	1.518364	0.052578	0.690100
O44	O	1.768364	0.302578	0.940100
O45	O	0.899086	-0.447364	0.309392
O46	O	1.149086	-0.197364	0.559392
O47	O	1.399086	0.052636	0.809392
O48	O	1.649086	0.302636	1.059392
O49	O	1.018415	-0.578035	0.519093
O50	O	1.268415	-0.328035	0.769093
O51	O	1.518415	-0.078035	1.019093
O52	O	1.768415	0.171965	1.269093
O53	O	0.899082	-0.578069	0.399774
O54	O	1.149082	-0.328069	0.649774
O55	O	1.399082	-0.078069	0.899774
O56	O	1.649082	0.171931	1.149774
O57	O	1.108837	-0.447305	0.519117
O58	O	1.358837	-0.197305	0.769117
O59	O	1.608837	0.052695	1.019117
O60	O	1.858837	0.302695	1.269117
O61	O	1.108729	-0.750676	0.309384
O62	O	1.358729	-0.500676	0.559384
O63	O	1.608729	-0.250676	0.809384
O64	O	1.858729	-0.000676	1.059384
O65	O	1.018354	-0.750632	0.399770
O66	O	1.268354	-0.500632	0.649770
O67	O	1.518354	-0.250632	0.899770
O68	O	1.768354	-0.000632	1.149770
C69	C	0.872381	-0.512715	0.354580
C70	C	1.122381	-0.262715	0.604580
C71	C	1.372381	-0.012715	0.854580
C72	C	1.622381	0.237285	1.104580
C73	C	0.790583	-0.512733	0.354589
C74	C	1.040583	-0.262733	0.604589
C75	C	1.290583	-0.012733	0.854589
C76	C	1.540583	0.237267	1.104589
C77	C	0.602406	-0.580898	0.401592
C78	C	0.852406	-0.330898	0.651592
C79	C	1.102406	-0.080898	0.901592
C80	C	1.352406	0.169102	1.151592
C81	C	0.525547	-0.580901	0.401601
C82	C	0.775547	-0.330901	0.651601
C83	C	1.025547	-0.080901	0.901601
C84	C	1.275547	0.169099	1.151601
C85	C	0.525522	-0.444588	0.307627
C86	C	0.775522	-0.194588	0.557627
C87	C	1.025522	0.055412	0.807627
C88	C	1.275522	0.305412	1.057627
C89	C	0.602379	-0.444580	0.307622
C90	C	0.852379	-0.194580	0.557622
C91	C	1.102379	0.055420	0.807622
C92	C	1.352379	0.305420	1.057622
C93	C	0.640819	-0.512741	0.354604
C94	C	0.890819	-0.262741	0.604604
C95	C	1.140819	-0.012741	0.854604
C96	C	1.390819	0.237259	1.104604
C97	C	0.487103	-0.512752	0.354618
C98	C	0.737103	-0.262752	0.604618
C99	C	0.987103	-0.012752	0.854618
C100	C	1.237103	0.237248	1.104618
C101	C	0.403769	-0.512755	0.354627
C102	C	0.653769	-0.262755	0.604627
C103	C	0.903769	-0.012755	0.854627
C104	C	1.153769	0.237245	1.104627
C105	C	0.724158	-0.512736	0.354595
C106	C	0.974158	-0.262736	0.604595
C107	C	1.224158	-0.012736	0.854595
C108	C	1.474158	0.237264	1.104595
C109	C	1.063554	-0.789274	0.354589
C110	C	1.313554	-0.539274	0.604589
C111	C	1.563554	-0.289274	0.854589
C112	C	1.813554	-0.039274	1.104589
C113	C	1.063606	-0.907579	0.354608
C114	C	1.313606	-0.657579	0.604608
C115	C	1.563606	-0.407579	0.854608
C116	C	1.813606	-0.157579	1.104608
C117	C	1.112818	-0.976817	0.305499
C118	C	1.362818	-0.726817	0.555499
C119	C	1.612818	-0.476817	0.805499
C120	C	1.862818	-0.226817	1.055499
C121	C	1.130801	-1.047521	0.372671
C122	C	1.380801	-0.797521	0.622671
C123	C	1.630801	-0.547521	0.872671
C124	C	1.880801	-0.297521	1.122671
C125	C	1.045716	-1.047675	0.287480
C126	C	1.295716	-0.797675	0.537480
C127	C	1.545716	-0.547675	0.787480
C128	C	1.795716	-0.297675	1.037480
C129	C	1.081623	-0.976724	0.421814
C130	C	1.331623	-0.726724	0.671814
C131	C	1.581623	-0.476724	0.921814
C132	C	1.831623	-0.226724	1.171814
C133	C	0.996507	-0.976872	0.336578
C134	C	1.246507	-0.726872	0.586578
C135	C	1.496507	-0.476872	0.836578
C136	C	1.746507	-0.226872	1.086578
C137	C	1.014464	-1.047544	0.403795
C138	C	1.264464	-0.797544	0.653795
C139	C	1.514464	-0.547544	0.903795
C140	C	1.764464	-0.297544	1.153795
C141	C	1.255541	-0.512752	0.354623
C142	C	1.505541	-0.262752	0.604623
C143	C	1.755541	-0.012752	0.854623
C144	C	2.005541	0.237248	1.104623
C145	C	1.337339	-0.512760	0.354632
C146	C	1.587339	-0.262760	0.604632
C147	C	1.837339	-0.012760	0.854632
C148	C	2.087339	0.237240	1.104632
C149	C	1.063633	-0.512660	0.546555
C150	C	1.313633	-0.262660	0.796555
C151	C	1.563633	-0.012660	1.046555
C152	C	1.813633	0.237340	1.296555
C153	C	1.063652	-0.512628	0.628354
C154	C	1.313652	-0.262628	0.878354
C155	C	1.563652	-0.012628	1.128354
C156	C	1.813652	0.237372	1.378354
C157	C	1.063642	-0.235112	0.354631
C158	C	1.313642	0.014888	0.604631
C159	C	1.563642	0.264888	0.854631
C160	C	1.813642	0.514888	1.104631
C161	C	1.063665	-0.116807	0.354643
C162	C	1.313665	0.133193	0.604643
C163	C	1.563665	0.383193	0.854643
C164	C	1.813665	0.633193	1.104643
C165	C	1.063585	-0.512729	0.163395
C166	C	1.313585	-0.262729	0.413395
C167	C	1.563585	-0.012729	0.663395
C168	C	1.813585	0.237271	0.913395
C169	C	1.063709	-0.512461	0.081597
C170	C	1.313709	-0.262461	0.331597
C171	C	1.563709	-0.012461	0.581597
C172	C	1.813709	0.237539	0.831597
C173	C	1.110751	-0.444493	0.816561
C174	C	1.360751	-0.194493	1.066561
C175	C	1.610751	0.055507	1.316561
C176	C	1.860751	0.305507	1.566561
C177	C	1.110760	-0.444462	0.893420
C178	C	1.360760	-0.194462	1.143420
C179	C	1.610760	0.055538	1.393420
C180	C	1.860760	0.305538	1.643420
C181	C	1.016604	-0.580599	0.893384
C182	C	1.266604	-0.330599	1.143384
C183	C	1.516604	-0.080599	1.393384
C184	C	1.766604	0.169401	1.643384
C185	C	1.016592	-0.580624	0.816526
C186	C	1.266592	-0.330624	1.066526
C187	C	1.516592	-0.080624	1.316526
C188	C	1.766592	0.169376	1.566526
C189	C	1.063670	-0.512572	0.778117
C190	C	1.313670	-0.262572	1.028117
C191	C	1.563670	-0.012572	1.278117
C192	C	1.813670	0.237428	1.528117
C193	C	1.063691	-0.512517	0.931833
C194	C	1.313691	-0.262517	1.181833
C195	C	1.563691	-0.012517	1.431833
C196	C	1.813691	0.237483	1.681833
C197	C	1.063700	-0.512483	1.015167
C198	C	1.313700	-0.262483	1.265167
C199	C	1.563700	-0.012483	1.515167
C200	C	1.813700	0.237517	1.765167
C201	C	1.063660	-0.512604	0.694778
C202	C	1.313660	-0.262604	0.944778
C203	C	1.563660	-0.012604	1.194778
C204	C	1.813660	0.237396	1.444778
H205	H	0.494274	-0.636400	0.439865
H206	H	0.744274	-0.386400	0.689865
H207	H	0.994274	-0.136400	0.939865
H208	H	1.244274	0.113600	1.189865
H209	H	0.633656	-0.389071	0.269359
H210	H	0.883656	-0.139071	0.519359
H211	H	1.133656	0.110929	0.769359
H212	H	1.383656	0.360929	1.019359
F213	F	0.922323	-0.936281	0.316596
F214	F	1.172323	-0.686281	0.566596
F215	F	1.422323	-0.436281	0.816596
F216	F	1.672323	-0.186281	1.066596
F217	F	1.160875	-0.372010	0.934332
F218	F	1.410875	-0.122010	1.184332
F219	F	1.660875	0.127990	1.434332
F220	F	1.910875	0.377990	1.684332
H221	H	0.494215	-0.389095	0.269376
H222	H	0.744215	-0.139095	0.519376
H223	H	0.994215	0.110905	0.769376
H224	H	1.244215	0.360905	1.019376
F225	F	1.167221	-0.936223	0.251266
F226	F	1.417221	-0.686223	0.501266
F227	F	1.667221	-0.436223	0.751266
F228	F	1.917221	-0.186223	1.001266
F229	F	0.966476	-0.653082	0.775609
F230	F	1.216476	-0.403082	1.025609
F231	F	1.466476	-0.153082	1.275609
F232	F	1.716476	0.096918	1.525609
F233	F	1.160853	-0.372065	0.775686
F234	F	1.410853	-0.122065	1.025686
F235	F	1.660853	0.127935	1.275686
F236	F	1.910853	0.377935	1.525686
H237	H	1.030559	-1.078839	0.230696
H238	H	1.280559	-0.828839	0.480696
H239	H	1.530559	-0.578839	0.730696
H240	H	1.780559	-0.328839	0.980696
H241	H	0.633701	-0.636396	0.439849
H242	H	0.883701	-0.386396	0.689849
H243	H	1.133701	-0.136396	0.939849
H244	H	1.383701	0.113604	1.189849
F245	F	0.960100	-1.087883	0.458158
F246	F	1.210100	-0.837883	0.708158
F247	F	1.460100	-0.587883	0.958158
F248	F	1.710100	-0.337883	1.208158
H249	H	1.187571	-1.078556	0.387940
H250	H	1.437571	-0.828556	0.637940
H251	H	1.687571	-0.578556	0.887940
H252	H	1.937571	-0.328556	1.137940
H253	H	1.096723	-0.945692	0.478647
H254	H	1.346723	-0.695692	0.728647
H255	H	1.596723	-0.445692	0.978647
H256	H	1.846723	-0.195692	1.228647
H257	H	0.978277	-0.636006	0.924666
H258	H	1.228277	-0.386006	1.174666
H259	H	1.478277	-0.136006	1.424666
H260	H	1.728277	0.113994	1.674666
