data_functionalizedCrystal
_audit_creation_method	'MofGen! by Chris Wilmer'
_symmetry_space_group_name_H-M	'P1'
_symmetry_Int_Tables_number	1
_symmetry_cell_setting	triclinic
loop_
_symmetry_equiv_pos_as_xyz
  x,y,z
_cell_length_a	14.853566
_cell_length_b	27.732048
_cell_length_c	13.930277
_cell_angle_alpha	89.990485
_cell_angle_beta	89.995631
_cell_angle_gamma	83.138535
loop_
_atom_site_label
_atom_site_type_symbol
_atom_site_fract_x
_atom_site_fract_y
_atom_site_fract_z
O1	O	1.195343	0.063104	-0.079778
O2	O	1.695343	0.563104	0.420222
O3	O	0.932761	0.070622	-0.079795
O4	O	1.432761	0.570622	0.420205
O5	O	1.072207	-0.003496	-0.079768
O6	O	1.572207	0.496504	0.420232
O7	O	1.055896	0.137221	-0.079806
O8	O	1.555896	0.637221	0.420194
O9	O	1.072188	-0.003497	0.079894
O10	O	1.572188	0.496503	0.579894
O11	O	0.932741	0.070620	0.079866
O12	O	1.432741	0.570620	0.579866
O13	O	1.195323	0.063102	0.079884
O14	O	1.695323	0.563102	0.579884
Zn15	Zn	1.064029	0.066861	0.105225
Zn16	Zn	1.564029	0.566861	0.605225
Zn17	Zn	1.064055	0.066863	-0.105137
Zn18	Zn	1.564055	0.566863	0.394863
O19	O	1.055877	0.137220	0.079856
O20	O	1.555877	0.637220	0.579856
C21	C	0.899168	0.070280	0.000034
C22	C	1.399168	0.570280	0.500034
C23	C	0.799101	0.069260	0.000028
C24	C	1.299101	0.569260	0.500028
C25	C	0.375996	0.064944	-0.086986
C26	C	0.875996	0.564944	0.413014
C27	C	0.375997	0.064943	0.087084
C28	C	0.875997	0.564943	0.587084
C29	C	0.470015	0.065901	0.087081
C30	C	0.970015	0.565901	0.587081
C31	C	0.517029	0.066382	0.000043
C32	C	1.017029	0.566382	0.500043
C33	C	0.470023	0.065904	-0.086992
C34	C	0.970023	0.565904	0.413008
C35	C	0.517026	0.066384	0.174113
C36	C	1.017026	0.566384	0.674113
C37	C	0.611051	0.067343	0.174114
C38	C	1.111051	0.567343	0.674114
C39	C	0.658066	0.067820	0.087075
C40	C	1.158066	0.567820	0.587075
C41	C	0.611055	0.067342	0.000037
C42	C	1.111055	0.567342	0.500037
C43	C	0.658069	0.067822	-0.087001
C44	C	1.158069	0.567822	0.412999
C45	C	0.611060	0.067341	-0.174040
C46	C	1.111060	0.567341	0.325960
C47	C	0.517039	0.066382	-0.174030
C48	C	1.017039	0.566382	0.325970
C49	C	0.752088	0.068779	0.087066
C50	C	1.252088	0.568779	0.587066
C51	C	0.752095	0.068782	-0.087007
C52	C	1.252095	0.568782	0.412993
C53	C	1.071855	-0.021505	0.000066
C54	C	1.571855	0.478495	0.500066
C55	C	1.070824	-0.075165	0.000073
C56	C	1.570824	0.424835	0.500073
C57	C	1.146737	-0.413625	0.000029
C58	C	1.646737	0.086375	0.500029
C59	C	1.142912	-0.615303	0.000015
C60	C	1.642912	-0.115303	0.500015
O61	O	1.212329	-0.646234	-0.000022
O62	O	1.712329	-0.146234	0.499978
N63	N	1.060226	-0.634813	0.000011
N64	N	1.560226	-0.134813	0.500011
C65	C	0.978491	-0.603900	0.000004
C66	C	1.478491	-0.103900	0.500004
O67	O	0.908074	-0.625122	-0.000010
O68	O	1.408074	-0.125122	0.499990
C69	C	0.982317	-0.402224	0.000010
C70	C	1.482317	0.097776	0.500010
C71	C	1.065008	-0.382717	0.000025
C72	C	1.565008	0.117283	0.500025
C73	C	1.229422	-0.394117	0.000042
C74	C	1.729422	0.105883	0.500042
C75	C	1.230377	-0.343701	0.000051
C76	C	1.730377	0.156299	0.500051
C77	C	1.148648	-0.312792	0.000046
C78	C	1.648648	0.187208	0.500046
C79	C	1.065963	-0.332300	0.000033
C80	C	1.565963	0.167700	0.500033
C81	C	0.900582	-0.371312	-0.000004
C82	C	1.400582	0.128688	0.499996
C83	C	0.901546	-0.320890	-0.000005
C84	C	1.401546	0.179110	0.499995
C85	C	0.984237	-0.301383	0.000010
C86	C	1.484237	0.198617	0.500010
C87	C	0.985190	-0.250975	0.000037
C88	C	1.485190	0.249025	0.500037
N89	N	1.067876	-0.231465	0.000042
N90	N	1.567876	0.268535	0.500042
C91	C	1.149605	-0.262373	0.000046
C92	C	1.649605	0.237627	0.500046
C93	C	0.976488	-0.709784	0.000002
C94	C	1.476488	-0.209784	0.500002
C95	C	0.975531	-0.760203	0.000002
C96	C	1.475531	-0.260203	0.500002
C97	C	1.139953	-0.771602	0.000012
C98	C	1.639953	-0.271602	0.500012
C99	C	1.140908	-0.721182	0.000019
C100	C	1.640908	-0.221182	0.500019
C101	C	1.059174	-0.690274	0.000006
C102	C	1.559174	-0.190274	0.500006
C103	C	1.151605	-0.156495	0.000065
C104	C	1.651605	0.343505	0.500065
C105	C	1.152553	-0.106074	0.000078
C106	C	1.652553	0.393926	0.500078
C107	C	0.988132	-0.094679	0.000063
C108	C	1.488132	0.405321	0.500063
C109	C	0.987183	-0.145096	0.000055
C110	C	1.487183	0.354904	0.500055
C111	C	1.068927	-0.176003	0.000053
C112	C	1.568927	0.323997	0.500053
O113	O	0.915810	-0.220015	0.000064
O114	O	1.415810	0.279985	0.500064
O115	O	1.220011	-0.241142	0.000039
O116	O	1.720011	0.258858	0.500039
C117	C	1.145782	-0.464042	0.000020
C118	C	1.645782	0.035958	0.500020
C119	C	1.063097	-0.483549	0.000007
C120	C	1.563097	0.016451	0.500007
C121	C	0.981368	-0.452641	0.000003
C122	C	1.481368	0.047359	0.500003
C123	C	1.062140	-0.533968	0.000007
C124	C	1.562140	-0.033968	0.500007
C125	C	1.143869	-0.564877	0.000012
C126	C	1.643869	-0.064877	0.500012
C127	C	1.226555	-0.545367	0.000016
C128	C	1.726555	-0.045367	0.500016
C129	C	1.227511	-0.494950	0.000025
C130	C	1.727511	0.005050	0.500025
C131	C	0.898682	-0.472151	-0.000002
C132	C	1.398682	0.027849	0.499998
C133	C	0.897734	-0.522568	-0.000009
C134	C	1.397734	-0.022568	0.499991
C135	C	0.979463	-0.553476	-0.000005
C136	C	1.479463	-0.053476	0.499995
C137	C	1.228916	0.063443	0.000052
C138	C	1.728916	0.563443	0.500052
C139	C	1.328983	0.064464	0.000052
C140	C	1.828983	0.564464	0.500052
N141	N	1.064019	0.066859	0.248791
N142	N	1.564019	0.566859	0.748791
C143	C	1.056229	0.155229	0.000021
C144	C	1.556229	0.655229	0.500021
C145	C	1.057260	0.208889	0.000006
C146	C	1.557260	0.708889	0.500006
N147	N	1.064072	0.066861	-0.248703
N148	N	1.564072	0.566861	0.251297
C149	C	1.002306	0.099669	0.701048
C150	C	1.502306	0.599669	1.201048
C151	C	1.125828	0.034053	0.701042
C152	C	1.625828	0.534053	1.201042
C153	C	1.125818	0.034051	0.600546
C154	C	1.625818	0.534051	1.100546
C155	C	1.064051	0.066860	0.550297
C156	C	1.564051	0.566860	1.050297
C157	C	1.002295	0.099670	0.600543
C158	C	1.502295	0.599670	1.100543
C159	C	1.187579	0.001245	0.550292
C160	C	1.687579	0.501245	1.050292
C161	C	1.187571	0.001243	0.449790
C162	C	1.687571	0.501243	0.949790
C163	C	1.125799	0.034049	0.399539
C164	C	1.625799	0.534049	0.899539
C165	C	1.064040	0.066860	0.449792
C166	C	1.564040	0.566860	0.949792
C167	C	1.002273	0.099669	0.399542
C168	C	1.502273	0.599669	0.899542
C169	C	0.940509	0.132478	0.449793
C170	C	1.440509	0.632478	0.949793
C171	C	0.940523	0.132476	0.550292
C172	C	1.440523	0.632476	1.050292
C173	C	1.125786	0.034051	0.299040
C174	C	1.625786	0.534051	0.799040
C175	C	1.002263	0.099669	0.299037
C176	C	1.502263	0.599669	0.799037
H177	H	0.478741	0.065996	0.244975
H178	H	0.978741	0.565996	0.744975
C179	C	0.324287	0.064414	-0.182724
C180	C	0.824287	0.564414	0.317276
N181	N	0.285339	0.064015	-0.254835
N182	N	0.785339	0.564015	0.245165
H183	H	0.337712	0.064555	0.157946
H184	H	0.837712	0.564555	0.657946
H185	H	0.478757	0.065989	-0.244893
H186	H	0.978757	0.565989	0.255107
C187	C	1.193722	-0.002037	0.243769
C188	C	1.693722	0.497963	0.743769
N189	N	1.244894	-0.029221	0.202140
N190	N	1.744894	0.470779	0.702140
H191	H	0.890222	0.159193	0.408868
H192	H	1.390222	0.659193	0.908868
C193	C	0.662752	0.067868	0.269857
C194	C	1.162752	0.567868	0.769857
N195	N	0.701696	0.068260	0.341973
N196	N	1.201696	0.568260	0.841973
C197	C	0.803803	0.069309	-0.182757
C198	C	1.303803	0.569309	0.317243
N199	N	0.842748	0.069706	-0.254877
N200	N	1.342748	0.569706	0.245123
C201	C	1.321345	-0.322250	0.000056
C202	C	1.821345	0.177750	0.500056
N203	N	1.389866	-0.306097	0.000056
N204	N	1.889866	0.193903	0.500056
H205	H	0.921590	-0.069504	0.000062
H206	H	1.421590	0.430496	0.500062
C207	C	1.319338	-0.428110	0.000057
C208	C	1.819338	0.071890	0.500057
N209	N	1.387070	-0.453710	0.000079
N210	N	1.887070	0.046290	0.500079
C211	C	1.316458	-0.579376	0.000020
C212	C	1.816458	-0.079376	0.500020
N213	N	1.384168	-0.604994	0.000016
N214	N	1.884168	-0.104994	0.500016
C215	C	0.809614	-0.392758	-0.000026
C216	C	1.309614	0.107242	0.499974
N217	N	0.741091	-0.408910	-0.000046
N218	N	1.241091	0.091090	0.499954
C219	C	1.231874	-0.699729	0.000026
C220	C	1.731874	-0.199729	0.500026
N221	N	1.300393	-0.683573	0.000028
N222	N	1.800393	-0.183573	0.500028
C223	C	0.806760	-0.544019	-0.000024
C224	C	1.306760	-0.044019	0.499976
N225	N	0.738241	-0.560175	-0.000044
N226	N	1.238241	-0.060175	0.499956
C227	C	0.662787	0.067870	-0.269778
C228	C	1.162787	0.567870	0.230222
N229	N	0.701751	0.068267	-0.341886
N230	N	1.201751	0.568267	0.158114
C231	C	0.811629	-0.286894	-0.000015
C232	C	1.311629	0.213106	0.499985
N233	N	0.743903	-0.261289	-0.000019
N234	N	1.243903	0.238711	0.499981
H235	H	1.237872	-0.025464	0.591208
H236	H	1.737872	0.474536	1.091208
C237	C	1.229855	-0.805610	0.000009
C238	C	1.729855	-0.305610	0.500009
N239	N	1.297566	-0.831228	-0.000001
N240	N	1.797566	-0.331228	0.499999
H241	H	0.890238	0.159189	0.591212
H242	H	1.390238	0.659189	1.091212
H243	H	0.919849	-0.160979	0.000070
H244	H	1.419849	0.339021	0.500070
C245	C	1.243523	-0.084619	0.000091
C246	C	1.743523	0.415381	0.500091
N247	N	1.312041	-0.068462	0.000098
N248	N	1.812041	0.431538	0.500098
C249	C	0.803792	0.069310	0.182802
C250	C	1.303792	0.569310	0.682802
N251	N	0.842736	0.069707	0.254917
N252	N	1.342736	0.569707	0.754917
C253	C	1.241527	-0.190486	0.000072
C254	C	1.741527	0.309514	0.500072
N255	N	1.309257	-0.216088	0.000085
N256	N	1.809257	0.283912	0.500085
C257	C	1.255506	-0.034851	0.394524
C258	C	1.755506	0.465149	0.894524
N259	N	1.306671	-0.062040	0.352896
N260	N	1.806671	0.437960	0.852896
H261	H	0.908196	-0.776081	0.000007
H262	H	1.408196	-0.276081	0.500007
H263	H	0.909925	-0.684622	-0.000008
H264	H	1.409925	-0.184622	0.499992
C265	C	0.934362	0.135754	0.756324
C266	C	1.434362	0.635754	1.256324
N267	N	0.883185	0.162933	0.797959
N268	N	1.383185	0.662933	1.297959
H269	H	0.832127	-0.446989	-0.000008
H270	H	1.332127	0.053011	0.499992
C271	C	0.934335	0.135774	0.243771
C272	C	1.434335	0.635774	0.743771
N273	N	0.883181	0.162974	0.202145
N274	N	1.383181	0.662974	0.702145
H275	H	1.294846	-0.479073	0.000036
H276	H	1.794846	0.020927	0.500036
H277	H	1.176122	0.007343	0.741958
H278	H	1.676122	0.507343	1.241958
