data_functionalizedCrystal
_audit_creation_method	'MofGen! by Chris Wilmer'
_symmetry_space_group_name_H-M	'P1'
_symmetry_Int_Tables_number	1
_symmetry_cell_setting	triclinic
loop_
_symmetry_equiv_pos_as_xyz
  x,y,z
_cell_length_a	17.038275
_cell_length_b	14.853559
_cell_length_c	13.330367
_cell_angle_alpha	89.997552
_cell_angle_beta	90.001043
_cell_angle_gamma	92.628381
loop_
_atom_site_label
_atom_site_type_symbol
_atom_site_fract_x
_atom_site_fract_y
_atom_site_fract_z
O1	O	-1.037622	0.195791	-0.083271
O2	O	-0.809987	0.192682	-0.083304
O3	O	-0.929889	0.063464	-0.083286
O4	O	-0.917721	0.325009	-0.083289
O5	O	-0.929871	0.063460	0.083562
O6	O	-0.809970	0.192677	0.083543
O7	O	-1.037605	0.195787	0.083577
Cu8	Cu	-0.923786	0.194232	0.098794
Cu9	Cu	-0.923806	0.194237	-0.098522
O10	O	-0.917703	0.325004	0.083558
C11	C	-0.780847	0.189852	0.000115
C12	C	-0.694043	0.181416	0.000102
C13	C	-0.929330	0.029832	0.000136
C14	C	-0.927681	-0.070377	0.000130
C15	C	-0.644029	0.258869	0.000100
C16	C	-0.562468	0.250937	0.000113
C17	C	-0.530923	0.165550	0.000119
C18	C	-0.580944	0.088091	0.000124
C19	C	-0.662503	0.096024	0.000118
C20	C	-0.285129	0.137525	0.000142
C21	C	-0.203564	0.129597	0.000144
C22	C	-0.185093	0.292443	0.000135
C23	C	-0.266655	0.300369	0.000124
C24	C	-0.316668	0.222910	0.000134
C25	C	-0.447555	0.157440	0.000129
C26	C	-0.400035	0.231021	0.000131
C27	C	-0.920697	-0.494076	-0.090819
C28	C	-0.920678	-0.494075	0.091084
C29	C	-0.922233	-0.399925	0.091085
C30	C	-0.923019	-0.352845	0.000132
C31	C	-0.922250	-0.399916	-0.090821
C32	C	-0.922995	-0.352846	0.182037
C33	C	-0.924549	-0.258690	0.182042
C34	C	-0.925341	-0.211609	0.091088
C35	C	-0.924573	-0.258686	0.000131
C36	C	-0.925359	-0.211607	-0.090822
C37	C	-0.924596	-0.258682	-0.181780
C38	C	-0.923042	-0.352836	-0.181775
C39	C	-0.926895	-0.117456	0.091083
C40	C	-0.926912	-0.117448	-0.090823
C41	C	-0.066745	0.198616	0.000150
C42	C	-0.153549	0.207051	0.000143
C43	C	-0.918262	0.358637	0.000134
C44	C	-0.919911	0.458845	0.000133
N45	N	-0.923777	0.194228	0.237576
N46	N	-0.923821	0.194234	-0.237303
C47	C	-0.870712	0.251430	0.710190
C48	C	-0.976922	0.137038	0.710175
C49	C	-0.976913	0.137035	0.605156
C50	C	-0.923804	0.194231	0.552650
C51	C	-0.870703	0.251430	0.605162
C52	C	-1.030018	0.079843	0.552637
C53	C	-1.030012	0.079837	0.447612
C54	C	-0.976898	0.137030	0.395104
C55	C	-0.923795	0.194231	0.447622
C56	C	-0.870685	0.251427	0.395116
C57	C	-0.817577	0.308625	0.447632
C58	C	-0.817589	0.308623	0.552654
C59	C	-0.976886	0.137032	0.290082
C60	C	-0.870676	0.251427	0.290087
H61	H	-0.669705	0.328399	0.000094
H62	H	-0.555254	0.018568	0.000143
H63	H	-0.421862	0.087918	0.000163
H64	H	-0.927556	-0.079122	-0.164889
H65	H	-0.703225	0.032953	0.000119
H66	H	-1.073254	0.033264	0.404859
Cl67	Cl	-0.927853	-0.058279	0.205420
Cl68	Cl	-0.499595	0.348312	0.000105
Cl69	Cl	-0.803902	0.323331	0.224088
Cl70	Cl	-1.043650	0.065138	0.224068
Cl71	Cl	-0.750833	0.380525	0.618676
Cl72	Cl	-0.919676	-0.553260	0.205417
Cl73	Cl	-0.439692	0.338360	0.000126
Cl74	Cl	-0.750818	0.380532	0.381613
Cl75	Cl	-0.803947	0.323329	0.776205
H76	H	-0.325841	0.074451	0.000151
Cl77	Cl	-0.925505	-0.199518	0.296387
H78	H	-0.925230	-0.220338	-0.255833
Cl79	Cl	-1.043691	0.065143	0.776180
Cl80	Cl	-1.096787	0.007948	0.618642
H81	H	-0.922420	-0.391173	-0.255828
H82	H	-0.922350	-0.391185	0.256085
H83	H	-0.292332	0.369899	0.000107
Cl84	Cl	-0.919746	-0.553253	-0.205161
H85	H	-0.144363	0.355506	0.000130
H86	H	-0.177884	0.060062	0.000148
