data_functionalizedCrystal
_audit_creation_method	'MofGen! by Chris Wilmer'
_symmetry_space_group_name_H-M	'P1'
_symmetry_Int_Tables_number	1
_symmetry_cell_setting	triclinic
loop_
_symmetry_equiv_pos_as_xyz
  x,y,z
_cell_length_a	12.759401
_cell_length_b	19.076808
_cell_length_c	12.759393
_cell_angle_alpha	87.665604
_cell_angle_beta	89.982754
_cell_angle_gamma	92.322593
loop_
_atom_site_label
_atom_site_type_symbol
_atom_site_fract_x
_atom_site_fract_y
_atom_site_fract_z
Zn1	Zn	1.589359	-0.280201	-0.577138
Zn2	Zn	1.582165	-0.397922	-0.394381
Zn3	Zn	1.413663	-0.280233	-0.401475
Zn4	Zn	1.406560	-0.397867	-0.570026
O5	O	1.497937	-0.339056	-0.485755
O6	O	1.735425	-0.295826	-0.552903
O7	O	1.559775	-0.382347	-0.248299
O8	O	1.442953	-0.181732	-0.430723
O9	O	1.730140	-0.382315	-0.418632
O10	O	1.572036	-0.181708	-0.559782
O11	O	1.435977	-0.295881	-0.253511
O12	O	1.265701	-0.295828	-0.423826
O13	O	1.430847	-0.382222	-0.717992
O14	O	1.260482	-0.382253	-0.547659
O15	O	1.565149	-0.295773	-0.723218
O16	O	1.552887	-0.496411	-0.411735
O17	O	1.423871	-0.496371	-0.540780
C18	C	1.224971	-0.339039	-0.485741
C19	C	1.108193	-0.339049	-0.485760
C20	C	1.056072	-0.294099	-0.555773
C21	C	0.946347	-0.294112	-0.555779
C22	C	0.940875	-0.384032	-0.415754
C23	C	1.050598	-0.384014	-0.415744
C24	C	1.059230	-0.242187	-0.636619
C25	C	0.949505	-0.242200	-0.636625
C26	C	1.486856	-0.521930	-0.474739
C27	C	1.482212	-0.600165	-0.470062
C28	C	1.547186	-0.636847	-0.535112
C29	C	1.542818	-0.710356	-0.530719
C30	C	1.473480	-0.747183	-0.461269
C31	C	1.408499	-0.710496	-0.396216
C32	C	1.412862	-0.636988	-0.400615
C33	C	1.453224	-0.967037	-0.440905
C34	C	1.448868	-1.040551	-0.436509
C35	C	1.583187	-1.040406	-0.571014
C36	C	1.587548	-0.966896	-0.575403
C37	C	1.522563	-0.930216	-0.510353
N38	N	1.469016	-0.822321	-0.456774
N39	N	1.527023	-0.855078	-0.514854
C40	C	1.771969	-0.339073	-0.485769
C41	C	1.888745	-0.339080	-0.485775
C42	C	1.498008	-0.338987	-0.759793
C43	C	1.498039	-0.338958	-0.876571
C44	C	1.509090	-0.155467	-0.496837
C45	C	1.513842	-0.077232	-0.501560
C46	C	1.428132	-0.383951	-0.928715
C47	C	1.428172	-0.383926	-1.038441
C48	C	1.568029	-0.293909	-1.043869
C49	C	1.567993	-0.293938	-0.934145
C50	C	1.347383	-0.435920	-0.925582
C51	C	1.347423	-0.435894	-1.035308
C52	C	1.497929	-0.339073	-0.212787
C53	C	1.498115	-0.338903	-0.096021
H54	H	0.918874	-0.256870	-0.717079
F55	F	1.102438	-0.170905	-0.612605
F56	F	1.242250	-0.416775	-1.075391
F57	F	1.106067	-0.431839	-0.341202
F58	F	0.879569	-0.431884	-0.341242
H59	H	1.092113	-0.261772	-0.712680
H60	H	1.365865	-0.490441	-0.892518
H61	H	1.271266	-0.416397	-0.892728
H62	H	1.373429	-0.487674	-1.066214
H63	H	1.603653	-0.606867	-0.591661
F64	F	0.909085	-0.174489	-0.602788
H65	H	1.636093	-1.070279	-0.623975
F66	F	1.611962	-0.749392	-0.599967
F67	F	1.661346	-0.927708	-0.649322
H68	H	1.400313	-0.937178	-0.387938
F69	F	1.375069	-1.079743	-0.362584
F70	F	1.334694	-0.749692	-0.322311
F71	F	1.343706	-0.597949	-0.331380
F72	F	1.642410	-0.246059	-0.878653
H73	H	1.624984	-0.257255	-1.090759
