data_functionalizedCrystal
_audit_creation_method	'MofGen! by Chris Wilmer'
_symmetry_space_group_name_H-M	'P1'
_symmetry_Int_Tables_number	1
_symmetry_cell_setting	triclinic
loop_
_symmetry_equiv_pos_as_xyz
  x,y,z
_cell_length_a	14.044220
_cell_length_b	14.044220
_cell_length_c	13.101039
_cell_angle_alpha	93.667477
_cell_angle_beta	86.340132
_cell_angle_gamma	93.188878
loop_
_atom_site_label
_atom_site_type_symbol
_atom_site_fract_x
_atom_site_fract_y
_atom_site_fract_z
O1	O	-1.281968	-0.225348	0.085109
O2	O	-0.948635	0.107985	0.418442
O3	O	-0.615302	0.441318	0.751776
O4	O	-1.005298	-0.217041	0.085135
O5	O	-0.671965	0.116292	0.418468
O6	O	-0.338632	0.449626	0.751802
O7	O	-1.139480	-0.082860	0.085112
O8	O	-0.806147	0.250474	0.418446
O9	O	-0.472813	0.583807	0.751779
O10	O	-1.147787	-0.359530	0.085132
O11	O	-0.814454	-0.026197	0.418465
O12	O	-0.481120	0.307137	0.751798
O13	O	-1.129854	-0.092504	-0.085316
O14	O	-0.796521	0.240829	0.248017
O15	O	-0.463188	0.574162	0.581351
O16	O	-0.995673	-0.226686	-0.085293
O17	O	-0.662339	0.106647	0.248040
O18	O	-0.329006	0.439981	0.581373
O19	O	-1.272343	-0.234993	-0.085319
O20	O	-0.939009	0.098340	0.248014
O21	O	-0.605676	0.431674	0.581348
Zn22	Zn	-1.132479	-0.232371	-0.112365
Zn23	Zn	-0.799146	0.100963	0.220968
Zn24	Zn	-0.465813	0.434296	0.554301
Zn25	Zn	-1.145162	-0.219663	0.112181
Zn26	Zn	-0.811828	0.113670	0.445515
Zn27	Zn	-0.478495	0.447003	0.778848
O28	O	-1.138161	-0.369175	-0.085296
O29	O	-0.804828	-0.035841	0.248037
O30	O	-0.471494	0.297492	0.581370
C31	C	-0.964864	-0.218228	-0.000076
C32	C	-0.631531	0.115106	0.333257
C33	C	-0.298197	0.448439	0.666591
C34	C	-0.858722	-0.207383	-0.000066
C35	C	-0.525388	0.125951	0.333267
C36	C	-0.192055	0.459284	0.666600
C37	C	-1.131031	-0.052060	-0.000102
C38	C	-0.797698	0.281273	0.333231
C39	C	-0.464365	0.614607	0.666565
C40	C	-1.120187	0.054083	-0.000102
C41	C	-0.786854	0.387416	0.333231
C42	C	-0.453520	0.720749	0.666565
C43	C	-1.312777	-0.233806	-0.000106
C44	C	-0.979444	0.099527	0.333227
C45	C	-0.646111	0.432860	0.666561
C46	C	-1.418920	-0.244651	-0.000109
C47	C	-1.085587	0.088682	0.333225
C48	C	-0.752253	0.422016	0.666558
C49	C	-0.664383	-0.187558	-0.000088
C50	C	-0.331049	0.145776	0.333245
C51	C	0.002284	0.479109	0.666579
C52	C	-0.613253	-0.264472	-0.000087
C53	C	-0.279920	0.068861	0.333246
C54	C	0.053414	0.402195	0.666580
C55	C	-0.505116	-0.253441	-0.000099
C56	C	-0.171783	0.079892	0.333234
C57	C	0.161551	0.413226	0.666568
C58	C	-0.772529	-0.198587	-0.000076
C59	C	-0.439196	0.134746	0.333257
C60	C	-0.105863	0.468080	0.666591
N61	N	-1.123831	-0.241043	-0.265612
N62	N	-0.790497	0.092290	0.067721
N63	N	-0.457164	0.425623	0.401054
C64	C	-1.146610	-0.399974	-0.000080
C65	C	-0.813276	-0.066641	0.333253
C66	C	-0.479943	0.266693	0.666587
C67	C	-1.157455	-0.506116	-0.000073
C68	C	-0.824121	-0.172783	0.333260
C69	C	-0.490788	0.160550	0.666594
C70	C	-1.100362	0.248421	-0.000086
C71	C	-0.767028	0.581755	0.333248
C72	C	-0.433695	0.915088	0.666581
C73	C	-1.177276	0.299551	-0.000090
C74	C	-0.843942	0.632884	0.333244
C75	C	-0.510609	0.966218	0.666577
C76	C	-1.166245	0.407688	-0.000080
C77	C	-0.832911	0.741021	0.333253
C78	C	-0.499578	1.074354	0.666586
C79	C	-1.111391	0.140275	-0.000095
C80	C	-0.778058	0.473608	0.333239
C81	C	-0.444725	0.806941	0.666572
C82	C	-1.112065	-0.252851	-0.474653
C83	C	-0.778731	0.080482	-0.141320
C84	C	-0.445398	0.413815	0.192014
C85	C	-1.165580	-0.199179	-0.525538
C86	C	-0.832247	0.134154	-0.192204
C87	C	-0.498914	0.467488	0.141129
C88	C	-1.159034	-0.205749	-0.641855
C89	C	-0.825700	0.127584	-0.308522
C90	C	-0.492367	0.460918	0.024812
C91	C	-1.118610	-0.246282	-0.358325
C92	C	-0.785277	0.087051	-0.024992
C93	C	-0.451944	0.420384	0.308342
N94	N	-1.153817	-0.210984	0.265428
N95	N	-0.820484	0.122349	0.598762
N96	N	-0.487151	0.455683	0.932095
H97	H	-0.650693	-0.338605	-0.000077
H98	H	-0.317359	-0.005271	0.333256
H99	H	0.015974	0.328062	0.666590
C100	C	-1.234148	-0.130469	-0.466384
C101	C	-0.900815	0.202864	-0.133051
C102	C	-0.567482	0.536197	0.200283
H103	H	-1.229630	-0.135028	-0.394832
H104	H	-0.896296	0.198306	-0.061499
H105	H	-0.562963	0.531639	0.271834
H106	H	-1.217349	-0.066854	-0.483893
H107	H	-0.884016	0.266480	-0.150559
H108	H	-0.550682	0.599813	0.182774
H109	H	-1.297785	-0.147165	-0.483919
H110	H	-0.964452	0.186169	-0.150586
H111	H	-0.631118	0.519502	0.182747
C112	C	-1.277422	0.248979	-0.000122
C113	C	-0.944089	0.582312	0.333212
C114	C	-0.610755	0.915645	0.666545
H115	H	-1.271796	0.181878	-0.000138
H116	H	-0.938463	0.515212	0.333195
H117	H	-0.605130	0.848545	0.666528
H118	H	-1.314494	0.270273	0.059301
H119	H	-0.981161	0.603607	0.392634
H120	H	-0.647827	0.936940	0.725968
H121	H	-1.307751	0.263571	-0.059571
H122	H	-0.974417	0.596904	0.273763
H123	H	-0.641084	0.930238	0.607096
C124	C	-1.043542	-0.321596	-0.533806
C125	C	-0.710209	0.011737	-0.200473
C126	C	-0.376875	0.345071	0.132860
H127	H	-1.048086	-0.317055	-0.605357
H128	H	-0.714753	0.016278	-0.272023
H129	H	-0.381420	0.349612	0.061310
H130	H	-0.979895	-0.304951	-0.516295
H131	H	-0.646561	0.028382	-0.182961
H132	H	-0.313228	0.361715	0.150372
H133	H	-1.060389	-0.385204	-0.516281
H134	H	-0.727056	-0.051870	-0.182948
H135	H	-0.393723	0.281463	0.150386
H136	H	-0.626945	-0.113431	-0.000099
H137	H	-0.293612	0.219903	0.333234
H138	H	0.039722	0.553236	0.666568
H139	H	-1.026235	0.285859	-0.000076
H140	H	-0.692901	0.619192	0.333257
H141	H	-0.359568	0.952525	0.666590
