data_functionalizedCrystal
_audit_creation_method	'MofGen! by Chris Wilmer'
_symmetry_space_group_name_H-M	'P1'
_symmetry_Int_Tables_number	1
_symmetry_cell_setting	triclinic
loop_
_symmetry_equiv_pos_as_xyz
  x,y,z
_cell_length_a	18.050590
_cell_length_b	11.169416
_cell_length_c	11.169409
_cell_angle_alpha	90.028030
_cell_angle_beta	89.992504
_cell_angle_gamma	89.997748
loop_
_atom_site_label
_atom_site_type_symbol
_atom_site_fract_x
_atom_site_fract_y
_atom_site_fract_z
Zn1	Zn	1.135431	0.478057	-0.678184
Zn2	Zn	1.135357	0.678798	-0.477516
Zn3	Zn	1.011232	0.478089	-0.477561
Zn4	Zn	1.011231	0.678659	-0.678204
O5	O	1.073313	0.578401	-0.577866
O6	O	1.239346	0.504730	-0.651537
O7	O	1.118861	0.652245	-0.309572
O8	O	1.027739	0.310135	-0.504185
O9	O	1.239291	0.652214	-0.504107
O10	O	1.118988	0.310112	-0.651581
O11	O	1.027667	0.504785	-0.309605
O12	O	0.907308	0.504651	-0.504204
O13	O	1.027737	0.651977	-0.846151
O14	O	0.907307	0.652008	-0.651616
O15	O	1.118986	0.504596	-0.846136
O16	O	1.118859	0.846729	-0.504127
O17	O	1.027665	0.846627	-0.651571
C18	C	0.880361	0.578319	-0.577918
C19	C	0.797815	0.578313	-0.577968
C20	C	0.598385	0.658675	-0.657940
C21	C	0.548977	0.549235	-0.687457
C22	C	0.646685	0.578380	-0.577910
C23	C	0.549011	0.687882	-0.548392
C24	C	0.500699	0.578454	-0.577855
C25	C	0.598363	0.468882	-0.607483
C26	C	0.598402	0.607602	-0.468368
C27	C	0.549016	0.498087	-0.497843
C28	C	0.730783	0.578338	-0.577944
C29	C	0.416603	0.578483	-0.577821
C30	C	1.073274	0.890225	-0.577872
C31	C	1.073326	1.023625	-0.577915
C32	C	1.073370	0.578268	-0.890909
C33	C	1.073394	0.578211	-1.024309
C34	C	1.267018	0.578484	-0.577815
C35	C	1.349564	0.578519	-0.577793
C36	C	1.073364	1.265358	-0.577898
C37	C	1.073367	1.131958	-0.577944
C38	C	1.073299	0.578447	-0.266041
C39	C	1.073418	0.578166	-0.132642
H40	H	0.619952	0.376281	-0.632531
C41	C	0.545764	0.844208	-0.400842
C42	C	0.519744	0.812851	-0.514713
H43	H	0.527693	0.921357	-0.380059
H44	H	0.598379	0.845259	-0.401344
H45	H	0.528855	0.787282	-0.343893
H46	H	0.536658	0.869772	-0.571663
H47	H	0.467118	0.811809	-0.514219
C48	C	0.602709	0.719317	-0.864028
C49	C	0.627660	0.750180	-0.749399
H50	H	0.620788	0.775800	-0.920490
H51	H	0.550094	0.719476	-0.865139
H52	H	0.620335	0.641749	-0.884199
H53	H	0.610029	0.827745	-0.729224
H54	H	0.680286	0.750034	-0.748285
H55	H	0.527267	0.524543	-0.780071
H56	H	0.527476	0.430137	-0.430141
C57	C	0.705305	0.641666	-0.345085
C58	C	0.627740	0.640973	-0.343379
H59	H	0.723416	0.662270	-0.267920
H60	H	0.722171	0.698738	-0.401904
H61	H	0.722930	0.564450	-0.366572
H62	H	0.610115	0.718192	-0.321902
H63	H	0.610867	0.583898	-0.286543
