data_functionalizedCrystal
_audit_creation_method	'MofGen! by Chris Wilmer'
_symmetry_space_group_name_H-M	'P1'
_symmetry_Int_Tables_number	1
_symmetry_cell_setting	triclinic
loop_
_symmetry_equiv_pos_as_xyz
  x,y,z
_cell_length_a	16.625548
_cell_length_b	16.625545
_cell_length_c	13.897441
_cell_angle_alpha	90.031157
_cell_angle_beta	90.021870
_cell_angle_gamma	90.026626
loop_
_atom_site_label
_atom_site_type_symbol
_atom_site_fract_x
_atom_site_fract_y
_atom_site_fract_z
Zn1	Zn	1.232674	-0.320953	0.545407
Zn2	Zn	1.566007	0.012380	0.878740
Zn3	Zn	1.899340	0.345714	1.212073
Zn4	Zn	1.232566	-0.455803	0.384106
Zn5	Zn	1.565900	-0.122470	0.717440
Zn6	Zn	1.899233	0.210863	1.050773
Zn7	Zn	1.097832	-0.320991	0.384122
Zn8	Zn	1.431166	0.012343	0.717455
Zn9	Zn	1.764499	0.345676	1.050789
Zn10	Zn	1.097798	-0.455750	0.545356
Zn11	Zn	1.431132	-0.122416	0.878689
Zn12	Zn	1.764465	0.210917	1.212023
O13	O	1.165218	-0.388374	0.464748
O14	O	1.498551	-0.055041	0.798081
O15	O	1.831884	0.278292	1.131414
O16	O	1.345492	-0.338848	0.524025
O17	O	1.678825	-0.005514	0.857358
O18	O	2.012158	0.327819	1.190691
O19	O	1.214663	-0.437958	0.249127
O20	O	1.547996	-0.104625	0.582460
O21	O	1.881330	0.228708	0.915793
O22	O	1.115778	-0.208153	0.405544
O23	O	1.449112	0.125180	0.738878
O24	O	1.782445	0.458513	1.072211
O25	O	1.345413	-0.437922	0.405518
O26	O	1.678746	-0.104588	0.738851
O27	O	2.012080	0.228745	1.072185
O28	O	1.214846	-0.208126	0.524040
O29	O	1.548179	0.125208	0.857373
O30	O	1.881512	0.458541	1.190706
O31	O	1.115674	-0.338912	0.249138
O32	O	1.449008	-0.005579	0.582471
O33	O	1.782341	0.327754	0.915805
O34	O	0.984995	-0.338860	0.405495
O35	O	1.318329	-0.005527	0.738828
O36	O	1.651662	0.327806	1.072162
O37	O	1.115721	-0.437830	0.680344
O38	O	1.449054	-0.104497	1.013678
O39	O	1.782387	0.228836	1.347011
O40	O	0.984971	-0.437867	0.523953
O41	O	1.318304	-0.104534	0.857286
O42	O	1.651637	0.228799	1.190620
O43	O	1.214813	-0.338796	0.680382
O44	O	1.548146	-0.005462	1.013715
O45	O	1.881479	0.327871	1.347048
O46	O	1.214630	-0.568629	0.405469
O47	O	1.547964	-0.235295	0.738802
O48	O	1.881297	0.098038	1.072136
O49	O	1.115617	-0.568589	0.523938
O50	O	1.448950	-0.235256	0.857271
O51	O	1.782283	0.098077	1.190605
C52	C	0.955727	-0.388363	0.464721
C53	C	1.289060	-0.055029	0.798054
C54	C	1.622393	0.278304	1.131387
C55	C	0.866106	-0.388377	0.464732
C56	C	1.199439	-0.055044	0.798065
C57	C	1.532772	0.278290	1.131399
C58	C	1.165130	-0.597865	0.464717
C59	C	1.498463	-0.264532	0.798051
C60	C	1.831797	0.068802	1.131384
C61	C	1.165166	-0.687486	0.464737
C62	C	1.498500	-0.354153	0.798070
C63	C	1.831833	-0.020820	1.131403
C64	C	0.537930	-0.388382	0.464773
C65	C	0.871263	-0.055049	0.798107
C66	C	1.204597	0.278284	1.131440
C67	C	0.629239	-0.388379	0.464759
C68	C	0.962572	-0.055045	0.798092
C69	C	1.295905	0.278288	1.131425
C70	C	0.702015	-0.388380	0.464752
C71	C	1.035348	-0.055047	0.798085
C72	C	1.368682	0.278286	1.131419
C73	C	0.793329	-0.388376	0.464739
C74	C	1.126663	-0.055042	0.798072
C75	C	1.459996	0.278291	1.131406
C76	C	1.165198	-0.760269	0.464756
C77	C	1.498531	-0.426935	0.798089
C78	C	1.831864	-0.093602	1.131422
C79	C	1.165245	-0.851577	0.464777
C80	C	1.498578	-0.518244	0.798110
C81	C	1.831911	-0.184910	1.131444
C82	C	1.165286	-0.924353	0.464789
C83	C	1.498620	-0.591020	0.798123
C84	C	1.831953	-0.257687	1.131456
C85	C	1.165333	-1.015668	0.464809
C86	C	1.498666	-0.682334	0.798142
C87	C	1.831999	-0.349001	1.131476
C88	C	1.375527	-0.388386	0.464775
C89	C	1.708860	-0.055053	0.798109
C90	C	2.042193	0.278280	1.131442
C91	C	1.465148	-0.388392	0.464787
C92	C	1.798481	-0.055058	0.798120
C93	C	2.131814	0.278275	1.131454
C94	C	1.165275	-0.388303	0.716341
C95	C	1.498608	-0.054970	1.049674
C96	C	1.831942	0.278364	1.383008
C97	C	1.165299	-0.388273	0.823555
C98	C	1.498633	-0.054939	1.156888
C99	C	1.831966	0.278394	1.490222
C100	C	1.165328	-0.178065	0.464799
C101	C	1.498661	0.155268	0.798133
C102	C	1.831994	0.488601	1.131466
C103	C	1.165374	-0.088444	0.464821
C104	C	1.498708	0.244889	0.798155
C105	C	1.832041	0.578223	1.131488
C106	C	1.165207	-0.388387	0.214133
C107	C	1.498540	-0.055054	0.547467
C108	C	1.831874	0.278280	0.880800
C109	C	1.165339	-0.388190	0.106920
C110	C	1.498672	-0.054857	0.440253
C111	C	1.832006	0.278476	0.773587
C112	C	1.165321	-0.388218	1.019850
C113	C	1.498654	-0.054885	1.353183
C114	C	1.831988	0.278449	1.686517
C115	C	1.165307	-0.388251	0.910618
C116	C	1.498640	-0.054917	1.243951
C117	C	1.831973	0.278416	1.577284
