data_functionalizedCrystal
_audit_creation_method	'MofGen! by Chris Wilmer'
_symmetry_space_group_name_H-M	'P1'
_symmetry_Int_Tables_number	1
_symmetry_cell_setting	triclinic
loop_
_symmetry_equiv_pos_as_xyz
  x,y,z
_cell_length_a	10.489741
_cell_length_b	12.837943
_cell_length_c	11.892095
_cell_angle_alpha	94.305320
_cell_angle_beta	86.063851
_cell_angle_gamma	89.684057
loop_
_atom_site_label
_atom_site_type_symbol
_atom_site_fract_x
_atom_site_fract_y
_atom_site_fract_z
O1	O	1.717543	0.139818	-0.093925
O2	O	2.217543	0.639818	0.406075
O3	O	1.347863	0.153557	-0.093941
O4	O	1.847863	0.653557	0.406059
O5	O	1.524506	-0.004276	-0.093934
O6	O	2.024506	0.495724	0.406066
O7	O	1.540900	0.297652	-0.093932
O8	O	2.040900	0.797652	0.406068
O9	O	1.509775	0.008863	0.094073
O10	O	2.009775	0.508863	0.594073
O11	O	1.333133	0.166697	0.094066
O12	O	1.833133	0.666697	0.594066
O13	O	1.702812	0.152957	0.094082
O14	O	2.202812	0.652957	0.594082
Zn15	Zn	1.515634	0.161913	0.123924
Zn16	Zn	2.015634	0.661913	0.623924
Zn17	Zn	1.535042	0.144601	-0.123783
Zn18	Zn	2.035042	0.644601	0.376217
O19	O	1.526170	0.310791	0.094075
O20	O	2.026170	0.810791	0.594075
C21	C	1.292852	0.159089	0.000060
C22	C	1.792852	0.659089	0.500060
C23	C	1.150881	0.155984	0.000053
C24	C	1.650881	0.655984	0.500053
C25	C	1.511603	-0.036369	0.000066
C26	C	2.011603	0.463631	0.500066
C27	C	1.495085	-0.151570	0.000058
C28	C	1.995085	0.348430	0.500058
N29	N	1.502397	0.173727	0.292978
N30	N	2.002397	0.673727	0.792978
C31	C	1.071668	0.055559	0.000063
C32	C	1.571668	0.555559	0.500063
C33	C	0.992034	0.096521	-0.092632
C34	C	1.492034	0.596521	0.407368
C35	C	0.977548	0.109499	0.092728
C36	C	1.477548	0.609499	0.592728
C37	C	1.073123	0.196981	-0.092718
C38	C	1.573123	0.696981	0.407282
C39	C	1.058638	0.209952	0.092725
C40	C	1.558638	0.709952	0.592725
C41	C	0.979041	0.250985	0.000008
C42	C	1.479041	0.750985	0.500008
C43	C	1.757824	0.147425	0.000079
C44	C	2.257824	0.647425	0.500079
C45	C	1.899795	0.150530	0.000078
C46	C	2.399795	0.650530	0.500078
C47	C	1.539073	0.342883	0.000072
C48	C	2.039073	0.842883	0.500072
C49	C	1.555591	0.458084	0.000073
C50	C	2.055591	0.958084	0.500073
C51	C	1.357018	0.697558	0.000044
C52	C	1.857018	1.197558	0.500044
C53	C	1.372532	0.805799	0.000044
C54	C	1.872532	1.305799	0.500044
C55	C	1.602133	0.782810	0.000067
C56	C	2.102133	1.282810	0.500067
C57	C	1.586619	0.674569	0.000066
C58	C	2.086619	1.174569	0.500066
C59	C	1.464057	0.631947	0.000056
C60	C	1.964057	1.131947	0.500056
C61	C	1.448544	0.523704	0.000064
C62	C	1.948544	1.023704	0.500064
C63	C	1.678144	0.500716	0.000079
C64	C	2.178144	1.000716	0.500079
C65	C	1.693658	0.608958	0.000079
C66	C	2.193658	1.108958	0.500079
N67	N	1.548287	0.132779	-0.292837
N68	N	2.048287	0.632779	0.207163
C69	C	1.640385	0.050511	0.529631
C70	C	2.140385	0.550511	1.029631
C71	C	1.631143	0.058776	0.647972
C72	C	2.131143	0.558776	1.147972
C73	C	1.474666	0.198519	0.648004
C74	C	1.974666	0.698519	1.148004
C75	C	1.483908	0.190253	0.529663
C76	C	1.983908	0.690253	1.029663
C77	C	1.566771	0.116248	0.470480
C78	C	2.066771	0.616248	0.970480
C79	C	1.576019	0.107988	0.352137
C80	C	2.076019	0.607988	0.852137
C81	C	1.419536	0.247725	0.352171
C82	C	1.919536	0.747725	0.852171
C83	C	1.410294	0.255990	0.470512
C84	C	1.910294	0.755990	0.970512
H85	H	0.962476	0.048552	-0.171000
H86	H	1.462476	0.548552	0.329000
H87	H	1.707865	-0.009741	0.481444
H88	H	2.207865	0.490259	0.981444
H89	H	1.257222	0.662856	0.000056
H90	H	1.757222	1.162856	0.500056
O91	O	1.097857	0.273435	0.196537
O92	O	1.597857	0.773435	0.696537
H93	H	1.011181	0.302134	0.248715
H94	H	1.511181	0.802134	0.748715
H95	H	1.342824	0.316242	0.518712
H96	H	1.842824	0.816242	1.018712
H97	H	0.938733	0.333624	-0.000041
H98	H	1.438733	0.833624	0.499959
O99	O	1.340121	0.318629	0.288376
O100	O	1.840121	0.818629	0.788376
H101	H	1.360459	0.300446	0.196142
H102	H	1.860459	0.800446	0.696142
H103	H	1.691084	0.005245	0.696130
H104	H	2.191084	0.505245	1.196130
O105	O	0.922179	0.060461	0.196545
O106	O	1.422179	0.560461	0.696545
H107	H	0.959423	-0.020651	0.196340
H108	H	1.459423	0.479349	0.696340
O109	O	1.128309	0.245923	-0.196660
O110	O	1.628309	0.745923	0.303340
H111	H	1.182571	0.316678	-0.170719
H112	H	1.682571	0.816678	0.329281
H113	H	1.701911	0.817538	0.000146
H114	H	2.201911	1.317538	0.500146
H115	H	1.112265	-0.027005	-0.000054
H116	H	1.612265	0.472995	0.499946
H117	H	1.348747	0.489004	0.000066
H118	H	1.848747	0.989004	0.500066
H119	H	1.285369	0.859217	0.000033
H120	H	1.785369	1.359217	0.500033
H121	H	1.793444	0.643676	0.000092
H122	H	2.293444	1.143676	0.500092
O123	O	1.793608	0.429952	0.000089
O124	O	2.293608	0.929952	0.500089
H125	H	1.762235	0.347522	0.000081
H126	H	2.262235	0.847522	0.500081
H127	H	1.643494	0.047732	0.303951
H128	H	2.143494	0.547732	0.803951
O129	O	1.385296	0.278335	0.711844
O130	O	1.885296	0.778335	1.211844
H131	H	1.391246	0.273037	0.804071
H132	H	1.891246	0.773037	1.304071
