data_functionalizedCrystal
_audit_creation_method	'MofGen! by Chris Wilmer'
_symmetry_space_group_name_H-M	'P1'
_symmetry_Int_Tables_number	1
_symmetry_cell_setting	triclinic
loop_
_symmetry_equiv_pos_as_xyz
  x,y,z
_cell_length_a	14.971486
_cell_length_b	8.559649
_cell_length_c	14.048226
_cell_angle_alpha	89.995035
_cell_angle_beta	89.998499
_cell_angle_gamma	76.696397
loop_
_atom_site_label
_atom_site_type_symbol
_atom_site_fract_x
_atom_site_fract_y
_atom_site_fract_z
O1	O	1.172520	0.208203	-0.079048
O2	O	0.910393	0.233135	-0.079073
O3	O	1.064550	-0.011889	-0.079057
O4	O	1.018363	0.453227	-0.079064
O5	O	1.064535	-0.011903	0.079264
O6	O	0.910377	0.233121	0.079248
O7	O	1.172505	0.208188	0.079274
Zn8	Zn	1.041438	0.220652	0.104398
Zn9	Zn	1.041459	0.220671	-0.104197
O10	O	1.018347	0.453212	0.079258
C11	C	0.877137	0.232013	0.000084
C12	C	0.778072	0.228672	0.000074
C13	C	0.710872	0.372617	0.000074
C14	C	0.617791	0.369468	0.000088
C15	C	0.591911	0.222372	0.000096
C16	C	0.659119	0.078416	0.000099
C17	C	0.752198	0.081566	0.000092
C18	C	0.465111	0.071859	0.000113
C19	C	0.372025	0.068707	0.000118
C20	C	0.330704	0.359760	0.000108
C21	C	0.423783	0.362910	0.000101
C22	C	0.490984	0.218954	0.000103
C23	C	1.068043	-0.071419	0.000102
C24	C	1.078461	-0.248779	0.000098
C25	C	1.205760	0.209310	0.000114
C26	C	1.304826	0.212652	0.000118
C27	C	1.014855	0.512743	0.000096
C28	C	1.004436	0.690103	0.000094
N29	N	1.041431	0.220638	0.246758
N30	N	1.041474	0.220673	-0.246558
C31	C	1.109708	0.112186	0.296583
C32	C	1.109714	0.112186	0.396241
C33	C	1.041446	0.220645	0.446072
C34	C	0.973163	0.329102	0.396240
C35	C	0.973153	0.329094	0.296584
C36	C	0.973188	0.329114	0.603954
C37	C	0.973197	0.329124	0.703617
C38	C	1.109748	0.112205	0.703611
C39	C	1.109739	0.112197	0.603955
C40	C	1.041456	0.220657	0.554130
H41	H	0.519825	-0.045367	0.000115
O42	O	0.346992	-0.074274	0.000005
C43	C	0.382282	-0.162032	-0.081997
H44	H	0.443994	-0.118388	-0.109340
H45	H	0.327031	-0.143622	-0.139413
C46	C	0.336305	-0.395323	-0.023492
C47	C	0.412107	-0.341728	-0.057070
H48	H	0.354699	-0.506169	-0.008119
H49	H	0.312526	-0.336199	0.031752
H50	H	0.290269	-0.379968	-0.071345
H51	H	0.458135	-0.357065	-0.009214
H52	H	0.435894	-0.400859	-0.112307
H53	H	0.275983	0.476974	0.000111
H54	H	0.933089	-0.226536	0.000090
O55	O	0.906970	0.434413	0.752172
C56	C	0.921614	0.411135	0.850814
H57	H	0.996817	0.351647	0.864412
H58	H	0.876519	0.330842	0.879111
C59	C	0.804576	0.647595	0.885268
C60	C	0.896943	0.574542	0.901971
H61	H	0.789353	0.748389	0.916826
H62	H	0.794707	0.663275	0.818812
H63	H	0.767007	0.580667	0.908850
H64	H	0.934510	0.641460	0.878379
H65	H	0.906817	0.558877	0.968425
H66	H	1.149813	-0.332149	0.000112
H67	H	1.165303	0.023873	0.256018
O68	O	0.449045	0.505691	0.000204
C69	C	0.501643	0.516240	0.082200
H70	H	0.533516	0.390365	0.109552
H71	H	0.455587	0.586870	0.139614
C72	C	0.539111	0.756992	0.023668
C73	C	0.578264	0.602390	0.057258
H74	H	0.586372	0.810139	0.008285
H75	H	0.503672	0.749890	-0.031573
H76	H	0.500731	0.815830	0.071518
H77	H	0.616633	0.543548	0.009404
H78	H	0.613712	0.609485	0.112490
O79	O	1.176138	0.006793	0.444493
C80	C	1.236384	-0.088948	0.379142
H81	H	1.232873	-0.023448	0.308097
H82	H	1.215522	-0.207737	0.368562
C83	C	1.339431	-0.201995	0.505277
C84	C	1.335125	-0.121541	0.418021
H85	H	1.400338	-0.222107	0.529260
H86	H	1.298841	-0.137498	0.549307
H87	H	1.322041	-0.300977	0.496449
H88	H	1.352503	-0.022553	0.426853
H89	H	1.375721	-0.186023	0.373994
O90	O	0.906815	0.434628	0.555700
C91	C	0.846551	0.530339	0.621049
H92	H	0.883095	0.532253	0.692083
H93	H	0.783685	0.478274	0.631659
C94	C	0.771394	0.700286	0.494899
C95	C	0.816280	0.702647	0.582142
H96	H	0.752717	0.806572	0.470899
H97	H	0.811992	0.635801	0.450871
H98	H	0.719011	0.656891	0.503753
H99	H	0.868668	0.746022	0.573285
H100	H	0.775689	0.767144	0.626168
H101	H	0.731935	0.492399	0.000066
H102	H	0.638040	-0.041353	0.000120
O103	O	0.906787	0.434603	0.248328
C104	C	0.846521	0.530310	0.313677
H105	H	0.883066	0.532233	0.384709
H106	H	0.783659	0.478235	0.324291
C107	C	0.771353	0.700242	0.187526
C108	C	0.816241	0.702615	0.274767
H109	H	0.752671	0.806526	0.163524
H110	H	0.811953	0.635760	0.143498
H111	H	0.718974	0.656839	0.196383
H112	H	0.868625	0.745999	0.265907
H113	H	0.775649	0.767109	0.318793
H114	H	0.563079	0.486682	0.000086
H115	H	0.806913	-0.035649	0.000092
H116	H	1.165332	0.023889	0.563383
H117	H	1.165346	0.023894	0.744185
H118	H	0.917573	0.417407	0.436818
