data_functionalizedCrystal
_audit_creation_method	'MofGen! by Chris Wilmer'
_symmetry_space_group_name_H-M	'P1'
_symmetry_Int_Tables_number	1
_symmetry_cell_setting	triclinic
loop_
_symmetry_equiv_pos_as_xyz
  x,y,z
_cell_length_a	14.971486
_cell_length_b	14.048226
_cell_length_c	10.967874
_cell_angle_alpha	102.124660
_cell_angle_beta	84.173211
_cell_angle_gamma	89.998499
loop_
_atom_site_label
_atom_site_type_symbol
_atom_site_fract_x
_atom_site_fract_y
_atom_site_fract_z
O1	O	1.187817	-0.052371	0.162614
O2	O	0.927521	-0.049202	0.182087
O3	O	1.063677	-0.080581	-0.009286
O4	O	1.051661	-0.020993	0.353987
O5	O	1.063660	0.077739	-0.009297
O6	O	0.927504	0.109117	0.182076
O7	O	1.187800	0.105948	0.162603
Zn8	Zn	1.057650	0.132669	0.172338
Zn9	Zn	1.057672	-0.075923	0.172352
O10	O	1.051645	0.137327	0.353976
C11	C	0.894183	0.029812	0.181211
C12	C	0.794872	0.029374	0.178601
C13	C	1.062795	-0.009049	-0.055781
C14	C	1.060184	-0.031778	-0.194306
C15	C	0.738249	0.047816	0.291027
C16	C	0.644936	0.047427	0.288568
C17	C	0.608249	0.028588	0.173680
C18	C	0.664880	0.010147	0.061245
C19	C	0.758191	0.010543	0.063706
C20	C	0.470390	0.009320	0.056124
C21	C	0.377073	0.008922	0.053663
C22	C	0.357135	0.046204	0.280986
C23	C	0.450446	0.046600	0.283446
C24	C	0.507071	0.028157	0.171011
C25	C	1.221138	0.026933	0.163479
C26	C	1.320449	0.027364	0.166089
N27	N	1.057641	0.275028	0.172327
N28	N	1.057687	-0.218284	0.172353
C29	C	1.117950	0.310958	0.087622
C30	C	1.117956	0.410615	0.087621
C31	C	1.057657	0.474343	0.172332
C32	C	0.997342	0.438407	0.257041
C33	C	0.997332	0.338750	0.257035
C34	C	0.997368	0.646123	0.257050
C35	C	0.997378	0.745787	0.257058
C36	C	1.117992	0.717988	0.087636
C37	C	1.117982	0.618331	0.087630
C38	C	1.057668	0.582403	0.172341
C39	C	1.052526	0.065793	0.400471
C40	C	1.055138	0.088516	0.538996
C41	C	1.056311	0.016632	0.600760
C42	C	1.059011	0.040116	0.743933
H43	H	0.768111	0.063157	0.384582
H44	H	1.167087	0.566444	0.018658
H45	H	1.056137	0.167443	0.592111
H46	H	0.948275	0.797670	0.326038
O47	O	1.060037	0.134272	0.807371
C48	C	0.984137	0.153993	0.896706
H49	H	0.929352	0.100210	0.867195
H50	H	0.958200	0.231354	0.903017
H51	H	1.003483	0.146361	0.992140
H52	H	0.948250	0.616874	0.326027
H53	H	1.059193	-0.110712	0.752584
H54	H	1.055322	-0.062295	0.547643
H55	H	0.311027	0.061225	0.372535
H56	H	0.948240	0.490299	0.326010
H57	H	0.598836	0.062444	0.380117
H58	H	0.948221	0.309499	0.326009
O59	O	0.485973	0.064781	0.395128
C60	C	0.457116	-0.005988	0.463655
H61	H	0.392201	-0.038911	0.429545
H62	H	0.444798	0.029490	0.567549
H63	H	0.511011	-0.065766	0.449287
O64	O	0.341581	-0.009352	-0.058045
C65	C	0.411566	-0.025563	-0.156756
H66	H	0.475160	0.010161	-0.121690
H67	H	0.391574	0.007251	-0.236957
H68	H	0.424555	-0.107206	-0.191444
H69	H	0.516492	-0.005697	-0.035433
H70	H	1.167102	0.747246	0.018662
O71	O	0.629349	-0.008295	-0.050434
C72	C	0.658197	-0.101544	-0.118957
H73	H	0.723112	-0.123288	-0.084852
H74	H	0.670511	-0.100146	-0.222853
H75	H	0.604298	-0.156600	-0.104579
O76	O	0.813326	-0.007315	-0.045389
C77	C	0.903551	-0.002948	-0.018583
H78	H	0.907726	0.043101	0.079432
H79	H	0.945384	0.031263	-0.090238
H80	H	0.930502	-0.079673	-0.023269
O81	O	1.176437	0.249089	0.005135
C82	C	1.161138	0.253240	-0.118402
H83	H	1.089519	0.280509	-0.119140
H84	H	1.171045	0.177452	-0.181043
H85	H	1.210479	0.305113	-0.154918
O86	O	1.176581	0.445656	0.005518
C87	C	1.232178	0.514256	0.072488
H88	H	1.197142	0.545180	0.170047
H89	H	1.246017	0.575803	0.020446
H90	H	1.298330	0.477260	0.081124
