data_functionalizedCrystal
_audit_creation_method	'MofGen! by Chris Wilmer'
_symmetry_space_group_name_H-M	'P1'
_symmetry_Int_Tables_number	1
_symmetry_cell_setting	triclinic
loop_
_symmetry_equiv_pos_as_xyz
  x,y,z
_cell_length_a	29.839125
_cell_length_b	15.297475
_cell_length_c	15.298852
_cell_angle_alpha	110.787890
_cell_angle_beta	80.316520
_cell_angle_gamma	99.674916
loop_
_atom_site_label
_atom_site_type_symbol
_atom_site_fract_x
_atom_site_fract_y
_atom_site_fract_z
Zn1	Zn	-0.328749	-1.486001	-0.616852
Zn2	Zn	0.171251	-0.986001	-0.116852
Zn3	Zn	-0.242547	-1.512850	-0.772327
Zn4	Zn	0.257453	-1.012850	-0.272327
Zn5	Zn	-0.242574	-1.330485	-0.589887
Zn6	Zn	0.257426	-0.830485	-0.089887
Zn7	Zn	-0.306594	-1.357365	-0.745357
Zn8	Zn	0.193406	-0.857365	-0.245357
O9	O	-0.280116	-1.421675	-0.681105
O10	O	0.219884	-0.921675	-0.181105
O11	O	-0.326575	-1.619718	-0.660048
O12	O	0.173425	-1.119718	-0.160048
O13	O	-0.179682	-1.488646	-0.748128
O14	O	0.320318	-0.988646	-0.248128
O15	O	-0.263289	-1.328629	-0.463332
O16	O	0.236711	-0.828629	0.036668
O17	O	-0.263243	-1.639444	-0.774275
O18	O	0.236757	-1.139444	-0.274275
O19	O	-0.326601	-1.442886	-0.483143
O20	O	0.173399	-0.942886	0.016857
O21	O	-0.179702	-1.354663	-0.614090
O22	O	0.320298	-0.854663	-0.114090
O23	O	-0.241806	-1.203896	-0.587938
O24	O	0.258194	-0.703896	-0.087938
O25	O	-0.372402	-1.374441	-0.728308
O26	O	0.127598	-0.874441	-0.228308
O27	O	-0.288841	-1.223644	-0.702161
O28	O	0.211159	-0.723644	-0.202161
O29	O	-0.388679	-1.468950	-0.633896
O30	O	0.111321	-0.968950	-0.133896
O31	O	-0.241760	-1.514710	-0.898881
O32	O	0.258240	-1.014710	-0.398881
O33	O	-0.288815	-1.400476	-0.879066
O34	O	0.211185	-0.900476	-0.379066
C35	C	-0.262923	-1.180022	-0.639198
C36	C	0.237077	-0.680022	-0.139198
C37	C	-0.255576	-1.076646	-0.621292
C38	C	0.244424	-0.576646	-0.121292
C39	C	-0.397297	-1.421699	-0.681101
C40	C	0.102703	-0.921699	-0.181101
C41	C	-0.447232	-1.421709	-0.681100
C42	C	0.052768	-0.921709	-0.181100
C43	C	-0.262892	-1.463449	-0.922719
C44	C	0.237108	-0.963449	-0.422719
C45	C	-0.255545	-1.481405	-1.026097
C46	C	0.244455	-0.981405	-0.526097
C47	C	-0.765370	-1.470955	-0.631795
C48	C	-0.265370	-0.970955	-0.131795
C49	C	-0.953052	-1.470988	-0.631723
C50	C	-0.453052	-0.970988	-0.131723
O51	O	-0.984528	-1.512804	-0.589878
O52	O	-0.484528	-1.012804	-0.089878
N53	N	-0.968044	-1.421789	-0.680872
N54	N	-0.468044	-0.921789	-0.180872
C55	C	-0.936112	-1.372574	-0.730037
C56	C	-0.436112	-0.872574	-0.230037
O57	O	-0.953171	-1.330721	-0.771832
O58	O	-0.453171	-0.830721	-0.271832
C59	C	-0.748431	-1.372537	-0.730102
C60	C	-0.248431	-0.872537	-0.230102
C61	C	-0.733442	-1.421746	-0.680958
C62	C	-0.233442	-0.921746	-0.180958
C63	C	-0.750380	-1.520160	-0.582653
C64	C	-0.250380	-1.020160	-0.082653
C65	C	-0.703462	-1.520155	-0.582676
C66	C	-0.203462	-1.020155	-0.082676
C67	C	-0.671534	-1.470946	-0.631840
C68	C	-0.171534	-0.970946	-0.131840
C69	C	-0.686524	-1.421742	-0.680981
C70	C	-0.186524	-0.921742	-0.180981
C71	C	-0.716500	-1.323317	-0.779261
C72	C	-0.216500	-0.823317	-0.279261
C73	C	-0.669578	-1.323310	-0.779271
C74	C	-0.169578	-0.823310	-0.279271
C75	C	-0.654589	-1.372519	-0.730127
C76	C	-0.154589	-0.872519	-0.230127
C77	C	-0.607679	-1.372529	-0.730167
C78	C	-0.107679	-0.872529	-0.230167
N79	N	-0.592686	-1.421727	-0.681018
N80	N	-0.092686	-0.921727	-0.181018
C81	C	-0.624614	-1.470936	-0.631854
C82	C	-0.124614	-0.970936	-0.131854
C83	C	-1.034648	-1.372599	-0.730001
C84	C	-0.534648	-0.872599	-0.230001
C85	C	-1.081568	-1.372609	-0.729986
C86	C	-0.581568	-0.872609	-0.229986
C87	C	-1.098505	-1.471021	-0.631671
C88	C	-0.598505	-0.971021	-0.131671
C89	C	-1.051584	-1.471016	-0.631691
C90	C	-0.551584	-0.971016	-0.131691
C91	C	-1.019656	-1.421797	-0.680852
C92	C	-0.519656	-0.921797	-0.180852
C93	C	-0.526083	-1.470924	-0.631906
C94	C	-0.026083	-0.970924	-0.131906
C95	C	-0.479160	-1.470918	-0.631936
C96	C	0.020840	-0.970918	-0.131936
C97	C	-0.462228	-1.372502	-0.730247
C98	C	0.037772	-0.872502	-0.230247
C99	C	-0.509147	-1.372511	-0.730222
C100	C	-0.009147	-0.872511	-0.230222
C101	C	-0.541074	-1.421724	-0.681044
C102	C	-0.041074	-0.921724	-0.181044
O103	O	-0.576178	-1.330725	-0.771981
O104	O	-0.076178	-0.830725	-0.271981
O105	O	-0.607547	-1.512766	-0.590049
O106	O	-0.107547	-1.012766	-0.090049
C107	C	-0.812288	-1.470960	-0.631772
C108	C	-0.312288	-0.970960	-0.131772
C109	C	-0.827278	-1.421755	-0.680913
C110	C	-0.327278	-0.921755	-0.180913
C111	C	-0.795350	-1.372546	-0.730077
C112	C	-0.295350	-0.872546	-0.230077
C113	C	-0.874198	-1.421766	-0.680898
C114	C	-0.374198	-0.921766	-0.180898
C115	C	-0.906126	-1.470975	-0.631735
C116	C	-0.406126	-0.970975	-0.131735
C117	C	-0.891133	-1.520173	-0.582586
C118	C	-0.391133	-1.020173	-0.082586
C119	C	-0.844216	-1.520169	-0.582608
C120	C	-0.344216	-1.020169	-0.082608
C121	C	-0.810342	-1.323348	-0.779226
C122	C	-0.310342	-0.823348	-0.279226
C123	C	-0.857261	-1.323357	-0.779200
C124	C	-0.357261	-0.823357	-0.279200
C125	C	-0.889188	-1.372566	-0.730036
C126	C	-0.389188	-0.872566	-0.230036
C127	C	-0.163400	-1.421693	-0.681052
C128	C	0.336600	-0.921693	-0.181052
C129	C	-0.113496	-1.421818	-0.680823
C130	C	0.386504	-0.921818	-0.180823
C131	C	-0.297377	-1.664272	-0.723178
C132	C	0.202623	-1.164272	-0.223178
C133	C	-0.304733	-1.767652	-0.741106
C134	C	0.195267	-1.267652	-0.241106
C135	C	-0.332623	-0.826540	-0.809088
C136	C	0.167377	-0.326540	-0.309088
C137	C	-0.339524	-0.923669	-0.825919
C138	C	0.160476	-0.423669	-0.325919
C139	C	-0.318538	-0.961918	-0.774763
C140	C	0.181462	-0.461918	-0.274763
C141	C	-0.290649	-0.903029	-0.706775
C142	C	0.209351	-0.403029	-0.206775
C143	C	-0.283745	-0.805892	-0.689948
C144	C	0.216255	-0.305892	-0.189948
C145	C	-0.269660	-0.941269	-0.655623
C146	C	0.230340	-0.441269	-0.155623
C147	C	-0.241771	-0.882380	-0.587634
C148	C	0.258229	-0.382380	-0.087634
C149	C	-0.234869	-0.785253	-0.570810
C150	C	0.265131	-0.285253	-0.070810
C151	C	-0.255855	-0.747004	-0.621966
C152	C	0.244145	-0.247004	-0.121966
C153	C	-0.276564	-1.038406	-0.672450
C154	C	0.223436	-0.538406	-0.172450
C155	C	-0.227686	-1.017758	-0.553309
C156	C	0.272314	-0.517758	-0.053309
C157	C	-0.220785	-0.920629	-0.536479
C158	C	0.279215	-0.420629	-0.036479
C159	C	-0.332716	-1.293950	-1.276334
C160	C	0.167284	-0.793950	-0.776334
C161	C	-0.339623	-1.277081	-1.179205
C162	C	0.160377	-0.777081	-0.679205
C163	C	-0.318604	-1.328160	-1.140924
C164	C	0.181396	-0.828160	-0.640924
C165	C	-0.290677	-1.396111	-1.199780
C166	C	0.209323	-0.896111	-0.699780
C167	C	-0.283773	-1.412986	-1.296919
C168	C	0.216227	-0.912986	-0.796919
C169	C	-0.269660	-1.447197	-1.161508
C170	C	0.230340	-0.947197	-0.661508
C171	C	-0.241734	-1.515148	-1.220365
C172	C	0.258266	-1.015148	-0.720365
C173	C	-0.234830	-1.532020	-1.317494
C174	C	0.265170	-1.032020	-0.817494
C175	C	-0.255849	-1.480941	-1.355776
C176	C	0.244151	-0.980941	-0.855776
C177	C	-0.276565	-1.430322	-1.064369
C178	C	0.223435	-0.930322	-0.564369
C179	C	-0.227621	-1.549359	-1.084954
C180	C	0.272379	-1.049359	-0.584954
C181	C	-0.220715	-1.566227	-1.182083
C182	C	0.279285	-1.066227	-0.682083
C183	C	-0.297419	-1.379764	-0.438553
C184	C	0.202581	-0.879764	0.061447
C185	C	-0.304793	-1.361904	-0.335191
C186	C	0.195207	-0.861904	0.164809
H187	H	-0.466959	-1.510993	-0.591917
H188	H	0.033041	-1.010993	-0.091917
C189	C	-0.326121	-1.068765	-0.793295
C190	C	0.173879	-0.568765	-0.293295
N191	N	-0.331832	-1.149248	-0.807260
N192	N	0.168168	-0.649248	-0.307260
C193	C	-0.326199	-1.309596	-1.034078
C194	C	0.173801	-0.809596	-0.534078
N195	N	-0.331918	-1.295606	-0.953596
N196	N	0.168082	-0.795606	-0.453596
H197	H	-0.250239	-0.667914	-0.608264
H198	H	0.249761	-0.167914	-0.108264
H199	H	-0.349829	-1.252373	-1.307514
H200	H	0.150171	-0.752373	-0.807514
C201	C	-0.355703	-0.784460	-0.865354
C202	C	0.144297	-0.284460	-0.365354
N203	N	-0.373088	-0.752764	-0.907738
N204	N	0.126912	-0.252764	-0.407738
H205	H	-0.362229	-0.971610	-0.881277
H206	H	0.137771	-0.471610	-0.381277
H207	H	-1.008656	-1.332521	-0.770040
H208	H	-0.508656	-0.832521	-0.270040
H209	H	-0.212155	-0.737309	-0.515459
H210	H	0.287845	-0.237309	-0.015459
C211	C	-0.561196	-1.525066	-0.577814
C212	C	-0.061196	-1.025066	-0.077814
N213	N	-0.587644	-1.565852	-0.537078
N214	N	-0.087644	-1.065852	-0.037078
C215	C	-0.190107	-0.855840	-0.461697
C216	C	0.309893	-0.355840	0.038303
N217	N	-0.166999	-0.807040	-0.405371
N218	N	0.333001	-0.307040	0.094629
C219	C	-0.732977	-1.269173	-0.833316
C220	C	-0.232977	-0.769173	-0.333316
N221	N	-0.745386	-1.228384	-0.874030
N222	N	-0.245386	-0.728384	-0.374030
C223	C	-0.248250	-1.499487	-1.462622
C224	C	0.251750	-0.999487	-0.962622
N225	N	-0.242527	-1.513452	-1.543100
N226	N	0.257473	-1.013452	-1.043100
C227	C	-1.098050	-1.318483	-0.784057
C228	C	-0.598050	-0.818483	-0.284057
N229	N	-1.110463	-1.277708	-0.824779
N230	N	-0.610463	-0.777708	-0.324779
H231	H	-0.212094	-1.587357	-1.365414
H232	H	0.287906	-1.087357	-0.865414
C233	C	-0.189997	-1.640972	-1.246837
C234	C	0.310003	-1.140972	-0.746837
N235	N	-0.166859	-1.697270	-1.295611
N236	N	0.333141	-1.197270	-0.795611
H237	H	-0.210596	-1.048899	-0.511656
H238	H	0.289404	-0.548899	-0.011656
H239	H	-0.299303	-1.374996	-1.016457
H240	H	0.200697	-0.874996	-0.516457
H241	H	-0.869459	-1.283288	-0.819228
H242	H	-0.369459	-0.783288	-0.319228
C243	C	-0.370364	-1.202379	-1.114478
C244	C	0.129636	-0.702379	-0.614478
N245	N	-0.393527	-1.146123	-1.065726
N246	N	0.106473	-0.646123	-0.565726
H247	H	-0.210507	-1.590954	-1.053787
H248	H	0.289493	-1.090954	-0.553787
H249	H	-0.832016	-1.560239	-0.542589
H250	H	-0.332016	-1.060239	-0.042589
H251	H	-0.436224	-1.332441	-0.770278
H252	H	0.063776	-0.832441	-0.270278
C253	C	-0.686981	-1.574275	-0.528597
C254	C	-0.186981	-1.074275	-0.028597
N255	N	-0.674571	-1.615034	-0.487856
N256	N	-0.174571	-1.115034	0.012144
H257	H	-0.521351	-1.332451	-0.770249
H258	H	-0.021351	-0.832451	-0.270249
C259	C	-1.035101	-1.525141	-0.577621
C260	C	-0.535101	-1.025141	-0.077621
N261	N	-1.022688	-1.565908	-0.536890
N262	N	-0.522688	-1.065908	-0.036890
C263	C	-0.785495	-1.574302	-0.528568
C264	C	-0.285495	-1.074302	-0.028568
N265	N	-0.811941	-1.615093	-0.487835
N266	N	-0.311941	-1.115093	0.012165
H267	H	-0.643584	-1.283217	-0.819293
H268	H	-0.143584	-0.783217	-0.319293
C269	C	-1.133634	-1.525145	-0.577584
C270	C	-0.633634	-1.025145	-0.077584
N271	N	-1.160095	-1.565902	-0.536841
N272	N	-0.660095	-1.065902	-0.036841
H273	H	-0.917138	-1.560244	-0.542559
H274	H	-0.417138	-1.060244	-0.042559
H275	H	-0.784350	-1.283276	-0.819263
H276	H	-0.284350	-0.783276	-0.319263
H277	H	-0.299271	-1.086345	-0.727806
H278	H	0.200729	-0.586345	-0.227806
