data_functionalizedCrystal
_audit_creation_method	'MofGen! by Chris Wilmer'
_symmetry_space_group_name_H-M	'P1'
_symmetry_Int_Tables_number	1
_symmetry_cell_setting	triclinic
loop_
_symmetry_equiv_pos_as_xyz
  x,y,z
_cell_length_a	10.489716
_cell_length_b	14.044220
_cell_length_c	12.503572
_cell_angle_alpha	86.150791
_cell_angle_beta	86.443252
_cell_angle_gamma	91.140993
loop_
_atom_site_label
_atom_site_type_symbol
_atom_site_fract_x
_atom_site_fract_y
_atom_site_fract_z
O1	O	1.700878	-0.139155	0.089316
O2	O	1.330954	-0.151742	0.089320
O3	O	1.510364	-0.007426	0.089308
O4	O	1.521468	-0.283471	0.089329
O5	O	1.523862	0.003441	-0.089335
O6	O	1.344452	-0.140875	-0.089322
O7	O	1.714375	-0.128288	-0.089327
Cu8	Cu	1.530646	-0.133589	-0.105636
Cu9	Cu	1.514684	-0.146441	0.105630
O10	O	1.534965	-0.272604	-0.089314
C11	C	1.290075	-0.145363	-0.000001
C12	C	1.148157	-0.142533	0.000001
C13	C	1.059459	-0.231033	0.000010
C14	C	0.984025	-0.178910	-0.088079
C15	C	0.970722	-0.189603	0.088049
C16	C	1.074598	-0.090443	-0.088161
C17	C	1.061296	-0.101154	0.088046
C18	C	0.985907	-0.048964	-0.000064
C19	C	1.512252	0.033355	-0.000014
C20	C	1.497753	0.138679	-0.000015
C21	C	1.755255	-0.134667	-0.000003
C22	C	1.897172	-0.137497	0.000002
N23	N	1.503457	-0.155473	0.254223
C24	C	1.533078	-0.313385	0.000010
C25	C	1.547577	-0.418709	0.000018
C26	C	1.471243	0.331519	0.000000
C27	C	1.574081	0.388457	0.000003
C28	C	1.559330	0.495759	0.000011
C29	C	1.485991	0.224206	-0.000008
N30	N	1.541883	-0.124550	-0.254229
C31	C	1.486930	-0.168759	0.473339
C32	C	1.558405	-0.111267	0.526661
C33	C	1.549209	-0.118659	0.648585
C34	C	1.496124	-0.161367	0.351404
H35	H	1.091941	-0.308009	-0.000066
Br36	Br	0.895184	-0.259447	0.212155
H37	H	1.372130	0.363358	0.000004
H38	H	1.418837	-0.223528	0.519252
H39	H	1.626501	-0.056493	0.480744
H40	H	0.949958	-0.211739	-0.162544
H41	H	1.119760	-0.048571	-0.162706
H42	H	0.953667	0.028076	-0.000121
Br43	Br	1.739290	0.335392	-0.000009
Br44	Br	1.118128	-0.046493	0.212167
