data_functionalizedCrystal
_audit_creation_method	'MofGen! by Chris Wilmer'
_symmetry_space_group_name_H-M	'P1'
_symmetry_Int_Tables_number	1
_symmetry_cell_setting	triclinic
loop_
_symmetry_equiv_pos_as_xyz
  x,y,z
_cell_length_a	14.971491
_cell_length_b	10.654550
_cell_length_c	13.448316
_cell_angle_alpha	90.002477
_cell_angle_beta	90.006926
_cell_angle_gamma	84.050569
loop_
_atom_site_label
_atom_site_type_symbol
_atom_site_fract_x
_atom_site_fract_y
_atom_site_fract_z
O1	O	1.187833	0.163685	0.082732
O2	O	0.927541	0.183277	0.082724
O3	O	1.063672	-0.009322	0.082725
O4	O	1.051702	0.356284	0.082732
O5	O	1.063658	-0.009324	-0.082659
O6	O	0.927527	0.183275	-0.082660
O7	O	1.187820	0.163683	-0.082652
Cu8	Cu	1.057672	0.173479	-0.097757
Cu9	Cu	1.057688	0.173481	0.097829
O10	O	1.051689	0.356282	-0.082652
C11	C	0.894204	0.182399	0.000031
C12	C	0.794893	0.179769	0.000028
C13	C	0.367133	0.168425	0.090202
C14	C	0.460447	0.170892	0.090198
C15	C	0.507092	0.172133	0.000044
C16	C	0.460420	0.170894	-0.090112
C17	C	0.367108	0.168418	-0.090107
C18	C	0.654910	0.176056	-0.090116
C19	C	0.748227	0.178534	-0.090121
C20	C	0.748248	0.178530	0.090190
C21	C	0.654937	0.176055	0.090195
C22	C	0.608271	0.174818	0.000038
C23	C	1.062786	-0.056112	0.000034
C24	C	1.060157	-0.195527	0.000037
C25	C	1.140308	-0.275870	0.000037
C26	C	1.137832	-0.406865	0.000043
C27	C	0.975046	-0.377159	0.000047
C28	C	0.977523	-0.246168	0.000048
C29	C	1.234292	-0.293022	0.000030
C30	C	1.231816	-0.424016	0.000037
C31	C	1.221156	0.164561	0.000043
C32	C	1.320467	0.167191	0.000053
C33	C	1.052574	0.403072	0.000041
C34	C	1.055204	0.542487	0.000044
N35	N	1.057667	0.173477	-0.235321
C36	C	1.112384	0.249774	-0.287354
C37	C	1.112396	0.249769	-0.391457
C38	C	1.057684	0.173472	-0.443525
C39	C	1.002964	0.097166	-0.391485
C40	C	1.002959	0.097165	-0.287384
C41	C	1.002979	0.097174	-0.608465
C42	C	1.002983	0.097176	-0.712574
C43	C	1.112415	0.249778	-0.712538
C44	C	1.112410	0.249777	-0.608437
C45	C	1.057689	0.173472	-0.556404
N46	N	1.057700	0.173473	0.235393
H47	H	0.616915	0.175065	-0.163531
H48	H	0.912255	-0.180755	0.000062
C49	C	0.799583	0.179884	0.189364
N50	N	0.838252	0.180907	0.264058
H51	H	1.264214	-0.257716	-0.071379
C52	C	0.884153	-0.432877	0.000048
N53	N	0.815691	-0.474842	0.000043
H54	H	0.329161	0.167424	0.163616
C55	C	0.799536	0.179886	-0.189295
N56	N	0.838182	0.180900	-0.263995
H57	H	0.616960	0.175053	0.163606
H58	H	1.267222	-0.466156	-0.069174
H59	H	1.271058	-0.264056	0.069239
C60	C	1.172596	0.333707	-0.551164
N61	N	1.217932	0.396920	-0.508025
C62	C	0.511728	0.172311	-0.189283
N63	N	0.550371	0.173403	-0.263981
H64	H	1.260225	-0.469962	0.071446
H65	H	0.498439	0.171890	0.163607
C66	C	0.315776	0.167065	-0.189279
N67	N	0.277113	0.166043	-0.263978
C68	C	1.172573	0.333708	-0.230088
N69	N	1.217913	0.396925	-0.186958
H70	H	1.156954	0.311895	-0.433817
C71	C	1.172614	0.333708	-0.769776
N72	N	1.217951	0.396924	-0.812893
H73	H	0.958420	0.035037	-0.566103
C74	C	0.942810	0.013228	-0.769847
N75	N	0.897490	-0.050009	-0.812986
H76	H	0.958422	0.035037	-0.433888
C77	C	0.942763	0.013235	-0.230149
N78	N	0.897423	-0.049986	-0.187040
