data_functionalizedCrystal
_audit_creation_method	'MofGen! by Chris Wilmer'
_symmetry_space_group_name_H-M	'P1'
_symmetry_Int_Tables_number	1
_symmetry_cell_setting	triclinic
loop_
_symmetry_equiv_pos_as_xyz
  x,y,z
_cell_length_a	16.704494
_cell_length_b	16.704494
_cell_length_c	23.196401
_cell_angle_alpha	90.013666
_cell_angle_beta	56.638822
_cell_angle_gamma	60.174770
loop_
_atom_site_label
_atom_site_type_symbol
_atom_site_fract_x
_atom_site_fract_y
_atom_site_fract_z
Zr1	Zr	0.790238	0.858061	-0.073137
O2	O	0.970595	0.732696	-0.176490
O3	O	0.619475	0.890227	-0.037417
O4	O	0.786003	0.899221	-0.163510
O5	O	0.804063	0.723735	0.044476
O6	O	0.771747	1.037706	-0.157863
O7	O	0.804068	0.723702	-0.050397
O8	O	0.473860	1.021618	0.067695
O9	O	1.101950	0.739823	-0.181082
O10	O	0.675520	1.014865	-0.022845
O11	O	0.686154	0.911540	0.043743
O12	O	0.882219	0.922129	-0.104715
O13	O	0.892854	0.818804	-0.038127
Zr14	Zr	0.767493	1.078982	0.087181
Zr15	Zr	0.767501	1.078929	-0.064130
Zr16	Zr	0.790229	0.858114	0.078174
Zr17	Zr	0.999733	0.869429	-0.080460
Zr18	Zr	0.557998	1.067614	0.094504
O19	O	0.938255	1.046816	0.051462
O20	O	0.938267	1.046741	-0.163684
O21	O	0.970583	0.732771	0.038655
O22	O	0.587135	1.204347	0.190534
O23	O	0.587147	1.204272	-0.024611
O24	O	0.619463	0.890302	0.177728
O25	O	0.753668	1.213308	-0.030431
O26	O	0.771728	1.037822	0.177554
O27	O	0.785983	0.899337	0.171907
O28	O	0.753662	1.213341	0.064441
O29	O	1.083877	0.915384	-0.173922
O30	O	0.473853	1.021659	0.187967
O31	O	0.455781	1.197220	0.195126
O32	O	0.455788	1.197178	0.074854
O33	O	1.101943	0.739865	-0.060809
O34	O	1.083870	0.915425	-0.053650
O35	O	0.675511	1.014914	0.118760
O36	O	0.664877	1.118239	0.052172
O37	O	0.871576	1.025503	-0.029698
O38	O	0.882211	0.922178	0.036890
C39	C	0.516819	0.954303	0.016182
C40	C	0.427883	0.949477	0.019291
C41	C	0.249641	1.048304	-0.044380
C42	C	0.166078	1.043773	-0.041461
C43	C	0.177184	0.935889	0.028053
C44	C	0.260748	0.940420	0.025134
C45	C	0.296975	0.996629	-0.011085
C46	C	0.380546	1.001154	-0.014008
C47	C	0.391645	0.893276	0.055509
C48	C	0.308081	0.888745	0.058428
C49	C	0.807305	0.692250	-0.004244
C50	C	0.816957	0.598486	-0.008067
C51	C	0.619281	0.519117	0.070238
C52	C	0.628345	0.431020	0.066647
C53	C	0.844146	0.334194	-0.018834
C54	C	0.835083	0.422291	-0.015244
C55	C	0.722646	0.514751	0.029293
C56	C	0.713584	0.602849	0.032879
C57	C	0.929385	0.506022	-0.052598
C58	C	0.938448	0.417925	-0.056189
C59	C	1.040911	0.982740	-0.002138
C60	C	1.129847	0.987566	-0.005246
C61	C	0.778876	0.968456	-0.182245
C62	C	0.778880	0.968433	-0.246481
C63	C	0.750426	1.244793	0.018288
C64	C	0.740773	1.338557	0.022112
C65	C	0.886771	0.920031	-0.319389
C66	C	0.886770	0.920057	-0.379743
C67	C	0.778873	0.968471	-0.367185
C68	C	0.670967	1.016885	-0.294264
C69	C	0.670970	1.016866	-0.233912
C70	C	0.701254	0.956554	-0.432074
C71	C	0.701256	0.956566	-0.492427
C72	C	0.778858	0.968536	-0.553330
C73	C	0.856479	0.980475	-0.553880
C74	C	0.856482	0.980456	-0.493528
C75	C	0.778857	0.968498	-0.432622
C76	C	0.886755	0.920160	-0.691684
C77	C	0.886749	0.920193	-0.752037
C78	C	0.670944	1.017014	-0.666556
C79	C	0.670952	1.016988	-0.606205
C80	C	0.778862	0.968555	-0.618774
C81	C	0.778854	0.968587	0.196289
C82	C	0.778851	0.968610	0.260525
C83	C	0.488379	1.230574	0.027448
C84	C	0.389791	1.319512	0.034381
C85	C	0.516808	0.954369	0.205449
C86	C	0.427869	0.949565	0.272794
C87	C	0.488369	1.230640	0.216715
C88	C	0.389777	1.319601	0.287883
C89	C	1.069362	0.706403	-0.202671
C90	C	1.167954	0.617442	-0.273839
C91	C	1.069351	0.706469	-0.013404
C92	C	1.167939	0.617531	-0.020336
C93	C	1.040922	0.982674	-0.191405
C94	C	1.129862	0.987478	-0.258749
C95	C	0.349049	1.307318	-0.001528
C96	C	0.256427	1.390878	0.004971
C97	C	0.204544	1.486629	0.047383
C98	C	0.245295	1.498822	0.083293
C99	C	0.337921	1.415264	0.076789
C100	C	0.380546	1.001270	0.343584
C101	C	0.296990	0.996753	0.406866
C102	C	0.260751	0.940537	0.399357
C103	C	0.308083	0.888826	0.328560
C104	C	0.391644	0.893338	0.265278
C105	C	0.337925	1.415321	0.286547
C106	C	0.245298	1.498918	0.353411
C107	C	0.204519	1.486792	0.421611
C108	C	0.256381	1.391062	0.422945
C109	C	0.349011	1.307467	0.356082
C110	C	1.219816	0.521722	-0.272503
C111	C	1.312469	0.438127	-0.339368
C112	C	1.353252	0.450253	-0.407568
C113	C	1.301385	0.545983	-0.408902
C114	C	1.208740	0.629577	-0.342038
C115	C	1.208690	0.629725	0.015566
C116	C	1.301335	0.546167	0.009050
C117	C	1.353221	0.450415	-0.033365
C118	C	1.312466	0.438223	-0.069271
C119	C	1.219829	0.521780	-0.062759
C120	C	1.166073	1.043703	-0.251216
C121	C	1.249628	1.048236	-0.314487
C122	C	1.296977	0.996537	-0.385289
C123	C	1.260758	0.940310	-0.392821
C124	C	1.177198	0.935784	-0.329551
H125	H	0.410044	1.046919	-0.043502
H126	H	0.279146	1.094064	-0.073877
Cl127	Cl	0.237500	1.061771	0.495860
Cl128	Cl	1.168603	0.506432	-0.107894
Cl129	Cl	0.985482	0.217950	-0.074807
H130	H	0.583096	1.056398	-0.546838
Cl131	Cl	0.603619	0.941585	-0.355486
H132	H	0.371081	1.425206	0.106036
H133	H	1.334502	0.556114	0.038293
Cl134	Cl	0.180114	1.619253	0.351716
Cl135	Cl	0.426081	1.071951	0.353043
Cl136	Cl	0.155699	0.934878	0.478920
H137	H	0.974621	0.880724	-0.701919
Cl138	Cl	0.106573	1.108741	-0.083317
H139	H	0.638057	0.946839	-0.491975
Cl140	Cl	1.106563	1.108707	-0.162215
H141	H	1.279108	1.094020	-0.308340
Cl142	Cl	0.131585	0.865272	0.073611
H143	H	1.013553	0.502473	-0.085941
H144	H	0.278565	0.843056	0.322457
H145	H	0.919674	0.990218	-0.603471
H146	H	0.430163	0.851236	0.207641
Cl147	Cl	0.477937	0.635354	0.126216
Cl148	Cl	1.143544	0.749908	-0.343731
Cl149	Cl	0.389177	1.430592	0.200818
Cl150	Cl	0.088064	1.591894	0.505663
H151	H	1.365016	1.000231	-0.436802
Cl152	Cl	1.320306	0.875312	-0.481837
Cl153	Cl	0.414179	1.187135	0.357776
H154	H	0.583116	1.056306	-0.284043
Cl155	Cl	1.022396	0.859344	-0.843699
H156	H	0.203038	1.576794	0.117824
H157	H	0.919682	0.990179	-0.493979
Cl158	Cl	0.205100	1.375834	0.508689
Cl159	Cl	0.451165	0.828299	0.097361
H160	H	1.354684	0.360187	-0.338267
Cl161	Cl	1.143486	0.750089	0.068888
H162	H	0.278570	0.842985	0.087919
Cl163	Cl	1.022415	0.859204	-0.471411
Cl164	Cl	1.168565	0.506451	-0.186774
Cl165	Cl	1.469721	0.345152	-0.491620
H166	H	1.334603	0.555845	-0.464439
H167	H	1.147726	0.889995	-0.335695
Cl168	Cl	0.572238	0.719084	0.088865
H169	H	1.428652	0.382386	-0.038661
H170	H	0.129122	1.554659	0.052673
Cl171	Cl	0.535299	1.077892	-0.650762
H172	H	0.544174	0.434583	0.099990
Cl173	Cl	1.377703	0.317841	-0.122587
H174	H	1.029990	0.342634	-0.092447
H175	H	0.583110	1.056282	-0.174544
H176	H	0.974639	0.880598	-0.329629
H177	H	0.391291	1.229360	-0.036073
H178	H	0.223260	1.380931	-0.024273
