data_functionalizedCrystal
_audit_creation_method	'MofGen! by Chris Wilmer'
_symmetry_space_group_name_H-M	'P1'
_symmetry_Int_Tables_number	1
_symmetry_cell_setting	triclinic
loop_
_symmetry_equiv_pos_as_xyz
  x,y,z
_cell_length_a	12.759400
_cell_length_b	10.686154
_cell_length_c	10.686551
_cell_angle_alpha	90.304699
_cell_angle_beta	94.405838
_cell_angle_gamma	85.604997
loop_
_atom_site_label
_atom_site_type_symbol
_atom_site_fract_x
_atom_site_fract_y
_atom_site_fract_z
Zn1	Zn	-0.256169	-1.972298	0.562499
Zn2	Zn	-0.446329	-1.956069	0.352739
Zn3	Zn	-0.283041	-1.746415	0.368803
Zn4	Zn	-0.444197	-1.762499	0.578505
O5	O	-0.357434	-1.859320	0.465636
O6	O	-0.271040	-2.145688	0.521252
O7	O	-0.436807	-1.914736	0.179323
O8	O	-0.132450	-1.776440	0.394522
O9	O	-0.410750	-2.133765	0.367142
O10	O	-0.112707	-1.942395	0.536829
O11	O	-0.316840	-1.760704	0.191126
O12	O	-0.314773	-1.573006	0.410042
O13	O	-0.407116	-1.803852	0.751928
O14	O	-0.433173	-1.584823	0.564110
O15	O	-0.268973	-1.957990	0.740168
O16	O	-0.593072	-1.930331	0.382663
O17	O	-0.591506	-1.788116	0.548532
C18	C	-0.376658	-1.533398	0.490557
C19	C	-0.384906	-1.393970	0.501248
C20	C	-0.630408	-1.859244	0.465616
C21	C	-0.747177	-1.859329	0.465640
C22	C	-0.802809	-1.933477	0.379354
C23	C	-0.912525	-1.933557	0.379387
C24	C	-0.910970	-1.785331	0.551997
C25	C	-0.801254	-1.785259	0.551969
C26	C	-0.748731	-2.007547	0.293026
C27	C	-0.804363	-2.081699	0.206731
C28	C	-0.914080	-2.081779	0.206764
C29	C	-0.968165	-2.007707	0.293091
C30	C	-0.083391	-1.859433	0.465682
C31	C	0.033390	-1.859482	0.465701
C32	C	-0.334809	-1.884525	0.792838
C33	C	-0.325167	-1.895266	0.932272
C34	C	-0.338131	-1.186514	0.440606
C35	C	-0.329893	-1.325942	0.429904
C36	C	-0.379891	-1.834286	0.139702
C37	C	-0.389222	-1.823788	0.000250
H38	H	-0.438316	-1.345544	0.570505
C39	C	-0.745463	-2.161987	0.113070
C40	C	-0.637474	-2.146025	0.131484
C41	C	-0.583187	-2.219956	0.045215
H42	H	-0.757003	-2.247735	0.124973
H43	H	-0.770341	-2.137198	0.030147
H44	H	-0.612604	-2.170821	0.214387
H45	H	-0.625903	-2.060293	0.119570
H46	H	-0.608065	-2.195167	-0.037709
H47	H	-0.594735	-2.305699	0.057125
H48	H	-0.509913	-2.209126	0.057689
C49	C	-0.258841	-1.390663	0.337458
C50	C	-0.319395	-1.459678	0.251250
C51	C	-0.253978	-1.519329	0.166082
H52	H	-0.225409	-1.329425	0.294003
H53	H	-0.206828	-1.445571	0.381622
H54	H	-0.371388	-1.404774	0.207090
H55	H	-0.352825	-1.520936	0.294668
H56	H	-0.201966	-1.574238	0.210246
H57	H	-0.220549	-1.458083	0.122637
H58	H	-0.295052	-1.566172	0.107587
H59	H	-0.659395	-2.007486	0.292986
C60	C	-0.974299	-2.162325	0.112941
C61	C	-0.903455	-2.227148	0.037318
C62	C	-0.958890	-2.301343	-0.049143
H63	H	-1.010504	-2.220777	0.156655
H64	H	-1.023745	-2.110218	0.061854
H65	H	-0.854027	-2.279251	0.088398
H66	H	-0.867247	-2.168727	-0.006424
H67	H	-1.008336	-2.249236	-0.100230
H68	H	-0.995093	-2.359788	-0.005419
H69	H	-0.910832	-2.345326	-0.100471
C70	C	-0.242324	-1.988032	0.996819
C71	C	-0.260066	-2.109722	0.955564
C72	C	-0.183782	-2.195209	1.015010
H73	H	-0.174226	-1.968240	0.976865
H74	H	-0.246655	-1.983280	1.085094
H75	H	-0.255725	-2.114470	0.867309
H76	H	-0.328149	-2.129554	0.975519
H77	H	-0.188113	-2.190457	1.103285
H78	H	-0.115689	-2.175406	0.995051
H79	H	-0.195815	-2.277786	0.987036
H80	H	-1.057503	-2.007789	0.293120
H81	H	-0.755959	-1.724883	0.622232
C82	C	-0.969885	-1.704943	0.645570
C83	C	-1.077880	-1.720850	0.627102
C84	C	-1.132185	-1.646799	0.713265
H85	H	-0.945084	-1.729638	0.728527
H86	H	-0.958279	-1.619213	0.633570
H87	H	-1.089479	-1.806561	0.639112
H88	H	-1.102711	-1.696147	0.544162
H89	H	-1.120579	-1.561070	0.701265
H90	H	-1.107376	-1.671501	0.796217
H91	H	-1.205466	-1.657573	0.700739
C92	C	-0.472243	-1.731424	0.935447
C93	C	-0.540517	-1.796699	0.854756
C94	C	-0.617001	-1.711655	0.795016
H95	H	-0.511250	-1.687979	0.996643
H96	H	-0.438800	-1.672908	0.888440
H97	H	-0.573957	-1.855193	0.901760
H98	H	-0.501540	-1.840140	0.793538
H99	H	-0.583559	-1.653138	0.748009
H100	H	-0.656000	-1.668214	0.856220
H101	H	-0.663328	-1.755930	0.740252
