data_functionalizedCrystal
_audit_creation_method	'MofGen! by Chris Wilmer'
_symmetry_space_group_name_H-M	'P1'
_symmetry_Int_Tables_number	1
_symmetry_cell_setting	triclinic
loop_
_symmetry_equiv_pos_as_xyz
  x,y,z
_cell_length_a	6.817900
_cell_length_b	7.076028
_cell_length_c	12.095871
_cell_angle_alpha	89.912975
_cell_angle_beta	105.449368
_cell_angle_gamma	62.299348
loop_
_atom_site_label
_atom_site_type_symbol
_atom_site_fract_x
_atom_site_fract_y
_atom_site_fract_z
V1	V	4.209377	-0.665217	0.156884
V2	V	4.709377	-0.165217	0.656884
O3	O	4.183262	-0.652331	-0.009419
O4	O	4.683262	-0.152331	0.490581
O5	O	4.169409	-0.660882	0.312883
O6	O	4.669409	-0.160882	0.812883
O7	O	4.236167	-0.955243	0.153646
O8	O	4.736167	-0.455243	0.653646
O9	O	4.116042	-0.355932	0.150921
O10	O	4.616042	0.144068	0.650921
V11	V	4.682170	-0.628198	0.137090
V12	V	5.182170	-0.128198	0.637090
O13	O	4.494174	-0.746421	0.200305
O14	O	4.994174	-0.246421	0.700305
O15	O	4.847570	-0.546994	0.093669
O16	O	5.347570	-0.046994	0.593669
O17	O	4.498931	-0.632533	-0.018909
O18	O	4.998931	-0.132533	0.481091
O19	O	4.825681	-0.641084	0.303393
O20	O	5.325681	-0.141084	0.803393
O21	O	4.892901	-0.937483	0.143053
O22	O	5.392901	-0.437483	0.643053
O23	O	4.432173	-0.338172	0.140328
O24	O	4.932173	0.161828	0.640328
C25	C	4.317653	-0.642966	-0.056958
C26	C	4.817653	-0.142966	0.443042
C27	C	4.247786	-0.644590	-0.184483
C28	C	4.747786	-0.144590	0.315517
C29	C	4.232482	-0.267476	0.146162
C30	C	4.732482	0.232524	0.646162
C31	C	4.106149	-0.025920	0.147806
C32	C	4.606149	0.474080	0.647806
C33	C	4.191039	-0.645901	-0.288049
C34	C	4.691039	-0.145901	0.211951
C35	C	4.119858	-0.647533	-0.417977
C36	C	4.619858	-0.147533	0.082023
C37	C	4.014028	-0.650444	0.350938
C38	C	4.514028	-0.150444	0.850938
C39	C	4.063137	-0.648833	0.478465
C40	C	4.563137	-0.148833	0.978465
