data_functionalizedCrystal
_audit_creation_method	'MofGen! by Chris Wilmer'
_symmetry_space_group_name_H-M	'P1'
_symmetry_Int_Tables_number	1
_symmetry_cell_setting	triclinic
loop_
_symmetry_equiv_pos_as_xyz
  x,y,z
_cell_length_a	17.077404
_cell_length_b	12.759394
_cell_length_c	17.077396
_cell_angle_alpha	90.026316
_cell_angle_beta	90.018362
_cell_angle_gamma	90.012807
loop_
_atom_site_label
_atom_site_type_symbol
_atom_site_fract_x
_atom_site_fract_y
_atom_site_fract_z
Zn1	Zn	1.200099	-0.418323	0.443831
Zn2	Zn	1.200024	-0.594024	0.312570
Zn3	Zn	1.068830	-0.418353	0.312581
Zn4	Zn	1.068817	-0.593955	0.443796
O5	O	1.134442	-0.506164	0.378194
O6	O	1.309936	-0.441647	0.426428
O7	O	1.182595	-0.570762	0.202724
O8	O	1.086280	-0.271328	0.330011
O9	O	1.309881	-0.570733	0.329991
O10	O	1.182722	-0.271306	0.426440
O11	O	1.086208	-0.441698	0.202733
O12	O	0.958982	-0.441631	0.329977
O13	O	1.086257	-0.570615	0.553647
O14	O	0.958972	-0.570644	0.426380
O15	O	1.182709	-0.441580	0.553673
O16	O	1.182582	-0.741036	0.329958
O17	O	1.086185	-0.740985	0.426369
C18	C	0.930495	-0.506134	0.378177
C19	C	0.843245	-0.506147	0.378188
C20	C	0.802284	-0.439051	0.428479
C21	C	0.720303	-0.439058	0.428483
C22	C	0.679285	-0.506166	0.378198
C23	C	0.720252	-0.573265	0.327902
C24	C	0.802231	-0.573252	0.327895
C25	C	0.549382	-0.573289	0.327921
C26	C	0.467397	-0.573303	0.327929
C27	C	0.467454	-0.439094	0.428509
C28	C	0.549433	-0.439081	0.428502
C29	C	0.590394	-0.506182	0.378206
C30	C	1.134395	-0.779131	0.378175
C31	C	1.134447	-0.895908	0.378193
C32	C	1.234901	-0.895908	0.277876
C33	C	1.285148	-0.950768	0.227726
C34	C	1.285194	-1.060490	0.227747
C35	C	1.234989	-1.115353	0.277925
C36	C	1.184742	-1.060493	0.328075
C37	C	1.184700	-0.950769	0.328047
C38	C	1.084293	-1.060493	0.428396
C39	C	1.084242	-0.950772	0.428372
C40	C	1.034088	-1.115357	0.478574
C41	C	0.983835	-1.060496	0.528721
C42	C	0.983791	-0.950768	0.528697
C43	C	1.033994	-0.895911	0.478521
C44	C	1.339187	-0.506195	0.378212
C45	C	1.426436	-0.506208	0.378220
C46	C	1.134490	-0.506086	0.582939
C47	C	1.134510	-0.506054	0.670189
C48	C	1.134511	-0.232130	0.378231
C49	C	1.134540	-0.115354	0.378246
C50	C	1.134440	-0.506165	0.174246
C51	C	1.134572	-0.505902	0.086997
C52	C	1.184735	-0.438859	0.711193
C53	C	1.184744	-0.438824	0.793174
C54	C	1.134532	-0.505990	0.834148
C55	C	1.084302	-0.573187	0.793138
C56	C	1.084290	-0.573216	0.711159
C57	C	1.084334	-0.573124	0.964008
C58	C	1.084348	-0.573097	1.045992
C59	C	1.184788	-0.438732	1.046023
C60	C	1.184776	-0.438761	0.964044
C61	C	1.134546	-0.505960	0.923039
H62	H	0.434003	-0.627950	0.286983
H63	H	1.043459	-0.627786	1.079351
H64	H	1.225625	-0.384168	0.677838
H65	H	1.225644	-0.384110	0.826556
C66	C	0.675250	-0.365250	0.483810
N67	N	0.641317	-0.309655	0.525485
C68	C	1.235047	-1.236050	0.277950
N69	N	1.235089	-1.326960	0.277968
H70	H	1.225667	-0.384075	0.930685
C71	C	1.234848	-0.775211	0.277840
N72	N	1.234809	-0.684301	0.277812
C73	C	1.340369	-0.890411	0.172530
N74	N	1.381962	-0.844952	0.130957
H75	H	0.582828	-0.384442	0.469453
C76	C	1.034138	-1.236053	0.478594
N77	N	1.034172	-1.326964	0.478607
C78	C	0.847396	-0.365224	0.483796
N79	N	0.881373	-0.309611	0.525460
H80	H	1.225686	-0.384014	1.079413
C81	C	1.029082	-0.647050	0.918904
N82	N	0.987470	-0.702736	0.884932
C83	C	1.029040	-0.647137	0.666054
N84	N	0.987423	-0.702815	0.632082
H85	H	0.434100	-0.384457	0.469461
C86	C	1.033954	-0.775214	0.478494
N87	N	1.033929	-0.684304	0.478475
H88	H	0.582730	-0.627927	0.286963
C89	C	0.675129	-0.647084	0.272587
N90	N	0.641143	-0.702689	0.230925
H91	H	0.835580	-0.627888	0.286942
H92	H	1.326114	-1.105157	0.186915
C93	C	0.928614	-1.120852	0.583909
N94	N	0.887019	-1.166317	0.625476
H95	H	0.942876	-0.906106	0.569538
H96	H	1.043416	-0.627871	0.826505
