data_functionalizedCrystal
_audit_creation_method	'MofGen! by Chris Wilmer'
_symmetry_space_group_name_H-M	'P1'
_symmetry_Int_Tables_number	1
_symmetry_cell_setting	triclinic
loop_
_symmetry_equiv_pos_as_xyz
  x,y,z
_cell_length_a	14.519709
_cell_length_b	12.996460
_cell_length_c	14.519709
_cell_angle_alpha	90.007090
_cell_angle_beta	96.319855
_cell_angle_gamma	90.000034
loop_
_atom_site_label
_atom_site_type_symbol
_atom_site_fract_x
_atom_site_fract_y
_atom_site_fract_z
O1	O	1.223869	-0.085435	-0.120893
O2	O	1.723869	0.414565	0.379107
O3	O	0.955392	-0.085467	-0.135129
O4	O	1.455392	0.414533	0.364871
O5	O	1.096749	-0.085441	0.006227
O6	O	1.596749	0.414559	0.506227
O7	O	1.082512	-0.085461	-0.262250
O8	O	1.582512	0.414539	0.237750
O9	O	1.096734	0.085693	0.006235
O10	O	1.596734	0.585693	0.506235
O11	O	0.955377	0.085667	-0.135122
O12	O	1.455377	0.585667	0.364878
O13	O	1.223854	0.085699	-0.120885
O14	O	1.723854	0.585699	0.379115
Cu15	Cu	1.089614	0.101309	-0.128003
Cu16	Cu	1.589614	0.601309	0.371997
Cu17	Cu	1.089632	-0.101077	-0.128012
Cu18	Cu	1.589632	0.398923	0.371988
O19	O	1.082497	0.085673	-0.262242
O20	O	1.582497	0.585673	0.237758
C21	C	0.921025	0.000096	-0.134462
C22	C	1.421025	0.500096	0.365538
C23	C	0.818643	0.000084	-0.132474
C24	C	1.318643	0.500084	0.367526
N25	N	1.089609	0.243656	-0.127996
N26	N	1.589609	0.743656	0.372004
N27	N	1.089644	-0.243424	-0.128012
N28	N	1.589644	0.256576	0.371988
C29	C	0.443748	0.000132	-0.125154
C30	C	0.943748	0.500132	0.374846
C31	C	0.548056	0.000118	-0.127187
C32	C	1.048056	0.500118	0.372813
C33	C	0.631192	0.000107	-0.128814
C34	C	1.131192	0.500107	0.371186
C35	C	0.735507	0.000095	-0.130847
C36	C	1.235507	0.500095	0.369153
C37	C	1.258221	0.000134	-0.121553
C38	C	1.758221	0.500134	0.378447
C39	C	1.360602	0.000139	-0.123541
C40	C	1.860602	0.500139	0.376459
C41	C	1.096078	0.000126	0.040591
C42	C	1.596078	0.500126	0.540591
C43	C	1.094090	0.000126	0.142972
C44	C	1.594090	0.500126	0.642972
C45	C	1.089630	0.663470	-0.128013
C46	C	1.589630	1.163470	0.371987
C47	C	1.089622	0.546665	-0.128011
C48	C	1.589622	1.046665	0.371989
C49	C	1.089620	0.453567	-0.128005
C50	C	1.589620	0.953567	0.371995
C51	C	1.089610	0.336754	-0.128002
C52	C	1.589610	0.836754	0.371998
C53	C	1.083168	0.000103	-0.296605
C54	C	1.583168	0.500103	0.203395
C55	C	1.085156	0.000096	-0.398987
C56	C	1.585156	0.500096	0.101013
C57	C	1.086770	0.000099	0.517868
C58	C	1.586770	0.500099	1.017868
C59	C	1.088803	0.000107	0.413560
C60	C	1.588803	0.500107	0.913560
C61	C	1.090430	0.000114	0.330423
C62	C	1.590430	0.500114	0.830423
C63	C	1.092463	0.000120	0.226109
C64	C	1.592463	0.500120	0.726109
