data_functionalizedCrystal
_audit_creation_method	'MofGen! by Chris Wilmer'
_symmetry_space_group_name_H-M	'P1'
_symmetry_Int_Tables_number	1
_symmetry_cell_setting	triclinic
loop_
_symmetry_equiv_pos_as_xyz
  x,y,z
_cell_length_a	15.538191
_cell_length_b	17.699083
_cell_length_c	16.176319
_cell_angle_alpha	89.999648
_cell_angle_beta	89.990661
_cell_angle_gamma	65.277554
loop_
_atom_site_label
_atom_site_type_symbol
_atom_site_fract_x
_atom_site_fract_y
_atom_site_fract_z
O1	O	1.250479	-0.245973	-0.068786
O2	O	0.976020	-0.158526	-0.068775
O3	O	1.121003	-0.314557	-0.068789
O4	O	1.105495	-0.089941	-0.068772
O5	O	1.120983	-0.314559	0.068705
O6	O	0.976000	-0.158528	0.068719
O7	O	1.250459	-0.245975	0.068707
Cu8	Cu	1.113227	-0.202251	0.081267
Cu9	Cu	1.113251	-0.202249	-0.081334
O10	O	1.105475	-0.089943	0.068721
C11	C	0.940893	-0.149378	-0.000027
C12	C	0.836257	-0.122125	-0.000023
C13	C	0.549086	-0.392872	-0.000056
C14	C	0.450762	-0.367245	-0.000055
C15	C	0.427989	-0.223099	-0.000044
C16	C	0.526313	-0.248714	-0.000041
C17	C	0.586855	-0.333602	-0.000049
C18	C	0.564082	-0.189444	-0.000033
C19	C	0.662398	-0.215057	-0.000035
C20	C	0.722945	-0.299940	-0.000045
C21	C	0.685171	-0.359215	-0.000050
C22	C	0.503539	-0.104556	-0.000032
C23	C	0.541308	-0.045286	-0.000024
C24	C	0.639625	-0.070899	-0.000020
C25	C	0.700173	-0.155782	-0.000030
C26	C	0.677400	-0.011624	-0.000015
C27	C	0.775716	-0.037238	-0.000016
C28	C	0.798489	-0.181396	-0.000031
C29	C	1.120438	-0.342603	-0.000046
C30	C	1.118771	-0.426166	-0.000057
C31	C	1.285585	-0.255123	-0.000042
C32	C	1.390221	-0.282375	-0.000051
C33	C	1.106041	-0.061897	-0.000023
C34	C	1.107708	0.021665	-0.000017
C35	C	1.022605	0.093540	-0.000014
C36	C	1.024178	0.172054	-0.000024
C37	C	1.110853	0.178691	-0.000031
C38	C	1.195962	0.106808	-0.000037
C39	C	1.194389	0.028296	-0.000033
C40	C	1.202307	0.423438	-0.000053
C41	C	1.203874	0.501958	-0.000055
C42	C	1.032096	0.567195	-0.000044
C43	C	1.030523	0.488683	-0.000040
C44	C	1.115632	0.416807	-0.000050
C45	C	1.113926	0.331674	-0.000041
C46	C	1.112559	0.263822	-0.000034
N47	N	1.113218	-0.202255	0.195632
N48	N	1.113268	-0.202253	-0.195700
C49	C	1.177436	-0.271330	0.238890
C50	C	1.177441	-0.271332	0.325438
C51	C	1.113231	-0.202256	0.368725
C52	C	1.049006	-0.133177	0.325461
C53	C	1.048998	-0.133178	0.238915
C54	C	1.049038	-0.133172	0.674489
C55	C	1.049054	-0.133175	0.761041
C56	C	1.177481	-0.271326	0.761011
C57	C	1.177473	-0.271327	0.674466
C58	C	1.113245	-0.202250	0.631209
C59	C	1.113239	-0.202249	0.537365
C60	C	1.113240	-0.202254	0.462568
H61	H	0.952024	0.088145	0.000002
O62	O	0.946385	0.482132	-0.000146
C63	C	0.844905	0.431392	-0.071402
C64	C	0.940234	0.438732	-0.071370
H65	H	0.839892	0.396320	-0.128989
H66	H	0.839847	0.396225	-0.013900
H67	H	0.784365	0.496260	-0.071363
H68	H	1.000829	0.373898	-0.071438
H69	H	0.945210	0.473942	-0.128867
H70	H	0.962797	0.625727	-0.000039
H71	H	0.492002	0.023830	-0.000022
O72	O	1.239846	-0.338515	0.196973
C73	C	1.367268	-0.475528	0.206088
C74	C	1.296626	-0.399502	0.253659
H75	H	1.413206	-0.524849	0.251898
H76	H	1.326709	-0.502270	0.165604
H77	H	1.414232	-0.455719	0.165534
H78	H	1.249644	-0.419245	0.294258
H79	H	1.337244	-0.372777	0.294091
H80	H	1.263688	-0.030226	-0.000039
H81	H	0.806467	0.011026	-0.000002
H82	H	1.229761	-0.327573	0.639224
H83	H	1.271608	0.364924	-0.000057
H84	H	0.420016	-0.415517	-0.000063
H85	H	1.274460	0.507354	-0.000062
O86	O	0.607941	-0.475324	0.000087
C87	C	0.732190	-0.587890	0.071287
C88	C	0.665579	-0.494511	0.071238
H89	H	0.778822	-0.603429	0.128797
H90	H	0.688355	-0.625897	0.071340
H91	H	0.778754	-0.603464	0.013719
H92	H	0.619002	-0.478859	0.128797
H93	H	0.709471	-0.456555	0.071142
O94	O	1.280077	0.113401	-0.000008
C95	C	1.358634	0.205436	-0.000062
C96	C	1.263307	0.198092	-0.000080
H97	H	1.345109	0.273904	-0.000138
H98	H	1.400687	0.173967	0.057490
H99	H	1.400687	0.173864	-0.057592
H100	H	1.221177	0.229670	0.057411
H101	H	1.221326	0.229539	-0.057670
H102	H	1.229776	-0.327574	0.796240
H103	H	1.229731	-0.327579	0.360658
O104	O	0.986580	-0.066020	0.802964
C105	C	0.859215	0.071025	0.793865
C106	C	0.929895	-0.004974	0.746285
H107	H	0.813381	0.120408	0.748061
H108	H	0.812155	0.051287	0.834376
H109	H	0.899839	0.097666	0.834393
H110	H	0.889349	-0.031650	0.705712
H111	H	0.976955	0.014812	0.705826
O112	O	0.369214	-0.140634	-0.000183
C113	C	0.319719	-0.009571	-0.071370
C114	C	0.386318	-0.102953	-0.071328
H115	H	0.333538	0.020925	-0.128876
H116	H	0.242944	-0.001396	-0.071425
H117	H	0.333417	0.020903	-0.013797
H118	H	0.372705	-0.133487	-0.128891
H119	H	0.463071	-0.111069	-0.071230
H120	H	0.734468	-0.428339	-0.000051
O121	O	0.986789	-0.066069	0.632391
C122	C	0.966480	0.042911	0.534734
C123	C	1.037080	-0.033088	0.582346
H124	H	1.007113	0.069609	0.494275
H125	H	0.919468	0.023179	0.494171
H126	H	0.920583	0.092249	0.580563
H127	H	1.083039	-0.082458	0.536577
H128	H	1.084027	-0.013291	0.622922
O129	O	0.941422	0.241789	0.000023
C130	C	0.770870	0.298212	0.000000
C131	C	0.864524	0.219170	-0.000034
H132	H	0.708674	0.279953	-0.000063
H133	H	0.767245	0.336607	0.057553
H134	H	0.767363	0.336599	-0.057528
H135	H	0.868094	0.180717	0.057456
H136	H	0.868110	0.180837	-0.057625
H137	H	0.996721	-0.076935	0.360711
H138	H	0.803000	-0.320793	-0.000057
O139	O	0.986583	-0.065995	0.197020
C140	C	0.859159	0.071017	0.206177
C141	C	0.929812	-0.005005	0.253725
H142	H	0.813227	0.120340	0.252003
H143	H	0.899708	0.097759	0.165668
H144	H	0.812189	0.051203	0.165651
H145	H	0.976799	0.014742	0.294297
H146	H	0.889203	-0.031730	0.294182
O147	O	0.618489	0.070807	-0.000123
C148	C	0.494327	0.183393	-0.071381
C149	C	0.560973	0.090022	-0.071351
H150	H	0.447822	0.198961	-0.128972
H151	H	0.447647	0.199017	-0.013882
H152	H	0.538229	0.221340	-0.071334
H153	H	0.517146	0.052012	-0.071427
H154	H	0.607656	0.074464	-0.128844
H155	H	0.847785	-0.250520	-0.000032
H156	H	0.423484	-0.083705	-0.000034
