data_functionalizedCrystal
_audit_creation_method	'MofGen! by Chris Wilmer'
_symmetry_space_group_name_H-M	'P1'
_symmetry_Int_Tables_number	1
_symmetry_cell_setting	triclinic
loop_
_symmetry_equiv_pos_as_xyz
  x,y,z
_cell_length_a	13.448316
_cell_length_b	14.971475
_cell_length_c	14.971486
_cell_angle_alpha	83.611904
_cell_angle_beta	90.006811
_cell_angle_gamma	90.005879
loop_
_atom_site_label
_atom_site_type_symbol
_atom_site_fract_x
_atom_site_fract_y
_atom_site_fract_z
O1	O	-0.082672	-1.186953	-0.116518
O2	O	-0.082679	-0.926552	-0.130487
O3	O	-0.082668	-1.063732	0.006697
O4	O	-0.082683	-1.049773	-0.253703
O5	O	0.082716	-1.063715	0.006706
O6	O	0.082705	-0.926535	-0.130479
O7	O	0.082712	-1.186936	-0.116510
Cu8	Cu	0.097809	-1.056734	-0.123494
Cu9	Cu	-0.097776	-1.056754	-0.123504
O10	O	0.082701	-1.049756	-0.253695
C11	C	0.000013	-0.893218	-0.129860
C12	C	0.000010	-0.793921	-0.127993
N13	N	0.235374	-1.056726	-0.123486
C14	C	0.090162	-0.747267	-0.127109
C15	C	0.090162	-0.653968	-0.125341
C16	C	0.000010	-0.607324	-0.124463
C17	C	-0.090148	-0.653985	-0.125344
C18	C	-0.090148	-0.747283	-0.127106
C19	C	-0.090143	-0.459523	-0.121674
C20	C	-0.090144	-0.366218	-0.119914
C21	C	0.090167	-0.366207	-0.119909
C22	C	0.090168	-0.459505	-0.121671
C23	C	0.000009	-0.506160	-0.122554
N24	N	-0.235340	-1.056769	-0.123504
C25	C	0.287419	-1.117488	-0.062766
C26	C	0.391522	-1.117494	-0.062765
C27	C	0.443578	-1.056741	-0.123490
C28	C	0.391526	-0.995972	-0.184213
C29	C	0.287425	-0.995963	-0.184209
C30	C	0.608506	-0.995997	-0.184219
C31	C	0.712615	-0.996007	-0.184225
C32	C	0.712603	-1.117528	-0.062775
C33	C	0.608502	-1.117519	-0.062771
C34	C	0.556457	-1.056751	-0.123496
C35	C	0.000024	-1.063099	0.040026
C36	C	0.000023	-1.061228	0.139323
C37	C	0.000017	-0.220269	-0.117144
C38	C	0.000008	-0.319564	-0.119030
C39	C	0.000007	-1.050389	-0.287024
C40	C	0.000002	-1.052260	-0.386321
C41	C	0.000025	-1.141818	0.196552
C42	C	0.000015	-1.140055	0.289851
C43	C	0.000010	-1.057701	0.325920
C44	C	0.000004	-0.977106	0.268685
C45	C	0.000007	-0.978870	0.175387
C46	C	0.000000	-0.973434	0.463147
C47	C	-0.000001	-0.971670	0.556451
C48	C	0.000009	-1.134620	0.577611
C49	C	0.000012	-1.136384	0.484314
C50	C	0.000008	-1.055788	0.427084
H51	H	0.163574	-0.785236	-0.127832
C52	C	0.000006	-0.890215	0.112435
N53	N	0.000003	-0.823437	0.065021
C54	C	0.189336	-0.602650	-0.124390
N55	N	0.264039	-0.563997	-0.123680
C56	C	0.189343	-0.314887	-0.118931
N57	N	0.264040	-0.276228	-0.118197
C58	C	0.551242	-1.184350	0.004029
N59	N	0.508114	-1.234686	0.054347
H60	H	-0.163560	-0.497506	-0.122393
H61	H	0.245050	-0.946483	-0.233652
H62	H	0.566134	-0.946510	-0.233665
H63	H	-0.163558	-0.785268	-0.127828
H64	H	-0.163553	-0.328243	-0.119199
H65	H	-0.163551	-0.616001	-0.124623
H66	H	0.433916	-0.946501	-0.233653
H67	H	0.000036	-1.208880	0.167192
H68	H	0.163578	-0.497479	-0.122391
C69	C	0.000023	-1.226977	0.444640
N70	N	0.000028	-1.295213	0.414758
H71	H	0.000020	-1.205679	0.336444
C72	C	0.000005	-1.223277	0.640565
N73	N	0.000005	-1.290050	0.687986
H74	H	0.000011	-0.904610	0.585815
C75	C	0.230166	-1.184322	0.004038
N76	N	0.187047	-1.234661	0.054360
C77	C	0.769855	-1.184370	0.004026
N78	N	0.812981	-1.234715	0.054337
H79	H	-0.000005	-0.907804	0.416552
H80	H	-0.000007	-0.910052	0.298059
H81	H	0.433897	-1.166970	-0.013321
C82	C	0.769875	-0.929170	-0.251020
N83	N	0.813003	-0.878826	-0.301329
