data_functionalizedCrystal
_audit_creation_method	'MofGen! by Chris Wilmer'
_symmetry_space_group_name_H-M	'P1'
_symmetry_Int_Tables_number	1
_symmetry_cell_setting	triclinic
loop_
_symmetry_equiv_pos_as_xyz
  x,y,z
_cell_length_a	12.827893
_cell_length_b	19.121627
_cell_length_c	12.827885
_cell_angle_alpha	87.594616
_cell_angle_beta	89.980728
_cell_angle_gamma	92.401555
loop_
_atom_site_label
_atom_site_type_symbol
_atom_site_fract_x
_atom_site_fract_y
_atom_site_fract_z
Zn1	Zn	1.615250	0.279554	-0.608560
Zn2	Zn	1.948583	0.612888	-0.275227
Zn3	Zn	2.281917	0.946221	0.058107
Zn4	Zn	1.622530	0.397012	-0.441262
Zn5	Zn	1.955864	0.730345	-0.107929
Zn6	Zn	2.289197	1.063678	0.225405
Zn7	Zn	1.440493	0.279589	-0.433836
Zn8	Zn	1.773827	0.612922	-0.100503
Zn9	Zn	2.107160	0.946255	0.232831
Zn10	Zn	1.447860	0.396960	-0.615959
Zn11	Zn	1.781193	0.730293	-0.282625
Zn12	Zn	2.114526	1.063627	0.050708
O13	O	1.531533	0.338279	-0.524904
O14	O	1.864867	0.671612	-0.191571
O15	O	2.198200	1.004945	0.141763
O16	O	1.762452	0.295142	-0.586379
O17	O	2.095785	0.628476	-0.253046
O18	O	2.429119	0.961809	0.080288
O19	O	1.598347	0.381472	-0.294043
O20	O	1.931680	0.714805	0.039290
O21	O	2.265014	1.048138	0.372624
O22	O	1.457545	0.181308	-0.450809
O23	O	1.790879	0.514641	-0.117476
O24	O	2.124212	0.847974	0.215857
O25	O	1.767801	0.381438	-0.463466
O26	O	2.101134	0.714771	-0.130133
O27	O	2.434468	1.048105	0.203201
O28	O	1.585938	0.181282	-0.579178
O29	O	1.919272	0.514616	-0.245845
O30	O	2.252605	0.847949	0.087488
O31	O	1.464605	0.295201	-0.288587
O32	O	1.797938	0.628535	0.044746
O33	O	2.131272	0.961868	0.378080
O34	O	1.295234	0.295151	-0.457983
O35	O	1.628567	0.628484	-0.124650
O36	O	1.961901	0.961818	0.208683
O37	O	1.470100	0.381350	-0.761211
O38	O	1.803434	0.714683	-0.427878
O39	O	2.136767	1.048016	-0.094544
O40	O	1.300646	0.381383	-0.591788
O41	O	1.633979	0.714716	-0.258455
O42	O	1.967313	1.048050	0.074879
O43	O	1.593081	0.295092	-0.755775
O44	O	1.926414	0.628425	-0.422442
O45	O	2.259748	0.961759	-0.089109
O46	O	1.605490	0.495282	-0.470640
O47	O	1.938823	0.828615	-0.137307
O48	O	2.272157	1.161948	0.196027
O49	O	1.477160	0.495243	-0.598989
O50	O	1.810493	0.828577	-0.265656
O51	O	2.143827	1.161910	0.067678
C52	C	1.260023	0.338266	-0.524883
C53	C	1.593356	0.671599	-0.191550
C54	C	1.926689	1.004932	0.141783
C55	C	1.143870	0.338277	-0.524900
C56	C	1.477204	0.671610	-0.191567
C57	C	1.810537	1.004944	0.141766
C58	C	0.974685	0.380924	-0.464010
C59	C	1.308018	0.714257	-0.130676
C60	C	1.641351	1.047591	0.202657
C61	C	1.094734	0.380913	-0.463991
C62	C	1.428068	0.714247	-0.130657
C63	C	1.761401	1.047580	0.202676
C64	C	1.542943	0.520744	-0.536446
C65	C	1.876276	0.854078	-0.203113
C66	C	2.209609	1.187411	0.130221
C67	C	1.547919	0.598804	-0.541419
C68	C	1.881253	0.932137	-0.208085
C69	C	2.214586	1.265471	0.125248
C70	C	1.579499	1.040290	-0.572919
C71	C	1.912833	1.373623	-0.239586
C72	C	2.246166	1.706957	0.093748
C73	C	1.574812	0.966945	-0.568237
C74	C	1.908145	1.300278	-0.234904
C75	C	2.241478	1.633611	0.098429
C76	C	1.505674	0.930351	-0.499017
C77	C	1.839007	1.263685	-0.165684
C78	C	2.172341	1.597018	0.167650
C79	C	1.441227	0.967107	-0.434467
C80	C	1.774561	1.300441	-0.101133
C81	C	2.107894	1.633774	0.232200
C82	C	1.445921	1.040451	-0.439144
C83	C	1.779254	1.373785	-0.105810
C84	C	2.112588	1.707118	0.227523
C85	C	1.488166	0.708904	-0.481545
C86	C	1.821499	1.042237	-0.148212
C87	C	2.154833	1.375571	0.185122
C88	C	1.483475	0.635555	-0.476875
C89	C	1.816808	0.968888	-0.143542
C90	C	2.150142	1.302222	0.189791
C91	C	1.617062	0.635397	-0.610645
C92	C	1.950395	0.968731	-0.277312
C93	C	2.283728	1.302064	0.056022
C94	C	1.621744	0.708743	-0.615320
C95	C	1.955078	1.042076	-0.281987
C96	C	2.288411	1.375409	0.051346
C97	C	1.557302	0.745492	-0.550766
C98	C	1.890635	1.078825	-0.217433
C99	C	2.223968	1.412159	0.115901
C100	C	1.500879	0.855381	-0.494233
C101	C	1.834212	1.188714	-0.160899
C102	C	2.167545	1.522047	0.172434
C103	C	1.562103	0.820461	-0.555546
C104	C	1.895436	1.153795	-0.222213
C105	C	2.228770	1.487128	0.111121
C106	C	1.804104	0.338292	-0.524926
C107	C	2.137438	0.671626	-0.191592
C108	C	2.470771	1.004959	0.141741
C109	C	1.920258	0.338298	-0.524935
C110	C	2.253591	0.671631	-0.191601
C111	C	2.586924	1.004965	0.141732
C112	C	1.531600	0.338211	-0.797470
C113	C	1.864934	0.671545	-0.464137
C114	C	2.198267	1.004878	-0.130803
C115	C	1.531629	0.338183	-0.913622
C116	C	1.864962	0.671516	-0.580288
C117	C	2.198295	1.004849	-0.246955
C118	C	1.520062	1.155100	-0.513331
C119	C	1.853395	1.488434	-0.179998
C120	C	2.186728	1.821767	0.153336
C121	C	1.515055	1.077041	-0.508376
C122	C	1.848388	1.410374	-0.175042
C123	C	2.181722	1.743707	0.158291
C124	C	1.592490	0.295491	-0.962716
C125	C	1.925823	0.628825	-0.629383
C126	C	2.259157	0.962158	-0.296049
C127	C	1.592521	0.295461	-1.082765
C128	C	1.925854	0.628794	-0.749431
C129	C	2.259187	0.962127	-0.416098
C130	C	1.531524	0.338295	-0.253395
C131	C	1.864857	0.671629	0.079938
C132	C	2.198190	1.004962	0.413271
C133	C	1.531685	0.338126	-0.137232
C134	C	1.865019	0.671459	0.196101
C135	C	2.198352	1.004793	0.529435
H136	H	1.097081	0.301784	-0.577067
H137	H	1.430415	0.635117	-0.243734
H138	H	1.763748	0.968450	0.089600
Br139	Br	1.172724	0.441748	-0.377057
Br140	Br	1.506057	0.775082	-0.043724
Br141	Br	1.839390	1.108415	0.289610
Br142	Br	1.662277	0.917071	-0.655835
Br143	Br	1.995611	1.250404	-0.322501
Br144	Br	2.328944	1.583738	0.010832
H145	H	0.962537	0.301793	-0.577076
H146	H	1.295870	0.635127	-0.243743
H147	H	1.629204	0.968460	0.089591
H148	H	1.644569	0.258962	-0.915872
H149	H	1.977902	0.592295	-0.582539
H150	H	2.311235	0.925629	-0.249205
Br151	Br	1.400703	0.758769	-0.393940
Br152	Br	1.734036	1.092103	-0.060607
Br153	Br	2.067369	1.425436	0.272727
H154	H	1.635788	1.070079	-0.629296
H155	H	1.969122	1.403412	-0.295963
H156	H	2.302455	1.736746	0.037371
H157	H	1.384938	0.937309	-0.378101
H158	H	1.718271	1.270642	-0.044767
H159	H	2.051604	1.603976	0.288566
H160	H	1.678056	0.738532	-0.671675
H161	H	2.011389	1.071865	-0.338341
H162	H	2.344722	1.405198	-0.005008
H163	H	1.479581	0.374680	-1.095009
H164	H	1.812914	0.708013	-0.761675
H165	H	2.146248	1.041347	-0.428342
H166	H	1.479539	0.374705	-0.960465
H167	H	1.812872	0.708038	-0.627132
H168	H	2.146206	1.041371	-0.293798
Br169	Br	1.358465	1.090329	-0.351538
Br170	Br	1.691798	1.423662	-0.018205
Br171	Br	2.025132	1.756995	0.315129
H172	H	0.932405	0.417423	-0.411859
H173	H	1.265739	0.750756	-0.078525
H174	H	1.599072	1.084089	0.254808
Br175	Br	1.704514	0.585519	-0.698250
Br176	Br	2.037847	0.918853	-0.364917
Br177	Br	2.371180	1.252186	-0.031584
Br178	Br	1.389647	0.585893	-0.382919
Br179	Br	1.722981	0.919226	-0.049586
Br180	Br	2.056314	1.252559	0.283748
H181	H	1.444583	0.825581	-0.437874
H182	H	1.777917	1.158914	-0.104541
H183	H	2.111250	1.492247	0.228793
Br184	Br	1.679382	0.234544	-1.153144
Br185	Br	2.012715	0.567877	-0.819811
Br186	Br	2.346048	0.901211	-0.486477
H187	H	1.618398	0.850259	-0.611901
H188	H	1.951732	1.183592	-0.278568
H189	H	2.285065	1.516925	0.054766
