data_functionalizedCrystal
_audit_creation_method	'MofGen! by Chris Wilmer'
_symmetry_space_group_name_H-M	'P1'
_symmetry_Int_Tables_number	1
_symmetry_cell_setting	triclinic
loop_
_symmetry_equiv_pos_as_xyz
  x,y,z
_cell_length_a	19.188930
_cell_length_b	14.421503
_cell_length_c	15.944551
_cell_angle_alpha	90.003340
_cell_angle_beta	83.321759
_cell_angle_gamma	89.978519
loop_
_atom_site_label
_atom_site_type_symbol
_atom_site_fract_x
_atom_site_fract_y
_atom_site_fract_z
O1	O	0.926420	-0.077412	0.104854
O2	O	1.259754	0.255922	0.438188
O3	O	1.593087	0.589255	0.771521
O4	O	0.723145	-0.077348	0.118971
O5	O	1.056479	0.255985	0.452304
O6	O	1.389812	0.589318	0.785638
O7	O	0.830334	-0.077374	-0.010383
O8	O	1.163667	0.255960	0.322950
O9	O	1.497000	0.589293	0.656284
O10	O	0.819232	-0.077387	0.234208
O11	O	1.152565	0.255947	0.567542
O12	O	1.485898	0.589280	0.900875
O13	O	0.830316	0.076850	-0.010364
O14	O	1.163649	0.410183	0.322970
O15	O	1.496983	0.743517	0.656303
O16	O	0.723128	0.076875	0.118990
O17	O	1.056461	0.410208	0.452324
O18	O	1.389794	0.743542	0.785657
O19	O	0.926402	0.076812	0.104874
O20	O	1.259736	0.410145	0.438207
O21	O	1.593069	0.743478	0.771540
Cu22	Cu	0.824763	0.090925	0.111934
Cu23	Cu	1.158097	0.424258	0.445267
Cu24	Cu	1.491430	0.757592	0.778600
Cu25	Cu	0.824784	-0.091462	0.111911
Cu26	Cu	1.158118	0.241871	0.445244
Cu27	Cu	1.491451	0.575205	0.778578
O28	O	0.819214	0.076837	0.234228
O29	O	1.152547	0.410170	0.567561
O30	O	1.485881	0.743503	0.900894
C31	C	0.697124	-0.000229	0.118524
C32	C	1.030458	0.333105	0.451857
C33	C	1.363791	0.666438	0.785190
C34	C	0.619616	-0.000204	0.117151
C35	C	0.952950	0.333129	0.450485
C36	C	1.286283	0.666462	0.783818
N37	N	0.824754	0.219206	0.111949
N38	N	1.158087	0.552540	0.445282
N39	N	1.491420	0.885873	0.778616
N40	N	0.824800	-0.219743	0.111889
N41	N	1.158133	0.113590	0.445222
N42	N	1.491466	0.446923	0.778555
C43	C	0.574889	-0.000223	0.193052
C44	C	0.908222	0.333110	0.526385
C45	C	1.241555	0.666444	0.859719
C46	C	0.502061	-0.000233	0.191763
C47	C	0.835395	0.333100	0.525096
C48	C	1.168728	0.666434	0.858429
C49	C	0.473965	-0.000243	0.114568
C50	C	0.807299	0.333090	0.447902
C51	C	1.140632	0.666424	0.781235
C52	C	0.518703	-0.000219	0.038658
C53	C	0.852036	0.333114	0.371991
C54	C	1.185369	0.666448	0.705324
C55	C	0.591528	-0.000200	0.039949
C56	C	0.924862	0.333134	0.373283
C57	C	1.258195	0.666467	0.706616
N58	N	0.365839	-0.052766	0.055556
N59	N	0.699172	0.280567	0.388890
N60	N	1.032505	0.613901	0.722223
N61	N	0.296657	-0.052787	0.054335
N62	N	0.629990	0.280547	0.387668
N63	N	0.963323	0.613880	0.721002
C64	C	0.254547	-0.000300	0.110673
C65	C	0.587880	0.333034	0.444006
C66	C	0.921213	0.666367	0.777339
N67	N	0.284230	0.052197	0.168291
N68	N	0.617563	0.385530	0.501625
N69	N	0.950897	0.718864	0.834958
N70	N	0.353418	0.052213	0.169515
N71	N	0.686751	0.385547	0.502849
N72	N	1.020085	0.718880	0.836182
C73	C	0.394999	-0.000263	0.113160
C74	C	0.728332	0.333070	0.446493
C75	C	1.061666	0.666403	0.779826
C76	C	0.130851	-0.000328	0.185181
C77	C	0.464184	0.333005	0.518514
C78	C	0.797517	0.666339	0.851847
C79	C	0.058023	-0.000332	0.183888
C80	C	0.391356	0.333001	0.517222
C81	C	0.724689	0.666334	0.850555
C82	C	0.074666	-0.000328	0.030781
C83	C	0.407999	0.333006	0.364115
C84	C	0.741332	0.666339	0.697448
C85	C	0.147492	-0.000314	0.032076
C86	C	0.480826	0.333019	0.365409
C87	C	0.814159	0.666353	0.698743
C88	C	0.175580	-0.000319	0.109278
C89	C	0.508913	0.333015	0.442611
C90	C	0.842247	0.666348	0.775945
C91	C	0.952423	-0.000310	0.105321
C92	C	1.285757	0.333023	0.438654
C93	C	1.619090	0.666356	0.771988
C94	C	1.029932	-0.000341	0.106693
C95	C	1.363265	0.332993	0.440027
C96	C	1.696598	0.666326	0.773360
C97	C	0.829864	-0.000261	-0.041666
C98	C	1.163197	0.333072	0.291668
C99	C	1.496531	0.666405	0.625001
C100	C	0.828482	-0.000261	-0.134906
C101	C	1.161816	0.333073	0.198427
C102	C	1.495149	0.666406	0.531760
C103	C	0.775181	0.468872	0.171736
C104	C	1.108514	0.802205	0.505069
C105	C	1.441848	1.135538	0.838402
C106	C	0.838271	0.530653	0.187807
C107	C	1.171604	0.863987	0.521140
C108	C	1.504937	1.197320	0.854474
C109	C	0.824771	0.408368	0.111929
C110	C	1.158104	0.741701	0.445262
C111	C	1.491437	1.075034	0.778596
C112	C	0.761697	0.530680	0.095877
C113	C	1.095031	0.864013	0.429211
C114	C	1.428364	1.197347	0.762544
C115	C	0.824781	0.591089	0.111912
C116	C	1.158115	0.924423	0.445245
C117	C	1.491448	1.257756	0.778578
C118	C	0.887892	0.468789	0.128038
C119	C	1.221226	0.802122	0.461371
C120	C	1.554559	1.135455	0.794705
C121	C	0.811277	0.468810	0.036076
C122	C	1.144611	0.802143	0.369409
C123	C	1.477944	1.135477	0.702742
C124	C	0.874413	0.530564	0.052114
C125	C	1.207746	0.863897	0.385448
C126	C	1.541079	1.197230	0.718781
C127	C	0.824764	0.303107	0.111941
C128	C	1.158097	0.636440	0.445275
C129	C	1.491430	0.969773	0.778608
C130	C	0.824796	0.696348	0.111899
C131	C	1.158129	1.029681	0.445232
C132	C	1.491463	1.363015	0.778565
C133	C	0.758739	-0.000252	-0.349502
C134	C	1.092073	0.333082	-0.016169
C135	C	1.425406	0.666415	0.317164
C136	C	0.791117	0.075780	-0.410631
C137	C	1.124450	0.409113	-0.077298
C138	C	1.457783	0.742446	0.256036
C139	C	0.825983	-0.000267	-0.305623
C140	C	1.159316	0.333066	0.027710
C141	C	1.492649	0.666400	0.361044
C142	C	0.791150	-0.076272	-0.410634
C143	C	1.124484	0.257061	-0.077300
C144	C	1.457817	0.590394	0.256033
C145	C	0.823563	-0.000277	-0.470527
C146	C	1.156896	0.333056	-0.137193
C147	C	1.490230	0.666390	0.196140
C148	C	0.858379	0.075827	-0.365524
C149	C	1.191712	0.409161	-0.032190
C150	C	1.525045	0.742494	0.301143
C151	C	0.858403	-0.076293	-0.365520
C152	C	1.191736	0.257040	-0.032186
C153	C	1.525069	0.590373	0.301147
C154	C	0.890829	-0.000243	-0.426631
C155	C	1.224162	0.333090	-0.093298
C156	C	1.557496	0.666423	0.240035
C157	C	0.827374	-0.000260	-0.210626
C158	C	1.160708	0.333073	0.122708
C159	C	1.494041	0.666406	0.456041
C160	C	0.822176	-0.000277	-0.565522
C161	C	1.155510	0.333056	-0.232189
C162	C	1.488843	0.666390	0.101144
C163	C	0.819684	-0.000277	0.265510
C164	C	1.153017	0.333056	0.598843
C165	C	1.486350	0.666389	0.932177
C166	C	0.821066	-0.000284	0.358751
C167	C	1.154399	0.333049	0.692084
C168	C	1.487732	0.666382	1.025418
H169	H	0.597753	-0.000228	0.255916
H170	H	0.931086	0.333105	0.589249
H171	H	1.264419	0.666438	0.922582
F172	F	0.454450	-0.000250	0.272550
F173	F	0.787783	0.333083	0.605883
F174	F	1.121117	0.666416	0.939216
F175	F	0.853203	0.566160	0.271641
F176	F	1.186536	0.899494	0.604975
F177	F	1.519869	1.232827	0.938308
H178	H	0.799834	0.441624	-0.028044
H179	H	1.133168	0.774957	0.305290
H180	H	1.466501	1.108291	0.638623
H181	H	0.708353	0.557868	0.082309
H182	H	1.041686	0.891201	0.415642
H183	H	1.375019	1.224534	0.748976
F184	F	0.957634	0.433408	0.145871
F185	F	1.290968	0.766742	0.479205
F186	F	1.624301	1.100075	0.812538
F187	F	0.720424	0.433461	0.237893
F188	F	1.053757	0.766794	0.571226
F189	F	1.387090	1.100128	0.904560
F190	F	0.929290	0.565753	-0.014006
F191	F	1.262624	0.899086	0.319327
F192	F	1.595957	1.232419	0.652661
F193	F	0.963846	-0.000213	-0.470247
F194	F	1.297180	0.333121	-0.136914
F195	F	1.630513	0.666454	0.196419
F196	F	0.160747	-0.000326	0.267345
F197	F	0.494080	0.333008	0.600678
F198	F	0.827413	0.666341	0.934011
H199	H	0.495822	-0.000240	-0.024194
H200	H	0.829156	0.333093	0.309139
H201	H	1.162489	0.666427	0.642472
F202	F	0.639133	-0.000180	-0.040838
F203	F	0.972466	0.333154	0.292495
F204	F	1.305800	0.666487	0.625828
H205	H	0.886827	-0.140592	-0.345504
H206	H	1.220160	0.192741	-0.012170
H207	H	1.553494	0.526074	0.321163
F208	F	0.685785	-0.000134	-0.305695
F209	F	1.019118	0.333199	0.027639
F210	F	1.352452	0.666532	0.360972
F211	F	0.753934	0.159820	-0.436765
F212	F	1.087267	0.493153	-0.103432
F213	F	1.420601	0.826487	0.229902
F214	F	0.753970	-0.160282	-0.436765
F215	F	1.087303	0.173051	-0.103432
F216	F	1.420636	0.506384	0.229902
F217	F	0.010419	-0.000347	0.264677
F218	F	0.343753	0.332986	0.598010
F219	F	0.677086	0.666319	0.931344
F220	F	0.044769	-0.000329	-0.051375
F221	F	0.378102	0.333004	0.281958
F222	F	0.711435	0.666337	0.615291
F223	F	0.195097	-0.000299	-0.048709
F224	F	0.528430	0.333034	0.284624
F225	F	0.861764	0.666368	0.617957
F226	F	0.895515	0.159935	-0.339527
F227	F	1.228848	0.493268	-0.006194
F228	F	1.562182	0.826602	0.327140
