data_functionalizedCrystal
_audit_creation_method	'MofGen! by Chris Wilmer'
_symmetry_space_group_name_H-M	'P1'
_symmetry_Int_Tables_number	1
_symmetry_cell_setting	triclinic
loop_
_symmetry_equiv_pos_as_xyz
  x,y,z
_cell_length_a	16.992694
_cell_length_b	12.996460
_cell_length_c	16.992695
_cell_angle_alpha	89.999594
_cell_angle_beta	89.331777
_cell_angle_gamma	90.000812
loop_
_atom_site_label
_atom_site_type_symbol
_atom_site_fract_x
_atom_site_fract_y
_atom_site_fract_z
O1	O	1.050853	0.085439	-0.166911
O2	O	1.550853	0.585439	0.333089
O3	O	0.822453	0.085469	-0.165080
O4	O	1.322453	0.585469	0.334920
O5	O	0.935737	0.085446	-0.051796
O6	O	1.435737	0.585446	0.448204
O7	O	0.937568	0.085462	-0.280196
O8	O	1.437568	0.585462	0.219804
O9	O	0.935722	-0.085688	-0.051802
O10	O	1.435722	0.414312	0.448198
O11	O	0.822438	-0.085665	-0.165086
O12	O	1.322438	0.414335	0.334914
O13	O	1.050838	-0.085695	-0.166917
O14	O	1.550838	0.414305	0.333083
Cu15	Cu	0.936636	-0.101306	-0.166002
Cu16	Cu	1.436636	0.398694	0.333998
Cu17	Cu	0.936654	0.101080	-0.165995
Cu18	Cu	1.436654	0.601080	0.334005
O19	O	0.937553	-0.085672	-0.280202
O20	O	1.437553	0.414328	0.219798
C21	C	0.793085	-0.000094	-0.162727
C22	C	1.293085	0.499906	0.337273
C23	C	0.705600	-0.000083	-0.155699
C24	C	1.205600	0.499917	0.344301
N25	N	0.936629	-0.243653	-0.166007
N26	N	1.436629	0.256347	0.333993
C27	C	0.659610	-0.000079	-0.223517
C28	C	1.159610	0.499921	0.276483
C29	C	0.577409	-0.000093	-0.216908
C30	C	1.077409	0.499907	0.283092
C31	C	0.541201	-0.000105	-0.142480
C32	C	1.041201	0.499895	0.357520
C33	C	0.587198	-0.000112	-0.074657
C34	C	1.087198	0.499888	0.425343
C35	C	0.669397	-0.000104	-0.081267
C36	C	1.169397	0.499896	0.418733
C37	C	0.295886	-0.000134	-0.115086
C38	C	0.795886	0.499866	0.384914
C39	C	0.213681	-0.000138	-0.108481
C40	C	0.713681	0.499862	0.391519
C41	C	0.203898	-0.000122	-0.250732
C42	C	0.703898	0.499878	0.249268
C43	C	0.286099	-0.000108	-0.257336
C44	C	0.786099	0.499892	0.242664
C45	C	0.332089	-0.000121	-0.189512
C46	C	0.832089	0.499879	0.310488
N47	N	0.457178	-0.000116	-0.135723
N48	N	0.957178	0.499884	0.364277
N49	N	0.416110	-0.000116	-0.196270
N50	N	0.916110	0.499884	0.303730
C51	C	0.936633	-0.336759	-0.166009
C52	C	1.436633	0.163241	0.333991
C53	C	0.936640	-0.453564	-0.166005
C54	C	1.436640	0.046436	0.333995
C55	C	0.936649	-0.546662	-0.165997
C56	C	1.436649	-0.046662	0.334003
C57	C	0.936658	-0.663475	-0.165993
C58	C	1.436658	-0.163475	0.334007
C59	C	1.080205	-0.000130	-0.169270
C60	C	1.580205	0.499870	0.330730
C61	C	1.167690	-0.000134	-0.176299
C62	C	1.667690	0.499866	0.323701
C63	C	0.933374	-0.000121	-0.022439
C64	C	1.433374	0.499879	0.477561
C65	C	0.926345	-0.000119	0.065046
C66	C	1.426345	0.499881	0.565046
N67	N	0.936667	0.243427	-0.165984
N68	N	1.436667	0.743427	0.334016
C69	C	0.939917	-0.000103	-0.309559
C70	C	1.439917	0.499897	0.190441
C71	C	0.946945	-0.000097	-0.397044
C72	C	1.446945	0.499903	0.102956
C73	C	0.994163	-0.000129	0.111037
C74	C	1.494163	0.499871	0.611037
C75	C	0.987554	-0.000119	0.193238
C76	C	1.487554	0.499881	0.693238
C77	C	0.913127	-0.000105	0.229446
C78	C	1.413127	0.499895	0.729446
C79	C	0.845303	-0.000092	0.183449
C80	C	1.345303	0.499908	0.683449
C81	C	0.851913	-0.000096	0.101250
C82	C	1.351913	0.499904	0.601250
C83	C	0.885732	-0.000088	0.474760
C84	C	1.385732	0.499912	0.974760
C85	C	0.879127	-0.000087	0.556966
C86	C	1.379127	0.499913	1.056966
C87	C	1.021379	-0.000112	0.566749
C88	C	1.521379	0.499888	1.066749
C89	C	1.027982	-0.000121	0.484547
C90	C	1.527982	0.499879	0.984547
C91	C	0.960159	-0.000103	0.438558
C92	C	1.460159	0.499897	0.938558
N93	N	0.906369	-0.000098	0.313468
N94	N	1.406369	0.499902	0.813468
N95	N	0.966917	-0.000103	0.354537
N96	N	1.466917	0.499897	0.854537
H97	H	0.689084	-0.000069	-0.284124
H98	H	1.189084	0.499931	0.215876
H99	H	1.088589	-0.000132	0.455073
H100	H	1.588589	0.499868	0.955073
H101	H	0.315574	-0.000087	-0.317942
H102	H	0.815574	0.499913	0.182058
H103	H	1.076596	-0.000125	0.604202
H104	H	1.576596	0.499875	1.104202
H105	H	0.166444	-0.000114	-0.305950
H106	H	0.666444	0.499886	0.194050
H107	H	1.042779	-0.000129	0.230680
H108	H	1.542779	0.499871	0.730680
H109	H	0.184203	-0.000146	-0.047870
H110	H	0.684203	0.499854	0.452130
H111	H	0.333322	-0.000145	-0.059859
H112	H	0.833322	0.499855	0.440141
H113	H	0.784703	-0.000075	0.212936
H114	H	1.284703	0.499925	0.712936
H115	H	0.706842	-0.000107	-0.026042
H116	H	1.206842	0.499893	0.473958
H117	H	1.054770	-0.000147	0.081563
H118	H	1.554770	0.499853	0.581563
H119	H	0.796688	-0.000087	0.063804
H120	H	1.296688	0.499913	0.563804
H121	H	0.818516	-0.000093	0.586443
H122	H	1.318516	0.499907	1.086443
H123	H	0.557710	-0.000135	-0.014056
H124	H	1.057710	0.499865	0.485944
H125	H	0.830505	-0.000073	0.437325
H126	H	1.330505	0.499927	0.937325
H127	H	0.539966	-0.000089	-0.272133
H128	H	1.039966	0.499911	0.227867
